AV-unprocessed.smi:511|AV-procd|sdf|2767|dock7
  -GOLD-   2262023233D 1   1.00000     0.00000
 Structure written by MMmdl.
 44 46  0  0  0  0  0  0  0  0  2 V2000
  150.9199  139.1525  154.9004 C   0  0  0  0  0  0  0  0  0  0  0  0
  151.4051  140.1410  155.7898 O   0  0  0  0  0  0  0  0  0  0  0  0
  152.1784  139.5943  156.8455 C   0  0  0  0  0  0  0  0  0  0  0  0
  151.6604  140.1276  158.1880 C   0  0  0  0  0  0  0  0  0  0  0  0
  152.5492  139.7776  159.2958 N   0  0  0  0  0  0  0  0  0  0  0  0
  153.1679  140.6006  160.1881 C   0  0  0  0  0  0  0  0  0  0  0  0
  152.9960  141.9858  160.1818 N   0  0  0  0  0  0  0  0  0  0  0  0
  153.0543  142.8918  161.3266 C   0  0  0  0  0  0  0  0  0  0  0  0
  151.8410  143.8420  161.3367 C   0  0  0  0  0  0  0  0  0  0  0  0
  151.8600  144.6588  160.1234 N   0  0  0  0  0  0  0  0  0  0  0  0
  150.7093  145.5500  160.1168 C   0  0  0  0  0  0  0  0  0  0  0  0
  151.8008  143.7734  158.9600 C   0  0  0  0  0  0  0  0  0  0  0  0
  153.0051  142.8107  158.9773 C   0  0  0  0  0  0  0  0  0  0  0  0
  153.9864  139.9802  161.0403 N   0  0  0  0  0  0  0  0  0  0  0  0
  153.8604  138.6476  160.6821 C   0  0  0  0  0  0  0  0  0  0  0  0
  153.0107  138.4996  159.6310 C   0  0  0  0  0  0  0  0  0  0  0  0
  152.7059  137.1958  158.9994 C   0  0  0  0  0  0  0  0  0  0  0  0
  151.9587  137.1193  158.0260 O   0  0  0  0  0  0  0  0  0  0  0  0
  153.3461  136.1565  159.6228 N   0  5  0  0  0  0  0  0  0  0  0  0
  154.2028  136.2602  160.6975 C   0  0  0  0  0  0  0  0  0  0  0  0
  154.7331  135.2705  161.2039 O   0  0  0  0  0  0  0  0  0  0  0  0
  154.4814  137.4918  161.2293 N   0  0  0  0  0  0  0  0  0  0  0  0
  155.3960  137.6341  162.3658 C   0  0  0  0  0  0  0  0  0  0  0  0
  150.3287  139.6257  154.1164 H   0  0  0  0  0  0  0  0  0  0  0  0
  150.2812  138.4356  155.4180 H   0  0  0  0  0  0  0  0  0  0  0  0
  151.7404  138.6134  154.4255 H   0  0  0  0  0  0  0  0  0  0  0  0
  152.1087  138.5059  156.8314 H   0  0  0  0  0  0  0  0  0  0  0  0
  153.2295  139.8559  156.7152 H   0  0  0  0  0  0  0  0  0  0  0  0
  151.5354  141.2029  158.1218 H   0  0  0  0  0  0  0  0  0  0  0  0
  150.6619  139.7454  158.3938 H   0  0  0  0  0  0  0  0  0  0  0  0
  153.1136  142.3276  162.2564 H   0  0  0  0  0  0  0  0  0  0  0  0
  153.9790  143.4687  161.2772 H   0  0  0  0  0  0  0  0  0  0  0  0
  150.9102  143.2761  161.4034 H   0  0  0  0  0  0  0  0  0  0  0  0
  151.8888  144.4908  162.2119 H   0  0  0  0  0  0  0  0  0  0  0  0
  150.7075  146.1649  159.2163 H   0  0  0  0  0  0  0  0  0  0  0  0
  150.7404  146.2200  160.9768 H   0  0  0  0  0  0  0  0  0  0  0  0
  149.7725  144.9917  160.1518 H   0  0  0  0  0  0  0  0  0  0  0  0
  150.8660  143.2110  158.9558 H   0  0  0  0  0  0  0  0  0  0  0  0
  151.8205  144.3708  158.0478 H   0  0  0  0  0  0  0  0  0  0  0  0
  153.9432  143.3645  158.9166 H   0  0  0  0  0  0  0  0  0  0  0  0
  152.9657  142.1669  158.0980 H   0  0  0  0  0  0  0  0  0  0  0  0
  156.3662  137.1897  162.1374 H   0  0  0  0  0  0  0  0  0  0  0  0
  154.9894  137.1327  163.2451 H   0  0  0  0  0  0  0  0  0  0  0  0
  155.5734  138.6752  162.6348 H   0  0  0  0  0  0  0  0  0  0  0  0
  1  2  1  0  0  0  0
  1 24  1  0  0  0  0
  1 25  1  0  0  0  0
  1 26  1  0  0  0  0
  2  3  1  0  0  0  0
  3  4  1  0  0  0  0
  3 27  1  0  0  0  0
  3 28  1  0  0  0  0
  4  5  1  0  0  0  0
  4 29  1  0  0  0  0
  4 30  1  0  0  0  0
  5 16  1  0  0  0  0
  5  6  1  0  0  0  0
  6  7  1  0  0  0  0
  6 14  2  0  0  0  0
  7 13  1  0  0  0  0
  7  8  1  0  0  0  0
  8  9  1  0  0  0  0
  8 31  1  0  0  0  0
  8 32  1  0  0  0  0
  9 10  1  0  0  0  0
  9 33  1  0  0  0  0
  9 34  1  0  0  0  0
 10 11  1  0  0  0  0
 10 12  1  0  0  0  0
 11 35  1  0  0  0  0
 11 36  1  0  0  0  0
 11 37  1  0  0  0  0
 12 13  1  0  0  0  0
 12 38  1  0  0  0  0
 12 39  1  0  0  0  0
 13 40  1  0  0  0  0
 13 41  1  0  0  0  0
 14 15  1  0  0  0  0
 15 22  1  0  0  0  0
 15 16  2  0  0  0  0
 16 17  1  0  0  0  0
 17 18  2  0  0  0  0
 17 19  1  0  0  0  0
 19 20  1  0  0  0  0
 20 21  2  0  0  0  0
 20 22  1  0  0  0  0
 22 23  1  0  0  0  0
 23 42  1  0  0  0  0
 23 43  1  0  0  0  0
 23 44  1  0  0  0  0
M  CHG  1  19  -1
M  END
> <s_m_source_file>
AV-unprocessed.smi

> <i_m_source_file_index>
511

> <i_lp_mmshare_version>
43012

> <i_f3d_flags>
0

> <s_epik_input>
W0NIM11uMWMoPU8pW25IXWMoPU8pYyhjMTIpbihbQ0gyXVtDSDJdT1tDSDNdKWMobjIpTjNbQ0gyXVtDSDJdTihbQ0gzXSlbQ0gyXVtDSDJdMw==

> <s_epik_cmdline>
J2VwaWtfcHl0aG9uJywgJy1waCcsICc3LjAnLCAnLXRuJywgJzgnLCAnLW1hJywgJzIwMCcsICctbWV0YWxfYmluZGluZycsICctaW1hZScsICc8aW5maWxlLm1hZT4nLCAnLW9tYWUnLCAnPG91dGZpbGUubWFlPic=

> <r_epik_Ionization_Penalty>
7.66215

> <r_epik_Ionization_Penalty_Charging>
0.0825427

> <r_epik_Ionization_Penalty_Neutral>
7.5796

> <r_epik_State_Penalty>
7.65676

> <r_epik_Charging_Adjusted_Penalty>
7.73931

> <i_epik_Tot_Q>
-1

> <i_epik_Tot_abs_Q>
1

> <r_epik_Metal_State_Penalty>
3.6066

> <b_epik_Metal_Only>
1

> <s_lp_Force_Field>
OPLS_2005

> <r_lp_Energy>
52.5947

> <b_lp_Chiralities_Consistent>
1

> <s_lp_Variant>
AV-unprocessed.smi:511-4

> <Gold.Version>
5.8.1

> <Gold.Id.Protein>
6NUR|6NUR_protein|mol2

> <Gold.PLP.Fitness>
46.1268

> <Gold.PLP.PLP>
-41.7970

> <Gold.PLP.part.hbond>
-1.5759

> <Gold.PLP.part.metal>
0.0000

> <Gold.PLP.part.buried>
-3.5733

> <Gold.PLP.part.nonpolar>
-35.0181

> <Gold.PLP.part.repulsive>
0.0769

> <Gold.PLP.ligand.clash>
0.0000

> <Gold.PLP.ligand.torsion>
0.9845

> <Gold.PLP.Chemscore.Hbond>
2.0000

> <Gold.PLP.Chemscore.CHOScore>
0.0000

> <Gold.PLP.Chemscore.Metal>
0.0000

> <Gold.Chemscore.Hbonds>
donor molecule, donor type, donor heavy atom, donor atom, acceptor molecule, acceptor atom, score
      P1  H  6896  6907       L1    19  2.00

> <Gold.PLP.Chemscore.Internal.Correction>
0.2987

> <Gold.Rescore>
     Score         DG    S(hbond)    S(metal)    S(lipo)     H(rot)  DE(clash)    DE(int)     intcor
     11.76     -13.93       0.63        0.00      86.31       1.47       0.43       1.73       ----

> <Gold.Chemscore.Fitness>
11.7646

> <Gold.Chemscore.DG>
-13.9262

> <Gold.Chemscore.ZeroCoef>
-5.4800

> <Gold.Chemscore.Hbond>
0.6349

> <Gold.Chemscore.Metal>
0.0000

> <Gold.Chemscore.Lipo>
86.3068

> <Gold.Chemscore.Internal_Hbond>
0.0000

> <Gold.Chemscore.DEClash>
0.4290

> <Gold.Chemscore.DEInternal>
1.7326

> <Gold.Chemscore.Rot>
1.4735

> <Gold.Chemscore.Internal.Correction>
   9.000000E+99

> <Gold.Chemscore.Hbonds>
donor molecule, donor type, donor heavy atom, donor atom, acceptor molecule, acceptor atom, score
      P1  H  6896  6907       L1    19  0.38

> <Gold.Chemscore.Hbond.Weighted>
-2.1206

> <Gold.Chemscore.Metal.Weighted>
-0.0000

> <Gold.Chemscore.Lipo.Weighted>
-10.0979

> <Gold.Chemscore.Internal_Hbond.Weighted>
0.0000

> <Gold.Chemscore.DEClash.Weighted>
0.4290

> <Gold.Chemscore.DEInternal.Weighted>
1.7326

> <Gold.Chemscore.Rot.Weighted>
3.7722

> <Gold.Chemscore.Internal.Correction.Weighted>
   9.000000E+99

> <Gold.Protein.RotatedTorsions>
[ 6907 6896 6895 6894 ] final   37.23 input  -60.11 | X-H torsion
[ 7974 7965 7964 7962 ] final -110.66 input  175.53 | X-H torsion
[ 8008 7997 7996 7995 ] final -129.23 input   59.86 | X-H torsion
[ 10167 10162 10161 10158 ] final   -6.20 input  -65.29 | X-H torsion
[ 10718 10713 10712 10709 ] final   74.31 input   66.30 | X-H torsion
[ 10763 10752 10751 10750 ] final   46.38 input  -60.55 | X-H torsion
[ 11005 11000 10999 10996 ] final -104.76 input  -57.11 | X-H torsion

> <Gold.Protein.ActiveResidues>
 VAL166  LYS551  ARG553  GLY616  TRP617  ASP618  TYR619  PRO620  LYS621  CYS622 
 ASP623  PHE694  ASN695  SER759  ASP760  ASP761  ALA762  ILE779  LEU786  VAL792 
 PHE793  MET794  SER795  GLU796  ALA797  LYS798  CYS799  TRP800  GLU811  SER814 

> <Gold.Protein.RotatedAtoms>
  152.1403  134.9067  160.0553 H   0  0  0  0  0  0  0  0  0  0  0  0  # atno 6907 bound_to 6896
  152.0138  133.3866  159.4238 H   0  0  0  0  0  0  0  0  0  0  0  0  # atno 6908 bound_to 6896
  150.6864  134.3623  159.4999 H   0  0  0  0  0  0  0  0  0  0  0  0  # atno 6909 bound_to 6896
  145.1656  140.8900  143.3565 H   0  0  0  0  0  0  0  0  0  0  0  0  # atno 7974 bound_to 7965
  155.2757  140.0442  157.3011 H   0  0  0  0  0  0  0  0  0  0  0  0  # atno 8008 bound_to 7997
  154.5627  140.2350  155.8280 H   0  0  0  0  0  0  0  0  0  0  0  0  # atno 8009 bound_to 7997
  156.2060  140.3012  155.9635 H   0  0  0  0  0  0  0  0  0  0  0  0  # atno 8010 bound_to 7997
  140.6989  143.6221  150.8603 H   0  0  0  0  0  0  0  0  0  0  0  0  # atno 10167 bound_to 10162
  157.6586  130.9671  150.1193 H   0  0  0  0  0  0  0  0  0  0  0  0  # atno 10718 bound_to 10713
  152.9811  135.6010  154.3589 H   0  0  0  0  0  0  0  0  0  0  0  0  # atno 10763 bound_to 10752
  154.3273  135.2769  155.2491 H   0  0  0  0  0  0  0  0  0  0  0  0  # atno 10764 bound_to 10752
  154.4631  135.5961  153.6325 H   0  0  0  0  0  0  0  0  0  0  0  0  # atno 10765 bound_to 10752
  141.1085  133.8751  157.1651 H   0  0  0  0  0  0  0  0  0  0  0  0  # atno 11005 bound_to 11000
  145.0286  139.3361  143.6036 LP  0  0  0  0  0  0  0  0  0  0  0  0  # atno 17320 bound_to 7965
  146.3476  139.9614  142.8717 LP  0  0  0  0  0  0  0  0  0  0  0  0  # atno 17321 bound_to 7965
  139.9941  143.5815  152.2899 LP  0  0  0  0  0  0  0  0  0  0  0  0  # atno 17342 bound_to 10162
  139.6481  144.7659  151.2203 LP  0  0  0  0  0  0  0  0  0  0  0  0  # atno 17343 bound_to 10162
  156.2068  130.3664  149.8719 LP  0  0  0  0  0  0  0  0  0  0  0  0  # atno 17370 bound_to 10713
  156.6608  130.8781  151.3547 LP  0  0  0  0  0  0  0  0  0  0  0  0  # atno 17371 bound_to 10713
  139.9967  135.0044  157.0098 LP  0  0  0  0  0  0  0  0  0  0  0  0  # atno 17394 bound_to 11000
  140.4838  134.1262  155.7221 LP  0  0  0  0  0  0  0  0  0  0  0  0  # atno 17395 bound_to 11000

$$$$
