AV-unprocessed.smi:2027|AV-procd|sdf|8215|dock6
  -GOLD-   2272010483D 1   1.00000     0.00000
 Structure written by MMmdl.
 50 52  0  0  0  0  0  0  0  0  2 V2000
  153.8801  141.9948  160.8568 C   0  0  0  0  0  0  0  0  0  0  0  0
  152.9728  141.8214  159.6507 C   0  0  0  0  0  0  0  0  0  0  0  0
  152.9433  140.5654  159.0038 C   0  0  0  0  0  0  0  0  0  0  0  0
  152.1004  140.4367  157.9063 C   0  0  0  0  0  0  0  0  0  0  0  0
  151.8463  139.3477  157.0693 N   0  3  0  0  0  0  0  0  0  0  0  0
  150.9287  139.7026  156.1273 C   0  0  0  0  0  0  0  0  0  0  0  0
  150.5937  141.0021  156.3510 N   0  0  0  0  0  0  0  0  0  0  0  0
  149.6372  141.8676  155.6478 C   0  0  0  0  0  0  0  0  0  0  0  0
  148.8865  141.1216  154.5286 C   0  0  2  0  0  0  0  0  0  0  0  0
  149.7973  140.7996  153.4956 O   0  0  0  0  0  0  0  0  0  0  0  0
  147.7389  141.9652  153.9340 C   0  0  0  0  0  0  0  0  0  0  0  0
  146.6725  142.3762  154.8620 N   0  0  0  0  0  0  0  0  0  0  0  0
  145.8494  141.2203  155.1987 C   0  0  0  0  0  0  0  0  0  0  0  0
  145.8059  143.4411  154.3368 C   0  0  0  0  0  0  0  0  0  0  0  0
  144.7901  143.9739  155.3105 C   0  0  0  0  0  0  0  0  0  0  0  0
  143.3826  144.0808  155.1227 C   0  0  0  0  0  0  0  0  0  0  0  0
  142.7648  144.6226  156.1591 N   0  0  0  0  0  0  0  0  0  0  0  0
  143.7494  144.8660  157.0474 N   0  0  0  0  0  0  0  0  0  0  0  0
  143.4267  145.4850  158.3148 C   0  0  0  0  0  0  0  0  0  0  0  0
  144.9798  144.4659  156.5722 C   0  0  0  0  0  0  0  0  0  0  0  0
  151.3039  141.5033  157.4474 C   0  0  0  0  0  0  0  0  0  0  0  0
  151.3242  142.7488  158.0702 C   0  0  0  0  0  0  0  0  0  0  0  0
  152.1752  142.9000  159.1881 C   0  0  0  0  0  0  0  0  0  0  0  0
  152.2186  144.2471  159.8889 C   0  0  0  0  0  0  0  0  0  0  0  0
  154.3955  141.0667  161.1054 H   0  0  0  0  0  0  0  0  0  0  0  0
  153.3032  142.2983  161.7305 H   0  0  0  0  0  0  0  0  0  0  0  0
  154.6371  142.7544  160.6598 H   0  0  0  0  0  0  0  0  0  0  0  0
  153.5486  139.7404  159.3498 H   0  0  0  0  0  0  0  0  0  0  0  0
  150.5308  139.0652  155.3509 H   0  0  0  0  0  0  0  0  0  0  0  0
  148.9408  142.2736  156.3825 H   0  0  0  0  0  0  0  0  0  0  0  0
  150.1923  142.7141  155.2408 H   0  0  0  0  0  0  0  0  0  0  0  0
  148.5199  140.1937  154.9515 H   0  0  0  0  0  0  0  0  0  0  0  0
  149.3943  140.1601  152.9288 H   0  0  0  0  0  0  0  0  0  0  0  0
  148.1517  142.8529  153.4526 H   0  0  0  0  0  0  0  0  0  0  0  0
  147.3064  141.3775  153.1224 H   0  0  0  0  0  0  0  0  0  0  0  0
  145.0792  141.4875  155.9232 H   0  0  0  0  0  0  0  0  0  0  0  0
  146.4527  140.4297  155.6463 H   0  0  0  0  0  0  0  0  0  0  0  0
  145.3579  140.8139  154.3135 H   0  0  0  0  0  0  0  0  0  0  0  0
  146.4249  144.2514  153.9490 H   0  0  0  0  0  0  0  0  0  0  0  0
  145.2703  143.0575  153.4673 H   0  0  0  0  0  0  0  0  0  0  0  0
  142.7973  143.7987  154.2600 H   0  0  0  0  0  0  0  0  0  0  0  0
  144.3313  145.6128  158.9100 H   0  0  0  0  0  0  0  0  0  0  0  0
  142.7255  144.8566  158.8647 H   0  0  0  0  0  0  0  0  0  0  0  0
  142.9745  146.4624  158.1425 H   0  0  0  0  0  0  0  0  0  0  0  0
  145.8835  144.5853  157.1516 H   0  0  0  0  0  0  0  0  0  0  0  0
  150.7129  143.5676  157.7216 H   0  0  0  0  0  0  0  0  0  0  0  0
  151.5767  144.9756  159.3928 H   0  0  0  0  0  0  0  0  0  0  0  0
  153.2327  144.6466  159.8921 H   0  0  0  0  0  0  0  0  0  0  0  0
  151.8786  144.1512  160.9202 H   0  0  0  0  0  0  0  0  0  0  0  0
  152.2622  138.4277  157.1366 H   0  0  0  0  0  0  0  0  0  0  0  0
  1  2  1  0  0  0  0
  1 25  1  0  0  0  0
  1 26  1  0  0  0  0
  1 27  1  0  0  0  0
  2 23  1  0  0  0  0
  2  3  2  0  0  0  0
  3  4  1  0  0  0  0
  3 28  1  0  0  0  0
  4 21  2  0  0  0  0
  4  5  1  0  0  0  0
  5  6  2  0  0  0  0
  5 50  1  0  0  0  0
  6  7  1  0  0  0  0
  6 29  1  0  0  0  0
  7  8  1  0  0  0  0
  7 21  1  0  0  0  0
  8  9  1  0  0  0  0
  8 30  1  0  0  0  0
  8 31  1  0  0  0  0
  9 10  1  0  0  0  0
  9 11  1  0  0  0  0
  9 32  1  0  0  0  0
 10 33  1  0  0  0  0
 11 12  1  0  0  0  0
 11 34  1  0  0  0  0
 11 35  1  0  0  0  0
 12 13  1  0  0  0  0
 12 14  1  0  0  0  0
 13 36  1  0  0  0  0
 13 37  1  0  0  0  0
 13 38  1  0  0  0  0
 14 15  1  0  0  0  0
 14 39  1  0  0  0  0
 14 40  1  0  0  0  0
 15 20  2  0  0  0  0
 15 16  1  0  0  0  0
 16 17  2  0  0  0  0
 16 41  1  0  0  0  0
 17 18  1  0  0  0  0
 18 19  1  0  0  0  0
 18 20  1  0  0  0  0
 19 42  1  0  0  0  0
 19 43  1  0  0  0  0
 19 44  1  0  0  0  0
 20 45  1  0  0  0  0
 21 22  1  0  0  0  0
 22 23  2  0  0  0  0
 22 46  1  0  0  0  0
 23 24  1  0  0  0  0
 24 47  1  0  0  0  0
 24 48  1  0  0  0  0
 24 49  1  0  0  0  0
M  CHG  1   5   1
M  END
> <s_m_source_file>
AV-unprocessed.smi

> <i_m_source_file_index>
2027

> <i_lp_mmshare_version>
43012

> <i_f3d_flags>
0

> <s_epik_input>
W0NIM11jKFtjSF0xKWMoW0NIM10pW2NIXWMoYzEyKW4oW2NIXW4yKVtDSDJdW0NASF0oW09IXSlbQ0gyXU4oW0NIM10pW0NIMl1jM1tjSF1ubihbQ0gzXSlbY0hdMw==

> <s_epik_cmdline>
J2VwaWtfcHl0aG9uJywgJy1waCcsICc3LjAnLCAnLXRuJywgJzgnLCAnLW1hJywgJzIwMCcsICctbWV0YWxfYmluZGluZycsICctaW1hZScsICc8aW5maWxlLm1hZT4nLCAnLW9tYWUnLCAnPG91dGZpbGUubWFlPic=

> <r_epik_Ionization_Penalty>
1.48134

> <r_epik_Ionization_Penalty_Charging>
1.21121

> <r_epik_Ionization_Penalty_Neutral>
0.270133

> <r_epik_State_Penalty>
1.53013

> <r_epik_Charging_Adjusted_Penalty>
2.74134

> <i_epik_Tot_Q>
1

> <i_epik_Tot_abs_Q>
1

> <r_epik_Metal_State_Penalty>
1.60443

> <b_epik_Metal_Only>
0

> <s_lp_Force_Field>
OPLS_2005

> <r_lp_Energy>
21.1476

> <b_lp_Chiralities_Consistent>
1

> <s_lp_Variant>
AV-unprocessed.smi:2027-7

> <Gold.Version>
5.8.1

> <Gold.Id.Protein>
6NUR|6NUR_protein|mol2

> <Gold.PLP.Fitness>
55.8870

> <Gold.PLP.PLP>
-46.3217

> <Gold.PLP.part.hbond>
-2.4218

> <Gold.PLP.part.metal>
0.0000

> <Gold.PLP.part.buried>
-3.7641

> <Gold.PLP.part.nonpolar>
-39.0843

> <Gold.PLP.part.repulsive>
0.2662

> <Gold.PLP.ligand.clash>
0.0000

> <Gold.PLP.ligand.torsion>
0.1910

> <Gold.PLP.Chemscore.Hbond>
1.8800

> <Gold.PLP.Chemscore.CHOScore>
1.3605

> <Gold.PLP.Chemscore.Metal>
0.0000

> <Gold.Chemscore.Hbonds>
donor molecule, donor type, donor heavy atom, donor atom, acceptor molecule, acceptor atom, score
      L1  H    10    33       P1  7957  0.51
      P1  H  7989  7998       L1    10  0.35
      P1  H  8011  8017       L1    10  1.00
      L1  C    16    41       P1 10174  1.00
      L1  C    20    45       P1  8029  0.34

> <Gold.PLP.Chemscore.Internal.Correction>
0.2259

> <Gold.Rescore>
     Score         DG    S(hbond)    S(metal)    S(lipo)     H(rot)  DE(clash)    DE(int)     intcor
     16.22     -17.06       1.18        0.00     120.03       2.50       0.69       0.15       ----

> <Gold.Chemscore.Fitness>
16.2168

> <Gold.Chemscore.DG>
-17.0575

> <Gold.Chemscore.ZeroCoef>
-5.4800

> <Gold.Chemscore.Hbond>
1.1777

> <Gold.Chemscore.Metal>
0.0000

> <Gold.Chemscore.Lipo>
120.0347

> <Gold.Chemscore.Internal_Hbond>
0.0000

> <Gold.Chemscore.DEClash>
0.6918

> <Gold.Chemscore.DEInternal>
0.1489

> <Gold.Chemscore.Rot>
2.5000

> <Gold.Chemscore.Internal.Correction>
   9.000000E+99

> <Gold.Chemscore.Hbonds>
donor molecule, donor type, donor heavy atom, donor atom, acceptor molecule, acceptor atom, score
      L1  H    10    33       P1  7957  0.52
      P1  H  7989  7998       L1    10  0.32
      P1  H  8011  8017       L1    10  0.14

> <Gold.Chemscore.Hbond.Weighted>
-3.9334

> <Gold.Chemscore.Metal.Weighted>
-0.0000

> <Gold.Chemscore.Lipo.Weighted>
-14.0441

> <Gold.Chemscore.Internal_Hbond.Weighted>
0.0000

> <Gold.Chemscore.DEClash.Weighted>
0.6918

> <Gold.Chemscore.DEInternal.Weighted>
0.1489

> <Gold.Chemscore.Rot.Weighted>
6.3999

> <Gold.Chemscore.Internal.Correction.Weighted>
   9.000000E+99

> <Gold.Protein.RotatedTorsions>
[ 6907 6896 6895 6894 ] final  -79.06 input  -60.11 | X-H torsion
[ 7974 7965 7964 7962 ] final  168.48 input  175.53 | X-H torsion
[ 8008 7997 7996 7995 ] final    5.66 input   59.86 | X-H torsion
[ 10167 10162 10161 10158 ] final   95.01 input  -65.29 | X-H torsion
[ 10718 10713 10712 10709 ] final   99.91 input   66.30 | X-H torsion
[ 10763 10752 10751 10750 ] final -101.41 input  -60.55 | X-H torsion
[ 11005 11000 10999 10996 ] final  154.59 input  -57.11 | X-H torsion

> <Gold.Protein.ActiveResidues>
 VAL166  LYS551  ARG553  GLY616  TRP617  ASP618  TYR619  PRO620  LYS621  CYS622 
 ASP623  PHE694  ASN695  SER759  ASP760  ASP761  ALA762  ILE779  LEU786  VAL792 
 PHE793  MET794  SER795  GLU796  ALA797  LYS798  CYS799  TRP800  GLU811  SER814 

> <Gold.Protein.RotatedAtoms>
  150.6958  134.4178  159.5190 H   0  0  0  0  0  0  0  0  0  0  0  0  # atno 6907 bound_to 6896
  152.1926  134.8656  160.0525 H   0  0  0  0  0  0  0  0  0  0  0  0  # atno 6908 bound_to 6896
  151.9606  133.3659  159.4070 H   0  0  0  0  0  0  0  0  0  0  0  0  # atno 6909 bound_to 6896
  144.7387  139.8914  143.6403 H   0  0  0  0  0  0  0  0  0  0  0  0  # atno 7974 bound_to 7965
  154.7312  140.2731  155.6454 H   0  0  0  0  0  0  0  0  0  0  0  0  # atno 8008 bound_to 7997
  156.2850  140.2715  156.1938 H   0  0  0  0  0  0  0  0  0  0  0  0  # atno 8009 bound_to 7997
  155.0379  140.0371  157.2488 H   0  0  0  0  0  0  0  0  0  0  0  0  # atno 8010 bound_to 7997
  139.8029  144.6806  150.9741 H   0  0  0  0  0  0  0  0  0  0  0  0  # atno 10167 bound_to 10162
  157.6866  131.0683  150.5020 H   0  0  0  0  0  0  0  0  0  0  0  0  # atno 10718 bound_to 10713
  154.7655  135.4899  153.9547 H   0  0  0  0  0  0  0  0  0  0  0  0  # atno 10763 bound_to 10752
  153.1303  135.6751  153.9197 H   0  0  0  0  0  0  0  0  0  0  0  0  # atno 10764 bound_to 10752
  153.8902  135.3122  155.3426 H   0  0  0  0  0  0  0  0  0  0  0  0  # atno 10765 bound_to 10752
  140.1503  134.8679  157.2446 H   0  0  0  0  0  0  0  0  0  0  0  0  # atno 11005 bound_to 11000
  146.1139  139.4148  143.0270 LP  0  0  0  0  0  0  0  0  0  0  0  0  # atno 17320 bound_to 7965
  145.7403  141.0010  143.1305 LP  0  0  0  0  0  0  0  0  0  0  0  0  # atno 17321 bound_to 7965
  140.7820  143.4263  151.0763 LP  0  0  0  0  0  0  0  0  0  0  0  0  # atno 17342 bound_to 10162
  139.7934  143.8186  152.3154 LP  0  0  0  0  0  0  0  0  0  0  0  0  # atno 17343 bound_to 10162
  156.5341  130.4192  149.6186 LP  0  0  0  0  0  0  0  0  0  0  0  0  # atno 17370 bound_to 10713
  156.3043  130.7194  151.2072 LP  0  0  0  0  0  0  0  0  0  0  0  0  # atno 17371 bound_to 10713
  140.2613  134.3568  155.7406 LP  0  0  0  0  0  0  0  0  0  0  0  0  # atno 17394 bound_to 11000
  141.2198  133.7371  156.9084 LP  0  0  0  0  0  0  0  0  0  0  0  0  # atno 17395 bound_to 11000

$$$$
