AV-unprocessed.smi:2443|AV-procd|sdf|9631|dock7
  -GOLD-   2272013263D 1   1.00000     0.00000
 Structure written by MMmdl.
 37 39  0  0  0  0  0  0  0  0  1 V2000
  149.0199  140.5367  154.3120 C   0  0  0  0  0  0  0  0  0  0  0  0
  150.3787  140.4319  154.7217 O   0  0  0  0  0  0  0  0  0  0  0  0
  150.8583  139.1876  155.0749 C   0  0  0  0  0  0  0  0  0  0  0  0
  150.1784  138.0340  154.6331 C   0  0  0  0  0  0  0  0  0  0  0  0
  150.7006  136.7795  155.0207 C   0  0  0  0  0  0  0  0  0  0  0  0
  149.9862  135.6438  154.5564 N   0  0  0  0  0  0  0  0  0  0  0  0
  149.8893  134.4330  155.1327 C   0  0  0  0  0  0  0  0  0  0  0  0
  150.4124  134.1077  156.1988 O   0  0  0  0  0  0  0  0  0  0  0  0
  149.1378  133.6036  154.3950 N   0  0  0  0  0  0  0  0  0  0  0  0
  148.8416  132.2167  154.7359 C   0  0  0  0  0  0  0  0  0  0  0  0
  147.6628  131.5853  154.0038 C   0  0  0  0  0  0  0  0  0  0  0  0
  146.8141  132.5503  153.1804 C   0  0  0  0  0  0  0  0  0  0  0  0
  146.3531  132.1558  151.7959 C   0  0  0  0  0  0  0  0  0  0  0  0
  147.3203  133.2996  151.9629 C   0  0  0  0  0  0  0  0  0  0  0  0
  147.8543  130.1950  153.4273 C   0  0  0  0  0  0  0  0  0  0  0  0
  147.0265  130.3731  154.6675 C   0  0  0  0  0  0  0  0  0  0  0  0
  151.8178  136.7193  155.7867 N   0  0  0  0  0  0  0  0  0  0  0  0
  152.3884  137.8687  156.1518 C   0  0  0  0  0  0  0  0  0  0  0  0
  151.9728  139.0967  155.8399 N   0  0  0  0  0  0  0  0  0  0  0  0
  148.7968  141.5741  154.0635 H   0  0  0  0  0  0  0  0  0  0  0  0
  148.3387  140.2334  155.1083 H   0  0  0  0  0  0  0  0  0  0  0  0
  148.8233  139.9345  153.4238 H   0  0  0  0  0  0  0  0  0  0  0  0
  149.2899  138.1144  154.0240 H   0  0  0  0  0  0  0  0  0  0  0  0
  149.4915  135.7677  153.6855 H   0  0  0  0  0  0  0  0  0  0  0  0
  148.7472  133.9525  153.5320 H   0  0  0  0  0  0  0  0  0  0  0  0
  149.7366  131.6079  154.5964 H   0  0  0  0  0  0  0  0  0  0  0  0
  148.6260  132.1884  155.8041 H   0  0  0  0  0  0  0  0  0  0  0  0
  146.0755  133.0921  153.7684 H   0  0  0  0  0  0  0  0  0  0  0  0
  146.7420  131.2295  151.3782 H   0  0  0  0  0  0  0  0  0  0  0  0
  145.3285  132.3974  151.5204 H   0  0  0  0  0  0  0  0  0  0  0  0
  146.9367  134.3052  151.8031 H   0  0  0  0  0  0  0  0  0  0  0  0
  148.3313  133.1338  151.6016 H   0  0  0  0  0  0  0  0  0  0  0  0
  147.3277  129.9539  152.5058 H   0  0  0  0  0  0  0  0  0  0  0  0
  148.8295  129.7250  153.5381 H   0  0  0  0  0  0  0  0  0  0  0  0
  147.4580  130.0265  155.6046 H   0  0  0  0  0  0  0  0  0  0  0  0
  145.9598  130.1947  154.5676 H   0  0  0  0  0  0  0  0  0  0  0  0
  153.2773  137.7974  156.7605 H   0  0  0  0  0  0  0  0  0  0  0  0
  1  2  1  0  0  0  0
  1 20  1  0  0  0  0
  1 21  1  0  0  0  0
  1 22  1  0  0  0  0
  2  3  1  0  0  0  0
  3 19  1  0  0  0  0
  3  4  2  0  0  0  0
  4  5  1  0  0  0  0
  4 23  1  0  0  0  0
  5  6  1  0  0  0  0
  5 17  2  0  0  0  0
  6  7  1  0  0  0  0
  6 24  1  0  0  0  0
  7  8  2  0  0  0  0
  7  9  1  0  0  0  0
  9 10  1  0  0  0  0
  9 25  1  0  0  0  0
 10 11  1  0  0  0  0
 10 26  1  0  0  0  0
 10 27  1  0  0  0  0
 11 16  1  0  0  0  0
 11 12  1  0  0  0  0
 11 15  1  0  0  0  0
 12 14  1  0  0  0  0
 12 13  1  0  0  0  0
 12 28  1  0  0  0  0
 13 14  1  0  0  0  0
 13 29  1  0  0  0  0
 13 30  1  0  0  0  0
 14 31  1  0  0  0  0
 14 32  1  0  0  0  0
 15 16  1  0  0  0  0
 15 33  1  0  0  0  0
 15 34  1  0  0  0  0
 16 35  1  0  0  0  0
 16 36  1  0  0  0  0
 17 18  1  0  0  0  0
 18 19  2  0  0  0  0
 18 37  1  0  0  0  0
M  END
> <s_m_source_file>
AV-unprocessed.smi

> <i_m_source_file_index>
2443

> <i_lp_mmshare_version>
43012

> <i_f3d_flags>
0

> <s_epik_input>
W0NIM11PYzFbY0hdYyhuW2NIXW4xKVtOSF1DKD1PKVtOSF1bQ0gyXUMyKFtDSDJdW0NIMl0yKVtDSF0zW0NIMl1bQ0gyXTM=

> <s_epik_cmdline>
J2VwaWtfcHl0aG9uJywgJy1waCcsICc3LjAnLCAnLXRuJywgJzgnLCAnLW1hJywgJzIwMCcsICctbWV0YWxfYmluZGluZycsICctaW1hZScsICc8aW5maWxlLm1hZT4nLCAnLW9tYWUnLCAnPG91dGZpbGUubWFlPic=

> <r_lp_tautomer_probability>
1

> <r_epik_Ionization_Penalty>
2.73859e-05

> <r_epik_Ionization_Penalty_Charging>
0

> <r_epik_Ionization_Penalty_Neutral>
2.73859e-05

> <r_epik_State_Penalty>
-0

> <r_epik_Charging_Adjusted_Penalty>
0

> <i_epik_Tot_Q>
0

> <i_epik_Tot_abs_Q>
0

> <r_epik_Metal_State_Penalty>
-0

> <b_epik_Metal_Only>
0

> <s_lp_Force_Field>
OPLS_2005

> <r_lp_Energy>
26.0575

> <b_lp_Chiralities_Consistent>
1

> <s_lp_Variant>
AV-unprocessed.smi:2443-1

> <Gold.Version>
5.8.1

> <Gold.Id.Protein>
6NUR|6NUR_protein|mol2

> <Gold.PLP.Fitness>
36.3569

> <Gold.PLP.PLP>
-30.0443

> <Gold.PLP.part.hbond>
-3.7463

> <Gold.PLP.part.metal>
0.0000

> <Gold.PLP.part.buried>
-4.4424

> <Gold.PLP.part.nonpolar>
-23.7666

> <Gold.PLP.part.repulsive>
0.2215

> <Gold.PLP.ligand.clash>
0.0000

> <Gold.PLP.ligand.torsion>
2.3948

> <Gold.PLP.Chemscore.Hbond>
2.8500

> <Gold.PLP.Chemscore.CHOScore>
0.0000

> <Gold.PLP.Chemscore.Metal>
0.0000

> <Gold.Chemscore.Hbonds>
donor molecule, donor type, donor heavy atom, donor atom, acceptor molecule, acceptor atom, score
      L1  H     6    24       P1  7948  1.00
      P1  H  7989  7998       L1     2  0.95
      P1  H 10752 10765       L1    17  1.00

> <Gold.PLP.Chemscore.Internal.Correction>
2.5522

> <Gold.Rescore>
     Score         DG    S(hbond)    S(metal)    S(lipo)     H(rot)  DE(clash)    DE(int)     intcor
      8.45     -11.71       1.63        0.00      47.35       1.86       0.02       3.24       ----

> <Gold.Chemscore.Fitness>
8.4543

> <Gold.Chemscore.DG>
-11.7133

> <Gold.Chemscore.ZeroCoef>
-5.4800

> <Gold.Chemscore.Hbond>
1.6345

> <Gold.Chemscore.Metal>
0.0000

> <Gold.Chemscore.Lipo>
47.3545

> <Gold.Chemscore.Internal_Hbond>
0.0000

> <Gold.Chemscore.DEClash>
0.0234

> <Gold.Chemscore.DEInternal>
3.2356

> <Gold.Chemscore.Rot>
1.8619

> <Gold.Chemscore.Internal.Correction>
   9.000000E+99

> <Gold.Chemscore.Hbonds>
donor molecule, donor type, donor heavy atom, donor atom, acceptor molecule, acceptor atom, score
      L1  H     6    24       P1  7948  0.35
      P1  H  7989  7998       L1     2  0.19
      P1  H 10752 10765       L1    17  0.57

> <Gold.Chemscore.Hbond.Weighted>
-5.4592

> <Gold.Chemscore.Metal.Weighted>
-0.0000

> <Gold.Chemscore.Lipo.Weighted>
-5.5405

> <Gold.Chemscore.Internal_Hbond.Weighted>
0.0000

> <Gold.Chemscore.DEClash.Weighted>
0.0234

> <Gold.Chemscore.DEInternal.Weighted>
3.2356

> <Gold.Chemscore.Rot.Weighted>
4.7665

> <Gold.Chemscore.Internal.Correction.Weighted>
   9.000000E+99

> <Gold.Protein.RotatedTorsions>
[ 6907 6896 6895 6894 ] final  116.38 input  -60.11 | X-H torsion
[ 7974 7965 7964 7962 ] final    9.95 input  175.53 | X-H torsion
[ 8008 7997 7996 7995 ] final  163.14 input   59.86 | X-H torsion
[ 10167 10162 10161 10158 ] final   63.26 input  -65.29 | X-H torsion
[ 10718 10713 10712 10709 ] final -174.98 input   66.30 | X-H torsion
[ 10763 10752 10751 10750 ] final -156.40 input  -60.55 | X-H torsion
[ 11005 11000 10999 10996 ] final  140.68 input  -57.11 | X-H torsion

> <Gold.Protein.ActiveResidues>
 VAL166  LYS551  ARG553  GLY616  TRP617  ASP618  TYR619  PRO620  LYS621  CYS622 
 ASP623  PHE694  ASN695  SER759  ASP760  ASP761  ALA762  ILE779  LEU786  VAL792 
 PHE793  MET794  SER795  GLU796  ALA797  LYS798  CYS799  TRP800  GLU811  SER814 

> <Gold.Protein.RotatedAtoms>
  152.4681  133.7969  159.6931 H   0  0  0  0  0  0  0  0  0  0  0  0  # atno 6907 bound_to 6896
  150.8656  133.7569  159.2984 H   0  0  0  0  0  0  0  0  0  0  0  0  # atno 6908 bound_to 6896
  151.5121  135.1068  159.9908 H   0  0  0  0  0  0  0  0  0  0  0  0  # atno 6909 bound_to 6896
  146.2396  139.9707  142.8447 H   0  0  0  0  0  0  0  0  0  0  0  0  # atno 7974 bound_to 7965
  156.1979  140.1731  156.7960 H   0  0  0  0  0  0  0  0  0  0  0  0  # atno 8008 bound_to 7997
  154.5553  140.0709  156.8765 H   0  0  0  0  0  0  0  0  0  0  0  0  # atno 8009 bound_to 7997
  155.2950  140.3358  155.4253 H   0  0  0  0  0  0  0  0  0  0  0  0  # atno 8010 bound_to 7997
  140.1349  144.4608  150.6843 H   0  0  0  0  0  0  0  0  0  0  0  0  # atno 10167 bound_to 10162
  156.7931  130.9525  151.3120 H   0  0  0  0  0  0  0  0  0  0  0  0  # atno 10718 bound_to 10713
  154.7716  135.3147  154.8178 H   0  0  0  0  0  0  0  0  0  0  0  0  # atno 10763 bound_to 10752
  153.8912  135.6825  153.4765 H   0  0  0  0  0  0  0  0  0  0  0  0  # atno 10764 bound_to 10752
  153.1330  135.4772  154.9314 H   0  0  0  0  0  0  0  0  0  0  0  0  # atno 10765 bound_to 10752
  140.0345  134.9335  157.0727 H   0  0  0  0  0  0  0  0  0  0  0  0  # atno 11005 bound_to 11000
  145.1683  140.9708  143.4336 LP  0  0  0  0  0  0  0  0  0  0  0  0  # atno 17320 bound_to 7965
  145.0052  139.3561  143.6148 LP  0  0  0  0  0  0  0  0  0  0  0  0  # atno 17321 bound_to 7965
  140.6795  143.2320  151.5421 LP  0  0  0  0  0  0  0  0  0  0  0  0  # atno 17342 bound_to 10162
  139.5501  144.2419  152.1514 LP  0  0  0  0  0  0  0  0  0  0  0  0  # atno 17343 bound_to 10162
  157.6591  130.8950  149.9791 LP  0  0  0  0  0  0  0  0  0  0  0  0  # atno 17370 bound_to 10713
  156.1147  130.3648  149.9989 LP  0  0  0  0  0  0  0  0  0  0  0  0  # atno 17371 bound_to 10713
  140.4170  134.1921  155.7163 LP  0  0  0  0  0  0  0  0  0  0  0  0  # atno 17394 bound_to 11000
  141.1850  133.8333  157.1121 LP  0  0  0  0  0  0  0  0  0  0  0  0  # atno 17395 bound_to 11000

$$$$
