AV-unprocessed.smi:56|AV-procd|sdf|580|dock4
  -GOLD-   2262016483D 1   1.00000     0.00000
 Structure written by MMmdl.
 23 24  0  0  0  0  0  0  0  0  2 V2000
  144.8314  134.5547  150.3059 O   0  0  0  0  0  0  0  0  0  0  0  0
  144.8238  133.1708  150.6136 C   0  0  2  0  0  0  0  0  0  0  0  0
  145.7515  132.8961  151.7613 C   0  0  0  0  0  0  0  0  0  0  0  0
  147.1082  133.0189  151.8932 C   0  0  0  0  0  0  0  0  0  0  0  0
  147.3724  132.5943  153.2274 C   0  0  0  0  0  0  0  0  0  0  0  0
  146.2774  132.2369  153.8773 N   0  0  0  0  0  0  0  0  0  0  0  0
  145.2969  132.4273  152.9755 N   0  0  0  0  0  0  0  0  0  0  0  0
  145.1196  132.3928  149.3257 C   0  0  0  0  0  0  0  0  0  0  0  0
  143.7846  132.3867  148.5681 C   0  0  0  0  0  0  0  0  0  0  0  0
  142.7278  132.6051  149.5772 N   0  3  0  0  0  0  0  0  0  0  0  0
  143.3736  132.7549  150.8955 C   0  0  0  0  0  0  0  0  0  0  0  0
  144.3295  132.2437  153.2013 H   0  0  0  0  0  0  0  0  0  0  0  0
  145.2365  134.6810  149.4619 H   0  0  0  0  0  0  0  0  0  0  0  0
  147.8132  133.3620  151.1507 H   0  0  0  0  0  0  0  0  0  0  0  0
  148.3221  132.5367  153.7387 H   0  0  0  0  0  0  0  0  0  0  0  0
  145.9477  132.8039  148.7466 H   0  0  0  0  0  0  0  0  0  0  0  0
  145.3732  131.3597  149.5677 H   0  0  0  0  0  0  0  0  0  0  0  0
  143.7486  133.2031  147.8461 H   0  0  0  0  0  0  0  0  0  0  0  0
  143.6271  131.4530  148.0274 H   0  0  0  0  0  0  0  0  0  0  0  0
  142.2366  133.4579  149.3500 H   0  0  0  0  0  0  0  0  0  0  0  0
  143.3554  131.7758  151.3767 H   0  0  0  0  0  0  0  0  0  0  0  0
  142.8375  133.4498  151.5430 H   0  0  0  0  0  0  0  0  0  0  0  0
  142.0772  131.8325  149.5922 H   0  0  0  0  0  0  0  0  0  0  0  0
  1  2  1  0  0  0  0
  1 13  1  0  0  0  0
  2 11  1  0  0  0  0
  2  3  1  0  0  0  0
  2  8  1  0  0  0  0
  3  7  1  0  0  0  0
  3  4  2  0  0  0  0
  4  5  1  0  0  0  0
  4 14  1  0  0  0  0
  5  6  2  0  0  0  0
  5 15  1  0  0  0  0
  6  7  1  0  0  0  0
  7 12  1  0  0  0  0
  8  9  1  0  0  0  0
  8 16  1  0  0  0  0
  8 17  1  0  0  0  0
  9 10  1  0  0  0  0
  9 18  1  0  0  0  0
  9 19  1  0  0  0  0
 10 11  1  0  0  0  0
 10 20  1  0  0  0  0
 10 23  1  0  0  0  0
 11 21  1  0  0  0  0
 11 22  1  0  0  0  0
M  CHG  1  10   1
M  END
> <s_m_source_file>
AV-unprocessed.smi

> <i_m_source_file_index>
56

> <i_lp_mmshare_version>
43012

> <i_f3d_flags>
0

> <s_epik_input>
W0NIMl0xW05IXVtDSDJdW0NIMl1bQ0BAXTEoW09IXSljMltjSF1bY0hdbltuSF0y

> <s_epik_cmdline>
J2VwaWtfcHl0aG9uJywgJy1waCcsICc3LjAnLCAnLXRuJywgJzgnLCAnLW1hJywgJzIwMCcsICctbWV0YWxfYmluZGluZycsICctaW1hZScsICc8aW5maWxlLm1hZT4nLCAnLW9tYWUnLCAnPG91dGZpbGUubWFlPic=

> <r_lp_tautomer_probability>
0.5

> <r_epik_Ionization_Penalty>
0.00599842

> <r_epik_Ionization_Penalty_Charging>
0.00599115

> <r_epik_Ionization_Penalty_Neutral>
7.26593e-06

> <r_epik_State_Penalty>
0.41068

> <r_epik_Charging_Adjusted_Penalty>
0.416671

> <i_epik_Tot_Q>
1

> <i_epik_Tot_abs_Q>
1

> <r_epik_Metal_State_Penalty>
0.410678

> <b_epik_Metal_Only>
0

> <s_lp_Force_Field>
OPLS_2005

> <r_lp_Energy>
26.3948

> <b_lp_Chiralities_Consistent>
1

> <s_lp_Variant>
AV-unprocessed.smi:56-4

> <Gold.Version>
5.8.1

> <Gold.Id.Protein>
6NUR|6NUR_protein|mol2

> <Gold.PLP.Fitness>
34.6081

> <Gold.PLP.PLP>
-22.2295

> <Gold.PLP.part.hbond>
-3.1936

> <Gold.PLP.part.metal>
0.0000

> <Gold.PLP.part.buried>
-1.8893

> <Gold.PLP.part.nonpolar>
-17.3235

> <Gold.PLP.part.repulsive>
0.2455

> <Gold.PLP.ligand.clash>
0.0000

> <Gold.PLP.ligand.torsion>
0.0536

> <Gold.PLP.Chemscore.Hbond>
4.1570

> <Gold.PLP.Chemscore.CHOScore>
0.0000

> <Gold.PLP.Chemscore.Metal>
0.0000

> <Gold.Chemscore.Hbonds>
donor molecule, donor type, donor heavy atom, donor atom, acceptor molecule, acceptor atom, score
      L1  H     1    13       P1  7921  0.98
      L1  H     7    12       P1 10957  0.15
      L1  H    10    20       P1 10186  2.00
      L1  H    10    23       P1 10952  1.00

> <Gold.PLP.Chemscore.Internal.Correction>
0.0147

> <Gold.Rescore>
     Score         DG    S(hbond)    S(metal)    S(lipo)     H(rot)  DE(clash)    DE(int)     intcor
     18.21     -18.63       2.92        0.00      61.89       1.50       0.42       0.01       ----

> <Gold.Chemscore.Fitness>
18.2069

> <Gold.Chemscore.DG>
-18.6314

> <Gold.Chemscore.ZeroCoef>
-5.4800

> <Gold.Chemscore.Hbond>
2.9181

> <Gold.Chemscore.Metal>
0.0000

> <Gold.Chemscore.Lipo>
61.8895

> <Gold.Chemscore.Internal_Hbond>
0.0000

> <Gold.Chemscore.DEClash>
0.4162

> <Gold.Chemscore.DEInternal>
0.0083

> <Gold.Chemscore.Rot>
1.4985

> <Gold.Chemscore.Internal.Correction>
   9.000000E+99

> <Gold.Chemscore.Hbonds>
donor molecule, donor type, donor heavy atom, donor atom, acceptor molecule, acceptor atom, score
      L1  H     1    13       P1  7921  0.91
      L1  H     7    12       P1 10957  0.01
      L1  H    10    20       P1 10186  0.91
      L1  H    10    23       P1 10952  0.99

> <Gold.Chemscore.Hbond.Weighted>
-9.7465

> <Gold.Chemscore.Metal.Weighted>
-0.0000

> <Gold.Chemscore.Lipo.Weighted>
-7.2411

> <Gold.Chemscore.Internal_Hbond.Weighted>
0.0000

> <Gold.Chemscore.DEClash.Weighted>
0.4162

> <Gold.Chemscore.DEInternal.Weighted>
0.0083

> <Gold.Chemscore.Rot.Weighted>
3.8362

> <Gold.Chemscore.Internal.Correction.Weighted>
   9.000000E+99

> <Gold.Protein.RotatedTorsions>
[ 6907 6896 6895 6894 ] final -142.55 input  -60.11 | X-H torsion
[ 7974 7965 7964 7962 ] final -152.47 input  175.53 | X-H torsion
[ 8008 7997 7996 7995 ] final   91.11 input   59.86 | X-H torsion
[ 10167 10162 10161 10158 ] final   59.90 input  -65.29 | X-H torsion
[ 10718 10713 10712 10709 ] final  -88.91 input   66.30 | X-H torsion
[ 10763 10752 10751 10750 ] final  142.81 input  -60.55 | X-H torsion
[ 11005 11000 10999 10996 ] final -149.01 input  -57.11 | X-H torsion

> <Gold.Protein.ActiveResidues>
 VAL166  LYS551  ARG553  GLY616  TRP617  ASP618  TYR619  PRO620  LYS621  CYS622 
 ASP623  PHE694  ASN695  SER759  ASP760  ASP761  ALA762  ILE779  LEU786  VAL792 
 PHE793  MET794  SER795  GLU796  ALA797  LYS798  CYS799  TRP800  GLU811  SER814 

> <Gold.Protein.RotatedAtoms>
  151.0886  133.5334  159.2616 H   0  0  0  0  0  0  0  0  0  0  0  0  # atno 6907 bound_to 6896
  151.2210  135.0518  159.8959 H   0  0  0  0  0  0  0  0  0  0  0  0  # atno 6908 bound_to 6896
  152.5432  134.0688  159.8238 H   0  0  0  0  0  0  0  0  0  0  0  0  # atno 6909 bound_to 6896
  144.7792  140.4657  143.5851 H   0  0  0  0  0  0  0  0  0  0  0  0  # atno 7974 bound_to 7965
  156.0199  140.3341  155.7028 H   0  0  0  0  0  0  0  0  0  0  0  0  # atno 8008 bound_to 7997
  155.6037  140.0658  157.2743 H   0  0  0  0  0  0  0  0  0  0  0  0  # atno 8009 bound_to 7997
  154.4312  140.1806  156.1188 H   0  0  0  0  0  0  0  0  0  0  0  0  # atno 8010 bound_to 7997
  140.1714  144.4273  150.6659 H   0  0  0  0  0  0  0  0  0  0  0  0  # atno 10167 bound_to 10162
  155.9984  130.4853  150.5091 H   0  0  0  0  0  0  0  0  0  0  0  0  # atno 10718 bound_to 10713
  153.9619  135.2959  155.3433 H   0  0  0  0  0  0  0  0  0  0  0  0  # atno 10763 bound_to 10752
  154.7370  135.5042  153.9061 H   0  0  0  0  0  0  0  0  0  0  0  0  # atno 10764 bound_to 10752
  153.0942  135.6716  153.9905 H   0  0  0  0  0  0  0  0  0  0  0  0  # atno 10765 bound_to 10752
  140.7552  134.3361  157.5116 H   0  0  0  0  0  0  0  0  0  0  0  0  # atno 11005 bound_to 11000
  145.6098  139.1512  143.3082 LP  0  0  0  0  0  0  0  0  0  0  0  0  # atno 17320 bound_to 7965
  146.1991  140.6214  142.9111 LP  0  0  0  0  0  0  0  0  0  0  0  0  # atno 17321 bound_to 7965
  140.6579  143.2243  151.5924 LP  0  0  0  0  0  0  0  0  0  0  0  0  # atno 17342 bound_to 10162
  139.5336  144.2844  152.1203 LP  0  0  0  0  0  0  0  0  0  0  0  0  # atno 17343 bound_to 10162
  157.3066  131.0655  151.2031 LP  0  0  0  0  0  0  0  0  0  0  0  0  # atno 17370 bound_to 10713
  157.2991  130.6834  149.6154 LP  0  0  0  0  0  0  0  0  0  0  0  0  # atno 17371 bound_to 10713
  139.8780  134.9167  156.3161 LP  0  0  0  0  0  0  0  0  0  0  0  0  # atno 17394 bound_to 11000
  140.9714  133.7325  156.0540 LP  0  0  0  0  0  0  0  0  0  0  0  0  # atno 17395 bound_to 11000

$$$$
