AV-unprocessed.smi:1215|AV-procd|sdf|5096|dock9
  -GOLD-   22720 4143D 1   1.00000     0.00000
 Structure written by MMmdl.
 46 47  0  0  0  0  0  0  0  0  2 V2000
  150.0770  141.3047  157.7126 C   0  0  0  0  0  0  0  0  0  0  0  0
  150.5290  141.5787  156.2731 C   0  0  0  0  0  0  0  0  0  0  0  0
  150.2218  140.4685  155.3926 N   0  0  0  0  0  0  0  0  0  0  0  0
  148.9805  140.0163  154.9906 C   0  0  0  0  0  0  0  0  0  0  0  0
  149.2237  138.9543  154.1659 C   0  0  0  0  0  0  0  0  0  0  0  0
  148.3065  138.1214  153.4764 N   0  0  0  0  0  0  0  0  0  0  0  0
  146.9652  138.1764  153.5178 C   0  0  0  0  0  0  0  0  0  0  0  0
  146.3080  138.9848  154.1739 O   0  0  0  0  0  0  0  0  0  0  0  0
  146.4125  137.2263  152.7502 N   0  0  0  0  0  0  0  0  0  0  0  0
  144.9788  137.0220  152.5796 C   0  0  0  0  0  0  0  0  0  0  0  0
  144.5694  135.5745  152.9179 C   0  0  0  0  0  0  0  0  0  0  0  0
  144.7868  134.6213  151.7958 N   0  3  2  0  0  0  0  0  0  0  0  0
  143.7359  133.5685  151.7479 C   0  0  0  0  0  0  0  0  0  0  0  0
  143.8401  132.7275  150.4658 C   0  0  0  0  0  0  0  0  0  0  0  0
  145.2357  132.1124  150.3214 C   0  0  0  0  0  0  0  0  0  0  0  0
  146.3002  133.2158  150.3910 C   0  0  0  0  0  0  0  0  0  0  0  0
  146.1734  134.0698  151.6707 C   0  0  2  0  0  0  0  0  0  0  0  0
  146.6550  133.3122  152.9267 C   0  0  0  0  0  0  0  0  0  0  0  0
  150.6357  138.8205  154.1134 C   0  0  0  0  0  0  0  0  0  0  0  0
  151.2322  139.7383  154.8586 N   0  0  0  0  0  0  0  0  0  0  0  0
  150.3289  142.1418  158.3639 H   0  0  0  0  0  0  0  0  0  0  0  0
  150.5606  140.4135  158.1134 H   0  0  0  0  0  0  0  0  0  0  0  0
  148.9983  141.1546  157.7668 H   0  0  0  0  0  0  0  0  0  0  0  0
  150.0463  142.4779  155.8875 H   0  0  0  0  0  0  0  0  0  0  0  0
  151.6042  141.7593  156.2449 H   0  0  0  0  0  0  0  0  0  0  0  0
  148.0651  140.4840  155.3219 H   0  0  0  0  0  0  0  0  0  0  0  0
  148.7166  137.4051  152.8950 H   0  0  0  0  0  0  0  0  0  0  0  0
  147.0273  136.6057  152.2434 H   0  0  0  0  0  0  0  0  0  0  0  0
  144.4233  137.7333  153.1934 H   0  0  0  0  0  0  0  0  0  0  0  0
  144.7501  137.2569  151.5407 H   0  0  0  0  0  0  0  0  0  0  0  0
  145.0810  135.2286  153.8163 H   0  0  0  0  0  0  0  0  0  0  0  0
  143.5062  135.5684  153.1615 H   0  0  0  0  0  0  0  0  0  0  0  0
  143.8042  132.9293  152.6287 H   0  0  0  0  0  0  0  0  0  0  0  0
  142.7501  134.0339  151.7803 H   0  0  0  0  0  0  0  0  0  0  0  0
  143.0853  131.9405  150.4736 H   0  0  0  0  0  0  0  0  0  0  0  0
  143.6252  133.3538  149.5989 H   0  0  0  0  0  0  0  0  0  0  0  0
  145.4025  131.3770  151.1090 H   0  0  0  0  0  0  0  0  0  0  0  0
  145.3125  131.5758  149.3754 H   0  0  0  0  0  0  0  0  0  0  0  0
  147.2968  132.7778  150.3240 H   0  0  0  0  0  0  0  0  0  0  0  0
  146.1970  133.8621  149.5182 H   0  0  0  0  0  0  0  0  0  0  0  0
  146.8530  134.9093  151.5283 H   0  0  0  0  0  0  0  0  0  0  0  0
  147.6575  132.9126  152.7726 H   0  0  0  0  0  0  0  0  0  0  0  0
  146.0086  132.4722  153.1792 H   0  0  0  0  0  0  0  0  0  0  0  0
  146.7099  133.9647  153.7978 H   0  0  0  0  0  0  0  0  0  0  0  0
  151.2356  138.1039  153.5720 H   0  0  0  0  0  0  0  0  0  0  0  0
  144.6435  135.1672  150.9581 H   0  0  0  0  0  0  0  0  0  0  0  0
  1  2  1  0  0  0  0
  1 21  1  0  0  0  0
  1 22  1  0  0  0  0
  1 23  1  0  0  0  0
  2  3  1  0  0  0  0
  2 24  1  0  0  0  0
  2 25  1  0  0  0  0
  3 20  1  0  0  0  0
  3  4  1  0  0  0  0
  4  5  2  0  0  0  0
  4 26  1  0  0  0  0
  5  6  1  0  0  0  0
  5 19  1  0  0  0  0
  6  7  1  0  0  0  0
  6 27  1  0  0  0  0
  7  8  2  0  0  0  0
  7  9  1  0  0  0  0
  9 10  1  0  0  0  0
  9 28  1  0  0  0  0
 10 11  1  0  0  0  0
 10 29  1  0  0  0  0
 10 30  1  0  0  0  0
 11 12  1  0  0  0  0
 11 31  1  0  0  0  0
 11 32  1  0  0  0  0
 12 17  1  0  0  0  0
 12 13  1  0  0  0  0
 12 46  1  0  0  0  0
 13 14  1  0  0  0  0
 13 33  1  0  0  0  0
 13 34  1  0  0  0  0
 14 15  1  0  0  0  0
 14 35  1  0  0  0  0
 14 36  1  0  0  0  0
 15 16  1  0  0  0  0
 15 37  1  0  0  0  0
 15 38  1  0  0  0  0
 16 17  1  0  0  0  0
 16 39  1  0  0  0  0
 16 40  1  0  0  0  0
 17 18  1  0  0  0  0
 17 41  1  0  0  0  0
 18 42  1  0  0  0  0
 18 43  1  0  0  0  0
 18 44  1  0  0  0  0
 19 20  2  0  0  0  0
 19 45  1  0  0  0  0
M  CHG  1  12   1
M  END
> <s_m_source_file>
AV-unprocessed.smi

> <i_m_source_file_index>
1215

> <i_lp_mmshare_version>
43012

> <i_f3d_flags>
0

> <s_epik_input>
W0NIM11bQ0gyXW4xW2NIXWMoW2NIXW4xKVtOSF1DKD1PKVtOSF1bQ0gyXVtDSDJdTjJbQ0gyXVtDSDJdW0NIMl1bQ0gyXVtDQEhdMltDSDNd

> <s_epik_cmdline>
J2VwaWtfcHl0aG9uJywgJy1waCcsICc3LjAnLCAnLXRuJywgJzgnLCAnLW1hJywgJzIwMCcsICctbWV0YWxfYmluZGluZycsICctaW1hZScsICc8aW5maWxlLm1hZT4nLCAnLW9tYWUnLCAnPG91dGZpbGUubWFlPic=

> <r_lp_tautomer_probability>
1

> <r_epik_Ionization_Penalty>
0.00247187

> <r_epik_Ionization_Penalty_Charging>
0.00232067

> <r_epik_Ionization_Penalty_Neutral>
0.000151201

> <r_epik_State_Penalty>
0.00160128

> <r_epik_Charging_Adjusted_Penalty>
0.00392194

> <i_epik_Tot_Q>
1

> <i_epik_Tot_abs_Q>
1

> <r_epik_Metal_State_Penalty>
-0

> <b_epik_Metal_Only>
0

> <s_lp_Force_Field>
OPLS_2005

> <r_lp_Energy>
24.1958

> <b_lp_Chiralities_Consistent>
1

> <s_lp_Variant>
AV-unprocessed.smi:1215-3

> <Gold.Version>
5.8.1

> <Gold.Id.Protein>
6NUR|6NUR_protein|mol2

> <Gold.PLP.Fitness>
42.5989

> <Gold.PLP.PLP>
-35.4120

> <Gold.PLP.part.hbond>
-3.5387

> <Gold.PLP.part.metal>
0.0000

> <Gold.PLP.part.buried>
-3.6753

> <Gold.PLP.part.nonpolar>
-28.1279

> <Gold.PLP.part.repulsive>
0.2819

> <Gold.PLP.ligand.clash>
0.0000

> <Gold.PLP.ligand.torsion>
0.5493

> <Gold.PLP.Chemscore.Hbond>
2.7460

> <Gold.PLP.Chemscore.CHOScore>
0.0000

> <Gold.PLP.Chemscore.Metal>
0.0000

> <Gold.Chemscore.Hbonds>
donor molecule, donor type, donor heavy atom, donor atom, acceptor molecule, acceptor atom, score
      L1  H     6    27       P1  7948  1.00
      L1  H     9    28       P1  7948  0.88
      P1  H  7989  7998       L1    20  0.72

> <Gold.PLP.Chemscore.Internal.Correction>
0.0476

> <Gold.Rescore>
     Score         DG    S(hbond)    S(metal)    S(lipo)     H(rot)  DE(clash)    DE(int)     intcor
     15.96     -17.62       1.94        0.00      83.08       1.59       0.04       1.63       ----

> <Gold.Chemscore.Fitness>
15.9559

> <Gold.Chemscore.DG>
-17.6173

> <Gold.Chemscore.ZeroCoef>
-5.4800

> <Gold.Chemscore.Hbond>
1.9430

> <Gold.Chemscore.Metal>
0.0000

> <Gold.Chemscore.Lipo>
83.0810

> <Gold.Chemscore.Internal_Hbond>
0.0000

> <Gold.Chemscore.DEClash>
0.0362

> <Gold.Chemscore.DEInternal>
1.6252

> <Gold.Chemscore.Rot>
1.5909

> <Gold.Chemscore.Internal.Correction>
   9.000000E+99

> <Gold.Chemscore.Hbonds>
donor molecule, donor type, donor heavy atom, donor atom, acceptor molecule, acceptor atom, score
      L1  H     6    27       P1  7948  0.97
      L1  H     9    28       P1  7948  0.84
      P1  H  7989  7998       L1    20  0.02

> <Gold.Chemscore.Hbond.Weighted>
-6.4896

> <Gold.Chemscore.Metal.Weighted>
-0.0000

> <Gold.Chemscore.Lipo.Weighted>
-9.7205

> <Gold.Chemscore.Internal_Hbond.Weighted>
0.0000

> <Gold.Chemscore.DEClash.Weighted>
0.0362

> <Gold.Chemscore.DEInternal.Weighted>
1.6252

> <Gold.Chemscore.Rot.Weighted>
4.0728

> <Gold.Chemscore.Internal.Correction.Weighted>
   9.000000E+99

> <Gold.Protein.RotatedTorsions>
[ 6907 6896 6895 6894 ] final  -68.00 input  -60.11 | X-H torsion
[ 7974 7965 7964 7962 ] final   35.14 input  175.53 | X-H torsion
[ 8008 7997 7996 7995 ] final -154.07 input   59.86 | X-H torsion
[ 10167 10162 10161 10158 ] final  101.23 input  -65.29 | X-H torsion
[ 10718 10713 10712 10709 ] final   21.78 input   66.30 | X-H torsion
[ 10763 10752 10751 10750 ] final  144.55 input  -60.55 | X-H torsion
[ 11005 11000 10999 10996 ] final   38.83 input  -57.11 | X-H torsion

> <Gold.Protein.ActiveResidues>
 VAL166  LYS551  ARG553  GLY616  TRP617  ASP618  TYR619  PRO620  LYS621  CYS622 
 ASP623  PHE694  ASN695  SER759  ASP760  ASP761  ALA762  ILE779  LEU786  VAL792 
 PHE793  MET794  SER795  GLU796  ALA797  LYS798  CYS799  TRP800  GLU811  SER814 

> <Gold.Protein.RotatedAtoms>
  150.7379  134.5801  159.5934 H   0  0  0  0  0  0  0  0  0  0  0  0  # atno 6907 bound_to 6896
  152.3217  134.7368  160.0321 H   0  0  0  0  0  0  0  0  0  0  0  0  # atno 6908 bound_to 6896
  151.7882  133.3321  159.3528 H   0  0  0  0  0  0  0  0  0  0  0  0  # atno 6909 bound_to 6896
  146.1304  139.6180  142.9231 H   0  0  0  0  0  0  0  0  0  0  0  0  # atno 7974 bound_to 7965
  155.6807  140.0744  157.2485 H   0  0  0  0  0  0  0  0  0  0  0  0  # atno 8008 bound_to 7997
  154.4106  140.1682  156.2031 H   0  0  0  0  0  0  0  0  0  0  0  0  # atno 8009 bound_to 7997
  155.9537  140.3375  155.6433 H   0  0  0  0  0  0  0  0  0  0  0  0  # atno 8010 bound_to 7997
  139.7456  144.6999  151.0509 H   0  0  0  0  0  0  0  0  0  0  0  0  # atno 10167 bound_to 10162
  157.1431  130.6641  149.5987 H   0  0  0  0  0  0  0  0  0  0  0  0  # atno 10718 bound_to 10713
  153.9907  135.2932  155.3412 H   0  0  0  0  0  0  0  0  0  0  0  0  # atno 10763 bound_to 10752
  154.7216  135.5106  153.8824 H   0  0  0  0  0  0  0  0  0  0  0  0  # atno 10764 bound_to 10752
  153.0811  135.6679  154.0159 H   0  0  0  0  0  0  0  0  0  0  0  0  # atno 10765 bound_to 10752
  140.2087  134.3781  155.8059 H   0  0  0  0  0  0  0  0  0  0  0  0  # atno 11005 bound_to 11000
  145.5274  141.0429  143.2402 LP  0  0  0  0  0  0  0  0  0  0  0  0  # atno 17320 bound_to 7965
  144.7684  139.6791  143.7205 LP  0  0  0  0  0  0  0  0  0  0  0  0  # atno 17321 bound_to 7965
  140.7791  143.4871  150.9942 LP  0  0  0  0  0  0  0  0  0  0  0  0  # atno 17342 bound_to 10162
  139.8559  143.7377  152.3176 LP  0  0  0  0  0  0  0  0  0  0  0  0  # atno 17343 bound_to 10162
  155.9784  130.4770  150.6657 LP  0  0  0  0  0  0  0  0  0  0  0  0  # atno 17370 bound_to 10713
  157.4289  131.0846  151.1058 LP  0  0  0  0  0  0  0  0  0  0  0  0  # atno 17371 bound_to 10713
  141.2226  133.7132  156.8381 LP  0  0  0  0  0  0  0  0  0  0  0  0  # atno 17394 bound_to 11000
  140.1974  134.8921  157.3130 LP  0  0  0  0  0  0  0  0  0  0  0  0  # atno 17395 bound_to 11000

$$$$
