AV-unprocessed.smi:701|AV-procd|sdf|3414|dock6
  -GOLD-   22720 0393D 1   1.00000     0.00000
 Structure written by MMmdl.
 48 50  0  0  0  0  0  0  0  0  2 V2000
  147.0131  142.2024  154.0933 C   0  0  0  0  0  0  0  0  0  0  0  0
  147.0695  141.3048  155.3313 C   0  0  0  0  0  0  0  0  0  0  0  0
  147.9782  140.2468  155.0808 O   0  0  0  0  0  0  0  0  0  0  0  0
  149.3214  140.6831  154.9156 C   0  0  2  0  0  0  0  0  0  0  0  0
  150.1445  139.6984  154.0759 C   0  0  0  0  0  0  0  0  0  0  0  0
  150.5813  139.0281  155.3828 C   0  0  2  0  0  0  0  0  0  0  0  0
  149.7192  137.8896  155.6981 N   0  0  0  0  0  0  0  0  0  0  0  0
  150.0793  136.6035  155.5841 C   0  0  0  0  0  0  0  0  0  0  0  0
  151.1777  136.2452  155.1574 O   0  0  0  0  0  0  0  0  0  0  0  0
  149.0291  135.5669  156.0005 C   0  0  0  0  0  0  0  0  0  0  0  0
  149.4143  134.1991  155.6200 N   0  0  0  0  0  0  0  0  0  0  0  0
  149.1943  133.8023  154.2892 C   0  0  0  0  0  0  0  0  0  0  0  0
  149.5221  132.5717  153.8517 C   0  0  0  0  0  0  0  0  0  0  0  0
  150.1202  131.6388  154.7989 C   0  0  0  0  0  0  0  0  0  0  0  0
  150.4202  130.5088  154.4184 O   0  0  0  0  0  0  0  0  0  0  0  0
  150.3189  132.0730  156.0779 N   0  5  0  0  0  0  0  0  0  0  0  0
  149.9832  133.3289  156.5081 C   0  0  0  0  0  0  0  0  0  0  0  0
  150.1737  133.7012  157.6665 O   0  0  0  0  0  0  0  0  0  0  0  0
  150.2121  140.3374  156.1385 C   0  0  0  0  0  0  0  0  0  0  0  0
  151.4119  141.2845  156.3521 C   0  0  0  0  0  0  0  0  0  0  0  0
  151.0110  142.6651  156.9014 C   0  0  0  0  0  0  0  0  0  0  0  0
  150.2331  142.5379  158.2164 C   0  0  0  0  0  0  0  0  0  0  0  0
  149.0484  141.5770  158.0652 C   0  0  0  0  0  0  0  0  0  0  0  0
  149.5034  140.2189  157.5071 C   0  0  0  0  0  0  0  0  0  0  0  0
  146.3140  143.0259  154.2392 H   0  0  0  0  0  0  0  0  0  0  0  0
  146.6901  141.6399  153.2168 H   0  0  0  0  0  0  0  0  0  0  0  0
  147.9926  142.6288  153.8750 H   0  0  0  0  0  0  0  0  0  0  0  0
  147.3851  141.8869  156.1978 H   0  0  0  0  0  0  0  0  0  0  0  0
  146.0788  140.9022  155.5467 H   0  0  0  0  0  0  0  0  0  0  0  0
  149.3987  141.7223  154.5937 H   0  0  0  0  0  0  0  0  0  0  0  0
  149.5699  139.0651  153.3990 H   0  0  0  0  0  0  0  0  0  0  0  0
  150.9720  140.1824  153.5554 H   0  0  0  0  0  0  0  0  0  0  0  0
  151.6471  138.7940  155.3996 H   0  0  0  0  0  0  0  0  0  0  0  0
  148.8026  138.0963  156.0680 H   0  0  0  0  0  0  0  0  0  0  0  0
  148.8486  135.6225  157.0760 H   0  0  0  0  0  0  0  0  0  0  0  0
  148.0802  135.8398  155.5371 H   0  0  0  0  0  0  0  0  0  0  0  0
  148.7544  134.5552  153.6518 H   0  0  0  0  0  0  0  0  0  0  0  0
  149.3504  132.2839  152.8250 H   0  0  0  0  0  0  0  0  0  0  0  0
  152.1256  140.8247  157.0373 H   0  0  0  0  0  0  0  0  0  0  0  0
  151.9586  141.4277  155.4196 H   0  0  0  0  0  0  0  0  0  0  0  0
  151.9010  143.2759  157.0562 H   0  0  0  0  0  0  0  0  0  0  0  0
  150.4019  143.1928  156.1672 H   0  0  0  0  0  0  0  0  0  0  0  0
  150.8995  142.1697  158.9974 H   0  0  0  0  0  0  0  0  0  0  0  0
  149.8840  143.5177  158.5431 H   0  0  0  0  0  0  0  0  0  0  0  0
  148.5588  141.4369  159.0294 H   0  0  0  0  0  0  0  0  0  0  0  0
  148.3025  142.0139  157.4000 H   0  0  0  0  0  0  0  0  0  0  0  0
  148.6289  139.5715  157.4439 H   0  0  0  0  0  0  0  0  0  0  0  0
  150.1657  139.7387  158.2287 H   0  0  0  0  0  0  0  0  0  0  0  0
  1  2  1  0  0  0  0
  1 25  1  0  0  0  0
  1 26  1  0  0  0  0
  1 27  1  0  0  0  0
  2  3  1  0  0  0  0
  2 28  1  0  0  0  0
  2 29  1  0  0  0  0
  3  4  1  0  0  0  0
  4 19  1  0  0  0  0
  4  5  1  0  0  0  0
  4 30  1  0  0  0  0
  5  6  1  0  0  0  0
  5 31  1  0  0  0  0
  5 32  1  0  0  0  0
  6  7  1  0  0  0  0
  6 19  1  0  0  0  0
  6 33  1  0  0  0  0
  7  8  1  0  0  0  0
  7 34  1  0  0  0  0
  8  9  2  0  0  0  0
  8 10  1  0  0  0  0
 10 11  1  0  0  0  0
 10 35  1  0  0  0  0
 10 36  1  0  0  0  0
 11 17  1  0  0  0  0
 11 12  1  0  0  0  0
 12 13  2  0  0  0  0
 12 37  1  0  0  0  0
 13 14  1  0  0  0  0
 13 38  1  0  0  0  0
 14 15  2  0  0  0  0
 14 16  1  0  0  0  0
 16 17  1  0  0  0  0
 17 18  2  0  0  0  0
 19 24  1  0  0  0  0
 19 20  1  0  0  0  0
 20 21  1  0  0  0  0
 20 39  1  0  0  0  0
 20 40  1  0  0  0  0
 21 22  1  0  0  0  0
 21 41  1  0  0  0  0
 21 42  1  0  0  0  0
 22 23  1  0  0  0  0
 22 43  1  0  0  0  0
 22 44  1  0  0  0  0
 23 24  1  0  0  0  0
 23 45  1  0  0  0  0
 23 46  1  0  0  0  0
 24 47  1  0  0  0  0
 24 48  1  0  0  0  0
M  CHG  1  16  -1
M  END
> <s_m_source_file>
AV-unprocessed.smi

> <i_m_source_file_index>
701

> <i_lp_mmshare_version>
43012

> <i_f3d_flags>
0

> <s_epik_input>
W0NIMl0xW0NIMl1bQ0gyXVtDSDJdW0NIMl1DMTJbQ0BIXShPW0NIMl1bQ0gzXSlbQ0gyXVtDQEhdMltOSF1DKD1PKVtDSDJdbjNbY0hdW2NIXWMoPU8pW25IXWMzPU8=

> <s_epik_cmdline>
J2VwaWtfcHl0aG9uJywgJy1waCcsICc3LjAnLCAnLXRuJywgJzgnLCAnLW1hJywgJzIwMCcsICctbWV0YWxfYmluZGluZycsICctaW1hZScsICc8aW5maWxlLm1hZT4nLCAnLW9tYWUnLCAnPG91dGZpbGUubWFlPic=

> <r_lp_tautomer_probability>
0.999537

> <r_epik_Ionization_Penalty>
3.12423

> <r_epik_Ionization_Penalty_Charging>
2.92877e-08

> <r_epik_Ionization_Penalty_Neutral>
3.12423

> <r_epik_State_Penalty>
3.12332

> <r_epik_Charging_Adjusted_Penalty>
3.12332

> <i_epik_Tot_Q>
-1

> <i_epik_Tot_abs_Q>
1

> <r_epik_Metal_State_Penalty>
0.463873

> <b_epik_Metal_Only>
1

> <s_lp_Force_Field>
OPLS_2005

> <r_lp_Energy>
38.2445

> <b_lp_Chiralities_Consistent>
1

> <s_lp_Variant>
AV-unprocessed.smi:701-7

> <Gold.Version>
5.8.1

> <Gold.Id.Protein>
6NUR|6NUR_protein|mol2

> <Gold.PLP.Fitness>
39.9156

> <Gold.PLP.PLP>
-32.8044

> <Gold.PLP.part.hbond>
-2.0000

> <Gold.PLP.part.metal>
0.0000

> <Gold.PLP.part.buried>
-1.7587

> <Gold.PLP.part.nonpolar>
-28.2444

> <Gold.PLP.part.repulsive>
0.2584

> <Gold.PLP.ligand.clash>
0.0000

> <Gold.PLP.ligand.torsion>
1.1180

> <Gold.PLP.Chemscore.Hbond>
2.0000

> <Gold.PLP.Chemscore.CHOScore>
1.0000

> <Gold.PLP.Chemscore.Metal>
0.0000

> <Gold.Chemscore.Hbonds>
donor molecule, donor type, donor heavy atom, donor atom, acceptor molecule, acceptor atom, score
      P1  H  6896  6908       L1    18  1.00
      P1  H 10752 10765       L1     9  1.00
      L1  C    12    37       P1  7948  1.00

> <Gold.PLP.Chemscore.Internal.Correction>
0.3472

> <Gold.Rescore>
     Score         DG    S(hbond)    S(metal)    S(lipo)     H(rot)  DE(clash)    DE(int)     intcor
     13.68     -16.14       1.97        0.00      79.47       2.04       1.51       0.95       ----

> <Gold.Chemscore.Fitness>
13.6794

> <Gold.Chemscore.DG>
-16.1372

> <Gold.Chemscore.ZeroCoef>
-5.4800

> <Gold.Chemscore.Hbond>
1.9706

> <Gold.Chemscore.Metal>
0.0000

> <Gold.Chemscore.Lipo>
79.4656

> <Gold.Chemscore.Internal_Hbond>
0.0000

> <Gold.Chemscore.DEClash>
1.5095

> <Gold.Chemscore.DEInternal>
0.9483

> <Gold.Chemscore.Rot>
2.0399

> <Gold.Chemscore.Internal.Correction>
   9.000000E+99

> <Gold.Chemscore.Hbonds>
donor molecule, donor type, donor heavy atom, donor atom, acceptor molecule, acceptor atom, score
      P1  H  6896  6908       L1    18  0.95
      P1  H 10752 10765       L1     9  0.99

> <Gold.Chemscore.Hbond.Weighted>
-6.5819

> <Gold.Chemscore.Metal.Weighted>
-0.0000

> <Gold.Chemscore.Lipo.Weighted>
-9.2975

> <Gold.Chemscore.Internal_Hbond.Weighted>
0.0000

> <Gold.Chemscore.DEClash.Weighted>
1.5095

> <Gold.Chemscore.DEInternal.Weighted>
0.9483

> <Gold.Chemscore.Rot.Weighted>
5.2222

> <Gold.Chemscore.Internal.Correction.Weighted>
   9.000000E+99

> <Gold.Protein.RotatedTorsions>
[ 6907 6896 6895 6894 ] final  114.29 input  -60.11 | X-H torsion
[ 7974 7965 7964 7962 ] final  144.39 input  175.53 | X-H torsion
[ 8008 7997 7996 7995 ] final -111.57 input   59.86 | X-H torsion
[ 10167 10162 10161 10158 ] final  -42.57 input  -65.29 | X-H torsion
[ 10718 10713 10712 10709 ] final   86.20 input   66.30 | X-H torsion
[ 10763 10752 10751 10750 ] final -178.70 input  -60.55 | X-H torsion
[ 11005 11000 10999 10996 ] final  -83.21 input  -57.11 | X-H torsion

> <Gold.Protein.ActiveResidues>
 VAL166  LYS551  ARG553  GLY616  TRP617  ASP618  TYR619  PRO620  LYS621  CYS622 
 ASP623  PHE694  ASN695  SER759  ASP760  ASP761  ALA762  ILE779  LEU786  VAL792 
 PHE793  MET794  SER795  GLU796  ALA797  LYS798  CYS799  TRP800  GLU811  SER814 

> <Gold.Protein.RotatedAtoms>
  152.4811  133.8257  159.7076 H   0  0  0  0  0  0  0  0  0  0  0  0  # atno 6907 bound_to 6896
  150.8862  133.7295  159.2924 H   0  0  0  0  0  0  0  0  0  0  0  0  # atno 6908 bound_to 6896
  151.4783  135.1054  159.9823 H   0  0  0  0  0  0  0  0  0  0  0  0  # atno 6909 bound_to 6896
  144.8839  139.5657  143.5830 H   0  0  0  0  0  0  0  0  0  0  0  0  # atno 7974 bound_to 7965
  154.9919  140.0395  157.2323 H   0  0  0  0  0  0  0  0  0  0  0  0  # atno 8008 bound_to 7997
  154.7621  140.2786  155.6183 H   0  0  0  0  0  0  0  0  0  0  0  0  # atno 8009 bound_to 7997
  156.2906  140.2626  156.2402 H   0  0  0  0  0  0  0  0  0  0  0  0  # atno 8010 bound_to 7997
  140.6964  143.3030  151.3229 H   0  0  0  0  0  0  0  0  0  0  0  0  # atno 10167 bound_to 10162
  157.6925  131.0206  150.2936 H   0  0  0  0  0  0  0  0  0  0  0  0  # atno 10718 bound_to 10713
  154.5444  135.2808  155.1066 H   0  0  0  0  0  0  0  0  0  0  0  0  # atno 10763 bound_to 10752
  154.2536  135.6335  153.5252 H   0  0  0  0  0  0  0  0  0  0  0  0  # atno 10764 bound_to 10752
  152.9987  135.5588  154.5993 H   0  0  0  0  0  0  0  0  0  0  0  0  # atno 10765 bound_to 10752
  141.1659  133.7283  156.8686 H   0  0  0  0  0  0  0  0  0  0  0  0  # atno 11005 bound_to 11000
  146.3012  139.7434  142.9090 LP  0  0  0  0  0  0  0  0  0  0  0  0  # atno 17320 bound_to 7965
  145.3903  141.0371  143.3127 LP  0  0  0  0  0  0  0  0  0  0  0  0  # atno 17321 bound_to 7965
  139.6425  144.0512  152.2566 LP  0  0  0  0  0  0  0  0  0  0  0  0  # atno 17342 bound_to 10162
  140.0022  144.6285  150.7720 LP  0  0  0  0  0  0  0  0  0  0  0  0  # atno 17343 bound_to 10162
  156.3463  130.3823  149.7366 LP  0  0  0  0  0  0  0  0  0  0  0  0  # atno 17370 bound_to 10713
  156.4858  130.8062  151.3074 LP  0  0  0  0  0  0  0  0  0  0  0  0  # atno 17371 bound_to 10713
  140.1797  134.9042  157.2934 LP  0  0  0  0  0  0  0  0  0  0  0  0  # atno 17394 bound_to 11000
  140.2408  134.3797  155.7481 LP  0  0  0  0  0  0  0  0  0  0  0  0  # atno 17395 bound_to 11000

$$$$
