AV-unprocessed.smi:784|AV-procd|sdf|3718|dock8
  -GOLD-   22720 1143D 1   1.00000     0.00000
 Structure written by MMmdl.
 38 39  0  0  0  0  0  0  0  0  1 V2000
  150.0393  134.0397  154.7857 C   0  0  0  0  0  0  0  0  0  0  0  0
  150.2757  135.4707  155.1685 C   0  0  0  0  0  0  0  0  0  0  0  0
  149.4865  136.3039  156.0081 C   0  0  0  0  0  0  0  0  0  0  0  0
  150.1639  137.4899  156.0135 C   0  0  0  0  0  0  0  0  0  0  0  0
  149.9168  138.7987  156.6826 C   0  0  0  0  0  0  0  0  0  0  0  0
  151.2918  139.9584  156.2812 S   0  0  0  0  0  0  0  0  0  0  0  0
  152.5021  139.5020  156.9814 O   0  0  0  0  0  0  0  0  0  0  0  0
  151.3189  140.1804  154.8273 O   0  0  0  0  0  0  0  0  0  0  0  0
  150.7892  141.4289  157.0307 N   0  0  0  0  0  0  0  0  0  0  0  0
  151.7195  142.2355  157.8244 C   0  0  0  0  0  0  0  0  0  0  0  0
  151.5612  141.8620  159.3119 C   0  0  0  0  0  0  0  0  0  0  0  0
  152.7088  142.3876  160.1903 C   0  0  0  0  0  0  0  0  0  0  0  0
  152.5313  143.8188  160.7275 C   0  0  0  0  0  0  0  0  0  0  0  0
  151.9223  144.8480  159.7586 C   0  0  0  0  0  0  0  0  0  0  0  0
  152.3564  144.7100  158.2902 C   0  0  0  0  0  0  0  0  0  0  0  0
  151.4809  143.7218  157.5008 C   0  0  0  0  0  0  0  0  0  0  0  0
  151.2760  137.3982  155.2401 O   0  0  0  0  0  0  0  0  0  0  0  0
  151.3393  136.1066  154.7061 N   0  0  0  0  0  0  0  0  0  0  0  0
  149.0126  133.7407  154.9971 H   0  0  0  0  0  0  0  0  0  0  0  0
  150.6997  133.3732  155.3404 H   0  0  0  0  0  0  0  0  0  0  0  0
  150.2178  133.8787  153.7220 H   0  0  0  0  0  0  0  0  0  0  0  0
  148.5708  136.0670  156.5287 H   0  0  0  0  0  0  0  0  0  0  0  0
  148.9768  139.2344  156.3444 H   0  0  0  0  0  0  0  0  0  0  0  0
  149.8668  138.6775  157.7644 H   0  0  0  0  0  0  0  0  0  0  0  0
  150.0734  141.9475  156.5219 H   0  0  0  0  0  0  0  0  0  0  0  0
  152.7340  141.9774  157.5177 H   0  0  0  0  0  0  0  0  0  0  0  0
  150.5943  142.1844  159.7002 H   0  0  0  0  0  0  0  0  0  0  0  0
  151.5648  140.7734  159.3883 H   0  0  0  0  0  0  0  0  0  0  0  0
  152.8302  141.7233  161.0467 H   0  0  0  0  0  0  0  0  0  0  0  0
  153.6484  142.3164  159.6411 H   0  0  0  0  0  0  0  0  0  0  0  0
  151.9109  143.7895  161.6239 H   0  0  0  0  0  0  0  0  0  0  0  0
  153.5060  144.1768  161.0606 H   0  0  0  0  0  0  0  0  0  0  0  0
  150.8340  144.8067  159.8194 H   0  0  0  0  0  0  0  0  0  0  0  0
  152.1897  145.8432  160.1155 H   0  0  0  0  0  0  0  0  0  0  0  0
  152.2548  145.6880  157.8186 H   0  0  0  0  0  0  0  0  0  0  0  0
  153.4130  144.4509  158.2131 H   0  0  0  0  0  0  0  0  0  0  0  0
  151.6687  143.8761  156.4375 H   0  0  0  0  0  0  0  0  0  0  0  0
  150.4296  143.9706  157.6513 H   0  0  0  0  0  0  0  0  0  0  0  0
  1  2  1  0  0  0  0
  1 19  1  0  0  0  0
  1 20  1  0  0  0  0
  1 21  1  0  0  0  0
  2 18  2  0  0  0  0
  2  3  1  0  0  0  0
  3  4  2  0  0  0  0
  3 22  1  0  0  0  0
  4  5  1  0  0  0  0
  4 17  1  0  0  0  0
  5  6  1  0  0  0  0
  5 23  1  0  0  0  0
  5 24  1  0  0  0  0
  6  7  2  0  0  0  0
  6  8  2  0  0  0  0
  6  9  1  0  0  0  0
  9 10  1  0  0  0  0
  9 25  1  0  0  0  0
 10 16  1  0  0  0  0
 10 11  1  0  0  0  0
 10 26  1  0  0  0  0
 11 12  1  0  0  0  0
 11 27  1  0  0  0  0
 11 28  1  0  0  0  0
 12 13  1  0  0  0  0
 12 29  1  0  0  0  0
 12 30  1  0  0  0  0
 13 14  1  0  0  0  0
 13 31  1  0  0  0  0
 13 32  1  0  0  0  0
 14 15  1  0  0  0  0
 14 33  1  0  0  0  0
 14 34  1  0  0  0  0
 15 16  1  0  0  0  0
 15 35  1  0  0  0  0
 15 36  1  0  0  0  0
 16 37  1  0  0  0  0
 16 38  1  0  0  0  0
 17 18  1  0  0  0  0
M  END
> <s_m_source_file>
AV-unprocessed.smi

> <i_m_source_file_index>
784

> <i_lp_mmshare_version>
43012

> <i_f3d_flags>
0

> <s_epik_input>
W0NIM11jMVtjSF1jKG9uMSlbQ0gyXVMoPU8pKD1PKVtOSF1bQ0hdMltDSDJdW0NIMl1bQ0gyXVtDSDJdW0NIMl1bQ0gyXTI=

> <s_epik_cmdline>
J2VwaWtfcHl0aG9uJywgJy1waCcsICc3LjAnLCAnLXRuJywgJzgnLCAnLW1hJywgJzIwMCcsICctbWV0YWxfYmluZGluZycsICctaW1hZScsICc8aW5maWxlLm1hZT4nLCAnLW9tYWUnLCAnPG91dGZpbGUubWFlPic=

> <r_lp_tautomer_probability>
1

> <r_epik_Ionization_Penalty>
4.92328e-05

> <r_epik_Ionization_Penalty_Charging>
0

> <r_epik_Ionization_Penalty_Neutral>
4.92328e-05

> <r_epik_State_Penalty>
-0

> <r_epik_Charging_Adjusted_Penalty>
0

> <i_epik_Tot_Q>
0

> <i_epik_Tot_abs_Q>
0

> <r_epik_Metal_State_Penalty>
0.0438012

> <b_epik_Metal_Only>
0

> <s_lp_Force_Field>
OPLS_2005

> <r_lp_Energy>
5.5121

> <b_lp_Chiralities_Consistent>
1

> <s_lp_Variant>
AV-unprocessed.smi:784-1

> <Gold.Version>
5.8.1

> <Gold.Id.Protein>
6NUR|6NUR_protein|mol2

> <Gold.PLP.Fitness>
43.1158

> <Gold.PLP.PLP>
-34.9486

> <Gold.PLP.part.hbond>
-2.8601

> <Gold.PLP.part.metal>
0.0000

> <Gold.PLP.part.buried>
-5.8157

> <Gold.PLP.part.nonpolar>
-27.2911

> <Gold.PLP.part.repulsive>
0.3774

> <Gold.PLP.ligand.clash>
0.0000

> <Gold.PLP.ligand.torsion>
0.9325

> <Gold.PLP.Chemscore.Hbond>
2.9750

> <Gold.PLP.Chemscore.CHOScore>
0.0000

> <Gold.PLP.Chemscore.Metal>
0.0000

> <Gold.Chemscore.Hbonds>
donor molecule, donor type, donor heavy atom, donor atom, acceptor molecule, acceptor atom, score
      P1  H  7989  7998       L1     8  0.99
      P1  H  7997  8010       L1     7  1.00
      P1  H 10752 10765       L1    18  1.00

> <Gold.PLP.Chemscore.Internal.Correction>
1.1072

> <Gold.Rescore>
     Score         DG    S(hbond)    S(metal)    S(lipo)     H(rot)  DE(clash)    DE(int)     intcor
     20.77     -23.39       2.94        0.00      99.21       1.37       0.07       2.55       ----

> <Gold.Chemscore.Fitness>
20.7653

> <Gold.Chemscore.DG>
-23.3851

> <Gold.Chemscore.ZeroCoef>
-5.4800

> <Gold.Chemscore.Hbond>
2.9383

> <Gold.Chemscore.Metal>
0.0000

> <Gold.Chemscore.Lipo>
99.2140

> <Gold.Chemscore.Internal_Hbond>
0.0000

> <Gold.Chemscore.DEClash>
0.0699

> <Gold.Chemscore.DEInternal>
2.5499

> <Gold.Chemscore.Rot>
1.3738

> <Gold.Chemscore.Internal.Correction>
   9.000000E+99

> <Gold.Chemscore.Hbonds>
donor molecule, donor type, donor heavy atom, donor atom, acceptor molecule, acceptor atom, score
      P1  H  7989  7998       L1     8  0.92
      P1  H  7997  8010       L1     7  0.97
      P1  H 10752 10765       L1    18  0.82

> <Gold.Chemscore.Hbond.Weighted>
-9.8139

> <Gold.Chemscore.Metal.Weighted>
-0.0000

> <Gold.Chemscore.Lipo.Weighted>
-11.6080

> <Gold.Chemscore.Internal_Hbond.Weighted>
0.0000

> <Gold.Chemscore.DEClash.Weighted>
0.0699

> <Gold.Chemscore.DEInternal.Weighted>
2.5499

> <Gold.Chemscore.Rot.Weighted>
3.5168

> <Gold.Chemscore.Internal.Correction.Weighted>
   9.000000E+99

> <Gold.Protein.RotatedTorsions>
[ 6907 6896 6895 6894 ] final -106.43 input  -60.11 | X-H torsion
[ 7974 7965 7964 7962 ] final -118.35 input  175.53 | X-H torsion
[ 8008 7997 7996 7995 ] final   60.77 input   59.86 | X-H torsion
[ 10167 10162 10161 10158 ] final -170.27 input  -65.29 | X-H torsion
[ 10718 10713 10712 10709 ] final   88.38 input   66.30 | X-H torsion
[ 10763 10752 10751 10750 ] final  164.06 input  -60.55 | X-H torsion
[ 11005 11000 10999 10996 ] final -124.00 input  -57.11 | X-H torsion

> <Gold.Protein.ActiveResidues>
 VAL166  LYS551  ARG553  GLY616  TRP617  ASP618  TYR619  PRO620  LYS621  CYS622 
 ASP623  PHE694  ASN695  SER759  ASP760  ASP761  ALA762  ILE779  LEU786  VAL792 
 PHE793  MET794  SER795  GLU796  ALA797  LYS798  CYS799  TRP800  GLU811  SER814 

> <Gold.Protein.RotatedAtoms>
  150.7389  133.9978  159.3627 H   0  0  0  0  0  0  0  0  0  0  0  0  # atno 6907 bound_to 6896
  151.7930  135.0728  160.0399 H   0  0  0  0  0  0  0  0  0  0  0  0  # atno 6908 bound_to 6896
  152.3195  133.5801  159.5771 H   0  0  0  0  0  0  0  0  0  0  0  0  # atno 6909 bound_to 6896
  145.0748  140.8384  143.4074 H   0  0  0  0  0  0  0  0  0  0  0  0  # atno 7974 bound_to 7965
  155.5877  140.3492  155.4558 H   0  0  0  0  0  0  0  0  0  0  0  0  # atno 8008 bound_to 7997
  156.0325  140.1278  157.0268 H   0  0  0  0  0  0  0  0  0  0  0  0  # atno 8009 bound_to 7997
  154.4358  140.1040  156.6106 H   0  0  0  0  0  0  0  0  0  0  0  0  # atno 8010 bound_to 7997
  139.5872  144.1293  152.1590 H   0  0  0  0  0  0  0  0  0  0  0  0  # atno 10167 bound_to 10162
  157.6948  131.0292  150.3265 H   0  0  0  0  0  0  0  0  0  0  0  0  # atno 10718 bound_to 10713
  154.3032  135.2758  155.2601 H   0  0  0  0  0  0  0  0  0  0  0  0  # atno 10763 bound_to 10752
  154.5029  135.5803  153.6548 H   0  0  0  0  0  0  0  0  0  0  0  0  # atno 10764 bound_to 10752
  152.9898  135.6162  154.3204 H   0  0  0  0  0  0  0  0  0  0  0  0  # atno 10765 bound_to 10752
  140.9875  134.0585  157.3693 H   0  0  0  0  0  0  0  0  0  0  0  0  # atno 11005 bound_to 11000
  145.1249  139.2669  143.5569 LP  0  0  0  0  0  0  0  0  0  0  0  0  # atno 17320 bound_to 7965
  146.3530  140.0883  142.8614 LP  0  0  0  0  0  0  0  0  0  0  0  0  # atno 17321 bound_to 7965
  140.0859  144.5661  150.7089 LP  0  0  0  0  0  0  0  0  0  0  0  0  # atno 17342 bound_to 10162
  140.7141  143.2530  151.4488 LP  0  0  0  0  0  0  0  0  0  0  0  0  # atno 17343 bound_to 10162
  156.3745  130.3869  149.7149 LP  0  0  0  0  0  0  0  0  0  0  0  0  # atno 17370 bound_to 10713
  156.4553  130.7926  151.2947 LP  0  0  0  0  0  0  0  0  0  0  0  0  # atno 17371 bound_to 10713
  139.8977  135.0151  156.7114 LP  0  0  0  0  0  0  0  0  0  0  0  0  # atno 17394 bound_to 11000
  140.7091  133.9239  155.8073 LP  0  0  0  0  0  0  0  0  0  0  0  0  # atno 17395 bound_to 11000

$$$$
