AV-unprocessed.smi:2302|AV-procd|sdf|9238|dock2
  -GOLD-   2272012453D 1   1.00000     0.00000
 Structure written by MMmdl.
 40 41  0  0  0  0  0  0  0  0  2 V2000
  146.2153  142.7006  153.9925 C   0  0  0  0  0  0  0  0  0  0  0  0
  147.2022  141.5536  154.0524 C   0  0  0  0  0  0  0  0  0  0  0  0
  148.4052  141.6701  154.7757 C   0  0  0  0  0  0  0  0  0  0  0  0
  149.2801  140.5690  154.7890 C   0  0  0  0  0  0  0  0  0  0  0  0
  148.9190  139.4053  154.0826 C   0  0  0  0  0  0  0  0  0  0  0  0
  147.6935  139.3709  153.3800 C   0  0  0  0  0  0  0  0  0  0  0  0
  147.4226  138.1542  152.6986 N   0  0  0  0  0  0  0  0  0  0  0  0
  146.2270  137.6458  152.3514 C   0  0  0  0  0  0  0  0  0  0  0  0
  145.1361  138.1692  152.5799 O   0  0  0  0  0  0  0  0  0  0  0  0
  146.3628  136.4747  151.7123 N   0  0  0  0  0  0  0  0  0  0  0  0
  145.2611  135.6720  151.1905 C   0  0  0  0  0  0  0  0  0  0  0  0
  145.3800  134.1933  151.6015 C   0  0  2  0  0  0  0  0  0  0  0  0
  146.7299  133.5882  151.1571 C   0  0  0  0  0  0  0  0  0  0  0  0
  146.8094  132.1392  151.4622 N   0  3  1  0  0  0  0  0  0  0  0  0
  147.1063  131.8427  152.8826 C   0  0  0  0  0  0  0  0  0  0  0  0
  145.6287  131.4142  150.9362 C   0  0  0  0  0  0  0  0  0  0  0  0
  144.3162  132.0886  151.3757 C   0  0  0  0  0  0  0  0  0  0  0  0
  144.3313  133.4543  150.9819 O   0  0  0  0  0  0  0  0  0  0  0  0
  146.8565  140.4383  153.3739 N   0  0  0  0  0  0  0  0  0  0  0  0
  146.4325  143.4473  154.7569 H   0  0  0  0  0  0  0  0  0  0  0  0
  145.1982  142.3407  154.1509 H   0  0  0  0  0  0  0  0  0  0  0  0
  146.2607  143.1855  153.0172 H   0  0  0  0  0  0  0  0  0  0  0  0
  148.6533  142.5775  155.3063 H   0  0  0  0  0  0  0  0  0  0  0  0
  150.2131  140.6155  155.3309 H   0  0  0  0  0  0  0  0  0  0  0  0
  149.5804  138.5511  154.0827 H   0  0  0  0  0  0  0  0  0  0  0  0
  148.2340  137.6121  152.4418 H   0  0  0  0  0  0  0  0  0  0  0  0
  147.2961  136.1183  151.5656 H   0  0  0  0  0  0  0  0  0  0  0  0
  144.2991  136.0834  151.5014 H   0  0  0  0  0  0  0  0  0  0  0  0
  145.2895  135.7519  150.1035 H   0  0  0  0  0  0  0  0  0  0  0  0
  145.2807  134.1254  152.6862 H   0  0  0  0  0  0  0  0  0  0  0  0
  146.8462  133.7136  150.0797 H   0  0  0  0  0  0  0  0  0  0  0  0
  147.5647  134.1156  151.6205 H   0  0  0  0  0  0  0  0  0  0  0  0
  146.3029  132.1677  153.5437 H   0  0  0  0  0  0  0  0  0  0  0  0
  148.0246  132.3421  153.1933 H   0  0  0  0  0  0  0  0  0  0  0  0
  147.2501  130.7714  153.0255 H   0  0  0  0  0  0  0  0  0  0  0  0
  145.6849  131.4151  149.8469 H   0  0  0  0  0  0  0  0  0  0  0  0
  145.6526  130.3689  151.2466 H   0  0  0  0  0  0  0  0  0  0  0  0
  143.4670  131.5964  150.9018 H   0  0  0  0  0  0  0  0  0  0  0  0
  144.1664  132.0068  152.4530 H   0  0  0  0  0  0  0  0  0  0  0  0
  147.6062  131.7872  150.9505 H   0  0  0  0  0  0  0  0  0  0  0  0
  1  2  1  0  0  0  0
  1 20  1  0  0  0  0
  1 21  1  0  0  0  0
  1 22  1  0  0  0  0
  2 19  1  0  0  0  0
  2  3  2  0  0  0  0
  3  4  1  0  0  0  0
  3 23  1  0  0  0  0
  4  5  2  0  0  0  0
  4 24  1  0  0  0  0
  5  6  1  0  0  0  0
  5 25  1  0  0  0  0
  6  7  1  0  0  0  0
  6 19  2  0  0  0  0
  7  8  1  0  0  0  0
  7 26  1  0  0  0  0
  8  9  2  0  0  0  0
  8 10  1  0  0  0  0
 10 11  1  0  0  0  0
 10 27  1  0  0  0  0
 11 12  1  0  0  0  0
 11 28  1  0  0  0  0
 11 29  1  0  0  0  0
 12 18  1  0  0  0  0
 12 13  1  0  0  0  0
 12 30  1  0  0  0  0
 13 14  1  0  0  0  0
 13 31  1  0  0  0  0
 13 32  1  0  0  0  0
 14 15  1  0  0  0  0
 14 16  1  0  0  0  0
 14 40  1  0  0  0  0
 15 33  1  0  0  0  0
 15 34  1  0  0  0  0
 15 35  1  0  0  0  0
 16 17  1  0  0  0  0
 16 36  1  0  0  0  0
 16 37  1  0  0  0  0
 17 18  1  0  0  0  0
 17 38  1  0  0  0  0
 17 39  1  0  0  0  0
M  CHG  1  14   1
M  END
> <s_m_source_file>
AV-unprocessed.smi

> <i_m_source_file_index>
2302

> <i_lp_mmshare_version>
43012

> <i_f3d_flags>
0

> <s_epik_input>
W0NIM11jMVtjSF1bY0hdW2NIXWMobjEpW05IXUMoPU8pW05IXVtDSDJdW0NAQEhdMltDSDJdTihbQ0gzXSlbQ0gyXVtDSDJdTzI=

> <s_epik_cmdline>
J2VwaWtfcHl0aG9uJywgJy1waCcsICc3LjAnLCAnLXRuJywgJzgnLCAnLW1hJywgJzIwMCcsICctbWV0YWxfYmluZGluZycsICctaW1hZScsICc8aW5maWxlLm1hZT4nLCAnLW9tYWUnLCAnPG91dGZpbGUubWFlPic=

> <r_epik_Ionization_Penalty>
0.204647

> <r_epik_Ionization_Penalty_Charging>
0.204578

> <r_epik_Ionization_Penalty_Neutral>
6.91954e-05

> <r_epik_State_Penalty>
0.194513

> <r_epik_Charging_Adjusted_Penalty>
0.399091

> <i_epik_Tot_Q>
1

> <i_epik_Tot_abs_Q>
1

> <r_epik_Metal_State_Penalty>
0.194515

> <b_epik_Metal_Only>
0

> <s_lp_Force_Field>
OPLS_2005

> <r_lp_Energy>
17.8944

> <b_lp_Chiralities_Consistent>
1

> <s_lp_Variant>
AV-unprocessed.smi:2302-3

> <Gold.Version>
5.8.1

> <Gold.Id.Protein>
6NUR|6NUR_protein|mol2

> <Gold.PLP.Fitness>
42.1206

> <Gold.PLP.PLP>
-33.5185

> <Gold.PLP.part.hbond>
-3.2543

> <Gold.PLP.part.metal>
0.0000

> <Gold.PLP.part.buried>
-3.8800

> <Gold.PLP.part.nonpolar>
-30.0696

> <Gold.PLP.part.repulsive>
3.5507

> <Gold.PLP.ligand.clash>
0.0000

> <Gold.PLP.ligand.torsion>
0.2004

> <Gold.PLP.Chemscore.Hbond>
3.0000

> <Gold.PLP.Chemscore.CHOScore>
0.0000

> <Gold.PLP.Chemscore.Metal>
0.0000

> <Gold.Chemscore.Hbonds>
donor molecule, donor type, donor heavy atom, donor atom, acceptor molecule, acceptor atom, score
      L1  H     7    26       P1  7948  1.00
      L1  H    10    27       P1  7948  1.00
      L1  H    14    40       P1 10747  1.00

> <Gold.PLP.Chemscore.Internal.Correction>
0.0030

> <Gold.Rescore>
     Score         DG    S(hbond)    S(metal)    S(lipo)     H(rot)  DE(clash)    DE(int)     intcor
     17.57     -20.50       2.93        0.00      72.76       1.27       1.54       1.38       ----

> <Gold.Chemscore.Fitness>
17.5744

> <Gold.Chemscore.DG>
-20.5027

> <Gold.Chemscore.ZeroCoef>
-5.4800

> <Gold.Chemscore.Hbond>
2.9251

> <Gold.Chemscore.Metal>
0.0000

> <Gold.Chemscore.Lipo>
72.7621

> <Gold.Chemscore.Internal_Hbond>
0.0000

> <Gold.Chemscore.DEClash>
1.5445

> <Gold.Chemscore.DEInternal>
1.3838

> <Gold.Chemscore.Rot>
1.2736

> <Gold.Chemscore.Internal.Correction>
   9.000000E+99

> <Gold.Chemscore.Hbonds>
donor molecule, donor type, donor heavy atom, donor atom, acceptor molecule, acceptor atom, score
      L1  H     7    26       P1  7948  0.97
      L1  H    10    27       P1  7948  0.95
      L1  H    14    40       P1 10747  1.00

> <Gold.Chemscore.Hbond.Weighted>
-9.7698

> <Gold.Chemscore.Metal.Weighted>
-0.0000

> <Gold.Chemscore.Lipo.Weighted>
-8.5132

> <Gold.Chemscore.Internal_Hbond.Weighted>
0.0000

> <Gold.Chemscore.DEClash.Weighted>
1.5445

> <Gold.Chemscore.DEInternal.Weighted>
1.3838

> <Gold.Chemscore.Rot.Weighted>
3.2603

> <Gold.Chemscore.Internal.Correction.Weighted>
   9.000000E+99

> <Gold.Protein.RotatedTorsions>
[ 6907 6896 6895 6894 ] final -114.48 input  -60.11 | X-H torsion
[ 7974 7965 7964 7962 ] final   50.08 input  175.53 | X-H torsion
[ 8008 7997 7996 7995 ] final  -45.15 input   59.86 | X-H torsion
[ 10167 10162 10161 10158 ] final -169.65 input  -65.29 | X-H torsion
[ 10718 10713 10712 10709 ] final   -1.57 input   66.30 | X-H torsion
[ 10763 10752 10751 10750 ] final   71.17 input  -60.55 | X-H torsion
[ 11005 11000 10999 10996 ] final    4.27 input  -57.11 | X-H torsion

> <Gold.Protein.ActiveResidues>
 VAL166  LYS551  ARG553  GLY616  TRP617  ASP618  TYR619  PRO620  LYS621  CYS622 
 ASP623  PHE694  ASN695  SER759  ASP760  ASP761  ALA762  ILE779  LEU786  VAL792 
 PHE793  MET794  SER795  GLU796  ALA797  LYS798  CYS799  TRP800  GLU811  SER814 

> <Gold.Protein.RotatedAtoms>
  150.7905  133.8795  159.3281 H   0  0  0  0  0  0  0  0  0  0  0  0  # atno 6907 bound_to 6896
  151.6634  135.0984  160.0193 H   0  0  0  0  0  0  0  0  0  0  0  0  # atno 6908 bound_to 6896
  152.3978  133.6734  159.6326 H   0  0  0  0  0  0  0  0  0  0  0  0  # atno 6909 bound_to 6896
  146.0046  139.4476  142.9993 H   0  0  0  0  0  0  0  0  0  0  0  0  # atno 7974 bound_to 7965
  154.4000  140.1404  156.3800 H   0  0  0  0  0  0  0  0  0  0  0  0  # atno 8008 bound_to 7997
  155.8013  140.3476  155.5383 H   0  0  0  0  0  0  0  0  0  0  0  0  # atno 8009 bound_to 7997
  155.8481  140.0937  157.1683 H   0  0  0  0  0  0  0  0  0  0  0  0  # atno 8010 bound_to 7997
  139.5909  144.1215  152.1633 H   0  0  0  0  0  0  0  0  0  0  0  0  # atno 10167 bound_to 10162
  156.8037  130.5401  149.5718 H   0  0  0  0  0  0  0  0  0  0  0  0  # atno 10718 bound_to 10713
  153.0383  135.5147  154.7552 H   0  0  0  0  0  0  0  0  0  0  0  0  # atno 10763 bound_to 10752
  154.6510  135.2925  154.9988 H   0  0  0  0  0  0  0  0  0  0  0  0  # atno 10764 bound_to 10752
  154.0873  135.6655  153.4899 H   0  0  0  0  0  0  0  0  0  0  0  0  # atno 10765 bound_to 10752
  140.5838  133.9988  155.8059 H   0  0  0  0  0  0  0  0  0  0  0  0  # atno 11005 bound_to 11000
  145.7435  140.9999  143.1288 LP  0  0  0  0  0  0  0  0  0  0  0  0  # atno 17320 bound_to 7965
  144.6931  139.9128  143.7464 LP  0  0  0  0  0  0  0  0  0  0  0  0  # atno 17321 bound_to 7965
  140.0789  144.5717  150.7137 LP  0  0  0  0  0  0  0  0  0  0  0  0  # atno 17342 bound_to 10162
  140.7172  143.2555  151.4395 LP  0  0  0  0  0  0  0  0  0  0  0  0  # atno 17343 bound_to 10162
  156.1086  130.6023  151.0010 LP  0  0  0  0  0  0  0  0  0  0  0  0  # atno 17370 bound_to 10713
  157.6541  131.0892  150.7987 LP  0  0  0  0  0  0  0  0  0  0  0  0  # atno 17371 bound_to 10713
  141.0979  133.9814  157.3129 LP  0  0  0  0  0  0  0  0  0  0  0  0  # atno 17394 bound_to 11000
  139.9305  135.0200  156.8383 LP  0  0  0  0  0  0  0  0  0  0  0  0  # atno 17395 bound_to 11000

$$$$
