AV-unprocessed.smi:2484|AV-procd|sdf|9787|dock5
  -GOLD-   2272013423D 1   1.00000     0.00000
 Structure written by MMmdl.
 45 46  0  0  0  0  0  0  0  0  1 V2000
  157.0567  142.6109  166.6384 C   0  0  0  0  0  0  0  0  0  0  0  0
  155.9454  141.5380  166.7154 C   0  0  0  0  0  0  0  0  0  0  0  0
  155.3662  141.3288  165.3812 N   0  0  0  0  0  0  0  0  0  0  0  0
  154.7722  142.2301  164.5800 C   0  0  0  0  0  0  0  0  0  0  0  0
  154.6364  143.4199  164.8646 O   0  0  0  0  0  0  0  0  0  0  0  0
  154.3568  141.6579  163.4365 N   0  0  0  0  0  0  0  0  0  0  0  0
  153.6179  142.2528  162.3799 C   0  0  0  0  0  0  0  0  0  0  0  0
  153.7020  141.5945  161.1366 C   0  0  0  0  0  0  0  0  0  0  0  0
  152.9827  142.1199  160.0499 C   0  0  0  0  0  0  0  0  0  0  0  0
  152.2116  143.2832  160.2719 C   0  0  0  0  0  0  0  0  0  0  0  0
  151.3636  143.9545  159.1767 C   0  0  0  0  0  0  0  0  0  0  0  0
  150.2729  143.0145  158.6150 C   0  0  0  0  0  0  0  0  0  0  0  0
  152.2673  144.3714  157.9975 C   0  0  0  0  0  0  0  0  0  0  0  0
  150.6535  145.1949  159.7578 C   0  0  0  0  0  0  0  0  0  0  0  0
  152.1726  143.8733  161.4916 N   0  0  0  0  0  0  0  0  0  0  0  0
  152.8608  143.3698  162.5202 N   0  0  0  0  0  0  0  0  0  0  0  0
  156.5349  140.1765  167.1516 C   0  0  0  0  0  0  0  0  0  0  0  0
  156.8863  140.1246  168.6490 C   0  0  0  0  0  0  0  0  0  0  0  0
  155.7438  140.4509  169.4280 O   0  0  0  0  0  0  0  0  0  0  0  0
  155.2853  141.7748  169.1912 C   0  0  0  0  0  0  0  0  0  0  0  0
  154.8367  141.9272  167.7274 C   0  0  0  0  0  0  0  0  0  0  0  0
  157.5722  142.7344  167.5902 H   0  0  0  0  0  0  0  0  0  0  0  0
  156.6594  143.5890  166.3670 H   0  0  0  0  0  0  0  0  0  0  0  0
  157.8096  142.3455  165.8953 H   0  0  0  0  0  0  0  0  0  0  0  0
  155.4180  140.3825  165.0337 H   0  0  0  0  0  0  0  0  0  0  0  0
  154.5674  140.6777  163.3210 H   0  0  0  0  0  0  0  0  0  0  0  0
  154.3010  140.7039  161.0148 H   0  0  0  0  0  0  0  0  0  0  0  0
  153.0347  141.6261  159.0921 H   0  0  0  0  0  0  0  0  0  0  0  0
  149.6856  143.5097  157.8407 H   0  0  0  0  0  0  0  0  0  0  0  0
  149.5738  142.6983  159.3901 H   0  0  0  0  0  0  0  0  0  0  0  0
  150.7048  142.1202  158.1641 H   0  0  0  0  0  0  0  0  0  0  0  0
  152.7866  143.5112  157.5738 H   0  0  0  0  0  0  0  0  0  0  0  0
  153.0243  145.0945  158.3026 H   0  0  0  0  0  0  0  0  0  0  0  0
  151.6887  144.8331  157.1966 H   0  0  0  0  0  0  0  0  0  0  0  0
  150.0307  145.6845  159.0084 H   0  0  0  0  0  0  0  0  0  0  0  0
  151.3657  145.9382  160.1180 H   0  0  0  0  0  0  0  0  0  0  0  0
  150.0094  144.9252  160.5956 H   0  0  0  0  0  0  0  0  0  0  0  0
  155.8078  139.3866  166.9545 H   0  0  0  0  0  0  0  0  0  0  0  0
  157.4144  139.9313  166.5547 H   0  0  0  0  0  0  0  0  0  0  0  0
  157.2133  139.1198  168.9171 H   0  0  0  0  0  0  0  0  0  0  0  0
  157.7118  140.7955  168.8892 H   0  0  0  0  0  0  0  0  0  0  0  0
  154.4467  141.9771  169.8579 H   0  0  0  0  0  0  0  0  0  0  0  0
  156.0651  142.4948  169.4431 H   0  0  0  0  0  0  0  0  0  0  0  0
  154.4979  142.9498  167.5608 H   0  0  0  0  0  0  0  0  0  0  0  0
  153.9651  141.2894  167.5731 H   0  0  0  0  0  0  0  0  0  0  0  0
  1  2  1  0  0  0  0
  1 22  1  0  0  0  0
  1 23  1  0  0  0  0
  1 24  1  0  0  0  0
  2 21  1  0  0  0  0
  2  3  1  0  0  0  0
  2 17  1  0  0  0  0
  3  4  1  0  0  0  0
  3 25  1  0  0  0  0
  4  5  2  0  0  0  0
  4  6  1  0  0  0  0
  6  7  1  0  0  0  0
  6 26  1  0  0  0  0
  7 16  1  0  0  0  0
  7  8  2  0  0  0  0
  8  9  1  0  0  0  0
  8 27  1  0  0  0  0
  9 10  2  0  0  0  0
  9 28  1  0  0  0  0
 10 11  1  0  0  0  0
 10 15  1  0  0  0  0
 11 12  1  0  0  0  0
 11 13  1  0  0  0  0
 11 14  1  0  0  0  0
 12 29  1  0  0  0  0
 12 30  1  0  0  0  0
 12 31  1  0  0  0  0
 13 32  1  0  0  0  0
 13 33  1  0  0  0  0
 13 34  1  0  0  0  0
 14 35  1  0  0  0  0
 14 36  1  0  0  0  0
 14 37  1  0  0  0  0
 15 16  2  0  0  0  0
 17 18  1  0  0  0  0
 17 38  1  0  0  0  0
 17 39  1  0  0  0  0
 18 19  1  0  0  0  0
 18 40  1  0  0  0  0
 18 41  1  0  0  0  0
 19 20  1  0  0  0  0
 20 21  1  0  0  0  0
 20 42  1  0  0  0  0
 20 43  1  0  0  0  0
 21 44  1  0  0  0  0
 21 45  1  0  0  0  0
M  END
> <s_m_source_file>
AV-unprocessed.smi

> <i_m_source_file_index>
2484

> <i_lp_mmshare_version>
43012

> <i_f3d_flags>
0

> <s_epik_input>
W0NIMl0xW0NIMl1PW0NIMl1bQ0gyXUMxKFtDSDNdKVtOSF1DKD1PKVtOSF1jMltjSF1bY0hdYyhubjIpQyhbQ0gzXSkoW0NIM10pW0NIM10=

> <s_epik_cmdline>
J2VwaWtfcHl0aG9uJywgJy1waCcsICc3LjAnLCAnLXRuJywgJzgnLCAnLW1hJywgJzIwMCcsICctbWV0YWxfYmluZGluZycsICctaW1hZScsICc8aW5maWxlLm1hZT4nLCAnLW9tYWUnLCAnPG91dGZpbGUubWFlPic=

> <r_lp_tautomer_probability>
1

> <r_epik_Ionization_Penalty>
0.0115026

> <r_epik_Ionization_Penalty_Charging>
0

> <r_epik_Ionization_Penalty_Neutral>
0.0115026

> <r_epik_State_Penalty>
0.00473796

> <r_epik_Charging_Adjusted_Penalty>
0.00473796

> <i_epik_Tot_Q>
0

> <i_epik_Tot_abs_Q>
0

> <r_epik_Metal_State_Penalty>
-0

> <b_epik_Metal_Only>
0

> <s_lp_Force_Field>
OPLS_2005

> <r_lp_Energy>
18.8992

> <b_lp_Chiralities_Consistent>
1

> <s_lp_Variant>
AV-unprocessed.smi:2484-1

> <Gold.Version>
5.8.1

> <Gold.Id.Protein>
6NUR|6NUR_protein|mol2

> <Gold.PLP.Fitness>
43.4478

> <Gold.PLP.PLP>
-43.6656

> <Gold.PLP.part.hbond>
-1.3286

> <Gold.PLP.part.metal>
0.0000

> <Gold.PLP.part.buried>
-6.6094

> <Gold.PLP.part.nonpolar>
-34.8690

> <Gold.PLP.part.repulsive>
0.5145

> <Gold.PLP.ligand.clash>
0.0000

> <Gold.PLP.ligand.torsion>
0.1138

> <Gold.PLP.Chemscore.Hbond>
0.0000

> <Gold.PLP.Chemscore.CHOScore>
0.0000

> <Gold.PLP.Chemscore.Metal>
0.0000

> <Gold.PLP.Chemscore.Internal.Correction>
0.0097

> <Gold.Rescore>
     Score         DG    S(hbond)    S(metal)    S(lipo)     H(rot)  DE(clash)    DE(int)     intcor
     13.05     -14.56       0.00        0.00     103.32       1.18       0.21       1.29       ----

> <Gold.Chemscore.Fitness>
13.0528

> <Gold.Chemscore.DG>
-14.5597

> <Gold.Chemscore.ZeroCoef>
-5.4800

> <Gold.Chemscore.Hbond>
0.0000

> <Gold.Chemscore.Metal>
0.0000

> <Gold.Chemscore.Lipo>
103.3211

> <Gold.Chemscore.Internal_Hbond>
0.0000

> <Gold.Chemscore.DEClash>
0.2146

> <Gold.Chemscore.DEInternal>
1.2923

> <Gold.Chemscore.Rot>
1.1753

> <Gold.Chemscore.Internal.Correction>
   9.000000E+99

> <Gold.Chemscore.Hbond.Weighted>
-0.0000

> <Gold.Chemscore.Metal.Weighted>
-0.0000

> <Gold.Chemscore.Lipo.Weighted>
-12.0886

> <Gold.Chemscore.Internal_Hbond.Weighted>
0.0000

> <Gold.Chemscore.DEClash.Weighted>
0.2146

> <Gold.Chemscore.DEInternal.Weighted>
1.2923

> <Gold.Chemscore.Rot.Weighted>
3.0089

> <Gold.Chemscore.Internal.Correction.Weighted>
   9.000000E+99

> <Gold.Protein.RotatedTorsions>
[ 6907 6896 6895 6894 ] final  175.40 input  -60.11 | X-H torsion
[ 7974 7965 7964 7962 ] final  -43.08 input  175.53 | X-H torsion
[ 8008 7997 7996 7995 ] final  125.26 input   59.86 | X-H torsion
[ 10167 10162 10161 10158 ] final   88.99 input  -65.29 | X-H torsion
[ 10718 10713 10712 10709 ] final -136.04 input   66.30 | X-H torsion
[ 10763 10752 10751 10750 ] final  -97.05 input  -60.55 | X-H torsion
[ 11005 11000 10999 10996 ] final   54.85 input  -57.11 | X-H torsion

> <Gold.Protein.ActiveResidues>
 VAL166  LYS551  ARG553  GLY616  TRP617  ASP618  TYR619  PRO620  LYS621  CYS622 
 ASP623  PHE694  ASN695  SER759  ASP760  ASP761  ALA762  ILE779  LEU786  VAL792 
 PHE793  MET794  SER795  GLU796  ALA797  LYS798  CYS799  TRP800  GLU811  SER814 

> <Gold.Protein.RotatedAtoms>
  151.7368  133.3320  159.3354 H   0  0  0  0  0  0  0  0  0  0  0  0  # atno 6907 bound_to 6896
  150.7590  134.6314  159.6197 H   0  0  0  0  0  0  0  0  0  0  0  0  # atno 6908 bound_to 6896
  152.3556  134.6946  160.0274 H   0  0  0  0  0  0  0  0  0  0  0  0  # atno 6909 bound_to 6896
  146.0054  140.7026  142.9250 H   0  0  0  0  0  0  0  0  0  0  0  0  # atno 7974 bound_to 7965
  156.2828  140.2720  156.1921 H   0  0  0  0  0  0  0  0  0  0  0  0  # atno 8008 bound_to 7997
  155.0447  140.0386  157.2540 H   0  0  0  0  0  0  0  0  0  0  0  0  # atno 8009 bound_to 7997
  154.7244  140.2694  155.6517 H   0  0  0  0  0  0  0  0  0  0  0  0  # atno 8010 bound_to 7997
  139.8617  144.6540  150.9051 H   0  0  0  0  0  0  0  0  0  0  0  0  # atno 10167 bound_to 10162
  156.2728  130.7275  151.1247 H   0  0  0  0  0  0  0  0  0  0  0  0  # atno 10718 bound_to 10713
  154.7294  135.5061  153.8939 H   0  0  0  0  0  0  0  0  0  0  0  0  # atno 10763 bound_to 10752
  153.0935  135.6666  153.9816 H   0  0  0  0  0  0  0  0  0  0  0  0  # atno 10764 bound_to 10752
  153.9621  135.3047  155.3412 H   0  0  0  0  0  0  0  0  0  0  0  0  # atno 10765 bound_to 10752
  140.0653  134.5545  155.9106 H   0  0  0  0  0  0  0  0  0  0  0  0  # atno 11005 bound_to 11000
  144.6934  140.3305  143.7217 LP  0  0  0  0  0  0  0  0  0  0  0  0  # atno 17320 bound_to 7965
  145.7424  139.1768  143.2368 LP  0  0  0  0  0  0  0  0  0  0  0  0  # atno 17321 bound_to 7965
  140.7774  143.3739  151.1599 LP  0  0  0  0  0  0  0  0  0  0  0  0  # atno 17342 bound_to 10162
  139.7367  143.8987  152.3037 LP  0  0  0  0  0  0  0  0  0  0  0  0  # atno 17343 bound_to 10162
  157.7289  131.0628  150.5797 LP  0  0  0  0  0  0  0  0  0  0  0  0  # atno 17370 bound_to 10713
  156.5895  130.4325  149.5942 LP  0  0  0  0  0  0  0  0  0  0  0  0  # atno 17371 bound_to 10713
  141.1990  133.6604  156.5822 LP  0  0  0  0  0  0  0  0  0  0  0  0  # atno 17394 bound_to 11000
  140.3708  134.7607  157.4597 LP  0  0  0  0  0  0  0  0  0  0  0  0  # atno 17395 bound_to 11000

$$$$
