AV-unprocessed.smi:95|AV-procd|sdf|857|dock9
  -GOLD-   2262017303D 1   1.00000     0.00000
 Structure written by MMmdl.
 42 45  0  0  0  0  0  0  0  0  2 V2000
  150.6351  137.6743  159.2763 O   0  0  0  0  0  0  0  0  0  0  0  0
  150.3246  138.0416  158.1419 C   0  0  0  0  0  0  0  0  0  0  0  0
  149.0424  137.7288  157.5202 C   0  0  0  0  0  0  0  0  0  0  0  0
  148.1436  136.9865  158.1882 F   0  0  0  0  0  0  0  0  0  0  0  0
  148.7392  138.1795  156.2837 C   0  0  0  0  0  0  0  0  0  0  0  0
  149.6023  138.9555  155.5296 N   0  0  0  0  0  0  0  0  0  0  0  0
  149.1978  139.4404  154.1575 C   0  0  2  0  0  0  0  0  0  0  0  0
  149.1342  140.9731  154.1269 C   0  0  0  0  0  0  0  0  0  0  0  0
  147.6443  141.2366  154.2004 C   0  0  0  0  0  0  0  0  0  0  0  0
  147.0787  140.0232  153.4732 C   0  0  0  0  0  0  0  0  0  0  0  0
  147.9213  138.9482  153.8705 O   0  0  0  0  0  0  0  0  0  0  0  0
  150.8609  139.3192  156.0558 C   0  0  0  0  0  0  0  0  0  0  0  0
  151.6292  140.0503  155.4265 O   0  0  0  0  0  0  0  0  0  0  0  0
  151.1896  138.8285  157.3413 N   0  0  0  0  0  0  0  0  0  0  0  0
  152.4841  139.1983  157.8908 C   0  0  0  0  0  0  0  0  0  0  0  0
  152.4916  140.3844  158.8480 C   0  0  0  0  0  0  0  0  0  0  0  0
  152.9523  140.3193  160.1840 C   0  0  0  0  0  0  0  0  0  0  0  0
  152.9164  141.4785  160.9856 C   0  0  0  0  0  0  0  0  0  0  0  0
  152.4225  142.6812  160.4380 C   0  0  0  0  0  0  0  0  0  0  0  0
  152.3696  143.8624  161.2063 C   0  0  0  0  0  0  0  0  0  0  0  0
  151.8730  145.0509  160.6345 C   0  0  0  0  0  0  0  0  0  0  0  0
  151.4289  145.0633  159.2968 C   0  0  0  0  0  0  0  0  0  0  0  0
  151.4787  143.8862  158.5238 C   0  0  0  0  0  0  0  0  0  0  0  0
  151.9741  142.6969  159.0937 C   0  0  0  0  0  0  0  0  0  0  0  0
  152.0281  141.5597  158.3658 N   0  3  0  0  0  0  0  0  0  0  0  0
  147.7738  137.9212  155.8747 H   0  0  0  0  0  0  0  0  0  0  0  0
  149.9085  139.0211  153.4445 H   0  0  0  0  0  0  0  0  0  0  0  0
  149.7052  141.4295  154.9365 H   0  0  0  0  0  0  0  0  0  0  0  0
  149.5366  141.3177  153.1735 H   0  0  0  0  0  0  0  0  0  0  0  0
  147.3117  141.2447  155.2389 H   0  0  0  0  0  0  0  0  0  0  0  0
  147.3538  142.1821  153.7416 H   0  0  0  0  0  0  0  0  0  0  0  0
  146.0356  139.8287  153.7226 H   0  0  0  0  0  0  0  0  0  0  0  0
  147.1546  140.1548  152.3928 H   0  0  0  0  0  0  0  0  0  0  0  0
  152.9112  138.3214  158.3792 H   0  0  0  0  0  0  0  0  0  0  0  0
  153.1488  139.3870  157.0454 H   0  0  0  0  0  0  0  0  0  0  0  0
  153.3311  139.3978  160.6005 H   0  0  0  0  0  0  0  0  0  0  0  0
  153.2661  141.4401  162.0071 H   0  0  0  0  0  0  0  0  0  0  0  0
  152.7079  143.8635  162.2324 H   0  0  0  0  0  0  0  0  0  0  0  0
  151.8329  145.9561  161.2228 H   0  0  0  0  0  0  0  0  0  0  0  0
  151.0502  145.9774  158.8635 H   0  0  0  0  0  0  0  0  0  0  0  0
  151.1372  143.9036  157.4989 H   0  0  0  0  0  0  0  0  0  0  0  0
  151.7015  141.5892  157.4001 H   0  0  0  0  0  0  0  0  0  0  0  0
  1  2  2  0  0  0  0
  2 14  1  0  0  0  0
  2  3  1  0  0  0  0
  3  4  1  0  0  0  0
  3  5  2  0  0  0  0
  5  6  1  0  0  0  0
  5 26  1  0  0  0  0
  6  7  1  0  0  0  0
  6 12  1  0  0  0  0
  7 11  1  0  0  0  0
  7  8  1  0  0  0  0
  7 27  1  0  0  0  0
  8  9  1  0  0  0  0
  8 28  1  0  0  0  0
  8 29  1  0  0  0  0
  9 10  1  0  0  0  0
  9 30  1  0  0  0  0
  9 31  1  0  0  0  0
 10 11  1  0  0  0  0
 10 32  1  0  0  0  0
 10 33  1  0  0  0  0
 12 13  2  0  0  0  0
 12 14  1  0  0  0  0
 14 15  1  0  0  0  0
 15 16  1  0  0  0  0
 15 34  1  0  0  0  0
 15 35  1  0  0  0  0
 16 25  1  0  0  0  0
 16 17  2  0  0  0  0
 17 18  1  0  0  0  0
 17 36  1  0  0  0  0
 18 19  2  0  0  0  0
 18 37  1  0  0  0  0
 19 24  1  0  0  0  0
 19 20  1  0  0  0  0
 20 21  2  0  0  0  0
 20 38  1  0  0  0  0
 21 22  1  0  0  0  0
 21 39  1  0  0  0  0
 22 23  2  0  0  0  0
 22 40  1  0  0  0  0
 23 24  1  0  0  0  0
 23 41  1  0  0  0  0
 24 25  2  0  0  0  0
 25 42  1  0  0  0  0
M  CHG  1  25   1
M  END
> <s_m_source_file>
AV-unprocessed.smi

> <i_m_source_file_index>
95

> <i_lp_mmshare_version>
43012

> <i_f3d_flags>
0

> <s_epik_input>
TzFbQ0gyXVtDSDJdW0NIMl1bQ0BIXTFuKFtjSF1jKEYpYzI9TyljKD1PKW4yW0NIMl1jKFtjSF1bY0hdMyluYyhjMzQpW2NIXVtjSF1bY0hdW2NIXTQ=

> <s_epik_cmdline>
J2VwaWtfcHl0aG9uJywgJy1waCcsICc3LjAnLCAnLXRuJywgJzgnLCAnLW1hJywgJzIwMCcsICctbWV0YWxfYmluZGluZycsICctaW1hZScsICc8aW5maWxlLm1hZT4nLCAnLW9tYWUnLCAnPG91dGZpbGUubWFlPic=

> <r_lp_tautomer_probability>
1

> <r_epik_Ionization_Penalty>
1.83445

> <r_epik_Ionization_Penalty_Charging>
1.83445

> <r_epik_Ionization_Penalty_Neutral>
6.33322e-12

> <r_epik_State_Penalty>
1.95069

> <r_epik_Charging_Adjusted_Penalty>
3.78513

> <i_epik_Tot_Q>
1

> <i_epik_Tot_abs_Q>
1

> <r_epik_Metal_State_Penalty>
6.02102

> <b_epik_Metal_Only>
0

> <s_epik_Chemistry_Notes>
This compound contains an acetal/aminal-like group ( X-CH(R)-Y where X, Y are N, S, or O) that may be acid/base labile, releasing an aldehyde.

> <s_lp_Force_Field>
OPLS_2005

> <r_lp_Energy>
36.4977

> <b_lp_Chiralities_Consistent>
1

> <s_lp_Variant>
AV-unprocessed.smi:95-3

> <Gold.Version>
5.8.1

> <Gold.Id.Protein>
6NUR|6NUR_protein|mol2

> <Gold.PLP.Fitness>
49.1868

> <Gold.PLP.PLP>
-47.1299

> <Gold.PLP.part.hbond>
-1.1992

> <Gold.PLP.part.metal>
0.0000

> <Gold.PLP.part.buried>
-3.6437

> <Gold.PLP.part.nonpolar>
-41.1641

> <Gold.PLP.part.repulsive>
0.2614

> <Gold.PLP.ligand.clash>
0.0000

> <Gold.PLP.ligand.torsion>
0.3196

> <Gold.PLP.Chemscore.Hbond>
0.8960

> <Gold.PLP.Chemscore.CHOScore>
0.0000

> <Gold.PLP.Chemscore.Metal>
0.0000

> <Gold.Chemscore.Hbonds>
donor molecule, donor type, donor heavy atom, donor atom, acceptor molecule, acceptor atom, score
      P1  H  7989  7998       L1    13  0.83

> <Gold.PLP.Chemscore.Internal.Correction>
0.0080

> <Gold.Rescore>
     Score         DG    S(hbond)    S(metal)    S(lipo)     H(rot)  DE(clash)    DE(int)     intcor
     17.50     -19.15       1.00        0.00     122.00       1.54       0.34       1.31       ----

> <Gold.Chemscore.Fitness>
17.4974

> <Gold.Chemscore.DG>
-19.1451

> <Gold.Chemscore.ZeroCoef>
-5.4800

> <Gold.Chemscore.Hbond>
0.9985

> <Gold.Chemscore.Metal>
0.0000

> <Gold.Chemscore.Lipo>
122.0018

> <Gold.Chemscore.Internal_Hbond>
0.0000

> <Gold.Chemscore.DEClash>
0.3424

> <Gold.Chemscore.DEInternal>
1.3052

> <Gold.Chemscore.Rot>
1.5407

> <Gold.Chemscore.Internal.Correction>
   9.000000E+99

> <Gold.Chemscore.Hbonds>
donor molecule, donor type, donor heavy atom, donor atom, acceptor molecule, acceptor atom, score
      P1  H  7989  7998       L1    13  0.77

> <Gold.Chemscore.Hbond.Weighted>
-3.3351

> <Gold.Chemscore.Metal.Weighted>
-0.0000

> <Gold.Chemscore.Lipo.Weighted>
-14.2742

> <Gold.Chemscore.Internal_Hbond.Weighted>
0.0000

> <Gold.Chemscore.DEClash.Weighted>
0.3424

> <Gold.Chemscore.DEInternal.Weighted>
1.3052

> <Gold.Chemscore.Rot.Weighted>
3.9443

> <Gold.Chemscore.Internal.Correction.Weighted>
   9.000000E+99

> <Gold.Protein.RotatedTorsions>
[ 6907 6896 6895 6894 ] final -148.20 input  -60.11 | X-H torsion
[ 7974 7965 7964 7962 ] final   80.38 input  175.53 | X-H torsion
[ 8008 7997 7996 7995 ] final  100.02 input   59.86 | X-H torsion
[ 10167 10162 10161 10158 ] final   15.34 input  -65.29 | X-H torsion
[ 10718 10713 10712 10709 ] final  172.49 input   66.30 | X-H torsion
[ 10763 10752 10751 10750 ] final  174.76 input  -60.55 | X-H torsion
[ 11005 11000 10999 10996 ] final -121.76 input  -57.11 | X-H torsion

> <Gold.Protein.ActiveResidues>
 VAL166  LYS551  ARG553  GLY616  TRP617  ASP618  TYR619  PRO620  LYS621  CYS622 
 ASP623  PHE694  ASN695  SER759  ASP760  ASP761  ALA762  ILE779  LEU786  VAL792 
 PHE793  MET794  SER795  GLU796  ALA797  LYS798  CYS799  TRP800  GLU811  SER814 

> <Gold.Protein.RotatedAtoms>
  151.1665  133.4811  159.2593 H   0  0  0  0  0  0  0  0  0  0  0  0  # atno 6907 bound_to 6896
  151.1400  135.0174  159.8631 H   0  0  0  0  0  0  0  0  0  0  0  0  # atno 6908 bound_to 6896
  152.5462  134.1559  159.8591 H   0  0  0  0  0  0  0  0  0  0  0  0  # atno 6909 bound_to 6896
  145.6519  139.2450  143.1972 H   0  0  0  0  0  0  0  0  0  0  0  0  # atno 7974 bound_to 7965
  156.1162  140.3220  155.8143 H   0  0  0  0  0  0  0  0  0  0  0  0  # atno 8008 bound_to 7997
  155.4585  140.0537  157.3010 H   0  0  0  0  0  0  0  0  0  0  0  0  # atno 8009 bound_to 7997
  154.4795  140.2047  155.9812 H   0  0  0  0  0  0  0  0  0  0  0  0  # atno 8010 bound_to 7997
  140.5874  143.8863  150.6842 H   0  0  0  0  0  0  0  0  0  0  0  0  # atno 10167 bound_to 10162
  156.9781  131.0110  151.2888 H   0  0  0  0  0  0  0  0  0  0  0  0  # atno 10718 bound_to 10713
  154.4583  135.2767  155.1731 H   0  0  0  0  0  0  0  0  0  0  0  0  # atno 10763 bound_to 10752
  154.3529  135.6146  153.5655 H   0  0  0  0  0  0  0  0  0  0  0  0  # atno 10764 bound_to 10752
  152.9852  135.5816  154.4941 H   0  0  0  0  0  0  0  0  0  0  0  0  # atno 10765 bound_to 10752
  141.0046  134.0353  157.3494 H   0  0  0  0  0  0  0  0  0  0  0  0  # atno 11005 bound_to 11000
  146.1197  140.7325  142.9464 LP  0  0  0  0  0  0  0  0  0  0  0  0  # atno 17320 bound_to 7965
  144.7119  140.4072  143.7073 LP  0  0  0  0  0  0  0  0  0  0  0  0  # atno 17321 bound_to 7965
  140.2377  143.3687  152.1513 LP  0  0  0  0  0  0  0  0  0  0  0  0  # atno 17342 bound_to 10162
  139.5206  144.7035  151.5424 LP  0  0  0  0  0  0  0  0  0  0  0  0  # atno 17343 bound_to 10162
  157.5545  130.8205  149.8187 LP  0  0  0  0  0  0  0  0  0  0  0  0  # atno 17370 bound_to 10713
  156.0255  130.3781  150.1835 LP  0  0  0  0  0  0  0  0  0  0  0  0  # atno 17371 bound_to 10713
  139.9056  135.0178  156.7472 LP  0  0  0  0  0  0  0  0  0  0  0  0  # atno 17394 bound_to 11000
  140.6833  133.9455  155.7923 LP  0  0  0  0  0  0  0  0  0  0  0  0  # atno 17395 bound_to 11000

$$$$
