AV-unprocessed.smi:1943|AV-procd|sdf|7852|dock2
  -GOLD-   22720 9593D 1   1.00000     0.00000
 Structure written by MMmdl.
 47 48  0  0  0  0  0  0  0  0  3 V2000
  143.8357  132.9236  151.4070 C   0  0  0  0  0  0  0  0  0  0  0  0
  143.7831  133.7707  152.6352 N   0  3  0  0  0  0  0  0  0  0  0  0
  142.5700  134.6291  152.5897 C   0  0  0  0  0  0  0  0  0  0  0  0
  145.0745  134.4557  153.0371 C   0  0  0  0  0  0  0  0  0  0  0  0
  145.4293  135.5810  152.0212 C   0  0  0  0  0  0  0  0  0  0  0  0
  144.9431  135.1326  154.4399 C   0  0  0  0  0  0  0  0  0  0  0  0
  146.1949  133.3551  153.1104 C   0  0  0  0  0  0  0  0  0  0  0  0
  147.3628  133.8112  153.8599 N   0  5  0  0  0  0  0  0  0  0  0  0
  148.4379  133.0240  154.1415 C   0  0  0  0  0  0  0  0  0  0  0  0
  148.6681  131.8520  153.8231 O   0  0  0  0  0  0  0  0  0  0  0  0
  149.5012  133.7711  154.8955 C   0  0  0  0  0  0  0  0  0  0  0  0
  149.6119  135.0921  154.6235 N   0  0  0  0  0  0  0  0  0  0  0  0
  150.5391  135.8048  155.2738 C   0  0  0  0  0  0  0  0  0  0  0  0
  150.6252  137.1730  154.9833 N   0  0  0  0  0  0  0  0  0  0  0  0
  151.9031  137.8898  155.0058 C   0  0  0  0  0  0  0  0  0  0  0  0
  151.7000  139.3596  155.4103 C   0  0  0  0  0  0  0  0  0  0  0  0
  150.7493  139.9709  154.5468 O   0  0  0  0  0  0  0  0  0  0  0  0
  149.4794  139.3369  154.6373 C   0  0  0  0  0  0  0  0  0  0  0  0
  149.5976  137.8664  154.2026 C   0  0  0  0  0  0  0  0  0  0  0  0
  151.3896  135.3067  156.1802 N   0  0  0  0  0  0  0  0  0  0  0  0
  151.3101  133.9885  156.4566 C   0  0  0  0  0  0  0  0  0  0  0  0
  150.3702  133.1487  155.8300 C   0  0  0  0  0  0  0  0  0  0  0  0
  150.3490  131.4559  156.1926 Cl  0  0  0  0  0  0  0  0  0  0  0  0
  143.8933  133.5350  150.5055 H   0  0  0  0  0  0  0  0  0  0  0  0
  142.9339  132.3154  151.3314 H   0  0  0  0  0  0  0  0  0  0  0  0
  144.6775  132.2319  151.4016 H   0  0  0  0  0  0  0  0  0  0  0  0
  142.6978  135.4526  151.8862 H   0  0  0  0  0  0  0  0  0  0  0  0
  142.3185  135.0349  153.5694 H   0  0  0  0  0  0  0  0  0  0  0  0
  141.7009  134.0528  152.2707 H   0  0  0  0  0  0  0  0  0  0  0  0
  146.2870  136.1727  152.3471 H   0  0  0  0  0  0  0  0  0  0  0  0
  144.6007  136.2813  151.9129 H   0  0  0  0  0  0  0  0  0  0  0  0
  145.6675  135.2072  151.0235 H   0  0  0  0  0  0  0  0  0  0  0  0
  145.8684  135.6102  154.7690 H   0  0  0  0  0  0  0  0  0  0  0  0
  144.6503  134.4303  155.2236 H   0  0  0  0  0  0  0  0  0  0  0  0
  144.2068  135.9366  154.4333 H   0  0  0  0  0  0  0  0  0  0  0  0
  145.7652  132.4544  153.5514 H   0  0  0  0  0  0  0  0  0  0  0  0
  146.4803  133.0678  152.0983 H   0  0  0  0  0  0  0  0  0  0  0  0
  152.6149  137.4423  155.6989 H   0  0  0  0  0  0  0  0  0  0  0  0
  152.3516  137.8331  154.0134 H   0  0  0  0  0  0  0  0  0  0  0  0
  151.3691  139.4348  156.4475 H   0  0  0  0  0  0  0  0  0  0  0  0
  152.6436  139.9008  155.3383 H   0  0  0  0  0  0  0  0  0  0  0  0
  149.0940  139.4115  155.6556 H   0  0  0  0  0  0  0  0  0  0  0  0
  148.7749  139.8624  153.9925 H   0  0  0  0  0  0  0  0  0  0  0  0
  149.8644  137.8079  153.1468 H   0  0  0  0  0  0  0  0  0  0  0  0
  148.6181  137.4008  154.3072 H   0  0  0  0  0  0  0  0  0  0  0  0
  152.0121  133.5990  157.1792 H   0  0  0  0  0  0  0  0  0  0  0  0
  143.6061  133.1260  153.3928 H   0  0  0  0  0  0  0  0  0  0  0  0
  1  2  1  0  0  0  0
  1 24  1  0  0  0  0
  1 25  1  0  0  0  0
  1 26  1  0  0  0  0
  2  3  1  0  0  0  0
  2  4  1  0  0  0  0
  2 47  1  0  0  0  0
  3 27  1  0  0  0  0
  3 28  1  0  0  0  0
  3 29  1  0  0  0  0
  4  5  1  0  0  0  0
  4  6  1  0  0  0  0
  4  7  1  0  0  0  0
  5 30  1  0  0  0  0
  5 31  1  0  0  0  0
  5 32  1  0  0  0  0
  6 33  1  0  0  0  0
  6 34  1  0  0  0  0
  6 35  1  0  0  0  0
  7  8  1  0  0  0  0
  7 36  1  0  0  0  0
  7 37  1  0  0  0  0
  8  9  1  0  0  0  0
  9 10  2  0  0  0  0
  9 11  1  0  0  0  0
 11 22  1  0  0  0  0
 11 12  2  0  0  0  0
 12 13  1  0  0  0  0
 13 14  1  0  0  0  0
 13 20  2  0  0  0  0
 14 19  1  0  0  0  0
 14 15  1  0  0  0  0
 15 16  1  0  0  0  0
 15 38  1  0  0  0  0
 15 39  1  0  0  0  0
 16 17  1  0  0  0  0
 16 40  1  0  0  0  0
 16 41  1  0  0  0  0
 17 18  1  0  0  0  0
 18 19  1  0  0  0  0
 18 42  1  0  0  0  0
 18 43  1  0  0  0  0
 19 44  1  0  0  0  0
 19 45  1  0  0  0  0
 20 21  1  0  0  0  0
 21 22  2  0  0  0  0
 21 46  1  0  0  0  0
 22 23  1  0  0  0  0
M  CHG  1   2   1
M  CHG  1   8  -1
M  END
> <s_m_source_file>
AV-unprocessed.smi

> <i_m_source_file_index>
1943

> <i_lp_mmshare_version>
43012

> <i_f3d_flags>
0

> <s_epik_input>
W0NIM11OKFtDSDNdKUMoW0NIM10pKFtDSDNdKVtDSDJdW05IXUMoPU8pYzFuYyhuW2NIXWMxQ2wpTjJbQ0gyXVtDSDJdT1tDSDJdW0NIMl0y

> <s_epik_cmdline>
J2VwaWtfcHl0aG9uJywgJy1waCcsICc3LjAnLCAnLXRuJywgJzgnLCAnLW1hJywgJzIwMCcsICctbWV0YWxfYmluZGluZycsICctaW1hZScsICc8aW5maWxlLm1hZT4nLCAnLW9tYWUnLCAnPG91dGZpbGUubWFlPic=

> <r_lp_tautomer_probability>
1

> <r_epik_Ionization_Penalty>
4.9942

> <r_epik_Ionization_Penalty_Charging>
4.9942

> <r_epik_Ionization_Penalty_Neutral>
6.27513e-06

> <r_epik_State_Penalty>
4.99795

> <r_epik_Charging_Adjusted_Penalty>
9.99215

> <i_epik_Tot_Q>
0

> <i_epik_Tot_abs_Q>
2

> <r_epik_Metal_State_Penalty>
1.11486

> <b_epik_Metal_Only>
1

> <s_lp_Force_Field>
OPLS_2005

> <r_lp_Energy>
33.8194

> <b_lp_Chiralities_Consistent>
1

> <s_lp_Variant>
AV-unprocessed.smi:1943-2

> <Gold.Version>
5.8.1

> <Gold.Id.Protein>
6NUR|6NUR_protein|mol2

> <Gold.PLP.Fitness>
42.8356

> <Gold.PLP.PLP>
-32.5524

> <Gold.PLP.part.hbond>
-3.0000

> <Gold.PLP.part.metal>
0.0000

> <Gold.PLP.part.buried>
-4.4001

> <Gold.PLP.part.nonpolar>
-28.4351

> <Gold.PLP.part.repulsive>
1.7712

> <Gold.PLP.ligand.clash>
0.0000

> <Gold.PLP.ligand.torsion>
0.9725

> <Gold.PLP.Chemscore.Hbond>
3.9825

> <Gold.PLP.Chemscore.CHOScore>
0.0000

> <Gold.PLP.Chemscore.Metal>
0.0000

> <Gold.Chemscore.Hbonds>
donor molecule, donor type, donor heavy atom, donor atom, acceptor molecule, acceptor atom, score
      L1  H     2    47       P1 10957  1.37
      P1  H  7989  7998       L1    17  1.00
      P1  H 10752 10763       L1    20  0.70

> <Gold.PLP.Chemscore.Internal.Correction>
0.2807

> <Gold.Rescore>
     Score         DG    S(hbond)    S(metal)    S(lipo)     H(rot)  DE(clash)    DE(int)     intcor
     13.68     -16.09       1.87        0.00      67.95       1.41       0.28       2.13       ----

> <Gold.Chemscore.Fitness>
13.6830

> <Gold.Chemscore.DG>
-16.0911

> <Gold.Chemscore.ZeroCoef>
-5.4800

> <Gold.Chemscore.Hbond>
1.8742

> <Gold.Chemscore.Metal>
0.0000

> <Gold.Chemscore.Lipo>
67.9547

> <Gold.Chemscore.Internal_Hbond>
0.0000

> <Gold.Chemscore.DEClash>
0.2774

> <Gold.Chemscore.DEInternal>
2.1306

> <Gold.Chemscore.Rot>
1.4060

> <Gold.Chemscore.Internal.Correction>
   9.000000E+99

> <Gold.Chemscore.Hbonds>
donor molecule, donor type, donor heavy atom, donor atom, acceptor molecule, acceptor atom, score
      L1  H     2    47       P1 10957  0.61
      P1  H  7989  7998       L1    17  0.55
      P1  H 10752 10763       L1    20  0.04

> <Gold.Chemscore.Hbond.Weighted>
-6.2598

> <Gold.Chemscore.Metal.Weighted>
-0.0000

> <Gold.Chemscore.Lipo.Weighted>
-7.9507

> <Gold.Chemscore.Internal_Hbond.Weighted>
0.0000

> <Gold.Chemscore.DEClash.Weighted>
0.2774

> <Gold.Chemscore.DEInternal.Weighted>
2.1306

> <Gold.Chemscore.Rot.Weighted>
3.5994

> <Gold.Chemscore.Internal.Correction.Weighted>
   9.000000E+99

> <Gold.Protein.RotatedTorsions>
[ 6907 6896 6895 6894 ] final   81.94 input  -60.11 | X-H torsion
[ 7974 7965 7964 7962 ] final  -22.17 input  175.53 | X-H torsion
[ 8008 7997 7996 7995 ] final  128.77 input   59.86 | X-H torsion
[ 10167 10162 10161 10158 ] final   16.95 input  -65.29 | X-H torsion
[ 10718 10713 10712 10709 ] final  136.76 input   66.30 | X-H torsion
[ 10763 10752 10751 10750 ] final   84.93 input  -60.55 | X-H torsion
[ 11005 11000 10999 10996 ] final   49.12 input  -57.11 | X-H torsion

> <Gold.Protein.ActiveResidues>
 VAL166  LYS551  ARG553  GLY616  TRP617  ASP618  TYR619  PRO620  LYS621  CYS622 
 ASP623  PHE694  ASN695  SER759  ASP760  ASP761  ALA762  ILE779  LEU786  VAL792 
 PHE793  MET794  SER795  GLU796  ALA797  LYS798  CYS799  TRP800  GLU811  SER814 

> <Gold.Protein.RotatedAtoms>
  152.5284  134.3127  159.9119 H   0  0  0  0  0  0  0  0  0  0  0  0  # atno 6907 bound_to 6896
  151.3076  133.4088  159.2652 H   0  0  0  0  0  0  0  0  0  0  0  0  # atno 6908 bound_to 6896
  151.0066  134.9380  159.8041 H   0  0  0  0  0  0  0  0  0  0  0  0  # atno 6909 bound_to 6896
  146.1691  140.4442  142.8540 H   0  0  0  0  0  0  0  0  0  0  0  0  # atno 7974 bound_to 7965
  156.2922  140.2637  156.2489 H   0  0  0  0  0  0  0  0  0  0  0  0  # atno 8008 bound_to 7997
  154.9902  140.0389  157.2334 H   0  0  0  0  0  0  0  0  0  0  0  0  # atno 8009 bound_to 7997
  154.7693  140.2775  155.6156 H   0  0  0  0  0  0  0  0  0  0  0  0  # atno 8010 bound_to 7997
  140.5761  143.9070  150.6751 H   0  0  0  0  0  0  0  0  0  0  0  0  # atno 10167 bound_to 10162
  157.4433  131.1059  151.0119 H   0  0  0  0  0  0  0  0  0  0  0  0  # atno 10718 bound_to 10713
  153.1428  135.4636  154.9520 H   0  0  0  0  0  0  0  0  0  0  0  0  # atno 10763 bound_to 10752
  154.7761  135.3173  154.8092 H   0  0  0  0  0  0  0  0  0  0  0  0  # atno 10764 bound_to 10752
  153.8611  135.6912  153.4837 H   0  0  0  0  0  0  0  0  0  0  0  0  # atno 10765 bound_to 10752
  140.1131  134.4928  155.8660 H   0  0  0  0  0  0  0  0  0  0  0  0  # atno 11005 bound_to 11000
  144.8136  140.6429  143.6399 LP  0  0  0  0  0  0  0  0  0  0  0  0  # atno 17320 bound_to 7965
  145.4389  139.1538  143.3981 LP  0  0  0  0  0  0  0  0  0  0  0  0  # atno 17321 bound_to 7965
  140.2558  143.3560  152.1366 LP  0  0  0  0  0  0  0  0  0  0  0  0  # atno 17342 bound_to 10162
  139.5143  144.6946  151.5665 LP  0  0  0  0  0  0  0  0  0  0  0  0  # atno 17343 bound_to 10162
  157.0974  130.5967  149.5452 LP  0  0  0  0  0  0  0  0  0  0  0  0  # atno 17370 bound_to 10713
  155.9957  130.5024  150.7469 LP  0  0  0  0  0  0  0  0  0  0  0  0  # atno 17371 bound_to 10713
  141.2135  133.6734  156.6744 LP  0  0  0  0  0  0  0  0  0  0  0  0  # atno 17394 bound_to 11000
  140.3064  134.8122  157.4140 LP  0  0  0  0  0  0  0  0  0  0  0  0  # atno 17395 bound_to 11000

$$$$
