AV-unprocessed.smi:1660|AV-procd|sdf|6652|dock8
  -GOLD-   22720 7363D 1   1.00000     0.00000
 Structure written by MMmdl.
 42 43  0  0  0  0  0  0  0  0  1 V2000
  150.7619  142.5037  157.3786 C   0  0  0  0  0  0  0  0  0  0  0  0
  151.3243  141.7254  156.3278 O   0  0  0  0  0  0  0  0  0  0  0  0
  150.4866  140.9076  155.5975 C   0  0  0  0  0  0  0  0  0  0  0  0
  149.0960  141.1154  155.6868 C   0  0  0  0  0  0  0  0  0  0  0  0
  148.2335  140.2851  154.9458 C   0  0  0  0  0  0  0  0  0  0  0  0
  148.7923  139.2740  154.1279 C   0  0  0  0  0  0  0  0  0  0  0  0
  148.0317  138.3621  153.3461 N   0  0  0  0  0  0  0  0  0  0  0  0
  146.6987  138.1907  153.3181 C   0  0  0  0  0  0  0  0  0  0  0  0
  145.8819  138.8395  153.9715 O   0  0  0  0  0  0  0  0  0  0  0  0
  146.3509  137.2210  152.4616 N   0  0  0  0  0  0  0  0  0  0  0  0
  144.9765  136.8106  152.2058 C   0  0  0  0  0  0  0  0  0  0  0  0
  144.6918  135.4348  152.8358 C   0  0  0  0  0  0  0  0  0  0  0  0
  145.6541  134.3280  152.3682 C   0  0  0  0  0  0  0  0  0  0  0  0
  146.5560  133.9624  153.1238 O   0  0  0  0  0  0  0  0  0  0  0  0
  145.4799  133.7832  151.1402 N   0  0  0  0  0  0  0  0  0  0  0  0
  146.2843  132.6665  150.6367 C   0  0  0  0  0  0  0  0  0  0  0  0
  145.3640  131.4424  150.4808 C   0  0  0  0  0  0  0  0  0  0  0  0
  144.2865  131.7605  149.6023 O   0  0  0  0  0  0  0  0  0  0  0  0
  143.5066  132.8684  150.0469 C   0  0  0  0  0  0  0  0  0  0  0  0
  144.4073  134.1077  150.1949 C   0  0  0  0  0  0  0  0  0  0  0  0
  150.1962  139.1403  154.1188 C   0  0  0  0  0  0  0  0  0  0  0  0
  151.0287  139.9326  154.8267 N   0  0  0  0  0  0  0  0  0  0  0  0
  151.5482  143.0910  157.8522 H   0  0  0  0  0  0  0  0  0  0  0  0
  150.3126  141.8720  158.1465 H   0  0  0  0  0  0  0  0  0  0  0  0
  150.0109  143.1997  157.0020 H   0  0  0  0  0  0  0  0  0  0  0  0
  148.6964  141.8961  156.3172 H   0  0  0  0  0  0  0  0  0  0  0  0
  147.1686  140.4335  155.0321 H   0  0  0  0  0  0  0  0  0  0  0  0
  148.5639  137.8062  152.6925 H   0  0  0  0  0  0  0  0  0  0  0  0
  147.0793  136.7372  151.9574 H   0  0  0  0  0  0  0  0  0  0  0  0
  144.3005  137.5640  152.6145 H   0  0  0  0  0  0  0  0  0  0  0  0
  144.8093  136.7740  151.1276 H   0  0  0  0  0  0  0  0  0  0  0  0
  144.7609  135.5218  153.9210 H   0  0  0  0  0  0  0  0  0  0  0  0
  143.6709  135.1339  152.5968 H   0  0  0  0  0  0  0  0  0  0  0  0
  146.7191  132.9365  149.6732 H   0  0  0  0  0  0  0  0  0  0  0  0
  147.1237  132.4171  151.2873 H   0  0  0  0  0  0  0  0  0  0  0  0
  145.9208  130.6012  150.0679 H   0  0  0  0  0  0  0  0  0  0  0  0
  144.9739  131.1242  151.4492 H   0  0  0  0  0  0  0  0  0  0  0  0
  142.7175  133.0590  149.3194 H   0  0  0  0  0  0  0  0  0  0  0  0
  143.0191  132.6265  150.9928 H   0  0  0  0  0  0  0  0  0  0  0  0
  143.8063  134.9677  150.4856 H   0  0  0  0  0  0  0  0  0  0  0  0
  144.8456  134.3669  149.2301 H   0  0  0  0  0  0  0  0  0  0  0  0
  150.6699  138.3756  153.5208 H   0  0  0  0  0  0  0  0  0  0  0  0
  1  2  1  0  0  0  0
  1 23  1  0  0  0  0
  1 24  1  0  0  0  0
  1 25  1  0  0  0  0
  2  3  1  0  0  0  0
  3 22  1  0  0  0  0
  3  4  2  0  0  0  0
  4  5  1  0  0  0  0
  4 26  1  0  0  0  0
  5  6  2  0  0  0  0
  5 27  1  0  0  0  0
  6  7  1  0  0  0  0
  6 21  1  0  0  0  0
  7  8  1  0  0  0  0
  7 28  1  0  0  0  0
  8  9  2  0  0  0  0
  8 10  1  0  0  0  0
 10 11  1  0  0  0  0
 10 29  1  0  0  0  0
 11 12  1  0  0  0  0
 11 30  1  0  0  0  0
 11 31  1  0  0  0  0
 12 13  1  0  0  0  0
 12 32  1  0  0  0  0
 12 33  1  0  0  0  0
 13 14  2  0  0  0  0
 13 15  1  0  0  0  0
 15 20  1  0  0  0  0
 15 16  1  0  0  0  0
 16 17  1  0  0  0  0
 16 34  1  0  0  0  0
 16 35  1  0  0  0  0
 17 18  1  0  0  0  0
 17 36  1  0  0  0  0
 17 37  1  0  0  0  0
 18 19  1  0  0  0  0
 19 20  1  0  0  0  0
 19 38  1  0  0  0  0
 19 39  1  0  0  0  0
 20 40  1  0  0  0  0
 20 41  1  0  0  0  0
 21 22  2  0  0  0  0
 21 42  1  0  0  0  0
M  END
> <s_m_source_file>
AV-unprocessed.smi

> <i_m_source_file_index>
1660

> <i_lp_mmshare_version>
43012

> <i_f3d_flags>
0

> <s_epik_input>
W0NIM11PYzFbY0hdW2NIXWMoW2NIXW4xKVtOSF1DKD1PKVtOSF1bQ0gyXVtDSDJdQyg9TylOMltDSDJdW0NIMl1PW0NIMl1bQ0gyXTI=

> <s_epik_cmdline>
J2VwaWtfcHl0aG9uJywgJy1waCcsICc3LjAnLCAnLXRuJywgJzgnLCAnLW1hJywgJzIwMCcsICctbWV0YWxfYmluZGluZycsICctaW1hZScsICc8aW5maWxlLm1hZT4nLCAnLW9tYWUnLCAnPG91dGZpbGUubWFlPic=

> <r_lp_tautomer_probability>
1

> <r_epik_Ionization_Penalty>
8.54597e-05

> <r_epik_Ionization_Penalty_Charging>
0

> <r_epik_Ionization_Penalty_Neutral>
8.54597e-05

> <r_epik_State_Penalty>
-0

> <r_epik_Charging_Adjusted_Penalty>
0

> <i_epik_Tot_Q>
0

> <i_epik_Tot_abs_Q>
0

> <r_epik_Metal_State_Penalty>
-0

> <b_epik_Metal_Only>
0

> <s_lp_Force_Field>
OPLS_2005

> <r_lp_Energy>
25.5639

> <b_lp_Chiralities_Consistent>
1

> <s_lp_Variant>
AV-unprocessed.smi:1660-1

> <Gold.Version>
5.8.1

> <Gold.Id.Protein>
6NUR|6NUR_protein|mol2

> <Gold.PLP.Fitness>
41.4463

> <Gold.PLP.PLP>
-32.2835

> <Gold.PLP.part.hbond>
-4.5116

> <Gold.PLP.part.metal>
0.0000

> <Gold.PLP.part.buried>
-0.6039

> <Gold.PLP.part.nonpolar>
-27.7261

> <Gold.PLP.part.repulsive>
0.7605

> <Gold.PLP.ligand.clash>
0.0000

> <Gold.PLP.ligand.torsion>
0.5162

> <Gold.PLP.Chemscore.Hbond>
3.3889

> <Gold.PLP.Chemscore.CHOScore>
0.0000

> <Gold.PLP.Chemscore.Metal>
0.0000

> <Gold.Chemscore.Hbonds>
donor molecule, donor type, donor heavy atom, donor atom, acceptor molecule, acceptor atom, score
      L1  H     7    28       P1  7948  1.00
      L1  H    10    29       P1  7948  0.98
      P1  H  7989  7998       L1    22  0.90
      P1  H 10785 10796       L1    18  0.45

> <Gold.PLP.Chemscore.Internal.Correction>
0.0286

> <Gold.Rescore>
     Score         DG    S(hbond)    S(metal)    S(lipo)     H(rot)  DE(clash)    DE(int)     intcor
     15.78     -17.98       2.62        0.00      73.13       1.88       0.26       1.93       ----

> <Gold.Chemscore.Fitness>
15.7840

> <Gold.Chemscore.DG>
-17.9793

> <Gold.Chemscore.ZeroCoef>
-5.4800

> <Gold.Chemscore.Hbond>
2.6238

> <Gold.Chemscore.Metal>
0.0000

> <Gold.Chemscore.Lipo>
73.1273

> <Gold.Chemscore.Internal_Hbond>
0.0000

> <Gold.Chemscore.DEClash>
0.2646

> <Gold.Chemscore.DEInternal>
1.9307

> <Gold.Chemscore.Rot>
1.8828

> <Gold.Chemscore.Internal.Correction>
   9.000000E+99

> <Gold.Chemscore.Hbonds>
donor molecule, donor type, donor heavy atom, donor atom, acceptor molecule, acceptor atom, score
      L1  H     7    28       P1  7948  0.98
      L1  H    10    29       P1  7948  0.93
      P1  H  7989  7998       L1    22  0.05
      P1  H 10785 10796       L1    18  0.41

> <Gold.Chemscore.Hbond.Weighted>
-8.7634

> <Gold.Chemscore.Metal.Weighted>
-0.0000

> <Gold.Chemscore.Lipo.Weighted>
-8.5559

> <Gold.Chemscore.Internal_Hbond.Weighted>
0.0000

> <Gold.Chemscore.DEClash.Weighted>
0.2646

> <Gold.Chemscore.DEInternal.Weighted>
1.9307

> <Gold.Chemscore.Rot.Weighted>
4.8200

> <Gold.Chemscore.Internal.Correction.Weighted>
   9.000000E+99

> <Gold.Protein.RotatedTorsions>
[ 6907 6896 6895 6894 ] final   70.09 input  -60.11 | X-H torsion
[ 7974 7965 7964 7962 ] final  158.64 input  175.53 | X-H torsion
[ 8008 7997 7996 7995 ] final   13.43 input   59.86 | X-H torsion
[ 10167 10162 10161 10158 ] final  124.61 input  -65.29 | X-H torsion
[ 10718 10713 10712 10709 ] final  -88.62 input   66.30 | X-H torsion
[ 10763 10752 10751 10750 ] final  -67.88 input  -60.55 | X-H torsion
[ 11005 11000 10999 10996 ] final  107.03 input  -57.11 | X-H torsion

> <Gold.Protein.ActiveResidues>
 VAL166  LYS551  ARG553  GLY616  TRP617  ASP618  TYR619  PRO620  LYS621  CYS622 
 ASP623  PHE694  ASN695  SER759  ASP760  ASP761  ALA762  ILE779  LEU786  VAL792 
 PHE793  MET794  SER795  GLU796  ALA797  LYS798  CYS799  TRP800  GLU811  SER814 

> <Gold.Protein.RotatedAtoms>
  152.4728  134.4919  159.9697 H   0  0  0  0  0  0  0  0  0  0  0  0  # atno 6907 bound_to 6896
  151.4942  133.3512  159.2866 H   0  0  0  0  0  0  0  0  0  0  0  0  # atno 6908 bound_to 6896
  150.8748  134.8156  159.7243 H   0  0  0  0  0  0  0  0  0  0  0  0  # atno 6909 bound_to 6896
  144.7834  139.7506  143.6250 H   0  0  0  0  0  0  0  0  0  0  0  0  # atno 7974 bound_to 7965
  154.8344  140.2904  155.5701 H   0  0  0  0  0  0  0  0  0  0  0  0  # atno 8008 bound_to 7997
  156.3007  140.2526  156.3206 H   0  0  0  0  0  0  0  0  0  0  0  0  # atno 8009 bound_to 7997
  154.9195  140.0386  157.1980 H   0  0  0  0  0  0  0  0  0  0  0  0  # atno 8010 bound_to 7997
  139.5732  144.6950  151.3723 H   0  0  0  0  0  0  0  0  0  0  0  0  # atno 10167 bound_to 10162
  155.9983  130.4842  150.5046 H   0  0  0  0  0  0  0  0  0  0  0  0  # atno 10718 bound_to 10713
  154.3810  135.6074  153.5790 H   0  0  0  0  0  0  0  0  0  0  0  0  # atno 10763 bound_to 10752
  152.9788  135.5861  154.4410 H   0  0  0  0  0  0  0  0  0  0  0  0  # atno 10764 bound_to 10752
  154.4180  135.2845  155.1972 H   0  0  0  0  0  0  0  0  0  0  0  0  # atno 10765 bound_to 10752
  139.8822  134.9388  156.5756 H   0  0  0  0  0  0  0  0  0  0  0  0  # atno 11005 bound_to 11000
  146.2054  139.5376  142.9716 LP  0  0  0  0  0  0  0  0  0  0  0  0  # atno 17320 bound_to 7965
  145.5987  141.0358  143.2030 LP  0  0  0  0  0  0  0  0  0  0  0  0  # atno 17321 bound_to 7965
  140.7016  143.7618  150.7412 LP  0  0  0  0  0  0  0  0  0  0  0  0  # atno 17342 bound_to 10162
  140.1130  143.4682  152.2359 LP  0  0  0  0  0  0  0  0  0  0  0  0  # atno 17343 bound_to 10162
  157.3027  131.0648  151.2057 LP  0  0  0  0  0  0  0  0  0  0  0  0  # atno 17370 bound_to 10713
  157.3031  130.6852  149.6174 LP  0  0  0  0  0  0  0  0  0  0  0  0  # atno 17371 bound_to 10713
  140.8065  133.8463  155.8772 LP  0  0  0  0  0  0  0  0  0  0  0  0  # atno 17394 bound_to 11000
  140.9545  134.1736  157.4702 LP  0  0  0  0  0  0  0  0  0  0  0  0  # atno 17395 bound_to 11000

$$$$
