AV-unprocessed.smi:1706|AV-procd|sdf|6886|dock6
  -GOLD-   22720 8 93D 1   1.00000     0.00000
 Structure written by MMmdl.
 35 36  0  0  0  0  0  0  0  0  1 V2000
  146.7888  138.9779  152.8170 C   0  0  0  0  0  0  0  0  0  0  0  0
  147.4728  140.0427  153.5187 N   0  0  0  0  0  0  0  0  0  0  0  0
  148.6353  139.9777  154.2557 C   0  0  0  0  0  0  0  0  0  0  0  0
  148.8835  141.2309  154.7412 C   0  0  0  0  0  0  0  0  0  0  0  0
  150.0142  141.6931  155.6225 C   0  0  0  0  0  0  0  0  0  0  0  0
  149.9726  141.0404  157.0143 C   0  0  0  0  0  0  0  0  0  0  0  0
  150.8418  141.7467  157.9498 N   0  0  0  0  0  0  0  0  0  0  0  0
  151.8400  141.1984  158.6612 C   0  0  0  0  0  0  0  0  0  0  0  0
  152.0892  139.9929  158.6226 O   0  0  0  0  0  0  0  0  0  0  0  0
  152.5710  142.0856  159.3809 N   0  0  0  0  0  0  0  0  0  0  0  0
  152.2683  143.5092  159.5935 C   0  0  0  0  0  0  0  0  0  0  0  0
  151.9041  143.7102  161.0756 C   0  0  0  0  0  0  0  0  0  0  0  0
  152.9823  143.2715  161.8986 O   0  0  0  0  0  0  0  0  0  0  0  0
  153.3208  141.9019  161.6939 C   0  0  0  0  0  0  0  0  0  0  0  0
  153.7016  141.6781  160.2195 C   0  0  0  0  0  0  0  0  0  0  0  0
  147.8009  142.0031  154.2313 C   0  0  0  0  0  0  0  0  0  0  0  0
  146.9589  141.2896  153.5018 N   0  0  0  0  0  0  0  0  0  0  0  0
  147.4411  138.1086  152.7302 H   0  0  0  0  0  0  0  0  0  0  0  0
  146.5073  139.3101  151.8171 H   0  0  0  0  0  0  0  0  0  0  0  0
  145.8910  138.6949  153.3671 H   0  0  0  0  0  0  0  0  0  0  0  0
  149.1798  139.0533  154.3814 H   0  0  0  0  0  0  0  0  0  0  0  0
  150.9745  141.4710  155.1560 H   0  0  0  0  0  0  0  0  0  0  0  0
  149.9907  142.7769  155.7390 H   0  0  0  0  0  0  0  0  0  0  0  0
  148.9537  141.0431  157.4024 H   0  0  0  0  0  0  0  0  0  0  0  0
  150.2752  139.9953  156.9266 H   0  0  0  0  0  0  0  0  0  0  0  0
  150.7048  142.7435  158.0290 H   0  0  0  0  0  0  0  0  0  0  0  0
  153.1480  144.1034  159.3418 H   0  0  0  0  0  0  0  0  0  0  0  0
  151.4636  143.8939  158.9672 H   0  0  0  0  0  0  0  0  0  0  0  0
  151.7121  144.7639  161.2778 H   0  0  0  0  0  0  0  0  0  0  0  0
  150.9941  143.1645  161.3301 H   0  0  0  0  0  0  0  0  0  0  0  0
  154.1575  141.6444  162.3433 H   0  0  0  0  0  0  0  0  0  0  0  0
  152.4838  141.2633  161.9807 H   0  0  0  0  0  0  0  0  0  0  0  0
  153.9922  140.6382  160.0646 H   0  0  0  0  0  0  0  0  0  0  0  0
  154.5773  142.2756  159.9617 H   0  0  0  0  0  0  0  0  0  0  0  0
  147.5997  143.0544  154.3761 H   0  0  0  0  0  0  0  0  0  0  0  0
  1  2  1  0  0  0  0
  1 18  1  0  0  0  0
  1 19  1  0  0  0  0
  1 20  1  0  0  0  0
  2 17  1  0  0  0  0
  2  3  1  0  0  0  0
  3  4  2  0  0  0  0
  3 21  1  0  0  0  0
  4  5  1  0  0  0  0
  4 16  1  0  0  0  0
  5  6  1  0  0  0  0
  5 22  1  0  0  0  0
  5 23  1  0  0  0  0
  6  7  1  0  0  0  0
  6 24  1  0  0  0  0
  6 25  1  0  0  0  0
  7  8  1  0  0  0  0
  7 26  1  0  0  0  0
  8  9  2  0  0  0  0
  8 10  1  0  0  0  0
 10 15  1  0  0  0  0
 10 11  1  0  0  0  0
 11 12  1  0  0  0  0
 11 27  1  0  0  0  0
 11 28  1  0  0  0  0
 12 13  1  0  0  0  0
 12 29  1  0  0  0  0
 12 30  1  0  0  0  0
 13 14  1  0  0  0  0
 14 15  1  0  0  0  0
 14 31  1  0  0  0  0
 14 32  1  0  0  0  0
 15 33  1  0  0  0  0
 15 34  1  0  0  0  0
 16 17  2  0  0  0  0
 16 35  1  0  0  0  0
M  END
> <s_m_source_file>
AV-unprocessed.smi

> <i_m_source_file_index>
1706

> <i_lp_mmshare_version>
43012

> <i_f3d_flags>
0

> <s_epik_input>
W0NIM11uMVtjSF1jKFtjSF1uMSlbQ0gyXVtDSDJdW05IXUMoPU8pTjJbQ0gyXVtDSDJdT1tDSDJdW0NIMl0y

> <s_epik_cmdline>
J2VwaWtfcHl0aG9uJywgJy1waCcsICc3LjAnLCAnLXRuJywgJzgnLCAnLW1hJywgJzIwMCcsICctbWV0YWxfYmluZGluZycsICctaW1hZScsICc8aW5maWxlLm1hZT4nLCAnLW9tYWUnLCAnPG91dGZpbGUubWFlPic=

> <r_lp_tautomer_probability>
1

> <r_epik_Ionization_Penalty>
0.000534981

> <r_epik_Ionization_Penalty_Charging>
0

> <r_epik_Ionization_Penalty_Neutral>
0.000534981

> <r_epik_State_Penalty>
-0

> <r_epik_Charging_Adjusted_Penalty>
0

> <i_epik_Tot_Q>
0

> <i_epik_Tot_abs_Q>
0

> <r_epik_Metal_State_Penalty>
-0

> <b_epik_Metal_Only>
0

> <s_lp_Force_Field>
OPLS_2005

> <r_lp_Energy>
25.9186

> <b_lp_Chiralities_Consistent>
1

> <s_lp_Variant>
AV-unprocessed.smi:1706-1

> <Gold.Version>
5.8.1

> <Gold.Id.Protein>
6NUR|6NUR_protein|mol2

> <Gold.PLP.Fitness>
39.9045

> <Gold.PLP.PLP>
-37.0787

> <Gold.PLP.part.hbond>
0.0000

> <Gold.PLP.part.metal>
0.0000

> <Gold.PLP.part.buried>
-2.0076

> <Gold.PLP.part.nonpolar>
-35.0151

> <Gold.PLP.part.repulsive>
0.3462

> <Gold.PLP.ligand.clash>
0.0000

> <Gold.PLP.ligand.torsion>
0.1029

> <Gold.PLP.Chemscore.Hbond>
0.0000

> <Gold.PLP.Chemscore.CHOScore>
1.0000

> <Gold.PLP.Chemscore.Metal>
0.0000

> <Gold.Chemscore.Hbonds>
donor molecule, donor type, donor heavy atom, donor atom, acceptor molecule, acceptor atom, score
      L1  C    16    35       P1  8028  1.00

> <Gold.PLP.Chemscore.Internal.Correction>
0.0316

> <Gold.Rescore>
     Score         DG    S(hbond)    S(metal)    S(lipo)     H(rot)  DE(clash)    DE(int)     intcor
     11.74     -11.96       0.00        0.00      86.79       1.44       0.11       0.10       ----

> <Gold.Chemscore.Fitness>
11.7424

> <Gold.Chemscore.DG>
-11.9556

> <Gold.Chemscore.ZeroCoef>
-5.4800

> <Gold.Chemscore.Hbond>
0.0000

> <Gold.Chemscore.Metal>
0.0000

> <Gold.Chemscore.Lipo>
86.7918

> <Gold.Chemscore.Internal_Hbond>
0.0000

> <Gold.Chemscore.DEClash>
0.1132

> <Gold.Chemscore.DEInternal>
0.0999

> <Gold.Chemscore.Rot>
1.4371

> <Gold.Chemscore.Internal.Correction>
   9.000000E+99

> <Gold.Chemscore.Hbond.Weighted>
-0.0000

> <Gold.Chemscore.Metal.Weighted>
-0.0000

> <Gold.Chemscore.Lipo.Weighted>
-10.1546

> <Gold.Chemscore.Internal_Hbond.Weighted>
0.0000

> <Gold.Chemscore.DEClash.Weighted>
0.1132

> <Gold.Chemscore.DEInternal.Weighted>
0.0999

> <Gold.Chemscore.Rot.Weighted>
3.6790

> <Gold.Chemscore.Internal.Correction.Weighted>
   9.000000E+99

> <Gold.Protein.RotatedTorsions>
[ 6907 6896 6895 6894 ] final  122.18 input  -60.11 | X-H torsion
[ 7974 7965 7964 7962 ] final -144.61 input  175.53 | X-H torsion
[ 8008 7997 7996 7995 ] final   20.96 input   59.86 | X-H torsion
[ 10167 10162 10161 10158 ] final  -93.23 input  -65.29 | X-H torsion
[ 10718 10713 10712 10709 ] final -138.61 input   66.30 | X-H torsion
[ 10763 10752 10751 10750 ] final  146.53 input  -60.55 | X-H torsion
[ 11005 11000 10999 10996 ] final  132.93 input  -57.11 | X-H torsion

> <Gold.Protein.ActiveResidues>
 VAL166  LYS551  ARG553  GLY616  TRP617  ASP618  TYR619  PRO620  LYS621  CYS622 
 ASP623  PHE694  ASN695  SER759  ASP760  ASP761  ALA762  ILE779  LEU786  VAL792 
 PHE793  MET794  SER795  GLU796  ALA797  LYS798  CYS799  TRP800  GLU811  SER814 

> <Gold.Protein.RotatedAtoms>
  152.4263  133.7201  159.6528 H   0  0  0  0  0  0  0  0  0  0  0  0  # atno 6907 bound_to 6896
  150.8140  133.8360  159.3175 H   0  0  0  0  0  0  0  0  0  0  0  0  # atno 6908 bound_to 6896
  151.6061  135.1046  160.0122 H   0  0  0  0  0  0  0  0  0  0  0  0  # atno 6909 bound_to 6896
  144.8285  140.5688  143.5531 H   0  0  0  0  0  0  0  0  0  0  0  0  # atno 7974 bound_to 7965
  154.9435  140.3056  155.5109 H   0  0  0  0  0  0  0  0  0  0  0  0  # atno 8008 bound_to 7997
  156.2994  140.2332  156.4443 H   0  0  0  0  0  0  0  0  0  0  0  0  # atno 8009 bound_to 7997
  154.8123  140.0428  157.1340 H   0  0  0  0  0  0  0  0  0  0  0  0  # atno 8010 bound_to 7997
  140.3267  143.3018  151.9987 H   0  0  0  0  0  0  0  0  0  0  0  0  # atno 10167 bound_to 10162
  156.3013  130.7430  151.1482 H   0  0  0  0  0  0  0  0  0  0  0  0  # atno 10718 bound_to 10713
  154.0234  135.2904  155.3378 H   0  0  0  0  0  0  0  0  0  0  0  0  # atno 10763 bound_to 10752
  154.7032  135.5180  153.8560 H   0  0  0  0  0  0  0  0  0  0  0  0  # atno 10764 bound_to 10752
  153.0671  135.6635  154.0454 H   0  0  0  0  0  0  0  0  0  0  0  0  # atno 10765 bound_to 10752
  139.9820  134.9545  156.9653 H   0  0  0  0  0  0  0  0  0  0  0  0  # atno 11005 bound_to 11000
  145.4947  139.1486  143.3690 LP  0  0  0  0  0  0  0  0  0  0  0  0  # atno 17320 bound_to 7965
  146.2589  140.5085  142.8861 LP  0  0  0  0  0  0  0  0  0  0  0  0  # atno 17321 bound_to 7965
  139.4864  144.6268  151.7149 LP  0  0  0  0  0  0  0  0  0  0  0  0  # atno 17342 bound_to 10162
  140.5434  144.0542  150.6097 LP  0  0  0  0  0  0  0  0  0  0  0  0  # atno 17343 bound_to 10162
  157.7368  131.0558  150.5390 LP  0  0  0  0  0  0  0  0  0  0  0  0  # atno 17370 bound_to 10713
  156.5518  130.4233  149.6104 LP  0  0  0  0  0  0  0  0  0  0  0  0  # atno 17371 bound_to 10713
  140.5077  134.1034  155.7263 LP  0  0  0  0  0  0  0  0  0  0  0  0  # atno 17394 bound_to 11000
  141.1491  133.9001  157.2142 LP  0  0  0  0  0  0  0  0  0  0  0  0  # atno 17395 bound_to 11000

$$$$
