AV-unprocessed.smi:2481|AV-procd|sdf|9771|dock3
  -GOLD-   2272013413D 1   1.00000     0.00000
 Structure written by MMmdl.
 37 38  0  0  0  0  0  0  0  0  1 V2000
  148.9415  139.6592  153.9874 C   0  0  0  0  0  0  0  0  0  0  0  0
  150.2210  139.2959  154.5649 N   0  0  0  0  0  0  0  0  0  0  0  0
  151.0413  140.2379  155.0871 N   0  0  0  0  0  0  0  0  0  0  0  0
  152.0854  139.5201  155.5024 C   0  0  0  0  0  0  0  0  0  0  0  0
  152.0094  138.1733  155.2888 N   0  0  0  0  0  0  0  0  0  0  0  0
  150.8190  138.1085  154.7006 C   0  0  0  0  0  0  0  0  0  0  0  0
  150.1774  136.9289  154.2367 N   0  0  0  0  0  0  0  0  0  0  0  0
  150.0061  135.7708  154.8965 C   0  0  0  0  0  0  0  0  0  0  0  0
  150.3968  135.5434  156.0418 O   0  0  0  0  0  0  0  0  0  0  0  0
  149.3429  134.8792  154.1450 N   0  0  0  0  0  0  0  0  0  0  0  0
  148.9972  133.5126  154.5367 C   0  0  2  0  0  0  0  0  0  0  0  0
  150.2088  132.8962  155.2647 C   0  0  0  0  0  0  0  0  0  0  0  0
  149.9584  131.4340  155.6566 C   0  0  0  0  0  0  0  0  0  0  0  0
  149.5803  130.5989  154.4276 C   0  0  0  0  0  0  0  0  0  0  0  0
  148.3572  131.1943  153.7155 C   0  0  0  0  0  0  0  0  0  0  0  0
  148.5805  132.6676  153.3020 C   0  0  1  0  0  0  0  0  0  0  0  0
  147.3311  133.2385  152.5934 C   0  0  0  0  0  0  0  0  0  0  0  0
  147.1404  132.6273  151.3343 O   0  0  0  0  0  0  0  0  0  0  0  0
  148.1469  139.0836  154.4623 H   0  0  0  0  0  0  0  0  0  0  0  0
  148.9485  139.4449  152.9185 H   0  0  0  0  0  0  0  0  0  0  0  0
  148.7423  140.7215  154.1342 H   0  0  0  0  0  0  0  0  0  0  0  0
  152.9353  139.9860  155.9789 H   0  0  0  0  0  0  0  0  0  0  0  0
  149.8078  136.9737  153.2987 H   0  0  0  0  0  0  0  0  0  0  0  0
  149.0592  135.1634  153.2189 H   0  0  0  0  0  0  0  0  0  0  0  0
  148.1607  133.5221  155.2383 H   0  0  0  0  0  0  0  0  0  0  0  0
  151.0910  132.9495  154.6248 H   0  0  0  0  0  0  0  0  0  0  0  0
  150.4415  133.4771  156.1581 H   0  0  0  0  0  0  0  0  0  0  0  0
  150.8474  131.0176  156.1312 H   0  0  0  0  0  0  0  0  0  0  0  0
  149.1583  131.3829  156.3962 H   0  0  0  0  0  0  0  0  0  0  0  0
  150.4235  130.5568  153.7368 H   0  0  0  0  0  0  0  0  0  0  0  0
  149.3729  129.5709  154.7264 H   0  0  0  0  0  0  0  0  0  0  0  0
  148.1275  130.5860  152.8403 H   0  0  0  0  0  0  0  0  0  0  0  0
  147.4887  131.1255  154.3720 H   0  0  0  0  0  0  0  0  0  0  0  0
  149.4077  132.6924  152.5901 H   0  0  0  0  0  0  0  0  0  0  0  0
  146.4396  133.0943  153.2045 H   0  0  0  0  0  0  0  0  0  0  0  0
  147.4289  134.3098  152.4202 H   0  0  0  0  0  0  0  0  0  0  0  0
  147.9237  132.1476  151.1116 H   0  0  0  0  0  0  0  0  0  0  0  0
  1  2  1  0  0  0  0
  1 19  1  0  0  0  0
  1 20  1  0  0  0  0
  1 21  1  0  0  0  0
  2  6  1  0  0  0  0
  2  3  1  0  0  0  0
  3  4  2  0  0  0  0
  4  5  1  0  0  0  0
  4 22  1  0  0  0  0
  5  6  2  0  0  0  0
  6  7  1  0  0  0  0
  7  8  1  0  0  0  0
  7 23  1  0  0  0  0
  8  9  2  0  0  0  0
  8 10  1  0  0  0  0
 10 11  1  0  0  0  0
 10 24  1  0  0  0  0
 11 16  1  0  0  0  0
 11 12  1  0  0  0  0
 11 25  1  0  0  0  0
 12 13  1  0  0  0  0
 12 26  1  0  0  0  0
 12 27  1  0  0  0  0
 13 14  1  0  0  0  0
 13 28  1  0  0  0  0
 13 29  1  0  0  0  0
 14 15  1  0  0  0  0
 14 30  1  0  0  0  0
 14 31  1  0  0  0  0
 15 16  1  0  0  0  0
 15 32  1  0  0  0  0
 15 33  1  0  0  0  0
 16 17  1  0  0  0  0
 16 34  1  0  0  0  0
 17 18  1  0  0  0  0
 17 35  1  0  0  0  0
 17 36  1  0  0  0  0
 18 37  1  0  0  0  0
M  END
> <s_m_source_file>
AV-unprocessed.smi

> <i_m_source_file_index>
2481

> <i_lp_mmshare_version>
43012

> <i_f3d_flags>
0

> <s_epik_input>
W0NIM11uMW5bY0hdbmMxW05IXUMoPU8pW05IXVtDQEBIXTJbQ0gyXVtDSDJdW0NIMl1bQ0gyXVtDQEhdMltDSDJdW09IXQ==

> <s_epik_cmdline>
J2VwaWtfcHl0aG9uJywgJy1waCcsICc3LjAnLCAnLXRuJywgJzgnLCAnLW1hJywgJzIwMCcsICctbWV0YWxfYmluZGluZycsICctaW1hZScsICc8aW5maWxlLm1hZT4nLCAnLW9tYWUnLCAnPG91dGZpbGUubWFlPic=

> <r_lp_tautomer_probability>
1

> <r_epik_Ionization_Penalty>
2.32704e-05

> <r_epik_Ionization_Penalty_Charging>
0

> <r_epik_Ionization_Penalty_Neutral>
2.32704e-05

> <r_epik_State_Penalty>
-0

> <r_epik_Charging_Adjusted_Penalty>
0

> <i_epik_Tot_Q>
0

> <i_epik_Tot_abs_Q>
0

> <r_epik_Metal_State_Penalty>
-0

> <b_epik_Metal_Only>
0

> <s_lp_Force_Field>
OPLS_2005

> <r_lp_Energy>
13.3573

> <b_lp_Chiralities_Consistent>
1

> <s_lp_Variant>
AV-unprocessed.smi:2481-1

> <Gold.Version>
5.8.1

> <Gold.Id.Protein>
6NUR|6NUR_protein|mol2

> <Gold.PLP.Fitness>
43.7538

> <Gold.PLP.PLP>
-33.5902

> <Gold.PLP.part.hbond>
-5.0578

> <Gold.PLP.part.metal>
0.0000

> <Gold.PLP.part.buried>
-1.6787

> <Gold.PLP.part.nonpolar>
-27.1564

> <Gold.PLP.part.repulsive>
0.2053

> <Gold.PLP.ligand.clash>
0.0000

> <Gold.PLP.ligand.torsion>
0.6974

> <Gold.PLP.Chemscore.Hbond>
3.8500

> <Gold.PLP.Chemscore.CHOScore>
0.0000

> <Gold.PLP.Chemscore.Metal>
0.0000

> <Gold.Chemscore.Hbonds>
donor molecule, donor type, donor heavy atom, donor atom, acceptor molecule, acceptor atom, score
      L1  H     7    23       P1  7948  1.00
      L1  H    10    24       P1  7948  1.00
      L1  H    18    37       P1 10747  1.00
      P1  H  7989  7998       L1     3  0.80

> <Gold.PLP.Chemscore.Internal.Correction>
0.0084

> <Gold.Rescore>
     Score         DG    S(hbond)    S(metal)    S(lipo)     H(rot)  DE(clash)    DE(int)     intcor
     12.51     -14.38       2.62        0.00      44.66       1.99       0.01       1.85       ----

> <Gold.Chemscore.Fitness>
12.5086

> <Gold.Chemscore.DG>
-14.3777

> <Gold.Chemscore.ZeroCoef>
-5.4800

> <Gold.Chemscore.Hbond>
2.6232

> <Gold.Chemscore.Metal>
0.0000

> <Gold.Chemscore.Lipo>
44.6565

> <Gold.Chemscore.Internal_Hbond>
0.0000

> <Gold.Chemscore.DEClash>
0.0144

> <Gold.Chemscore.DEInternal>
1.8547

> <Gold.Chemscore.Rot>
1.9877

> <Gold.Chemscore.Internal.Correction>
   9.000000E+99

> <Gold.Chemscore.Hbonds>
donor molecule, donor type, donor heavy atom, donor atom, acceptor molecule, acceptor atom, score
      L1  H     7    23       P1  7948  0.38
      L1  H    10    24       P1  7948  0.25
      L1  H    18    37       P1 10747  0.99
      P1  H  7989  7998       L1     3  0.04

> <Gold.Chemscore.Hbond.Weighted>
-8.7614

> <Gold.Chemscore.Metal.Weighted>
-0.0000

> <Gold.Chemscore.Lipo.Weighted>
-5.2248

> <Gold.Chemscore.Internal_Hbond.Weighted>
0.0000

> <Gold.Chemscore.DEClash.Weighted>
0.0144

> <Gold.Chemscore.DEInternal.Weighted>
1.8547

> <Gold.Chemscore.Rot.Weighted>
5.0885

> <Gold.Chemscore.Internal.Correction.Weighted>
   9.000000E+99

> <Gold.Protein.RotatedTorsions>
[ 6907 6896 6895 6894 ] final  102.44 input  -60.11 | X-H torsion
[ 7974 7965 7964 7962 ] final  -22.91 input  175.53 | X-H torsion
[ 8008 7997 7996 7995 ] final   65.14 input   59.86 | X-H torsion
[ 10167 10162 10161 10158 ] final  -16.14 input  -65.29 | X-H torsion
[ 10718 10713 10712 10709 ] final -104.60 input   66.30 | X-H torsion
[ 10763 10752 10751 10750 ] final   91.03 input  -60.55 | X-H torsion
[ 11005 11000 10999 10996 ] final   51.04 input  -57.11 | X-H torsion

> <Gold.Protein.ActiveResidues>
 VAL166  LYS551  ARG553  GLY616  TRP617  ASP618  TYR619  PRO620  LYS621  CYS622 
 ASP623  PHE694  ASN695  SER759  ASP760  ASP761  ALA762  ILE779  LEU786  VAL792 
 PHE793  MET794  SER795  GLU796  ALA797  LYS798  CYS799  TRP800  GLU811  SER814 

> <Gold.Protein.RotatedAtoms>
  152.5324  133.9976  159.7879 H   0  0  0  0  0  0  0  0  0  0  0  0  # atno 6907 bound_to 6896
  151.0200  133.5877  159.2679 H   0  0  0  0  0  0  0  0  0  0  0  0  # atno 6908 bound_to 6896
  151.2920  135.0751  159.9261 H   0  0  0  0  0  0  0  0  0  0  0  0  # atno 6909 bound_to 6896
  146.1647  140.4544  142.8557 H   0  0  0  0  0  0  0  0  0  0  0  0  # atno 7974 bound_to 7965
  155.6570  140.3497  155.4769 H   0  0  0  0  0  0  0  0  0  0  0  0  # atno 8008 bound_to 7997
  155.9800  140.1172  157.0758 H   0  0  0  0  0  0  0  0  0  0  0  0  # atno 8009 bound_to 7997
  154.4189  140.1140  156.5408 H   0  0  0  0  0  0  0  0  0  0  0  0  # atno 8010 bound_to 7997
  140.7229  143.5146  150.9708 H   0  0  0  0  0  0  0  0  0  0  0  0  # atno 10167 bound_to 10162
  156.0311  130.5523  150.7419 H   0  0  0  0  0  0  0  0  0  0  0  0  # atno 10718 bound_to 10713
  153.2039  135.4412  155.0299 H   0  0  0  0  0  0  0  0  0  0  0  0  # atno 10763 bound_to 10752
  154.8162  135.3316  154.7171 H   0  0  0  0  0  0  0  0  0  0  0  0  # atno 10764 bound_to 10752
  153.7614  135.6991  153.4980 H   0  0  0  0  0  0  0  0  0  0  0  0  # atno 10765 bound_to 10752
  140.0966  134.5137  155.8801 H   0  0  0  0  0  0  0  0  0  0  0  0  # atno 11005 bound_to 11000
  144.8076  140.6328  143.6436 LP  0  0  0  0  0  0  0  0  0  0  0  0  # atno 17320 bound_to 7965
  145.4497  139.1525  143.3925 LP  0  0  0  0  0  0  0  0  0  0  0  0  # atno 17321 bound_to 7965
  139.8861  143.7011  152.3151 LP  0  0  0  0  0  0  0  0  0  0  0  0  # atno 17342 bound_to 10162
  139.7310  144.7582  151.0801 LP  0  0  0  0  0  0  0  0  0  0  0  0  # atno 17343 bound_to 10162
  157.4986  131.0917  151.0342 LP  0  0  0  0  0  0  0  0  0  0  0  0  # atno 17370 bound_to 10713
  157.0729  130.5871  149.5406 LP  0  0  0  0  0  0  0  0  0  0  0  0  # atno 17371 bound_to 10713
  141.2094  133.6683  156.6435 LP  0  0  0  0  0  0  0  0  0  0  0  0  # atno 17394 bound_to 11000
  140.3277  134.7955  157.4302 LP  0  0  0  0  0  0  0  0  0  0  0  0  # atno 17395 bound_to 11000

$$$$
