AV-unprocessed.smi:155|AV-procd|sdf|1285|dock8
  -GOLD-   2262018563D 1   1.00000     0.00000
 Structure written by MMmdl.
 64 67  0  0  0  0  0  0  0  0  3 V2000
  144.1221  133.0018  149.2637 C   0  0  0  0  0  0  0  0  0  0  0  0
  143.7294  133.7240  150.4959 N   0  3  0  0  0  0  0  0  0  0  0  0
  143.8502  132.8611  151.6922 C   0  0  0  0  0  0  0  0  0  0  0  0
  144.4358  135.0190  150.6696 C   0  0  0  0  0  0  0  0  0  0  0  0
  145.9163  134.8428  151.0701 C   0  0  0  0  0  0  0  0  0  0  0  0
  146.2807  135.5936  152.3018 N   0  3  2  0  0  0  0  0  0  0  0  0
  146.0145  134.8196  153.5435 C   0  0  0  0  0  0  0  0  0  0  0  0
  147.1734  134.9848  154.5406 C   0  0  0  0  0  0  0  0  0  0  0  0
  147.2245  136.3473  155.2485 C   0  0  0  0  0  0  0  0  0  0  0  0
  147.2055  137.4665  154.3046 N   0  0  0  0  0  0  0  0  0  0  0  0
  148.0704  138.5038  154.4536 C   0  0  0  0  0  0  0  0  0  0  0  0
  148.1423  139.4633  153.4932 N   0  0  0  0  0  0  0  0  0  0  0  0
  148.9959  140.4839  153.6166 C   0  0  0  0  0  0  0  0  0  0  0  0
  149.8565  140.7363  154.6041 N   0  0  0  0  0  0  0  0  0  0  0  0
  149.7870  139.7812  155.5743 C   0  0  0  0  0  0  0  0  0  0  0  0
  148.9319  138.6428  155.5800 C   0  0  0  0  0  0  0  0  0  0  0  0
  149.1379  137.9059  156.7416 N   0  0  0  0  0  0  0  0  0  0  0  0
  150.0678  138.5645  157.3785 C   0  0  0  0  0  0  0  0  0  0  0  0
  150.5122  139.7044  156.7491 N   0  0  0  0  0  0  0  0  0  0  0  0
  151.5268  140.6279  157.2255 C   0  0  0  0  0  0  0  0  0  0  0  0
  151.0183  142.0849  157.2737 C   0  0  1  0  0  0  0  0  0  0  0  0
  149.7640  142.0889  157.9293 O   0  0  0  0  0  0  0  0  0  0  0  0
  151.9599  143.0290  158.0476 C   0  0  1  0  0  0  0  0  0  0  0  0
  151.5476  144.5034  158.0270 C   0  0  0  0  0  0  0  0  0  0  0  0
  152.1568  145.0721  159.2987 C   0  0  0  0  0  0  0  0  0  0  0  0
  152.5066  143.8330  160.1249 C   0  0  0  0  0  0  0  0  0  0  0  0
  151.8932  142.7517  159.4387 O   0  0  0  0  0  0  0  0  0  0  0  0
  145.9351  137.7517  153.6396 C   0  0  0  0  0  0  0  0  0  0  0  0
  145.7241  136.9754  152.3229 C   0  0  0  0  0  0  0  0  0  0  0  0
  145.1872  132.7662  149.2696 H   0  0  0  0  0  0  0  0  0  0  0  0
  143.9050  133.5890  148.3719 H   0  0  0  0  0  0  0  0  0  0  0  0
  143.5690  132.0660  149.1747 H   0  0  0  0  0  0  0  0  0  0  0  0
  144.8902  132.5850  151.8718 H   0  0  0  0  0  0  0  0  0  0  0  0
  143.2702  131.9456  151.5683 H   0  0  0  0  0  0  0  0  0  0  0  0
  143.4729  133.3708  152.5794 H   0  0  0  0  0  0  0  0  0  0  0  0
  144.3995  135.5566  149.7205 H   0  0  0  0  0  0  0  0  0  0  0  0
  143.9002  135.6309  151.3968 H   0  0  0  0  0  0  0  0  0  0  0  0
  146.1666  133.7891  151.1992 H   0  0  0  0  0  0  0  0  0  0  0  0
  146.5290  135.2144  150.2472 H   0  0  0  0  0  0  0  0  0  0  0  0
  145.0548  135.0914  153.9855 H   0  0  0  0  0  0  0  0  0  0  0  0
  145.9396  133.7563  153.3127 H   0  0  0  0  0  0  0  0  0  0  0  0
  147.0939  134.2105  155.3045 H   0  0  0  0  0  0  0  0  0  0  0  0
  148.1205  134.8018  154.0312 H   0  0  0  0  0  0  0  0  0  0  0  0
  146.3753  136.4448  155.9257 H   0  0  0  0  0  0  0  0  0  0  0  0
  148.1164  136.3621  155.8752 H   0  0  0  0  0  0  0  0  0  0  0  0
  148.9894  141.2001  152.8078 H   0  0  0  0  0  0  0  0  0  0  0  0
  150.4537  138.2394  158.3339 H   0  0  0  0  0  0  0  0  0  0  0  0
  151.8600  140.3052  158.2129 H   0  0  0  0  0  0  0  0  0  0  0  0
  152.3884  140.5406  156.5630 H   0  0  0  0  0  0  0  0  0  0  0  0
  150.8848  142.4542  156.2558 H   0  0  0  0  0  0  0  0  0  0  0  0
  149.9108  142.1969  158.8564 H   0  0  0  0  0  0  0  0  0  0  0  0
  152.9904  142.9295  157.6995 H   0  0  0  0  0  0  0  0  0  0  0  0
  151.8846  145.0233  157.1297 H   0  0  0  0  0  0  0  0  0  0  0  0
  150.4611  144.5898  158.0774 H   0  0  0  0  0  0  0  0  0  0  0  0
  153.0520  145.6583  159.0881 H   0  0  0  0  0  0  0  0  0  0  0  0
  151.4456  145.7162  159.8168 H   0  0  0  0  0  0  0  0  0  0  0  0
  153.5863  143.6787  160.1472 H   0  0  0  0  0  0  0  0  0  0  0  0
  152.1499  143.8985  161.1529 H   0  0  0  0  0  0  0  0  0  0  0  0
  145.1343  137.4883  154.3314 H   0  0  0  0  0  0  0  0  0  0  0  0
  145.8093  138.8209  153.4634 H   0  0  0  0  0  0  0  0  0  0  0  0
  146.1949  137.5406  151.5199 H   0  0  0  0  0  0  0  0  0  0  0  0
  144.6579  136.9496  152.0940 H   0  0  0  0  0  0  0  0  0  0  0  0
  142.7460  133.9378  150.4065 H   0  0  0  0  0  0  0  0  0  0  0  0
  147.2852  135.6965  152.2724 H   0  0  0  0  0  0  0  0  0  0  0  0
  1  2  1  0  0  0  0
  1 30  1  0  0  0  0
  1 31  1  0  0  0  0
  1 32  1  0  0  0  0
  2  3  1  0  0  0  0
  2  4  1  0  0  0  0
  2 63  1  0  0  0  0
  3 33  1  0  0  0  0
  3 34  1  0  0  0  0
  3 35  1  0  0  0  0
  4  5  1  0  0  0  0
  4 36  1  0  0  0  0
  4 37  1  0  0  0  0
  5  6  1  0  0  0  0
  5 38  1  0  0  0  0
  5 39  1  0  0  0  0
  6 29  1  0  0  0  0
  6  7  1  0  0  0  0
  6 64  1  0  0  0  0
  7  8  1  0  0  0  0
  7 40  1  0  0  0  0
  7 41  1  0  0  0  0
  8  9  1  0  0  0  0
  8 42  1  0  0  0  0
  8 43  1  0  0  0  0
  9 10  1  0  0  0  0
  9 44  1  0  0  0  0
  9 45  1  0  0  0  0
 10 11  1  0  0  0  0
 10 28  1  0  0  0  0
 11 16  1  0  0  0  0
 11 12  2  0  0  0  0
 12 13  1  0  0  0  0
 13 14  2  0  0  0  0
 13 46  1  0  0  0  0
 14 15  1  0  0  0  0
 15 19  1  0  0  0  0
 15 16  2  0  0  0  0
 16 17  1  0  0  0  0
 17 18  2  0  0  0  0
 18 19  1  0  0  0  0
 18 47  1  0  0  0  0
 19 20  1  0  0  0  0
 20 21  1  0  0  0  0
 20 48  1  0  0  0  0
 20 49  1  0  0  0  0
 21 22  1  0  0  0  0
 21 23  1  0  0  0  0
 21 50  1  0  0  0  0
 22 51  1  0  0  0  0
 23 27  1  0  0  0  0
 23 24  1  0  0  0  0
 23 52  1  0  0  0  0
 24 25  1  0  0  0  0
 24 53  1  0  0  0  0
 24 54  1  0  0  0  0
 25 26  1  0  0  0  0
 25 55  1  0  0  0  0
 25 56  1  0  0  0  0
 26 27  1  0  0  0  0
 26 57  1  0  0  0  0
 26 58  1  0  0  0  0
 28 29  1  0  0  0  0
 28 59  1  0  0  0  0
 28 60  1  0  0  0  0
 29 61  1  0  0  0  0
 29 62  1  0  0  0  0
M  CHG  1   2   1
M  CHG  1   6   1
M  END
> <s_m_source_file>
AV-unprocessed.smi

> <i_m_source_file_index>
155

> <i_lp_mmshare_version>
43012

> <i_f3d_flags>
0

> <s_epik_input>
W0NIM11OKFtDSDNdKVtDSDJdW0NIMl1OMVtDSDJdW0NIMl1bQ0gyXU4oW0NIMl1bQ0gyXTEpYyhuW2NIXW4yKWMoYzIzKW5bY0hdbjNbQ0gyXVtDQEhdKFtPSF0pW0NAQEhdNFtDSDJdW0NIMl1bQ0gyXU80

> <s_epik_cmdline>
J2VwaWtfcHl0aG9uJywgJy1waCcsICc3LjAnLCAnLXRuJywgJzgnLCAnLW1hJywgJzIwMCcsICctbWV0YWxfYmluZGluZycsICctaW1hZScsICc8aW5maWxlLm1hZT4nLCAnLW9tYWUnLCAnPG91dGZpbGUubWFlPic=

> <r_lp_tautomer_probability>
1

> <r_epik_Ionization_Penalty>
3.0333

> <r_epik_Ionization_Penalty_Charging>
3.03317

> <r_epik_Ionization_Penalty_Neutral>
0.000131872

> <r_epik_State_Penalty>
1.99939

> <r_epik_Charging_Adjusted_Penalty>
5.03256

> <i_epik_Tot_Q>
2

> <i_epik_Tot_abs_Q>
2

> <r_epik_Metal_State_Penalty>
2.00021

> <b_epik_Metal_Only>
0

> <s_lp_Force_Field>
OPLS_2005

> <r_lp_Energy>
63.1179

> <b_lp_Chiralities_Consistent>
1

> <s_lp_Variant>
AV-unprocessed.smi:155-19

> <Gold.Version>
5.8.1

> <Gold.Id.Protein>
6NUR|6NUR_protein|mol2

> <Gold.PLP.Fitness>
55.4135

> <Gold.PLP.PLP>
-41.8639

> <Gold.PLP.part.hbond>
-3.0000

> <Gold.PLP.part.metal>
0.0000

> <Gold.PLP.part.buried>
-4.0133

> <Gold.PLP.part.nonpolar>
-36.6034

> <Gold.PLP.part.repulsive>
2.3851

> <Gold.PLP.ligand.clash>
0.0000

> <Gold.PLP.ligand.torsion>
1.0737

> <Gold.PLP.Chemscore.Hbond>
4.6578

> <Gold.PLP.Chemscore.CHOScore>
0.4645

> <Gold.PLP.Chemscore.Metal>
0.0000

> <Gold.Chemscore.Hbonds>
donor molecule, donor type, donor heavy atom, donor atom, acceptor molecule, acceptor atom, score
      L1  H     2    63       P1 10186  2.00
      L1  H     6    64       P1  7948  2.00
      P1  H  7989  7998       L1    14  0.62
      L1  C    13    46       P1  7957  0.47

> <Gold.PLP.Chemscore.Internal.Correction>
0.3302

> <Gold.Rescore>
     Score         DG    S(hbond)    S(metal)    S(lipo)     H(rot)  DE(clash)    DE(int)     intcor
     13.24     -18.57       2.23        0.00     108.30       2.75       3.05       2.28       ----

> <Gold.Chemscore.Fitness>
13.2446

> <Gold.Chemscore.DG>
-18.5707

> <Gold.Chemscore.ZeroCoef>
-5.4800

> <Gold.Chemscore.Hbond>
2.2327

> <Gold.Chemscore.Metal>
0.0000

> <Gold.Chemscore.Lipo>
108.3038

> <Gold.Chemscore.Internal_Hbond>
0.0000

> <Gold.Chemscore.DEClash>
3.0462

> <Gold.Chemscore.DEInternal>
2.2798

> <Gold.Chemscore.Rot>
2.7493

> <Gold.Chemscore.Internal.Correction>
   9.000000E+99

> <Gold.Chemscore.Hbonds>
donor molecule, donor type, donor heavy atom, donor atom, acceptor molecule, acceptor atom, score
      L1  H     2    63       P1 10186  0.91
      L1  H     6    64       P1  7948  1.00
      P1  H  7989  7998       L1    14  0.13

> <Gold.Chemscore.Hbond.Weighted>
-7.4574

> <Gold.Chemscore.Metal.Weighted>
-0.0000

> <Gold.Chemscore.Lipo.Weighted>
-12.6715

> <Gold.Chemscore.Internal_Hbond.Weighted>
0.0000

> <Gold.Chemscore.DEClash.Weighted>
3.0462

> <Gold.Chemscore.DEInternal.Weighted>
2.2798

> <Gold.Chemscore.Rot.Weighted>
7.0383

> <Gold.Chemscore.Internal.Correction.Weighted>
   9.000000E+99

> <Gold.Protein.RotatedTorsions>
[ 6907 6896 6895 6894 ] final   18.82 input  -60.11 | X-H torsion
[ 7974 7965 7964 7962 ] final    3.65 input  175.53 | X-H torsion
[ 8008 7997 7996 7995 ] final -117.94 input   59.86 | X-H torsion
[ 10167 10162 10161 10158 ] final  179.79 input  -65.29 | X-H torsion
[ 10718 10713 10712 10709 ] final  -96.65 input   66.30 | X-H torsion
[ 10763 10752 10751 10750 ] final  -43.98 input  -60.55 | X-H torsion
[ 11005 11000 10999 10996 ] final  -39.94 input  -57.11 | X-H torsion

> <Gold.Protein.ActiveResidues>
 VAL166  LYS551  ARG553  GLY616  TRP617  ASP618  TYR619  PRO620  LYS621  CYS622 
 ASP623  PHE694  ASN695  SER759  ASP760  ASP761  ALA762  ILE779  LEU786  VAL792 
 PHE793  MET794  SER795  GLU796  ALA797  LYS798  CYS799  TRP800  GLU811  SER814 

> <Gold.Protein.RotatedAtoms>
  151.8713  135.0488  160.0479 H   0  0  0  0  0  0  0  0  0  0  0  0  # atno 6907 bound_to 6896
  152.2586  133.5273  159.5376 H   0  0  0  0  0  0  0  0  0  0  0  0  # atno 6908 bound_to 6896
  150.7108  134.0777  159.3929 H   0  0  0  0  0  0  0  0  0  0  0  0  # atno 6909 bound_to 6896
  146.2445  140.0653  142.8366 H   0  0  0  0  0  0  0  0  0  0  0  0  # atno 7974 bound_to 7965
  155.0918  140.0395  157.2671 H   0  0  0  0  0  0  0  0  0  0  0  0  # atno 8008 bound_to 7997
  154.6826  140.2636  155.6868 H   0  0  0  0  0  0  0  0  0  0  0  0  # atno 8009 bound_to 7997
  156.2700  140.2775  156.1376 H   0  0  0  0  0  0  0  0  0  0  0  0  # atno 8010 bound_to 7997
  139.5352  144.2519  152.0777 H   0  0  0  0  0  0  0  0  0  0  0  0  # atno 10167 bound_to 10162
  156.0066  130.5160  150.6257 H   0  0  0  0  0  0  0  0  0  0  0  0  # atno 10718 bound_to 10713
  154.0045  135.6689  153.4761 H   0  0  0  0  0  0  0  0  0  0  0  0  # atno 10763 bound_to 10752
  153.0648  135.5007  154.8170 H   0  0  0  0  0  0  0  0  0  0  0  0  # atno 10764 bound_to 10752
  154.7033  135.3083  154.9272 H   0  0  0  0  0  0  0  0  0  0  0  0  # atno 10765 bound_to 10752
  141.0138  133.6895  156.2254 H   0  0  0  0  0  0  0  0  0  0  0  0  # atno 11005 bound_to 11000
  145.0864  140.9255  143.4795 LP  0  0  0  0  0  0  0  0  0  0  0  0  # atno 17320 bound_to 7965
  145.0816  139.2955  143.5780 LP  0  0  0  0  0  0  0  0  0  0  0  0  # atno 17321 bound_to 7965
  140.1988  144.4678  150.6441 LP  0  0  0  0  0  0  0  0  0  0  0  0  # atno 17342 bound_to 10162
  140.6554  143.2236  151.5981 LP  0  0  0  0  0  0  0  0  0  0  0  0  # atno 17343 bound_to 10162
  157.4065  131.0817  151.1261 LP  0  0  0  0  0  0  0  0  0  0  0  0  # atno 17370 bound_to 10713
  157.1906  130.6350  149.5703 LP  0  0  0  0  0  0  0  0  0  0  0  0  # atno 17371 bound_to 10713
  140.6688  134.4889  157.5586 LP  0  0  0  0  0  0  0  0  0  0  0  0  # atno 17394 bound_to 11000
  139.9105  134.8355  156.1545 LP  0  0  0  0  0  0  0  0  0  0  0  0  # atno 17395 bound_to 11000

$$$$
