AV-unprocessed.smi:1308|AV-procd|sdf|5439|dock5
  -GOLD-   22720 5 03D 1   1.00000     0.00000
 Structure written by MMmdl.
 45 45  0  0  0  0  0  0  0  0  1 V2000
  146.3803  138.4302  151.9684 C   0  0  0  0  0  0  0  0  0  0  0  0
  147.1425  139.3982  152.8486 C   0  0  0  0  0  0  0  0  0  0  0  0
  146.6328  140.4784  153.3422 N   0  0  0  0  0  0  0  0  0  0  0  0
  147.4383  141.2992  154.1437 C   0  0  0  0  0  0  0  0  0  0  0  0
  146.7663  142.5495  154.6844 C   0  0  0  0  0  0  0  0  0  0  0  0
  148.7402  140.9845  154.4100 C   0  0  0  0  0  0  0  0  0  0  0  0
  149.6457  141.8611  155.2748 C   0  0  0  0  0  0  0  0  0  0  0  0
  149.9008  141.3476  156.6927 C   0  0  0  0  0  0  0  0  0  0  0  0
  148.9819  140.8397  157.3344 O   0  0  0  0  0  0  0  0  0  0  0  0
  151.1531  141.4898  157.1603 N   0  0  0  0  0  0  0  0  0  0  0  0
  151.6558  141.1278  158.4879 C   0  0  1  0  0  0  0  0  0  0  0  0
  151.4672  139.6269  158.7715 C   0  0  0  0  0  0  0  0  0  0  0  0
  153.1080  141.5955  158.7311 C   0  0  0  0  0  0  0  0  0  0  0  0
  153.5218  141.5922  160.2159 C   0  0  0  0  0  0  0  0  0  0  0  0
  153.2414  142.9179  160.9534 C   0  0  0  0  0  0  0  0  0  0  0  0
  153.2176  142.7522  162.4826 C   0  0  0  0  0  0  0  0  0  0  0  0
  151.9251  143.5409  160.4642 C   0  0  0  0  0  0  0  0  0  0  0  0
  149.3125  139.7501  153.8382 C   0  0  0  0  0  0  0  0  0  0  0  0
  150.4740  139.3798  154.0016 O   0  0  0  0  0  0  0  0  0  0  0  0
  148.4628  139.0182  153.0833 N   0  0  0  0  0  0  0  0  0  0  0  0
  148.8072  138.1638  152.6702 H   0  0  0  0  0  0  0  0  0  0  0  0
  146.0491  138.9320  151.0589 H   0  0  0  0  0  0  0  0  0  0  0  0
  145.5005  138.0579  152.4938 H   0  0  0  0  0  0  0  0  0  0  0  0
  146.9946  137.5751  151.6822 H   0  0  0  0  0  0  0  0  0  0  0  0
  146.7601  142.5415  155.7744 H   0  0  0  0  0  0  0  0  0  0  0  0
  145.7320  142.6211  154.3460 H   0  0  0  0  0  0  0  0  0  0  0  0
  147.2889  143.4441  154.3459 H   0  0  0  0  0  0  0  0  0  0  0  0
  150.6061  141.9745  154.7710 H   0  0  0  0  0  0  0  0  0  0  0  0
  149.2518  142.8757  155.3434 H   0  0  0  0  0  0  0  0  0  0  0  0
  151.8268  141.9086  156.5351 H   0  0  0  0  0  0  0  0  0  0  0  0
  151.0196  141.6637  159.1930 H   0  0  0  0  0  0  0  0  0  0  0  0
  151.7082  139.3939  159.8090 H   0  0  0  0  0  0  0  0  0  0  0  0
  152.1088  139.0106  158.1416 H   0  0  0  0  0  0  0  0  0  0  0  0
  150.4353  139.3204  158.5982 H   0  0  0  0  0  0  0  0  0  0  0  0
  153.7728  140.9368  158.1730 H   0  0  0  0  0  0  0  0  0  0  0  0
  153.2572  142.5910  158.3122 H   0  0  0  0  0  0  0  0  0  0  0  0
  152.9828  140.7944  160.7281 H   0  0  0  0  0  0  0  0  0  0  0  0
  154.5800  141.3420  160.3006 H   0  0  0  0  0  0  0  0  0  0  0  0
  154.0406  143.6175  160.7051 H   0  0  0  0  0  0  0  0  0  0  0  0
  152.4713  142.0196  162.7912 H   0  0  0  0  0  0  0  0  0  0  0  0
  152.9776  143.6957  162.9735 H   0  0  0  0  0  0  0  0  0  0  0  0
  154.1838  142.4301  162.8696 H   0  0  0  0  0  0  0  0  0  0  0  0
  151.0759  142.8902  160.6759 H   0  0  0  0  0  0  0  0  0  0  0  0
  151.9481  143.7180  159.3885 H   0  0  0  0  0  0  0  0  0  0  0  0
  151.7389  144.4998  160.9485 H   0  0  0  0  0  0  0  0  0  0  0  0
  1  2  1  0  0  0  0
  1 22  1  0  0  0  0
  1 23  1  0  0  0  0
  1 24  1  0  0  0  0
  2 20  1  0  0  0  0
  2  3  2  0  0  0  0
  3  4  1  0  0  0  0
  4  5  1  0  0  0  0
  4  6  2  0  0  0  0
  5 25  1  0  0  0  0
  5 26  1  0  0  0  0
  5 27  1  0  0  0  0
  6  7  1  0  0  0  0
  6 18  1  0  0  0  0
  7  8  1  0  0  0  0
  7 28  1  0  0  0  0
  7 29  1  0  0  0  0
  8  9  2  0  0  0  0
  8 10  1  0  0  0  0
 10 11  1  0  0  0  0
 10 30  1  0  0  0  0
 11 12  1  0  0  0  0
 11 13  1  0  0  0  0
 11 31  1  0  0  0  0
 12 32  1  0  0  0  0
 12 33  1  0  0  0  0
 12 34  1  0  0  0  0
 13 14  1  0  0  0  0
 13 35  1  0  0  0  0
 13 36  1  0  0  0  0
 14 15  1  0  0  0  0
 14 37  1  0  0  0  0
 14 38  1  0  0  0  0
 15 16  1  0  0  0  0
 15 17  1  0  0  0  0
 15 39  1  0  0  0  0
 16 40  1  0  0  0  0
 16 41  1  0  0  0  0
 16 42  1  0  0  0  0
 17 43  1  0  0  0  0
 17 44  1  0  0  0  0
 17 45  1  0  0  0  0
 18 19  2  0  0  0  0
 18 20  1  0  0  0  0
 20 21  1  0  0  0  0
M  END
> <s_m_source_file>
AV-unprocessed.smi

> <i_m_source_file_index>
1308

> <i_lp_mmshare_version>
43012

> <i_f3d_flags>
0

> <s_epik_input>
W0NIM11jMW5jKFtDSDNdKWMoYyg9TylbbkhdMSlbQ0gyXUMoPU8pW05IXVtDQEhdKFtDSDNdKVtDSDJdW0NIMl1bQ0hdKFtDSDNdKVtDSDNd

> <s_epik_cmdline>
J2VwaWtfcHl0aG9uJywgJy1waCcsICc3LjAnLCAnLXRuJywgJzgnLCAnLW1hJywgJzIwMCcsICctbWV0YWxfYmluZGluZycsICctaW1hZScsICc8aW5maWxlLm1hZT4nLCAnLW9tYWUnLCAnPG91dGZpbGUubWFlPic=

> <r_lp_tautomer_probability>
0.839158

> <r_epik_Ionization_Penalty>
0.000390633

> <r_epik_Ionization_Penalty_Charging>
0.00035831

> <r_epik_Ionization_Penalty_Neutral>
3.23235e-05

> <r_epik_State_Penalty>
0.0470222

> <r_epik_Charging_Adjusted_Penalty>
0.0473805

> <i_epik_Tot_Q>
0

> <i_epik_Tot_abs_Q>
0

> <r_epik_Metal_State_Penalty>
0.223807

> <b_epik_Metal_Only>
0

> <s_lp_Force_Field>
OPLS_2005

> <r_lp_Energy>
7.09032

> <b_lp_Chiralities_Consistent>
1

> <s_lp_Variant>
AV-unprocessed.smi:1308-2

> <Gold.Version>
5.8.1

> <Gold.Id.Protein>
6NUR|6NUR_protein|mol2

> <Gold.PLP.Fitness>
46.1517

> <Gold.PLP.PLP>
-42.0396

> <Gold.PLP.part.hbond>
-2.7755

> <Gold.PLP.part.metal>
0.0000

> <Gold.PLP.part.buried>
1.5031

> <Gold.PLP.part.nonpolar>
-39.6241

> <Gold.PLP.part.repulsive>
0.5731

> <Gold.PLP.ligand.clash>
0.0000

> <Gold.PLP.ligand.torsion>
0.9945

> <Gold.PLP.Chemscore.Hbond>
1.9913

> <Gold.PLP.Chemscore.CHOScore>
0.0000

> <Gold.PLP.Chemscore.Metal>
0.0000

> <Gold.Chemscore.Hbonds>
donor molecule, donor type, donor heavy atom, donor atom, acceptor molecule, acceptor atom, score
      L1  H    20    21       P1  7948  0.91
      P1  H  7989  7998       L1    19  1.00

> <Gold.PLP.Chemscore.Internal.Correction>
0.1273

> <Gold.Rescore>
     Score         DG    S(hbond)    S(metal)    S(lipo)     H(rot)  DE(clash)    DE(int)     intcor
     13.66     -15.55       1.00        0.00     100.89       1.98       0.82       1.07       ----

> <Gold.Chemscore.Fitness>
13.6569

> <Gold.Chemscore.DG>
-15.5453

> <Gold.Chemscore.ZeroCoef>
-5.4800

> <Gold.Chemscore.Hbond>
0.9997

> <Gold.Chemscore.Metal>
0.0000

> <Gold.Chemscore.Lipo>
100.8890

> <Gold.Chemscore.Internal_Hbond>
0.0000

> <Gold.Chemscore.DEClash>
0.8212

> <Gold.Chemscore.DEInternal>
1.0672

> <Gold.Chemscore.Rot>
1.9835

> <Gold.Chemscore.Internal.Correction>
   9.000000E+99

> <Gold.Chemscore.Hbonds>
donor molecule, donor type, donor heavy atom, donor atom, acceptor molecule, acceptor atom, score
      L1  H    20    21       P1  7948  0.87
      P1  H  7989  7998       L1    19  0.59

> <Gold.Chemscore.Hbond.Weighted>
-3.3391

> <Gold.Chemscore.Metal.Weighted>
-0.0000

> <Gold.Chemscore.Lipo.Weighted>
-11.8040

> <Gold.Chemscore.Internal_Hbond.Weighted>
0.0000

> <Gold.Chemscore.DEClash.Weighted>
0.8212

> <Gold.Chemscore.DEInternal.Weighted>
1.0672

> <Gold.Chemscore.Rot.Weighted>
5.0778

> <Gold.Chemscore.Internal.Correction.Weighted>
   9.000000E+99

> <Gold.Protein.RotatedTorsions>
[ 6907 6896 6895 6894 ] final  -95.75 input  -60.11 | X-H torsion
[ 7974 7965 7964 7962 ] final -159.25 input  175.53 | X-H torsion
[ 8008 7997 7996 7995 ] final -171.02 input   59.86 | X-H torsion
[ 10167 10162 10161 10158 ] final  138.14 input  -65.29 | X-H torsion
[ 10718 10713 10712 10709 ] final   55.66 input   66.30 | X-H torsion
[ 10763 10752 10751 10750 ] final  -74.28 input  -60.55 | X-H torsion
[ 11005 11000 10999 10996 ] final   24.73 input  -57.11 | X-H torsion

> <Gold.Protein.ActiveResidues>
 VAL166  LYS551  ARG553  GLY616  TRP617  ASP618  TYR619  PRO620  LYS621  CYS622 
 ASP623  PHE694  ASN695  SER759  ASP760  ASP761  ALA762  ILE779  LEU786  VAL792 
 PHE793  MET794  SER795  GLU796  ALA797  LYS798  CYS799  TRP800  GLU811  SER814 

> <Gold.Protein.RotatedAtoms>
  150.6971  134.1609  159.4175 H   0  0  0  0  0  0  0  0  0  0  0  0  # atno 6907 bound_to 6896
  151.9590  135.0130  160.0556 H   0  0  0  0  0  0  0  0  0  0  0  0  # atno 6908 bound_to 6896
  152.1944  133.4760  159.5061 H   0  0  0  0  0  0  0  0  0  0  0  0  # atno 6909 bound_to 6896
  144.7472  140.3711  143.6075 H   0  0  0  0  0  0  0  0  0  0  0  0  # atno 7974 bound_to 7965
  155.9261  140.1083  157.1169 H   0  0  0  0  0  0  0  0  0  0  0  0  # atno 8008 bound_to 7997
  154.4062  140.1246  156.4807 H   0  0  0  0  0  0  0  0  0  0  0  0  # atno 8009 bound_to 7997
  155.7137  140.3470  155.4987 H   0  0  0  0  0  0  0  0  0  0  0  0  # atno 8010 bound_to 7997
  139.5120  144.6370  151.5670 H   0  0  0  0  0  0  0  0  0  0  0  0  # atno 10167 bound_to 10162
  157.5364  130.8666  149.8760 H   0  0  0  0  0  0  0  0  0  0  0  0  # atno 10718 bound_to 10713
  154.4710  135.5869  153.6321 H   0  0  0  0  0  0  0  0  0  0  0  0  # atno 10763 bound_to 10752
  152.9834  135.6067  154.3367 H   0  0  0  0  0  0  0  0  0  0  0  0  # atno 10764 bound_to 10752
  154.3249  135.2843  155.2480 H   0  0  0  0  0  0  0  0  0  0  0  0  # atno 10765 bound_to 10752
  140.3555  134.2182  155.7676 H   0  0  0  0  0  0  0  0  0  0  0  0  # atno 11005 bound_to 11000
  145.7076  139.1676  143.2557 LP  0  0  0  0  0  0  0  0  0  0  0  0  # atno 17320 bound_to 7965
  146.1370  140.7109  142.9385 LP  0  0  0  0  0  0  0  0  0  0  0  0  # atno 17321 bound_to 7965
  140.6123  143.9413  150.6462 LP  0  0  0  0  0  0  0  0  0  0  0  0  # atno 17342 bound_to 10162
  140.2660  143.3490  152.1280 LP  0  0  0  0  0  0  0  0  0  0  0  0  # atno 17343 bound_to 10162
  156.0462  130.3727  150.1312 LP  0  0  0  0  0  0  0  0  0  0  0  0  # atno 17370 bound_to 10713
  156.9494  130.9770  151.3501 LP  0  0  0  0  0  0  0  0  0  0  0  0  # atno 17371 bound_to 10713
  141.1999  133.7999  157.0512 LP  0  0  0  0  0  0  0  0  0  0  0  0  # atno 17394 bound_to 11000
  140.0668  134.9724  157.1400 LP  0  0  0  0  0  0  0  0  0  0  0  0  # atno 17395 bound_to 11000

$$$$
