AV-unprocessed.smi:1906|AV-procd|sdf|7730|dock2
  -GOLD-   22720 9473D 1   1.00000     0.00000
 Structure written by MMmdl.
 36 38  0  0  0  0  0  0  0  0  2 V2000
  151.7257  137.7083  154.6010 C   0  0  0  0  0  0  0  0  0  0  0  0
  150.5964  138.6675  154.4251 C   0  0  0  0  0  0  0  0  0  0  0  0
  149.4986  138.4734  153.6408 N   0  3  0  0  0  0  0  0  0  0  0  0
  148.6580  139.5845  153.7205 C   0  0  0  0  0  0  0  0  0  0  0  0
  147.4373  139.8508  153.1080 C   0  0  0  0  0  0  0  0  0  0  0  0
  146.8366  141.0914  153.4072 C   0  0  0  0  0  0  0  0  0  0  0  0
  147.4479  142.0112  154.2840 C   0  0  0  0  0  0  0  0  0  0  0  0
  148.6857  141.7301  154.8989 C   0  0  0  0  0  0  0  0  0  0  0  0
  149.2728  140.5018  154.5970 C   0  0  0  0  0  0  0  0  0  0  0  0
  150.4671  139.8967  155.0032 N   0  0  0  0  0  0  0  0  0  0  0  0
  151.3575  140.6167  155.9269 C   0  0  0  0  0  0  0  0  0  0  0  0
  150.7016  140.8919  157.2955 C   0  0  1  0  0  0  0  0  0  0  0  0
  150.6487  139.6747  158.0100 O   0  0  0  0  0  0  0  0  0  0  0  0
  151.4195  141.9890  158.0690 C   0  0  0  0  0  0  0  0  0  0  0  0
  151.5134  143.2988  157.5481 C   0  0  0  0  0  0  0  0  0  0  0  0
  152.1616  144.3101  158.2837 C   0  0  0  0  0  0  0  0  0  0  0  0
  152.7166  144.0192  159.5444 C   0  0  0  0  0  0  0  0  0  0  0  0
  152.6241  142.7161  160.0696 C   0  0  0  0  0  0  0  0  0  0  0  0
  153.1521  142.4360  161.2844 F   0  0  0  0  0  0  0  0  0  0  0  0
  151.9784  141.7041  159.3336 C   0  0  0  0  0  0  0  0  0  0  0  0
  151.4997  136.7582  154.1165 H   0  0  0  0  0  0  0  0  0  0  0  0
  151.9038  137.5217  155.6601 H   0  0  0  0  0  0  0  0  0  0  0  0
  152.6361  138.1128  154.1593 H   0  0  0  0  0  0  0  0  0  0  0  0
  146.9666  139.1478  152.4363 H   0  0  0  0  0  0  0  0  0  0  0  0
  145.8875  141.3424  152.9556 H   0  0  0  0  0  0  0  0  0  0  0  0
  146.9572  142.9517  154.4896 H   0  0  0  0  0  0  0  0  0  0  0  0
  149.1463  142.4408  155.5694 H   0  0  0  0  0  0  0  0  0  0  0  0
  152.2678  140.0267  156.0430 H   0  0  0  0  0  0  0  0  0  0  0  0
  151.6575  141.5507  155.4506 H   0  0  0  0  0  0  0  0  0  0  0  0
  149.6663  141.1993  157.1443 H   0  0  0  0  0  0  0  0  0  0  0  0
  151.5315  139.3600  158.1328 H   0  0  0  0  0  0  0  0  0  0  0  0
  151.0832  143.5347  156.5855 H   0  0  0  0  0  0  0  0  0  0  0  0
  152.2304  145.3102  157.8813 H   0  0  0  0  0  0  0  0  0  0  0  0
  153.2115  144.7959  160.1089 H   0  0  0  0  0  0  0  0  0  0  0  0
  151.9056  140.7090  159.7471 H   0  0  0  0  0  0  0  0  0  0  0  0
  149.3387  137.6390  153.0911 H   0  0  0  0  0  0  0  0  0  0  0  0
  1  2  1  0  0  0  0
  1 21  1  0  0  0  0
  1 22  1  0  0  0  0
  1 23  1  0  0  0  0
  2 10  1  0  0  0  0
  2  3  2  0  0  0  0
  3  4  1  0  0  0  0
  3 36  1  0  0  0  0
  4  9  2  0  0  0  0
  4  5  1  0  0  0  0
  5  6  2  0  0  0  0
  5 24  1  0  0  0  0
  6  7  1  0  0  0  0
  6 25  1  0  0  0  0
  7  8  2  0  0  0  0
  7 26  1  0  0  0  0
  8  9  1  0  0  0  0
  8 27  1  0  0  0  0
  9 10  1  0  0  0  0
 10 11  1  0  0  0  0
 11 12  1  0  0  0  0
 11 28  1  0  0  0  0
 11 29  1  0  0  0  0
 12 13  1  0  0  0  0
 12 14  1  0  0  0  0
 12 30  1  0  0  0  0
 13 31  1  0  0  0  0
 14 20  1  0  0  0  0
 14 15  2  0  0  0  0
 15 16  1  0  0  0  0
 15 32  1  0  0  0  0
 16 17  2  0  0  0  0
 16 33  1  0  0  0  0
 17 18  1  0  0  0  0
 17 34  1  0  0  0  0
 18 19  1  0  0  0  0
 18 20  2  0  0  0  0
 20 35  1  0  0  0  0
M  CHG  1   3   1
M  END
> <s_m_source_file>
AV-unprocessed.smi

> <i_m_source_file_index>
1906

> <i_lp_mmshare_version>
43012

> <i_f3d_flags>
0

> <s_epik_input>
W2NIXTFbY0hdW2NIXVtjSF1jKGMxMiluKGMobjIpW0NIM10pW0NIMl1bQ0BIXShbT0hdKWMzW2NIXVtjSF1bY0hdYyhGKVtjSF0z

> <s_epik_cmdline>
J2VwaWtfcHl0aG9uJywgJy1waCcsICc3LjAnLCAnLXRuJywgJzgnLCAnLW1hJywgJzIwMCcsICctbWV0YWxfYmluZGluZycsICctaW1hZScsICc8aW5maWxlLm1hZT4nLCAnLW9tYWUnLCAnPG91dGZpbGUubWFlPic=

> <r_epik_Ionization_Penalty>
0.963871

> <r_epik_Ionization_Penalty_Charging>
0.963868

> <r_epik_Ionization_Penalty_Neutral>
3.53208e-06

> <r_epik_State_Penalty>
1.00924

> <r_epik_Charging_Adjusted_Penalty>
1.9731

> <i_epik_Tot_Q>
1

> <i_epik_Tot_abs_Q>
1

> <r_epik_Metal_State_Penalty>
4.98304

> <b_epik_Metal_Only>
0

> <s_lp_Force_Field>
OPLS_2005

> <r_lp_Energy>
15.2016

> <b_lp_Chiralities_Consistent>
1

> <s_lp_Variant>
AV-unprocessed.smi:1906-4

> <Gold.Version>
5.8.1

> <Gold.Id.Protein>
6NUR|6NUR_protein|mol2

> <Gold.PLP.Fitness>
57.0255

> <Gold.PLP.PLP>
-51.2891

> <Gold.PLP.part.hbond>
-2.0000

> <Gold.PLP.part.metal>
0.0000

> <Gold.PLP.part.buried>
1.5158

> <Gold.PLP.part.nonpolar>
-51.1954

> <Gold.PLP.part.repulsive>
0.0680

> <Gold.PLP.ligand.clash>
0.0000

> <Gold.PLP.ligand.torsion>
0.1381

> <Gold.PLP.Chemscore.Hbond>
2.0000

> <Gold.PLP.Chemscore.CHOScore>
0.0000

> <Gold.PLP.Chemscore.Metal>
0.0000

> <Gold.Chemscore.Hbonds>
donor molecule, donor type, donor heavy atom, donor atom, acceptor molecule, acceptor atom, score
      L1  H     3    36       P1  7948  2.00

> <Gold.PLP.Chemscore.Internal.Correction>
0.0126

> <Gold.Rescore>
     Score         DG    S(hbond)    S(metal)    S(lipo)     H(rot)  DE(clash)    DE(int)     intcor
     18.78     -19.01       0.97        0.00     128.25       1.85       0.15       0.08       ----

> <Gold.Chemscore.Fitness>
18.7786

> <Gold.Chemscore.DG>
-19.0123

> <Gold.Chemscore.ZeroCoef>
-5.4800

> <Gold.Chemscore.Hbond>
0.9744

> <Gold.Chemscore.Metal>
0.0000

> <Gold.Chemscore.Lipo>
128.2462

> <Gold.Chemscore.Internal_Hbond>
0.0000

> <Gold.Chemscore.DEClash>
0.1497

> <Gold.Chemscore.DEInternal>
0.0840

> <Gold.Chemscore.Rot>
1.8465

> <Gold.Chemscore.Internal.Correction>
   9.000000E+99

> <Gold.Chemscore.Hbonds>
donor molecule, donor type, donor heavy atom, donor atom, acceptor molecule, acceptor atom, score
      L1  H     3    36       P1  7948  0.96

> <Gold.Chemscore.Hbond.Weighted>
-3.2545

> <Gold.Chemscore.Metal.Weighted>
-0.0000

> <Gold.Chemscore.Lipo.Weighted>
-15.0048

> <Gold.Chemscore.Internal_Hbond.Weighted>
0.0000

> <Gold.Chemscore.DEClash.Weighted>
0.1497

> <Gold.Chemscore.DEInternal.Weighted>
0.0840

> <Gold.Chemscore.Rot.Weighted>
4.7270

> <Gold.Chemscore.Internal.Correction.Weighted>
   9.000000E+99

> <Gold.Protein.RotatedTorsions>
[ 6907 6896 6895 6894 ] final  169.31 input  -60.11 | X-H torsion
[ 7974 7965 7964 7962 ] final  -44.36 input  175.53 | X-H torsion
[ 8008 7997 7996 7995 ] final  175.25 input   59.86 | X-H torsion
[ 10167 10162 10161 10158 ] final  -41.37 input  -65.29 | X-H torsion
[ 10718 10713 10712 10709 ] final -121.64 input   66.30 | X-H torsion
[ 10763 10752 10751 10750 ] final  140.24 input  -60.55 | X-H torsion
[ 11005 11000 10999 10996 ] final  -34.63 input  -57.11 | X-H torsion

> <Gold.Protein.ActiveResidues>
 VAL166  LYS551  ARG553  GLY616  TRP617  ASP618  TYR619  PRO620  LYS621  CYS622 
 ASP623  PHE694  ASN695  SER759  ASP760  ASP761  ALA762  ILE779  LEU786  VAL792 
 PHE793  MET794  SER795  GLU796  ALA797  LYS798  CYS799  TRP800  GLU811  SER814 

> <Gold.Protein.RotatedAtoms>
  151.8339  133.3413  159.3621 H   0  0  0  0  0  0  0  0  0  0  0  0  # atno 6907 bound_to 6896
  150.7256  134.5457  159.5778 H   0  0  0  0  0  0  0  0  0  0  0  0  # atno 6908 bound_to 6896
  152.2916  134.7716  160.0428 H   0  0  0  0  0  0  0  0  0  0  0  0  # atno 6909 bound_to 6896
  145.9928  140.7161  142.9308 H   0  0  0  0  0  0  0  0  0  0  0  0  # atno 7974 bound_to 7965
  156.0889  140.1413  156.9617 H   0  0  0  0  0  0  0  0  0  0  0  0  # atno 8008 bound_to 7997
  154.4630  140.0936  156.6992 H   0  0  0  0  0  0  0  0  0  0  0  0  # atno 8009 bound_to 7997
  155.4952  140.3449  155.4364 H   0  0  0  0  0  0  0  0  0  0  0  0  # atno 8010 bound_to 7997
  140.7005  143.3098  151.3057 H   0  0  0  0  0  0  0  0  0  0  0  0  # atno 10167 bound_to 10162
  156.1354  130.6426  150.9687 H   0  0  0  0  0  0  0  0  0  0  0  0  # atno 10718 bound_to 10713
  153.9194  135.3002  155.3448 H   0  0  0  0  0  0  0  0  0  0  0  0  # atno 10763 bound_to 10752
  154.7583  135.4947  153.9419 H   0  0  0  0  0  0  0  0  0  0  0  0  # atno 10764 bound_to 10752
  153.1150  135.6768  153.9537 H   0  0  0  0  0  0  0  0  0  0  0  0  # atno 10765 bound_to 10752
  140.9731  133.7098  156.1557 H   0  0  0  0  0  0  0  0  0  0  0  0  # atno 11005 bound_to 11000
  144.6894  140.3099  143.7249 LP  0  0  0  0  0  0  0  0  0  0  0  0  # atno 17320 bound_to 7965
  145.7604  139.1823  143.2270 LP  0  0  0  0  0  0  0  0  0  0  0  0  # atno 17321 bound_to 7965
  139.6517  144.0350  152.2631 LP  0  0  0  0  0  0  0  0  0  0  0  0  # atno 17342 bound_to 10162
  139.9888  144.6376  150.7833 LP  0  0  0  0  0  0  0  0  0  0  0  0  # atno 17343 bound_to 10162
  157.6527  131.0894  150.8015 LP  0  0  0  0  0  0  0  0  0  0  0  0  # atno 17370 bound_to 10713
  156.8096  130.4948  149.5358 LP  0  0  0  0  0  0  0  0  0  0  0  0  # atno 17371 bound_to 10713
  140.7299  134.4266  157.5567 LP  0  0  0  0  0  0  0  0  0  0  0  0  # atno 17394 bound_to 11000
  139.8920  134.8766  156.2292 LP  0  0  0  0  0  0  0  0  0  0  0  0  # atno 17395 bound_to 11000

$$$$
