AV-unprocessed.smi:220|AV-procd|sdf|1685|dock7
  -GOLD-   2262020123D 1   1.00000     0.00000
 Structure written by MMmdl.
 51 55  0  0  0  0  0  0  0  0  1 V2000
  154.6117  141.2900  161.0924 N   0  0  0  0  0  0  0  0  0  0  0  0
  154.0432  140.9886  159.9228 C   0  0  0  0  0  0  0  0  0  0  0  0
  154.5144  140.1419  159.1649 O   0  0  0  0  0  0  0  0  0  0  0  0
  152.7697  141.7669  159.5501 C   0  0  1  0  0  0  0  0  0  0  0  0
  153.0290  143.2902  159.5116 C   0  0  2  0  0  0  0  0  0  0  0  0
  152.5451  144.0462  160.7594 C   0  0  0  0  0  0  0  0  0  0  0  0
  151.1527  144.5633  160.3957 C   0  0  0  0  0  0  0  0  0  0  0  0
  151.2529  144.8897  158.9056 C   0  0  0  0  0  0  0  0  0  0  0  0
  152.2027  143.8277  158.3330 C   0  0  2  0  0  0  0  0  0  0  0  0
  151.5030  142.5975  157.7482 C   0  0  0  0  0  0  0  0  0  0  0  0
  152.2765  141.4553  158.2068 N   0  0  0  0  0  0  0  0  0  0  0  0
  151.7221  140.2442  157.9328 C   0  0  0  0  0  0  0  0  0  0  0  0
  151.6198  139.2994  158.9061 N   0  0  0  0  0  0  0  0  0  0  0  0
  151.0618  138.1146  158.6433 C   0  0  0  0  0  0  0  0  0  0  0  0
  150.5451  137.6729  157.4959 N   0  0  0  0  0  0  0  0  0  0  0  0
  150.6461  138.6129  156.5134 C   0  0  0  0  0  0  0  0  0  0  0  0
  151.2175  139.9103  156.6444 C   0  0  0  0  0  0  0  0  0  0  0  0
  151.1558  140.5775  155.4268 N   0  0  0  0  0  0  0  0  0  0  0  0
  150.5721  139.7287  154.6260 C   0  0  0  0  0  0  0  0  0  0  0  0
  150.2183  138.5280  155.1992 N   0  0  0  0  0  0  0  0  0  0  0  0
  149.5521  137.4118  154.5454 C   0  0  0  0  0  0  0  0  0  0  0  0
  148.0360  137.3486  154.8209 C   0  0  0  0  0  0  0  0  0  0  0  0
  147.2945  138.4183  153.9998 C   0  0  0  0  0  0  0  0  0  0  0  0
  147.6792  138.3821  152.6405 O   0  0  0  0  0  0  0  0  0  0  0  0
  147.4011  135.9519  154.7598 C   0  0  0  0  0  0  0  0  0  0  0  0
  146.7865  136.1114  156.0556 O   0  0  0  0  0  0  0  0  0  0  0  0
  147.6227  137.2629  156.2967 C   0  0  0  0  0  0  0  0  0  0  0  0
  155.4467  140.8029  161.3831 H   0  0  0  0  0  0  0  0  0  0  0  0
  154.2031  141.9993  161.6833 H   0  0  0  0  0  0  0  0  0  0  0  0
  151.9803  141.5519  160.2738 H   0  0  0  0  0  0  0  0  0  0  0  0
  154.0862  143.5011  159.3378 H   0  0  0  0  0  0  0  0  0  0  0  0
  152.5435  143.4324  161.6608 H   0  0  0  0  0  0  0  0  0  0  0  0
  153.2052  144.8943  160.9461 H   0  0  0  0  0  0  0  0  0  0  0  0
  150.4152  143.7747  160.5509 H   0  0  0  0  0  0  0  0  0  0  0  0
  150.8532  145.4232  160.9954 H   0  0  0  0  0  0  0  0  0  0  0  0
  150.2809  144.9088  158.4115 H   0  0  0  0  0  0  0  0  0  0  0  0
  151.7001  145.8772  158.7840 H   0  0  0  0  0  0  0  0  0  0  0  0
  152.8606  144.2637  157.5798 H   0  0  0  0  0  0  0  0  0  0  0  0
  150.4787  142.5106  158.1162 H   0  0  0  0  0  0  0  0  0  0  0  0
  151.4634  142.6605  156.6611 H   0  0  0  0  0  0  0  0  0  0  0  0
  151.0211  137.4229  159.4719 H   0  0  0  0  0  0  0  0  0  0  0  0
  150.3813  139.9608  153.5889 H   0  0  0  0  0  0  0  0  0  0  0  0
  149.7415  137.4980  153.4748 H   0  0  0  0  0  0  0  0  0  0  0  0
  150.0409  136.4864  154.8517 H   0  0  0  0  0  0  0  0  0  0  0  0
  146.2128  138.3028  154.0680 H   0  0  0  0  0  0  0  0  0  0  0  0
  147.5147  139.4160  154.3805 H   0  0  0  0  0  0  0  0  0  0  0  0
  148.2759  137.6600  152.5152 H   0  0  0  0  0  0  0  0  0  0  0  0
  146.6712  135.8293  153.9588 H   0  0  0  0  0  0  0  0  0  0  0  0
  148.1206  135.1321  154.7588 H   0  0  0  0  0  0  0  0  0  0  0  0
  148.4454  137.0310  156.9752 H   0  0  0  0  0  0  0  0  0  0  0  0
  147.0570  138.1245  156.6532 H   0  0  0  0  0  0  0  0  0  0  0  0
  1  2  1  0  0  0  0
  1 28  1  0  0  0  0
  1 29  1  0  0  0  0
  2  3  2  0  0  0  0
  2  4  1  0  0  0  0
  4 11  1  0  0  0  0
  4  5  1  0  0  0  0
  4 30  1  0  0  0  0
  5  9  1  0  0  0  0
  5  6  1  0  0  0  0
  5 31  1  0  0  0  0
  6  7  1  0  0  0  0
  6 32  1  0  0  0  0
  6 33  1  0  0  0  0
  7  8  1  0  0  0  0
  7 34  1  0  0  0  0
  7 35  1  0  0  0  0
  8  9  1  0  0  0  0
  8 36  1  0  0  0  0
  8 37  1  0  0  0  0
  9 10  1  0  0  0  0
  9 38  1  0  0  0  0
 10 11  1  0  0  0  0
 10 39  1  0  0  0  0
 10 40  1  0  0  0  0
 11 12  1  0  0  0  0
 12 17  1  0  0  0  0
 12 13  2  0  0  0  0
 13 14  1  0  0  0  0
 14 15  2  0  0  0  0
 14 41  1  0  0  0  0
 15 16  1  0  0  0  0
 16 20  1  0  0  0  0
 16 17  2  0  0  0  0
 17 18  1  0  0  0  0
 18 19  2  0  0  0  0
 19 20  1  0  0  0  0
 19 42  1  0  0  0  0
 20 21  1  0  0  0  0
 21 22  1  0  0  0  0
 21 43  1  0  0  0  0
 21 44  1  0  0  0  0
 22 27  1  0  0  0  0
 22 23  1  0  0  0  0
 22 25  1  0  0  0  0
 23 24  1  0  0  0  0
 23 45  1  0  0  0  0
 23 46  1  0  0  0  0
 24 47  1  0  0  0  0
 25 26  1  0  0  0  0
 25 48  1  0  0  0  0
 25 49  1  0  0  0  0
 26 27  1  0  0  0  0
 27 50  1  0  0  0  0
 27 51  1  0  0  0  0
M  END
> <s_m_source_file>
AV-unprocessed.smi

> <i_m_source_file_index>
220

> <i_lp_mmshare_version>
43012

> <i_f3d_flags>
0

> <s_epik_input>
W0NIMl0xW0NIMl1bQ0gyXVtDQEhdKFtDQEhdMTIpW0NIMl1OKFtDQEBIXTJDKD1PKVtOSDJdKWMobltjSF1uMyljKGMzNCluW2NIXW40W0NIMl1DNShbQ0gyXVtPSF0pW0NIMl1PW0NIMl01

> <s_epik_cmdline>
J2VwaWtfcHl0aG9uJywgJy1waCcsICc3LjAnLCAnLXRuJywgJzgnLCAnLW1hJywgJzIwMCcsICctbWV0YWxfYmluZGluZycsICctaW1hZScsICc8aW5maWxlLm1hZT4nLCAnLW9tYWUnLCAnPG91dGZpbGUubWFlPic=

> <r_lp_tautomer_probability>
1

> <r_epik_Ionization_Penalty>
0.00118987

> <r_epik_Ionization_Penalty_Charging>
0

> <r_epik_Ionization_Penalty_Neutral>
0.00118987

> <r_epik_State_Penalty>
0.000654261

> <r_epik_Charging_Adjusted_Penalty>
0.000654261

> <i_epik_Tot_Q>
0

> <i_epik_Tot_abs_Q>
0

> <r_epik_Metal_State_Penalty>
-0

> <b_epik_Metal_Only>
0

> <s_lp_Force_Field>
OPLS_2005

> <r_lp_Energy>
59.1601

> <b_lp_Chiralities_Consistent>
1

> <s_lp_Variant>
AV-unprocessed.smi:220-4

> <Gold.Version>
5.8.1

> <Gold.Id.Protein>
6NUR|6NUR_protein|mol2

> <Gold.PLP.Fitness>
50.3372

> <Gold.PLP.PLP>
-42.4889

> <Gold.PLP.part.hbond>
-4.8877

> <Gold.PLP.part.metal>
0.0000

> <Gold.PLP.part.buried>
-2.7728

> <Gold.PLP.part.nonpolar>
-34.1181

> <Gold.PLP.part.repulsive>
0.0518

> <Gold.PLP.ligand.clash>
0.0000

> <Gold.PLP.ligand.torsion>
0.8170

> <Gold.PLP.Chemscore.Hbond>
1.9920

> <Gold.PLP.Chemscore.CHOScore>
1.0000

> <Gold.PLP.Chemscore.Metal>
0.0000

> <Gold.Chemscore.Hbonds>
donor molecule, donor type, donor heavy atom, donor atom, acceptor molecule, acceptor atom, score
      L1  H    24    47       P1  7948  1.00
      P1  H  7997  8009       L1     3  0.96
      L1  C    19    42       P1  7957  0.97

> <Gold.PLP.Chemscore.Internal.Correction>
0.5064

> <Gold.Rescore>
     Score         DG    S(hbond)    S(metal)    S(lipo)     H(rot)  DE(clash)    DE(int)     intcor
     13.61     -15.04       1.99        0.00      96.46       3.27       0.63       0.81       ----

> <Gold.Chemscore.Fitness>
13.6069

> <Gold.Chemscore.DG>
-15.0432

> <Gold.Chemscore.ZeroCoef>
-5.4800

> <Gold.Chemscore.Hbond>
1.9908

> <Gold.Chemscore.Metal>
0.0000

> <Gold.Chemscore.Lipo>
96.4604

> <Gold.Chemscore.Internal_Hbond>
0.0000

> <Gold.Chemscore.DEClash>
0.6279

> <Gold.Chemscore.DEInternal>
0.8084

> <Gold.Chemscore.Rot>
3.2703

> <Gold.Chemscore.Internal.Correction>
   9.000000E+99

> <Gold.Chemscore.Hbonds>
donor molecule, donor type, donor heavy atom, donor atom, acceptor molecule, acceptor atom, score
      L1  H    24    47       P1  7948  1.00
      P1  H  7997  8009       L1     3  0.92

> <Gold.Chemscore.Hbond.Weighted>
-6.6494

> <Gold.Chemscore.Metal.Weighted>
-0.0000

> <Gold.Chemscore.Lipo.Weighted>
-11.2859

> <Gold.Chemscore.Internal_Hbond.Weighted>
0.0000

> <Gold.Chemscore.DEClash.Weighted>
0.6279

> <Gold.Chemscore.DEInternal.Weighted>
0.8084

> <Gold.Chemscore.Rot.Weighted>
8.3721

> <Gold.Chemscore.Internal.Correction.Weighted>
   9.000000E+99

> <Gold.Protein.RotatedTorsions>
[ 6907 6896 6895 6894 ] final  151.09 input  -60.11 | X-H torsion
[ 7974 7965 7964 7962 ] final -172.35 input  175.53 | X-H torsion
[ 8008 7997 7996 7995 ] final  124.80 input   59.86 | X-H torsion
[ 10167 10162 10161 10158 ] final -123.76 input  -65.29 | X-H torsion
[ 10718 10713 10712 10709 ] final  -90.47 input   66.30 | X-H torsion
[ 10763 10752 10751 10750 ] final  -64.81 input  -60.55 | X-H torsion
[ 11005 11000 10999 10996 ] final  -22.44 input  -57.11 | X-H torsion

> <Gold.Protein.ActiveResidues>
 VAL166  LYS551  ARG553  GLY616  TRP617  ASP618  TYR619  PRO620  LYS621  CYS622 
 ASP623  PHE694  ASN695  SER759  ASP760  ASP761  ALA762  ILE779  LEU786  VAL792 
 PHE793  MET794  SER795  GLU796  ALA797  LYS798  CYS799  TRP800  GLU811  SER814 

> <Gold.Protein.RotatedAtoms>
  152.1054  133.4272  159.4606 H   0  0  0  0  0  0  0  0  0  0  0  0  # atno 6907 bound_to 6896
  150.6865  134.2711  159.4598 H   0  0  0  0  0  0  0  0  0  0  0  0  # atno 6908 bound_to 6896
  152.0575  134.9615  160.0625 H   0  0  0  0  0  0  0  0  0  0  0  0  # atno 6909 bound_to 6896
  144.7147  140.1785  143.6360 H   0  0  0  0  0  0  0  0  0  0  0  0  # atno 7974 bound_to 7965
  156.2813  140.2731  156.1846 H   0  0  0  0  0  0  0  0  0  0  0  0  # atno 8008 bound_to 7997
  155.0521  140.0386  157.2565 H   0  0  0  0  0  0  0  0  0  0  0  0  # atno 8009 bound_to 7997
  154.7186  140.2683  155.6567 H   0  0  0  0  0  0  0  0  0  0  0  0  # atno 8010 bound_to 7997
  140.0000  143.5550  152.2307 H   0  0  0  0  0  0  0  0  0  0  0  0  # atno 10167 bound_to 10162
  155.9988  130.4911  150.5328 H   0  0  0  0  0  0  0  0  0  0  0  0  # atno 10718 bound_to 10713
  154.3357  135.6167  153.5572 H   0  0  0  0  0  0  0  0  0  0  0  0  # atno 10763 bound_to 10752
  152.9808  135.5757  154.4910 H   0  0  0  0  0  0  0  0  0  0  0  0  # atno 10764 bound_to 10752
  154.4605  135.2856  155.1693 H   0  0  0  0  0  0  0  0  0  0  0  0  # atno 10765 bound_to 10752
  140.8657  133.7756  156.0127 H   0  0  0  0  0  0  0  0  0  0  0  0  # atno 11005 bound_to 11000
  145.8878  139.2358  143.1567 LP  0  0  0  0  0  0  0  0  0  0  0  0  # atno 17320 bound_to 7965
  145.9933  140.8584  143.0055 LP  0  0  0  0  0  0  0  0  0  0  0  0  # atno 17321 bound_to 7965
  139.6278  144.7640  151.2600 LP  0  0  0  0  0  0  0  0  0  0  0  0  # atno 17342 bound_to 10162
  140.7422  143.6532  150.8229 LP  0  0  0  0  0  0  0  0  0  0  0  0  # atno 17343 bound_to 10162
  157.3275  131.0693  151.1886 LP  0  0  0  0  0  0  0  0  0  0  0  0  # atno 17370 bound_to 10713
  157.2778  130.6735  149.6051 LP  0  0  0  0  0  0  0  0  0  0  0  0  # atno 17371 bound_to 10713
  140.8631  134.2816  157.5225 LP  0  0  0  0  0  0  0  0  0  0  0  0  # atno 17394 bound_to 11000
  139.8709  134.9528  156.4127 LP  0  0  0  0  0  0  0  0  0  0  0  0  # atno 17395 bound_to 11000

$$$$
