AV-unprocessed.smi:3097|AV-procd|sdf|11799|dock1
  -GOLD-   2272017173D 1   1.00000     0.00000
 Structure written by MMmdl.
 35 35  0  0  0  0  0  0  0  0  2 V2000
  145.1279  142.9021  156.4695 C   0  0  0  0  0  0  0  0  0  0  0  0
  144.6231  142.8280  155.0250 C   0  0  0  0  0  0  0  0  0  0  0  0
  145.6939  143.2444  154.0094 C   0  0  0  0  0  0  0  0  0  0  0  0
  146.9904  142.6336  154.3264 N   0  0  0  0  0  0  0  0  0  0  0  0
  147.3784  141.3867  153.9952 C   0  0  0  0  0  0  0  0  0  0  0  0
  146.5354  140.5781  153.3240 N   0  3  0  0  0  0  0  0  0  0  0  0
  146.8251  139.2034  152.8992 C   0  0  0  0  0  0  0  0  0  0  0  0
  148.6077  140.9454  154.3299 N   0  0  0  0  0  0  0  0  0  0  0  0
  149.6470  141.7137  155.0330 C   0  0  0  0  0  0  0  0  0  0  0  0
  150.4302  140.8389  156.0255 C   0  0  0  0  0  0  0  0  0  0  0  0
  151.1991  139.8029  155.3610 N   0  0  0  0  0  0  0  0  0  0  0  0
  150.7449  138.7865  154.5467 C   0  0  0  0  0  0  0  0  0  0  0  0
  151.8347  138.0638  154.1537 C   0  0  0  0  0  0  0  0  0  0  0  0
  152.9237  138.7189  154.7933 C   0  0  0  0  0  0  0  0  0  0  0  0
  152.5406  139.7623  155.5117 N   0  0  0  0  0  0  0  0  0  0  0  0
  144.3483  142.6012  157.1696 H   0  0  0  0  0  0  0  0  0  0  0  0
  145.4336  143.9162  156.7283 H   0  0  0  0  0  0  0  0  0  0  0  0
  145.9838  142.2440  156.6216 H   0  0  0  0  0  0  0  0  0  0  0  0
  144.2923  141.8110  154.8135 H   0  0  0  0  0  0  0  0  0  0  0  0
  143.7454  143.4664  154.9164 H   0  0  0  0  0  0  0  0  0  0  0  0
  145.3964  142.9433  153.0044 H   0  0  0  0  0  0  0  0  0  0  0  0
  145.8069  144.3290  154.0043 H   0  0  0  0  0  0  0  0  0  0  0  0
  147.6518  143.2208  154.8153 H   0  0  0  0  0  0  0  0  0  0  0  0
  145.9674  138.7839  152.3733 H   0  0  0  0  0  0  0  0  0  0  0  0
  147.0417  138.5752  153.7635 H   0  0  0  0  0  0  0  0  0  0  0  0
  147.6845  139.1845  152.2286 H   0  0  0  0  0  0  0  0  0  0  0  0
  148.8647  140.0106  154.0464 H   0  0  0  0  0  0  0  0  0  0  0  0
  150.3133  142.2052  154.3238 H   0  0  0  0  0  0  0  0  0  0  0  0
  149.1446  142.5094  155.5833 H   0  0  0  0  0  0  0  0  0  0  0  0
  151.1137  141.4557  156.6103 H   0  0  0  0  0  0  0  0  0  0  0  0
  149.7508  140.3675  156.7368 H   0  0  0  0  0  0  0  0  0  0  0  0
  149.6968  138.6653  154.3150 H   0  0  0  0  0  0  0  0  0  0  0  0
  151.8511  137.1963  153.5105 H   0  0  0  0  0  0  0  0  0  0  0  0
  153.9744  138.4720  154.7535 H   0  0  0  0  0  0  0  0  0  0  0  0
  145.6212  140.9364  153.0871 H   0  0  0  0  0  0  0  0  0  0  0  0
  1  2  1  0  0  0  0
  1 16  1  0  0  0  0
  1 17  1  0  0  0  0
  1 18  1  0  0  0  0
  2  3  1  0  0  0  0
  2 19  1  0  0  0  0
  2 20  1  0  0  0  0
  3  4  1  0  0  0  0
  3 21  1  0  0  0  0
  3 22  1  0  0  0  0
  4  5  1  0  0  0  0
  4 23  1  0  0  0  0
  5  6  2  0  0  0  0
  5  8  1  0  0  0  0
  6  7  1  0  0  0  0
  6 35  1  0  0  0  0
  7 24  1  0  0  0  0
  7 25  1  0  0  0  0
  7 26  1  0  0  0  0
  8  9  1  0  0  0  0
  8 27  1  0  0  0  0
  9 10  1  0  0  0  0
  9 28  1  0  0  0  0
  9 29  1  0  0  0  0
 10 11  1  0  0  0  0
 10 30  1  0  0  0  0
 10 31  1  0  0  0  0
 11 15  1  0  0  0  0
 11 12  1  0  0  0  0
 12 13  2  0  0  0  0
 12 32  1  0  0  0  0
 13 14  1  0  0  0  0
 13 33  1  0  0  0  0
 14 15  2  0  0  0  0
 14 34  1  0  0  0  0
M  CHG  1   6   1
M  END
> <s_m_source_file>
AV-unprocessed.smi

> <i_m_source_file_index>
3097

> <i_lp_mmshare_version>
43012

> <i_f3d_flags>
0

> <s_epik_input>
W0NIM11bQ0gyXVtDSDJdW05IXS9DKD1OXFtDSDNdKVtOSF1bQ0gyXVtDSDJdbjFbY0hdW2NIXVtjSF1uMQ==

> <s_epik_cmdline>
J2VwaWtfcHl0aG9uJywgJy1waCcsICc3LjAnLCAnLXRuJywgJzgnLCAnLW1hJywgJzIwMCcsICctbWV0YWxfYmluZGluZycsICctaW1hZScsICc8aW5maWxlLm1hZT4nLCAnLW9tYWUnLCAnPG91dGZpbGUubWFlPic=

> <r_lp_tautomer_probability>
1

> <r_epik_Ionization_Penalty>
4.40305e-05

> <r_epik_Ionization_Penalty_Charging>
1.64417e-07

> <r_epik_Ionization_Penalty_Neutral>
4.38661e-05

> <r_epik_State_Penalty>
-0

> <r_epik_Charging_Adjusted_Penalty>
1.64417e-07

> <i_epik_Tot_Q>
1

> <i_epik_Tot_abs_Q>
1

> <r_epik_Metal_State_Penalty>
-0

> <b_epik_Metal_Only>
0

> <s_epik_Chemistry_Notes>
This compound has an imine and may undergo hydrolysis.

> <s_lp_Force_Field>
OPLS_2005

> <r_lp_Energy>
5.03608

> <b_lp_Chiralities_Consistent>
1

> <s_lp_Variant>
AV-unprocessed.smi:3097-2

> <Gold.Version>
5.8.1

> <Gold.Id.Protein>
6NUR|6NUR_protein|mol2

> <Gold.PLP.Fitness>
46.6306

> <Gold.PLP.PLP>
-33.8843

> <Gold.PLP.part.hbond>
-3.4764

> <Gold.PLP.part.metal>
0.0000

> <Gold.PLP.part.buried>
-4.0078

> <Gold.PLP.part.nonpolar>
-27.0781

> <Gold.PLP.part.repulsive>
0.3214

> <Gold.PLP.ligand.clash>
0.0000

> <Gold.PLP.ligand.torsion>
0.3808

> <Gold.PLP.Chemscore.Hbond>
4.4778

> <Gold.PLP.Chemscore.CHOScore>
0.0000

> <Gold.PLP.Chemscore.Metal>
0.0000

> <Gold.Chemscore.Hbonds>
donor molecule, donor type, donor heavy atom, donor atom, acceptor molecule, acceptor atom, score
      L1  H     4    23       P1  8028  1.79
      L1  H     6    35       P1 10175  1.69
      P1  H  7997  8008       L1    15  0.85

> <Gold.PLP.Chemscore.Internal.Correction>
0.0743

> <Gold.Rescore>
     Score         DG    S(hbond)    S(metal)    S(lipo)     H(rot)  DE(clash)    DE(int)     intcor
     12.88     -13.37       1.67        0.00      60.53       1.86       0.19       0.30       ----

> <Gold.Chemscore.Fitness>
12.8834

> <Gold.Chemscore.DG>
-13.3728

> <Gold.Chemscore.ZeroCoef>
-5.4800

> <Gold.Chemscore.Hbond>
1.6653

> <Gold.Chemscore.Metal>
0.0000

> <Gold.Chemscore.Lipo>
60.5338

> <Gold.Chemscore.Internal_Hbond>
0.0000

> <Gold.Chemscore.DEClash>
0.1887

> <Gold.Chemscore.DEInternal>
0.3008

> <Gold.Chemscore.Rot>
1.8561

> <Gold.Chemscore.Internal.Correction>
   9.000000E+99

> <Gold.Chemscore.Hbonds>
donor molecule, donor type, donor heavy atom, donor atom, acceptor molecule, acceptor atom, score
      L1  H     4    23       P1  8028  0.47
      L1  H     6    35       P1 10175  0.35
      P1  H  7997  8008       L1    15  0.13

> <Gold.Chemscore.Hbond.Weighted>
-5.5621

> <Gold.Chemscore.Metal.Weighted>
-0.0000

> <Gold.Chemscore.Lipo.Weighted>
-7.0824

> <Gold.Chemscore.Internal_Hbond.Weighted>
0.0000

> <Gold.Chemscore.DEClash.Weighted>
0.1887

> <Gold.Chemscore.DEInternal.Weighted>
0.3008

> <Gold.Chemscore.Rot.Weighted>
4.7517

> <Gold.Chemscore.Internal.Correction.Weighted>
   9.000000E+99

> <Gold.Protein.RotatedTorsions>
[ 6907 6896 6895 6894 ] final  -86.06 input  -60.11 | X-H torsion
[ 7974 7965 7964 7962 ] final  -17.51 input  175.53 | X-H torsion
[ 8008 7997 7996 7995 ] final  -46.41 input   59.86 | X-H torsion
[ 10167 10162 10161 10158 ] final   34.85 input  -65.29 | X-H torsion
[ 10718 10713 10712 10709 ] final -174.88 input   66.30 | X-H torsion
[ 10763 10752 10751 10750 ] final   60.35 input  -60.55 | X-H torsion
[ 11005 11000 10999 10996 ] final -154.83 input  -57.11 | X-H torsion

> <Gold.Protein.ActiveResidues>
 VAL166  LYS551  ARG553  GLY616  TRP617  ASP618  TYR619  PRO620  LYS621  CYS622 
 ASP623  PHE694  ASN695  SER759  ASP760  ASP761  ALA762  ILE779  LEU786  VAL792 
 PHE793  MET794  SER795  GLU796  ALA797  LYS798  CYS799  TRP800  GLU811  SER814 

> <Gold.Protein.RotatedAtoms>
  150.6868  134.3109  159.4745 H   0  0  0  0  0  0  0  0  0  0  0  0  # atno 6907 bound_to 6896
  152.0995  134.9349  160.0579 H   0  0  0  0  0  0  0  0  0  0  0  0  # atno 6908 bound_to 6896
  152.0634  133.4038  159.4464 H   0  0  0  0  0  0  0  0  0  0  0  0  # atno 6909 bound_to 6896
  146.1937  140.3789  142.8448 H   0  0  0  0  0  0  0  0  0  0  0  0  # atno 7974 bound_to 7965
  154.4007  140.1372  156.4007 H   0  0  0  0  0  0  0  0  0  0  0  0  # atno 8008 bound_to 7997
  155.7827  140.3481  155.5286 H   0  0  0  0  0  0  0  0  0  0  0  0  # atno 8009 bound_to 7997
  155.8658  140.0964  157.1574 H   0  0  0  0  0  0  0  0  0  0  0  0  # atno 8010 bound_to 7997
  140.4276  144.1370  150.6155 H   0  0  0  0  0  0  0  0  0  0  0  0  # atno 10167 bound_to 10162
  156.7916  130.9520  151.3120 H   0  0  0  0  0  0  0  0  0  0  0  0  # atno 10718 bound_to 10713
  152.9919  135.5539  154.5860 H   0  0  0  0  0  0  0  0  0  0  0  0  # atno 10763 bound_to 10752
  154.5231  135.2809  155.1247 H   0  0  0  0  0  0  0  0  0  0  0  0  # atno 10764 bound_to 10752
  154.2592  135.6384  153.5321 H   0  0  0  0  0  0  0  0  0  0  0  0  # atno 10765 bound_to 10752
  140.6931  134.4019  157.5217 H   0  0  0  0  0  0  0  0  0  0  0  0  # atno 11005 bound_to 11000
  144.8538  140.7040  143.6151 LP  0  0  0  0  0  0  0  0  0  0  0  0  # atno 17320 bound_to 7965
  145.3710  139.1658  143.4332 LP  0  0  0  0  0  0  0  0  0  0  0  0  # atno 17321 bound_to 7965
  140.4463  143.2505  151.9406 LP  0  0  0  0  0  0  0  0  0  0  0  0  # atno 17342 bound_to 10162
  139.4784  144.5605  151.8246 LP  0  0  0  0  0  0  0  0  0  0  0  0  # atno 17343 bound_to 10162
  157.6598  130.8956  149.9805 LP  0  0  0  0  0  0  0  0  0  0  0  0  # atno 17370 bound_to 10713
  156.1156  130.3648  149.9975 LP  0  0  0  0  0  0  0  0  0  0  0  0  # atno 17371 bound_to 10713
  139.8918  134.8771  156.2303 LP  0  0  0  0  0  0  0  0  0  0  0  0  # atno 17394 bound_to 11000
  141.0225  133.7033  156.1292 LP  0  0  0  0  0  0  0  0  0  0  0  0  # atno 17395 bound_to 11000

$$$$
