AV-unprocessed.smi:1795|AV-procd|sdf|7240|dock2
  -GOLD-   22720 8483D 1   1.00000     0.00000
 Structure written by MMmdl.
 47 48  0  0  0  0  0  0  0  0  1 V2000
  144.3385  144.8607  153.8934 C   0  0  0  0  0  0  0  0  0  0  0  0
  144.4488  143.4948  154.5793 C   0  0  1  0  0  0  0  0  0  0  0  0
  145.7296  142.7437  154.1693 C   0  0  0  0  0  0  0  0  0  0  0  0
  145.9017  141.4689  154.8754 N   0  0  0  0  0  0  0  0  0  0  0  0
  147.1576  140.7774  154.5005 C   0  0  1  0  0  0  0  0  0  0  0  0
  147.1422  140.2498  153.0434 C   0  0  0  0  0  0  0  0  0  0  0  0
  148.4302  141.6520  154.6969 C   0  0  0  0  0  0  0  0  0  0  0  0
  149.1136  141.4004  155.9628 N   0  0  0  0  0  0  0  0  0  0  0  0
  150.4007  141.0409  156.0825 C   0  0  0  0  0  0  0  0  0  0  0  0
  151.1529  140.9007  155.1168 O   0  0  0  0  0  0  0  0  0  0  0  0
  150.9115  140.8293  157.5149 C   0  0  0  0  0  0  0  0  0  0  0  0
  151.5527  142.0256  158.0865 N   0  0  0  0  0  0  0  0  0  0  0  0
  150.9268  143.2655  157.8481 C   0  0  0  0  0  0  0  0  0  0  0  0
  151.4288  144.4168  158.3220 C   0  0  0  0  0  0  0  0  0  0  0  0
  152.6460  144.3632  159.0968 C   0  0  0  0  0  0  0  0  0  0  0  0
  153.2552  143.1830  159.3271 C   0  0  0  0  0  0  0  0  0  0  0  0
  152.7113  141.9224  158.8084 C   0  0  0  0  0  0  0  0  0  0  0  0
  153.2631  140.8402  159.0108 O   0  0  0  0  0  0  0  0  0  0  0  0
  145.8215  141.7388  156.3153 C   0  0  0  0  0  0  0  0  0  0  0  0
  144.5367  142.4872  156.7183 C   0  0  1  0  0  0  0  0  0  0  0  0
  144.5081  142.8258  158.2125 C   0  0  0  0  0  0  0  0  0  0  0  0
  144.4577  143.7029  155.9857 O   0  0  0  0  0  0  0  0  0  0  0  0
  144.3130  144.7543  152.8087 H   0  0  0  0  0  0  0  0  0  0  0  0
  145.1857  145.4985  154.1476 H   0  0  0  0  0  0  0  0  0  0  0  0
  143.4286  145.3779  154.1984 H   0  0  0  0  0  0  0  0  0  0  0  0
  143.5740  142.8982  154.3144 H   0  0  0  0  0  0  0  0  0  0  0  0
  145.6652  142.5832  153.0955 H   0  0  0  0  0  0  0  0  0  0  0  0
  146.5982  143.3808  154.3442 H   0  0  0  0  0  0  0  0  0  0  0  0
  147.2614  139.9072  155.1506 H   0  0  0  0  0  0  0  0  0  0  0  0
  148.0906  139.7983  152.7547 H   0  0  0  0  0  0  0  0  0  0  0  0
  146.9337  141.0526  152.3355 H   0  0  0  0  0  0  0  0  0  0  0  0
  146.3988  139.4677  152.8962 H   0  0  0  0  0  0  0  0  0  0  0  0
  149.1353  141.4678  153.8856 H   0  0  0  0  0  0  0  0  0  0  0  0
  148.2098  142.7178  154.6724 H   0  0  0  0  0  0  0  0  0  0  0  0
  148.5664  141.5003  156.8055 H   0  0  0  0  0  0  0  0  0  0  0  0
  150.0683  140.5147  158.1314 H   0  0  0  0  0  0  0  0  0  0  0  0
  151.6074  139.9882  157.5329 H   0  0  0  0  0  0  0  0  0  0  0  0
  150.0256  143.2205  157.2541 H   0  0  0  0  0  0  0  0  0  0  0  0
  150.9378  145.3586  158.1254 H   0  0  0  0  0  0  0  0  0  0  0  0
  153.0706  145.2738  159.4926 H   0  0  0  0  0  0  0  0  0  0  0  0
  154.1657  143.1627  159.9077 H   0  0  0  0  0  0  0  0  0  0  0  0
  145.8374  140.8074  156.8788 H   0  0  0  0  0  0  0  0  0  0  0  0
  146.6928  142.3152  156.6308 H   0  0  0  0  0  0  0  0  0  0  0  0
  143.6660  141.8724  156.4828 H   0  0  0  0  0  0  0  0  0  0  0  0
  144.5547  141.9223  158.8207 H   0  0  0  0  0  0  0  0  0  0  0  0
  143.5915  143.3550  158.4738 H   0  0  0  0  0  0  0  0  0  0  0  0
  145.3502  143.4606  158.4897 H   0  0  0  0  0  0  0  0  0  0  0  0
  1  2  1  0  0  0  0
  1 23  1  0  0  0  0
  1 24  1  0  0  0  0
  1 25  1  0  0  0  0
  2 22  1  0  0  0  0
  2  3  1  0  0  0  0
  2 26  1  0  0  0  0
  3  4  1  0  0  0  0
  3 27  1  0  0  0  0
  3 28  1  0  0  0  0
  4  5  1  0  0  0  0
  4 19  1  0  0  0  0
  5  6  1  0  0  0  0
  5  7  1  0  0  0  0
  5 29  1  0  0  0  0
  6 30  1  0  0  0  0
  6 31  1  0  0  0  0
  6 32  1  0  0  0  0
  7  8  1  0  0  0  0
  7 33  1  0  0  0  0
  7 34  1  0  0  0  0
  8  9  1  0  0  0  0
  8 35  1  0  0  0  0
  9 10  2  0  0  0  0
  9 11  1  0  0  0  0
 11 12  1  0  0  0  0
 11 36  1  0  0  0  0
 11 37  1  0  0  0  0
 12 17  1  0  0  0  0
 12 13  1  0  0  0  0
 13 14  2  0  0  0  0
 13 38  1  0  0  0  0
 14 15  1  0  0  0  0
 14 39  1  0  0  0  0
 15 16  2  0  0  0  0
 15 40  1  0  0  0  0
 16 17  1  0  0  0  0
 16 41  1  0  0  0  0
 17 18  2  0  0  0  0
 19 20  1  0  0  0  0
 19 42  1  0  0  0  0
 19 43  1  0  0  0  0
 20 21  1  0  0  0  0
 20 22  1  0  0  0  0
 20 44  1  0  0  0  0
 21 45  1  0  0  0  0
 21 46  1  0  0  0  0
 21 47  1  0  0  0  0
M  END
> <s_m_source_file>
AV-unprocessed.smi

> <i_m_source_file_index>
1795

> <i_lp_mmshare_version>
43012

> <i_f3d_flags>
0

> <s_epik_input>
W0NIM11bQ0BASF0xW0NIMl1OKFtDSDJdW0NASF0oTzEpW0NIM10pW0NASF0oW0NIM10pW0NIMl1bTkhdQyg9TylbQ0gyXW4yW2NIXVtjSF1bY0hdW2NIXWMyPU8=

> <s_epik_cmdline>
J2VwaWtfcHl0aG9uJywgJy1waCcsICc3LjAnLCAnLXRuJywgJzgnLCAnLW1hJywgJzIwMCcsICctbWV0YWxfYmluZGluZycsICctaW1hZScsICc8aW5maWxlLm1hZT4nLCAnLW9tYWUnLCAnPG91dGZpbGUubWFlPic=

> <r_lp_tautomer_probability>
1

> <r_epik_Ionization_Penalty>
0.237383

> <r_epik_Ionization_Penalty_Charging>
3.58805e-07

> <r_epik_Ionization_Penalty_Neutral>
0.237382

> <r_epik_State_Penalty>
0.228245

> <r_epik_Charging_Adjusted_Penalty>
0.228245

> <i_epik_Tot_Q>
0

> <i_epik_Tot_abs_Q>
0

> <r_epik_Metal_State_Penalty>
0.228221

> <b_epik_Metal_Only>
0

> <s_lp_Force_Field>
OPLS_2005

> <r_lp_Energy>
36.5227

> <b_lp_Chiralities_Consistent>
1

> <s_lp_Variant>
AV-unprocessed.smi:1795-4

> <Gold.Version>
5.8.1

> <Gold.Id.Protein>
6NUR|6NUR_protein|mol2

> <Gold.PLP.Fitness>
47.8603

> <Gold.PLP.PLP>
-44.5648

> <Gold.PLP.part.hbond>
-1.2546

> <Gold.PLP.part.metal>
0.0000

> <Gold.PLP.part.buried>
-4.0872

> <Gold.PLP.part.nonpolar>
-39.7352

> <Gold.PLP.part.repulsive>
0.4179

> <Gold.PLP.ligand.clash>
0.0000

> <Gold.PLP.ligand.torsion>
1.2241

> <Gold.PLP.Chemscore.Hbond>
0.8960

> <Gold.PLP.Chemscore.CHOScore>
1.0000

> <Gold.PLP.Chemscore.Metal>
0.0000

> <Gold.Chemscore.Hbonds>
donor molecule, donor type, donor heavy atom, donor atom, acceptor molecule, acceptor atom, score
      P1  H  7989  7998       L1    10  0.74
      L1  C    13    38       P1  8028  1.00

> <Gold.PLP.Chemscore.Internal.Correction>
0.0557

> <Gold.Rescore>
     Score         DG    S(hbond)    S(metal)    S(lipo)     H(rot)  DE(clash)    DE(int)     intcor
     16.47     -17.96       1.65        0.00      99.58       1.83       0.37       1.12       ----

> <Gold.Chemscore.Fitness>
16.4729

> <Gold.Chemscore.DG>
-17.9576

> <Gold.Chemscore.ZeroCoef>
-5.4800

> <Gold.Chemscore.Hbond>
1.6464

> <Gold.Chemscore.Metal>
0.0000

> <Gold.Chemscore.Lipo>
99.5821

> <Gold.Chemscore.Internal_Hbond>
0.0000

> <Gold.Chemscore.DEClash>
0.3675

> <Gold.Chemscore.DEInternal>
1.1172

> <Gold.Chemscore.Rot>
1.8251

> <Gold.Chemscore.Internal.Correction>
   9.000000E+99

> <Gold.Chemscore.Hbonds>
donor molecule, donor type, donor heavy atom, donor atom, acceptor molecule, acceptor atom, score
      P1  H  7989  7998       L1    10  0.74
      P1  H  7997  8009       L1    18  0.01

> <Gold.Chemscore.Hbond.Weighted>
-5.4988

> <Gold.Chemscore.Metal.Weighted>
-0.0000

> <Gold.Chemscore.Lipo.Weighted>
-11.6511

> <Gold.Chemscore.Internal_Hbond.Weighted>
0.0000

> <Gold.Chemscore.DEClash.Weighted>
0.3675

> <Gold.Chemscore.DEInternal.Weighted>
1.1172

> <Gold.Chemscore.Rot.Weighted>
4.6724

> <Gold.Chemscore.Internal.Correction.Weighted>
   9.000000E+99

> <Gold.Protein.RotatedTorsions>
[ 6907 6896 6895 6894 ] final  -78.03 input  -60.11 | X-H torsion
[ 7974 7965 7964 7962 ] final -178.01 input  175.53 | X-H torsion
[ 8008 7997 7996 7995 ] final  140.19 input   59.86 | X-H torsion
[ 10167 10162 10161 10158 ] final  139.01 input  -65.29 | X-H torsion
[ 10718 10713 10712 10709 ] final  -74.53 input   66.30 | X-H torsion
[ 10763 10752 10751 10750 ] final   46.87 input  -60.55 | X-H torsion
[ 11005 11000 10999 10996 ] final  135.99 input  -57.11 | X-H torsion

> <Gold.Protein.ActiveResidues>
 VAL166  LYS551  ARG553  GLY616  TRP617  ASP618  TYR619  PRO620  LYS621  CYS622 
 ASP623  PHE694  ASN695  SER759  ASP760  ASP761  ALA762  ILE779  LEU786  VAL792 
 PHE793  MET794  SER795  GLU796  ALA797  LYS798  CYS799  TRP800  GLU811  SER814 

> <Gold.Protein.RotatedAtoms>
  150.6983  134.4333  159.5258 H   0  0  0  0  0  0  0  0  0  0  0  0  # atno 6907 bound_to 6896
  152.2056  134.8545  160.0512 H   0  0  0  0  0  0  0  0  0  0  0  0  # atno 6908 bound_to 6896
  151.9450  133.3614  159.4016 H   0  0  0  0  0  0  0  0  0  0  0  0  # atno 6909 bound_to 6896
  144.7129  140.0933  143.6420 H   0  0  0  0  0  0  0  0  0  0  0  0  # atno 7974 bound_to 7965
  156.2982  140.2348  156.4360 H   0  0  0  0  0  0  0  0  0  0  0  0  # atno 8008 bound_to 7997
  154.8228  140.0437  157.1443 H   0  0  0  0  0  0  0  0  0  0  0  0  # atno 8009 bound_to 7997
  154.9296  140.3015  155.5178 H   0  0  0  0  0  0  0  0  0  0  0  0  # atno 8010 bound_to 7997
  139.5092  144.6320  151.5794 H   0  0  0  0  0  0  0  0  0  0  0  0  # atno 10167 bound_to 10162
  156.0239  130.4419  150.2905 H   0  0  0  0  0  0  0  0  0  0  0  0  # atno 10718 bound_to 10713
  152.9806  135.5994  154.3670 H   0  0  0  0  0  0  0  0  0  0  0  0  # atno 10763 bound_to 10752
  154.3347  135.2768  155.2455 H   0  0  0  0  0  0  0  0  0  0  0  0  # atno 10764 bound_to 10752
  154.4564  135.5977  153.6281 H   0  0  0  0  0  0  0  0  0  0  0  0  # atno 10765 bound_to 10752
  140.0016  134.9476  157.0085 H   0  0  0  0  0  0  0  0  0  0  0  0  # atno 11005 bound_to 11000
  145.9601  139.2795  143.1160 LP  0  0  0  0  0  0  0  0  0  0  0  0  # atno 17320 bound_to 7965
  145.9229  140.9102  143.0395 LP  0  0  0  0  0  0  0  0  0  0  0  0  # atno 17321 bound_to 7965
  140.6055  143.9531  150.6416 LP  0  0  0  0  0  0  0  0  0  0  0  0  # atno 17342 bound_to 10162
  140.2757  143.3425  152.1197 LP  0  0  0  0  0  0  0  0  0  0  0  0  # atno 17343 bound_to 10162
  157.1009  131.0195  151.3086 LP  0  0  0  0  0  0  0  0  0  0  0  0  # atno 17370 bound_to 10713
  157.4781  130.7748  149.7387 LP  0  0  0  0  0  0  0  0  0  0  0  0  # atno 17371 bound_to 10713
  140.4717  134.1380  155.7204 LP  0  0  0  0  0  0  0  0  0  0  0  0  # atno 17394 bound_to 11000
  141.1646  133.8727  157.1751 LP  0  0  0  0  0  0  0  0  0  0  0  0  # atno 17395 bound_to 11000

$$$$
