AV-unprocessed.smi:1754|AV-procd|sdf|7064|dock2
  -GOLD-   22720 8283D 1   1.00000     0.00000
 Structure written by MMmdl.
 45 46  0  0  0  0  0  0  0  0  2 V2000
  145.3256  128.7995  151.9683 C   0  0  0  0  0  0  0  0  0  0  0  0
  146.8008  128.3735  151.9014 C   0  0  0  0  0  0  0  0  0  0  0  0
  147.5602  128.7403  153.0989 N   0  0  0  0  0  0  0  0  0  0  0  0
  148.4684  127.7320  153.6446 C   0  0  0  0  0  0  0  0  0  0  0  0
  148.9193  126.7048  152.5948 C   0  0  0  0  0  0  0  0  0  0  0  0
  147.9841  130.0798  153.2535 C   0  0  0  0  0  0  0  0  0  0  0  0
  149.0672  130.4339  154.0920 C   0  0  0  0  0  0  0  0  0  0  0  0
  149.4549  131.7843  154.2051 C   0  0  0  0  0  0  0  0  0  0  0  0
  148.7680  132.7753  153.4737 C   0  0  0  0  0  0  0  0  0  0  0  0
  149.1861  134.1232  153.6367 N   0  0  0  0  0  0  0  0  0  0  0  0
  149.8393  134.6880  154.6714 C   0  0  0  0  0  0  0  0  0  0  0  0
  150.1287  134.1080  155.7154 O   0  0  0  0  0  0  0  0  0  0  0  0
  150.1309  135.9897  154.4944 N   0  0  0  0  0  0  0  0  0  0  0  0
  150.8267  136.8936  155.4124 C   0  0  2  0  0  0  0  0  0  0  0  0
  149.8872  137.4518  156.5023 C   0  0  0  0  0  0  0  0  0  0  0  0
  150.5572  138.6592  157.1711 C   0  0  0  0  0  0  0  0  0  0  0  0
  151.6755  139.3897  155.9150 S   0  0  0  0  0  0  0  0  0  0  0  0
  151.1155  140.6587  155.4265 O   0  0  0  0  0  0  0  0  0  0  0  0
  153.0576  139.3118  156.4122 O   0  0  0  0  0  0  0  0  0  0  0  0
  151.4141  138.0893  154.6525 C   0  0  0  0  0  0  0  0  0  0  0  0
  147.6860  132.3733  152.6549 C   0  0  0  0  0  0  0  0  0  0  0  0
  147.3470  131.0680  152.5784 N   0  3  0  0  0  0  0  0  0  0  0  0
  144.7910  128.4638  151.0797 H   0  0  0  0  0  0  0  0  0  0  0  0
  145.2090  129.8812  152.0297 H   0  0  0  0  0  0  0  0  0  0  0  0
  144.8306  128.3605  152.8349 H   0  0  0  0  0  0  0  0  0  0  0  0
  146.8433  127.2911  151.7750 H   0  0  0  0  0  0  0  0  0  0  0  0
  147.2767  128.7967  151.0161 H   0  0  0  0  0  0  0  0  0  0  0  0
  149.3404  128.1979  154.1019 H   0  0  0  0  0  0  0  0  0  0  0  0
  147.9581  127.2145  154.4577 H   0  0  0  0  0  0  0  0  0  0  0  0
  149.5787  125.9614  153.0436 H   0  0  0  0  0  0  0  0  0  0  0  0
  149.4652  127.1805  151.7795 H   0  0  0  0  0  0  0  0  0  0  0  0
  148.0695  126.1738  152.1649 H   0  0  0  0  0  0  0  0  0  0  0  0
  149.5960  129.6859  154.6634 H   0  0  0  0  0  0  0  0  0  0  0  0
  150.2774  132.0538  154.8516 H   0  0  0  0  0  0  0  0  0  0  0  0
  148.9336  134.7473  152.8845 H   0  0  0  0  0  0  0  0  0  0  0  0
  149.7843  136.4126  153.6451 H   0  0  0  0  0  0  0  0  0  0  0  0
  151.6571  136.3749  155.8948 H   0  0  0  0  0  0  0  0  0  0  0  0
  148.9599  137.7863  156.0350 H   0  0  0  0  0  0  0  0  0  0  0  0
  149.6143  136.6936  157.2368 H   0  0  0  0  0  0  0  0  0  0  0  0
  149.8383  139.4040  157.5126 H   0  0  0  0  0  0  0  0  0  0  0  0
  151.1648  138.3479  158.0210 H   0  0  0  0  0  0  0  0  0  0  0  0
  152.3525  137.8614  154.1467 H   0  0  0  0  0  0  0  0  0  0  0  0
  150.7071  138.4781  153.9186 H   0  0  0  0  0  0  0  0  0  0  0  0
  147.0682  133.0354  152.0676 H   0  0  0  0  0  0  0  0  0  0  0  0
  146.5631  130.8127  151.9777 H   0  0  0  0  0  0  0  0  0  0  0  0
  1  2  1  0  0  0  0
  1 23  1  0  0  0  0
  1 24  1  0  0  0  0
  1 25  1  0  0  0  0
  2  3  1  0  0  0  0
  2 26  1  0  0  0  0
  2 27  1  0  0  0  0
  3  4  1  0  0  0  0
  3  6  1  0  0  0  0
  4  5  1  0  0  0  0
  4 28  1  0  0  0  0
  4 29  1  0  0  0  0
  5 30  1  0  0  0  0
  5 31  1  0  0  0  0
  5 32  1  0  0  0  0
  6 22  1  0  0  0  0
  6  7  2  0  0  0  0
  7  8  1  0  0  0  0
  7 33  1  0  0  0  0
  8  9  2  0  0  0  0
  8 34  1  0  0  0  0
  9 10  1  0  0  0  0
  9 21  1  0  0  0  0
 10 11  1  0  0  0  0
 10 35  1  0  0  0  0
 11 12  2  0  0  0  0
 11 13  1  0  0  0  0
 13 14  1  0  0  0  0
 13 36  1  0  0  0  0
 14 20  1  0  0  0  0
 14 15  1  0  0  0  0
 14 37  1  0  0  0  0
 15 16  1  0  0  0  0
 15 38  1  0  0  0  0
 15 39  1  0  0  0  0
 16 17  1  0  0  0  0
 16 40  1  0  0  0  0
 16 41  1  0  0  0  0
 17 18  2  0  0  0  0
 17 19  2  0  0  0  0
 17 20  1  0  0  0  0
 20 42  1  0  0  0  0
 20 43  1  0  0  0  0
 21 22  2  0  0  0  0
 21 44  1  0  0  0  0
 22 45  1  0  0  0  0
M  CHG  1  22   1
M  END
> <s_m_source_file>
AV-unprocessed.smi

> <i_m_source_file_index>
1754

> <i_lp_mmshare_version>
43012

> <i_f3d_flags>
0

> <s_epik_input>
W0NIM11bQ0gyXU4oW0NIMl1bQ0gzXSljMVtjSF1bY0hdYyhbY0hdbjEpW05IXUMoPU8pW05IXVtDQEBIXShbQ0gyXTIpW0NIMl1bQ0gyXVMyKD1PKT1P

> <s_epik_cmdline>
J2VwaWtfcHl0aG9uJywgJy1waCcsICc3LjAnLCAnLXRuJywgJzgnLCAnLW1hJywgJzIwMCcsICctbWV0YWxfYmluZGluZycsICctaW1hZScsICc8aW5maWxlLm1hZT4nLCAnLW9tYWUnLCAnPG91dGZpbGUubWFlPic=

> <r_lp_tautomer_probability>
0.999994

> <r_epik_Ionization_Penalty>
0.271106

> <r_epik_Ionization_Penalty_Charging>
0.271085

> <r_epik_Ionization_Penalty_Neutral>
2.10634e-05

> <r_epik_State_Penalty>
0.017795

> <r_epik_Charging_Adjusted_Penalty>
0.28888

> <i_epik_Tot_Q>
1

> <i_epik_Tot_abs_Q>
1

> <r_epik_Metal_State_Penalty>
0.0544868

> <b_epik_Metal_Only>
0

> <s_lp_Force_Field>
OPLS_2005

> <r_lp_Energy>
28.7888

> <b_lp_Chiralities_Consistent>
1

> <s_lp_Variant>
AV-unprocessed.smi:1754-1

> <Gold.Version>
5.8.1

> <Gold.Id.Protein>
6NUR|6NUR_protein|mol2

> <Gold.PLP.Fitness>
47.0175

> <Gold.PLP.PLP>
-37.6219

> <Gold.PLP.part.hbond>
-5.3307

> <Gold.PLP.part.metal>
0.0000

> <Gold.PLP.part.buried>
-2.7752

> <Gold.PLP.part.nonpolar>
-30.1044

> <Gold.PLP.part.repulsive>
0.1414

> <Gold.PLP.ligand.clash>
0.0000

> <Gold.PLP.ligand.torsion>
0.9742

> <Gold.PLP.Chemscore.Hbond>
3.4900

> <Gold.PLP.Chemscore.CHOScore>
0.0000

> <Gold.PLP.Chemscore.Metal>
0.0000

> <Gold.Chemscore.Hbonds>
donor molecule, donor type, donor heavy atom, donor atom, acceptor molecule, acceptor atom, score
      L1  H    10    35       P1  7948  0.60
      L1  H    13    36       P1  7948  0.99
      P1  H  7989  7998       L1    18  0.85
      P1  H  7997  8010       L1    19  1.00

> <Gold.PLP.Chemscore.Internal.Correction>
0.8740

> <Gold.Rescore>
     Score         DG    S(hbond)    S(metal)    S(lipo)     H(rot)  DE(clash)    DE(int)     intcor
     16.27     -18.82       2.68        0.00      68.32       1.41       0.22       2.33       ----

> <Gold.Chemscore.Fitness>
16.2669

> <Gold.Chemscore.DG>
-18.8213

> <Gold.Chemscore.ZeroCoef>
-5.4800

> <Gold.Chemscore.Hbond>
2.6794

> <Gold.Chemscore.Metal>
0.0000

> <Gold.Chemscore.Lipo>
68.3243

> <Gold.Chemscore.Internal_Hbond>
0.0000

> <Gold.Chemscore.DEClash>
0.2197

> <Gold.Chemscore.DEInternal>
2.3347

> <Gold.Chemscore.Rot>
1.4070

> <Gold.Chemscore.Internal.Correction>
   9.000000E+99

> <Gold.Chemscore.Hbonds>
donor molecule, donor type, donor heavy atom, donor atom, acceptor molecule, acceptor atom, score
      L1  H    10    35       P1  7948  0.04
      L1  H    13    36       P1  7948  0.33
      P1  H  7989  7998       L1    18  0.56
      P1  H  7997  8010       L1    19  0.93

> <Gold.Chemscore.Hbond.Weighted>
-8.9493

> <Gold.Chemscore.Metal.Weighted>
-0.0000

> <Gold.Chemscore.Lipo.Weighted>
-7.9939

> <Gold.Chemscore.Internal_Hbond.Weighted>
0.0000

> <Gold.Chemscore.DEClash.Weighted>
0.2197

> <Gold.Chemscore.DEInternal.Weighted>
2.3347

> <Gold.Chemscore.Rot.Weighted>
3.6020

> <Gold.Chemscore.Internal.Correction.Weighted>
   9.000000E+99

> <Gold.Protein.RotatedTorsions>
[ 6907 6896 6895 6894 ] final -151.54 input  -60.11 | X-H torsion
[ 7974 7965 7964 7962 ] final -159.22 input  175.53 | X-H torsion
[ 8008 7997 7996 7995 ] final   53.40 input   59.86 | X-H torsion
[ 10167 10162 10161 10158 ] final  109.46 input  -65.29 | X-H torsion
[ 10718 10713 10712 10709 ] final  -56.48 input   66.30 | X-H torsion
[ 10763 10752 10751 10750 ] final -173.38 input  -60.55 | X-H torsion
[ 11005 11000 10999 10996 ] final  -38.68 input  -57.11 | X-H torsion

> <Gold.Protein.ActiveResidues>
 VAL166  LYS551  ARG553  GLY616  TRP617  ASP618  TYR619  PRO620  LYS621  CYS622 
 ASP623  PHE694  ASN695  SER759  ASP760  ASP761  ALA762  ILE779  LEU786  VAL792 
 PHE793  MET794  SER795  GLU796  ALA797  LYS798  CYS799  TRP800  GLU811  SER814 

> <Gold.Protein.RotatedAtoms>
  151.2147  133.4536  159.2598 H   0  0  0  0  0  0  0  0  0  0  0  0  # atno 6907 bound_to 6896
  151.0943  134.9935  159.8428 H   0  0  0  0  0  0  0  0  0  0  0  0  # atno 6908 bound_to 6896
  152.5437  134.2078  159.8791 H   0  0  0  0  0  0  0  0  0  0  0  0  # atno 6909 bound_to 6896
  144.7474  140.3716  143.6074 H   0  0  0  0  0  0  0  0  0  0  0  0  # atno 7974 bound_to 7965
  155.4676  140.3464  155.4321 H   0  0  0  0  0  0  0  0  0  0  0  0  # atno 8008 bound_to 7997
  156.1121  140.1463  156.9353 H   0  0  0  0  0  0  0  0  0  0  0  0  # atno 8009 bound_to 7997
  154.4763  140.0884  156.7249 H   0  0  0  0  0  0  0  0  0  0  0  0  # atno 8010 bound_to 7997
  139.6765  144.7122  151.1593 H   0  0  0  0  0  0  0  0  0  0  0  0  # atno 10167 bound_to 10162
  156.1286  130.4161  150.0310 H   0  0  0  0  0  0  0  0  0  0  0  0  # atno 10718 bound_to 10713
  154.6085  135.2862  155.0458 H   0  0  0  0  0  0  0  0  0  0  0  0  # atno 10763 bound_to 10752
  154.1697  135.6474  153.5010 H   0  0  0  0  0  0  0  0  0  0  0  0  # atno 10764 bound_to 10752
  153.0185  135.5398  154.6829 H   0  0  0  0  0  0  0  0  0  0  0  0  # atno 10765 bound_to 10752
  141.0046  133.6938  156.2086 H   0  0  0  0  0  0  0  0  0  0  0  0  # atno 11005 bound_to 11000
  145.7071  139.1675  143.2560 LP  0  0  0  0  0  0  0  0  0  0  0  0  # atno 17320 bound_to 7965
  146.1373  140.7105  142.9383 LP  0  0  0  0  0  0  0  0  0  0  0  0  # atno 17321 bound_to 7965
  140.7637  143.5764  150.8940 LP  0  0  0  0  0  0  0  0  0  0  0  0  # atno 17342 bound_to 10162
  139.9434  143.6356  152.3048 LP  0  0  0  0  0  0  0  0  0  0  0  0  # atno 17343 bound_to 10162
  156.8229  130.9365  151.3640 LP  0  0  0  0  0  0  0  0  0  0  0  0  # atno 17370 bound_to 10713
  157.6465  130.8849  149.9549 LP  0  0  0  0  0  0  0  0  0  0  0  0  # atno 17371 bound_to 10713
  140.6834  134.4743  157.5589 LP  0  0  0  0  0  0  0  0  0  0  0  0  # atno 17394 bound_to 11000
  139.9056  134.8456  156.1719 LP  0  0  0  0  0  0  0  0  0  0  0  0  # atno 17395 bound_to 11000

$$$$
