AV-unprocessed.smi:2312|AV-procd|sdf|9263|dock7
  -GOLD-   2272012483D 1   1.00000     0.00000
 Structure written by MMmdl.
 34 35  0  0  0  0  0  0  0  0  1 V2000
  153.3349  142.5590  159.9656 C   0  0  0  0  0  0  0  0  0  0  0  0
  152.4904  143.6013  160.4367 O   0  0  0  0  0  0  0  0  0  0  0  0
  151.7170  144.2765  159.4441 C   0  0  0  0  0  0  0  0  0  0  0  0
  150.8113  145.3526  160.0588 C   0  0  0  0  0  0  0  0  0  0  0  0
  149.4315  145.1696  159.6294 N   0  0  0  0  0  0  0  0  0  0  0  0
  148.4366  144.7631  160.4275 C   0  0  0  0  0  0  0  0  0  0  0  0
  148.5916  144.4841  161.6167 O   0  0  0  0  0  0  0  0  0  0  0  0
  147.2700  144.7115  159.7627 N   0  0  0  0  0  0  0  0  0  0  0  0
  145.9992  144.3209  160.2633 C   0  0  0  0  0  0  0  0  0  0  0  0
  145.7717  143.6665  161.3980 N   0  0  0  0  0  0  0  0  0  0  0  0
  144.4104  143.5729  161.3379 C   0  0  0  0  0  0  0  0  0  0  0  0
  143.8336  144.1166  160.2658 N   0  0  0  0  0  0  0  0  0  0  0  0
  144.8901  144.6030  159.5735 N   0  0  0  0  0  0  0  0  0  0  0  0
  144.7005  145.2897  158.3102 C   0  0  0  0  0  0  0  0  0  0  0  0
  152.6679  144.7051  158.3105 C   0  0  0  0  0  0  0  0  0  0  0  0
  151.6509  144.1633  157.3043 C   0  0  0  0  0  0  0  0  0  0  0  0
  151.1105  143.2835  158.4325 C   0  0  0  0  0  0  0  0  0  0  0  0
  153.9416  142.1904  160.7923 H   0  0  0  0  0  0  0  0  0  0  0  0
  154.0139  142.9041  159.1856 H   0  0  0  0  0  0  0  0  0  0  0  0
  152.7616  141.7147  159.5837 H   0  0  0  0  0  0  0  0  0  0  0  0
  150.8526  145.3019  161.1479 H   0  0  0  0  0  0  0  0  0  0  0  0
  151.1480  146.3548  159.7919 H   0  0  0  0  0  0  0  0  0  0  0  0
  149.2231  145.3817  158.6647 H   0  0  0  0  0  0  0  0  0  0  0  0
  147.2907  144.9863  158.7919 H   0  0  0  0  0  0  0  0  0  0  0  0
  143.8266  143.0880  162.1065 H   0  0  0  0  0  0  0  0  0  0  0  0
  145.0275  144.6472  157.4922 H   0  0  0  0  0  0  0  0  0  0  0  0
  145.2861  146.2092  158.2984 H   0  0  0  0  0  0  0  0  0  0  0  0
  143.6492  145.5417  158.1666 H   0  0  0  0  0  0  0  0  0  0  0  0
  152.8444  145.7787  158.2384 H   0  0  0  0  0  0  0  0  0  0  0  0
  153.6053  144.1457  158.2989 H   0  0  0  0  0  0  0  0  0  0  0  0
  150.9353  144.9182  156.9743 H   0  0  0  0  0  0  0  0  0  0  0  0
  152.0831  143.6173  156.4653 H   0  0  0  0  0  0  0  0  0  0  0  0
  151.5838  142.3002  158.4529 H   0  0  0  0  0  0  0  0  0  0  0  0
  150.0233  143.2052  158.4631 H   0  0  0  0  0  0  0  0  0  0  0  0
  1  2  1  0  0  0  0
  1 18  1  0  0  0  0
  1 19  1  0  0  0  0
  1 20  1  0  0  0  0
  2  3  1  0  0  0  0
  3 17  1  0  0  0  0
  3  4  1  0  0  0  0
  3 15  1  0  0  0  0
  4  5  1  0  0  0  0
  4 21  1  0  0  0  0
  4 22  1  0  0  0  0
  5  6  1  0  0  0  0
  5 23  1  0  0  0  0
  6  7  2  0  0  0  0
  6  8  1  0  0  0  0
  8  9  1  0  0  0  0
  8 24  1  0  0  0  0
  9 13  1  0  0  0  0
  9 10  2  0  0  0  0
 10 11  1  0  0  0  0
 11 12  2  0  0  0  0
 11 25  1  0  0  0  0
 12 13  1  0  0  0  0
 13 14  1  0  0  0  0
 14 26  1  0  0  0  0
 14 27  1  0  0  0  0
 14 28  1  0  0  0  0
 15 16  1  0  0  0  0
 15 29  1  0  0  0  0
 15 30  1  0  0  0  0
 16 17  1  0  0  0  0
 16 31  1  0  0  0  0
 16 32  1  0  0  0  0
 17 33  1  0  0  0  0
 17 34  1  0  0  0  0
M  END
> <s_m_source_file>
AV-unprocessed.smi

> <i_m_source_file_index>
2312

> <i_lp_mmshare_version>
43012

> <i_f3d_flags>
0

> <s_epik_input>
W0NIMl0xW0NIMl1bQ0gyXUMxKE9bQ0gzXSlbQ0gyXVtOSF1DKD1PKVtOSF1jMm5bY0hdbm4yW0NIM10=

> <s_epik_cmdline>
J2VwaWtfcHl0aG9uJywgJy1waCcsICc3LjAnLCAnLXRuJywgJzgnLCAnLW1hJywgJzIwMCcsICctbWV0YWxfYmluZGluZycsICctaW1hZScsICc8aW5maWxlLm1hZT4nLCAnLW9tYWUnLCAnPG91dGZpbGUubWFlPic=

> <r_lp_tautomer_probability>
1

> <r_epik_Ionization_Penalty>
2.1066e-05

> <r_epik_Ionization_Penalty_Charging>
0

> <r_epik_Ionization_Penalty_Neutral>
2.1066e-05

> <r_epik_State_Penalty>
-0

> <r_epik_Charging_Adjusted_Penalty>
0

> <i_epik_Tot_Q>
0

> <i_epik_Tot_abs_Q>
0

> <r_epik_Metal_State_Penalty>
-0

> <b_epik_Metal_Only>
0

> <s_lp_Force_Field>
OPLS_2005

> <r_lp_Energy>
16.1455

> <b_lp_Chiralities_Consistent>
1

> <s_lp_Variant>
AV-unprocessed.smi:2312-1

> <Gold.Version>
5.8.1

> <Gold.Id.Protein>
6NUR|6NUR_protein|mol2

> <Gold.PLP.Fitness>
41.3119

> <Gold.PLP.PLP>
-35.3704

> <Gold.PLP.part.hbond>
-3.0000

> <Gold.PLP.part.metal>
0.0000

> <Gold.PLP.part.buried>
-7.0780

> <Gold.PLP.part.nonpolar>
-26.7823

> <Gold.PLP.part.repulsive>
0.6913

> <Gold.PLP.ligand.clash>
0.0000

> <Gold.PLP.ligand.torsion>
1.2559

> <Gold.PLP.Chemscore.Hbond>
2.7296

> <Gold.PLP.Chemscore.CHOScore>
0.0000

> <Gold.PLP.Chemscore.Metal>
0.0000

> <Gold.Chemscore.Hbonds>
donor molecule, donor type, donor heavy atom, donor atom, acceptor molecule, acceptor atom, score
      L1  H     5    23       P1  8029  0.99
      L1  H     8    24       P1  8029  1.00
      P1  H  6933  6944       L1     7  0.57

> <Gold.PLP.Chemscore.Internal.Correction>
0.2647

> <Gold.Rescore>
     Score         DG    S(hbond)    S(metal)    S(lipo)     H(rot)  DE(clash)    DE(int)     intcor
     16.68     -19.15       2.84        0.00      72.97       1.71       0.01       2.45       ----

> <Gold.Chemscore.Fitness>
16.6812

> <Gold.Chemscore.DG>
-19.1477

> <Gold.Chemscore.ZeroCoef>
-5.4800

> <Gold.Chemscore.Hbond>
2.8436

> <Gold.Chemscore.Metal>
0.0000

> <Gold.Chemscore.Lipo>
72.9679

> <Gold.Chemscore.Internal_Hbond>
0.0000

> <Gold.Chemscore.DEClash>
0.0144

> <Gold.Chemscore.DEInternal>
2.4521

> <Gold.Chemscore.Rot>
1.7059

> <Gold.Chemscore.Internal.Correction>
   9.000000E+99

> <Gold.Chemscore.Hbonds>
donor molecule, donor type, donor heavy atom, donor atom, acceptor molecule, acceptor atom, score
      L1  H     5    23       P1  8029  0.89
      L1  H     8    24       P1  8029  0.99
      P1  H  6933  6944       L1     7  0.13

> <Gold.Chemscore.Hbond.Weighted>
-9.4975

> <Gold.Chemscore.Metal.Weighted>
-0.0000

> <Gold.Chemscore.Lipo.Weighted>
-8.5372

> <Gold.Chemscore.Internal_Hbond.Weighted>
0.0000

> <Gold.Chemscore.DEClash.Weighted>
0.0144

> <Gold.Chemscore.DEInternal.Weighted>
2.4521

> <Gold.Chemscore.Rot.Weighted>
4.3670

> <Gold.Chemscore.Internal.Correction.Weighted>
   9.000000E+99

> <Gold.Protein.RotatedTorsions>
[ 6907 6896 6895 6894 ] final  -83.50 input  -60.11 | X-H torsion
[ 7974 7965 7964 7962 ] final  150.17 input  175.53 | X-H torsion
[ 8008 7997 7996 7995 ] final   36.28 input   59.86 | X-H torsion
[ 10167 10162 10161 10158 ] final   99.26 input  -65.29 | X-H torsion
[ 10718 10713 10712 10709 ] final -109.87 input   66.30 | X-H torsion
[ 10763 10752 10751 10750 ] final  176.11 input  -60.55 | X-H torsion
[ 11005 11000 10999 10996 ] final   -1.24 input  -57.11 | X-H torsion

> <Gold.Protein.ActiveResidues>
 VAL166  LYS551  ARG553  GLY616  TRP617  ASP618  TYR619  PRO620  LYS621  CYS622 
 ASP623  PHE694  ASN695  SER759  ASP760  ASP761  ALA762  ILE779  LEU786  VAL792 
 PHE793  MET794  SER795  GLU796  ALA797  LYS798  CYS799  TRP800  GLU811  SER814 

> <Gold.Protein.RotatedAtoms>
  150.6885  134.3502  159.4905 H   0  0  0  0  0  0  0  0  0  0  0  0  # atno 6907 bound_to 6896
  152.1344  134.9108  160.0566 H   0  0  0  0  0  0  0  0  0  0  0  0  # atno 6908 bound_to 6896
  152.0265  133.3885  159.4316 H   0  0  0  0  0  0  0  0  0  0  0  0  # atno 6909 bound_to 6896
  144.8383  139.6374  143.6028 H   0  0  0  0  0  0  0  0  0  0  0  0  # atno 7974 bound_to 7965
  155.1848  140.3303  155.4368 H   0  0  0  0  0  0  0  0  0  0  0  0  # atno 8008 bound_to 7997
  156.2463  140.1920  156.6895 H   0  0  0  0  0  0  0  0  0  0  0  0  # atno 8009 bound_to 7997
  154.6246  140.0591  156.9643 H   0  0  0  0  0  0  0  0  0  0  0  0  # atno 8010 bound_to 7997
  139.7633  144.6947  151.0260 H   0  0  0  0  0  0  0  0  0  0  0  0  # atno 10167 bound_to 10162
  156.0560  130.5786  150.8160 H   0  0  0  0  0  0  0  0  0  0  0  0  # atno 10718 bound_to 10713
  154.4767  135.2773  155.1602 H   0  0  0  0  0  0  0  0  0  0  0  0  # atno 10763 bound_to 10752
  154.3329  135.6186  153.5563 H   0  0  0  0  0  0  0  0  0  0  0  0  # atno 10764 bound_to 10752
  152.9870  135.5770  154.5159 H   0  0  0  0  0  0  0  0  0  0  0  0  # atno 10765 bound_to 10752
  140.6452  133.9454  155.8348 H   0  0  0  0  0  0  0  0  0  0  0  0  # atno 11005 bound_to 11000
  146.2679  139.6565  142.9316 LP  0  0  0  0  0  0  0  0  0  0  0  0  # atno 17320 bound_to 7965
  145.4747  141.0437  143.2679 LP  0  0  0  0  0  0  0  0  0  0  0  0  # atno 17321 bound_to 7965
  140.7809  143.4671  151.0197 LP  0  0  0  0  0  0  0  0  0  0  0  0  # atno 17342 bound_to 10162
  139.8357  143.7631  152.3180 LP  0  0  0  0  0  0  0  0  0  0  0  0  # atno 17343 bound_to 10162
  157.5530  131.0944  150.9668 LP  0  0  0  0  0  0  0  0  0  0  0  0  # atno 17370 bound_to 10713
  156.9923  130.5568  149.5304 LP  0  0  0  0  0  0  0  0  0  0  0  0  # atno 17371 bound_to 10713
  141.0577  134.0391  157.3700 LP  0  0  0  0  0  0  0  0  0  0  0  0  # atno 17394 bound_to 11000
  139.9065  135.0181  156.7510 LP  0  0  0  0  0  0  0  0  0  0  0  0  # atno 17395 bound_to 11000

$$$$
