AV-unprocessed.smi:248|AV-procd|sdf|1896|dock10
  -GOLD-   2262020563D 1   1.00000     0.00000
 Structure written by MMmdl.
 62 65  0  0  0  0  0  0  0  0  1 V2000
  152.8813  143.9072  159.3551 C   0  0  0  0  0  0  0  0  0  0  0  0
  152.4771  142.5428  159.9333 C   0  0  0  0  0  0  0  0  0  0  0  0
  153.0289  142.3843  161.3605 C   0  0  0  0  0  0  0  0  0  0  0  0
  152.8986  141.4036  158.9741 C   0  0  0  0  0  0  0  0  0  0  0  0
  151.9226  141.1521  157.9032 N   0  0  0  0  0  0  0  0  0  0  0  0
  151.0661  142.3005  157.5837 C   0  0  0  0  0  0  0  0  0  0  0  0
  149.7648  141.8889  156.8898 C   0  0  0  0  0  0  0  0  0  0  0  0
  150.0737  141.0104  155.7723 N   0  0  0  0  0  0  0  0  0  0  0  0
  149.0177  140.8464  154.9433 C   0  0  0  0  0  0  0  0  0  0  0  0
  148.5396  141.9022  154.2344 N   0  0  0  0  0  0  0  0  0  0  0  0
  147.5038  141.7329  153.4072 C   0  0  0  0  0  0  0  0  0  0  0  0
  146.8158  140.6185  153.1479 N   0  0  0  0  0  0  0  0  0  0  0  0
  147.2925  139.5597  153.8639 C   0  0  0  0  0  0  0  0  0  0  0  0
  148.3866  139.5872  154.7726 C   0  0  0  0  0  0  0  0  0  0  0  0
  148.5976  138.3237  155.3070 N   0  0  0  0  0  0  0  0  0  0  0  0
  147.6798  137.5873  154.7425 C   0  0  0  0  0  0  0  0  0  0  0  0
  146.8394  138.2507  153.8745 N   0  0  0  0  0  0  0  0  0  0  0  0
  145.7428  137.6701  153.1099 C   0  0  0  0  0  0  0  0  0  0  0  0
  144.6718  136.9046  153.9512 C   0  0  0  0  0  0  0  0  0  0  0  0
  144.2785  137.7782  155.1758 C   0  0  0  0  0  0  0  0  0  0  0  0
  143.4728  138.8911  154.8405 O   0  0  0  0  0  0  0  0  0  0  0  0
  143.4087  136.5763  153.1134 C   0  0  0  0  0  0  0  0  0  0  0  0
  143.6752  135.5078  152.0366 C   0  0  0  0  0  0  0  0  0  0  0  0
  144.1922  134.3282  152.6398 O   0  0  0  0  0  0  0  0  0  0  0  0
  145.4412  134.5398  153.2859 C   0  0  0  0  0  0  0  0  0  0  0  0
  145.2763  135.5580  154.4294 C   0  0  0  0  0  0  0  0  0  0  0  0
  150.8276  139.7912  156.0953 C   0  0  1  0  0  0  0  0  0  0  0  0
  151.4569  139.1962  154.8153 C   0  0  0  0  0  0  0  0  0  0  0  0
  151.8904  139.9886  157.2047 C   0  0  0  0  0  0  0  0  0  0  0  0
  152.6619  139.0587  157.4460 O   0  0  0  0  0  0  0  0  0  0  0  0
  153.9639  143.9902  159.2565 H   0  0  0  0  0  0  0  0  0  0  0  0
  152.5421  144.7229  159.9943 H   0  0  0  0  0  0  0  0  0  0  0  0
  152.4443  144.0621  158.3682 H   0  0  0  0  0  0  0  0  0  0  0  0
  151.3888  142.5363  160.0044 H   0  0  0  0  0  0  0  0  0  0  0  0
  154.1176  142.3224  161.3593 H   0  0  0  0  0  0  0  0  0  0  0  0
  152.6415  141.4875  161.8436 H   0  0  0  0  0  0  0  0  0  0  0  0
  152.7453  143.2306  161.9864 H   0  0  0  0  0  0  0  0  0  0  0  0
  153.8569  141.6545  158.5164 H   0  0  0  0  0  0  0  0  0  0  0  0
  153.0934  140.4935  159.5439 H   0  0  0  0  0  0  0  0  0  0  0  0
  150.8307  142.8647  158.4869 H   0  0  0  0  0  0  0  0  0  0  0  0
  151.6302  142.9718  156.9347 H   0  0  0  0  0  0  0  0  0  0  0  0
  149.1128  141.3712  157.5958 H   0  0  0  0  0  0  0  0  0  0  0  0
  149.2304  142.7778  156.5495 H   0  0  0  0  0  0  0  0  0  0  0  0
  147.1801  142.6160  152.8760 H   0  0  0  0  0  0  0  0  0  0  0  0
  147.5855  136.5315  154.9510 H   0  0  0  0  0  0  0  0  0  0  0  0
  145.2931  138.4706  152.5244 H   0  0  0  0  0  0  0  0  0  0  0  0
  146.1818  136.9914  152.3771 H   0  0  0  0  0  0  0  0  0  0  0  0
  143.7378  137.1803  155.9104 H   0  0  0  0  0  0  0  0  0  0  0  0
  145.1655  138.1682  155.6747 H   0  0  0  0  0  0  0  0  0  0  0  0
  143.7739  139.2438  154.0172 H   0  0  0  0  0  0  0  0  0  0  0  0
  142.6232  136.1919  153.7648 H   0  0  0  0  0  0  0  0  0  0  0  0
  142.9946  137.4759  152.6594 H   0  0  0  0  0  0  0  0  0  0  0  0
  142.7452  135.2571  151.5266 H   0  0  0  0  0  0  0  0  0  0  0  0
  144.3619  135.8664  151.2701 H   0  0  0  0  0  0  0  0  0  0  0  0
  145.7876  133.5877  153.6882 H   0  0  0  0  0  0  0  0  0  0  0  0
  146.1914  134.8596  152.5624 H   0  0  0  0  0  0  0  0  0  0  0  0
  146.2347  135.7234  154.9225 H   0  0  0  0  0  0  0  0  0  0  0  0
  144.6314  135.0977  155.1781 H   0  0  0  0  0  0  0  0  0  0  0  0
  150.1297  139.0560  156.4993 H   0  0  0  0  0  0  0  0  0  0  0  0
  152.0326  138.2947  155.0275 H   0  0  0  0  0  0  0  0  0  0  0  0
  152.1260  139.9119  154.3361 H   0  0  0  0  0  0  0  0  0  0  0  0
  150.6976  138.9136  154.0857 H   0  0  0  0  0  0  0  0  0  0  0  0
  1  2  1  0  0  0  0
  1 31  1  0  0  0  0
  1 32  1  0  0  0  0
  1 33  1  0  0  0  0
  2  3  1  0  0  0  0
  2  4  1  0  0  0  0
  2 34  1  0  0  0  0
  3 35  1  0  0  0  0
  3 36  1  0  0  0  0
  3 37  1  0  0  0  0
  4  5  1  0  0  0  0
  4 38  1  0  0  0  0
  4 39  1  0  0  0  0
  5 29  1  0  0  0  0
  5  6  1  0  0  0  0
  6  7  1  0  0  0  0
  6 40  1  0  0  0  0
  6 41  1  0  0  0  0
  7  8  1  0  0  0  0
  7 42  1  0  0  0  0
  7 43  1  0  0  0  0
  8  9  1  0  0  0  0
  8 27  1  0  0  0  0
  9 14  1  0  0  0  0
  9 10  2  0  0  0  0
 10 11  1  0  0  0  0
 11 12  2  0  0  0  0
 11 44  1  0  0  0  0
 12 13  1  0  0  0  0
 13 17  1  0  0  0  0
 13 14  2  0  0  0  0
 14 15  1  0  0  0  0
 15 16  2  0  0  0  0
 16 17  1  0  0  0  0
 16 45  1  0  0  0  0
 17 18  1  0  0  0  0
 18 19  1  0  0  0  0
 18 46  1  0  0  0  0
 18 47  1  0  0  0  0
 19 26  1  0  0  0  0
 19 20  1  0  0  0  0
 19 22  1  0  0  0  0
 20 21  1  0  0  0  0
 20 48  1  0  0  0  0
 20 49  1  0  0  0  0
 21 50  1  0  0  0  0
 22 23  1  0  0  0  0
 22 51  1  0  0  0  0
 22 52  1  0  0  0  0
 23 24  1  0  0  0  0
 23 53  1  0  0  0  0
 23 54  1  0  0  0  0
 24 25  1  0  0  0  0
 25 26  1  0  0  0  0
 25 55  1  0  0  0  0
 25 56  1  0  0  0  0
 26 57  1  0  0  0  0
 26 58  1  0  0  0  0
 27 28  1  0  0  0  0
 27 29  1  0  0  0  0
 27 59  1  0  0  0  0
 28 60  1  0  0  0  0
 28 61  1  0  0  0  0
 28 62  1  0  0  0  0
 29 30  2  0  0  0  0
M  END
> <s_m_source_file>
AV-unprocessed.smi

> <i_m_source_file_index>
248

> <i_lp_mmshare_version>
43012

> <i_f3d_flags>
0

> <s_epik_input>
W0NIM11bQ0hdKFtDSDNdKVtDSDJdTjFbQ0gyXVtDSDJdTihbQ0BASF0oW0NIM10pQzE9TyljKG5bY0hdbjIpYyhjMjMpbltjSF1uM1tDSDJdQzQoW0NIMl1bT0hdKVtDSDJdW0NIMl1PW0NIMl1bQ0gyXTQ=

> <s_epik_cmdline>
J2VwaWtfcHl0aG9uJywgJy1waCcsICc3LjAnLCAnLXRuJywgJzgnLCAnLW1hJywgJzIwMCcsICctbWV0YWxfYmluZGluZycsICctaW1hZScsICc8aW5maWxlLm1hZT4nLCAnLW9tYWUnLCAnPG91dGZpbGUubWFlPic=

> <r_lp_tautomer_probability>
1

> <r_epik_Ionization_Penalty>
0.000593973

> <r_epik_Ionization_Penalty_Charging>
0

> <r_epik_Ionization_Penalty_Neutral>
0.000593973

> <r_epik_State_Penalty>
0.000283267

> <r_epik_Charging_Adjusted_Penalty>
0.000283267

> <i_epik_Tot_Q>
0

> <i_epik_Tot_abs_Q>
0

> <r_epik_Metal_State_Penalty>
-0

> <b_epik_Metal_Only>
0

> <s_lp_Force_Field>
OPLS_2005

> <r_lp_Energy>
46.1111

> <b_lp_Chiralities_Consistent>
1

> <s_lp_Variant>
AV-unprocessed.smi:248-1

> <Gold.Version>
5.8.1

> <Gold.Id.Protein>
6NUR|6NUR_protein|mol2

> <Gold.PLP.Fitness>
46.8091

> <Gold.PLP.PLP>
-42.7409

> <Gold.PLP.part.hbond>
-3.0000

> <Gold.PLP.part.metal>
0.0000

> <Gold.PLP.part.buried>
-5.3737

> <Gold.PLP.part.nonpolar>
-35.9330

> <Gold.PLP.part.repulsive>
0.9682

> <Gold.PLP.ligand.clash>
0.0000

> <Gold.PLP.ligand.torsion>
1.2134

> <Gold.PLP.Chemscore.Hbond>
2.0294

> <Gold.PLP.Chemscore.CHOScore>
0.0000

> <Gold.PLP.Chemscore.Metal>
0.0000

> <Gold.Chemscore.Hbonds>
donor molecule, donor type, donor heavy atom, donor atom, acceptor molecule, acceptor atom, score
      L1  H    21    50       P1 10175  1.00
      P1  H  7997  8010       L1    30  0.63
      P1  H  8011  8017       L1    10  0.04

> <Gold.PLP.Chemscore.Internal.Correction>
0.4068

> <Gold.Rescore>
     Score         DG    S(hbond)    S(metal)    S(lipo)     H(rot)  DE(clash)    DE(int)     intcor
     10.53     -16.00       1.83        0.00      98.05       2.75       3.00       2.47       ----

> <Gold.Chemscore.Fitness>
10.5261

> <Gold.Chemscore.DG>
-16.0027

> <Gold.Chemscore.ZeroCoef>
-5.4800

> <Gold.Chemscore.Hbond>
1.8254

> <Gold.Chemscore.Metal>
0.0000

> <Gold.Chemscore.Lipo>
98.0501

> <Gold.Chemscore.Internal_Hbond>
0.0000

> <Gold.Chemscore.DEClash>
3.0045

> <Gold.Chemscore.DEInternal>
2.4720

> <Gold.Chemscore.Rot>
2.7523

> <Gold.Chemscore.Internal.Correction>
   9.000000E+99

> <Gold.Chemscore.Hbonds>
donor molecule, donor type, donor heavy atom, donor atom, acceptor molecule, acceptor atom, score
      L1  H    21    50       P1 10175  0.96
      P1  H  7997  8010       L1    30  0.12

> <Gold.Chemscore.Hbond.Weighted>
-6.0968

> <Gold.Chemscore.Metal.Weighted>
-0.0000

> <Gold.Chemscore.Lipo.Weighted>
-11.4719

> <Gold.Chemscore.Internal_Hbond.Weighted>
0.0000

> <Gold.Chemscore.DEClash.Weighted>
3.0045

> <Gold.Chemscore.DEInternal.Weighted>
2.4720

> <Gold.Chemscore.Rot.Weighted>
7.0459

> <Gold.Chemscore.Internal.Correction.Weighted>
   9.000000E+99

> <Gold.Protein.RotatedTorsions>
[ 6907 6896 6895 6894 ] final  -22.40 input  -60.11 | X-H torsion
[ 7974 7965 7964 7962 ] final   58.87 input  175.53 | X-H torsion
[ 8008 7997 7996 7995 ] final   43.63 input   59.86 | X-H torsion
[ 10167 10162 10161 10158 ] final  -70.37 input  -65.29 | X-H torsion
[ 10718 10713 10712 10709 ] final  -33.54 input   66.30 | X-H torsion
[ 10763 10752 10751 10750 ] final  168.81 input  -60.55 | X-H torsion
[ 11005 11000 10999 10996 ] final -175.95 input  -57.11 | X-H torsion

> <Gold.Protein.ActiveResidues>
 VAL166  LYS551  ARG553  GLY616  TRP617  ASP618  TYR619  PRO620  LYS621  CYS622 
 ASP623  PHE694  ASN695  SER759  ASP760  ASP761  ALA762  ILE779  LEU786  VAL792 
 PHE793  MET794  SER795  GLU796  ALA797  LYS798  CYS799  TRP800  GLU811  SER814 

> <Gold.Protein.RotatedAtoms>
  151.2192  135.0512  159.8942 H   0  0  0  0  0  0  0  0  0  0  0  0  # atno 6907 bound_to 6896
  152.5417  134.0659  159.8183 H   0  0  0  0  0  0  0  0  0  0  0  0  # atno 6908 bound_to 6896
  151.0823  133.5332  159.2651 H   0  0  0  0  0  0  0  0  0  0  0  0  # atno 6909 bound_to 6896
  145.9134  139.3672  143.0522 H   0  0  0  0  0  0  0  0  0  0  0  0  # atno 7974 bound_to 7965
  155.3060  140.3388  155.4245 H   0  0  0  0  0  0  0  0  0  0  0  0  # atno 8008 bound_to 7997
  156.1979  140.1721  156.7999 H   0  0  0  0  0  0  0  0  0  0  0  0  # atno 8009 bound_to 7997
  154.5521  140.0703  156.8669 H   0  0  0  0  0  0  0  0  0  0  0  0  # atno 8010 bound_to 7997
  140.5358  143.2318  151.7180 H   0  0  0  0  0  0  0  0  0  0  0  0  # atno 10167 bound_to 10162
  156.3614  130.4324  149.7621 H   0  0  0  0  0  0  0  0  0  0  0  0  # atno 10718 bound_to 10713
  154.3740  135.2753  155.2250 H   0  0  0  0  0  0  0  0  0  0  0  0  # atno 10763 bound_to 10752
  154.4385  135.5960  153.6117 H   0  0  0  0  0  0  0  0  0  0  0  0  # atno 10764 bound_to 10752
  152.9837  135.6013  154.3975 H   0  0  0  0  0  0  0  0  0  0  0  0  # atno 10765 bound_to 10752
  140.4576  134.6285  157.4828 H   0  0  0  0  0  0  0  0  0  0  0  0  # atno 11005 bound_to 11000
  145.8643  140.9457  143.0684 LP  0  0  0  0  0  0  0  0  0  0  0  0  # atno 17320 bound_to 7965
  144.6745  140.0571  143.7477 LP  0  0  0  0  0  0  0  0  0  0  0  0  # atno 17321 bound_to 7965
  139.4970  144.4045  152.0146 LP  0  0  0  0  0  0  0  0  0  0  0  0  # atno 17342 bound_to 10162
  140.3151  144.3493  150.6024 LP  0  0  0  0  0  0  0  0  0  0  0  0  # atno 17343 bound_to 10162
  156.4783  130.8029  151.3044 LP  0  0  0  0  0  0  0  0  0  0  0  0  # atno 17370 bound_to 10713
  157.7474  131.0014  150.2961 LP  0  0  0  0  0  0  0  0  0  0  0  0  # atno 17371 bound_to 10713
  139.9966  134.6901  155.9599 LP  0  0  0  0  0  0  0  0  0  0  0  0  # atno 17394 bound_to 11000
  141.1636  133.6537  156.4402 LP  0  0  0  0  0  0  0  0  0  0  0  0  # atno 17395 bound_to 11000

$$$$
