AV-unprocessed.smi:632|AV-procd|sdf|3127|dock4
  -GOLD-   22720 0 53D 1   1.00000     0.00000
 Structure written by MMmdl.
 42 43  0  0  0  0  0  0  0  0  1 V2000
  157.0643  134.1310  160.3104 C   0  0  0  0  0  0  0  0  0  0  0  0
  155.5351  133.9979  160.4472 C   0  0  0  0  0  0  0  0  0  0  0  0
  155.0423  133.0803  159.3067 C   0  0  0  0  0  0  0  0  0  0  0  0
  155.1675  133.3170  161.7802 C   0  0  0  0  0  0  0  0  0  0  0  0
  154.8936  135.3642  160.3750 C   0  0  0  0  0  0  0  0  0  0  0  0
  154.0031  135.6790  159.4220 N   0  0  0  0  0  0  0  0  0  0  0  0
  153.5299  136.9777  159.5343 N   0  0  0  0  0  0  0  0  0  0  0  0
  154.0726  137.6193  160.5762 C   0  0  0  0  0  0  0  0  0  0  0  0
  153.7600  138.9592  160.9285 N   0  0  0  0  0  0  0  0  0  0  0  0
  153.7121  140.0407  160.1308 C   0  0  0  0  0  0  0  0  0  0  0  0
  153.9650  140.0481  158.9256 O   0  0  0  0  0  0  0  0  0  0  0  0
  153.3490  141.1343  160.8170 N   0  0  0  0  0  0  0  0  0  0  0  0
  153.1818  142.4680  160.2469 C   0  0  2  0  0  0  0  0  0  0  0  0
  152.4258  143.3883  161.2253 C   0  0  0  0  0  0  0  0  0  0  0  0
  152.1983  144.7848  160.6203 C   0  0  0  0  0  0  0  0  0  0  0  0
  151.4933  144.7232  159.2515 C   0  0  2  0  0  0  0  0  0  0  0  0
  150.1459  144.3280  159.4176 O   0  0  0  0  0  0  0  0  0  0  0  0
  152.2102  143.7610  158.2850 C   0  0  0  0  0  0  0  0  0  0  0  0
  152.4334  142.3704  158.9053 C   0  0  0  0  0  0  0  0  0  0  0  0
  155.2195  136.6790  161.5117 S   0  0  0  0  0  0  0  0  0  0  0  0
  157.5539  133.1572  160.3455 H   0  0  0  0  0  0  0  0  0  0  0  0
  157.4869  134.7342  161.1149 H   0  0  0  0  0  0  0  0  0  0  0  0
  157.3385  134.6041  159.3668 H   0  0  0  0  0  0  0  0  0  0  0  0
  155.2858  133.4895  158.3254 H   0  0  0  0  0  0  0  0  0  0  0  0
  153.9628  132.9303  159.3479 H   0  0  0  0  0  0  0  0  0  0  0  0
  155.5047  132.0942  159.3654 H   0  0  0  0  0  0  0  0  0  0  0  0
  155.6028  132.3198  161.8514 H   0  0  0  0  0  0  0  0  0  0  0  0
  154.0871  133.2136  161.8881 H   0  0  0  0  0  0  0  0  0  0  0  0
  155.5298  133.8886  162.6354 H   0  0  0  0  0  0  0  0  0  0  0  0
  153.5342  139.1093  161.9005 H   0  0  0  0  0  0  0  0  0  0  0  0
  153.1687  141.0383  161.8057 H   0  0  0  0  0  0  0  0  0  0  0  0
  154.1668  142.8960  160.0508 H   0  0  0  0  0  0  0  0  0  0  0  0
  151.4648  142.9427  161.4866 H   0  0  0  0  0  0  0  0  0  0  0  0
  152.9830  143.4848  162.1580 H   0  0  0  0  0  0  0  0  0  0  0  0
  151.6282  145.4055  161.3126 H   0  0  0  0  0  0  0  0  0  0  0  0
  153.1647  145.2760  160.4995 H   0  0  0  0  0  0  0  0  0  0  0  0
  151.4788  145.7220  158.8144 H   0  0  0  0  0  0  0  0  0  0  0  0
  149.9469  144.3205  160.3414 H   0  0  0  0  0  0  0  0  0  0  0  0
  151.6496  143.6715  157.3537 H   0  0  0  0  0  0  0  0  0  0  0  0
  153.1785  144.1851  158.0159 H   0  0  0  0  0  0  0  0  0  0  0  0
  152.9955  141.7470  158.2086 H   0  0  0  0  0  0  0  0  0  0  0  0
  151.4713  141.8772  159.0516 H   0  0  0  0  0  0  0  0  0  0  0  0
  1  2  1  0  0  0  0
  1 21  1  0  0  0  0
  1 22  1  0  0  0  0
  1 23  1  0  0  0  0
  2  3  1  0  0  0  0
  2  4  1  0  0  0  0
  2  5  1  0  0  0  0
  3 24  1  0  0  0  0
  3 25  1  0  0  0  0
  3 26  1  0  0  0  0
  4 27  1  0  0  0  0
  4 28  1  0  0  0  0
  4 29  1  0  0  0  0
  5 20  1  0  0  0  0
  5  6  2  0  0  0  0
  6  7  1  0  0  0  0
  7  8  2  0  0  0  0
  8  9  1  0  0  0  0
  8 20  1  0  0  0  0
  9 10  1  0  0  0  0
  9 30  1  0  0  0  0
 10 11  2  0  0  0  0
 10 12  1  0  0  0  0
 12 13  1  0  0  0  0
 12 31  1  0  0  0  0
 13 19  1  0  0  0  0
 13 14  1  0  0  0  0
 13 32  1  0  0  0  0
 14 15  1  0  0  0  0
 14 33  1  0  0  0  0
 14 34  1  0  0  0  0
 15 16  1  0  0  0  0
 15 35  1  0  0  0  0
 15 36  1  0  0  0  0
 16 17  1  0  0  0  0
 16 18  1  0  0  0  0
 16 37  1  0  0  0  0
 17 38  1  0  0  0  0
 18 19  1  0  0  0  0
 18 39  1  0  0  0  0
 18 40  1  0  0  0  0
 19 41  1  0  0  0  0
 19 42  1  0  0  0  0
M  END
> <s_m_source_file>
AV-unprocessed.smi

> <i_m_source_file_index>
632

> <i_lp_mmshare_version>
43012

> <i_f3d_flags>
0

> <s_epik_input>
W0NIM11DKFtDSDNdKShbQ0gzXSljMW5uYyhzMSlbTkhdQyg9TylbTkhdW0NAQEhdMltDSDJdW0NIMl1bQ0BASF0oW09IXSlbQ0gyXVtDSDJdMg==

> <s_epik_cmdline>
J2VwaWtfcHl0aG9uJywgJy1waCcsICc3LjAnLCAnLXRuJywgJzgnLCAnLW1hJywgJzIwMCcsICctbWV0YWxfYmluZGluZycsICctaW1hZScsICc8aW5maWxlLm1hZT4nLCAnLW9tYWUnLCAnPG91dGZpbGUubWFlPic=

> <r_lp_tautomer_probability>
1

> <r_epik_Ionization_Penalty>
0.000349475

> <r_epik_Ionization_Penalty_Charging>
0

> <r_epik_Ionization_Penalty_Neutral>
0.000349475

> <r_epik_State_Penalty>
-0

> <r_epik_Charging_Adjusted_Penalty>
0

> <i_epik_Tot_Q>
0

> <i_epik_Tot_abs_Q>
0

> <r_epik_Metal_State_Penalty>
0.179207

> <b_epik_Metal_Only>
0

> <s_lp_Force_Field>
OPLS_2005

> <r_lp_Energy>
4.89168

> <b_lp_Chiralities_Consistent>
1

> <s_lp_Variant>
AV-unprocessed.smi:632-2

> <Gold.Version>
5.8.1

> <Gold.Id.Protein>
6NUR|6NUR_protein|mol2

> <Gold.PLP.Fitness>
38.2927

> <Gold.PLP.PLP>
-33.5189

> <Gold.PLP.part.hbond>
-2.0000

> <Gold.PLP.part.metal>
0.0000

> <Gold.PLP.part.buried>
-4.7834

> <Gold.PLP.part.nonpolar>
-26.5468

> <Gold.PLP.part.repulsive>
0.0988

> <Gold.PLP.ligand.clash>
0.0000

> <Gold.PLP.ligand.torsion>
0.6168

> <Gold.PLP.Chemscore.Hbond>
2.0000

> <Gold.PLP.Chemscore.CHOScore>
0.0000

> <Gold.PLP.Chemscore.Metal>
0.0000

> <Gold.Chemscore.Hbonds>
donor molecule, donor type, donor heavy atom, donor atom, acceptor molecule, acceptor atom, score
      P1  H  6896  6909       L1     6  1.00
      P1  H  7997  8009       L1    11  1.00

> <Gold.PLP.Chemscore.Internal.Correction>
0.0074

> <Gold.Rescore>
     Score         DG    S(hbond)    S(metal)    S(lipo)     H(rot)  DE(clash)    DE(int)     intcor
     16.81     -18.41       1.87        0.00      94.31       1.70       0.07       1.53       ----

> <Gold.Chemscore.Fitness>
16.8062

> <Gold.Chemscore.DG>
-18.4093

> <Gold.Chemscore.ZeroCoef>
-5.4800

> <Gold.Chemscore.Hbond>
1.8681

> <Gold.Chemscore.Metal>
0.0000

> <Gold.Chemscore.Lipo>
94.3052

> <Gold.Chemscore.Internal_Hbond>
0.0000

> <Gold.Chemscore.DEClash>
0.0718

> <Gold.Chemscore.DEInternal>
1.5314

> <Gold.Chemscore.Rot>
1.6968

> <Gold.Chemscore.Internal.Correction>
   9.000000E+99

> <Gold.Chemscore.Hbonds>
donor molecule, donor type, donor heavy atom, donor atom, acceptor molecule, acceptor atom, score
      P1  H  6896  6909       L1     6  0.14
      P1  H  7997  8009       L1    11  0.94

> <Gold.Chemscore.Hbond.Weighted>
-6.2395

> <Gold.Chemscore.Metal.Weighted>
-0.0000

> <Gold.Chemscore.Lipo.Weighted>
-11.0337

> <Gold.Chemscore.Internal_Hbond.Weighted>
0.0000

> <Gold.Chemscore.DEClash.Weighted>
0.0718

> <Gold.Chemscore.DEInternal.Weighted>
1.5314

> <Gold.Chemscore.Rot.Weighted>
4.3438

> <Gold.Chemscore.Internal.Correction.Weighted>
   9.000000E+99

> <Gold.Protein.RotatedTorsions>
[ 6907 6896 6895 6894 ] final -169.27 input  -60.11 | X-H torsion
[ 7974 7965 7964 7962 ] final   43.76 input  175.53 | X-H torsion
[ 8008 7997 7996 7995 ] final  129.47 input   59.86 | X-H torsion
[ 10167 10162 10161 10158 ] final  -84.34 input  -65.29 | X-H torsion
[ 10718 10713 10712 10709 ] final  -25.42 input   66.30 | X-H torsion
[ 10763 10752 10751 10750 ] final  167.07 input  -60.55 | X-H torsion
[ 11005 11000 10999 10996 ] final   49.63 input  -57.11 | X-H torsion

> <Gold.Protein.ActiveResidues>
 VAL166  LYS551  ARG553  GLY616  TRP617  ASP618  TYR619  PRO620  LYS621  CYS622 
 ASP623  PHE694  ASN695  SER759  ASP760  ASP761  ALA762  ILE779  LEU786  VAL792 
 PHE793  MET794  SER795  GLU796  ALA797  LYS798  CYS799  TRP800  GLU811  SER814 

> <Gold.Protein.RotatedAtoms>
  151.4890  133.3529  159.2850 H   0  0  0  0  0  0  0  0  0  0  0  0  # atno 6907 bound_to 6896
  150.8847  134.8245  159.7261 H   0  0  0  0  0  0  0  0  0  0  0  0  # atno 6908 bound_to 6896
  152.4785  134.4792  159.9712 H   0  0  0  0  0  0  0  0  0  0  0  0  # atno 6909 bound_to 6896
  146.0627  139.5150  142.9648 H   0  0  0  0  0  0  0  0  0  0  0  0  # atno 7974 bound_to 7965
  156.2937  140.2619  156.2605 H   0  0  0  0  0  0  0  0  0  0  0  0  # atno 8008 bound_to 7997
  154.9794  140.0390  157.2289 H   0  0  0  0  0  0  0  0  0  0  0  0  # atno 8009 bound_to 7997
  154.7786  140.2791  155.6086 H   0  0  0  0  0  0  0  0  0  0  0  0  # atno 8010 bound_to 7997
  140.4141  143.2610  151.8978 H   0  0  0  0  0  0  0  0  0  0  0  0  # atno 10167 bound_to 10162
  156.4646  130.4511  149.6907 H   0  0  0  0  0  0  0  0  0  0  0  0  # atno 10718 bound_to 10713
  154.3484  135.2753  155.2385 H   0  0  0  0  0  0  0  0  0  0  0  0  # atno 10763 bound_to 10752
  154.4625  135.5903  153.6269 H   0  0  0  0  0  0  0  0  0  0  0  0  # atno 10764 bound_to 10752
  152.9852  135.6068  154.3692 H   0  0  0  0  0  0  0  0  0  0  0  0  # atno 10765 bound_to 10752
  140.1087  134.4984  155.8697 H   0  0  0  0  0  0  0  0  0  0  0  0  # atno 11005 bound_to 11000
  145.6531  141.0258  143.1749 LP  0  0  0  0  0  0  0  0  0  0  0  0  # atno 17320 bound_to 7965
  144.7184  139.8114  143.7390 LP  0  0  0  0  0  0  0  0  0  0  0  0  # atno 17321 bound_to 7965
  139.4782  144.5506  151.8391 LP  0  0  0  0  0  0  0  0  0  0  0  0  # atno 17342 bound_to 10162
  140.4605  144.1728  150.5906 LP  0  0  0  0  0  0  0  0  0  0  0  0  # atno 17343 bound_to 10162
  156.3681  130.7516  151.2496 LP  0  0  0  0  0  0  0  0  0  0  0  0  # atno 17370 bound_to 10713
  157.7495  131.0331  150.4256 LP  0  0  0  0  0  0  0  0  0  0  0  0  # atno 17371 bound_to 10713
  141.2125  133.6720  156.6661 LP  0  0  0  0  0  0  0  0  0  0  0  0  # atno 17394 bound_to 11000
  140.3121  134.8078  157.4184 LP  0  0  0  0  0  0  0  0  0  0  0  0  # atno 17395 bound_to 11000

$$$$
