AV-unprocessed.smi:187|AV-procd|sdf|1469|dock1
  -GOLD-   2262019283D 1   1.00000     0.00000
 Structure written by MMmdl.
 53 56  0  0  0  0  0  0  0  0  1 V2000
  145.6608  137.0548  156.9546 C   0  0  0  0  0  0  0  0  0  0  0  0
  144.8018  138.3360  157.0020 C   0  0  1  0  0  0  0  0  0  0  0  0
  145.5953  139.4534  157.7122 C   0  0  0  0  0  0  0  0  0  0  0  0
  144.8372  140.7913  157.7147 C   0  0  0  0  0  0  0  0  0  0  0  0
  144.3871  141.2083  156.2992 C   0  0  1  0  0  0  0  0  0  0  0  0
  145.5516  141.7234  155.4312 C   0  0  0  0  0  0  0  0  0  0  0  0
  145.3277  141.8240  154.1184 N   0  0  0  0  0  0  0  0  0  0  0  0
  146.6397  142.0151  155.9245 O   0  0  0  0  0  0  0  0  0  0  0  0
  143.6260  140.0420  155.6343 C   0  0  0  0  0  0  0  0  0  0  0  0
  144.3766  138.7852  155.6672 N   0  0  0  0  0  0  0  0  0  0  0  0
  143.7848  137.8724  154.8624 C   0  0  0  0  0  0  0  0  0  0  0  0
  142.4830  137.5297  155.0537 N   0  0  0  0  0  0  0  0  0  0  0  0
  141.9022  136.6399  154.2428 C   0  0  0  0  0  0  0  0  0  0  0  0
  142.4259  135.9956  153.1969 N   0  0  0  0  0  0  0  0  0  0  0  0
  143.7279  136.3511  152.9968 C   0  0  0  0  0  0  0  0  0  0  0  0
  144.4770  137.2737  153.7778 C   0  0  0  0  0  0  0  0  0  0  0  0
  145.7713  137.3768  153.2856 N   0  0  0  0  0  0  0  0  0  0  0  0
  145.7900  136.5519  152.2742 C   0  0  0  0  0  0  0  0  0  0  0  0
  144.5978  135.9119  152.0147 N   0  0  0  0  0  0  0  0  0  0  0  0
  144.3388  134.9382  150.9952 C   0  0  0  0  0  0  0  0  0  0  0  0
  144.1138  133.4612  151.3284 C   0  0  0  0  0  0  0  0  0  0  0  0
  144.7775  133.0676  149.9886 C   0  0  0  0  0  0  0  0  0  0  0  0
  145.7283  131.8603  150.0500 C   0  0  0  0  0  0  0  0  0  0  0  0
  146.8139  132.1062  150.9207 O   0  0  0  0  0  0  0  0  0  0  0  0
  143.8117  132.8904  148.7993 C   0  0  0  0  0  0  0  0  0  0  0  0
  142.7624  131.9979  149.1150 O   0  0  0  0  0  0  0  0  0  0  0  0
  145.4609  134.4503  150.0771 C   0  0  0  0  0  0  0  0  0  0  0  0
  145.9988  136.7774  157.9533 H   0  0  0  0  0  0  0  0  0  0  0  0
  146.5462  137.1962  156.3338 H   0  0  0  0  0  0  0  0  0  0  0  0
  145.1112  136.2008  156.5593 H   0  0  0  0  0  0  0  0  0  0  0  0
  143.9054  138.1321  157.5895 H   0  0  0  0  0  0  0  0  0  0  0  0
  145.8113  139.1584  158.7396 H   0  0  0  0  0  0  0  0  0  0  0  0
  146.5642  139.5826  157.2291 H   0  0  0  0  0  0  0  0  0  0  0  0
  143.9584  140.7006  158.3544 H   0  0  0  0  0  0  0  0  0  0  0  0
  145.4573  141.5683  158.1637 H   0  0  0  0  0  0  0  0  0  0  0  0
  143.6822  142.0344  156.4070 H   0  0  0  0  0  0  0  0  0  0  0  0
  146.0568  142.1582  153.5054 H   0  0  0  0  0  0  0  0  0  0  0  0
  144.4260  141.5663  153.7444 H   0  0  0  0  0  0  0  0  0  0  0  0
  142.6728  139.8941  156.1446 H   0  0  0  0  0  0  0  0  0  0  0  0
  143.3846  140.3064  154.6029 H   0  0  0  0  0  0  0  0  0  0  0  0
  140.8690  136.4134  154.4615 H   0  0  0  0  0  0  0  0  0  0  0  0
  146.6812  136.3933  151.6846 H   0  0  0  0  0  0  0  0  0  0  0  0
  143.5055  135.3316  150.4104 H   0  0  0  0  0  0  0  0  0  0  0  0
  144.6885  133.1345  152.1972 H   0  0  0  0  0  0  0  0  0  0  0  0
  143.0653  133.1797  151.4289 H   0  0  0  0  0  0  0  0  0  0  0  0
  145.2064  130.9743  150.4128 H   0  0  0  0  0  0  0  0  0  0  0  0
  146.1162  131.6032  149.0640 H   0  0  0  0  0  0  0  0  0  0  0  0
  147.5616  131.6156  150.6148 H   0  0  0  0  0  0  0  0  0  0  0  0
  143.3634  133.8404  148.5085 H   0  0  0  0  0  0  0  0  0  0  0  0
  144.3317  132.5208  147.9152 H   0  0  0  0  0  0  0  0  0  0  0  0
  141.9782  132.5008  149.2732 H   0  0  0  0  0  0  0  0  0  0  0  0
  145.5361  134.9870  149.1309 H   0  0  0  0  0  0  0  0  0  0  0  0
  146.4274  134.4166  150.5838 H   0  0  0  0  0  0  0  0  0  0  0  0
  1  2  1  0  0  0  0
  1 28  1  0  0  0  0
  1 29  1  0  0  0  0
  1 30  1  0  0  0  0
  2 10  1  0  0  0  0
  2  3  1  0  0  0  0
  2 31  1  0  0  0  0
  3  4  1  0  0  0  0
  3 32  1  0  0  0  0
  3 33  1  0  0  0  0
  4  5  1  0  0  0  0
  4 34  1  0  0  0  0
  4 35  1  0  0  0  0
  5  6  1  0  0  0  0
  5  9  1  0  0  0  0
  5 36  1  0  0  0  0
  6  7  1  0  0  0  0
  6  8  2  0  0  0  0
  7 37  1  0  0  0  0
  7 38  1  0  0  0  0
  9 10  1  0  0  0  0
  9 39  1  0  0  0  0
  9 40  1  0  0  0  0
 10 11  1  0  0  0  0
 11 16  1  0  0  0  0
 11 12  2  0  0  0  0
 12 13  1  0  0  0  0
 13 14  2  0  0  0  0
 13 41  1  0  0  0  0
 14 15  1  0  0  0  0
 15 19  1  0  0  0  0
 15 16  2  0  0  0  0
 16 17  1  0  0  0  0
 17 18  2  0  0  0  0
 18 19  1  0  0  0  0
 18 42  1  0  0  0  0
 19 20  1  0  0  0  0
 20 27  1  0  0  0  0
 20 21  1  0  0  0  0
 20 43  1  0  0  0  0
 21 22  1  0  0  0  0
 21 44  1  0  0  0  0
 21 45  1  0  0  0  0
 22 23  1  0  0  0  0
 22 25  1  0  0  0  0
 22 27  1  0  0  0  0
 23 24  1  0  0  0  0
 23 46  1  0  0  0  0
 23 47  1  0  0  0  0
 24 48  1  0  0  0  0
 25 26  1  0  0  0  0
 25 49  1  0  0  0  0
 25 50  1  0  0  0  0
 26 51  1  0  0  0  0
 27 52  1  0  0  0  0
 27 53  1  0  0  0  0
M  END
> <s_m_source_file>
AV-unprocessed.smi

> <i_m_source_file_index>
187

> <i_lp_mmshare_version>
43012

> <i_f3d_flags>
0

> <s_epik_input>
W0NIM11bQ0BASF0xW0NIMl1bQ0gyXVtDQEBIXShDKD1PKVtOSDJdKVtDSDJdTjFjKG5bY0hdbjIpYyhjMjMpbltjSF1uM1tDSF0oW0NIMl00KVtDSDJdQzQoW0NIMl1bT0hdKVtDSDJdW09IXQ==

> <s_epik_cmdline>
J2VwaWtfcHl0aG9uJywgJy1waCcsICc3LjAnLCAnLXRuJywgJzgnLCAnLW1hJywgJzIwMCcsICctbWV0YWxfYmluZGluZycsICctaW1hZScsICc8aW5maWxlLm1hZT4nLCAnLW9tYWUnLCAnPG91dGZpbGUubWFlPic=

> <r_lp_tautomer_probability>
1

> <r_epik_Ionization_Penalty>
0.0017711

> <r_epik_Ionization_Penalty_Charging>
0

> <r_epik_Ionization_Penalty_Neutral>
0.0017711

> <r_epik_State_Penalty>
0.00107211

> <r_epik_Charging_Adjusted_Penalty>
0.00107211

> <i_epik_Tot_Q>
0

> <i_epik_Tot_abs_Q>
0

> <r_epik_Metal_State_Penalty>
-0

> <b_epik_Metal_Only>
0

> <s_lp_Force_Field>
OPLS_2005

> <r_lp_Energy>
37.2201

> <b_lp_Chiralities_Consistent>
1

> <s_lp_Variant>
AV-unprocessed.smi:187-2

> <Gold.Version>
5.8.1

> <Gold.Id.Protein>
6NUR|6NUR_protein|mol2

> <Gold.PLP.Fitness>
43.3688

> <Gold.PLP.PLP>
-30.1501

> <Gold.PLP.part.hbond>
-5.0000

> <Gold.PLP.part.metal>
0.0000

> <Gold.PLP.part.buried>
-3.9951

> <Gold.PLP.part.nonpolar>
-22.2495

> <Gold.PLP.part.repulsive>
0.5188

> <Gold.PLP.ligand.clash>
0.0000

> <Gold.PLP.ligand.torsion>
1.2461

> <Gold.PLP.Chemscore.Hbond>
3.9760

> <Gold.PLP.Chemscore.CHOScore>
1.0000

> <Gold.PLP.Chemscore.Metal>
0.0000

> <Gold.Chemscore.Hbonds>
donor molecule, donor type, donor heavy atom, donor atom, acceptor molecule, acceptor atom, score
      L1  H     7    38       P1 10175  0.59
      L1  H    24    48       P1 10747  1.00
      L1  H    26    51       P1 10186  0.70
      P1  H 10785 10796       L1    26  1.00
      L1  C    18    42       P1  7948  1.00

> <Gold.PLP.Chemscore.Internal.Correction>
0.7829

> <Gold.Rescore>
     Score         DG    S(hbond)    S(metal)    S(lipo)     H(rot)  DE(clash)    DE(int)     intcor
     10.95     -13.84       3.60        0.00      55.91       3.99       1.55       1.34       ----

> <Gold.Chemscore.Fitness>
10.9501

> <Gold.Chemscore.DG>
-13.8375

> <Gold.Chemscore.ZeroCoef>
-5.4800

> <Gold.Chemscore.Hbond>
3.6020

> <Gold.Chemscore.Metal>
0.0000

> <Gold.Chemscore.Lipo>
55.9118

> <Gold.Chemscore.Internal_Hbond>
0.0000

> <Gold.Chemscore.DEClash>
1.5492

> <Gold.Chemscore.DEInternal>
1.3382

> <Gold.Chemscore.Rot>
3.9902

> <Gold.Chemscore.Internal.Correction>
   9.000000E+99

> <Gold.Chemscore.Hbonds>
donor molecule, donor type, donor heavy atom, donor atom, acceptor molecule, acceptor atom, score
      L1  H     7    38       P1 10175  0.06
      L1  H    24    48       P1 10747  1.00
      L1  H    26    51       P1 10186  0.66
      P1  H 10785 10796       L1    26  0.84

> <Gold.Chemscore.Hbond.Weighted>
-12.0306

> <Gold.Chemscore.Metal.Weighted>
-0.0000

> <Gold.Chemscore.Lipo.Weighted>
-6.5417

> <Gold.Chemscore.Internal_Hbond.Weighted>
0.0000

> <Gold.Chemscore.DEClash.Weighted>
1.5492

> <Gold.Chemscore.DEInternal.Weighted>
1.3382

> <Gold.Chemscore.Rot.Weighted>
10.2148

> <Gold.Chemscore.Internal.Correction.Weighted>
   9.000000E+99

> <Gold.Protein.RotatedTorsions>
[ 6907 6896 6895 6894 ] final -104.65 input  -60.11 | X-H torsion
[ 7974 7965 7964 7962 ] final   43.16 input  175.53 | X-H torsion
[ 8008 7997 7996 7995 ] final -105.14 input   59.86 | X-H torsion
[ 10167 10162 10161 10158 ] final   85.48 input  -65.29 | X-H torsion
[ 10718 10713 10712 10709 ] final -155.68 input   66.30 | X-H torsion
[ 10763 10752 10751 10750 ] final -103.96 input  -60.55 | X-H torsion
[ 11005 11000 10999 10996 ] final -149.72 input  -57.11 | X-H torsion

> <Gold.Protein.ActiveResidues>
 VAL166  LYS551  ARG553  GLY616  TRP617  ASP618  TYR619  PRO620  LYS621  CYS622 
 ASP623  PHE694  ASN695  SER759  ASP760  ASP761  ALA762  ILE779  LEU786  VAL792 
 PHE793  MET794  SER795  GLU796  ALA797  LYS798  CYS799  TRP800  GLU811  SER814 

> <Gold.Protein.RotatedAtoms>
  150.7298  134.0245  159.3712 H   0  0  0  0  0  0  0  0  0  0  0  0  # atno 6907 bound_to 6896
  151.8212  135.0649  160.0434 H   0  0  0  0  0  0  0  0  0  0  0  0  # atno 6908 bound_to 6896
  152.3002  133.5612  159.5650 H   0  0  0  0  0  0  0  0  0  0  0  0  # atno 6909 bound_to 6896
  146.0679  139.5218  142.9617 H   0  0  0  0  0  0  0  0  0  0  0  0  # atno 7974 bound_to 7965
  154.8955  140.0414  157.1863 H   0  0  0  0  0  0  0  0  0  0  0  0  # atno 8008 bound_to 7997
  154.8496  140.2927  155.5585 H   0  0  0  0  0  0  0  0  0  0  0  0  # atno 8009 bound_to 7997
  156.2995  140.2467  156.3453 H   0  0  0  0  0  0  0  0  0  0  0  0  # atno 8010 bound_to 7997
  139.8973  144.6350  150.8675 H   0  0  0  0  0  0  0  0  0  0  0  0  # atno 10167 bound_to 10162
  156.5162  130.8457  151.2665 H   0  0  0  0  0  0  0  0  0  0  0  0  # atno 10718 bound_to 10713
  154.7844  135.4804  153.9914 H   0  0  0  0  0  0  0  0  0  0  0  0  # atno 10763 bound_to 10752
  153.1539  135.6796  153.8848 H   0  0  0  0  0  0  0  0  0  0  0  0  # atno 10764 bound_to 10752
  153.8483  135.3170  155.3409 H   0  0  0  0  0  0  0  0  0  0  0  0  # atno 10765 bound_to 10752
  140.7477  134.3442  157.5133 H   0  0  0  0  0  0  0  0  0  0  0  0  # atno 11005 bound_to 11000
  145.6445  141.0277  143.1794 LP  0  0  0  0  0  0  0  0  0  0  0  0  # atno 17320 bound_to 7965
  144.7213  139.8020  143.7381 LP  0  0  0  0  0  0  0  0  0  0  0  0  # atno 17321 bound_to 7965
  140.7714  143.3464  151.2103 LP  0  0  0  0  0  0  0  0  0  0  0  0  # atno 17342 bound_to 10162
  139.7056  143.9460  152.2925 LP  0  0  0  0  0  0  0  0  0  0  0  0  # atno 17343 bound_to 10162
  157.7443  130.9933  150.2667 LP  0  0  0  0  0  0  0  0  0  0  0  0  # atno 17370 bound_to 10713
  156.3193  130.3783  149.7589 LP  0  0  0  0  0  0  0  0  0  0  0  0  # atno 17371 bound_to 10713
  139.8793  134.9122  156.3055 LP  0  0  0  0  0  0  0  0  0  0  0  0  # atno 17394 bound_to 11000
  140.9779  133.7286  156.0629 LP  0  0  0  0  0  0  0  0  0  0  0  0  # atno 17395 bound_to 11000

$$$$
