AV-unprocessed.smi:2764|AV-procd|sdf|10641|dock6
  -GOLD-   2272015 93D 1   1.00000     0.00000
 Structure written by MMmdl.
 47 49  0  0  0  0  0  0  0  0  2 V2000
  150.9802  139.1799  158.1858 O   0  0  0  0  0  0  0  0  0  0  0  0
  150.8145  139.6952  157.0799 C   0  0  0  0  0  0  0  0  0  0  0  0
  150.9736  141.0003  156.7971 N   0  0  0  0  0  0  0  0  0  0  0  0
  151.3260  142.0529  157.6837 C   0  0  0  0  0  0  0  0  0  0  0  0
  151.3654  143.3397  157.1001 C   0  0  0  0  0  0  0  0  0  0  0  0
  151.6996  144.4522  157.8968 C   0  0  0  0  0  0  0  0  0  0  0  0
  151.9878  144.2465  159.2577 C   0  0  0  0  0  0  0  0  0  0  0  0
  152.3145  145.2851  160.0627 F   0  0  0  0  0  0  0  0  0  0  0  0
  151.9277  142.9338  159.7608 C   0  0  0  0  0  0  0  0  0  0  0  0
  151.6063  141.8669  158.9984 N   0  0  0  0  0  0  0  0  0  0  0  0
  150.4443  139.0015  155.9929 N   0  0  0  0  0  0  0  0  0  0  0  0
  150.1596  137.5695  155.9729 C   0  0  2  0  0  0  0  0  0  0  0  0
  151.1219  136.8250  155.0303 C   0  0  0  0  0  0  0  0  0  0  0  0
  150.7676  135.3305  154.9453 C   0  0  0  0  0  0  0  0  0  0  0  0
  149.3577  135.1319  154.5181 N   0  3  1  0  0  0  0  0  0  0  0  0
  149.0201  133.7006  154.3007 C   0  0  0  0  0  0  0  0  0  0  0  0
  148.0558  133.5024  153.1152 C   0  0  1  0  0  0  0  0  0  0  0  0
  147.6240  132.0612  152.9281 C   0  0  0  0  0  0  0  0  0  0  0  0
  146.3854  132.2080  152.0501 C   0  0  0  0  0  0  0  0  0  0  0  0
  145.8056  133.4588  152.4070 O   0  0  0  0  0  0  0  0  0  0  0  0
  146.6938  134.1865  153.2488 C   0  0  0  0  0  0  0  0  0  0  0  0
  148.4097  135.8207  155.4336 C   0  0  0  0  0  0  0  0  0  0  0  0
  148.7121  137.3258  155.5196 C   0  0  0  0  0  0  0  0  0  0  0  0
  150.8071  141.2771  155.8408 H   0  0  0  0  0  0  0  0  0  0  0  0
  151.1406  143.4792  156.0525 H   0  0  0  0  0  0  0  0  0  0  0  0
  151.7337  145.4440  157.4706 H   0  0  0  0  0  0  0  0  0  0  0  0
  152.1425  142.7339  160.8002 H   0  0  0  0  0  0  0  0  0  0  0  0
  150.3341  139.5025  155.1234 H   0  0  0  0  0  0  0  0  0  0  0  0
  150.2717  137.1714  156.9834 H   0  0  0  0  0  0  0  0  0  0  0  0
  151.0810  137.2656  154.0329 H   0  0  0  0  0  0  0  0  0  0  0  0
  152.1509  136.9363  155.3745 H   0  0  0  0  0  0  0  0  0  0  0  0
  151.4391  134.8478  154.2340 H   0  0  0  0  0  0  0  0  0  0  0  0
  150.9277  134.8498  155.9119 H   0  0  0  0  0  0  0  0  0  0  0  0
  149.9319  133.1465  154.0726 H   0  0  0  0  0  0  0  0  0  0  0  0
  148.6257  133.2511  155.2133 H   0  0  0  0  0  0  0  0  0  0  0  0
  148.5348  133.8369  152.1933 H   0  0  0  0  0  0  0  0  0  0  0  0
  148.3933  131.4374  152.4722 H   0  0  0  0  0  0  0  0  0  0  0  0
  147.3493  131.6176  153.8863 H   0  0  0  0  0  0  0  0  0  0  0  0
  146.6665  132.2441  150.9971 H   0  0  0  0  0  0  0  0  0  0  0  0
  145.6800  131.3878  152.1853 H   0  0  0  0  0  0  0  0  0  0  0  0
  146.3247  134.1189  154.2733 H   0  0  0  0  0  0  0  0  0  0  0  0
  146.7249  135.2391  152.9667 H   0  0  0  0  0  0  0  0  0  0  0  0
  147.3851  135.6826  155.0915 H   0  0  0  0  0  0  0  0  0  0  0  0
  148.4711  135.3717  156.4265 H   0  0  0  0  0  0  0  0  0  0  0  0
  148.0177  137.8012  156.2134 H   0  0  0  0  0  0  0  0  0  0  0  0
  148.5415  137.7872  154.5455 H   0  0  0  0  0  0  0  0  0  0  0  0
  149.2772  135.5815  153.6171 H   0  0  0  0  0  0  0  0  0  0  0  0
  1  2  2  0  0  0  0
  2  3  1  0  0  0  0
  2 11  1  0  0  0  0
  3  4  1  0  0  0  0
  3 24  1  0  0  0  0
  4 10  1  0  0  0  0
  4  5  2  0  0  0  0
  5  6  1  0  0  0  0
  5 25  1  0  0  0  0
  6  7  2  0  0  0  0
  6 26  1  0  0  0  0
  7  8  1  0  0  0  0
  7  9  1  0  0  0  0
  9 10  2  0  0  0  0
  9 27  1  0  0  0  0
 11 12  1  0  0  0  0
 11 28  1  0  0  0  0
 12 23  1  0  0  0  0
 12 13  1  0  0  0  0
 12 29  1  0  0  0  0
 13 14  1  0  0  0  0
 13 30  1  0  0  0  0
 13 31  1  0  0  0  0
 14 15  1  0  0  0  0
 14 32  1  0  0  0  0
 14 33  1  0  0  0  0
 15 16  1  0  0  0  0
 15 22  1  0  0  0  0
 15 47  1  0  0  0  0
 16 17  1  0  0  0  0
 16 34  1  0  0  0  0
 16 35  1  0  0  0  0
 17 21  1  0  0  0  0
 17 18  1  0  0  0  0
 17 36  1  0  0  0  0
 18 19  1  0  0  0  0
 18 37  1  0  0  0  0
 18 38  1  0  0  0  0
 19 20  1  0  0  0  0
 19 39  1  0  0  0  0
 19 40  1  0  0  0  0
 20 21  1  0  0  0  0
 21 41  1  0  0  0  0
 21 42  1  0  0  0  0
 22 23  1  0  0  0  0
 22 43  1  0  0  0  0
 22 44  1  0  0  0  0
 23 45  1  0  0  0  0
 23 46  1  0  0  0  0
M  CHG  1  15   1
M  END
> <s_m_source_file>
AV-unprocessed.smi

> <i_m_source_file_index>
2764

> <i_lp_mmshare_version>
43012

> <i_f3d_flags>
0

> <s_epik_input>
bjFbY0hdYyhGKVtjSF1bY0hdYzFbTkhdQyg9TylbTkhdW0NIXTJbQ0gyXVtDSDJdTihbQ0gyXVtDSDJdMilbQ0gyXVtDQEBIXTNbQ0gyXVtDSDJdT1tDSDJdMw==

> <s_epik_cmdline>
J2VwaWtfcHl0aG9uJywgJy1waCcsICc3LjAnLCAnLXRuJywgJzgnLCAnLW1hJywgJzIwMCcsICctbWV0YWxfYmluZGluZycsICctaW1hZScsICc8aW5maWxlLm1hZT4nLCAnLW9tYWUnLCAnPG91dGZpbGUubWFlPic=

> <r_epik_Ionization_Penalty>
0.0075076

> <r_epik_Ionization_Penalty_Charging>
0.00747775

> <r_epik_Ionization_Penalty_Neutral>
2.98483e-05

> <r_epik_State_Penalty>
0.00558817

> <r_epik_Charging_Adjusted_Penalty>
0.0130659

> <i_epik_Tot_Q>
1

> <i_epik_Tot_abs_Q>
1

> <r_epik_Metal_State_Penalty>
-0

> <b_epik_Metal_Only>
0

> <s_lp_Force_Field>
OPLS_2005

> <r_lp_Energy>
37.3143

> <b_lp_Chiralities_Consistent>
1

> <s_lp_Variant>
AV-unprocessed.smi:2764-2

> <Gold.Version>
5.8.1

> <Gold.Id.Protein>
6NUR|6NUR_protein|mol2

> <Gold.PLP.Fitness>
41.1693

> <Gold.PLP.PLP>
-36.0068

> <Gold.PLP.part.hbond>
-1.0000

> <Gold.PLP.part.metal>
0.0000

> <Gold.PLP.part.buried>
-2.5494

> <Gold.PLP.part.nonpolar>
-31.9581

> <Gold.PLP.part.repulsive>
0.2194

> <Gold.PLP.ligand.clash>
0.0000

> <Gold.PLP.ligand.torsion>
0.4334

> <Gold.PLP.Chemscore.Hbond>
2.0000

> <Gold.PLP.Chemscore.CHOScore>
0.0000

> <Gold.PLP.Chemscore.Metal>
0.0000

> <Gold.Chemscore.Hbonds>
donor molecule, donor type, donor heavy atom, donor atom, acceptor molecule, acceptor atom, score
      L1  H    15    47       P1  7948  2.00

> <Gold.PLP.Chemscore.Internal.Correction>
0.0294

> <Gold.Rescore>
     Score         DG    S(hbond)    S(metal)    S(lipo)     H(rot)  DE(clash)    DE(int)     intcor
     12.96     -15.19       0.96        0.00      88.23       1.49       0.43       1.80       ----

> <Gold.Chemscore.Fitness>
12.9578

> <Gold.Chemscore.DG>
-15.1875

> <Gold.Chemscore.ZeroCoef>
-5.4800

> <Gold.Chemscore.Hbond>
0.9573

> <Gold.Chemscore.Metal>
0.0000

> <Gold.Chemscore.Lipo>
88.2251

> <Gold.Chemscore.Internal_Hbond>
0.0000

> <Gold.Chemscore.DEClash>
0.4331

> <Gold.Chemscore.DEInternal>
1.7966

> <Gold.Chemscore.Rot>
1.4891

> <Gold.Chemscore.Internal.Correction>
   9.000000E+99

> <Gold.Chemscore.Hbonds>
donor molecule, donor type, donor heavy atom, donor atom, acceptor molecule, acceptor atom, score
      L1  H    15    47       P1  7948  0.50

> <Gold.Chemscore.Hbond.Weighted>
-3.1973

> <Gold.Chemscore.Metal.Weighted>
-0.0000

> <Gold.Chemscore.Lipo.Weighted>
-10.3223

> <Gold.Chemscore.Internal_Hbond.Weighted>
0.0000

> <Gold.Chemscore.DEClash.Weighted>
0.4331

> <Gold.Chemscore.DEInternal.Weighted>
1.7966

> <Gold.Chemscore.Rot.Weighted>
3.8121

> <Gold.Chemscore.Internal.Correction.Weighted>
   9.000000E+99

> <Gold.Protein.RotatedTorsions>
[ 6907 6896 6895 6894 ] final  158.63 input  -60.11 | X-H torsion
[ 7974 7965 7964 7962 ] final   37.64 input  175.53 | X-H torsion
[ 8008 7997 7996 7995 ] final  121.13 input   59.86 | X-H torsion
[ 10167 10162 10161 10158 ] final  172.30 input  -65.29 | X-H torsion
[ 10718 10713 10712 10709 ] final   14.66 input   66.30 | X-H torsion
[ 10763 10752 10751 10750 ] final   24.98 input  -60.55 | X-H torsion
[ 11005 11000 10999 10996 ] final   35.57 input  -57.11 | X-H torsion

> <Gold.Protein.ActiveResidues>
 VAL166  LYS551  ARG553  GLY616  TRP617  ASP618  TYR619  PRO620  LYS621  CYS622 
 ASP623  PHE694  ASN695  SER759  ASP760  ASP761  ALA762  ILE779  LEU786  VAL792 
 PHE793  MET794  SER795  GLU796  ALA797  LYS798  CYS799  TRP800  GLU811  SER814 

> <Gold.Protein.RotatedAtoms>
  151.9976  133.3813  159.4168 H   0  0  0  0  0  0  0  0  0  0  0  0  # atno 6907 bound_to 6896
  150.6914  134.3869  159.5068 H   0  0  0  0  0  0  0  0  0  0  0  0  # atno 6908 bound_to 6896
  152.1612  134.8910  160.0592 H   0  0  0  0  0  0  0  0  0  0  0  0  # atno 6909 bound_to 6896
  146.1122  139.5869  142.9345 H   0  0  0  0  0  0  0  0  0  0  0  0  # atno 7974 bound_to 7965
  156.2673  140.2815  156.1259 H   0  0  0  0  0  0  0  0  0  0  0  0  # atno 8008 bound_to 7997
  155.1106  140.0391  157.2740 H   0  0  0  0  0  0  0  0  0  0  0  0  # atno 8009 bound_to 7997
  154.6745  140.2595  155.6978 H   0  0  0  0  0  0  0  0  0  0  0  0  # atno 8010 bound_to 7997
  139.5072  144.3389  152.0038 H   0  0  0  0  0  0  0  0  0  0  0  0  # atno 10167 bound_to 10162
  157.0423  130.6236  149.5753 H   0  0  0  0  0  0  0  0  0  0  0  0  # atno 10718 bound_to 10713
  153.0725  135.6593  154.0217 H   0  0  0  0  0  0  0  0  0  0  0  0  # atno 10763 bound_to 10752
  153.9859  135.2950  155.3417 H   0  0  0  0  0  0  0  0  0  0  0  0  # atno 10764 bound_to 10752
  154.7103  135.5208  153.8727 H   0  0  0  0  0  0  0  0  0  0  0  0  # atno 10765 bound_to 10752
  140.2414  134.3411  155.7924 H   0  0  0  0  0  0  0  0  0  0  0  0  # atno 11005 bound_to 11000
  145.5640  141.0401  143.2210 LP  0  0  0  0  0  0  0  0  0  0  0  0  # atno 17320 bound_to 7965
  144.7521  139.7166  143.7269 LP  0  0  0  0  0  0  0  0  0  0  0  0  # atno 17321 bound_to 7965
  140.2827  144.3841  150.6113 LP  0  0  0  0  0  0  0  0  0  0  0  0  # atno 17342 bound_to 10162
  140.6006  143.2167  151.7080 LP  0  0  0  0  0  0  0  0  0  0  0  0  # atno 17343 bound_to 10162
  156.0034  130.5117  150.7744 LP  0  0  0  0  0  0  0  0  0  0  0  0  # atno 17370 bound_to 10713
  157.5094  131.0924  151.0216 LP  0  0  0  0  0  0  0  0  0  0  0  0  # atno 17371 bound_to 10713
  141.2210  133.7301  156.8891 LP  0  0  0  0  0  0  0  0  0  0  0  0  # atno 17394 bound_to 11000
  140.1650  134.9139  157.2762 LP  0  0  0  0  0  0  0  0  0  0  0  0  # atno 17395 bound_to 11000

$$$$
