AV-unprocessed.smi:3270|AV-procd|sdf|12513|dock7
  -GOLD-   2272018423D 1   1.00000     0.00000
 Structure written by MMmdl.
 38 39  0  0  0  0  0  0  0  0  1 V2000
  145.3798  136.0359  151.9446 C   0  0  0  0  0  0  0  0  0  0  0  0
  146.2204  134.7634  151.7148 C   0  0  1  0  0  0  0  0  0  0  0  0
  146.6601  134.0866  153.0287 C   0  0  0  0  0  0  0  0  0  0  0  0
  145.8850  133.3589  153.6505 O   0  0  0  0  0  0  0  0  0  0  0  0
  147.9060  134.3484  153.4554 N   0  0  0  0  0  0  0  0  0  0  0  0
  148.5015  133.7962  154.6635 C   0  0  0  0  0  0  0  0  0  0  0  0
  148.9084  132.3316  154.4351 C   0  0  0  0  0  0  0  0  0  0  0  0
  149.7492  131.7559  155.4831 N   0  0  0  0  0  0  0  0  0  0  0  0
  149.0659  131.6762  156.7727 C   0  0  0  0  0  0  0  0  0  0  0  0
  149.9753  131.0945  157.8697 C   0  0  0  0  0  0  0  0  0  0  0  0
  151.1644  131.8712  157.9696 O   0  0  0  0  0  0  0  0  0  0  0  0
  151.8840  131.9319  156.7425 C   0  0  0  0  0  0  0  0  0  0  0  0
  150.9803  132.5220  155.6461 C   0  0  0  0  0  0  0  0  0  0  0  0
  145.5309  133.8262  150.8326 N   0  0  0  0  0  0  0  0  0  0  0  0
  146.0448  132.7001  150.2217 C   0  0  0  0  0  0  0  0  0  0  0  0
  145.0337  132.1222  149.5088 C   0  0  0  0  0  0  0  0  0  0  0  0
  143.9204  132.9741  149.7501 C   0  0  0  0  0  0  0  0  0  0  0  0
  144.2187  133.9897  150.5434 N   0  0  0  0  0  0  0  0  0  0  0  0
  145.9372  136.7832  152.5105 H   0  0  0  0  0  0  0  0  0  0  0  0
  144.4610  135.8216  152.4922 H   0  0  0  0  0  0  0  0  0  0  0  0
  145.0988  136.4922  150.9950 H   0  0  0  0  0  0  0  0  0  0  0  0
  147.1363  135.0666  151.2054 H   0  0  0  0  0  0  0  0  0  0  0  0
  148.4845  134.9566  152.8942 H   0  0  0  0  0  0  0  0  0  0  0  0
  149.3632  134.4082  154.9298 H   0  0  0  0  0  0  0  0  0  0  0  0
  147.7908  133.8556  155.4897 H   0  0  0  0  0  0  0  0  0  0  0  0
  147.9924  131.7432  154.3605 H   0  0  0  0  0  0  0  0  0  0  0  0
  149.4060  132.2350  153.4689 H   0  0  0  0  0  0  0  0  0  0  0  0
  148.7270  132.6686  157.0745 H   0  0  0  0  0  0  0  0  0  0  0  0
  148.1765  131.0521  156.6933 H   0  0  0  0  0  0  0  0  0  0  0  0
  149.4622  131.1025  158.8315 H   0  0  0  0  0  0  0  0  0  0  0  0
  150.2290  130.0562  157.6501 H   0  0  0  0  0  0  0  0  0  0  0  0
  152.7701  132.5518  156.8789 H   0  0  0  0  0  0  0  0  0  0  0  0
  152.2293  130.9349  156.4647 H   0  0  0  0  0  0  0  0  0  0  0  0
  151.5288  132.5466  154.7039 H   0  0  0  0  0  0  0  0  0  0  0  0
  150.7416  133.5573  155.8952 H   0  0  0  0  0  0  0  0  0  0  0  0
  147.0774  132.4067  150.3435 H   0  0  0  0  0  0  0  0  0  0  0  0
  145.0818  131.2267  148.9074 H   0  0  0  0  0  0  0  0  0  0  0  0
  142.9110  132.8842  149.3762 H   0  0  0  0  0  0  0  0  0  0  0  0
  1  2  1  0  0  0  0
  1 19  1  0  0  0  0
  1 20  1  0  0  0  0
  1 21  1  0  0  0  0
  2  3  1  0  0  0  0
  2 14  1  0  0  0  0
  2 22  1  0  0  0  0
  3  4  2  0  0  0  0
  3  5  1  0  0  0  0
  5  6  1  0  0  0  0
  5 23  1  0  0  0  0
  6  7  1  0  0  0  0
  6 24  1  0  0  0  0
  6 25  1  0  0  0  0
  7  8  1  0  0  0  0
  7 26  1  0  0  0  0
  7 27  1  0  0  0  0
  8 13  1  0  0  0  0
  8  9  1  0  0  0  0
  9 10  1  0  0  0  0
  9 28  1  0  0  0  0
  9 29  1  0  0  0  0
 10 11  1  0  0  0  0
 10 30  1  0  0  0  0
 10 31  1  0  0  0  0
 11 12  1  0  0  0  0
 12 13  1  0  0  0  0
 12 32  1  0  0  0  0
 12 33  1  0  0  0  0
 13 34  1  0  0  0  0
 13 35  1  0  0  0  0
 14 18  1  0  0  0  0
 14 15  1  0  0  0  0
 15 16  2  0  0  0  0
 15 36  1  0  0  0  0
 16 17  1  0  0  0  0
 16 37  1  0  0  0  0
 17 18  2  0  0  0  0
 17 38  1  0  0  0  0
M  END
> <s_m_source_file>
AV-unprocessed.smi

> <i_m_source_file_index>
3270

> <i_lp_mmshare_version>
43012

> <i_f3d_flags>
0

> <s_epik_input>
bjFbY0hdW2NIXVtjSF1uMVtDQEhdKFtDSDNdKUMoPU8pW05IXVtDSDJdW0NIMl1OMltDSDJdW0NIMl1PW0NIMl1bQ0gyXTI=

> <s_epik_cmdline>
J2VwaWtfcHl0aG9uJywgJy1waCcsICc3LjAnLCAnLXRuJywgJzgnLCAnLW1hJywgJzIwMCcsICctbWV0YWxfYmluZGluZycsICctaW1hZScsICc8aW5maWxlLm1hZT4nLCAnLW9tYWUnLCAnPG91dGZpbGUubWFlPic=

> <r_lp_tautomer_probability>
1

> <r_epik_Ionization_Penalty>
0.203323

> <r_epik_Ionization_Penalty_Charging>
0

> <r_epik_Ionization_Penalty_Neutral>
0.203323

> <r_epik_State_Penalty>
0.193192

> <r_epik_Charging_Adjusted_Penalty>
0.193192

> <i_epik_Tot_Q>
0

> <i_epik_Tot_abs_Q>
0

> <r_epik_Metal_State_Penalty>
0.193187

> <b_epik_Metal_Only>
0

> <s_lp_Force_Field>
OPLS_2005

> <r_lp_Energy>
25.3567

> <b_lp_Chiralities_Consistent>
1

> <s_lp_Variant>
AV-unprocessed.smi:3270-2

> <Gold.Version>
5.8.1

> <Gold.Id.Protein>
6NUR|6NUR_protein|mol2

> <Gold.PLP.Fitness>
37.6525

> <Gold.PLP.PLP>
-27.1932

> <Gold.PLP.part.hbond>
-2.0000

> <Gold.PLP.part.metal>
0.0000

> <Gold.PLP.part.buried>
-3.6931

> <Gold.PLP.part.nonpolar>
-22.0052

> <Gold.PLP.part.repulsive>
0.2755

> <Gold.PLP.ligand.clash>
0.0000

> <Gold.PLP.ligand.torsion>
0.7997

> <Gold.PLP.Chemscore.Hbond>
2.0000

> <Gold.PLP.Chemscore.CHOScore>
1.9841

> <Gold.PLP.Chemscore.Metal>
0.0000

> <Gold.Chemscore.Hbonds>
donor molecule, donor type, donor heavy atom, donor atom, acceptor molecule, acceptor atom, score
      L1  H     5    23       P1  7948  1.00
      P1  H  6896  6909       L1    11  1.00
      L1  C    15    36       P1 10747  1.00
      L1  C    17    38       P1 10186  1.00

> <Gold.PLP.Chemscore.Internal.Correction>
0.1065

> <Gold.Rescore>
     Score         DG    S(hbond)    S(metal)    S(lipo)     H(rot)  DE(clash)    DE(int)     intcor
     15.31     -15.81       1.97        0.00      72.09       1.83       0.14       0.37       ----

> <Gold.Chemscore.Fitness>
15.3067

> <Gold.Chemscore.DG>
-15.8139

> <Gold.Chemscore.ZeroCoef>
-5.4800

> <Gold.Chemscore.Hbond>
1.9704

> <Gold.Chemscore.Metal>
0.0000

> <Gold.Chemscore.Lipo>
72.0927

> <Gold.Chemscore.Internal_Hbond>
0.0000

> <Gold.Chemscore.DEClash>
0.1388

> <Gold.Chemscore.DEInternal>
0.3684

> <Gold.Chemscore.Rot>
1.8290

> <Gold.Chemscore.Internal.Correction>
   9.000000E+99

> <Gold.Chemscore.Hbonds>
donor molecule, donor type, donor heavy atom, donor atom, acceptor molecule, acceptor atom, score
      L1  H     5    23       P1  7948  0.60
      P1  H  6896  6909       L1    11  0.83

> <Gold.Chemscore.Hbond.Weighted>
-6.5812

> <Gold.Chemscore.Metal.Weighted>
-0.0000

> <Gold.Chemscore.Lipo.Weighted>
-8.4348

> <Gold.Chemscore.Internal_Hbond.Weighted>
0.0000

> <Gold.Chemscore.DEClash.Weighted>
0.1388

> <Gold.Chemscore.DEInternal.Weighted>
0.3684

> <Gold.Chemscore.Rot.Weighted>
4.6821

> <Gold.Chemscore.Internal.Correction.Weighted>
   9.000000E+99

> <Gold.Protein.RotatedTorsions>
[ 6907 6896 6895 6894 ] final  -64.01 input  -60.11 | X-H torsion
[ 7974 7965 7964 7962 ] final   90.20 input  175.53 | X-H torsion
[ 8008 7997 7996 7995 ] final    4.43 input   59.86 | X-H torsion
[ 10167 10162 10161 10158 ] final   56.46 input  -65.29 | X-H torsion
[ 10718 10713 10712 10709 ] final   61.83 input   66.30 | X-H torsion
[ 10763 10752 10751 10750 ] final  120.78 input  -60.55 | X-H torsion
[ 11005 11000 10999 10996 ] final   61.98 input  -57.11 | X-H torsion

> <Gold.Protein.ActiveResidues>
 VAL166  LYS551  ARG553  GLY616  TRP617  ASP618  TYR619  PRO620  LYS621  CYS622 
 ASP623  PHE694  ASN695  SER759  ASP760  ASP761  ALA762  ILE779  LEU786  VAL792 
 PHE793  MET794  SER795  GLU796  ALA797  LYS798  CYS799  TRP800  GLU811  SER814 

> <Gold.Protein.RotatedAtoms>
  150.7613  134.6357  159.6209 H   0  0  0  0  0  0  0  0  0  0  0  0  # atno 6907 bound_to 6896
  152.3621  134.6854  160.0212 H   0  0  0  0  0  0  0  0  0  0  0  0  # atno 6908 bound_to 6896
  151.7240  133.3279  159.3359 H   0  0  0  0  0  0  0  0  0  0  0  0  # atno 6909 bound_to 6896
  145.5221  139.2280  143.2665 H   0  0  0  0  0  0  0  0  0  0  0  0  # atno 7974 bound_to 7965
  154.7159  140.2702  155.6586 H   0  0  0  0  0  0  0  0  0  0  0  0  # atno 8008 bound_to 7997
  156.2809  140.2744  156.1739 H   0  0  0  0  0  0  0  0  0  0  0  0  # atno 8009 bound_to 7997
  155.0572  140.0371  157.2554 H   0  0  0  0  0  0  0  0  0  0  0  0  # atno 8010 bound_to 7997
  140.2085  144.3914  150.6499 H   0  0  0  0  0  0  0  0  0  0  0  0  # atno 10167 bound_to 10162
  157.5857  130.9016  149.9511 H   0  0  0  0  0  0  0  0  0  0  0  0  # atno 10718 bound_to 10713
  153.6039  135.3443  155.2955 H   0  0  0  0  0  0  0  0  0  0  0  0  # atno 10763 bound_to 10752
  154.8631  135.4234  154.2383 H   0  0  0  0  0  0  0  0  0  0  0  0  # atno 10764 bound_to 10752
  153.3218  135.7038  153.7095 H   0  0  0  0  0  0  0  0  0  0  0  0  # atno 10765 bound_to 10752
  140.0124  134.6276  155.9761 H   0  0  0  0  0  0  0  0  0  0  0  0  # atno 11005 bound_to 11000
  146.2099  140.6034  142.9064 LP  0  0  0  0  0  0  0  0  0  0  0  0  # atno 17320 bound_to 7965
  144.7670  140.5553  143.6696 LP  0  0  0  0  0  0  0  0  0  0  0  0  # atno 17321 bound_to 7965
  140.6341  143.2192  151.6433 LP  0  0  0  0  0  0  0  0  0  0  0  0  # atno 17342 bound_to 10162
  139.5189  144.3269  152.0861 LP  0  0  0  0  0  0  0  0  0  0  0  0  # atno 17343 bound_to 10162
  156.0906  130.3664  150.0403 LP  0  0  0  0  0  0  0  0  0  0  0  0  # atno 17370 bound_to 10713
  156.8535  130.9467  151.3623 LP  0  0  0  0  0  0  0  0  0  0  0  0  # atno 17371 bound_to 10713
  141.1720  133.6538  156.4686 LP  0  0  0  0  0  0  0  0  0  0  0  0  # atno 17394 bound_to 11000
  140.4531  134.6910  157.5049 LP  0  0  0  0  0  0  0  0  0  0  0  0  # atno 17395 bound_to 11000

$$$$
