AV-unprocessed.smi:1813|AV-procd|sdf|7345|dock8
  -GOLD-   22720 9 03D 1   1.00000     0.00000
 Structure written by MMmdl.
 39 40  0  0  0  0  0  0  0  0  3 V2000
  148.8091  132.1092  153.5173 C   0  0  0  0  0  0  0  0  0  0  0  0
  148.4093  133.4317  153.9836 N   0  5  0  0  0  0  0  0  0  0  0  0
  149.1642  134.1909  154.8226 C   0  0  0  0  0  0  0  0  0  0  0  0
  150.3052  134.0145  155.2627 O   0  0  0  0  0  0  0  0  0  0  0  0
  148.4231  135.4703  155.2275 C   0  0  0  0  0  0  0  0  0  0  0  0
  149.0821  136.6560  154.6252 N   0  3  2  0  0  0  0  0  0  0  0  0
  150.5037  136.7776  155.0360 C   0  0  0  0  0  0  0  0  0  0  0  0
  151.2039  137.9236  154.2850 C   0  0  0  0  0  0  0  0  0  0  0  0
  150.4704  139.2672  154.4671 C   0  0  2  0  0  0  0  0  0  0  0  0
  150.6079  139.7837  155.8288 N   0  0  0  0  0  0  0  0  0  0  0  0
  151.7617  139.8907  156.5041 C   0  0  0  0  0  0  0  0  0  0  0  0
  152.8511  139.5497  156.0425 O   0  0  0  0  0  0  0  0  0  0  0  0
  151.5633  140.4087  157.7290 N   0  0  0  0  0  0  0  0  0  0  0  0
  152.5273  140.6662  158.7392 C   0  0  0  0  0  0  0  0  0  0  0  0
  153.6233  139.9260  158.9427 N   0  0  0  0  0  0  0  0  0  0  0  0
  154.3920  140.4085  160.0050 C   0  0  0  0  0  0  0  0  0  0  0  0
  153.8613  141.5236  160.6044 C   0  0  0  0  0  0  0  0  0  0  0  0
  152.3676  142.0170  159.8521 S   0  0  0  0  0  0  0  0  0  0  0  0
  148.9855  139.0984  154.1024 C   0  0  0  0  0  0  0  0  0  0  0  0
  148.3349  137.9225  154.8535 C   0  0  0  0  0  0  0  0  0  0  0  0
  148.0414  131.6497  152.8952 H   0  0  0  0  0  0  0  0  0  0  0  0
  148.9973  131.4162  154.3377 H   0  0  0  0  0  0  0  0  0  0  0  0
  149.7174  132.1398  152.9147 H   0  0  0  0  0  0  0  0  0  0  0  0
  147.3622  135.4486  154.9677 H   0  0  0  0  0  0  0  0  0  0  0  0
  148.4711  135.5299  156.3158 H   0  0  0  0  0  0  0  0  0  0  0  0
  150.5607  136.9364  156.1140 H   0  0  0  0  0  0  0  0  0  0  0  0
  151.0278  135.8444  154.8262 H   0  0  0  0  0  0  0  0  0  0  0  0
  152.2424  138.0034  154.6083 H   0  0  0  0  0  0  0  0  0  0  0  0
  151.2403  137.6796  153.2223 H   0  0  0  0  0  0  0  0  0  0  0  0
  150.9043  140.0009  153.7850 H   0  0  0  0  0  0  0  0  0  0  0  0
  149.7623  140.0927  156.2858 H   0  0  0  0  0  0  0  0  0  0  0  0
  150.6123  140.6465  157.9689 H   0  0  0  0  0  0  0  0  0  0  0  0
  155.3054  139.8951  160.2678 H   0  0  0  0  0  0  0  0  0  0  0  0
  154.2576  142.0827  161.4389 H   0  0  0  0  0  0  0  0  0  0  0  0
  148.4383  140.0204  154.3033 H   0  0  0  0  0  0  0  0  0  0  0  0
  148.8986  138.9239  153.0291 H   0  0  0  0  0  0  0  0  0  0  0  0
  147.3037  137.8190  154.5153 H   0  0  0  0  0  0  0  0  0  0  0  0
  148.2922  138.1324  155.9233 H   0  0  0  0  0  0  0  0  0  0  0  0
  149.0858  136.4910  153.6286 H   0  0  0  0  0  0  0  0  0  0  0  0
  1  2  1  0  0  0  0
  1 21  1  0  0  0  0
  1 22  1  0  0  0  0
  1 23  1  0  0  0  0
  2  3  1  0  0  0  0
  3  4  2  0  0  0  0
  3  5  1  0  0  0  0
  5  6  1  0  0  0  0
  5 24  1  0  0  0  0
  5 25  1  0  0  0  0
  6 20  1  0  0  0  0
  6  7  1  0  0  0  0
  6 39  1  0  0  0  0
  7  8  1  0  0  0  0
  7 26  1  0  0  0  0
  7 27  1  0  0  0  0
  8  9  1  0  0  0  0
  8 28  1  0  0  0  0
  8 29  1  0  0  0  0
  9 10  1  0  0  0  0
  9 19  1  0  0  0  0
  9 30  1  0  0  0  0
 10 11  1  0  0  0  0
 10 31  1  0  0  0  0
 11 12  2  0  0  0  0
 11 13  1  0  0  0  0
 13 14  1  0  0  0  0
 13 32  1  0  0  0  0
 14 18  1  0  0  0  0
 14 15  2  0  0  0  0
 15 16  1  0  0  0  0
 16 17  2  0  0  0  0
 16 33  1  0  0  0  0
 17 18  1  0  0  0  0
 17 34  1  0  0  0  0
 19 20  1  0  0  0  0
 19 35  1  0  0  0  0
 19 36  1  0  0  0  0
 20 37  1  0  0  0  0
 20 38  1  0  0  0  0
M  CHG  1   2  -1
M  CHG  1   6   1
M  END
> <s_m_source_file>
AV-unprocessed.smi

> <i_m_source_file_index>
1813

> <i_lp_mmshare_version>
43012

> <i_f3d_flags>
0

> <s_epik_input>
W0NIM11bTkhdQyg9TylbQ0gyXU4xW0NIMl1bQ0gyXVtDSF0oW0NIMl1bQ0gyXTEpW05IXUMoPU8pW05IXWMybltjSF1bY0hdczI=

> <s_epik_cmdline>
J2VwaWtfcHl0aG9uJywgJy1waCcsICc3LjAnLCAnLXRuJywgJzgnLCAnLW1hJywgJzIwMCcsICctbWV0YWxfYmluZGluZycsICctaW1hZScsICc8aW5maWxlLm1hZT4nLCAnLW9tYWUnLCAnPG91dGZpbGUubWFlPic=

> <r_lp_tautomer_probability>
0.999

> <r_epik_Ionization_Penalty>
6.14232

> <r_epik_Ionization_Penalty_Charging>
6.14218

> <r_epik_Ionization_Penalty_Neutral>
0.000139308

> <r_epik_State_Penalty>
6.98503

> <r_epik_Charging_Adjusted_Penalty>
13.1272

> <i_epik_Tot_Q>
0

> <i_epik_Tot_abs_Q>
2

> <r_epik_Metal_State_Penalty>
2.95036

> <b_epik_Metal_Only>
1

> <s_lp_Force_Field>
OPLS_2005

> <r_lp_Energy>
8.34863

> <b_lp_Chiralities_Consistent>
1

> <s_lp_Variant>
AV-unprocessed.smi:1813-6

> <Gold.Version>
5.8.1

> <Gold.Id.Protein>
6NUR|6NUR_protein|mol2

> <Gold.PLP.Fitness>
42.5960

> <Gold.PLP.PLP>
-34.3381

> <Gold.PLP.part.hbond>
-3.0000

> <Gold.PLP.part.metal>
0.0000

> <Gold.PLP.part.buried>
-3.4716

> <Gold.PLP.part.nonpolar>
-27.7160

> <Gold.PLP.part.repulsive>
0.3492

> <Gold.PLP.ligand.clash>
0.0000

> <Gold.PLP.ligand.torsion>
0.3964

> <Gold.PLP.Chemscore.Hbond>
3.0000

> <Gold.PLP.Chemscore.CHOScore>
0.0000

> <Gold.PLP.Chemscore.Metal>
0.0000

> <Gold.Chemscore.Hbonds>
donor molecule, donor type, donor heavy atom, donor atom, acceptor molecule, acceptor atom, score
      L1  H     6    39       P1  7948  2.00
      P1  H  7997  8008       L1    12  1.00

> <Gold.PLP.Chemscore.Internal.Correction>
0.0507

> <Gold.Rescore>
     Score         DG    S(hbond)    S(metal)    S(lipo)     H(rot)  DE(clash)    DE(int)     intcor
     12.25     -15.60       2.00        0.00      67.42       1.73       0.01       3.34       ----

> <Gold.Chemscore.Fitness>
12.2472

> <Gold.Chemscore.DG>
-15.6012

> <Gold.Chemscore.ZeroCoef>
-5.4800

> <Gold.Chemscore.Hbond>
1.9954

> <Gold.Chemscore.Metal>
0.0000

> <Gold.Chemscore.Lipo>
67.4217

> <Gold.Chemscore.Internal_Hbond>
0.0000

> <Gold.Chemscore.DEClash>
0.0149

> <Gold.Chemscore.DEInternal>
3.3391

> <Gold.Chemscore.Rot>
1.7312

> <Gold.Chemscore.Internal.Correction>
   9.000000E+99

> <Gold.Chemscore.Hbonds>
donor molecule, donor type, donor heavy atom, donor atom, acceptor molecule, acceptor atom, score
      L1  H     6    39       P1  7948  0.99
      P1  H  7997  8008       L1    12  0.99

> <Gold.Chemscore.Hbond.Weighted>
-6.6647

> <Gold.Chemscore.Metal.Weighted>
-0.0000

> <Gold.Chemscore.Lipo.Weighted>
-7.8883

> <Gold.Chemscore.Internal_Hbond.Weighted>
0.0000

> <Gold.Chemscore.DEClash.Weighted>
0.0149

> <Gold.Chemscore.DEInternal.Weighted>
3.3391

> <Gold.Chemscore.Rot.Weighted>
4.4319

> <Gold.Chemscore.Internal.Correction.Weighted>
   9.000000E+99

> <Gold.Protein.RotatedTorsions>
[ 6907 6896 6895 6894 ] final  -82.89 input  -60.11 | X-H torsion
[ 7974 7965 7964 7962 ] final  119.08 input  175.53 | X-H torsion
[ 8008 7997 7996 7995 ] final  -37.39 input   59.86 | X-H torsion
[ 10167 10162 10161 10158 ] final   25.07 input  -65.29 | X-H torsion
[ 10718 10713 10712 10709 ] final   -4.45 input   66.30 | X-H torsion
[ 10763 10752 10751 10750 ] final   79.51 input  -60.55 | X-H torsion
[ 11005 11000 10999 10996 ] final   59.94 input  -57.11 | X-H torsion

> <Gold.Protein.ActiveResidues>
 VAL166  LYS551  ARG553  GLY616  TRP617  ASP618  TYR619  PRO620  LYS621  CYS622 
 ASP623  PHE694  ASN695  SER759  ASP760  ASP761  ALA762  ILE779  LEU786  VAL792 
 PHE793  MET794  SER795  GLU796  ALA797  LYS798  CYS799  TRP800  GLU811  SER814 

> <Gold.Protein.RotatedAtoms>
  150.6891  134.3595  159.4943 H   0  0  0  0  0  0  0  0  0  0  0  0  # atno 6907 bound_to 6896
  152.1426  134.9048  160.0562 H   0  0  0  0  0  0  0  0  0  0  0  0  # atno 6908 bound_to 6896
  152.0176  133.3851  159.4282 H   0  0  0  0  0  0  0  0  0  0  0  0  # atno 6909 bound_to 6896
  145.1474  139.3231  143.4584 H   0  0  0  0  0  0  0  0  0  0  0  0  # atno 7974 bound_to 7965
  154.4054  140.1605  156.2529 H   0  0  0  0  0  0  0  0  0  0  0  0  # atno 8008 bound_to 7997
  155.9103  140.3427  155.6071 H   0  0  0  0  0  0  0  0  0  0  0  0  # atno 8009 bound_to 7997
  155.7344  140.0784  157.2265 H   0  0  0  0  0  0  0  0  0  0  0  0  # atno 8010 bound_to 7997
  140.5136  144.0119  150.6384 H   0  0  0  0  0  0  0  0  0  0  0  0  # atno 10167 bound_to 10162
  156.7612  130.5270  149.5785 H   0  0  0  0  0  0  0  0  0  0  0  0  # atno 10718 bound_to 10713
  153.0958  135.4837  154.8776 H   0  0  0  0  0  0  0  0  0  0  0  0  # atno 10763 bound_to 10752
  154.7323  135.3063  154.8873 H   0  0  0  0  0  0  0  0  0  0  0  0  # atno 10764 bound_to 10752
  153.9505  135.6824  153.4797 H   0  0  0  0  0  0  0  0  0  0  0  0  # atno 10765 bound_to 10752
  140.0268  134.6072  155.9562 H   0  0  0  0  0  0  0  0  0  0  0  0  # atno 11005 bound_to 11000
  146.3498  140.1535  142.8592 LP  0  0  0  0  0  0  0  0  0  0  0  0  # atno 17320 bound_to 7965
  145.0467  140.8986  143.5020 LP  0  0  0  0  0  0  0  0  0  0  0  0  # atno 17321 bound_to 7965
  140.3449  143.2997  152.0549 LP  0  0  0  0  0  0  0  0  0  0  0  0  # atno 17342 bound_to 10162
  139.4903  144.6416  151.6865 LP  0  0  0  0  0  0  0  0  0  0  0  0  # atno 17343 bound_to 10162
  156.1338  130.6196  151.0371 LP  0  0  0  0  0  0  0  0  0  0  0  0  # atno 17370 bound_to 10713
  157.6734  131.0856  150.7556 LP  0  0  0  0  0  0  0  0  0  0  0  0  # atno 17371 bound_to 10713
  141.1807  133.6546  156.5009 LP  0  0  0  0  0  0  0  0  0  0  0  0  # atno 17394 bound_to 11000
  140.4294  134.7116  157.4933 LP  0  0  0  0  0  0  0  0  0  0  0  0  # atno 17395 bound_to 11000

$$$$
