AV-unprocessed.smi:765|AV-procd|sdf|3648|dock9
  -GOLD-   22720 1 53D 1   1.00000     0.00000
 Structure written by MMmdl.
 39 40  0  0  0  0  0  0  0  0  1 V2000
  147.8748  141.3346  154.4021 C   0  0  0  0  0  0  0  0  0  0  0  0
  148.9338  140.5276  155.1667 C   0  0  1  0  0  0  0  0  0  0  0  0
  149.8174  139.7114  154.2065 C   0  0  0  0  0  0  0  0  0  0  0  0
  150.8910  138.9175  154.9636 C   0  0  0  0  0  0  0  0  0  0  0  0
  151.7438  139.8423  155.8470 C   0  0  0  0  0  0  0  0  0  0  0  0
  150.8828  140.6588  156.8421 C   0  0  1  0  0  0  0  0  0  0  0  0
  150.2195  139.7648  157.8128 C   0  0  0  0  0  0  0  0  0  0  0  0
  149.6998  139.0632  158.5723 N   0  0  0  0  0  0  0  0  0  0  0  0
  151.7205  141.6476  157.5237 N   0  0  0  0  0  0  0  0  0  0  0  0
  151.3344  142.5234  158.4673 C   0  0  0  0  0  0  0  0  0  0  0  0
  150.1744  142.6147  158.8693 O   0  0  0  0  0  0  0  0  0  0  0  0
  152.4385  143.4246  159.0429 C   0  0  1  0  0  0  0  0  0  0  0  0
  152.1110  144.9270  158.9215 C   0  0  0  0  0  0  0  0  0  0  0  0
  152.7419  143.0361  160.4157 N   0  0  0  0  0  0  0  0  0  0  0  0
  152.4533  143.7261  161.5758 C   0  0  0  0  0  0  0  0  0  0  0  0
  152.9609  143.0067  162.6195 C   0  0  0  0  0  0  0  0  0  0  0  0
  153.5614  141.8801  161.9923 C   0  0  0  0  0  0  0  0  0  0  0  0
  153.4365  141.9040  160.6758 N   0  0  0  0  0  0  0  0  0  0  0  0
  149.8095  141.4403  156.0497 C   0  0  0  0  0  0  0  0  0  0  0  0
  148.3361  142.0558  153.7265 H   0  0  0  0  0  0  0  0  0  0  0  0
  147.2301  141.8858  155.0872 H   0  0  0  0  0  0  0  0  0  0  0  0
  147.2381  140.6806  153.8057 H   0  0  0  0  0  0  0  0  0  0  0  0
  148.4030  139.8286  155.8146 H   0  0  0  0  0  0  0  0  0  0  0  0
  149.2016  139.0272  153.6216 H   0  0  0  0  0  0  0  0  0  0  0  0
  150.2992  140.3798  153.4915 H   0  0  0  0  0  0  0  0  0  0  0  0
  150.4175  138.1506  155.5777 H   0  0  0  0  0  0  0  0  0  0  0  0
  151.5304  138.3913  154.2542 H   0  0  0  0  0  0  0  0  0  0  0  0
  152.4810  139.2422  156.3814 H   0  0  0  0  0  0  0  0  0  0  0  0
  152.3106  140.5210  155.2076 H   0  0  0  0  0  0  0  0  0  0  0  0
  152.6959  141.6542  157.2633 H   0  0  0  0  0  0  0  0  0  0  0  0
  153.3390  143.2457  158.4528 H   0  0  0  0  0  0  0  0  0  0  0  0
  151.9402  145.2089  157.8821 H   0  0  0  0  0  0  0  0  0  0  0  0
  152.9367  145.5350  159.2922 H   0  0  0  0  0  0  0  0  0  0  0  0
  151.2200  145.2008  159.4880 H   0  0  0  0  0  0  0  0  0  0  0  0
  151.9165  144.6632  161.5625 H   0  0  0  0  0  0  0  0  0  0  0  0
  152.9142  143.2502  163.6704 H   0  0  0  0  0  0  0  0  0  0  0  0
  154.0845  141.0536  162.4504 H   0  0  0  0  0  0  0  0  0  0  0  0
  150.2923  142.1883  155.4181 H   0  0  0  0  0  0  0  0  0  0  0  0
  149.1745  141.9945  156.7428 H   0  0  0  0  0  0  0  0  0  0  0  0
  1  2  1  0  0  0  0
  1 20  1  0  0  0  0
  1 21  1  0  0  0  0
  1 22  1  0  0  0  0
  2 19  1  0  0  0  0
  2  3  1  0  0  0  0
  2 23  1  0  0  0  0
  3  4  1  0  0  0  0
  3 24  1  0  0  0  0
  3 25  1  0  0  0  0
  4  5  1  0  0  0  0
  4 26  1  0  0  0  0
  4 27  1  0  0  0  0
  5  6  1  0  0  0  0
  5 28  1  0  0  0  0
  5 29  1  0  0  0  0
  6  7  1  0  0  0  0
  6  9  1  0  0  0  0
  6 19  1  0  0  0  0
  7  8  3  0  0  0  0
  9 10  1  0  0  0  0
  9 30  1  0  0  0  0
 10 11  2  0  0  0  0
 10 12  1  0  0  0  0
 12 13  1  0  0  0  0
 12 14  1  0  0  0  0
 12 31  1  0  0  0  0
 13 32  1  0  0  0  0
 13 33  1  0  0  0  0
 13 34  1  0  0  0  0
 14 18  1  0  0  0  0
 14 15  1  0  0  0  0
 15 16  2  0  0  0  0
 15 35  1  0  0  0  0
 16 17  1  0  0  0  0
 16 36  1  0  0  0  0
 17 18  2  0  0  0  0
 17 37  1  0  0  0  0
 19 38  1  0  0  0  0
 19 39  1  0  0  0  0
M  END
> <s_m_source_file>
AV-unprocessed.smi

> <i_m_source_file_index>
765

> <i_lp_mmshare_version>
43012

> <i_f3d_flags>
0

> <s_epik_input>
W0NIM11bQ0BASF0oW0NIMl0xKVtDSDJdW0NIMl1bQ0gyXVtDQEBdMShDI04pW05IXUMoPU8pW0NASF0oW0NIM10pbjJbY0hdW2NIXVtjSF1uMg==

> <s_epik_cmdline>
J2VwaWtfcHl0aG9uJywgJy1waCcsICc3LjAnLCAnLXRuJywgJzgnLCAnLW1hJywgJzIwMCcsICctbWV0YWxfYmluZGluZycsICctaW1hZScsICc8aW5maWxlLm1hZT4nLCAnLW9tYWUnLCAnPG91dGZpbGUubWFlPic=

> <r_lp_tautomer_probability>
1

> <r_epik_Ionization_Penalty>
2.71142e-05

> <r_epik_Ionization_Penalty_Charging>
0

> <r_epik_Ionization_Penalty_Neutral>
2.71142e-05

> <r_epik_State_Penalty>
-0

> <r_epik_Charging_Adjusted_Penalty>
0

> <i_epik_Tot_Q>
0

> <i_epik_Tot_abs_Q>
0

> <r_epik_Metal_State_Penalty>
-0

> <b_epik_Metal_Only>
0

> <s_lp_Force_Field>
OPLS_2005

> <r_lp_Energy>
11.5189

> <b_lp_Chiralities_Consistent>
1

> <s_lp_Variant>
AV-unprocessed.smi:765-6

> <Gold.Version>
5.8.1

> <Gold.Id.Protein>
6NUR|6NUR_protein|mol2

> <Gold.PLP.Fitness>
44.6969

> <Gold.PLP.PLP>
-45.6514

> <Gold.PLP.part.hbond>
-0.4727

> <Gold.PLP.part.metal>
0.0000

> <Gold.PLP.part.buried>
-2.5878

> <Gold.PLP.part.nonpolar>
-41.4546

> <Gold.PLP.part.repulsive>
0.1524

> <Gold.PLP.ligand.clash>
0.0000

> <Gold.PLP.ligand.torsion>
0.5276

> <Gold.PLP.Chemscore.Hbond>
0.0000

> <Gold.PLP.Chemscore.CHOScore>
0.0000

> <Gold.PLP.Chemscore.Metal>
0.0000

> <Gold.PLP.Chemscore.Internal.Correction>
0.1008

> <Gold.Rescore>
     Score         DG    S(hbond)    S(metal)    S(lipo)     H(rot)  DE(clash)    DE(int)     intcor
     13.09     -14.78       0.00        0.00     110.53       1.42       0.14       1.55       ----

> <Gold.Chemscore.Fitness>
13.0908

> <Gold.Chemscore.DG>
-14.7809

> <Gold.Chemscore.ZeroCoef>
-5.4800

> <Gold.Chemscore.Hbond>
0.0000

> <Gold.Chemscore.Metal>
0.0000

> <Gold.Chemscore.Lipo>
110.5284

> <Gold.Chemscore.Internal_Hbond>
0.0000

> <Gold.Chemscore.DEClash>
0.1400

> <Gold.Chemscore.DEInternal>
1.5501

> <Gold.Chemscore.Rot>
1.4183

> <Gold.Chemscore.Internal.Correction>
   9.000000E+99

> <Gold.Chemscore.Hbond.Weighted>
-0.0000

> <Gold.Chemscore.Metal.Weighted>
-0.0000

> <Gold.Chemscore.Lipo.Weighted>
-12.9318

> <Gold.Chemscore.Internal_Hbond.Weighted>
0.0000

> <Gold.Chemscore.DEClash.Weighted>
0.1400

> <Gold.Chemscore.DEInternal.Weighted>
1.5501

> <Gold.Chemscore.Rot.Weighted>
3.6309

> <Gold.Chemscore.Internal.Correction.Weighted>
   9.000000E+99

> <Gold.Protein.RotatedTorsions>
[ 6907 6896 6895 6894 ] final -147.88 input  -60.11 | X-H torsion
[ 7974 7965 7964 7962 ] final  121.68 input  175.53 | X-H torsion
[ 8008 7997 7996 7995 ] final -128.86 input   59.86 | X-H torsion
[ 10167 10162 10161 10158 ] final  -71.26 input  -65.29 | X-H torsion
[ 10718 10713 10712 10709 ] final   71.48 input   66.30 | X-H torsion
[ 10763 10752 10751 10750 ] final    9.37 input  -60.55 | X-H torsion
[ 11005 11000 10999 10996 ] final   82.11 input  -57.11 | X-H torsion

> <Gold.Protein.ActiveResidues>
 VAL166  LYS551  ARG553  GLY616  TRP617  ASP618  TYR619  PRO620  LYS621  CYS622 
 ASP623  PHE694  ASN695  SER759  ASP760  ASP761  ALA762  ILE779  LEU786  VAL792 
 PHE793  MET794  SER795  GLU796  ALA797  LYS798  CYS799  TRP800  GLU811  SER814 

> <Gold.Protein.RotatedAtoms>
  151.1619  133.4840  159.2594 H   0  0  0  0  0  0  0  0  0  0  0  0  # atno 6907 bound_to 6896
  151.1446  135.0196  159.8651 H   0  0  0  0  0  0  0  0  0  0  0  0  # atno 6908 bound_to 6896
  152.5463  134.1509  159.8571 H   0  0  0  0  0  0  0  0  0  0  0  0  # atno 6909 bound_to 6896
  145.1165  139.3417  143.4736 H   0  0  0  0  0  0  0  0  0  0  0  0  # atno 7974 bound_to 7965
  155.2697  140.0439  157.3005 H   0  0  0  0  0  0  0  0  0  0  0  0  # atno 8008 bound_to 7997
  154.5661  140.2360  155.8231 H   0  0  0  0  0  0  0  0  0  0  0  0  # atno 8009 bound_to 7997
  156.2086  140.3005  155.9689 H   0  0  0  0  0  0  0  0  0  0  0  0  # atno 8010 bound_to 7997
  140.5287  143.2324  151.7301 H   0  0  0  0  0  0  0  0  0  0  0  0  # atno 10167 bound_to 10162
  157.6453  130.9530  150.0794 H   0  0  0  0  0  0  0  0  0  0  0  0  # atno 10718 bound_to 10713
  153.2147  135.6873  153.8071 H   0  0  0  0  0  0  0  0  0  0  0  0  # atno 10763 bound_to 10752
  153.7291  135.3255  155.3283 H   0  0  0  0  0  0  0  0  0  0  0  0  # atno 10764 bound_to 10752
  154.8240  135.4631  154.0970 H   0  0  0  0  0  0  0  0  0  0  0  0  # atno 10765 bound_to 10752
  139.9075  134.8047  156.2131 H   0  0  0  0  0  0  0  0  0  0  0  0  # atno 11005 bound_to 11000
  146.3523  140.1106  142.8604 LP  0  0  0  0  0  0  0  0  0  0  0  0  # atno 17320 bound_to 7965
  145.0788  140.9207  143.4838 LP  0  0  0  0  0  0  0  0  0  0  0  0  # atno 17321 bound_to 7965
  139.4947  144.4147  152.0043 LP  0  0  0  0  0  0  0  0  0  0  0  0  # atno 17342 bound_to 10162
  140.3248  144.3386  150.6001 LP  0  0  0  0  0  0  0  0  0  0  0  0  # atno 17343 bound_to 10162
  156.1775  130.3648  149.9080 LP  0  0  0  0  0  0  0  0  0  0  0  0  # atno 17370 bound_to 10713
  156.7041  130.8944  151.3602 LP  0  0  0  0  0  0  0  0  0  0  0  0  # atno 17371 bound_to 10713
  141.0453  133.6916  156.1672 LP  0  0  0  0  0  0  0  0  0  0  0  0  # atno 17394 bound_to 11000
  140.6893  134.4683  157.5589 LP  0  0  0  0  0  0  0  0  0  0  0  0  # atno 17395 bound_to 11000

$$$$
