AV-unprocessed.smi:3345|AV-procd|sdf|12899|dock6
  -GOLD-   2272019313D 1   1.00000     0.00000
 Structure written by MMmdl.
 40 41  0  0  0  0  0  0  0  0  1 V2000
  151.5699  144.2667  158.1559 C   0  0  0  0  0  0  0  0  0  0  0  0
  151.0722  142.8170  158.2211 C   0  0  2  0  0  0  0  0  0  0  0  0
  152.1945  141.8476  158.6514 C   0  0  0  0  0  0  0  0  0  0  0  0
  152.3539  141.6722  160.0970 N   0  0  0  0  0  0  0  0  0  0  0  0
  152.4251  142.9407  160.8178 C   0  0  0  0  0  0  0  0  0  0  0  0
  152.5907  142.7270  162.3321 C   0  0  0  0  0  0  0  0  0  0  0  0
  153.7475  141.9346  162.5801 O   0  0  0  0  0  0  0  0  0  0  0  0
  153.6991  140.6705  161.9264 C   0  0  0  0  0  0  0  0  0  0  0  0
  153.5362  140.8790  160.4108 C   0  0  0  0  0  0  0  0  0  0  0  0
  150.5612  142.4170  156.9124 N   0  0  0  0  0  0  0  0  0  0  0  0
  149.9320  141.2640  156.6330 C   0  0  0  0  0  0  0  0  0  0  0  0
  149.5493  140.4730  157.4958 O   0  0  0  0  0  0  0  0  0  0  0  0
  149.7571  140.9452  155.1408 C   0  0  2  0  0  0  0  0  0  0  0  0
  148.2813  140.9553  154.6922 C   0  0  0  0  0  0  0  0  0  0  0  0
  150.4228  139.6836  154.8335 N   0  0  0  0  0  0  0  0  0  0  0  0
  151.6461  139.2594  155.1589 C   0  0  0  0  0  0  0  0  0  0  0  0
  151.9075  138.0183  154.7742 N   0  0  0  0  0  0  0  0  0  0  0  0
  150.7144  137.7066  154.1873 C   0  0  0  0  0  0  0  0  0  0  0  0
  149.7869  138.6635  154.2049 N   0  0  0  0  0  0  0  0  0  0  0  0
  151.9493  144.5933  159.1246 H   0  0  0  0  0  0  0  0  0  0  0  0
  150.7649  144.9456  157.8725 H   0  0  0  0  0  0  0  0  0  0  0  0
  152.3740  144.3804  157.4281 H   0  0  0  0  0  0  0  0  0  0  0  0
  150.2774  142.7860  158.9672 H   0  0  0  0  0  0  0  0  0  0  0  0
  151.9790  140.8750  158.2067 H   0  0  0  0  0  0  0  0  0  0  0  0
  153.1411  142.1695  158.2147 H   0  0  0  0  0  0  0  0  0  0  0  0
  153.2600  143.5340  160.4422 H   0  0  0  0  0  0  0  0  0  0  0  0
  151.5232  143.5269  160.6467 H   0  0  0  0  0  0  0  0  0  0  0  0
  152.6975  143.6848  162.8411 H   0  0  0  0  0  0  0  0  0  0  0  0
  151.7099  142.2381  162.7504 H   0  0  0  0  0  0  0  0  0  0  0  0
  154.6182  140.1241  162.1379 H   0  0  0  0  0  0  0  0  0  0  0  0
  152.8750  140.0783  162.3258 H   0  0  0  0  0  0  0  0  0  0  0  0
  153.4710  139.9071  159.9205 H   0  0  0  0  0  0  0  0  0  0  0  0
  154.4268  141.3697  160.0155 H   0  0  0  0  0  0  0  0  0  0  0  0
  150.8211  143.0055  156.1343 H   0  0  0  0  0  0  0  0  0  0  0  0
  150.2722  141.7256  154.5784 H   0  0  0  0  0  0  0  0  0  0  0  0
  147.8218  141.9269  154.8766 H   0  0  0  0  0  0  0  0  0  0  0  0
  147.6872  140.2050  155.2156 H   0  0  0  0  0  0  0  0  0  0  0  0
  148.1993  140.7538  153.6237 H   0  0  0  0  0  0  0  0  0  0  0  0
  152.3572  139.8680  155.6979 H   0  0  0  0  0  0  0  0  0  0  0  0
  150.5199  136.7417  153.7425 H   0  0  0  0  0  0  0  0  0  0  0  0
  1  2  1  0  0  0  0
  1 20  1  0  0  0  0
  1 21  1  0  0  0  0
  1 22  1  0  0  0  0
  2  3  1  0  0  0  0
  2 10  1  0  0  0  0
  2 23  1  0  0  0  0
  3  4  1  0  0  0  0
  3 24  1  0  0  0  0
  3 25  1  0  0  0  0
  4  9  1  0  0  0  0
  4  5  1  0  0  0  0
  5  6  1  0  0  0  0
  5 26  1  0  0  0  0
  5 27  1  0  0  0  0
  6  7  1  0  0  0  0
  6 28  1  0  0  0  0
  6 29  1  0  0  0  0
  7  8  1  0  0  0  0
  8  9  1  0  0  0  0
  8 30  1  0  0  0  0
  8 31  1  0  0  0  0
  9 32  1  0  0  0  0
  9 33  1  0  0  0  0
 10 11  1  0  0  0  0
 10 34  1  0  0  0  0
 11 12  2  0  0  0  0
 11 13  1  0  0  0  0
 13 14  1  0  0  0  0
 13 15  1  0  0  0  0
 13 35  1  0  0  0  0
 14 36  1  0  0  0  0
 14 37  1  0  0  0  0
 14 38  1  0  0  0  0
 15 19  1  0  0  0  0
 15 16  1  0  0  0  0
 16 17  2  0  0  0  0
 16 39  1  0  0  0  0
 17 18  1  0  0  0  0
 18 19  2  0  0  0  0
 18 40  1  0  0  0  0
M  END
> <s_m_source_file>
AV-unprocessed.smi

> <i_m_source_file_index>
3345

> <i_lp_mmshare_version>
43012

> <i_f3d_flags>
0

> <s_epik_input>
W0NIMl0xW0NIMl1PW0NIMl1bQ0gyXU4xW0NIMl1bQ0BASF0oW0NIM10pW05IXUMoPU8pW0NASF0oW0NIM10pbjJbY0hdbltjSF1uMg==

> <s_epik_cmdline>
J2VwaWtfcHl0aG9uJywgJy1waCcsICc3LjAnLCAnLXRuJywgJzgnLCAnLW1hJywgJzIwMCcsICctbWV0YWxfYmluZGluZycsICctaW1hZScsICc8aW5maWxlLm1hZT4nLCAnLW9tYWUnLCAnPG91dGZpbGUubWFlPic=

> <r_lp_tautomer_probability>
1

> <r_epik_Ionization_Penalty>
0.211373

> <r_epik_Ionization_Penalty_Charging>
0

> <r_epik_Ionization_Penalty_Neutral>
0.211373

> <r_epik_State_Penalty>
0.201459

> <r_epik_Charging_Adjusted_Penalty>
0.201459

> <i_epik_Tot_Q>
0

> <i_epik_Tot_abs_Q>
0

> <r_epik_Metal_State_Penalty>
0.201458

> <b_epik_Metal_Only>
0

> <s_lp_Force_Field>
OPLS_2005

> <r_lp_Energy>
29.1887

> <b_lp_Chiralities_Consistent>
1

> <s_lp_Variant>
AV-unprocessed.smi:3345-1

> <Gold.Version>
5.8.1

> <Gold.Id.Protein>
6NUR|6NUR_protein|mol2

> <Gold.PLP.Fitness>
43.9550

> <Gold.PLP.PLP>
-41.7239

> <Gold.PLP.part.hbond>
-1.8189

> <Gold.PLP.part.metal>
0.0000

> <Gold.PLP.part.buried>
-1.5140

> <Gold.PLP.part.nonpolar>
-37.5552

> <Gold.PLP.part.repulsive>
0.3414

> <Gold.PLP.ligand.clash>
0.0000

> <Gold.PLP.ligand.torsion>
0.5750

> <Gold.PLP.Chemscore.Hbond>
0.0000

> <Gold.PLP.Chemscore.CHOScore>
1.0753

> <Gold.PLP.Chemscore.Metal>
0.0000

> <Gold.Chemscore.Hbonds>
donor molecule, donor type, donor heavy atom, donor atom, acceptor molecule, acceptor atom, score
      L1  C    18    40       P1  7948  0.49
      L1  C    18    40       P1  7949  0.47

> <Gold.PLP.Chemscore.Internal.Correction>
0.1552

> <Gold.Rescore>
     Score         DG    S(hbond)    S(metal)    S(lipo)     H(rot)  DE(clash)    DE(int)     intcor
      8.64      -9.29       0.00        0.00      88.01       2.54       0.02       0.63       ----

> <Gold.Chemscore.Fitness>
8.6370

> <Gold.Chemscore.DG>
-9.2866

> <Gold.Chemscore.ZeroCoef>
-5.4800

> <Gold.Chemscore.Hbond>
0.0000

> <Gold.Chemscore.Metal>
0.0000

> <Gold.Chemscore.Lipo>
88.0090

> <Gold.Chemscore.Internal_Hbond>
0.0000

> <Gold.Chemscore.DEClash>
0.0191

> <Gold.Chemscore.DEInternal>
0.6305

> <Gold.Chemscore.Rot>
2.5353

> <Gold.Chemscore.Internal.Correction>
   9.000000E+99

> <Gold.Chemscore.Hbond.Weighted>
-0.0000

> <Gold.Chemscore.Metal.Weighted>
-0.0000

> <Gold.Chemscore.Lipo.Weighted>
-10.2970

> <Gold.Chemscore.Internal_Hbond.Weighted>
0.0000

> <Gold.Chemscore.DEClash.Weighted>
0.0191

> <Gold.Chemscore.DEInternal.Weighted>
0.6305

> <Gold.Chemscore.Rot.Weighted>
6.4905

> <Gold.Chemscore.Internal.Correction.Weighted>
   9.000000E+99

> <Gold.Protein.RotatedTorsions>
[ 6907 6896 6895 6894 ] final  -53.30 input  -60.11 | X-H torsion
[ 7974 7965 7964 7962 ] final -135.19 input  175.53 | X-H torsion
[ 8008 7997 7996 7995 ] final   93.24 input   59.86 | X-H torsion
[ 10167 10162 10161 10158 ] final   -3.69 input  -65.29 | X-H torsion
[ 10718 10713 10712 10709 ] final   96.12 input   66.30 | X-H torsion
[ 10763 10752 10751 10750 ] final   64.75 input  -60.55 | X-H torsion
[ 11005 11000 10999 10996 ] final   18.83 input  -57.11 | X-H torsion

> <Gold.Protein.ActiveResidues>
 VAL166  LYS551  ARG553  GLY616  TRP617  ASP618  TYR619  PRO620  LYS621  CYS622 
 ASP623  PHE694  ASN695  SER759  ASP760  ASP761  ALA762  ILE779  LEU786  VAL792 
 PHE793  MET794  SER795  GLU796  ALA797  LYS798  CYS799  TRP800  GLU811  SER814 

> <Gold.Protein.RotatedAtoms>
  150.8439  134.7741  159.6954 H   0  0  0  0  0  0  0  0  0  0  0  0  # atno 6907 bound_to 6896
  152.4521  134.5369  159.9837 H   0  0  0  0  0  0  0  0  0  0  0  0  # atno 6908 bound_to 6896
  151.5503  133.3380  159.2987 H   0  0  0  0  0  0  0  0  0  0  0  0  # atno 6909 bound_to 6896
  144.9036  140.6803  143.5069 H   0  0  0  0  0  0  0  0  0  0  0  0  # atno 7974 bound_to 7965
  156.0445  140.3315  155.7281 H   0  0  0  0  0  0  0  0  0  0  0  0  # atno 8008 bound_to 7997
  155.5694  140.0626  157.2827 H   0  0  0  0  0  0  0  0  0  0  0  0  # atno 8009 bound_to 7997
  154.4408  140.1863  156.0852 H   0  0  0  0  0  0  0  0  0  0  0  0  # atno 8010 bound_to 7997
  140.6900  143.6510  150.8350 H   0  0  0  0  0  0  0  0  0  0  0  0  # atno 10167 bound_to 10162
  157.6931  131.0568  150.4443 H   0  0  0  0  0  0  0  0  0  0  0  0  # atno 10718 bound_to 10713
  153.0068  135.5381  154.6560 H   0  0  0  0  0  0  0  0  0  0  0  0  # atno 10763 bound_to 10752
  154.5780  135.2847  155.0763 H   0  0  0  0  0  0  0  0  0  0  0  0  # atno 10764 bound_to 10752
  154.1903  135.6501  153.5111 H   0  0  0  0  0  0  0  0  0  0  0  0  # atno 10765 bound_to 10752
  140.4204  134.1525  155.7672 H   0  0  0  0  0  0  0  0  0  0  0  0  # atno 11005 bound_to 11000
  145.3574  139.1690  143.4402 LP  0  0  0  0  0  0  0  0  0  0  0  0  # atno 17320 bound_to 7965
  146.3121  140.3633  142.8667 LP  0  0  0  0  0  0  0  0  0  0  0  0  # atno 17321 bound_to 7965
  140.0221  143.5531  152.2796 LP  0  0  0  0  0  0  0  0  0  0  0  0  # atno 17342 bound_to 10162
  139.6293  144.7642  151.2570 LP  0  0  0  0  0  0  0  0  0  0  0  0  # atno 17343 bound_to 10162
  156.4799  130.4071  149.6467 LP  0  0  0  0  0  0  0  0  0  0  0  0  # atno 17370 bound_to 10713
  156.3517  130.7435  151.2395 LP  0  0  0  0  0  0  0  0  0  0  0  0  # atno 17371 bound_to 10713
  141.1786  133.8461  157.1336 LP  0  0  0  0  0  0  0  0  0  0  0  0  # atno 17394 bound_to 11000
  140.0204  134.9948  157.0580 LP  0  0  0  0  0  0  0  0  0  0  0  0  # atno 17395 bound_to 11000

$$$$
