AV-unprocessed.smi:2857|AV-procd|sdf|10998|dock7
  -GOLD-   2272015453D 1   1.00000     0.00000
 Structure written by MMmdl.
 44 46  0  0  0  0  0  0  0  0  1 V2000
  150.6741  144.6162  159.7309 C   0  0  0  0  0  0  0  0  0  0  0  0
  151.5640  143.4002  159.8877 C   0  0  0  0  0  0  0  0  0  0  0  0
  152.5051  143.3359  160.9333 C   0  0  0  0  0  0  0  0  0  0  0  0
  153.3263  142.2023  161.0698 C   0  0  0  0  0  0  0  0  0  0  0  0
  153.2137  141.1282  160.1628 C   0  0  0  0  0  0  0  0  0  0  0  0
  154.1065  139.9125  160.3261 C   0  0  0  0  0  0  0  0  0  0  0  0
  152.2748  141.1806  159.1066 C   0  0  0  0  0  0  0  0  0  0  0  0
  152.2187  140.0980  158.2521 O   0  0  0  0  0  0  0  0  0  0  0  0
  151.0923  139.9742  157.3954 C   0  0  0  0  0  0  0  0  0  0  0  0
  151.5674  139.9364  155.9314 C   0  0  1  0  0  0  0  0  0  0  0  0
  152.7878  139.2261  155.8762 O   0  0  0  0  0  0  0  0  0  0  0  0
  150.5859  139.2271  154.9749 C   0  0  0  0  0  0  0  0  0  0  0  0
  149.2207  139.7176  155.0934 N   0  0  0  0  0  0  0  0  0  0  0  0
  148.9743  141.0455  154.9529 N   0  0  0  0  0  0  0  0  0  0  0  0
  147.6611  141.1908  155.1177 C   0  0  0  0  0  0  0  0  0  0  0  0
  147.0159  139.9502  155.3748 C   0  0  0  0  0  0  0  0  0  0  0  0
  145.6411  139.5331  155.6329 C   0  0  0  0  0  0  0  0  0  0  0  0
  145.4108  138.2747  155.8428 N   0  0  0  0  0  0  0  0  0  0  0  0
  146.4460  137.3330  155.8261 N   0  0  0  0  0  0  0  0  0  0  0  0
  146.0270  135.9581  156.0885 C   0  0  0  0  0  0  0  0  0  0  0  0
  147.7621  137.6184  155.5921 C   0  0  0  0  0  0  0  0  0  0  0  0
  148.6599  136.7760  155.5904 O   0  0  0  0  0  0  0  0  0  0  0  0
  148.0345  139.0558  155.3468 C   0  0  0  0  0  0  0  0  0  0  0  0
  151.4507  142.3287  158.9798 C   0  0  0  0  0  0  0  0  0  0  0  0
  150.7744  145.2951  160.5783 H   0  0  0  0  0  0  0  0  0  0  0  0
  149.6286  144.3147  159.6602 H   0  0  0  0  0  0  0  0  0  0  0  0
  150.9372  145.1603  158.8234 H   0  0  0  0  0  0  0  0  0  0  0  0
  152.6016  144.1529  161.6333 H   0  0  0  0  0  0  0  0  0  0  0  0
  154.0445  142.1614  161.8755 H   0  0  0  0  0  0  0  0  0  0  0  0
  154.6866  139.7429  159.4185 H   0  0  0  0  0  0  0  0  0  0  0  0
  153.5032  139.0250  160.5184 H   0  0  0  0  0  0  0  0  0  0  0  0
  154.8039  140.0360  161.1551 H   0  0  0  0  0  0  0  0  0  0  0  0
  150.5009  139.0882  157.6341 H   0  0  0  0  0  0  0  0  0  0  0  0
  150.4650  140.8502  157.5553 H   0  0  0  0  0  0  0  0  0  0  0  0
  151.7367  140.9535  155.5750 H   0  0  0  0  0  0  0  0  0  0  0  0
  152.6093  138.3101  156.0244 H   0  0  0  0  0  0  0  0  0  0  0  0
  150.9080  139.3698  153.9420 H   0  0  0  0  0  0  0  0  0  0  0  0
  150.5936  138.1507  155.1431 H   0  0  0  0  0  0  0  0  0  0  0  0
  147.2287  142.1782  155.0497 H   0  0  0  0  0  0  0  0  0  0  0  0
  144.8340  140.2653  155.6483 H   0  0  0  0  0  0  0  0  0  0  0  0
  146.2192  135.3276  155.2193 H   0  0  0  0  0  0  0  0  0  0  0  0
  144.9621  135.8919  156.3168 H   0  0  0  0  0  0  0  0  0  0  0  0
  146.5705  135.5436  156.9389 H   0  0  0  0  0  0  0  0  0  0  0  0
  150.7202  142.4124  158.1893 H   0  0  0  0  0  0  0  0  0  0  0  0
  1  2  1  0  0  0  0
  1 25  1  0  0  0  0
  1 26  1  0  0  0  0
  1 27  1  0  0  0  0
  2 24  1  0  0  0  0
  2  3  2  0  0  0  0
  3  4  1  0  0  0  0
  3 28  1  0  0  0  0
  4  5  2  0  0  0  0
  4 29  1  0  0  0  0
  5  6  1  0  0  0  0
  5  7  1  0  0  0  0
  6 30  1  0  0  0  0
  6 31  1  0  0  0  0
  6 32  1  0  0  0  0
  7  8  1  0  0  0  0
  7 24  2  0  0  0  0
  8  9  1  0  0  0  0
  9 10  1  0  0  0  0
  9 33  1  0  0  0  0
  9 34  1  0  0  0  0
 10 11  1  0  0  0  0
 10 12  1  0  0  0  0
 10 35  1  0  0  0  0
 11 36  1  0  0  0  0
 12 13  1  0  0  0  0
 12 37  1  0  0  0  0
 12 38  1  0  0  0  0
 13 23  1  0  0  0  0
 13 14  1  0  0  0  0
 14 15  2  0  0  0  0
 15 16  1  0  0  0  0
 15 39  1  0  0  0  0
 16 23  2  0  0  0  0
 16 17  1  0  0  0  0
 17 18  2  0  0  0  0
 17 40  1  0  0  0  0
 18 19  1  0  0  0  0
 19 20  1  0  0  0  0
 19 21  1  0  0  0  0
 20 41  1  0  0  0  0
 20 42  1  0  0  0  0
 20 43  1  0  0  0  0
 21 22  2  0  0  0  0
 21 23  1  0  0  0  0
 24 44  1  0  0  0  0
M  END
> <s_m_source_file>
AV-unprocessed.smi

> <i_m_source_file_index>
2857

> <i_lp_mmshare_version>
43012

> <i_f3d_flags>
0

> <s_epik_input>
W0NIM11jMVtjSF1bY0hdYyhbQ0gzXSljKFtjSF0xKU9bQ0gyXVtDQEhdKFtPSF0pW0NIMl1uKG5bY0hdMiljKGMyMyljKD1PKW4oW0NIM10pbltjSF0z

> <s_epik_cmdline>
J2VwaWtfcHl0aG9uJywgJy1waCcsICc3LjAnLCAnLXRuJywgJzgnLCAnLW1hJywgJzIwMCcsICctbWV0YWxfYmluZGluZycsICctaW1hZScsICc8aW5maWxlLm1hZT4nLCAnLW9tYWUnLCAnPG91dGZpbGUubWFlPic=

> <r_lp_tautomer_probability>
1

> <r_epik_Ionization_Penalty>
2.24607e-06

> <r_epik_Ionization_Penalty_Charging>
1.42095e-10

> <r_epik_Ionization_Penalty_Neutral>
2.24593e-06

> <r_epik_State_Penalty>
-0

> <r_epik_Charging_Adjusted_Penalty>
1.42095e-10

> <i_epik_Tot_Q>
0

> <i_epik_Tot_abs_Q>
0

> <r_epik_Metal_State_Penalty>
-0

> <b_epik_Metal_Only>
0

> <s_lp_Force_Field>
OPLS_2005

> <r_lp_Energy>
31.6427

> <b_lp_Chiralities_Consistent>
1

> <s_lp_Variant>
AV-unprocessed.smi:2857-2

> <Gold.Version>
5.8.1

> <Gold.Id.Protein>
6NUR|6NUR_protein|mol2

> <Gold.PLP.Fitness>
47.9365

> <Gold.PLP.PLP>
-43.2906

> <Gold.PLP.part.hbond>
-3.0000

> <Gold.PLP.part.metal>
0.0000

> <Gold.PLP.part.buried>
-1.7892

> <Gold.PLP.part.nonpolar>
-38.4139

> <Gold.PLP.part.repulsive>
0.3704

> <Gold.PLP.ligand.clash>
0.0000

> <Gold.PLP.ligand.torsion>
0.8916

> <Gold.PLP.Chemscore.Hbond>
1.2419

> <Gold.PLP.Chemscore.CHOScore>
0.8886

> <Gold.PLP.Chemscore.Metal>
0.0000

> <Gold.Chemscore.Hbonds>
donor molecule, donor type, donor heavy atom, donor atom, acceptor molecule, acceptor atom, score
      P1  H  7997  8010       L1    11  1.00

> <Gold.PLP.Chemscore.Internal.Correction>
0.0376

> <Gold.Rescore>
     Score         DG    S(hbond)    S(metal)    S(lipo)     H(rot)  DE(clash)    DE(int)     intcor
     16.36     -17.53       1.22        0.00     119.03       2.32       0.42       0.75       ----

> <Gold.Chemscore.Fitness>
16.3624

> <Gold.Chemscore.DG>
-17.5310

> <Gold.Chemscore.ZeroCoef>
-5.4800

> <Gold.Chemscore.Hbond>
1.2194

> <Gold.Chemscore.Metal>
0.0000

> <Gold.Chemscore.Lipo>
119.0324

> <Gold.Chemscore.Internal_Hbond>
0.0000

> <Gold.Chemscore.DEClash>
0.4172

> <Gold.Chemscore.DEInternal>
0.7514

> <Gold.Chemscore.Rot>
2.3236

> <Gold.Chemscore.Internal.Correction>
   9.000000E+99

> <Gold.Chemscore.Hbonds>
donor molecule, donor type, donor heavy atom, donor atom, acceptor molecule, acceptor atom, score
      P1  H  7997  8010       L1    11  0.95

> <Gold.Chemscore.Hbond.Weighted>
-4.0726

> <Gold.Chemscore.Metal.Weighted>
-0.0000

> <Gold.Chemscore.Lipo.Weighted>
-13.9268

> <Gold.Chemscore.Internal_Hbond.Weighted>
0.0000

> <Gold.Chemscore.DEClash.Weighted>
0.4172

> <Gold.Chemscore.DEInternal.Weighted>
0.7514

> <Gold.Chemscore.Rot.Weighted>
5.9484

> <Gold.Chemscore.Internal.Correction.Weighted>
   9.000000E+99

> <Gold.Protein.RotatedTorsions>
[ 6907 6896 6895 6894 ] final  -20.51 input  -60.11 | X-H torsion
[ 7974 7965 7964 7962 ] final  120.70 input  175.53 | X-H torsion
[ 8008 7997 7996 7995 ] final   72.84 input   59.86 | X-H torsion
[ 10167 10162 10161 10158 ] final  -50.53 input  -65.29 | X-H torsion
[ 10718 10713 10712 10709 ] final  150.45 input   66.30 | X-H torsion
[ 10763 10752 10751 10750 ] final   34.93 input  -60.55 | X-H torsion
[ 11005 11000 10999 10996 ] final   82.03 input  -57.11 | X-H torsion

> <Gold.Protein.ActiveResidues>
 VAL166  LYS551  ARG553  GLY616  TRP617  ASP618  TYR619  PRO620  LYS621  CYS622 
 ASP623  PHE694  ASN695  SER759  ASP760  ASP761  ALA762  ILE779  LEU786  VAL792 
 PHE793  MET794  SER795  GLU796  ALA797  LYS798  CYS799  TRP800  GLU811  SER814 

> <Gold.Protein.RotatedAtoms>
  151.2471  135.0609  159.9047 H   0  0  0  0  0  0  0  0  0  0  0  0  # atno 6907 bound_to 6896
  152.5385  134.0372  159.8061 H   0  0  0  0  0  0  0  0  0  0  0  0  # atno 6908 bound_to 6896
  151.0575  133.5523  159.2668 H   0  0  0  0  0  0  0  0  0  0  0  0  # atno 6909 bound_to 6896
  145.1281  139.3345  143.4679 H   0  0  0  0  0  0  0  0  0  0  0  0  # atno 7974 bound_to 7965
  155.7748  140.3483  155.5266 H   0  0  0  0  0  0  0  0  0  0  0  0  # atno 8008 bound_to 7997
  155.8787  140.0998  157.1521 H   0  0  0  0  0  0  0  0  0  0  0  0  # atno 8009 bound_to 7997
  154.4023  140.1326  156.4156 H   0  0  0  0  0  0  0  0  0  0  0  0  # atno 8010 bound_to 7997
  140.6633  143.2654  151.4372 H   0  0  0  0  0  0  0  0  0  0  0  0  # atno 10167 bound_to 10162
  157.2833  131.0839  151.1516 H   0  0  0  0  0  0  0  0  0  0  0  0  # atno 10718 bound_to 10713
  153.0142  135.6347  154.1746 H   0  0  0  0  0  0  0  0  0  0  0  0  # atno 10763 bound_to 10752
  154.1486  135.2830  155.3143 H   0  0  0  0  0  0  0  0  0  0  0  0  # atno 10764 bound_to 10752
  154.6071  135.5568  153.7495 H   0  0  0  0  0  0  0  0  0  0  0  0  # atno 10765 bound_to 10752
  139.9077  134.8041  156.2121 H   0  0  0  0  0  0  0  0  0  0  0  0  # atno 11005 bound_to 11000
  146.3516  140.1268  142.8598 LP  0  0  0  0  0  0  0  0  0  0  0  0  # atno 17320 bound_to 7965
  145.0666  140.9125  143.4907 LP  0  0  0  0  0  0  0  0  0  0  0  0  # atno 17321 bound_to 7965
  139.5873  144.1575  152.2045 LP  0  0  0  0  0  0  0  0  0  0  0  0  # atno 17342 bound_to 10162
  140.0919  144.5613  150.7049 LP  0  0  0  0  0  0  0  0  0  0  0  0  # atno 17343 bound_to 10162
  157.2941  130.6810  149.6129 LP  0  0  0  0  0  0  0  0  0  0  0  0  # atno 17370 bound_to 10713
  155.9665  130.4412  150.5330 LP  0  0  0  0  0  0  0  0  0  0  0  0  # atno 17371 bound_to 10713
  141.0459  133.6913  156.1682 LP  0  0  0  0  0  0  0  0  0  0  0  0  # atno 17394 bound_to 11000
  140.6885  134.4691  157.5589 LP  0  0  0  0  0  0  0  0  0  0  0  0  # atno 17395 bound_to 11000

$$$$
