AV-unprocessed.smi:1726|AV-procd|sdf|6963|dock3
  -GOLD-   22720 8173D 1   1.00000     0.00000
 Structure written by MMmdl.
 42 43  0  0  0  0  0  0  0  0  3 V2000
  145.6054  132.1540  151.4027 C   0  0  0  0  0  0  0  0  0  0  0  0
  146.7256  133.1737  151.1501 C   0  0  0  0  0  0  0  0  0  0  0  0
  146.4921  134.4552  151.8610 N   0  3  1  0  0  0  0  0  0  0  0  0
  145.3643  135.2307  151.2819 C   0  0  0  0  0  0  0  0  0  0  0  0
  145.2454  136.6185  151.9376 C   0  0  0  0  0  0  0  0  0  0  0  0
  145.1452  136.5129  153.4694 C   0  0  0  0  0  0  0  0  0  0  0  0
  146.2973  135.6658  154.0390 C   0  0  2  0  0  0  0  0  0  0  0  0
  147.5636  136.3821  153.8833 N   0  0  0  0  0  0  0  0  0  0  0  0
  148.0840  137.2466  154.7658 C   0  0  0  0  0  0  0  0  0  0  0  0
  147.5228  137.5546  155.8168 O   0  0  0  0  0  0  0  0  0  0  0  0
  149.2897  137.6778  154.3552 N   0  0  0  0  0  0  0  0  0  0  0  0
  150.1834  138.5562  154.9897 C   0  0  0  0  0  0  0  0  0  0  0  0
  149.8163  139.5912  155.7951 C   0  0  0  0  0  0  0  0  0  0  0  0
  150.7916  140.4749  156.4213 C   0  0  0  0  0  0  0  0  0  0  0  0
  150.4175  141.6817  157.2635 C   0  0  0  0  0  0  0  0  0  0  0  0
  150.8613  142.7954  156.6823 F   0  0  0  0  0  0  0  0  0  0  0  0
  149.0947  141.7812  157.3975 F   0  0  0  0  0  0  0  0  0  0  0  0
  150.9585  141.6029  158.4795 F   0  0  0  0  0  0  0  0  0  0  0  0
  152.0896  140.1535  156.0744 C   0  0  0  0  0  0  0  0  0  0  0  0
  152.5367  139.1457  155.2934 N   0  5  0  0  0  0  0  0  0  0  0  0
  151.6166  138.3197  154.7203 C   0  0  0  0  0  0  0  0  0  0  0  0
  151.9535  137.3860  153.9910 O   0  0  0  0  0  0  0  0  0  0  0  0
  146.3287  134.2936  153.3301 C   0  0  0  0  0  0  0  0  0  0  0  0
  145.8502  131.1949  150.9459 H   0  0  0  0  0  0  0  0  0  0  0  0
  144.6527  132.4761  150.9837 H   0  0  0  0  0  0  0  0  0  0  0  0
  145.4623  131.9834  152.4703 H   0  0  0  0  0  0  0  0  0  0  0  0
  147.6590  132.7328  151.5028 H   0  0  0  0  0  0  0  0  0  0  0  0
  146.8530  133.3537  150.0816 H   0  0  0  0  0  0  0  0  0  0  0  0
  145.5132  135.3562  150.2087 H   0  0  0  0  0  0  0  0  0  0  0  0
  144.4352  134.6727  151.4102 H   0  0  0  0  0  0  0  0  0  0  0  0
  146.1107  137.2243  151.6657 H   0  0  0  0  0  0  0  0  0  0  0  0
  144.3732  137.1413  151.5443 H   0  0  0  0  0  0  0  0  0  0  0  0
  145.1412  137.5069  153.9187 H   0  0  0  0  0  0  0  0  0  0  0  0
  144.1928  136.0530  153.7365 H   0  0  0  0  0  0  0  0  0  0  0  0
  146.1210  135.5143  155.1054 H   0  0  0  0  0  0  0  0  0  0  0  0
  148.0907  136.1953  153.0425 H   0  0  0  0  0  0  0  0  0  0  0  0
  149.6428  137.2803  153.4969 H   0  0  0  0  0  0  0  0  0  0  0  0
  148.7767  139.8018  155.9849 H   0  0  0  0  0  0  0  0  0  0  0  0
  152.8894  140.8068  156.4839 H   0  0  0  0  0  0  0  0  0  0  0  0
  145.4063  133.7470  153.5333 H   0  0  0  0  0  0  0  0  0  0  0  0
  147.1346  133.6868  153.7404 H   0  0  0  0  0  0  0  0  0  0  0  0
  147.3223  135.0130  151.7187 H   0  0  0  0  0  0  0  0  0  0  0  0
  1  2  1  0  0  0  0
  1 24  1  0  0  0  0
  1 25  1  0  0  0  0
  1 26  1  0  0  0  0
  2  3  1  0  0  0  0
  2 27  1  0  0  0  0
  2 28  1  0  0  0  0
  3 23  1  0  0  0  0
  3  4  1  0  0  0  0
  3 42  1  0  0  0  0
  4  5  1  0  0  0  0
  4 29  1  0  0  0  0
  4 30  1  0  0  0  0
  5  6  1  0  0  0  0
  5 31  1  0  0  0  0
  5 32  1  0  0  0  0
  6  7  1  0  0  0  0
  6 33  1  0  0  0  0
  6 34  1  0  0  0  0
  7  8  1  0  0  0  0
  7 23  1  0  0  0  0
  7 35  1  0  0  0  0
  8  9  1  0  0  0  0
  8 36  1  0  0  0  0
  9 10  2  0  0  0  0
  9 11  1  0  0  0  0
 11 12  1  0  0  0  0
 11 37  1  0  0  0  0
 12 21  1  0  0  0  0
 12 13  2  0  0  0  0
 13 14  1  0  0  0  0
 13 38  1  0  0  0  0
 14 15  1  0  0  0  0
 14 19  2  0  0  0  0
 15 16  1  0  0  0  0
 15 17  1  0  0  0  0
 15 18  1  0  0  0  0
 19 20  1  0  0  0  0
 19 39  1  0  0  0  0
 20 21  1  0  0  0  0
 21 22  2  0  0  0  0
 23 40  1  0  0  0  0
 23 41  1  0  0  0  0
M  CHG  1   3   1
M  CHG  1  20  -1
M  END
> <s_m_source_file>
AV-unprocessed.smi

> <i_m_source_file_index>
1726

> <i_lp_mmshare_version>
43012

> <i_f3d_flags>
0

> <s_epik_input>
W0NIM11bQ0gyXU4xW0NIMl1bQ0gyXVtDSDJdW0NASF0oW0NIMl0xKVtOSF1DKD1PKVtOSF1jMltjSF1jKEMoRikoRilGKVtjSF1bbkhdYzI9Tw==

> <s_epik_cmdline>
J2VwaWtfcHl0aG9uJywgJy1waCcsICc3LjAnLCAnLXRuJywgJzgnLCAnLW1hJywgJzIwMCcsICctbWV0YWxfYmluZGluZycsICctaW1hZScsICc8aW5maWxlLm1hZT4nLCAnLW9tYWUnLCAnPG91dGZpbGUubWFlPic=

> <r_lp_tautomer_probability>
1

> <r_epik_Ionization_Penalty>
3.01007

> <r_epik_Ionization_Penalty_Charging>
0.14897

> <r_epik_Ionization_Penalty_Neutral>
2.8611

> <r_epik_State_Penalty>
2.85632

> <r_epik_Charging_Adjusted_Penalty>
3.00529

> <i_epik_Tot_Q>
0

> <i_epik_Tot_abs_Q>
2

> <r_epik_Metal_State_Penalty>
0.443826

> <b_epik_Metal_Only>
1

> <s_lp_Force_Field>
OPLS_2005

> <r_lp_Energy>
34.1377

> <b_lp_Chiralities_Consistent>
1

> <s_lp_Variant>
AV-unprocessed.smi:1726-7

> <Gold.Version>
5.8.1

> <Gold.Id.Protein>
6NUR|6NUR_protein|mol2

> <Gold.PLP.Fitness>
44.8173

> <Gold.PLP.PLP>
-31.9869

> <Gold.PLP.part.hbond>
-4.1012

> <Gold.PLP.part.metal>
0.0000

> <Gold.PLP.part.buried>
-5.0583

> <Gold.PLP.part.nonpolar>
-25.5220

> <Gold.PLP.part.repulsive>
1.4780

> <Gold.PLP.ligand.clash>
0.0000

> <Gold.PLP.ligand.torsion>
0.6286

> <Gold.PLP.Chemscore.Hbond>
4.6697

> <Gold.PLP.Chemscore.CHOScore>
0.0000

> <Gold.PLP.Chemscore.Metal>
0.0000

> <Gold.Chemscore.Hbonds>
donor molecule, donor type, donor heavy atom, donor atom, acceptor molecule, acceptor atom, score
      L1  H     3    42       P1  7948  2.00
      L1  H     8    36       P1  7948  0.83
      L1  H    11    37       P1  7948  0.82
      P1  H 10752 10763       L1    22  0.99

> <Gold.PLP.Chemscore.Internal.Correction>
0.0784

> <Gold.Rescore>
     Score         DG    S(hbond)    S(metal)    S(lipo)     H(rot)  DE(clash)    DE(int)     intcor
     19.43     -20.44       3.47        0.00      56.65       1.28       0.31       0.70       ----

> <Gold.Chemscore.Fitness>
19.4288

> <Gold.Chemscore.DG>
-20.4376

> <Gold.Chemscore.ZeroCoef>
-5.4800

> <Gold.Chemscore.Hbond>
3.4747

> <Gold.Chemscore.Metal>
0.0000

> <Gold.Chemscore.Lipo>
56.6479

> <Gold.Chemscore.Internal_Hbond>
0.0000

> <Gold.Chemscore.DEClash>
0.3080

> <Gold.Chemscore.DEInternal>
0.7008

> <Gold.Chemscore.Rot>
1.2796

> <Gold.Chemscore.Internal.Correction>
   9.000000E+99

> <Gold.Chemscore.Hbonds>
donor molecule, donor type, donor heavy atom, donor atom, acceptor molecule, acceptor atom, score
      L1  H     3    42       P1  7948  0.83
      L1  H     8    36       P1  7948  0.80
      L1  H    11    37       P1  7948  0.60
      P1  H 10752 10763       L1    22  0.92

> <Gold.Chemscore.Hbond.Weighted>
-11.6057

> <Gold.Chemscore.Metal.Weighted>
-0.0000

> <Gold.Chemscore.Lipo.Weighted>
-6.6278

> <Gold.Chemscore.Internal_Hbond.Weighted>
0.0000

> <Gold.Chemscore.DEClash.Weighted>
0.3080

> <Gold.Chemscore.DEInternal.Weighted>
0.7008

> <Gold.Chemscore.Rot.Weighted>
3.2759

> <Gold.Chemscore.Internal.Correction.Weighted>
   9.000000E+99

> <Gold.Protein.RotatedTorsions>
[ 6907 6896 6895 6894 ] final  140.32 input  -60.11 | X-H torsion
[ 7974 7965 7964 7962 ] final  113.91 input  175.53 | X-H torsion
[ 8008 7997 7996 7995 ] final  175.34 input   59.86 | X-H torsion
[ 10167 10162 10161 10158 ] final -124.30 input  -65.29 | X-H torsion
[ 10718 10713 10712 10709 ] final -154.30 input   66.30 | X-H torsion
[ 10763 10752 10751 10750 ] final   32.19 input  -60.55 | X-H torsion
[ 11005 11000 10999 10996 ] final  173.31 input  -57.11 | X-H torsion

> <Gold.Protein.ActiveResidues>
 VAL166  LYS551  ARG553  GLY616  TRP617  ASP618  TYR619  PRO620  LYS621  CYS622 
 ASP623  PHE694  ASN695  SER759  ASP760  ASP761  ALA762  ILE779  LEU786  VAL792 
 PHE793  MET794  SER795  GLU796  ALA797  LYS798  CYS799  TRP800  GLU811  SER814 

> <Gold.Protein.RotatedAtoms>
  152.2444  133.5162  159.5288 H   0  0  0  0  0  0  0  0  0  0  0  0  # atno 6907 bound_to 6896
  150.7074  134.1045  159.3987 H   0  0  0  0  0  0  0  0  0  0  0  0  # atno 6908 bound_to 6896
  151.8966  135.0395  160.0553 H   0  0  0  0  0  0  0  0  0  0  0  0  # atno 6909 bound_to 6896
  145.2110  139.2906  143.4268 H   0  0  0  0  0  0  0  0  0  0  0  0  # atno 7974 bound_to 7965
  156.0880  140.1411  156.9628 H   0  0  0  0  0  0  0  0  0  0  0  0  # atno 8008 bound_to 7997
  154.4625  140.0938  156.6978 H   0  0  0  0  0  0  0  0  0  0  0  0  # atno 8009 bound_to 7997
  155.4966  140.3449  155.4366 H   0  0  0  0  0  0  0  0  0  0  0  0  # atno 8010 bound_to 7997
  139.9943  143.5608  152.2329 H   0  0  0  0  0  0  0  0  0  0  0  0  # atno 10167 bound_to 10162
  156.4974  130.8376  151.2595 H   0  0  0  0  0  0  0  0  0  0  0  0  # atno 10718 bound_to 10713
  153.0275  135.6419  154.1317 H   0  0  0  0  0  0  0  0  0  0  0  0  # atno 10763 bound_to 10752
  154.1044  135.2857  155.3246 H   0  0  0  0  0  0  0  0  0  0  0  0  # atno 10764 bound_to 10752
  154.6376  135.5471  153.7815 H   0  0  0  0  0  0  0  0  0  0  0  0  # atno 10765 bound_to 10752
  140.3392  134.7291  157.4190 H   0  0  0  0  0  0  0  0  0  0  0  0  # atno 11005 bound_to 11000
  146.3397  140.2385  142.8595 LP  0  0  0  0  0  0  0  0  0  0  0  0  # atno 17320 bound_to 7965
  144.9856  140.8500  143.5370 LP  0  0  0  0  0  0  0  0  0  0  0  0  # atno 17321 bound_to 7965
  139.6317  144.7645  151.2521 LP  0  0  0  0  0  0  0  0  0  0  0  0  # atno 17342 bound_to 10162
  140.7443  143.6467  150.8285 LP  0  0  0  0  0  0  0  0  0  0  0  0  # atno 17343 bound_to 10162
  157.7467  130.9993  150.2884 LP  0  0  0  0  0  0  0  0  0  0  0  0  # atno 17370 bound_to 10713
  156.3366  130.3808  149.7445 LP  0  0  0  0  0  0  0  0  0  0  0  0  # atno 17371 bound_to 10713
  140.0796  134.5750  155.8555 LP  0  0  0  0  0  0  0  0  0  0  0  0  # atno 17394 bound_to 11000
  141.2043  133.6638  156.6113 LP  0  0  0  0  0  0  0  0  0  0  0  0  # atno 17395 bound_to 11000

$$$$
