AV-unprocessed.smi:2417|AV-procd|sdf|9549|dock7
  -GOLD-   2272013183D 1   1.00000     0.00000
 Structure written by MMmdl.
 38 39  0  0  0  0  0  0  0  0  1 V2000
  143.4847  144.0052  162.3889 C   0  0  0  0  0  0  0  0  0  0  0  0
  144.8042  143.9806  161.6377 C   0  0  0  0  0  0  0  0  0  0  0  0
  145.6040  145.1177  161.7843 N   0  0  0  0  0  0  0  0  0  0  0  0
  146.7442  145.1864  161.1786 C   0  0  0  0  0  0  0  0  0  0  0  0
  147.2150  144.1380  160.3717 N   0  0  0  0  0  0  0  0  0  0  0  0
  148.5276  144.3422  159.7374 C   0  0  0  0  0  0  0  0  0  0  0  0
  149.4810  145.1705  160.6282 C   0  0  1  0  0  0  0  0  0  0  0  0
  149.5920  144.5845  161.9095 O   0  0  0  0  0  0  0  0  0  0  0  0
  150.8986  145.2913  160.0453 C   0  0  0  0  0  0  0  0  0  0  0  0
  151.3284  144.0283  159.5506 O   0  0  0  0  0  0  0  0  0  0  0  0
  152.1200  143.2439  160.3614 C   0  0  0  0  0  0  0  0  0  0  0  0
  152.6578  142.0723  159.7894 C   0  0  0  0  0  0  0  0  0  0  0  0
  153.4802  141.2136  160.5438 C   0  0  0  0  0  0  0  0  0  0  0  0
  153.7729  141.5197  161.8856 C   0  0  0  0  0  0  0  0  0  0  0  0
  154.5635  140.6959  162.6132 F   0  0  0  0  0  0  0  0  0  0  0  0
  153.2418  142.6844  162.4698 C   0  0  0  0  0  0  0  0  0  0  0  0
  152.4197  143.5436  161.7147 C   0  0  0  0  0  0  0  0  0  0  0  0
  146.4942  142.9978  160.1672 C   0  0  0  0  0  0  0  0  0  0  0  0
  146.9100  142.0917  159.4421 O   0  0  0  0  0  0  0  0  0  0  0  0
  145.1994  142.9330  160.8638 C   0  0  0  0  0  0  0  0  0  0  0  0
  144.3688  141.6716  160.6628 C   0  0  0  0  0  0  0  0  0  0  0  0
  143.4333  143.1806  163.1003 H   0  0  0  0  0  0  0  0  0  0  0  0
  142.6490  143.9196  161.6940 H   0  0  0  0  0  0  0  0  0  0  0  0
  143.3613  144.9349  162.9456 H   0  0  0  0  0  0  0  0  0  0  0  0
  147.4022  146.0541  161.2535 H   0  0  0  0  0  0  0  0  0  0  0  0
  148.9961  143.3990  159.4478 H   0  0  0  0  0  0  0  0  0  0  0  0
  148.3734  144.8637  158.7907 H   0  0  0  0  0  0  0  0  0  0  0  0
  149.0915  146.1800  160.7651 H   0  0  0  0  0  0  0  0  0  0  0  0
  149.3873  143.6648  161.8359 H   0  0  0  0  0  0  0  0  0  0  0  0
  150.8747  146.0066  159.2215 H   0  0  0  0  0  0  0  0  0  0  0  0
  151.5894  145.6759  160.7978 H   0  0  0  0  0  0  0  0  0  0  0  0
  152.4380  141.8293  158.7602 H   0  0  0  0  0  0  0  0  0  0  0  0
  153.8862  140.3206  160.0921 H   0  0  0  0  0  0  0  0  0  0  0  0
  153.4653  142.9204  163.4997 H   0  0  0  0  0  0  0  0  0  0  0  0
  152.0314  144.4270  162.1981 H   0  0  0  0  0  0  0  0  0  0  0  0
  144.1263  141.5467  159.6070 H   0  0  0  0  0  0  0  0  0  0  0  0
  143.4307  141.6821  161.2154 H   0  0  0  0  0  0  0  0  0  0  0  0
  144.9306  140.7950  160.9871 H   0  0  0  0  0  0  0  0  0  0  0  0
  1  2  1  0  0  0  0
  1 22  1  0  0  0  0
  1 23  1  0  0  0  0
  1 24  1  0  0  0  0
  2 20  2  0  0  0  0
  2  3  1  0  0  0  0
  3  4  2  0  0  0  0
  4  5  1  0  0  0  0
  4 25  1  0  0  0  0
  5  6  1  0  0  0  0
  5 18  1  0  0  0  0
  6  7  1  0  0  0  0
  6 26  1  0  0  0  0
  6 27  1  0  0  0  0
  7  8  1  0  0  0  0
  7  9  1  0  0  0  0
  7 28  1  0  0  0  0
  8 29  1  0  0  0  0
  9 10  1  0  0  0  0
  9 30  1  0  0  0  0
  9 31  1  0  0  0  0
 10 11  1  0  0  0  0
 11 17  1  0  0  0  0
 11 12  2  0  0  0  0
 12 13  1  0  0  0  0
 12 32  1  0  0  0  0
 13 14  2  0  0  0  0
 13 33  1  0  0  0  0
 14 15  1  0  0  0  0
 14 16  1  0  0  0  0
 16 17  2  0  0  0  0
 16 34  1  0  0  0  0
 17 35  1  0  0  0  0
 18 19  2  0  0  0  0
 18 20  1  0  0  0  0
 20 21  1  0  0  0  0
 21 36  1  0  0  0  0
 21 37  1  0  0  0  0
 21 38  1  0  0  0  0
M  END
> <s_m_source_file>
AV-unprocessed.smi

> <i_m_source_file_index>
2417

> <i_lp_mmshare_version>
43012

> <i_f3d_flags>
0

> <s_epik_input>
W0NIM11jMW5bY0hdbihjKD1PKWMxW0NIM10pW0NIMl1bQ0BIXShbT0hdKVtDSDJdT2MyW2NIXVtjSF1jKEYpW2NIXVtjSF0y

> <s_epik_cmdline>
J2VwaWtfcHl0aG9uJywgJy1waCcsICc3LjAnLCAnLXRuJywgJzgnLCAnLW1hJywgJzIwMCcsICctbWV0YWxfYmluZGluZycsICctaW1hZScsICc8aW5maWxlLm1hZT4nLCAnLW9tYWUnLCAnPG91dGZpbGUubWFlPic=

> <r_lp_tautomer_probability>
1

> <r_epik_Ionization_Penalty>
3.65384e-05

> <r_epik_Ionization_Penalty_Charging>
8.23007e-08

> <r_epik_Ionization_Penalty_Neutral>
3.64561e-05

> <r_epik_State_Penalty>
-0

> <r_epik_Charging_Adjusted_Penalty>
8.23007e-08

> <i_epik_Tot_Q>
0

> <i_epik_Tot_abs_Q>
0

> <r_epik_Metal_State_Penalty>
-0

> <b_epik_Metal_Only>
0

> <s_lp_Force_Field>
OPLS_2005

> <r_lp_Energy>
22.9041

> <b_lp_Chiralities_Consistent>
1

> <s_lp_Variant>
AV-unprocessed.smi:2417-2

> <Gold.Version>
5.8.1

> <Gold.Id.Protein>
6NUR|6NUR_protein|mol2

> <Gold.PLP.Fitness>
50.2927

> <Gold.PLP.PLP>
-50.6922

> <Gold.PLP.part.hbond>
-5.1098

> <Gold.PLP.part.metal>
0.0000

> <Gold.PLP.part.buried>
-5.8323

> <Gold.PLP.part.nonpolar>
-43.4302

> <Gold.PLP.part.repulsive>
2.7667

> <Gold.PLP.ligand.clash>
0.0000

> <Gold.PLP.ligand.torsion>
0.8264

> <Gold.PLP.Chemscore.Hbond>
0.4000

> <Gold.PLP.Chemscore.CHOScore>
0.0000

> <Gold.PLP.Chemscore.Metal>
0.0000

> <Gold.Chemscore.Hbonds>
donor molecule, donor type, donor heavy atom, donor atom, acceptor molecule, acceptor atom, score
      P1  H  6934  6946       L1    19  0.65

> <Gold.PLP.Chemscore.Internal.Correction>
0.0533

> <Gold.Rescore>
     Score         DG    S(hbond)    S(metal)    S(lipo)     H(rot)  DE(clash)    DE(int)     intcor
      9.57     -13.42       0.67        0.00     104.12       2.54       3.09       0.75       ----

> <Gold.Chemscore.Fitness>
9.5743

> <Gold.Chemscore.DG>
-13.4170

> <Gold.Chemscore.ZeroCoef>
-5.4800

> <Gold.Chemscore.Hbond>
0.6723

> <Gold.Chemscore.Metal>
0.0000

> <Gold.Chemscore.Lipo>
104.1238

> <Gold.Chemscore.Internal_Hbond>
0.0000

> <Gold.Chemscore.DEClash>
3.0878

> <Gold.Chemscore.DEInternal>
0.7549

> <Gold.Chemscore.Rot>
2.5355

> <Gold.Chemscore.Internal.Correction>
   9.000000E+99

> <Gold.Chemscore.Hbonds>
donor molecule, donor type, donor heavy atom, donor atom, acceptor molecule, acceptor atom, score
      P1  H  6934  6946       L1    19  0.10

> <Gold.Chemscore.Hbond.Weighted>
-2.2453

> <Gold.Chemscore.Metal.Weighted>
-0.0000

> <Gold.Chemscore.Lipo.Weighted>
-12.1825

> <Gold.Chemscore.Internal_Hbond.Weighted>
0.0000

> <Gold.Chemscore.DEClash.Weighted>
3.0878

> <Gold.Chemscore.DEInternal.Weighted>
0.7549

> <Gold.Chemscore.Rot.Weighted>
6.4908

> <Gold.Chemscore.Internal.Correction.Weighted>
   9.000000E+99

> <Gold.Protein.RotatedTorsions>
[ 6907 6896 6895 6894 ] final -143.45 input  -60.11 | X-H torsion
[ 7974 7965 7964 7962 ] final  135.92 input  175.53 | X-H torsion
[ 8008 7997 7996 7995 ] final  150.72 input   59.86 | X-H torsion
[ 10167 10162 10161 10158 ] final  -21.74 input  -65.29 | X-H torsion
[ 10718 10713 10712 10709 ] final    4.90 input   66.30 | X-H torsion
[ 10763 10752 10751 10750 ] final -136.01 input  -60.55 | X-H torsion
[ 11005 11000 10999 10996 ] final  170.10 input  -57.11 | X-H torsion

> <Gold.Protein.ActiveResidues>
 VAL166  LYS551  ARG553  GLY616  TRP617  ASP618  TYR619  PRO620  LYS621  CYS622 
 ASP623  PHE694  ASN695  SER759  ASP760  ASP761  ALA762  ILE779  LEU786  VAL792 
 PHE793  MET794  SER795  GLU796  ALA797  LYS798  CYS799  TRP800  GLU811  SER814 

> <Gold.Protein.RotatedAtoms>
  151.1006  133.5246  159.2609 H   0  0  0  0  0  0  0  0  0  0  0  0  # atno 6907 bound_to 6896
  151.2078  135.0468  159.8909 H   0  0  0  0  0  0  0  0  0  0  0  0  # atno 6908 bound_to 6896
  152.5442  134.0826  159.8295 H   0  0  0  0  0  0  0  0  0  0  0  0  # atno 6909 bound_to 6896
  144.9616  139.4704  143.5477 H   0  0  0  0  0  0  0  0  0  0  0  0  # atno 7974 bound_to 7965
  156.2704  140.2067  156.6062 H   0  0  0  0  0  0  0  0  0  0  0  0  # atno 8008 bound_to 7997
  154.6868  140.0534  157.0346 H   0  0  0  0  0  0  0  0  0  0  0  0  # atno 8009 bound_to 7997
  155.0923  140.3197  155.4573 H   0  0  0  0  0  0  0  0  0  0  0  0  # atno 8010 bound_to 7997
  140.7283  143.4599  151.0394 H   0  0  0  0  0  0  0  0  0  0  0  0  # atno 10167 bound_to 10162
  156.8994  130.5716  149.5648 H   0  0  0  0  0  0  0  0  0  0  0  0  # atno 10718 bound_to 10713
  154.8692  135.3686  154.4991 H   0  0  0  0  0  0  0  0  0  0  0  0  # atno 10763 bound_to 10752
  153.5633  135.7022  153.5542 H   0  0  0  0  0  0  0  0  0  0  0  0  # atno 10764 bound_to 10752
  153.3608  135.4047  155.1680 H   0  0  0  0  0  0  0  0  0  0  0  0  # atno 10765 bound_to 10752
  140.3048  134.7566  157.3944 H   0  0  0  0  0  0  0  0  0  0  0  0  # atno 11005 bound_to 11000
  146.3355  139.8769  142.8830 LP  0  0  0  0  0  0  0  0  0  0  0  0  # atno 17320 bound_to 7965
  145.2692  141.0103  143.3782 LP  0  0  0  0  0  0  0  0  0  0  0  0  # atno 17321 bound_to 7965
  139.8283  143.7726  152.3179 LP  0  0  0  0  0  0  0  0  0  0  0  0  # atno 17342 bound_to 10162
  139.7832  144.7437  151.0058 LP  0  0  0  0  0  0  0  0  0  0  0  0  # atno 17343 bound_to 10162
  156.0589  130.5645  150.9151 LP  0  0  0  0  0  0  0  0  0  0  0  0  # atno 17370 bound_to 10713
  157.6035  131.0940  150.8919 LP  0  0  0  0  0  0  0  0  0  0  0  0  # atno 17371 bound_to 10713
  140.1077  134.5387  155.8294 LP  0  0  0  0  0  0  0  0  0  0  0  0  # atno 17394 bound_to 11000
  141.2121  133.6714  156.6630 LP  0  0  0  0  0  0  0  0  0  0  0  0  # atno 17395 bound_to 11000

$$$$
