AV-unprocessed.smi:1965|AV-procd|sdf|7946|dock4
  -GOLD-   2272010113D 1   1.00000     0.00000
 Structure written by MMmdl.
 36 38  0  0  0  0  0  0  0  0  3 V2000
  149.0369  140.5533  157.8782 O   0  0  0  0  0  0  0  0  0  0  0  0
  149.0328  141.7524  157.6032 C   0  0  0  0  0  0  0  0  0  0  0  0
  149.0720  142.7343  158.5406 N   0  5  0  0  0  0  0  0  0  0  0  0
  150.1797  143.4575  158.7876 C   0  0  0  0  0  0  0  0  0  0  0  0
  150.3128  144.2491  159.8582 N   0  0  0  0  0  0  0  0  0  0  0  0
  151.5445  144.9040  159.9143 C   0  0  0  0  0  0  0  0  0  0  0  0
  152.3682  144.6031  158.8624 C   0  0  0  0  0  0  0  0  0  0  0  0
  151.6198  143.4768  157.7669 S   0  0  0  0  0  0  0  0  0  0  0  0
  148.9764  142.1209  156.3088 N   0  0  0  0  0  0  0  0  0  0  0  0
  148.8994  141.2152  155.1674 C   0  0  2  0  0  0  0  0  0  0  0  0
  147.8964  140.0858  155.3612 C   0  0  0  0  0  0  0  0  0  0  0  0
  148.3356  139.0523  154.3190 C   0  0  0  0  0  0  0  0  0  0  0  0
  149.7846  139.2681  154.0823 N   0  3  2  0  0  0  0  0  0  0  0  0
  150.6190  138.0524  154.2793 C   0  0  0  0  0  0  0  0  0  0  0  0
  152.1027  138.4207  154.4266 C   0  0  0  0  0  0  0  0  0  0  0  0
  152.3415  139.3079  155.6630 C   0  0  0  0  0  0  0  0  0  0  0  0
  151.0818  140.0920  156.0786 C   0  0  0  0  0  0  0  0  0  0  0  0
  150.2099  140.4690  154.8549 C   0  0  2  0  0  0  0  0  0  0  0  0
  151.7509  145.5679  160.7406 H   0  0  0  0  0  0  0  0  0  0  0  0
  153.3649  144.9694  158.6682 H   0  0  0  0  0  0  0  0  0  0  0  0
  148.9719  143.1106  156.1090 H   0  0  0  0  0  0  0  0  0  0  0  0
  148.5951  141.7820  154.2847 H   0  0  0  0  0  0  0  0  0  0  0  0
  147.9911  139.6641  156.3632 H   0  0  0  0  0  0  0  0  0  0  0  0
  146.8629  140.4078  155.2283 H   0  0  0  0  0  0  0  0  0  0  0  0
  148.0983  138.0368  154.6391 H   0  0  0  0  0  0  0  0  0  0  0  0
  147.8141  139.2256  153.3773 H   0  0  0  0  0  0  0  0  0  0  0  0
  150.2957  137.5138  155.1718 H   0  0  0  0  0  0  0  0  0  0  0  0
  150.4709  137.3801  153.4336 H   0  0  0  0  0  0  0  0  0  0  0  0
  152.7169  137.5219  154.4886 H   0  0  0  0  0  0  0  0  0  0  0  0
  152.4273  138.9500  153.5297 H   0  0  0  0  0  0  0  0  0  0  0  0
  152.6712  138.6978  156.5045 H   0  0  0  0  0  0  0  0  0  0  0  0
  153.1587  139.9985  155.4517 H   0  0  0  0  0  0  0  0  0  0  0  0
  150.4913  139.4882  156.7691 H   0  0  0  0  0  0  0  0  0  0  0  0
  151.3850  140.9779  156.6369 H   0  0  0  0  0  0  0  0  0  0  0  0
  150.8194  141.0923  154.1988 H   0  0  0  0  0  0  0  0  0  0  0  0
  149.8751  139.5275  153.1105 H   0  0  0  0  0  0  0  0  0  0  0  0
  1  2  2  0  0  0  0
  2  3  1  0  0  0  0
  2  9  1  0  0  0  0
  3  4  1  0  0  0  0
  4  8  1  0  0  0  0
  4  5  2  0  0  0  0
  5  6  1  0  0  0  0
  6  7  2  0  0  0  0
  6 19  1  0  0  0  0
  7  8  1  0  0  0  0
  7 20  1  0  0  0  0
  9 10  1  0  0  0  0
  9 21  1  0  0  0  0
 10 18  1  0  0  0  0
 10 11  1  0  0  0  0
 10 22  1  0  0  0  0
 11 12  1  0  0  0  0
 11 23  1  0  0  0  0
 11 24  1  0  0  0  0
 12 13  1  0  0  0  0
 12 25  1  0  0  0  0
 12 26  1  0  0  0  0
 13 18  1  0  0  0  0
 13 14  1  0  0  0  0
 13 36  1  0  0  0  0
 14 15  1  0  0  0  0
 14 27  1  0  0  0  0
 14 28  1  0  0  0  0
 15 16  1  0  0  0  0
 15 29  1  0  0  0  0
 15 30  1  0  0  0  0
 16 17  1  0  0  0  0
 16 31  1  0  0  0  0
 16 32  1  0  0  0  0
 17 18  1  0  0  0  0
 17 33  1  0  0  0  0
 17 34  1  0  0  0  0
 18 35  1  0  0  0  0
M  CHG  1   3  -1
M  CHG  1  13   1
M  END
> <s_m_source_file>
AV-unprocessed.smi

> <i_m_source_file_index>
1965

> <i_lp_mmshare_version>
43012

> <i_f3d_flags>
0

> <s_epik_input>
czFbY0hdW2NIXW5jMVtOSF1DKD1PKVtOSF1bQ0BIXShbQ0gyXVtDSDJdMilbQ0BASF0oTjIzKVtDSDJdW0NIMl1bQ0gyXVtDSDJdMw==

> <s_epik_cmdline>
J2VwaWtfcHl0aG9uJywgJy1waCcsICc3LjAnLCAnLXRuJywgJzgnLCAnLW1hJywgJzIwMCcsICctbWV0YWxfYmluZGluZycsICctaW1hZScsICc8aW5maWxlLm1hZT4nLCAnLW9tYWUnLCAnPG91dGZpbGUubWFlPic=

> <r_lp_tautomer_probability>
1

> <r_epik_Ionization_Penalty>
7.4116

> <r_epik_Ionization_Penalty_Charging>
6.13869

> <r_epik_Ionization_Penalty_Neutral>
1.27291

> <r_epik_State_Penalty>
6.13761

> <r_epik_Charging_Adjusted_Penalty>
12.2763

> <i_epik_Tot_Q>
0

> <i_epik_Tot_abs_Q>
2

> <r_epik_Metal_State_Penalty>
2.08142

> <b_epik_Metal_Only>
1

> <s_lp_Force_Field>
OPLS_2005

> <r_lp_Energy>
32.0333

> <b_lp_Chiralities_Consistent>
1

> <s_lp_Variant>
AV-unprocessed.smi:1965-15

> <Gold.Version>
5.8.1

> <Gold.Id.Protein>
6NUR|6NUR_protein|mol2

> <Gold.PLP.Fitness>
39.4165

> <Gold.PLP.PLP>
-35.2233

> <Gold.PLP.part.hbond>
-2.0000

> <Gold.PLP.part.metal>
0.0000

> <Gold.PLP.part.buried>
-3.3407

> <Gold.PLP.part.nonpolar>
-30.8530

> <Gold.PLP.part.repulsive>
0.5252

> <Gold.PLP.ligand.clash>
0.0000

> <Gold.PLP.ligand.torsion>
0.9051

> <Gold.PLP.Chemscore.Hbond>
2.0000

> <Gold.PLP.Chemscore.CHOScore>
0.0000

> <Gold.PLP.Chemscore.Metal>
0.0000

> <Gold.Chemscore.Hbonds>
donor molecule, donor type, donor heavy atom, donor atom, acceptor molecule, acceptor atom, score
      L1  H     9    21       P1  8028  1.00
      L1  H    13    36       P1  7957  1.00

> <Gold.PLP.Chemscore.Internal.Correction>
0.0034

> <Gold.Rescore>
     Score         DG    S(hbond)    S(metal)    S(lipo)     H(rot)  DE(clash)    DE(int)     intcor
     16.52     -19.64       1.98        0.00      86.38       1.00       0.47       2.65       ----

> <Gold.Chemscore.Fitness>
16.5225

> <Gold.Chemscore.DG>
-19.6378

> <Gold.Chemscore.ZeroCoef>
-5.4800

> <Gold.Chemscore.Hbond>
1.9793

> <Gold.Chemscore.Metal>
0.0000

> <Gold.Chemscore.Lipo>
86.3826

> <Gold.Chemscore.Internal_Hbond>
0.0000

> <Gold.Chemscore.DEClash>
0.4665

> <Gold.Chemscore.DEInternal>
2.6488

> <Gold.Chemscore.Rot>
1.0000

> <Gold.Chemscore.Internal.Correction>
   9.000000E+99

> <Gold.Chemscore.Hbonds>
donor molecule, donor type, donor heavy atom, donor atom, acceptor molecule, acceptor atom, score
      L1  H     9    21       P1  8028  1.00
      L1  H    13    36       P1  7957  0.93

> <Gold.Chemscore.Hbond.Weighted>
-6.6110

> <Gold.Chemscore.Metal.Weighted>
-0.0000

> <Gold.Chemscore.Lipo.Weighted>
-10.1068

> <Gold.Chemscore.Internal_Hbond.Weighted>
0.0000

> <Gold.Chemscore.DEClash.Weighted>
0.4665

> <Gold.Chemscore.DEInternal.Weighted>
2.6488

> <Gold.Chemscore.Rot.Weighted>
2.5600

> <Gold.Chemscore.Internal.Correction.Weighted>
   9.000000E+99

> <Gold.Protein.RotatedTorsions>
[ 6907 6896 6895 6894 ] final -166.59 input  -60.11 | X-H torsion
[ 7974 7965 7964 7962 ] final   83.14 input  175.53 | X-H torsion
[ 8008 7997 7996 7995 ] final   15.32 input   59.86 | X-H torsion
[ 10167 10162 10161 10158 ] final  127.85 input  -65.29 | X-H torsion
[ 10718 10713 10712 10709 ] final  -94.97 input   66.30 | X-H torsion
[ 10763 10752 10751 10750 ] final   74.85 input  -60.55 | X-H torsion
[ 11005 11000 10999 10996 ] final -178.22 input  -57.11 | X-H torsion

> <Gold.Protein.ActiveResidues>
 VAL166  LYS551  ARG553  GLY616  TRP617  ASP618  TYR619  PRO620  LYS621  CYS622 
 ASP623  PHE694  ASN695  SER759  ASP760  ASP761  ALA762  ILE779  LEU786  VAL792 
 PHE793  MET794  SER795  GLU796  ALA797  LYS798  CYS799  TRP800  GLU811  SER814 

> <Gold.Protein.RotatedAtoms>
  151.4460  133.3630  159.2788 H   0  0  0  0  0  0  0  0  0  0  0  0  # atno 6907 bound_to 6896
  150.9124  134.8543  159.7445 H   0  0  0  0  0  0  0  0  0  0  0  0  # atno 6908 bound_to 6896
  152.4939  134.4391  159.9589 H   0  0  0  0  0  0  0  0  0  0  0  0  # atno 6909 bound_to 6896
  145.6158  139.2376  143.2166 H   0  0  0  0  0  0  0  0  0  0  0  0  # atno 7974 bound_to 7965
  154.8610  140.2944  155.5539 H   0  0  0  0  0  0  0  0  0  0  0  0  # atno 8008 bound_to 7997
  156.3019  140.2478  156.3516 H   0  0  0  0  0  0  0  0  0  0  0  0  # atno 8009 bound_to 7997
  154.8919  140.0394  157.1832 H   0  0  0  0  0  0  0  0  0  0  0  0  # atno 8010 bound_to 7997
  139.5557  144.6847  151.4190 H   0  0  0  0  0  0  0  0  0  0  0  0  # atno 10167 bound_to 10162
  156.0035  130.5089  150.6006 H   0  0  0  0  0  0  0  0  0  0  0  0  # atno 10718 bound_to 10713
  153.0614  135.5010  154.8103 H   0  0  0  0  0  0  0  0  0  0  0  0  # atno 10763 bound_to 10752
  154.6889  135.2981  154.9510 H   0  0  0  0  0  0  0  0  0  0  0  0  # atno 10764 bound_to 10752
  154.0272  135.6734  153.4830 H   0  0  0  0  0  0  0  0  0  0  0  0  # atno 10765 bound_to 10752
  140.4322  134.6508  157.4717 H   0  0  0  0  0  0  0  0  0  0  0  0  # atno 11005 bound_to 11000
  146.1469  140.6980  142.9340 LP  0  0  0  0  0  0  0  0  0  0  0  0  # atno 17320 bound_to 7965
  144.7251  140.4499  143.6979 LP  0  0  0  0  0  0  0  0  0  0  0  0  # atno 17321 bound_to 7965
  140.6829  143.8040  150.7146 LP  0  0  0  0  0  0  0  0  0  0  0  0  # atno 17342 bound_to 10162
  140.1499  143.4366  152.2138 LP  0  0  0  0  0  0  0  0  0  0  0  0  # atno 17343 bound_to 10162
  157.3855  131.0787  151.1439 LP  0  0  0  0  0  0  0  0  0  0  0  0  # atno 17370 bound_to 10713
  157.2148  130.6454  149.5788 LP  0  0  0  0  0  0  0  0  0  0  0  0  # atno 17371 bound_to 10713
  140.0126  134.6667  155.9357 LP  0  0  0  0  0  0  0  0  0  0  0  0  # atno 17394 bound_to 11000
  141.1741  133.6539  156.4760 LP  0  0  0  0  0  0  0  0  0  0  0  0  # atno 17395 bound_to 11000

$$$$
