AV-unprocessed.smi:2055|AV-procd|sdf|8337|dock2
  -GOLD-   2272011 03D 1   1.00000     0.00000
 Structure written by MMmdl.
 44 45  0  0  0  0  0  0  0  0  2 V2000
  149.8407  133.7107  155.4368 C   0  0  0  0  0  0  0  0  0  0  0  0
  150.3489  133.9200  154.0019 C   0  0  1  0  0  0  0  0  0  0  0  0
  149.4591  133.1933  152.9781 C   0  0  0  0  0  0  0  0  0  0  0  0
  148.4311  134.0513  152.5282 O   0  0  0  0  0  0  0  0  0  0  0  0
  150.3635  135.3490  153.7010 N   0  0  0  0  0  0  0  0  0  0  0  0
  151.2281  136.2365  154.2101 C   0  0  0  0  0  0  0  0  0  0  0  0
  152.0912  135.9647  155.0448 O   0  0  0  0  0  0  0  0  0  0  0  0
  151.0618  137.4546  153.6763 N   0  0  0  0  0  0  0  0  0  0  0  0
  151.8986  138.6138  153.9737 C   0  0  0  0  0  0  0  0  0  0  0  0
  151.1673  139.7877  154.6171 C   0  0  0  0  0  0  0  0  0  0  0  0
  149.8875  140.1465  154.1454 C   0  0  0  0  0  0  0  0  0  0  0  0
  149.2138  141.2281  154.7420 C   0  0  0  0  0  0  0  0  0  0  0  0
  149.7954  141.9076  155.7530 N   0  3  0  0  0  0  0  0  0  0  0  0
  151.0231  141.6180  156.2497 C   0  0  0  0  0  0  0  0  0  0  0  0
  151.5097  142.3984  157.3224 N   0  0  0  0  0  0  0  0  0  0  0  0
  150.8240  143.6503  157.6329 C   0  0  0  0  0  0  0  0  0  0  0  0
  151.6675  144.5065  158.5921 C   0  0  0  0  0  0  0  0  0  0  0  0
  151.9993  143.7468  159.7483 O   0  0  0  0  0  0  0  0  0  0  0  0
  152.7907  142.6105  159.4208 C   0  0  0  0  0  0  0  0  0  0  0  0
  151.9968  141.6731  158.4952 C   0  0  0  0  0  0  0  0  0  0  0  0
  151.7400  140.5401  155.6707 C   0  0  0  0  0  0  0  0  0  0  0  0
  149.8292  132.6521  155.6981 H   0  0  0  0  0  0  0  0  0  0  0  0
  148.8274  134.0947  155.5600 H   0  0  0  0  0  0  0  0  0  0  0  0
  150.4806  134.2180  156.1598 H   0  0  0  0  0  0  0  0  0  0  0  0
  151.3583  133.5076  153.9421 H   0  0  0  0  0  0  0  0  0  0  0  0
  150.0461  132.9075  152.1046 H   0  0  0  0  0  0  0  0  0  0  0  0
  149.0340  132.2773  153.3900 H   0  0  0  0  0  0  0  0  0  0  0  0
  148.8275  134.7963  152.1027 H   0  0  0  0  0  0  0  0  0  0  0  0
  149.6919  135.6743  153.0210 H   0  0  0  0  0  0  0  0  0  0  0  0
  150.3227  137.5843  153.0008 H   0  0  0  0  0  0  0  0  0  0  0  0
  152.6921  138.2942  154.6495 H   0  0  0  0  0  0  0  0  0  0  0  0
  152.3886  138.9469  153.0570 H   0  0  0  0  0  0  0  0  0  0  0  0
  149.4236  139.5973  153.3388 H   0  0  0  0  0  0  0  0  0  0  0  0
  148.2311  141.5661  154.4463 H   0  0  0  0  0  0  0  0  0  0  0  0
  150.6454  144.2229  156.7222 H   0  0  0  0  0  0  0  0  0  0  0  0
  149.8542  143.4290  158.0805 H   0  0  0  0  0  0  0  0  0  0  0  0
  152.5765  144.8597  158.1016 H   0  0  0  0  0  0  0  0  0  0  0  0
  151.1073  145.3910  158.8959 H   0  0  0  0  0  0  0  0  0  0  0  0
  153.7225  142.9258  158.9488 H   0  0  0  0  0  0  0  0  0  0  0  0
  153.0610  142.0893  160.3393 H   0  0  0  0  0  0  0  0  0  0  0  0
  151.1428  141.2552  159.0293 H   0  0  0  0  0  0  0  0  0  0  0  0
  152.6379  140.8384  158.2126 H   0  0  0  0  0  0  0  0  0  0  0  0
  152.7267  140.2825  156.0227 H   0  0  0  0  0  0  0  0  0  0  0  0
  149.2773  142.6807  156.1706 H   0  0  0  0  0  0  0  0  0  0  0  0
  1  2  1  0  0  0  0
  1 22  1  0  0  0  0
  1 23  1  0  0  0  0
  1 24  1  0  0  0  0
  2  3  1  0  0  0  0
  2  5  1  0  0  0  0
  2 25  1  0  0  0  0
  3  4  1  0  0  0  0
  3 26  1  0  0  0  0
  3 27  1  0  0  0  0
  4 28  1  0  0  0  0
  5  6  1  0  0  0  0
  5 29  1  0  0  0  0
  6  7  2  0  0  0  0
  6  8  1  0  0  0  0
  8  9  1  0  0  0  0
  8 30  1  0  0  0  0
  9 10  1  0  0  0  0
  9 31  1  0  0  0  0
  9 32  1  0  0  0  0
 10 21  1  0  0  0  0
 10 11  2  0  0  0  0
 11 12  1  0  0  0  0
 11 33  1  0  0  0  0
 12 13  2  0  0  0  0
 12 34  1  0  0  0  0
 13 14  1  0  0  0  0
 13 44  1  0  0  0  0
 14 15  1  0  0  0  0
 14 21  2  0  0  0  0
 15 20  1  0  0  0  0
 15 16  1  0  0  0  0
 16 17  1  0  0  0  0
 16 35  1  0  0  0  0
 16 36  1  0  0  0  0
 17 18  1  0  0  0  0
 17 37  1  0  0  0  0
 17 38  1  0  0  0  0
 18 19  1  0  0  0  0
 19 20  1  0  0  0  0
 19 39  1  0  0  0  0
 19 40  1  0  0  0  0
 20 41  1  0  0  0  0
 20 42  1  0  0  0  0
 21 43  1  0  0  0  0
M  CHG  1  13   1
M  END
> <s_m_source_file>
AV-unprocessed.smi

> <i_m_source_file_index>
2055

> <i_lp_mmshare_version>
43012

> <i_f3d_flags>
0

> <s_epik_input>
W09IXVtDSDJdW0NAQEhdKFtDSDNdKVtOSF1DKD1PKVtOSF1bQ0gyXWMxW2NIXVtjSF1uYyhbY0hdMSlOMltDSDJdW0NIMl1PW0NIMl1bQ0gyXTI=

> <s_epik_cmdline>
J2VwaWtfcHl0aG9uJywgJy1waCcsICc3LjAnLCAnLXRuJywgJzgnLCAnLW1hJywgJzIwMCcsICctbWV0YWxfYmluZGluZycsICctaW1hZScsICc8aW5maWxlLm1hZT4nLCAnLW9tYWUnLCAnPG91dGZpbGUubWFlPic=

> <r_lp_tautomer_probability>
0.999994

> <r_epik_Ionization_Penalty>
2.3082

> <r_epik_Ionization_Penalty_Charging>
2.30816

> <r_epik_Ionization_Penalty_Neutral>
3.71771e-05

> <r_epik_State_Penalty>
2.45942

> <r_epik_Charging_Adjusted_Penalty>
4.76758

> <i_epik_Tot_Q>
1

> <i_epik_Tot_abs_Q>
1

> <r_epik_Metal_State_Penalty>
2.47143

> <b_epik_Metal_Only>
0

> <s_lp_Force_Field>
OPLS_2005

> <r_lp_Energy>
18.1512

> <b_lp_Chiralities_Consistent>
1

> <s_lp_Variant>
AV-unprocessed.smi:2055-4

> <Gold.Version>
5.8.1

> <Gold.Id.Protein>
6NUR|6NUR_protein|mol2

> <Gold.PLP.Fitness>
58.1881

> <Gold.PLP.PLP>
-43.0271

> <Gold.PLP.part.hbond>
-6.3088

> <Gold.PLP.part.metal>
0.0000

> <Gold.PLP.part.buried>
1.8959

> <Gold.PLP.part.nonpolar>
-37.6919

> <Gold.PLP.part.repulsive>
0.3938

> <Gold.PLP.ligand.clash>
0.0000

> <Gold.PLP.ligand.torsion>
1.0295

> <Gold.PLP.Chemscore.Hbond>
5.5610

> <Gold.PLP.Chemscore.CHOScore>
0.0000

> <Gold.PLP.Chemscore.Metal>
0.0000

> <Gold.Chemscore.Hbonds>
donor molecule, donor type, donor heavy atom, donor atom, acceptor molecule, acceptor atom, score
      L1  H     4    28       P1  7948  0.03
      L1  H     5    29       P1  7948  0.22
      L1  H     8    30       P1  7948  0.27
      L1  H    13    44       P1  8028  1.05

> <Gold.PLP.Chemscore.Internal.Correction>
0.5370

> <Gold.Rescore>
     Score         DG    S(hbond)    S(metal)    S(lipo)     H(rot)  DE(clash)    DE(int)     intcor
     17.90     -20.75       3.36        0.00      95.08       2.76       0.77       2.09       ----

> <Gold.Chemscore.Fitness>
17.9007

> <Gold.Chemscore.DG>
-20.7537

> <Gold.Chemscore.ZeroCoef>
-5.4800

> <Gold.Chemscore.Hbond>
3.3607

> <Gold.Chemscore.Metal>
0.0000

> <Gold.Chemscore.Lipo>
95.0769

> <Gold.Chemscore.Internal_Hbond>
0.0000

> <Gold.Chemscore.DEClash>
0.7668

> <Gold.Chemscore.DEInternal>
2.0862

> <Gold.Chemscore.Rot>
2.7636

> <Gold.Chemscore.Internal.Correction>
   9.000000E+99

> <Gold.Chemscore.Hbonds>
donor molecule, donor type, donor heavy atom, donor atom, acceptor molecule, acceptor atom, score
      L1  H     8    30       P1  7948  0.02
      L1  H    13    44       P1  8028  0.52
      P1  H 10752 10765       L1     7  0.01

> <Gold.Chemscore.Hbond.Weighted>
-11.2246

> <Gold.Chemscore.Metal.Weighted>
-0.0000

> <Gold.Chemscore.Lipo.Weighted>
-11.1240

> <Gold.Chemscore.Internal_Hbond.Weighted>
0.0000

> <Gold.Chemscore.DEClash.Weighted>
0.7668

> <Gold.Chemscore.DEInternal.Weighted>
2.0862

> <Gold.Chemscore.Rot.Weighted>
7.0749

> <Gold.Chemscore.Internal.Correction.Weighted>
   9.000000E+99

> <Gold.Protein.RotatedTorsions>
[ 6907 6896 6895 6894 ] final  151.78 input  -60.11 | X-H torsion
[ 7974 7965 7964 7962 ] final  -39.48 input  175.53 | X-H torsion
[ 8008 7997 7996 7995 ] final   24.64 input   59.86 | X-H torsion
[ 10167 10162 10161 10158 ] final -140.86 input  -65.29 | X-H torsion
[ 10718 10713 10712 10709 ] final   37.07 input   66.30 | X-H torsion
[ 10763 10752 10751 10750 ] final -164.68 input  -60.55 | X-H torsion
[ 11005 11000 10999 10996 ] final -165.31 input  -57.11 | X-H torsion

> <Gold.Protein.ActiveResidues>
 VAL166  LYS551  ARG553  GLY616  TRP617  ASP618  TYR619  PRO620  LYS621  CYS622 
 ASP623  PHE694  ASN695  SER759  ASP760  ASP761  ALA762  ILE779  LEU786  VAL792 
 PHE793  MET794  SER795  GLU796  ALA797  LYS798  CYS799  TRP800  GLU811  SER814 

> <Gold.Protein.RotatedAtoms>
  152.0959  133.4224  159.4564 H   0  0  0  0  0  0  0  0  0  0  0  0  # atno 6907 bound_to 6896
  150.6863  134.2817  159.4639 H   0  0  0  0  0  0  0  0  0  0  0  0  # atno 6908 bound_to 6896
  152.0673  134.9556  160.0625 H   0  0  0  0  0  0  0  0  0  0  0  0  # atno 6909 bound_to 6896
  146.0392  140.6631  142.9095 H   0  0  0  0  0  0  0  0  0  0  0  0  # atno 7974 bound_to 7965
  154.9994  140.3123  155.4873 H   0  0  0  0  0  0  0  0  0  0  0  0  # atno 8008 bound_to 7997
  156.2927  140.2234  156.5044 H   0  0  0  0  0  0  0  0  0  0  0  0  # atno 8009 bound_to 7997
  154.7632  140.0457  157.0978 H   0  0  0  0  0  0  0  0  0  0  0  0  # atno 8010 bound_to 7997
  139.8241  143.7534  152.2666 H   0  0  0  0  0  0  0  0  0  0  0  0  # atno 10167 bound_to 10162
  157.3425  130.7555  149.6921 H   0  0  0  0  0  0  0  0  0  0  0  0  # atno 10718 bound_to 10713
  154.7005  135.2987  154.9348 H   0  0  0  0  0  0  0  0  0  0  0  0  # atno 10763 bound_to 10752
  154.0282  135.6673  153.4782 H   0  0  0  0  0  0  0  0  0  0  0  0  # atno 10764 bound_to 10752
  153.0678  135.5078  154.8146 H   0  0  0  0  0  0  0  0  0  0  0  0  # atno 10765 bound_to 10752
  140.5771  134.5179  157.5172 H   0  0  0  0  0  0  0  0  0  0  0  0  # atno 11005 bound_to 11000
  144.7066  140.3877  143.7113 LP  0  0  0  0  0  0  0  0  0  0  0  0  # atno 17320 bound_to 7965
  145.6912  139.1639  143.2645 LP  0  0  0  0  0  0  0  0  0  0  0  0  # atno 17321 bound_to 7965
  139.7722  144.7473  151.0209 LP  0  0  0  0  0  0  0  0  0  0  0  0  # atno 17342 bound_to 10162
  140.7811  143.4633  151.0247 LP  0  0  0  0  0  0  0  0  0  0  0  0  # atno 17343 bound_to 10162
  155.9709  130.4163  150.4227 LP  0  0  0  0  0  0  0  0  0  0  0  0  # atno 17370 bound_to 10713
  157.2277  131.0497  151.2510 LP  0  0  0  0  0  0  0  0  0  0  0  0  # atno 17371 bound_to 10713
  139.9334  134.7920  156.0867 LP  0  0  0  0  0  0  0  0  0  0  0  0  # atno 17394 bound_to 11000
  141.1020  133.6674  156.2776 LP  0  0  0  0  0  0  0  0  0  0  0  0  # atno 17395 bound_to 11000

$$$$
