AV-unprocessed.smi:1830|AV-procd|sdf|7437|dock8
  -GOLD-   22720 9123D 1   1.00000     0.00000
 Structure written by MMmdl.
 53 56  0  0  0  0  0  0  0  0  2 V2000
  145.4494  138.3174  152.9378 O   0  0  0  0  0  0  0  0  0  0  0  0
  146.4302  137.5790  153.0300 C   0  0  0  0  0  0  0  0  0  0  0  0
  146.3976  136.2713  152.7383 N   0  0  0  0  0  0  0  0  0  0  0  0
  145.2187  135.5509  152.2688 C   0  0  0  0  0  0  0  0  0  0  0  0
  145.4122  134.0251  152.3302 C   0  0  1  0  0  0  0  0  0  0  0  0
  146.3625  133.5235  151.2264 C   0  0  0  0  0  0  0  0  0  0  0  0
  146.6509  132.0766  151.3617 N   0  3  2  0  0  0  0  0  0  0  0  0
  145.6229  131.1476  150.8421 C   0  0  0  0  0  0  0  0  0  0  0  0
  145.6992  129.8860  151.7165 C   0  0  0  0  0  0  0  0  0  0  0  0
  146.8652  130.1271  152.6808 C   0  0  0  0  0  0  0  0  0  0  0  0
  146.9996  131.6500  152.7327 C   0  0  2  0  0  0  0  0  0  0  0  0
  146.0560  132.2849  153.7795 C   0  0  0  0  0  0  0  0  0  0  0  0
  145.9814  133.6911  153.5910 O   0  0  0  0  0  0  0  0  0  0  0  0
  147.6596  137.9627  153.4122 N   0  0  0  0  0  0  0  0  0  0  0  0
  148.1053  139.2641  153.7828 C   0  0  0  0  0  0  0  0  0  0  0  0
  147.2449  140.3887  153.7323 C   0  0  0  0  0  0  0  0  0  0  0  0
  147.7399  141.6544  154.0898 C   0  0  0  0  0  0  0  0  0  0  0  0
  149.0822  141.7534  154.4907 C   0  0  0  0  0  0  0  0  0  0  0  0
  149.9084  140.6912  154.5641 N   0  0  0  0  0  0  0  0  0  0  0  0
  149.4417  139.4606  154.2374 C   0  0  0  0  0  0  0  0  0  0  0  0
  150.3507  138.3836  154.3554 N   0  0  0  0  0  0  0  0  0  0  0  0
  149.9736  137.2507  155.1955 C   0  0  0  0  0  0  0  0  0  0  0  0
  151.2596  136.7644  155.8726 C   0  0  0  0  0  0  0  0  0  0  0  0
  152.3683  137.3102  154.9782 C   0  0  0  0  0  0  0  0  0  0  0  0
  151.7802  138.6359  154.5047 C   0  0  0  0  0  0  0  0  0  0  0  0
  147.2488  135.7377  152.8388 H   0  0  0  0  0  0  0  0  0  0  0  0
  144.3541  135.8473  152.8652 H   0  0  0  0  0  0  0  0  0  0  0  0
  145.0088  135.8626  151.2452 H   0  0  0  0  0  0  0  0  0  0  0  0
  144.4416  133.5379  152.2247 H   0  0  0  0  0  0  0  0  0  0  0  0
  145.9566  133.7297  150.2351 H   0  0  0  0  0  0  0  0  0  0  0  0
  147.3099  134.0596  151.2941 H   0  0  0  0  0  0  0  0  0  0  0  0
  144.6257  131.5848  150.9037 H   0  0  0  0  0  0  0  0  0  0  0  0
  145.8229  130.9273  149.7933 H   0  0  0  0  0  0  0  0  0  0  0  0
  144.7695  129.7672  152.2746 H   0  0  0  0  0  0  0  0  0  0  0  0
  145.8433  128.9814  151.1248 H   0  0  0  0  0  0  0  0  0  0  0  0
  146.7078  129.6749  153.6607 H   0  0  0  0  0  0  0  0  0  0  0  0
  147.7761  129.6963  152.2623 H   0  0  0  0  0  0  0  0  0  0  0  0
  148.0266  131.9456  152.9512 H   0  0  0  0  0  0  0  0  0  0  0  0
  145.0533  131.8572  153.7277 H   0  0  0  0  0  0  0  0  0  0  0  0
  146.4270  132.0836  154.7847 H   0  0  0  0  0  0  0  0  0  0  0  0
  148.3851  137.2648  153.3397 H   0  0  0  0  0  0  0  0  0  0  0  0
  146.2118  140.3020  153.4330 H   0  0  0  0  0  0  0  0  0  0  0  0
  147.1060  142.5280  154.0549 H   0  0  0  0  0  0  0  0  0  0  0  0
  149.5026  142.7087  154.7678 H   0  0  0  0  0  0  0  0  0  0  0  0
  149.2131  137.5179  155.9306 H   0  0  0  0  0  0  0  0  0  0  0  0
  149.5697  136.4621  154.5604 H   0  0  0  0  0  0  0  0  0  0  0  0
  151.3405  137.2070  156.8662 H   0  0  0  0  0  0  0  0  0  0  0  0
  151.2963  135.6804  155.9836 H   0  0  0  0  0  0  0  0  0  0  0  0
  153.3195  137.4282  155.4981 H   0  0  0  0  0  0  0  0  0  0  0  0
  152.5242  136.6449  154.1279 H   0  0  0  0  0  0  0  0  0  0  0  0
  152.2265  138.9655  153.5662 H   0  0  0  0  0  0  0  0  0  0  0  0
  151.9621  139.4018  155.2595 H   0  0  0  0  0  0  0  0  0  0  0  0
  147.4709  131.8922  150.8012 H   0  0  0  0  0  0  0  0  0  0  0  0
  1  2  2  0  0  0  0
  2  3  1  0  0  0  0
  2 14  1  0  0  0  0
  3  4  1  0  0  0  0
  3 26  1  0  0  0  0
  4  5  1  0  0  0  0
  4 27  1  0  0  0  0
  4 28  1  0  0  0  0
  5 13  1  0  0  0  0
  5  6  1  0  0  0  0
  5 29  1  0  0  0  0
  6  7  1  0  0  0  0
  6 30  1  0  0  0  0
  6 31  1  0  0  0  0
  7 11  1  0  0  0  0
  7  8  1  0  0  0  0
  7 53  1  0  0  0  0
  8  9  1  0  0  0  0
  8 32  1  0  0  0  0
  8 33  1  0  0  0  0
  9 10  1  0  0  0  0
  9 34  1  0  0  0  0
  9 35  1  0  0  0  0
 10 11  1  0  0  0  0
 10 36  1  0  0  0  0
 10 37  1  0  0  0  0
 11 12  1  0  0  0  0
 11 38  1  0  0  0  0
 12 13  1  0  0  0  0
 12 39  1  0  0  0  0
 12 40  1  0  0  0  0
 14 15  1  0  0  0  0
 14 41  1  0  0  0  0
 15 20  1  0  0  0  0
 15 16  2  0  0  0  0
 16 17  1  0  0  0  0
 16 42  1  0  0  0  0
 17 18  2  0  0  0  0
 17 43  1  0  0  0  0
 18 19  1  0  0  0  0
 18 44  1  0  0  0  0
 19 20  2  0  0  0  0
 20 21  1  0  0  0  0
 21 25  1  0  0  0  0
 21 22  1  0  0  0  0
 22 23  1  0  0  0  0
 22 45  1  0  0  0  0
 22 46  1  0  0  0  0
 23 24  1  0  0  0  0
 23 47  1  0  0  0  0
 23 48  1  0  0  0  0
 24 25  1  0  0  0  0
 24 49  1  0  0  0  0
 24 50  1  0  0  0  0
 25 51  1  0  0  0  0
 25 52  1  0  0  0  0
M  CHG  1   7   1
M  END
> <s_m_source_file>
AV-unprocessed.smi

> <i_m_source_file_index>
1830

> <i_lp_mmshare_version>
43012

> <i_f3d_flags>
0

> <s_epik_input>
W0NIMl0xW0NIMl1bQ0gyXVtDQEhdKE4xMilbQ0gyXU9bQ0BASF0oW0NIMl0yKVtDSDJdW05IXUMoPU8pW05IXWMzW2NIXVtjSF1bY0hdbmMzTjRbQ0gyXVtDSDJdW0NIMl1bQ0gyXTQ=

> <s_epik_cmdline>
J2VwaWtfcHl0aG9uJywgJy1waCcsICc3LjAnLCAnLXRuJywgJzgnLCAnLW1hJywgJzIwMCcsICctbWV0YWxfYmluZGluZycsICctaW1hZScsICc8aW5maWxlLm1hZT4nLCAnLW9tYWUnLCAnPG91dGZpbGUubWFlPic=

> <r_lp_tautomer_probability>
1

> <r_epik_Ionization_Penalty>
0.193547

> <r_epik_Ionization_Penalty_Charging>
0.10673

> <r_epik_Ionization_Penalty_Neutral>
0.0868166

> <r_epik_State_Penalty>
0.173595

> <r_epik_Charging_Adjusted_Penalty>
0.280326

> <i_epik_Tot_Q>
1

> <i_epik_Tot_abs_Q>
1

> <r_epik_Metal_State_Penalty>
0.164683

> <b_epik_Metal_Only>
0

> <s_lp_Force_Field>
OPLS_2005

> <r_lp_Energy>
64.4771

> <b_lp_Chiralities_Consistent>
1

> <s_lp_Variant>
AV-unprocessed.smi:1830-6

> <Gold.Version>
5.8.1

> <Gold.Id.Protein>
6NUR|6NUR_protein|mol2

> <Gold.PLP.Fitness>
45.0533

> <Gold.PLP.PLP>
-34.2068

> <Gold.PLP.part.hbond>
-4.0000

> <Gold.PLP.part.metal>
0.0000

> <Gold.PLP.part.buried>
0.2590

> <Gold.PLP.part.nonpolar>
-33.1757

> <Gold.PLP.part.repulsive>
2.7927

> <Gold.PLP.ligand.clash>
0.0000

> <Gold.PLP.ligand.torsion>
0.3648

> <Gold.PLP.Chemscore.Hbond>
2.7497

> <Gold.PLP.Chemscore.CHOScore>
1.0000

> <Gold.PLP.Chemscore.Metal>
0.0000

> <Gold.Chemscore.Hbonds>
donor molecule, donor type, donor heavy atom, donor atom, acceptor molecule, acceptor atom, score
      L1  H     3    26       P1  7948  0.45
      L1  H     7    53       P1 10747  1.00
      L1  H    14    41       P1  7948  0.61
      P1  H  7989  7998       L1    19  0.77
      L1  C    18    44       P1  8028  1.00

> <Gold.PLP.Chemscore.Internal.Correction>
0.3271

> <Gold.Rescore>
     Score         DG    S(hbond)    S(metal)    S(lipo)     H(rot)  DE(clash)    DE(int)     intcor
     17.24     -22.16       2.39        0.00     104.97       1.41       3.17       1.74       ----

> <Gold.Chemscore.Fitness>
17.2435

> <Gold.Chemscore.DG>
-22.1558

> <Gold.Chemscore.ZeroCoef>
-5.4800

> <Gold.Chemscore.Hbond>
2.3939

> <Gold.Chemscore.Metal>
0.0000

> <Gold.Chemscore.Lipo>
104.9683

> <Gold.Chemscore.Internal_Hbond>
0.0000

> <Gold.Chemscore.DEClash>
3.1686

> <Gold.Chemscore.DEInternal>
1.7438

> <Gold.Chemscore.Rot>
1.4067

> <Gold.Chemscore.Internal.Correction>
   9.000000E+99

> <Gold.Chemscore.Hbonds>
donor molecule, donor type, donor heavy atom, donor atom, acceptor molecule, acceptor atom, score
      L1  H     3    26       P1  7948  0.42
      L1  H     7    53       P1 10747  0.97
      L1  H    14    41       P1  7948  0.62
      P1  H  7989  7998       L1    19  0.32

> <Gold.Chemscore.Hbond.Weighted>
-7.9956

> <Gold.Chemscore.Metal.Weighted>
-0.0000

> <Gold.Chemscore.Lipo.Weighted>
-12.2813

> <Gold.Chemscore.Internal_Hbond.Weighted>
0.0000

> <Gold.Chemscore.DEClash.Weighted>
3.1686

> <Gold.Chemscore.DEInternal.Weighted>
1.7438

> <Gold.Chemscore.Rot.Weighted>
3.6011

> <Gold.Chemscore.Internal.Correction.Weighted>
   9.000000E+99

> <Gold.Protein.RotatedTorsions>
[ 6907 6896 6895 6894 ] final   93.97 input  -60.11 | X-H torsion
[ 7974 7965 7964 7962 ] final   -9.15 input  175.53 | X-H torsion
[ 8008 7997 7996 7995 ] final   16.11 input   59.86 | X-H torsion
[ 10167 10162 10161 10158 ] final  143.17 input  -65.29 | X-H torsion
[ 10718 10713 10712 10709 ] final -158.91 input   66.30 | X-H torsion
[ 10763 10752 10751 10750 ] final  155.11 input  -60.55 | X-H torsion
[ 11005 11000 10999 10996 ] final  114.77 input  -57.11 | X-H torsion

> <Gold.Protein.ActiveResidues>
 VAL166  LYS551  ARG553  GLY616  TRP617  ASP618  TYR619  PRO620  LYS621  CYS622 
 ASP623  PHE694  ASN695  SER759  ASP760  ASP761  ALA762  ILE779  LEU786  VAL792 
 PHE793  MET794  SER795  GLU796  ALA797  LYS798  CYS799  TRP800  GLU811  SER814 

> <Gold.Protein.RotatedAtoms>
  152.5451  134.1266  159.8421 H   0  0  0  0  0  0  0  0  0  0  0  0  # atno 6907 bound_to 6896
  151.1316  133.5025  159.2606 H   0  0  0  0  0  0  0  0  0  0  0  0  # atno 6908 bound_to 6896
  151.1669  135.0309  159.8789 H   0  0  0  0  0  0  0  0  0  0  0  0  # atno 6909 bound_to 6896
  146.2260  140.2573  142.8350 H   0  0  0  0  0  0  0  0  0  0  0  0  # atno 7974 bound_to 7965
  154.8722  140.2960  155.5474 H   0  0  0  0  0  0  0  0  0  0  0  0  # atno 8008 bound_to 7997
  156.3021  140.2458  156.3646 H   0  0  0  0  0  0  0  0  0  0  0  0  # atno 8009 bound_to 7997
  154.8805  140.0398  157.1768 H   0  0  0  0  0  0  0  0  0  0  0  0  # atno 8010 bound_to 7997
  139.4976  144.6058  151.6382 H   0  0  0  0  0  0  0  0  0  0  0  0  # atno 10167 bound_to 10162
  156.5607  130.8645  151.2808 H   0  0  0  0  0  0  0  0  0  0  0  0  # atno 10718 bound_to 10713
  154.1632  135.2808  155.3103 H   0  0  0  0  0  0  0  0  0  0  0  0  # atno 10763 bound_to 10752
  154.6131  135.5492  153.7498 H   0  0  0  0  0  0  0  0  0  0  0  0  # atno 10764 bound_to 10752
  153.0186  135.6420  154.1773 H   0  0  0  0  0  0  0  0  0  0  0  0  # atno 10765 bound_to 10752
  139.8990  134.9573  156.6942 H   0  0  0  0  0  0  0  0  0  0  0  0  # atno 11005 bound_to 11000
  144.9366  140.8033  143.5656 LP  0  0  0  0  0  0  0  0  0  0  0  0  # atno 17320 bound_to 7965
  145.2521  139.2027  143.4937 LP  0  0  0  0  0  0  0  0  0  0  0  0  # atno 17321 bound_to 7965
  140.5719  144.0094  150.6221 LP  0  0  0  0  0  0  0  0  0  0  0  0  # atno 17342 bound_to 10162
  140.3214  143.3134  152.0780 LP  0  0  0  0  0  0  0  0  0  0  0  0  # atno 17343 bound_to 10162
  157.7369  130.9787  150.2163 LP  0  0  0  0  0  0  0  0  0  0  0  0  # atno 17370 bound_to 10713
  156.2802  130.3732  149.7943 LP  0  0  0  0  0  0  0  0  0  0  0  0  # atno 17371 bound_to 10713
  140.7201  133.9148  155.8141 LP  0  0  0  0  0  0  0  0  0  0  0  0  # atno 17394 bound_to 11000
  141.0234  134.0857  157.4095 LP  0  0  0  0  0  0  0  0  0  0  0  0  # atno 17395 bound_to 11000

$$$$
