AV-unprocessed.smi:1008|AV-procd|sdf|4413|dock2
  -GOLD-   22720 2353D 1   1.00000     0.00000
 Structure written by MMmdl.
 22 22  0  0  0  0  0  0  0  0  2 V2000
  151.2064  141.2324  156.9092 C   0  0  0  0  0  0  0  0  0  0  0  0
  151.4818  139.8565  156.3290 C   0  0  0  0  0  0  0  0  0  0  0  0
  151.0152  139.6373  155.0231 N   0  0  0  0  0  0  0  0  0  0  0  0
  151.2150  138.4880  154.4594 C   0  0  0  0  0  0  0  0  0  0  0  0
  150.7776  138.2230  153.1801 N   0  0  0  0  0  0  0  0  0  0  0  0
  151.8718  137.4395  155.0710 N   0  5  0  0  0  0  0  0  0  0  0  0
  152.3538  137.5848  156.3388 C   0  0  0  0  0  0  0  0  0  0  0  0
  152.9508  136.6776  156.9175 O   0  0  0  0  0  0  0  0  0  0  0  0
  152.1455  138.8803  157.0123 C   0  0  0  0  0  0  0  0  0  0  0  0
  152.6644  139.0587  158.4374 C   0  0  0  0  0  0  0  0  0  0  0  0
  151.7119  138.4532  159.4780 C   0  0  0  0  0  0  0  0  0  0  0  0
  151.5271  137.0782  159.2191 O   0  0  0  0  0  0  0  0  0  0  0  0
  152.1269  141.6848  157.2789 H   0  0  0  0  0  0  0  0  0  0  0  0
  150.4962  141.1620  157.7332 H   0  0  0  0  0  0  0  0  0  0  0  0
  150.7841  141.9007  156.1580 H   0  0  0  0  0  0  0  0  0  0  0  0
  150.2836  138.8989  152.6162 H   0  0  0  0  0  0  0  0  0  0  0  0
  150.9177  137.3385  152.7151 H   0  0  0  0  0  0  0  0  0  0  0  0
  153.6494  138.6034  158.5367 H   0  0  0  0  0  0  0  0  0  0  0  0
  152.8200  140.1193  158.6403 H   0  0  0  0  0  0  0  0  0  0  0  0
  152.1112  138.5729  160.4856 H   0  0  0  0  0  0  0  0  0  0  0  0
  150.7434  138.9531  159.4491 H   0  0  0  0  0  0  0  0  0  0  0  0
  151.0794  136.9877  158.3920 H   0  0  0  0  0  0  0  0  0  0  0  0
  1  2  1  0  0  0  0
  1 13  1  0  0  0  0
  1 14  1  0  0  0  0
  1 15  1  0  0  0  0
  2  9  2  0  0  0  0
  2  3  1  0  0  0  0
  3  4  2  0  0  0  0
  4  5  1  0  0  0  0
  4  6  1  0  0  0  0
  5 16  1  0  0  0  0
  5 17  1  0  0  0  0
  6  7  1  0  0  0  0
  7  8  2  0  0  0  0
  7  9  1  0  0  0  0
  9 10  1  0  0  0  0
 10 11  1  0  0  0  0
 10 18  1  0  0  0  0
 10 19  1  0  0  0  0
 11 12  1  0  0  0  0
 11 20  1  0  0  0  0
 11 21  1  0  0  0  0
 12 22  1  0  0  0  0
M  CHG  1   6  -1
M  END
> <s_m_source_file>
AV-unprocessed.smi

> <i_m_source_file_index>
1008

> <i_lp_mmshare_version>
43012

> <i_f3d_flags>
0

> <s_epik_input>
W0NIM11jMW5jKFtOSDJdKVtuSF1jKD1PKWMxW0NIMl1bQ0gyXVtPSF0=

> <s_epik_cmdline>
J2VwaWtfcHl0aG9uJywgJy1waCcsICc3LjAnLCAnLXRuJywgJzgnLCAnLW1hJywgJzIwMCcsICctbWV0YWxfYmluZGluZycsICctaW1hZScsICc8aW5maWxlLm1hZT4nLCAnLW9tYWUnLCAnPG91dGZpbGUubWFlPic=

> <r_lp_tautomer_probability>
0.878315

> <r_epik_Ionization_Penalty>
8.31336

> <r_epik_Ionization_Penalty_Charging>
3.16854e-07

> <r_epik_Ionization_Penalty_Neutral>
8.31336

> <r_epik_State_Penalty>
5.82337

> <r_epik_Charging_Adjusted_Penalty>
5.82337

> <i_epik_Tot_Q>
-1

> <i_epik_Tot_abs_Q>
1

> <r_epik_Metal_State_Penalty>
1.89563

> <b_epik_Metal_Only>
1

> <s_lp_Force_Field>
OPLS_2005

> <r_lp_Energy>
6.72114

> <b_lp_Chiralities_Consistent>
1

> <s_lp_Variant>
AV-unprocessed.smi:1008-4

> <Gold.Version>
5.8.1

> <Gold.Id.Protein>
6NUR|6NUR_protein|mol2

> <Gold.PLP.Fitness>
31.8659

> <Gold.PLP.PLP>
-15.0578

> <Gold.PLP.part.hbond>
-6.9018

> <Gold.PLP.part.metal>
0.0000

> <Gold.PLP.part.buried>
2.5197

> <Gold.PLP.part.nonpolar>
-9.9754

> <Gold.PLP.part.repulsive>
0.2521

> <Gold.PLP.ligand.clash>
0.0000

> <Gold.PLP.ligand.torsion>
0.3017

> <Gold.PLP.Chemscore.Hbond>
5.8037

> <Gold.PLP.Chemscore.CHOScore>
0.0000

> <Gold.PLP.Chemscore.Metal>
0.0000

> <Gold.Chemscore.Hbonds>
donor molecule, donor type, donor heavy atom, donor atom, acceptor molecule, acceptor atom, score
      L1  H     5    16       P1  7957  1.00
      L1  H     5    17       P1  7949  0.90
      P1  H  6896  6907       L1    12  0.96
      P1  H  7989  7998       L1     3  0.90
      P1  H 10752 10763       L1     6  0.63
      P1  H 10752 10764       L1     8  0.09

> <Gold.PLP.Chemscore.Internal.Correction>
0.0005

> <Gold.Rescore>
     Score         DG    S(hbond)    S(metal)    S(lipo)     H(rot)  DE(clash)    DE(int)     intcor
     10.08     -12.68       2.77        0.00      26.75       2.03       2.22       0.38       ----

> <Gold.Chemscore.Fitness>
10.0833

> <Gold.Chemscore.DG>
-12.6795

> <Gold.Chemscore.ZeroCoef>
-5.4800

> <Gold.Chemscore.Hbond>
2.7749

> <Gold.Chemscore.Metal>
0.0000

> <Gold.Chemscore.Lipo>
26.7504

> <Gold.Chemscore.Internal_Hbond>
0.0000

> <Gold.Chemscore.DEClash>
2.2209

> <Gold.Chemscore.DEInternal>
0.3754

> <Gold.Chemscore.Rot>
2.0307

> <Gold.Chemscore.Internal.Correction>
   9.000000E+99

> <Gold.Chemscore.Hbonds>
donor molecule, donor type, donor heavy atom, donor atom, acceptor molecule, acceptor atom, score
      L1  H     5    16       P1  7957  0.34
      L1  H     5    17       P1  7949  0.18
      P1  H  6896  6907       L1    12  0.36
      P1  H  7989  7998       L1     3  0.19
      P1  H 10752 10763       L1     6  0.17
      P1  H 10752 10764       L1     8  0.07

> <Gold.Chemscore.Hbond.Weighted>
-9.2682

> <Gold.Chemscore.Metal.Weighted>
-0.0000

> <Gold.Chemscore.Lipo.Weighted>
-3.1298

> <Gold.Chemscore.Internal_Hbond.Weighted>
0.0000

> <Gold.Chemscore.DEClash.Weighted>
2.2209

> <Gold.Chemscore.DEInternal.Weighted>
0.3754

> <Gold.Chemscore.Rot.Weighted>
5.1985

> <Gold.Chemscore.Internal.Correction.Weighted>
   9.000000E+99

> <Gold.Protein.RotatedTorsions>
[ 6907 6896 6895 6894 ] final   -2.62 input  -60.11 | X-H torsion
[ 7974 7965 7964 7962 ] final -100.61 input  175.53 | X-H torsion
[ 8008 7997 7996 7995 ] final -162.50 input   59.86 | X-H torsion
[ 10167 10162 10161 10158 ] final  -35.95 input  -65.29 | X-H torsion
[ 10718 10713 10712 10709 ] final  127.75 input   66.30 | X-H torsion
[ 10763 10752 10751 10750 ] final   33.75 input  -60.55 | X-H torsion
[ 11005 11000 10999 10996 ] final -164.04 input  -57.11 | X-H torsion

> <Gold.Protein.ActiveResidues>
 VAL166  LYS551  ARG553  GLY616  TRP617  ASP618  TYR619  PRO620  LYS621  CYS622 
 ASP623  PHE694  ASN695  SER759  ASP760  ASP761  ALA762  ILE779  LEU786  VAL792 
 PHE793  MET794  SER795  GLU796  ALA797  LYS798  CYS799  TRP800  GLU811  SER814 

> <Gold.Protein.RotatedAtoms>
  151.5270  135.1068  159.9892 H   0  0  0  0  0  0  0  0  0  0  0  0  # atno 6907 bound_to 6896
  152.4595  133.7789  159.6850 H   0  0  0  0  0  0  0  0  0  0  0  0  # atno 6908 bound_to 6896
  150.8552  133.7661  159.3036 H   0  0  0  0  0  0  0  0  0  0  0  0  # atno 6909 bound_to 6896
  145.2923  140.9356  143.2871 H   0  0  0  0  0  0  0  0  0  0  0  0  # atno 7974 bound_to 7965
  155.8077  140.0901  157.1921 H   0  0  0  0  0  0  0  0  0  0  0  0  # atno 8008 bound_to 7997
  154.3980  140.1460  156.3409 H   0  0  0  0  0  0  0  0  0  0  0  0  # atno 8009 bound_to 7997
  155.8397  140.3439  155.5626 H   0  0  0  0  0  0  0  0  0  0  0  0  # atno 8010 bound_to 7997
  140.7154  143.3442  151.2292 H   0  0  0  0  0  0  0  0  0  0  0  0  # atno 10167 bound_to 10162
  157.5305  131.1098  150.9016 H   0  0  0  0  0  0  0  0  0  0  0  0  # atno 10718 bound_to 10713
  153.0196  135.6378  154.1561 H   0  0  0  0  0  0  0  0  0  0  0  0  # atno 10763 bound_to 10752
  154.1297  135.2841  155.3190 H   0  0  0  0  0  0  0  0  0  0  0  0  # atno 10764 bound_to 10752
  154.6203  135.5527  153.7630 H   0  0  0  0  0  0  0  0  0  0  0  0  # atno 10765 bound_to 10752
  140.5913  134.5041  157.5193 H   0  0  0  0  0  0  0  0  0  0  0  0  # atno 11005 bound_to 11000
  144.9163  139.4467  143.6563 LP  0  0  0  0  0  0  0  0  0  0  0  0  # atno 17320 bound_to 7965
  146.3181  139.7998  142.8968 LP  0  0  0  0  0  0  0  0  0  0  0  0  # atno 17321 bound_to 7965
  139.6957  143.9617  152.2881 LP  0  0  0  0  0  0  0  0  0  0  0  0  # atno 17342 bound_to 10162
  139.9293  144.6751  150.8379 LP  0  0  0  0  0  0  0  0  0  0  0  0  # atno 17343 bound_to 10162
  156.9599  130.5451  149.5285 LP  0  0  0  0  0  0  0  0  0  0  0  0  # atno 17370 bound_to 10713
  156.0419  130.5500  150.8790 LP  0  0  0  0  0  0  0  0  0  0  0  0  # atno 17371 bound_to 10713
  139.9273  134.8032  156.1032 LP  0  0  0  0  0  0  0  0  0  0  0  0  # atno 17394 bound_to 11000
  141.0933  133.6705  156.2588 LP  0  0  0  0  0  0  0  0  0  0  0  0  # atno 17395 bound_to 11000

$$$$
