AV-unprocessed.smi:671|AV-procd|sdf|3288|dock5
  -GOLD-   22720 0243D 1   1.00000     0.00000
 Structure written by MMmdl.
 50 51  0  0  0  0  0  0  0  0  2 V2000
  147.0408  141.9925  153.8574 C   0  0  0  0  0  0  0  0  0  0  0  0
  148.2890  141.5503  154.5447 C   0  0  0  0  0  0  0  0  0  0  0  0
  148.9869  142.3113  155.4300 N   0  3  0  0  0  0  0  0  0  0  0  0
  150.0616  141.6424  155.8711 N   0  0  0  0  0  0  0  0  0  0  0  0
  150.9476  142.2924  156.8367 C   0  0  0  0  0  0  0  0  0  0  0  0
  150.1155  140.4068  155.2969 C   0  0  0  0  0  0  0  0  0  0  0  0
  151.1836  139.3954  155.5601 C   0  0  0  0  0  0  0  0  0  0  0  0
  148.9939  140.3436  154.4596 C   0  0  0  0  0  0  0  0  0  0  0  0
  148.6138  139.1687  153.6026 C   0  0  0  0  0  0  0  0  0  0  0  0
  147.4353  138.3510  154.1780 C   0  0  1  0  0  0  0  0  0  0  0  0
  146.1099  139.1280  154.1526 C   0  0  0  0  0  0  0  0  0  0  0  0
  147.2667  137.1057  153.4246 N   0  0  0  0  0  0  0  0  0  0  0  0
  146.2787  136.1971  153.5267 C   0  0  0  0  0  0  0  0  0  0  0  0
  145.3513  136.3356  154.3212 O   0  0  0  0  0  0  0  0  0  0  0  0
  146.3985  135.1488  152.6952 N   0  0  0  0  0  0  0  0  0  0  0  0
  145.4595  134.0389  152.5640 C   0  0  1  0  0  0  0  0  0  0  0  0
  144.2164  134.4782  151.7656 C   0  0  0  0  0  0  0  0  0  0  0  0
  144.2626  133.7097  150.4439 C   0  0  0  0  0  0  0  0  0  0  0  0
  145.0142  132.4269  150.7825 C   0  0  0  0  0  0  0  0  0  0  0  0
  146.0949  132.8779  151.7693 C   0  0  2  0  0  0  0  0  0  0  0  0
  146.6305  131.7436  152.6537 C   0  0  0  0  0  0  0  0  0  0  0  0
  147.1551  141.9071  152.7766 H   0  0  0  0  0  0  0  0  0  0  0  0
  146.8150  143.0312  154.1005 H   0  0  0  0  0  0  0  0  0  0  0  0
  146.1995  141.3736  154.1690 H   0  0  0  0  0  0  0  0  0  0  0  0
  151.9242  141.8082  156.8229 H   0  0  0  0  0  0  0  0  0  0  0  0
  150.5124  142.2076  157.8327 H   0  0  0  0  0  0  0  0  0  0  0  0
  151.0661  143.3448  156.5753 H   0  0  0  0  0  0  0  0  0  0  0  0
  150.9544  138.4498  155.0709 H   0  0  0  0  0  0  0  0  0  0  0  0
  151.2760  139.2135  156.6309 H   0  0  0  0  0  0  0  0  0  0  0  0
  152.1411  139.7537  155.1822 H   0  0  0  0  0  0  0  0  0  0  0  0
  148.3662  139.4987  152.5932 H   0  0  0  0  0  0  0  0  0  0  0  0
  149.4867  138.5258  153.4826 H   0  0  0  0  0  0  0  0  0  0  0  0
  147.6423  138.1060  155.2209 H   0  0  0  0  0  0  0  0  0  0  0  0
  146.1654  140.0313  154.7602 H   0  0  0  0  0  0  0  0  0  0  0  0
  145.2941  138.5229  154.5492 H   0  0  0  0  0  0  0  0  0  0  0  0
  145.8410  139.4232  153.1376 H   0  0  0  0  0  0  0  0  0  0  0  0
  147.9974  136.8955  152.7596 H   0  0  0  0  0  0  0  0  0  0  0  0
  147.2056  135.1240  152.0900 H   0  0  0  0  0  0  0  0  0  0  0  0
  145.1326  133.6844  153.5434 H   0  0  0  0  0  0  0  0  0  0  0  0
  143.3181  134.1964  152.3166 H   0  0  0  0  0  0  0  0  0  0  0  0
  144.1646  135.5560  151.6035 H   0  0  0  0  0  0  0  0  0  0  0  0
  143.2704  133.5202  150.0335 H   0  0  0  0  0  0  0  0  0  0  0  0
  144.8256  134.2802  149.7046 H   0  0  0  0  0  0  0  0  0  0  0  0
  144.3338  131.7226  151.2639 H   0  0  0  0  0  0  0  0  0  0  0  0
  145.4289  131.9386  149.9000 H   0  0  0  0  0  0  0  0  0  0  0  0
  146.9244  133.2671  151.1752 H   0  0  0  0  0  0  0  0  0  0  0  0
  145.8369  131.3015  153.2570 H   0  0  0  0  0  0  0  0  0  0  0  0
  147.4009  132.1099  153.3330 H   0  0  0  0  0  0  0  0  0  0  0  0
  147.0701  130.9502  152.0487 H   0  0  0  0  0  0  0  0  0  0  0  0
  148.7861  143.2498  155.7519 H   0  0  0  0  0  0  0  0  0  0  0  0
  1  2  1  0  0  0  0
  1 22  1  0  0  0  0
  1 23  1  0  0  0  0
  1 24  1  0  0  0  0
  2  8  1  0  0  0  0
  2  3  2  0  0  0  0
  3  4  1  0  0  0  0
  3 50  1  0  0  0  0
  4  5  1  0  0  0  0
  4  6  1  0  0  0  0
  5 25  1  0  0  0  0
  5 26  1  0  0  0  0
  5 27  1  0  0  0  0
  6  7  1  0  0  0  0
  6  8  2  0  0  0  0
  7 28  1  0  0  0  0
  7 29  1  0  0  0  0
  7 30  1  0  0  0  0
  8  9  1  0  0  0  0
  9 10  1  0  0  0  0
  9 31  1  0  0  0  0
  9 32  1  0  0  0  0
 10 11  1  0  0  0  0
 10 12  1  0  0  0  0
 10 33  1  0  0  0  0
 11 34  1  0  0  0  0
 11 35  1  0  0  0  0
 11 36  1  0  0  0  0
 12 13  1  0  0  0  0
 12 37  1  0  0  0  0
 13 14  2  0  0  0  0
 13 15  1  0  0  0  0
 15 16  1  0  0  0  0
 15 38  1  0  0  0  0
 16 20  1  0  0  0  0
 16 17  1  0  0  0  0
 16 39  1  0  0  0  0
 17 18  1  0  0  0  0
 17 40  1  0  0  0  0
 17 41  1  0  0  0  0
 18 19  1  0  0  0  0
 18 42  1  0  0  0  0
 18 43  1  0  0  0  0
 19 20  1  0  0  0  0
 19 44  1  0  0  0  0
 19 45  1  0  0  0  0
 20 21  1  0  0  0  0
 20 46  1  0  0  0  0
 21 47  1  0  0  0  0
 21 48  1  0  0  0  0
 21 49  1  0  0  0  0
M  CHG  1   3   1
M  END
> <s_m_source_file>
AV-unprocessed.smi

> <i_m_source_file_index>
671

> <i_lp_mmshare_version>
43012

> <i_f3d_flags>
0

> <s_epik_input>
W0NIM11jMW5uKFtDSDNdKWMoW0NIM10pYzFbQ0gyXVtDQEhdKFtDSDNdKVtOSF1DKD1PKVtOSF1bQ0BASF0yW0NIMl1bQ0gyXVtDSDJdW0NASF0yW0NIM10=

> <s_epik_cmdline>
J2VwaWtfcHl0aG9uJywgJy1waCcsICc3LjAnLCAnLXRuJywgJzgnLCAnLW1hJywgJzIwMCcsICctbWV0YWxfYmluZGluZycsICctaW1hZScsICc8aW5maWxlLm1hZT4nLCAnLW9tYWUnLCAnPG91dGZpbGUubWFlPic=

> <r_lp_tautomer_probability>
1

> <r_epik_Ionization_Penalty>
2.28705

> <r_epik_Ionization_Penalty_Charging>
2.28698

> <r_epik_Ionization_Penalty_Neutral>
6.23157e-05

> <r_epik_State_Penalty>
2.43671

> <r_epik_Charging_Adjusted_Penalty>
4.72369

> <i_epik_Tot_Q>
1

> <i_epik_Tot_abs_Q>
1

> <r_epik_Metal_State_Penalty>
2.44911

> <b_epik_Metal_Only>
0

> <s_lp_Force_Field>
OPLS_2005

> <r_lp_Energy>
34.8229

> <b_lp_Chiralities_Consistent>
1

> <s_lp_Variant>
AV-unprocessed.smi:671-16

> <Gold.Version>
5.8.1

> <Gold.Id.Protein>
6NUR|6NUR_protein|mol2

> <Gold.PLP.Fitness>
45.4383

> <Gold.PLP.PLP>
-35.8887

> <Gold.PLP.part.hbond>
-2.4607

> <Gold.PLP.part.metal>
0.0000

> <Gold.PLP.part.buried>
-2.5484

> <Gold.PLP.part.nonpolar>
-31.7880

> <Gold.PLP.part.repulsive>
0.2056

> <Gold.PLP.ligand.clash>
0.0000

> <Gold.PLP.ligand.torsion>
0.5123

> <Gold.PLP.Chemscore.Hbond>
3.5049

> <Gold.PLP.Chemscore.CHOScore>
0.0000

> <Gold.PLP.Chemscore.Metal>
0.0000

> <Gold.Chemscore.Hbonds>
donor molecule, donor type, donor heavy atom, donor atom, acceptor molecule, acceptor atom, score
      L1  H     3    50       P1  8028  1.69
      L1  H    12    37       P1  7948  0.84
      L1  H    15    38       P1  7948  0.74

> <Gold.PLP.Chemscore.Internal.Correction>
0.0593

> <Gold.Rescore>
     Score         DG    S(hbond)    S(metal)    S(lipo)     H(rot)  DE(clash)    DE(int)     intcor
     17.45     -20.45       2.59        0.00      86.90       1.51       0.99       2.01       ----

> <Gold.Chemscore.Fitness>
17.4484

> <Gold.Chemscore.DG>
-20.4474

> <Gold.Chemscore.ZeroCoef>
-5.4800

> <Gold.Chemscore.Hbond>
2.5912

> <Gold.Chemscore.Metal>
0.0000

> <Gold.Chemscore.Lipo>
86.9018

> <Gold.Chemscore.Internal_Hbond>
0.0000

> <Gold.Chemscore.DEClash>
0.9937

> <Gold.Chemscore.DEInternal>
2.0053

> <Gold.Chemscore.Rot>
1.5057

> <Gold.Chemscore.Internal.Correction>
   9.000000E+99

> <Gold.Chemscore.Hbonds>
donor molecule, donor type, donor heavy atom, donor atom, acceptor molecule, acceptor atom, score
      L1  H     3    50       P1  8028  0.81
      L1  H    12    37       P1  7948  0.82
      L1  H    15    38       P1  7948  0.68

> <Gold.Chemscore.Hbond.Weighted>
-8.6546

> <Gold.Chemscore.Metal.Weighted>
-0.0000

> <Gold.Chemscore.Lipo.Weighted>
-10.1675

> <Gold.Chemscore.Internal_Hbond.Weighted>
0.0000

> <Gold.Chemscore.DEClash.Weighted>
0.9937

> <Gold.Chemscore.DEInternal.Weighted>
2.0053

> <Gold.Chemscore.Rot.Weighted>
3.8547

> <Gold.Chemscore.Internal.Correction.Weighted>
   9.000000E+99

> <Gold.Protein.RotatedTorsions>
[ 6907 6896 6895 6894 ] final  -17.09 input  -60.11 | X-H torsion
[ 7974 7965 7964 7962 ] final -128.51 input  175.53 | X-H torsion
[ 8008 7997 7996 7995 ] final  -47.62 input   59.86 | X-H torsion
[ 10167 10162 10161 10158 ] final -153.01 input  -65.29 | X-H torsion
[ 10718 10713 10712 10709 ] final   57.98 input   66.30 | X-H torsion
[ 10763 10752 10751 10750 ] final   50.36 input  -60.55 | X-H torsion
[ 11005 11000 10999 10996 ] final -144.44 input  -57.11 | X-H torsion

> <Gold.Protein.ActiveResidues>
 VAL166  LYS551  ARG553  GLY616  TRP617  ASP618  TYR619  PRO620  LYS621  CYS622 
 ASP623  PHE694  ASN695  SER759  ASP760  ASP761  ALA762  ILE779  LEU786  VAL792 
 PHE793  MET794  SER795  GLU796  ALA797  LYS798  CYS799  TRP800  GLU811  SER814 

> <Gold.Protein.RotatedAtoms>
  151.2987  135.0762  159.9230 H   0  0  0  0  0  0  0  0  0  0  0  0  # atno 6907 bound_to 6896
  152.5302  133.9856  159.7837 H   0  0  0  0  0  0  0  0  0  0  0  0  # atno 6908 bound_to 6896
  151.0139  133.5888  159.2710 H   0  0  0  0  0  0  0  0  0  0  0  0  # atno 6909 bound_to 6896
  144.9664  140.7500  143.4697 H   0  0  0  0  0  0  0  0  0  0  0  0  # atno 7974 bound_to 7965
  154.4019  140.1342  156.4205 H   0  0  0  0  0  0  0  0  0  0  0  0  # atno 8008 bound_to 7997
  155.7647  140.3485  155.5196 H   0  0  0  0  0  0  0  0  0  0  0  0  # atno 8009 bound_to 7997
  155.8825  140.0990  157.1465 H   0  0  0  0  0  0  0  0  0  0  0  0  # atno 8010 bound_to 7997
  139.7133  143.9074  152.2476 H   0  0  0  0  0  0  0  0  0  0  0  0  # atno 10167 bound_to 10162
  157.5559  130.8799  149.9034 H   0  0  0  0  0  0  0  0  0  0  0  0  # atno 10718 bound_to 10713
  152.9785  135.5881  154.4239 H   0  0  0  0  0  0  0  0  0  0  0  0  # atno 10763 bound_to 10752
  154.3860  135.2767  155.2185 H   0  0  0  0  0  0  0  0  0  0  0  0  # atno 10764 bound_to 10752
  154.4078  135.6088  153.5989 H   0  0  0  0  0  0  0  0  0  0  0  0  # atno 10765 bound_to 10752
  140.8024  134.2841  157.4973 H   0  0  0  0  0  0  0  0  0  0  0  0  # atno 11005 bound_to 11000
  145.2624  139.1987  143.4885 LP  0  0  0  0  0  0  0  0  0  0  0  0  # atno 17320 bound_to 7965
  146.3369  140.2556  142.8600 LP  0  0  0  0  0  0  0  0  0  0  0  0  # atno 17321 bound_to 7965
  139.8949  144.6944  150.8729 LP  0  0  0  0  0  0  0  0  0  0  0  0  # atno 17342 bound_to 10162
  140.7738  143.3558  151.1925 LP  0  0  0  0  0  0  0  0  0  0  0  0  # atno 17343 bound_to 10162
  156.0618  130.3698  150.0966 LP  0  0  0  0  0  0  0  0  0  0  0  0  # atno 17370 bound_to 10713
  156.9135  130.9659  151.3559 LP  0  0  0  0  0  0  0  0  0  0  0  0  # atno 17371 bound_to 10713
  139.8720  134.9437  156.3860 LP  0  0  0  0  0  0  0  0  0  0  0  0  # atno 17394 bound_to 11000
  140.9281  133.7598  155.9990 LP  0  0  0  0  0  0  0  0  0  0  0  0  # atno 17395 bound_to 11000

$$$$
