AV-unprocessed.smi:9|AV-procd|sdf|49|dock8
  -GOLD-   2262015163D 1   1.00000     0.00000
 Structure written by MMmdl.
 34 36  0  0  0  0  0  0  0  0  2 V2000
  152.8112  136.6392  158.5680 O   0  0  0  0  0  0  0  0  0  0  0  0
  151.7318  137.1757  158.3254 C   0  0  0  0  0  0  0  0  0  0  0  0
  150.5108  136.7255  158.7539 N   0  5  0  0  0  0  0  0  0  0  0  0
  149.3375  137.4129  158.4233 C   0  0  0  0  0  0  0  0  0  0  0  0
  148.0418  136.8161  158.9627 C   0  0  0  0  0  0  0  0  0  0  0  0
  146.9837  137.5668  158.6469 F   0  0  0  0  0  0  0  0  0  0  0  0
  147.8426  135.5973  158.4590 F   0  0  0  0  0  0  0  0  0  0  0  0
  148.0923  136.7175  160.2917 F   0  0  0  0  0  0  0  0  0  0  0  0
  149.2756  138.4928  157.7122 N   0  0  0  0  0  0  0  0  0  0  0  0
  150.4874  138.9727  157.2659 C   0  0  0  0  0  0  0  0  0  0  0  0
  151.7115  138.4145  157.5036 C   0  0  0  0  0  0  0  0  0  0  0  0
  152.7258  139.1488  156.8995 N   0  0  0  0  0  0  0  0  0  0  0  0
  152.0460  140.1357  156.3154 C   0  0  0  0  0  0  0  0  0  0  0  0
  150.7099  140.1066  156.4951 N   0  0  0  0  0  0  0  0  0  0  0  0
  149.7276  141.0475  155.9762 C   0  0  0  0  0  0  0  0  0  0  0  0
  148.9679  140.5502  154.7191 C   0  0  1  0  0  0  0  0  0  0  0  0
  149.8197  140.7454  153.6054 O   0  0  0  0  0  0  0  0  0  0  0  0
  148.5948  139.0543  154.8187 C   0  0  0  0  0  0  0  0  0  0  0  0
  147.6218  138.6355  153.7122 C   0  0  0  0  0  0  0  0  0  0  0  0
  146.4198  139.5857  153.6787 C   0  0  0  0  0  0  0  0  0  0  0  0
  146.8799  140.9101  153.4498 O   0  0  0  0  0  0  0  0  0  0  0  0
  147.7095  141.4213  154.4906 C   0  0  0  0  0  0  0  0  0  0  0  0
  152.5362  140.9089  155.7423 H   0  0  0  0  0  0  0  0  0  0  0  0
  149.0173  141.2576  156.7769 H   0  0  0  0  0  0  0  0  0  0  0  0
  150.2326  141.9918  155.7678 H   0  0  0  0  0  0  0  0  0  0  0  0
  149.6506  140.0611  152.9761 H   0  0  0  0  0  0  0  0  0  0  0  0
  149.4849  138.4250  154.7844 H   0  0  0  0  0  0  0  0  0  0  0  0
  148.1228  138.8669  155.7841 H   0  0  0  0  0  0  0  0  0  0  0  0
  148.1274  138.6489  152.7460 H   0  0  0  0  0  0  0  0  0  0  0  0
  147.2881  137.6106  153.8759 H   0  0  0  0  0  0  0  0  0  0  0  0
  145.7421  139.3045  152.8725 H   0  0  0  0  0  0  0  0  0  0  0  0
  145.8508  139.5364  154.6084 H   0  0  0  0  0  0  0  0  0  0  0  0
  147.1171  141.4726  155.4055 H   0  0  0  0  0  0  0  0  0  0  0  0
  147.9889  142.4475  154.2483 H   0  0  0  0  0  0  0  0  0  0  0  0
  1  2  2  0  0  0  0
  2 11  1  0  0  0  0
  2  3  1  0  0  0  0
  3  4  1  0  0  0  0
  4  5  1  0  0  0  0
  4  9  2  0  0  0  0
  5  6  1  0  0  0  0
  5  7  1  0  0  0  0
  5  8  1  0  0  0  0
  9 10  1  0  0  0  0
 10 14  1  0  0  0  0
 10 11  2  0  0  0  0
 11 12  1  0  0  0  0
 12 13  2  0  0  0  0
 13 14  1  0  0  0  0
 13 23  1  0  0  0  0
 14 15  1  0  0  0  0
 15 16  1  0  0  0  0
 15 24  1  0  0  0  0
 15 25  1  0  0  0  0
 16 22  1  0  0  0  0
 16 17  1  0  0  0  0
 16 18  1  0  0  0  0
 17 26  1  0  0  0  0
 18 19  1  0  0  0  0
 18 27  1  0  0  0  0
 18 28  1  0  0  0  0
 19 20  1  0  0  0  0
 19 29  1  0  0  0  0
 19 30  1  0  0  0  0
 20 21  1  0  0  0  0
 20 31  1  0  0  0  0
 20 32  1  0  0  0  0
 21 22  1  0  0  0  0
 22 33  1  0  0  0  0
 22 34  1  0  0  0  0
M  CHG  1   3  -1
M  END
> <s_m_source_file>
AV-unprocessed.smi

> <i_m_source_file_index>
9

> <i_lp_mmshare_version>
43012

> <i_f3d_flags>
0

> <s_epik_input>
RkMoRikoRiljKG4xKVtuSF1jKD1PKWMoYzEyKW5bY0hdbjJbQ0gyXVtDQEBdMyhbT0hdKVtDSDJdW0NIMl1bQ0gyXU9bQ0gyXTM=

> <s_epik_cmdline>
J2VwaWtfcHl0aG9uJywgJy1waCcsICc3LjAnLCAnLXRuJywgJzgnLCAnLW1hJywgJzIwMCcsICctbWV0YWxfYmluZGluZycsICctaW1hZScsICc8aW5maWxlLm1hZT4nLCAnLW9tYWUnLCAnPG91dGZpbGUubWFlPic=

> <r_lp_tautomer_probability>
1

> <r_epik_Ionization_Penalty>
0.188582

> <r_epik_Ionization_Penalty_Charging>
1.37005e-11

> <r_epik_Ionization_Penalty_Neutral>
0.188582

> <r_epik_State_Penalty>
0.012336

> <r_epik_Charging_Adjusted_Penalty>
0.012336

> <i_epik_Tot_Q>
-1

> <i_epik_Tot_abs_Q>
1

> <r_epik_Metal_State_Penalty>
0.0089237

> <b_epik_Metal_Only>
0

> <s_lp_Force_Field>
OPLS_2005

> <r_lp_Energy>
37.6166

> <b_lp_Chiralities_Consistent>
1

> <s_lp_Variant>
AV-unprocessed.smi:9-1

> <Gold.Version>
5.8.1

> <Gold.Id.Protein>
6NUR|6NUR_protein|mol2

> <Gold.PLP.Fitness>
39.6345

> <Gold.PLP.PLP>
-26.0158

> <Gold.PLP.part.hbond>
-5.1436

> <Gold.PLP.part.metal>
0.0000

> <Gold.PLP.part.buried>
-3.4170

> <Gold.PLP.part.nonpolar>
-18.0520

> <Gold.PLP.part.repulsive>
0.1791

> <Gold.PLP.ligand.clash>
0.0000

> <Gold.PLP.ligand.torsion>
0.5174

> <Gold.PLP.Chemscore.Hbond>
4.8825

> <Gold.PLP.Chemscore.CHOScore>
0.0000

> <Gold.PLP.Chemscore.Metal>
0.0000

> <Gold.Chemscore.Hbonds>
donor molecule, donor type, donor heavy atom, donor atom, acceptor molecule, acceptor atom, score
      L1  H    17    26       P1  7957  0.66
      P1  H  6896  6907       L1     3  1.89
      P1  H  7989  7998       L1    17  0.42
      P1  H  7997  8008       L1    12  0.85
      P1  H  8011  8017       L1    17  0.84

> <Gold.PLP.Chemscore.Internal.Correction>
0.0061

> <Gold.Rescore>
     Score         DG    S(hbond)    S(metal)    S(lipo)     H(rot)  DE(clash)    DE(int)     intcor
     11.90     -12.42       2.33        0.00      39.29       2.12       0.07       0.45       ----

> <Gold.Chemscore.Fitness>
11.9014

> <Gold.Chemscore.DG>
-12.4177

> <Gold.Chemscore.ZeroCoef>
-5.4800

> <Gold.Chemscore.Hbond>
2.3286

> <Gold.Chemscore.Metal>
0.0000

> <Gold.Chemscore.Lipo>
39.2933

> <Gold.Chemscore.Internal_Hbond>
0.0000

> <Gold.Chemscore.DEClash>
0.0689

> <Gold.Chemscore.DEInternal>
0.4474

> <Gold.Chemscore.Rot>
2.1239

> <Gold.Chemscore.Internal.Correction>
   9.000000E+99

> <Gold.Chemscore.Hbonds>
donor molecule, donor type, donor heavy atom, donor atom, acceptor molecule, acceptor atom, score
      L1  H    17    26       P1  7957  0.66
      P1  H  6896  6907       L1     3  0.26
      P1  H  7989  7998       L1    17  0.13
      P1  H  7997  8008       L1    12  0.14
      P1  H  8011  8017       L1    17  0.20

> <Gold.Chemscore.Hbond.Weighted>
-7.7777

> <Gold.Chemscore.Metal.Weighted>
-0.0000

> <Gold.Chemscore.Lipo.Weighted>
-4.5973

> <Gold.Chemscore.Internal_Hbond.Weighted>
0.0000

> <Gold.Chemscore.DEClash.Weighted>
0.0689

> <Gold.Chemscore.DEInternal.Weighted>
0.4474

> <Gold.Chemscore.Rot.Weighted>
5.4373

> <Gold.Chemscore.Internal.Correction.Weighted>
   9.000000E+99

> <Gold.Protein.RotatedTorsions>
[ 6907 6896 6895 6894 ] final  -32.95 input  -60.11 | X-H torsion
[ 7974 7965 7964 7962 ] final -129.16 input  175.53 | X-H torsion
[ 8008 7997 7996 7995 ] final  -78.26 input   59.86 | X-H torsion
[ 10167 10162 10161 10158 ] final  -69.11 input  -65.29 | X-H torsion
[ 10718 10713 10712 10709 ] final  -11.88 input   66.30 | X-H torsion
[ 10763 10752 10751 10750 ] final -174.73 input  -60.55 | X-H torsion
[ 11005 11000 10999 10996 ] final   35.49 input  -57.11 | X-H torsion

> <Gold.Protein.ActiveResidues>
 VAL166  LYS551  ARG553  GLY616  TRP617  ASP618  TYR619  PRO620  LYS621  CYS622 
 ASP623  PHE694  ASN695  SER759  ASP760  ASP761  ALA762  ILE779  LEU786  VAL792 
 PHE793  MET794  SER795  GLU796  ALA797  LYS798  CYS799  TRP800  GLU811  SER814 

> <Gold.Protein.RotatedAtoms>
  151.0720  134.9804  159.8313 H   0  0  0  0  0  0  0  0  0  0  0  0  # atno 6907 bound_to 6896
  152.5409  134.2287  159.8826 H   0  0  0  0  0  0  0  0  0  0  0  0  # atno 6908 bound_to 6896
  151.2312  133.4406  159.2637 H   0  0  0  0  0  0  0  0  0  0  0  0  # atno 6909 bound_to 6896
  144.9599  140.7435  143.4735 H   0  0  0  0  0  0  0  0  0  0  0  0  # atno 7974 bound_to 7965
  154.5672  140.0697  156.8910 H   0  0  0  0  0  0  0  0  0  0  0  0  # atno 8008 bound_to 7997
  155.2700  140.3364  155.4248 H   0  0  0  0  0  0  0  0  0  0  0  0  # atno 8009 bound_to 7997
  156.2090  140.1751  156.7722 H   0  0  0  0  0  0  0  0  0  0  0  0  # atno 8010 bound_to 7997
  140.5455  143.2313  151.7009 H   0  0  0  0  0  0  0  0  0  0  0  0  # atno 10167 bound_to 10162
  156.6526  130.4959  149.6057 H   0  0  0  0  0  0  0  0  0  0  0  0  # atno 10718 bound_to 10713
  154.5928  135.2847  155.0617 H   0  0  0  0  0  0  0  0  0  0  0  0  # atno 10763 bound_to 10752
  154.1911  135.6440  153.5064 H   0  0  0  0  0  0  0  0  0  0  0  0  # atno 10764 bound_to 10752
  153.0127  135.5446  154.6620 H   0  0  0  0  0  0  0  0  0  0  0  0  # atno 10765 bound_to 10752
  140.2422  134.3402  155.7921 H   0  0  0  0  0  0  0  0  0  0  0  0  # atno 11005 bound_to 11000
  145.2716  139.1952  143.4838 LP  0  0  0  0  0  0  0  0  0  0  0  0  # atno 17320 bound_to 7965
  146.3349  140.2663  142.8604 LP  0  0  0  0  0  0  0  0  0  0  0  0  # atno 17321 bound_to 7965
  139.5006  144.3901  152.0289 LP  0  0  0  0  0  0  0  0  0  0  0  0  # atno 17342 bound_to 10162
  140.3013  144.3643  150.6059 LP  0  0  0  0  0  0  0  0  0  0  0  0  # atno 17343 bound_to 10162
  156.2073  130.6657  151.1231 LP  0  0  0  0  0  0  0  0  0  0  0  0  # atno 17370 bound_to 10713
  157.7136  131.0721  150.6411 LP  0  0  0  0  0  0  0  0  0  0  0  0  # atno 17371 bound_to 10713
  141.2209  133.7305  156.8903 LP  0  0  0  0  0  0  0  0  0  0  0  0  # atno 17394 bound_to 11000
  140.1642  134.9144  157.2753 LP  0  0  0  0  0  0  0  0  0  0  0  0  # atno 17395 bound_to 11000

$$$$
