AV-unprocessed.smi:1171|AV-procd|sdf|4942|dock6
  -GOLD-   22720 3523D 1   1.00000     0.00000
 Structure written by MMmdl.
 32 33  0  0  0  0  0  0  0  0  1 V2000
  147.1749  139.0347  153.1200 C   0  0  0  0  0  0  0  0  0  0  0  0
  148.1720  139.8136  153.9256 C   0  0  0  0  0  0  0  0  0  0  0  0
  147.9759  141.0489  154.6093 C   0  0  0  0  0  0  0  0  0  0  0  0
  149.2044  141.2841  155.1631 C   0  0  0  0  0  0  0  0  0  0  0  0
  149.6037  142.3186  155.9491 N   0  0  0  0  0  0  0  0  0  0  0  0
  150.3927  142.2971  157.0414 C   0  0  0  0  0  0  0  0  0  0  0  0
  150.8370  141.2768  157.5640 O   0  0  0  0  0  0  0  0  0  0  0  0
  150.6358  143.5097  157.5717 N   0  0  0  0  0  0  0  0  0  0  0  0
  151.4279  143.8286  158.7226 C   0  0  0  0  0  0  0  0  0  0  0  0
  151.1852  145.1717  159.3768 C   0  0  0  0  0  0  0  0  0  0  0  0
  152.4488  144.9389  158.5954 C   0  0  0  0  0  0  0  0  0  0  0  0
  150.0518  140.2533  154.8219 N   0  0  0  0  0  0  0  0  0  0  0  0
  151.4420  140.0416  155.1790 C   0  0  0  0  0  0  0  0  0  0  0  0
  151.9964  138.7733  154.5225 C   0  0  0  0  0  0  0  0  0  0  0  0
  153.4647  138.7705  154.4539 C   0  0  0  0  0  0  0  0  0  0  0  0
  154.6203  138.7677  154.4007 N   0  0  0  0  0  0  0  0  0  0  0  0
  149.4076  139.3444  154.0589 N   0  0  0  0  0  0  0  0  0  0  0  0
  146.1928  139.5075  153.1444 H   0  0  0  0  0  0  0  0  0  0  0  0
  147.0643  138.0209  153.5054 H   0  0  0  0  0  0  0  0  0  0  0  0
  147.4833  138.9646  152.0766 H   0  0  0  0  0  0  0  0  0  0  0  0
  147.0761  141.6421  154.6747 H   0  0  0  0  0  0  0  0  0  0  0  0
  149.2679  143.2277  155.6675 H   0  0  0  0  0  0  0  0  0  0  0  0
  150.1482  144.2871  157.1499 H   0  0  0  0  0  0  0  0  0  0  0  0
  151.6707  143.0225  159.4136 H   0  0  0  0  0  0  0  0  0  0  0  0
  150.4363  145.8273  158.9359 H   0  0  0  0  0  0  0  0  0  0  0  0
  151.2688  145.2241  160.4606 H   0  0  0  0  0  0  0  0  0  0  0  0
  153.3751  144.8346  159.1569 H   0  0  0  0  0  0  0  0  0  0  0  0
  152.5426  145.4369  157.6319 H   0  0  0  0  0  0  0  0  0  0  0  0
  152.0249  140.9123  154.8750 H   0  0  0  0  0  0  0  0  0  0  0  0
  151.5190  139.9748  156.2649 H   0  0  0  0  0  0  0  0  0  0  0  0
  151.6875  137.8880  155.0789 H   0  0  0  0  0  0  0  0  0  0  0  0
  151.6119  138.6698  153.5076 H   0  0  0  0  0  0  0  0  0  0  0  0
  1  2  1  0  0  0  0
  1 18  1  0  0  0  0
  1 19  1  0  0  0  0
  1 20  1  0  0  0  0
  2 17  2  0  0  0  0
  2  3  1  0  0  0  0
  3  4  2  0  0  0  0
  3 21  1  0  0  0  0
  4  5  1  0  0  0  0
  4 12  1  0  0  0  0
  5  6  1  0  0  0  0
  5 22  1  0  0  0  0
  6  7  2  0  0  0  0
  6  8  1  0  0  0  0
  8  9  1  0  0  0  0
  8 23  1  0  0  0  0
  9 11  1  0  0  0  0
  9 10  1  0  0  0  0
  9 24  1  0  0  0  0
 10 11  1  0  0  0  0
 10 25  1  0  0  0  0
 10 26  1  0  0  0  0
 11 27  1  0  0  0  0
 11 28  1  0  0  0  0
 12 13  1  0  0  0  0
 12 17  1  0  0  0  0
 13 14  1  0  0  0  0
 13 29  1  0  0  0  0
 13 30  1  0  0  0  0
 14 15  1  0  0  0  0
 14 31  1  0  0  0  0
 14 32  1  0  0  0  0
 15 16  3  0  0  0  0
M  END
> <s_m_source_file>
AV-unprocessed.smi

> <i_m_source_file_index>
1171

> <i_lp_mmshare_version>
43012

> <i_f3d_flags>
0

> <s_epik_input>
TiNDW0NIMl1bQ0gyXW4objEpYyhbY0hdYzFbQ0gzXSlbTkhdQyg9TylbTkhdW0NIXTJbQ0gyXVtDSDJdMg==

> <s_epik_cmdline>
J2VwaWtfcHl0aG9uJywgJy1waCcsICc3LjAnLCAnLXRuJywgJzgnLCAnLW1hJywgJzIwMCcsICctbWV0YWxfYmluZGluZycsICctaW1hZScsICc8aW5maWxlLm1hZT4nLCAnLW9tYWUnLCAnPG91dGZpbGUubWFlPic=

> <r_lp_tautomer_probability>
1

> <r_epik_Ionization_Penalty>
3.70036e-05

> <r_epik_Ionization_Penalty_Charging>
0

> <r_epik_Ionization_Penalty_Neutral>
3.70036e-05

> <r_epik_State_Penalty>
-0

> <r_epik_Charging_Adjusted_Penalty>
0

> <i_epik_Tot_Q>
0

> <i_epik_Tot_abs_Q>
0

> <r_epik_Metal_State_Penalty>
-0

> <b_epik_Metal_Only>
0

> <s_lp_Force_Field>
OPLS_2005

> <r_lp_Energy>
27.1595

> <b_lp_Chiralities_Consistent>
1

> <s_lp_Variant>
AV-unprocessed.smi:1171-1

> <Gold.Version>
5.8.1

> <Gold.Id.Protein>
6NUR|6NUR_protein|mol2

> <Gold.PLP.Fitness>
44.8397

> <Gold.PLP.PLP>
-38.7708

> <Gold.PLP.part.hbond>
-3.0860

> <Gold.PLP.part.metal>
0.0000

> <Gold.PLP.part.buried>
-3.1808

> <Gold.PLP.part.nonpolar>
-33.2555

> <Gold.PLP.part.repulsive>
0.5034

> <Gold.PLP.ligand.clash>
0.0000

> <Gold.PLP.ligand.torsion>
0.6172

> <Gold.PLP.Chemscore.Hbond>
2.4191

> <Gold.PLP.Chemscore.CHOScore>
0.0000

> <Gold.PLP.Chemscore.Metal>
0.0000

> <Gold.Chemscore.Hbonds>
donor molecule, donor type, donor heavy atom, donor atom, acceptor molecule, acceptor atom, score
      L1  H     5    22       P1  8028  1.00
      L1  H     8    23       P1  8028  0.86
      P1  H  7997  8010       L1    16  0.75

> <Gold.PLP.Chemscore.Internal.Correction>
0.0461

> <Gold.Rescore>
     Score         DG    S(hbond)    S(metal)    S(lipo)     H(rot)  DE(clash)    DE(int)     intcor
     12.39     -15.92       1.82        0.00      72.43       1.61       0.67       2.86       ----

> <Gold.Chemscore.Fitness>
12.3916

> <Gold.Chemscore.DG>
-15.9177

> <Gold.Chemscore.ZeroCoef>
-5.4800

> <Gold.Chemscore.Hbond>
1.8186

> <Gold.Chemscore.Metal>
0.0000

> <Gold.Chemscore.Lipo>
72.4261

> <Gold.Chemscore.Internal_Hbond>
0.0000

> <Gold.Chemscore.DEClash>
0.6652

> <Gold.Chemscore.DEInternal>
2.8609

> <Gold.Chemscore.Rot>
1.6056

> <Gold.Chemscore.Internal.Correction>
   9.000000E+99

> <Gold.Chemscore.Hbonds>
donor molecule, donor type, donor heavy atom, donor atom, acceptor molecule, acceptor atom, score
      L1  H     5    22       P1  8028  0.94
      L1  H     8    23       P1  8028  0.62
      P1  H  7997  8010       L1    16  0.26

> <Gold.Chemscore.Hbond.Weighted>
-6.0740

> <Gold.Chemscore.Metal.Weighted>
-0.0000

> <Gold.Chemscore.Lipo.Weighted>
-8.4739

> <Gold.Chemscore.Internal_Hbond.Weighted>
0.0000

> <Gold.Chemscore.DEClash.Weighted>
0.6652

> <Gold.Chemscore.DEInternal.Weighted>
2.8609

> <Gold.Chemscore.Rot.Weighted>
4.1102

> <Gold.Chemscore.Internal.Correction.Weighted>
   9.000000E+99

> <Gold.Protein.RotatedTorsions>
[ 6907 6896 6895 6894 ] final -133.39 input  -60.11 | X-H torsion
[ 7974 7965 7964 7962 ] final  -58.96 input  175.53 | X-H torsion
[ 8008 7997 7996 7995 ] final  150.50 input   59.86 | X-H torsion
[ 10167 10162 10161 10158 ] final   80.28 input  -65.29 | X-H torsion
[ 10718 10713 10712 10709 ] final  -40.57 input   66.30 | X-H torsion
[ 10763 10752 10751 10750 ] final  -22.95 input  -60.55 | X-H torsion
[ 11005 11000 10999 10996 ] final -105.64 input  -57.11 | X-H torsion

> <Gold.Protein.ActiveResidues>
 VAL166  LYS551  ARG553  GLY616  TRP617  ASP618  TYR619  PRO620  LYS621  CYS622 
 ASP623  PHE694  ASN695  SER759  ASP760  ASP761  ALA762  ILE779  LEU786  VAL792 
 PHE793  MET794  SER795  GLU796  ALA797  LYS798  CYS799  TRP800  GLU811  SER814 

> <Gold.Protein.RotatedAtoms>
  150.9734  133.6320  159.2733 H   0  0  0  0  0  0  0  0  0  0  0  0  # atno 6907 bound_to 6896
  151.3600  135.0901  159.9441 H   0  0  0  0  0  0  0  0  0  0  0  0  # atno 6908 bound_to 6896
  152.5191  133.9310  159.7635 H   0  0  0  0  0  0  0  0  0  0  0  0  # atno 6909 bound_to 6896
  145.8331  140.8466  143.0073 H   0  0  0  0  0  0  0  0  0  0  0  0  # atno 7974 bound_to 7965
  156.2713  140.2073  156.6027 H   0  0  0  0  0  0  0  0  0  0  0  0  # atno 8008 bound_to 7997
  154.6894  140.0532  157.0371 H   0  0  0  0  0  0  0  0  0  0  0  0  # atno 8009 bound_to 7997
  155.0888  140.3194  155.4583 H   0  0  0  0  0  0  0  0  0  0  0  0  # atno 8010 bound_to 7997
  139.9514  144.6023  150.8157 H   0  0  0  0  0  0  0  0  0  0  0  0  # atno 10167 bound_to 10162
  156.2798  130.4216  149.8348 H   0  0  0  0  0  0  0  0  0  0  0  0  # atno 10718 bound_to 10713
  153.6600  135.6977  153.5180 H   0  0  0  0  0  0  0  0  0  0  0  0  # atno 10763 bound_to 10752
  153.2639  135.4236  155.0920 H   0  0  0  0  0  0  0  0  0  0  0  0  # atno 10764 bound_to 10752
  154.8454  135.3561  154.6145 H   0  0  0  0  0  0  0  0  0  0  0  0  # atno 10765 bound_to 10752
  141.1044  133.8825  157.1758 H   0  0  0  0  0  0  0  0  0  0  0  0  # atno 11005 bound_to 11000
  144.6738  140.0702  143.7473 LP  0  0  0  0  0  0  0  0  0  0  0  0  # atno 17320 bound_to 7965
  145.9548  139.2759  143.1190 LP  0  0  0  0  0  0  0  0  0  0  0  0  # atno 17321 bound_to 7965
  140.7582  143.3101  151.2865 LP  0  0  0  0  0  0  0  0  0  0  0  0  # atno 17342 bound_to 10162
  139.6626  144.0163  152.2702 LP  0  0  0  0  0  0  0  0  0  0  0  0  # atno 17343 bound_to 10162
  156.5800  130.8461  151.3380 LP  0  0  0  0  0  0  0  0  0  0  0  0  # atno 17370 bound_to 10713
  157.7311  130.9695  150.1863 LP  0  0  0  0  0  0  0  0  0  0  0  0  # atno 17371 bound_to 10713
  139.9908  135.0065  156.9969 LP  0  0  0  0  0  0  0  0  0  0  0  0  # atno 17394 bound_to 11000
  140.4941  134.1164  155.7238 LP  0  0  0  0  0  0  0  0  0  0  0  0  # atno 17395 bound_to 11000

$$$$
