AV-unprocessed.smi:817|AV-procd|sdf|3830|dock1
  -GOLD-   22720 1273D 1   1.00000     0.00000
 Structure written by MMmdl.
 48 49  0  0  0  0  0  0  0  0  2 V2000
  150.1754  137.7900  154.9205 C   0  0  0  0  0  0  0  0  0  0  0  0
  149.1702  138.7144  154.2182 C   0  0  2  0  0  0  0  0  0  0  0  0
  149.5254  140.1943  154.4441 C   0  0  0  0  0  0  0  0  0  0  0  0
  148.5129  141.1305  153.7713 C   0  0  0  0  0  0  0  0  0  0  0  0
  147.0809  140.8183  154.2399 C   0  0  0  0  0  0  0  0  0  0  0  0
  146.6453  139.3328  154.0189 C   0  0  2  0  0  0  0  0  0  0  0  0
  146.5723  139.0474  152.4865 C   0  0  0  0  0  0  0  0  0  0  0  0
  146.8383  137.6437  152.1638 N   0  0  0  0  0  0  0  0  0  0  0  0
  145.9428  136.6989  151.8297 C   0  0  0  0  0  0  0  0  0  0  0  0
  144.7458  136.9631  151.7508 O   0  0  0  0  0  0  0  0  0  0  0  0
  146.4866  135.4900  151.5859 N   0  0  0  0  0  0  0  0  0  0  0  0
  145.8485  134.2744  151.2181 C   0  0  0  0  0  0  0  0  0  0  0  0
  144.4462  134.0801  151.1786 C   0  0  0  0  0  0  0  0  0  0  0  0
  143.9454  132.8162  150.8109 C   0  0  0  0  0  0  0  0  0  0  0  0
  144.8617  131.7921  150.5030 C   0  0  0  0  0  0  0  0  0  0  0  0
  146.2000  131.9596  150.5472 N   0  0  0  0  0  0  0  0  0  0  0  0
  146.6725  133.1739  150.9000 C   0  0  0  0  0  0  0  0  0  0  0  0
  145.2792  139.0802  154.6173 N   0  3  0  0  0  0  0  0  0  0  0  0
  145.0893  139.4913  156.0332 C   0  0  0  0  0  0  0  0  0  0  0  0
  144.7296  137.7157  154.3995 C   0  0  0  0  0  0  0  0  0  0  0  0
  147.7232  138.4174  154.6746 C   0  0  0  0  0  0  0  0  0  0  0  0
  150.1676  137.9399  156.0005 H   0  0  0  0  0  0  0  0  0  0  0  0
  151.1904  137.9733  154.5671 H   0  0  0  0  0  0  0  0  0  0  0  0
  149.9459  136.7416  154.7283 H   0  0  0  0  0  0  0  0  0  0  0  0
  149.2488  138.5075  153.1510 H   0  0  0  0  0  0  0  0  0  0  0  0
  149.5561  140.4053  155.5140 H   0  0  0  0  0  0  0  0  0  0  0  0
  150.5252  140.4028  154.0618 H   0  0  0  0  0  0  0  0  0  0  0  0
  148.7573  142.1638  154.0198 H   0  0  0  0  0  0  0  0  0  0  0  0
  148.5965  141.0630  152.6873 H   0  0  0  0  0  0  0  0  0  0  0  0
  147.0702  141.0674  155.3003 H   0  0  0  0  0  0  0  0  0  0  0  0
  146.3792  141.5028  153.7619 H   0  0  0  0  0  0  0  0  0  0  0  0
  145.5997  139.3077  152.0733 H   0  0  0  0  0  0  0  0  0  0  0  0
  147.2785  139.6794  151.9482 H   0  0  0  0  0  0  0  0  0  0  0  0
  147.8032  137.3496  152.2121 H   0  0  0  0  0  0  0  0  0  0  0  0
  147.4944  135.4469  151.6272 H   0  0  0  0  0  0  0  0  0  0  0  0
  143.7461  134.8602  151.4315 H   0  0  0  0  0  0  0  0  0  0  0  0
  142.8815  132.6350  150.7696 H   0  0  0  0  0  0  0  0  0  0  0  0
  144.5105  130.8112  150.2186 H   0  0  0  0  0  0  0  0  0  0  0  0
  147.7483  133.2700  150.9269 H   0  0  0  0  0  0  0  0  0  0  0  0
  145.8271  139.0323  156.6910 H   0  0  0  0  0  0  0  0  0  0  0  0
  144.1016  139.2002  156.3921 H   0  0  0  0  0  0  0  0  0  0  0  0
  145.1370  140.5736  156.1479 H   0  0  0  0  0  0  0  0  0  0  0  0
  145.2669  136.9687  154.9843 H   0  0  0  0  0  0  0  0  0  0  0  0
  144.7487  137.4154  153.3537 H   0  0  0  0  0  0  0  0  0  0  0  0
  143.6842  137.6793  154.7077 H   0  0  0  0  0  0  0  0  0  0  0  0
  147.5090  137.3696  154.4624 H   0  0  0  0  0  0  0  0  0  0  0  0
  147.6805  138.5177  155.7594 H   0  0  0  0  0  0  0  0  0  0  0  0
  144.6618  139.6880  154.0984 H   0  0  0  0  0  0  0  0  0  0  0  0
  1  2  1  0  0  0  0
  1 22  1  0  0  0  0
  1 23  1  0  0  0  0
  1 24  1  0  0  0  0
  2 21  1  0  0  0  0
  2  3  1  0  0  0  0
  2 25  1  0  0  0  0
  3  4  1  0  0  0  0
  3 26  1  0  0  0  0
  3 27  1  0  0  0  0
  4  5  1  0  0  0  0
  4 28  1  0  0  0  0
  4 29  1  0  0  0  0
  5  6  1  0  0  0  0
  5 30  1  0  0  0  0
  5 31  1  0  0  0  0
  6  7  1  0  0  0  0
  6 18  1  0  0  0  0
  6 21  1  0  0  0  0
  7  8  1  0  0  0  0
  7 32  1  0  0  0  0
  7 33  1  0  0  0  0
  8  9  1  0  0  0  0
  8 34  1  0  0  0  0
  9 10  2  0  0  0  0
  9 11  1  0  0  0  0
 11 12  1  0  0  0  0
 11 35  1  0  0  0  0
 12 17  1  0  0  0  0
 12 13  2  0  0  0  0
 13 14  1  0  0  0  0
 13 36  1  0  0  0  0
 14 15  2  0  0  0  0
 14 37  1  0  0  0  0
 15 16  1  0  0  0  0
 15 38  1  0  0  0  0
 16 17  2  0  0  0  0
 17 39  1  0  0  0  0
 18 19  1  0  0  0  0
 18 20  1  0  0  0  0
 18 48  1  0  0  0  0
 19 40  1  0  0  0  0
 19 41  1  0  0  0  0
 19 42  1  0  0  0  0
 20 43  1  0  0  0  0
 20 44  1  0  0  0  0
 20 45  1  0  0  0  0
 21 46  1  0  0  0  0
 21 47  1  0  0  0  0
M  CHG  1  18   1
M  END
> <s_m_source_file>
AV-unprocessed.smi

> <i_m_source_file_index>
817

> <i_lp_mmshare_version>
43012

> <i_f3d_flags>
0

> <s_epik_input>
W0NIM11bQ0BASF0oW0NIMl0xKVtDSDJdW0NIMl1bQ0gyXVtDQF0xKE4oW0NIM10pW0NIM10pW0NIMl1bTkhdQyg9TylbTkhdYzJbY0hdW2NIXVtjSF1uW2NIXTI=

> <s_epik_cmdline>
J2VwaWtfcHl0aG9uJywgJy1waCcsICc3LjAnLCAnLXRuJywgJzgnLCAnLW1hJywgJzIwMCcsICctbWV0YWxfYmluZGluZycsICctaW1hZScsICc8aW5maWxlLm1hZT4nLCAnLW9tYWUnLCAnPG91dGZpbGUubWFlPic=

> <r_lp_tautomer_probability>
1

> <r_epik_Ionization_Penalty>
0.00584939

> <r_epik_Ionization_Penalty_Charging>
0.00160539

> <r_epik_Ionization_Penalty_Neutral>
0.004244

> <r_epik_State_Penalty>
-0

> <r_epik_Charging_Adjusted_Penalty>
0.00160539

> <i_epik_Tot_Q>
1

> <i_epik_Tot_abs_Q>
1

> <r_epik_Metal_State_Penalty>
-0

> <b_epik_Metal_Only>
0

> <s_lp_Force_Field>
OPLS_2005

> <r_lp_Energy>
49.7529

> <b_lp_Chiralities_Consistent>
1

> <s_lp_Variant>
AV-unprocessed.smi:817-3

> <Gold.Version>
5.8.1

> <Gold.Id.Protein>
6NUR|6NUR_protein|mol2

> <Gold.PLP.Fitness>
42.4833

> <Gold.PLP.PLP>
-30.8743

> <Gold.PLP.part.hbond>
-3.0000

> <Gold.PLP.part.metal>
0.0000

> <Gold.PLP.part.buried>
-2.5655

> <Gold.PLP.part.nonpolar>
-29.0235

> <Gold.PLP.part.repulsive>
3.4926

> <Gold.PLP.ligand.clash>
0.0000

> <Gold.PLP.ligand.torsion>
0.6798

> <Gold.PLP.Chemscore.Hbond>
4.0000

> <Gold.PLP.Chemscore.CHOScore>
0.2154

> <Gold.PLP.Chemscore.Metal>
0.0000

> <Gold.Chemscore.Hbonds>
donor molecule, donor type, donor heavy atom, donor atom, acceptor molecule, acceptor atom, score
      L1  H     8    34       P1  7948  0.98
      L1  H    11    35       P1  7948  1.00
      L1  H    18    48       P1 10175  1.92
      L1  C    17    39       P1 10747  0.25

> <Gold.PLP.Chemscore.Internal.Correction>
0.3225

> <Gold.Rescore>
     Score         DG    S(hbond)    S(metal)    S(lipo)     H(rot)  DE(clash)    DE(int)     intcor
     16.46     -21.16       2.84        0.00      84.54       1.44       2.02       2.69       ----

> <Gold.Chemscore.Fitness>
16.4575

> <Gold.Chemscore.DG>
-21.1622

> <Gold.Chemscore.ZeroCoef>
-5.4800

> <Gold.Chemscore.Hbond>
2.8381

> <Gold.Chemscore.Metal>
0.0000

> <Gold.Chemscore.Lipo>
84.5365

> <Gold.Chemscore.Internal_Hbond>
0.0000

> <Gold.Chemscore.DEClash>
2.0187

> <Gold.Chemscore.DEInternal>
2.6861

> <Gold.Chemscore.Rot>
1.4405

> <Gold.Chemscore.Internal.Correction>
   9.000000E+99

> <Gold.Chemscore.Hbonds>
donor molecule, donor type, donor heavy atom, donor atom, acceptor molecule, acceptor atom, score
      L1  H     8    34       P1  7948  0.93
      L1  H    11    35       P1  7948  0.90
      L1  H    18    48       P1 10175  0.91

> <Gold.Chemscore.Hbond.Weighted>
-9.4792

> <Gold.Chemscore.Metal.Weighted>
-0.0000

> <Gold.Chemscore.Lipo.Weighted>
-9.8908

> <Gold.Chemscore.Internal_Hbond.Weighted>
0.0000

> <Gold.Chemscore.DEClash.Weighted>
2.0187

> <Gold.Chemscore.DEInternal.Weighted>
2.6861

> <Gold.Chemscore.Rot.Weighted>
3.6878

> <Gold.Chemscore.Internal.Correction.Weighted>
   9.000000E+99

> <Gold.Protein.RotatedTorsions>
[ 6907 6896 6895 6894 ] final   66.47 input  -60.11 | X-H torsion
[ 7974 7965 7964 7962 ] final -127.16 input  175.53 | X-H torsion
[ 8008 7997 7996 7995 ] final  177.74 input   59.86 | X-H torsion
[ 10167 10162 10161 10158 ] final  -93.93 input  -65.29 | X-H torsion
[ 10718 10713 10712 10709 ] final  -34.25 input   66.30 | X-H torsion
[ 10763 10752 10751 10750 ] final  -55.32 input  -60.55 | X-H torsion
[ 11005 11000 10999 10996 ] final  -17.48 input  -57.11 | X-H torsion

> <Gold.Protein.ActiveResidues>
 VAL166  LYS551  ARG553  GLY616  TRP617  ASP618  TYR619  PRO620  LYS621  CYS622 
 ASP623  PHE694  ASN695  SER759  ASP760  ASP761  ALA762  ILE779  LEU786  VAL792 
 PHE793  MET794  SER795  GLU796  ALA797  LYS798  CYS799  TRP800  GLU811  SER814 

> <Gold.Protein.RotatedAtoms>
  152.4483  134.5448  159.9849 H   0  0  0  0  0  0  0  0  0  0  0  0  # atno 6907 bound_to 6896
  151.5527  133.3409  159.2964 H   0  0  0  0  0  0  0  0  0  0  0  0  # atno 6908 bound_to 6896
  150.8405  134.7727  159.6991 H   0  0  0  0  0  0  0  0  0  0  0  0  # atno 6909 bound_to 6896
  144.9799  140.7630  143.4618 H   0  0  0  0  0  0  0  0  0  0  0  0  # atno 7974 bound_to 7965
  156.0623  140.1351  156.9926 H   0  0  0  0  0  0  0  0  0  0  0  0  # atno 8008 bound_to 7997
  154.4488  140.0989  156.6606 H   0  0  0  0  0  0  0  0  0  0  0  0  # atno 8009 bound_to 7997
  155.5358  140.3459  155.4438 H   0  0  0  0  0  0  0  0  0  0  0  0  # atno 8010 bound_to 7997
  140.3197  143.3056  152.0060 H   0  0  0  0  0  0  0  0  0  0  0  0  # atno 10167 bound_to 10162
  156.3529  130.4311  149.7689 H   0  0  0  0  0  0  0  0  0  0  0  0  # atno 10718 bound_to 10713
  154.1889  135.6431  153.5054 H   0  0  0  0  0  0  0  0  0  0  0  0  # atno 10763 bound_to 10752
  153.0040  135.5424  154.6436 H   0  0  0  0  0  0  0  0  0  0  0  0  # atno 10764 bound_to 10752
  154.5820  135.2926  155.0696 H   0  0  0  0  0  0  0  0  0  0  0  0  # atno 10765 bound_to 10752
  140.8172  133.8096  155.9622 H   0  0  0  0  0  0  0  0  0  0  0  0  # atno 11005 bound_to 11000
  145.2435  139.2062  143.4980 LP  0  0  0  0  0  0  0  0  0  0  0  0  # atno 17320 bound_to 7965
  146.3405  140.2335  142.8594 LP  0  0  0  0  0  0  0  0  0  0  0  0  # atno 17321 bound_to 7965
  139.4877  144.6321  151.7050 LP  0  0  0  0  0  0  0  0  0  0  0  0  # atno 17342 bound_to 10162
  140.5495  144.0449  150.6121 LP  0  0  0  0  0  0  0  0  0  0  0  0  # atno 17343 bound_to 10162
  156.4883  130.8073  151.3084 LP  0  0  0  0  0  0  0  0  0  0  0  0  # atno 17370 bound_to 10713
  157.7463  130.9983  150.2849 LP  0  0  0  0  0  0  0  0  0  0  0  0  # atno 17371 bound_to 10713
  140.9137  134.2229  157.4970 LP  0  0  0  0  0  0  0  0  0  0  0  0  # atno 17394 bound_to 11000
  139.8710  134.9761  156.4909 LP  0  0  0  0  0  0  0  0  0  0  0  0  # atno 17395 bound_to 11000

$$$$
