AV-unprocessed.smi:1897|AV-procd|sdf|7698|dock2
  -GOLD-   22720 9433D 1   1.00000     0.00000
 Structure written by MMmdl.
 38 40  0  0  0  0  0  0  0  0  3 V2000
  148.9100  124.4665  152.5812 C   0  0  0  0  0  0  0  0  0  0  0  0
  148.0691  125.6567  152.8930 C   0  0  0  0  0  0  0  0  0  0  0  0
  147.4713  125.8291  154.0744 N   0  0  0  0  0  0  0  0  0  0  0  0
  146.7447  127.0091  154.1251 N   0  0  0  0  0  0  0  0  0  0  0  0
  146.8146  127.7189  152.9895 C   0  0  0  0  0  0  0  0  0  0  0  0
  146.1913  128.9023  152.8375 N   0  5  0  0  0  0  0  0  0  0  0  0
  146.6730  130.0549  153.3704 C   0  0  0  0  0  0  0  0  0  0  0  0
  147.2453  130.1109  154.4580 O   0  0  0  0  0  0  0  0  0  0  0  0
  146.5213  131.1871  152.6567 N   0  0  0  0  0  0  0  0  0  0  0  0
  147.0397  132.5015  153.0200 C   0  0  2  0  0  0  0  0  0  0  0  0
  146.5410  132.9923  154.3728 C   0  0  0  0  0  0  0  0  0  0  0  0
  146.7904  134.5018  154.3019 C   0  0  0  0  0  0  0  0  0  0  0  0
  146.7373  134.8788  152.8679 N   0  3  2  0  0  0  0  0  0  0  0  0
  145.7386  135.9367  152.5587 C   0  0  0  0  0  0  0  0  0  0  0  0
  145.4595  136.0047  151.0502 C   0  0  0  0  0  0  0  0  0  0  0  0
  144.8597  134.6858  150.5278 C   0  0  0  0  0  0  0  0  0  0  0  0
  145.2150  133.4822  151.4215 C   0  0  0  0  0  0  0  0  0  0  0  0
  146.6185  133.6311  152.0610 C   0  0  2  0  0  0  0  0  0  0  0  0
  147.7903  126.9501  151.7389 S   0  0  0  0  0  0  0  0  0  0  0  0
  149.9114  124.6012  152.9897 H   0  0  0  0  0  0  0  0  0  0  0  0
  148.9861  124.3293  151.5024 H   0  0  0  0  0  0  0  0  0  0  0  0
  148.4708  123.5682  153.0159 H   0  0  0  0  0  0  0  0  0  0  0  0
  146.0446  131.1142  151.7697 H   0  0  0  0  0  0  0  0  0  0  0  0
  148.1301  132.4603  153.0637 H   0  0  0  0  0  0  0  0  0  0  0  0
  145.4721  132.7982  154.4756 H   0  0  0  0  0  0  0  0  0  0  0  0
  147.0510  132.5191  155.2124 H   0  0  0  0  0  0  0  0  0  0  0  0
  146.0821  135.0556  154.9196 H   0  0  0  0  0  0  0  0  0  0  0  0
  147.7906  134.7317  154.6704 H   0  0  0  0  0  0  0  0  0  0  0  0
  144.8045  135.7387  153.0873 H   0  0  0  0  0  0  0  0  0  0  0  0
  146.1113  136.8941  152.9238 H   0  0  0  0  0  0  0  0  0  0  0  0
  144.7901  136.8344  150.8214 H   0  0  0  0  0  0  0  0  0  0  0  0
  146.3934  136.2134  150.5266 H   0  0  0  0  0  0  0  0  0  0  0  0
  143.7742  134.7673  150.4611 H   0  0  0  0  0  0  0  0  0  0  0  0
  145.2129  134.5137  149.5105 H   0  0  0  0  0  0  0  0  0  0  0  0
  144.4680  133.3854  152.2107 H   0  0  0  0  0  0  0  0  0  0  0  0
  145.1457  132.5699  150.8283 H   0  0  0  0  0  0  0  0  0  0  0  0
  147.3434  133.6868  151.2476 H   0  0  0  0  0  0  0  0  0  0  0  0
  147.6438  135.2629  152.6429 H   0  0  0  0  0  0  0  0  0  0  0  0
  1  2  1  0  0  0  0
  1 20  1  0  0  0  0
  1 21  1  0  0  0  0
  1 22  1  0  0  0  0
  2 19  1  0  0  0  0
  2  3  2  0  0  0  0
  3  4  1  0  0  0  0
  4  5  2  0  0  0  0
  5  6  1  0  0  0  0
  5 19  1  0  0  0  0
  6  7  1  0  0  0  0
  7  8  2  0  0  0  0
  7  9  1  0  0  0  0
  9 10  1  0  0  0  0
  9 23  1  0  0  0  0
 10 18  1  0  0  0  0
 10 11  1  0  0  0  0
 10 24  1  0  0  0  0
 11 12  1  0  0  0  0
 11 25  1  0  0  0  0
 11 26  1  0  0  0  0
 12 13  1  0  0  0  0
 12 27  1  0  0  0  0
 12 28  1  0  0  0  0
 13 18  1  0  0  0  0
 13 14  1  0  0  0  0
 13 38  1  0  0  0  0
 14 15  1  0  0  0  0
 14 29  1  0  0  0  0
 14 30  1  0  0  0  0
 15 16  1  0  0  0  0
 15 31  1  0  0  0  0
 15 32  1  0  0  0  0
 16 17  1  0  0  0  0
 16 33  1  0  0  0  0
 16 34  1  0  0  0  0
 17 18  1  0  0  0  0
 17 35  1  0  0  0  0
 17 36  1  0  0  0  0
 18 37  1  0  0  0  0
M  CHG  1   6  -1
M  CHG  1  13   1
M  END
> <s_m_source_file>
AV-unprocessed.smi

> <i_m_source_file_index>
1897

> <i_lp_mmshare_version>
43012

> <i_f3d_flags>
0

> <s_epik_input>
W0NIM11jMW5uYyhzMSlbTkhdQyg9TylbTkhdW0NASF0oW0NIMl1bQ0gyXTIpW0NAQEhdKE4yMylbQ0gyXVtDSDJdW0NIMl1bQ0gyXTM=

> <s_epik_cmdline>
J2VwaWtfcHl0aG9uJywgJy1waCcsICc3LjAnLCAnLXRuJywgJzgnLCAnLW1hJywgJzIwMCcsICctbWV0YWxfYmluZGluZycsICctaW1hZScsICc8aW5maWxlLm1hZT4nLCAnLW9tYWUnLCAnPG91dGZpbGUubWFlPic=

> <r_lp_tautomer_probability>
1

> <r_epik_Ionization_Penalty>
3.77712

> <r_epik_Ionization_Penalty_Charging>
3.67739

> <r_epik_Ionization_Penalty_Neutral>
0.0997294

> <r_epik_State_Penalty>
3.67514

> <r_epik_Charging_Adjusted_Penalty>
7.35254

> <i_epik_Tot_Q>
0

> <i_epik_Tot_abs_Q>
2

> <r_epik_Metal_State_Penalty>
0.540795

> <b_epik_Metal_Only>
1

> <s_lp_Force_Field>
OPLS_2005

> <r_lp_Energy>
34.1596

> <b_lp_Chiralities_Consistent>
1

> <s_lp_Variant>
AV-unprocessed.smi:1897-15

> <Gold.Version>
5.8.1

> <Gold.Id.Protein>
6NUR|6NUR_protein|mol2

> <Gold.PLP.Fitness>
35.4952

> <Gold.PLP.PLP>
-31.4559

> <Gold.PLP.part.hbond>
-2.6968

> <Gold.PLP.part.metal>
0.0000

> <Gold.PLP.part.buried>
-3.8771

> <Gold.PLP.part.nonpolar>
-24.4046

> <Gold.PLP.part.repulsive>
0.2209

> <Gold.PLP.ligand.clash>
0.0000

> <Gold.PLP.ligand.torsion>
0.9869

> <Gold.PLP.Chemscore.Hbond>
2.0000

> <Gold.PLP.Chemscore.CHOScore>
0.0000

> <Gold.PLP.Chemscore.Metal>
0.0000

> <Gold.Chemscore.Hbonds>
donor molecule, donor type, donor heavy atom, donor atom, acceptor molecule, acceptor atom, score
      L1  H    13    38       P1  7948  2.00

> <Gold.PLP.Chemscore.Internal.Correction>
0.0131

> <Gold.Rescore>
     Score         DG    S(hbond)    S(metal)    S(lipo)     H(rot)  DE(clash)    DE(int)     intcor
     11.62     -13.01       1.00        0.00      57.77       1.00       0.49       0.90       ----

> <Gold.Chemscore.Fitness>
11.6210

> <Gold.Chemscore.DG>
-13.0105

> <Gold.Chemscore.ZeroCoef>
-5.4800

> <Gold.Chemscore.Hbond>
0.9975

> <Gold.Chemscore.Metal>
0.0000

> <Gold.Chemscore.Lipo>
57.7665

> <Gold.Chemscore.Internal_Hbond>
0.0000

> <Gold.Chemscore.DEClash>
0.4901

> <Gold.Chemscore.DEInternal>
0.8993

> <Gold.Chemscore.Rot>
1.0000

> <Gold.Chemscore.Internal.Correction>
   9.000000E+99

> <Gold.Chemscore.Hbonds>
donor molecule, donor type, donor heavy atom, donor atom, acceptor molecule, acceptor atom, score
      L1  H    13    38       P1  7948  1.00

> <Gold.Chemscore.Hbond.Weighted>
-3.3318

> <Gold.Chemscore.Metal.Weighted>
-0.0000

> <Gold.Chemscore.Lipo.Weighted>
-6.7587

> <Gold.Chemscore.Internal_Hbond.Weighted>
0.0000

> <Gold.Chemscore.DEClash.Weighted>
0.4901

> <Gold.Chemscore.DEInternal.Weighted>
0.8993

> <Gold.Chemscore.Rot.Weighted>
2.5600

> <Gold.Chemscore.Internal.Correction.Weighted>
   9.000000E+99

> <Gold.Protein.RotatedTorsions>
[ 6907 6896 6895 6894 ] final   62.35 input  -60.11 | X-H torsion
[ 7974 7965 7964 7962 ] final  -18.06 input  175.53 | X-H torsion
[ 8008 7997 7996 7995 ] final  -14.31 input   59.86 | X-H torsion
[ 10167 10162 10161 10158 ] final  120.45 input  -65.29 | X-H torsion
[ 10718 10713 10712 10709 ] final  -24.09 input   66.30 | X-H torsion
[ 10763 10752 10751 10750 ] final -106.25 input  -60.55 | X-H torsion
[ 11005 11000 10999 10996 ] final    7.56 input  -57.11 | X-H torsion

> <Gold.Protein.ActiveResidues>
 VAL166  LYS551  ARG553  GLY616  TRP617  ASP618  TYR619  PRO620  LYS621  CYS622 
 ASP623  PHE694  ASN695  SER759  ASP760  ASP761  ALA762  ILE779  LEU786  VAL792 
 PHE793  MET794  SER795  GLU796  ALA797  LYS798  CYS799  TRP800  GLU811  SER814 

> <Gold.Protein.RotatedAtoms>
  152.4165  134.6032  160.0005 H   0  0  0  0  0  0  0  0  0  0  0  0  # atno 6907 bound_to 6896
  151.6195  133.3334  159.3093 H   0  0  0  0  0  0  0  0  0  0  0  0  # atno 6908 bound_to 6896
  150.8053  134.7214  159.6705 H   0  0  0  0  0  0  0  0  0  0  0  0  # atno 6909 bound_to 6896
  146.1911  140.3867  142.8458 H   0  0  0  0  0  0  0  0  0  0  0  0  # atno 7974 bound_to 7965
  154.5220  140.2226  155.8958 H   0  0  0  0  0  0  0  0  0  0  0  0  # atno 8008 bound_to 7997
  156.1673  140.3129  155.8875 H   0  0  0  0  0  0  0  0  0  0  0  0  # atno 8009 bound_to 7997
  155.3631  140.0462  157.3037 H   0  0  0  0  0  0  0  0  0  0  0  0  # atno 8010 bound_to 7997
  139.5981  144.7048  151.3127 H   0  0  0  0  0  0  0  0  0  0  0  0  # atno 10167 bound_to 10162
  156.4823  130.4548  149.6804 H   0  0  0  0  0  0  0  0  0  0  0  0  # atno 10718 bound_to 10713
  154.8000  135.4719  154.0252 H   0  0  0  0  0  0  0  0  0  0  0  0  # atno 10763 bound_to 10752
  153.1765  135.6833  153.8542 H   0  0  0  0  0  0  0  0  0  0  0  0  # atno 10764 bound_to 10752
  153.8107  135.3217  155.3378 H   0  0  0  0  0  0  0  0  0  0  0  0  # atno 10765 bound_to 10752
  140.5469  134.0320  155.7923 H   0  0  0  0  0  0  0  0  0  0  0  0  # atno 11005 bound_to 11000
  144.8488  140.6970  143.6181 LP  0  0  0  0  0  0  0  0  0  0  0  0  # atno 17320 bound_to 7965
  145.3790  139.1641  143.4291 LP  0  0  0  0  0  0  0  0  0  0  0  0  # atno 17321 bound_to 7965
  140.7228  143.7087  150.7786 LP  0  0  0  0  0  0  0  0  0  0  0  0  # atno 17342 bound_to 10162
  140.0658  143.5110  152.2605 LP  0  0  0  0  0  0  0  0  0  0  0  0  # atno 17343 bound_to 10162
  156.3509  130.7432  151.2391 LP  0  0  0  0  0  0  0  0  0  0  0  0  # atno 17370 bound_to 10713
  157.7482  131.0377  150.4469 LP  0  0  0  0  0  0  0  0  0  0  0  0  # atno 17371 bound_to 10713
  141.1194  133.9486  157.2758 LP  0  0  0  0  0  0  0  0  0  0  0  0  # atno 17394 bound_to 11000
  139.9475  135.0181  156.8895 LP  0  0  0  0  0  0  0  0  0  0  0  0  # atno 17395 bound_to 11000

$$$$
