AV-unprocessed.smi:2822|AV-procd|sdf|10881|dock2
  -GOLD-   2272015323D 1   1.00000     0.00000
 Structure written by MMmdl.
 39 41  0  0  0  0  0  0  0  0  1 V2000
  146.4697  142.9524  154.0910 Cl  0  0  0  0  0  0  0  0  0  0  0  0
  147.2637  141.4179  154.0151 C   0  0  0  0  0  0  0  0  0  0  0  0
  146.8540  140.4662  153.0589 C   0  0  0  0  0  0  0  0  0  0  0  0
  147.4201  139.2476  152.9316 N   0  0  0  0  0  0  0  0  0  0  0  0
  148.4297  138.9341  153.7699 C   0  0  0  0  0  0  0  0  0  0  0  0
  148.9156  139.8095  154.7614 C   0  0  0  0  0  0  0  0  0  0  0  0
  148.3227  141.0875  154.8921 C   0  0  0  0  0  0  0  0  0  0  0  0
  148.7445  142.0210  155.8510 N   0  0  0  0  0  0  0  0  0  0  0  0
  149.5722  141.6158  156.9767 C   0  0  0  0  0  0  0  0  0  0  0  0
  151.0457  142.0101  156.7625 C   0  0  1  0  0  0  0  0  0  0  0  0
  151.4141  143.3454  157.4372 C   0  0  0  0  0  0  0  0  0  0  0  0
  151.4808  143.2456  158.8904 N   0  0  0  0  0  0  0  0  0  0  0  0
  151.8573  144.5264  159.4876 C   0  0  0  0  0  0  0  0  0  0  0  0
  151.9096  144.4689  161.0223 C   0  0  0  0  0  0  0  0  0  0  0  0
  152.8711  143.3640  161.4816 C   0  0  0  0  0  0  0  0  0  0  0  0
  152.4998  142.0321  160.8123 C   0  0  0  0  0  0  0  0  0  0  0  0
  152.4170  142.1871  159.2793 C   0  0  1  0  0  0  0  0  0  0  0  0
  152.0379  140.8447  158.6231 C   0  0  0  0  0  0  0  0  0  0  0  0
  151.9430  140.9912  157.2084 O   0  0  0  0  0  0  0  0  0  0  0  0
  146.0482  140.6898  152.3753 H   0  0  0  0  0  0  0  0  0  0  0  0
  148.8657  137.9535  153.6475 H   0  0  0  0  0  0  0  0  0  0  0  0
  149.7257  139.4879  155.3984 H   0  0  0  0  0  0  0  0  0  0  0  0
  148.6644  143.0070  155.6454 H   0  0  0  0  0  0  0  0  0  0  0  0
  149.1951  142.1094  157.8730 H   0  0  0  0  0  0  0  0  0  0  0  0
  149.4761  140.5431  157.1444 H   0  0  0  0  0  0  0  0  0  0  0  0
  151.2054  142.1271  155.6899 H   0  0  0  0  0  0  0  0  0  0  0  0
  152.3811  143.6751  157.0537 H   0  0  0  0  0  0  0  0  0  0  0  0
  150.6937  144.1122  157.1494 H   0  0  0  0  0  0  0  0  0  0  0  0
  152.8293  144.8419  159.1047 H   0  0  0  0  0  0  0  0  0  0  0  0
  151.1442  145.2942  159.1858 H   0  0  0  0  0  0  0  0  0  0  0  0
  152.2247  145.4322  161.4244 H   0  0  0  0  0  0  0  0  0  0  0  0
  150.9109  144.2770  161.4164 H   0  0  0  0  0  0  0  0  0  0  0  0
  153.8940  143.6341  161.2160 H   0  0  0  0  0  0  0  0  0  0  0  0
  152.8446  143.2642  162.5669 H   0  0  0  0  0  0  0  0  0  0  0  0
  153.2338  141.2700  161.0759 H   0  0  0  0  0  0  0  0  0  0  0  0
  151.5405  141.6864  161.2003 H   0  0  0  0  0  0  0  0  0  0  0  0
  153.4112  142.4573  158.9189 H   0  0  0  0  0  0  0  0  0  0  0  0
  152.7965  140.0923  158.8397 H   0  0  0  0  0  0  0  0  0  0  0  0
  151.0996  140.4622  159.0258 H   0  0  0  0  0  0  0  0  0  0  0  0
  1  2  1  0  0  0  0
  2  7  1  0  0  0  0
  2  3  2  0  0  0  0
  3  4  1  0  0  0  0
  3 20  1  0  0  0  0
  4  5  2  0  0  0  0
  5  6  1  0  0  0  0
  5 21  1  0  0  0  0
  6  7  2  0  0  0  0
  6 22  1  0  0  0  0
  7  8  1  0  0  0  0
  8  9  1  0  0  0  0
  8 23  1  0  0  0  0
  9 10  1  0  0  0  0
  9 24  1  0  0  0  0
  9 25  1  0  0  0  0
 10 19  1  0  0  0  0
 10 11  1  0  0  0  0
 10 26  1  0  0  0  0
 11 12  1  0  0  0  0
 11 27  1  0  0  0  0
 11 28  1  0  0  0  0
 12 17  1  0  0  0  0
 12 13  1  0  0  0  0
 13 14  1  0  0  0  0
 13 29  1  0  0  0  0
 13 30  1  0  0  0  0
 14 15  1  0  0  0  0
 14 31  1  0  0  0  0
 14 32  1  0  0  0  0
 15 16  1  0  0  0  0
 15 33  1  0  0  0  0
 15 34  1  0  0  0  0
 16 17  1  0  0  0  0
 16 35  1  0  0  0  0
 16 36  1  0  0  0  0
 17 18  1  0  0  0  0
 17 37  1  0  0  0  0
 18 19  1  0  0  0  0
 18 38  1  0  0  0  0
 18 39  1  0  0  0  0
M  END
> <s_m_source_file>
AV-unprocessed.smi

> <i_m_source_file_index>
2822

> <i_lp_mmshare_version>
43012

> <i_f3d_flags>
0

> <s_epik_input>
Q2xjMVtjSF1uW2NIXVtjSF1jMVtOSF1bQ0gyXVtDQEhdKFtDSDJdMilPW0NIMl1bQ0BASF0oTjIzKVtDSDJdW0NIMl1bQ0gyXVtDSDJdMw==

> <s_epik_cmdline>
J2VwaWtfcHl0aG9uJywgJy1waCcsICc3LjAnLCAnLXRuJywgJzgnLCAnLW1hJywgJzIwMCcsICctbWV0YWxfYmluZGluZycsICctaW1hZScsICc8aW5maWxlLm1hZT4nLCAnLW9tYWUnLCAnPG91dGZpbGUubWFlPic=

> <r_lp_tautomer_probability>
0.999999

> <r_epik_Ionization_Penalty>
2.10064

> <r_epik_Ionization_Penalty_Charging>
0

> <r_epik_Ionization_Penalty_Neutral>
2.10064

> <r_epik_State_Penalty>
2.1757

> <r_epik_Charging_Adjusted_Penalty>
2.1757

> <i_epik_Tot_Q>
0

> <i_epik_Tot_abs_Q>
0

> <r_epik_Metal_State_Penalty>
1.25425

> <b_epik_Metal_Only>
0

> <s_lp_Force_Field>
OPLS_2005

> <r_lp_Energy>
40.854

> <b_lp_Chiralities_Consistent>
1

> <s_lp_Variant>
AV-unprocessed.smi:2822-22

> <Gold.Version>
5.8.1

> <Gold.Id.Protein>
6NUR|6NUR_protein|mol2

> <Gold.PLP.Fitness>
47.4870

> <Gold.PLP.PLP>
-39.9023

> <Gold.PLP.part.hbond>
-1.0000

> <Gold.PLP.part.metal>
0.0000

> <Gold.PLP.part.buried>
-4.7084

> <Gold.PLP.part.nonpolar>
-36.0790

> <Gold.PLP.part.repulsive>
1.5342

> <Gold.PLP.ligand.clash>
0.0000

> <Gold.PLP.ligand.torsion>
0.7007

> <Gold.PLP.Chemscore.Hbond>
1.0000

> <Gold.PLP.Chemscore.CHOScore>
1.9929

> <Gold.PLP.Chemscore.Metal>
0.0000

> <Gold.Chemscore.Hbonds>
donor molecule, donor type, donor heavy atom, donor atom, acceptor molecule, acceptor atom, score
      L1  H     8    23       P1  8028  1.00
      L1  C     3    20       P1 10175  0.97
      L1  C     5    21       P1  7948  1.00

> <Gold.PLP.Chemscore.Internal.Correction>
0.0073

> <Gold.Rescore>
     Score         DG    S(hbond)    S(metal)    S(lipo)     H(rot)  DE(clash)    DE(int)     intcor
     19.68     -20.53       0.99        0.00     125.66       1.15       0.17       0.69       ----

> <Gold.Chemscore.Fitness>
19.6750

> <Gold.Chemscore.DG>
-20.5346

> <Gold.Chemscore.ZeroCoef>
-5.4800

> <Gold.Chemscore.Hbond>
0.9885

> <Gold.Chemscore.Metal>
0.0000

> <Gold.Chemscore.Lipo>
125.6557

> <Gold.Chemscore.Internal_Hbond>
0.0000

> <Gold.Chemscore.DEClash>
0.1743

> <Gold.Chemscore.DEInternal>
0.6852

> <Gold.Chemscore.Rot>
1.1519

> <Gold.Chemscore.Internal.Correction>
   9.000000E+99

> <Gold.Chemscore.Hbonds>
donor molecule, donor type, donor heavy atom, donor atom, acceptor molecule, acceptor atom, score
      L1  H     8    23       P1  8028  1.00

> <Gold.Chemscore.Hbond.Weighted>
-3.3016

> <Gold.Chemscore.Metal.Weighted>
-0.0000

> <Gold.Chemscore.Lipo.Weighted>
-14.7017

> <Gold.Chemscore.Internal_Hbond.Weighted>
0.0000

> <Gold.Chemscore.DEClash.Weighted>
0.1743

> <Gold.Chemscore.DEInternal.Weighted>
0.6852

> <Gold.Chemscore.Rot.Weighted>
2.9487

> <Gold.Chemscore.Internal.Correction.Weighted>
   9.000000E+99

> <Gold.Protein.RotatedTorsions>
[ 6907 6896 6895 6894 ] final   22.39 input  -60.11 | X-H torsion
[ 7974 7965 7964 7962 ] final    0.56 input  175.53 | X-H torsion
[ 8008 7997 7996 7995 ] final  117.89 input   59.86 | X-H torsion
[ 10167 10162 10161 10158 ] final -172.19 input  -65.29 | X-H torsion
[ 10718 10713 10712 10709 ] final  -22.26 input   66.30 | X-H torsion
[ 10763 10752 10751 10750 ] final   20.87 input  -60.55 | X-H torsion
[ 11005 11000 10999 10996 ] final   85.24 input  -57.11 | X-H torsion

> <Gold.Protein.ActiveResidues>
 VAL166  LYS551  ARG553  GLY616  TRP617  ASP618  TYR619  PRO620  LYS621  CYS622 
 ASP623  PHE694  ASN695  SER759  ASP760  ASP761  ALA762  ILE779  LEU786  VAL792 
 PHE793  MET794  SER795  GLU796  ALA797  LYS798  CYS799  TRP800  GLU811  SER814 

> <Gold.Protein.RotatedAtoms>
  151.9264  135.0276  160.0525 H   0  0  0  0  0  0  0  0  0  0  0  0  # atno 6907 bound_to 6896
  152.2156  133.4939  159.5142 H   0  0  0  0  0  0  0  0  0  0  0  0  # atno 6908 bound_to 6896
  150.6987  134.1327  159.4118 H   0  0  0  0  0  0  0  0  0  0  0  0  # atno 6909 bound_to 6896
  146.2435  140.1119  142.8343 H   0  0  0  0  0  0  0  0  0  0  0  0  # atno 7974 bound_to 7965
  156.2518  140.2886  156.0749 H   0  0  0  0  0  0  0  0  0  0  0  0  # atno 8008 bound_to 7997
  155.1630  140.0400  157.2864 H   0  0  0  0  0  0  0  0  0  0  0  0  # atno 8009 bound_to 7997
  154.6379  140.2515  155.7363 H   0  0  0  0  0  0  0  0  0  0  0  0  # atno 8010 bound_to 7997
  139.5759  144.1534  152.1449 H   0  0  0  0  0  0  0  0  0  0  0  0  # atno 10167 bound_to 10162
  156.5069  130.4601  149.6670 H   0  0  0  0  0  0  0  0  0  0  0  0  # atno 10718 bound_to 10713
  153.1041  135.6680  153.9618 H   0  0  0  0  0  0  0  0  0  0  0  0  # atno 10763 bound_to 10752
  153.9180  135.3017  155.3449 H   0  0  0  0  0  0  0  0  0  0  0  0  # atno 10764 bound_to 10752
  154.7462  135.5056  153.9285 H   0  0  0  0  0  0  0  0  0  0  0  0  # atno 10765 bound_to 10752
  139.8977  134.8273  156.2556 H   0  0  0  0  0  0  0  0  0  0  0  0  # atno 11005 bound_to 11000
  145.0480  140.8996  143.5012 LP  0  0  0  0  0  0  0  0  0  0  0  0  # atno 17320 bound_to 7965
  145.1211  139.2693  143.5588 LP  0  0  0  0  0  0  0  0  0  0  0  0  # atno 17321 bound_to 7965
  140.1077  144.5485  150.6946 LP  0  0  0  0  0  0  0  0  0  0  0  0  # atno 17342 bound_to 10162
  140.7041  143.2455  151.4777 LP  0  0  0  0  0  0  0  0  0  0  0  0  # atno 17343 bound_to 10162
  156.3278  130.7315  151.2239 LP  0  0  0  0  0  0  0  0  0  0  0  0  # atno 17370 bound_to 10713
  157.7456  131.0438  150.4762 LP  0  0  0  0  0  0  0  0  0  0  0  0  # atno 17371 bound_to 10713
  141.0196  133.7049  156.1246 LP  0  0  0  0  0  0  0  0  0  0  0  0  # atno 17394 bound_to 11000
  140.7253  134.4314  157.5571 LP  0  0  0  0  0  0  0  0  0  0  0  0  # atno 17395 bound_to 11000

$$$$
