AV-unprocessed.smi:276|AV-procd|sdf|2081|dock8
  -GOLD-   2262021353D 1   1.00000     0.00000
 Structure written by MMmdl.
 57 61  0  0  0  0  0  0  0  0  1 V2000
  152.5774  144.8421  158.3723 C   0  0  0  0  0  0  0  0  0  0  0  0
  151.6999  143.7606  158.1132 O   0  0  0  0  0  0  0  0  0  0  0  0
  152.2935  142.5008  158.3851 C   0  0  1  0  0  0  0  0  0  0  0  0
  151.9613  141.9254  159.7673 C   0  0  0  0  0  0  0  0  0  0  0  0
  151.8062  140.5414  159.1061 C   0  0  2  0  0  0  0  0  0  0  0  0
  153.0617  139.7778  159.1516 N   0  0  0  0  0  0  0  0  0  0  0  0
  153.6279  139.5505  160.4778 C   0  0  0  0  0  0  0  0  0  0  0  0
  153.0834  138.6288  158.4398 C   0  0  0  0  0  0  0  0  0  0  0  0
  154.2926  138.2057  157.9944 N   0  0  0  0  0  0  0  0  0  0  0  0
  154.3859  137.0800  157.2803 C   0  0  0  0  0  0  0  0  0  0  0  0
  153.4152  136.2406  156.9135 N   0  0  0  0  0  0  0  0  0  0  0  0
  152.2002  136.6574  157.3721 C   0  0  0  0  0  0  0  0  0  0  0  0
  151.9440  137.8275  158.1407 C   0  0  0  0  0  0  0  0  0  0  0  0
  150.5867  137.9146  158.4287 N   0  0  0  0  0  0  0  0  0  0  0  0
  150.0696  136.8629  157.8545 C   0  0  0  0  0  0  0  0  0  0  0  0
  150.9681  136.0540  157.1974 N   0  0  0  0  0  0  0  0  0  0  0  0
  150.6764  134.8248  156.4815 C   0  0  0  0  0  0  0  0  0  0  0  0
  150.6366  135.0267  154.9538 C   0  0  2  0  0  0  0  0  0  0  0  0
  150.1548  136.3270  154.6709 O   0  0  0  0  0  0  0  0  0  0  0  0
  149.7328  133.9946  154.2539 C   0  0  1  0  0  0  0  0  0  0  0  0
  150.1194  132.5367  154.5098 C   0  0  0  0  0  0  0  0  0  0  0  0
  148.8112  131.8246  154.2543 C   0  0  0  0  0  0  0  0  0  0  0  0
  147.8054  132.8014  154.8545 C   0  0  0  0  0  0  0  0  0  0  0  0
  148.3938  134.0944  154.7356 O   0  0  0  0  0  0  0  0  0  0  0  0
  151.5321  141.3064  157.7825 C   0  0  0  0  0  0  0  0  0  0  0  0
  150.0800  141.4851  157.3025 C   0  0  0  0  0  0  0  0  0  0  0  0
  150.6181  141.5622  155.8713 C   0  0  0  0  0  0  0  0  0  0  0  0
  151.8491  140.7970  156.3633 C   0  0  0  0  0  0  0  0  0  0  0  0
  152.0768  145.7823  158.1416 H   0  0  0  0  0  0  0  0  0  0  0  0
  153.4738  144.7772  157.7541 H   0  0  0  0  0  0  0  0  0  0  0  0
  152.8765  144.8694  159.4209 H   0  0  0  0  0  0  0  0  0  0  0  0
  153.3599  142.4604  158.1523 H   0  0  0  0  0  0  0  0  0  0  0  0
  152.7606  142.0321  160.5001 H   0  0  0  0  0  0  0  0  0  0  0  0
  151.0166  142.3034  160.1617 H   0  0  0  0  0  0  0  0  0  0  0  0
  150.9405  140.0002  159.4877 H   0  0  0  0  0  0  0  0  0  0  0  0
  154.3443  138.7269  160.4890 H   0  0  0  0  0  0  0  0  0  0  0  0
  152.8411  139.3212  161.1971 H   0  0  0  0  0  0  0  0  0  0  0  0
  154.1555  140.4397  160.8211 H   0  0  0  0  0  0  0  0  0  0  0  0
  155.3812  136.8140  156.9562 H   0  0  0  0  0  0  0  0  0  0  0  0
  149.0117  136.6481  157.8947 H   0  0  0  0  0  0  0  0  0  0  0  0
  151.4398  134.0930  156.7478 H   0  0  0  0  0  0  0  0  0  0  0  0
  149.7257  134.4276  156.8398 H   0  0  0  0  0  0  0  0  0  0  0  0
  151.6479  134.9481  154.5525 H   0  0  0  0  0  0  0  0  0  0  0  0
  150.0242  136.4020  153.7382 H   0  0  0  0  0  0  0  0  0  0  0  0
  149.7117  134.1759  153.1778 H   0  0  0  0  0  0  0  0  0  0  0  0
  150.9267  132.1901  153.8640 H   0  0  0  0  0  0  0  0  0  0  0  0
  150.4252  132.3941  155.5473 H   0  0  0  0  0  0  0  0  0  0  0  0
  148.6437  131.7238  153.1809 H   0  0  0  0  0  0  0  0  0  0  0  0
  148.7650  130.8325  154.7039 H   0  0  0  0  0  0  0  0  0  0  0  0
  146.8368  132.7571  154.3563 H   0  0  0  0  0  0  0  0  0  0  0  0
  147.6515  132.5888  155.9131 H   0  0  0  0  0  0  0  0  0  0  0  0
  149.4706  140.5958  157.4716 H   0  0  0  0  0  0  0  0  0  0  0  0
  149.5741  142.3851  157.6527 H   0  0  0  0  0  0  0  0  0  0  0  0
  150.0188  141.0362  155.1278 H   0  0  0  0  0  0  0  0  0  0  0  0
  150.8499  142.5823  155.5606 H   0  0  0  0  0  0  0  0  0  0  0  0
  152.7977  141.1423  155.9514 H   0  0  0  0  0  0  0  0  0  0  0  0
  151.7209  139.7225  156.2352 H   0  0  0  0  0  0  0  0  0  0  0  0
  1  2  1  0  0  0  0
  1 29  1  0  0  0  0
  1 30  1  0  0  0  0
  1 31  1  0  0  0  0
  2  3  1  0  0  0  0
  3 25  1  0  0  0  0
  3  4  1  0  0  0  0
  3 32  1  0  0  0  0
  4  5  1  0  0  0  0
  4 33  1  0  0  0  0
  4 34  1  0  0  0  0
  5  6  1  0  0  0  0
  5 25  1  0  0  0  0
  5 35  1  0  0  0  0
  6  7  1  0  0  0  0
  6  8  1  0  0  0  0
  7 36  1  0  0  0  0
  7 37  1  0  0  0  0
  7 38  1  0  0  0  0
  8 13  1  0  0  0  0
  8  9  2  0  0  0  0
  9 10  1  0  0  0  0
 10 11  2  0  0  0  0
 10 39  1  0  0  0  0
 11 12  1  0  0  0  0
 12 16  1  0  0  0  0
 12 13  2  0  0  0  0
 13 14  1  0  0  0  0
 14 15  2  0  0  0  0
 15 16  1  0  0  0  0
 15 40  1  0  0  0  0
 16 17  1  0  0  0  0
 17 18  1  0  0  0  0
 17 41  1  0  0  0  0
 17 42  1  0  0  0  0
 18 19  1  0  0  0  0
 18 20  1  0  0  0  0
 18 43  1  0  0  0  0
 19 44  1  0  0  0  0
 20 24  1  0  0  0  0
 20 21  1  0  0  0  0
 20 45  1  0  0  0  0
 21 22  1  0  0  0  0
 21 46  1  0  0  0  0
 21 47  1  0  0  0  0
 22 23  1  0  0  0  0
 22 48  1  0  0  0  0
 22 49  1  0  0  0  0
 23 24  1  0  0  0  0
 23 50  1  0  0  0  0
 23 51  1  0  0  0  0
 25 28  1  0  0  0  0
 25 26  1  0  0  0  0
 26 27  1  0  0  0  0
 26 52  1  0  0  0  0
 26 53  1  0  0  0  0
 27 28  1  0  0  0  0
 27 54  1  0  0  0  0
 27 55  1  0  0  0  0
 28 56  1  0  0  0  0
 28 57  1  0  0  0  0
M  END
> <s_m_source_file>
AV-unprocessed.smi

> <i_m_source_file_index>
276

> <i_lp_mmshare_version>
43012

> <i_f3d_flags>
0

> <s_epik_input>
W0NIMl0xW0NIMl1bQ0gyXUMxMltDQEhdKE9bQ0gzXSlbQ0gyXVtDQEhdMk4oW0NIM10pYyhuW2NIXW4zKWMoYzM0KW5bY0hdbjRbQ0gyXVtDQEhdKFtPSF0pW0NAQEhdNVtDSDJdW0NIMl1bQ0gyXU81

> <s_epik_cmdline>
J2VwaWtfcHl0aG9uJywgJy1waCcsICc3LjAnLCAnLXRuJywgJzgnLCAnLW1hJywgJzIwMCcsICctbWV0YWxfYmluZGluZycsICctaW1hZScsICc8aW5maWxlLm1hZT4nLCAnLW9tYWUnLCAnPG91dGZpbGUubWFlPic=

> <r_lp_tautomer_probability>
1

> <r_epik_Ionization_Penalty>
0.00204117

> <r_epik_Ionization_Penalty_Charging>
0

> <r_epik_Ionization_Penalty_Neutral>
0.00204117

> <r_epik_State_Penalty>
0.00127401

> <r_epik_Charging_Adjusted_Penalty>
0.00127401

> <i_epik_Tot_Q>
0

> <i_epik_Tot_abs_Q>
0

> <r_epik_Metal_State_Penalty>
-0

> <b_epik_Metal_Only>
0

> <s_lp_Force_Field>
OPLS_2005

> <r_lp_Energy>
57.2167

> <b_lp_Chiralities_Consistent>
1

> <s_lp_Variant>
AV-unprocessed.smi:276-12

> <Gold.Version>
5.8.1

> <Gold.Id.Protein>
6NUR|6NUR_protein|mol2

> <Gold.PLP.Fitness>
46.5217

> <Gold.PLP.PLP>
-40.4215

> <Gold.PLP.part.hbond>
-3.0000

> <Gold.PLP.part.metal>
0.0000

> <Gold.PLP.part.buried>
-6.9536

> <Gold.PLP.part.nonpolar>
-30.9579

> <Gold.PLP.part.repulsive>
0.1643

> <Gold.PLP.ligand.clash>
0.0000

> <Gold.PLP.ligand.torsion>
1.6173

> <Gold.PLP.Chemscore.Hbond>
2.8320

> <Gold.PLP.Chemscore.CHOScore>
0.0000

> <Gold.PLP.Chemscore.Metal>
0.0000

> <Gold.Chemscore.Hbonds>
donor molecule, donor type, donor heavy atom, donor atom, acceptor molecule, acceptor atom, score
      L1  H    19    44       P1  7948  0.65
      P1  H  7997  8010       L1     9  0.84
      P1  H 10752 10764       L1    11  0.94

> <Gold.PLP.Chemscore.Internal.Correction>
0.8387

> <Gold.Rescore>
     Score         DG    S(hbond)    S(metal)    S(lipo)     H(rot)  DE(clash)    DE(int)     intcor
     14.97     -17.84       2.24        0.00     101.02       2.72       0.06       2.81       ----

> <Gold.Chemscore.Fitness>
14.9698

> <Gold.Chemscore.DG>
-17.8364

> <Gold.Chemscore.ZeroCoef>
-5.4800

> <Gold.Chemscore.Hbond>
2.2433

> <Gold.Chemscore.Metal>
0.0000

> <Gold.Chemscore.Lipo>
101.0233

> <Gold.Chemscore.Internal_Hbond>
0.0000

> <Gold.Chemscore.DEClash>
0.0602

> <Gold.Chemscore.DEInternal>
2.8063

> <Gold.Chemscore.Rot>
2.7172

> <Gold.Chemscore.Internal.Correction>
   9.000000E+99

> <Gold.Chemscore.Hbonds>
donor molecule, donor type, donor heavy atom, donor atom, acceptor molecule, acceptor atom, score
      L1  H    19    44       P1  7948  0.11
      P1  H  7997  8010       L1     9  0.15
      P1  H 10752 10764       L1    11  0.83

> <Gold.Chemscore.Hbond.Weighted>
-7.4926

> <Gold.Chemscore.Metal.Weighted>
-0.0000

> <Gold.Chemscore.Lipo.Weighted>
-11.8197

> <Gold.Chemscore.Internal_Hbond.Weighted>
0.0000

> <Gold.Chemscore.DEClash.Weighted>
0.0602

> <Gold.Chemscore.DEInternal.Weighted>
2.8063

> <Gold.Chemscore.Rot.Weighted>
6.9560

> <Gold.Chemscore.Internal.Correction.Weighted>
   9.000000E+99

> <Gold.Protein.RotatedTorsions>
[ 6907 6896 6895 6894 ] final   66.25 input  -60.11 | X-H torsion
[ 7974 7965 7964 7962 ] final -109.20 input  175.53 | X-H torsion
[ 8008 7997 7996 7995 ] final   10.42 input   59.86 | X-H torsion
[ 10167 10162 10161 10158 ] final  163.61 input  -65.29 | X-H torsion
[ 10718 10713 10712 10709 ] final -136.67 input   66.30 | X-H torsion
[ 10763 10752 10751 10750 ] final  -13.11 input  -60.55 | X-H torsion
[ 11005 11000 10999 10996 ] final -169.10 input  -57.11 | X-H torsion

> <Gold.Protein.ActiveResidues>
 VAL166  LYS551  ARG553  GLY616  TRP617  ASP618  TYR619  PRO620  LYS621  CYS622 
 ASP623  PHE694  ASN695  SER759  ASP760  ASP761  ALA762  ILE779  LEU786  VAL792 
 PHE793  MET794  SER795  GLU796  ALA797  LYS798  CYS799  TRP800  GLU811  SER814 

> <Gold.Protein.RotatedAtoms>
  152.4467  134.5480  159.9858 H   0  0  0  0  0  0  0  0  0  0  0  0  # atno 6907 bound_to 6896
  151.5563  133.3404  159.2970 H   0  0  0  0  0  0  0  0  0  0  0  0  # atno 6908 bound_to 6896
  150.8385  134.7700  159.6976 H   0  0  0  0  0  0  0  0  0  0  0  0  # atno 6909 bound_to 6896
  145.1834  140.8982  143.3466 H   0  0  0  0  0  0  0  0  0  0  0  0  # atno 7974 bound_to 7965
  154.7932  140.2839  155.5976 H   0  0  0  0  0  0  0  0  0  0  0  0  # atno 8008 bound_to 7997
  156.2967  140.2601  156.2712 H   0  0  0  0  0  0  0  0  0  0  0  0  # atno 8009 bound_to 7997
  154.9646  140.0377  157.2195 H   0  0  0  0  0  0  0  0  0  0  0  0  # atno 8010 bound_to 7997
  139.4876  144.4319  151.9060 H   0  0  0  0  0  0  0  0  0  0  0  0  # atno 10167 bound_to 10162
  156.2797  130.7313  151.1306 H   0  0  0  0  0  0  0  0  0  0  0  0  # atno 10718 bound_to 10713
  153.5084  135.7016  153.5794 H   0  0  0  0  0  0  0  0  0  0  0  0  # atno 10763 bound_to 10752
  153.3895  135.3899  155.1913 H   0  0  0  0  0  0  0  0  0  0  0  0  # atno 10764 bound_to 10752
  154.8705  135.3855  154.4561 H   0  0  0  0  0  0  0  0  0  0  0  0  # atno 10765 bound_to 10752
  140.5345  134.5583  157.5083 H   0  0  0  0  0  0  0  0  0  0  0  0  # atno 11005 bound_to 11000
  145.0113  139.3507  143.6118 LP  0  0  0  0  0  0  0  0  0  0  0  0  # atno 17320 bound_to 7965
  146.3449  139.9377  142.8745 LP  0  0  0  0  0  0  0  0  0  0  0  0  # atno 17321 bound_to 7965
  140.3767  144.2787  150.5913 LP  0  0  0  0  0  0  0  0  0  0  0  0  # atno 17342 bound_to 10162
  140.5270  143.2252  151.8299 LP  0  0  0  0  0  0  0  0  0  0  0  0  # atno 17343 bound_to 10162
  157.7310  131.0611  150.5698 LP  0  0  0  0  0  0  0  0  0  0  0  0  # atno 17370 bound_to 10713
  156.5802  130.4302  149.5980 LP  0  0  0  0  0  0  0  0  0  0  0  0  # atno 17371 bound_to 10713
  139.9536  134.7573  156.0391 LP  0  0  0  0  0  0  0  0  0  0  0  0  # atno 17394 bound_to 11000
  141.1262  133.6598  156.3344 LP  0  0  0  0  0  0  0  0  0  0  0  0  # atno 17395 bound_to 11000

$$$$
