AV-unprocessed.smi:779|AV-procd|sdf|3704|dock2
  -GOLD-   22720 1123D 1   1.00000     0.00000
 Structure written by MMmdl.
 21 21  0  0  0  0  0  0  0  0  2 V2000
  152.9457  138.8082  155.7651 O   0  0  0  0  0  0  0  0  0  0  0  0
  151.9749  138.3219  155.1435 C   0  0  0  0  0  0  0  0  0  0  0  0
  151.9857  137.2430  154.5094 O   0  5  0  0  0  0  0  0  0  0  0  0
  150.6399  139.1844  155.1853 C   0  0  0  0  0  0  0  0  0  0  0  0
  149.5631  138.9473  154.3906 C   0  0  0  0  0  0  0  0  0  0  0  0
  148.3982  139.6973  154.4317 N   0  0  0  0  0  0  0  0  0  0  0  0
  147.2620  139.4100  153.5912 C   0  0  0  0  0  0  0  0  0  0  0  0
  146.0405  138.9258  154.3901 C   0  0  0  0  0  0  0  0  0  0  0  0
  145.0343  138.4836  153.5050 O   0  0  0  0  0  0  0  0  0  0  0  0
  148.2862  140.7636  155.3496 C   0  0  0  0  0  0  0  0  0  0  0  0
  147.2767  141.4605  155.4576 O   0  0  0  0  0  0  0  0  0  0  0  0
  149.3906  141.0103  156.1623 N   0  0  0  0  0  0  0  0  0  0  0  0
  150.5936  140.2964  156.1595 C   0  0  0  0  0  0  0  0  0  0  0  0
  151.4718  140.6515  156.9454 O   0  0  0  0  0  0  0  0  0  0  0  0
  149.3159  141.7748  156.8171 H   0  0  0  0  0  0  0  0  0  0  0  0
  149.6071  138.1284  153.6866 H   0  0  0  0  0  0  0  0  0  0  0  0
  147.0528  140.3018  152.9961 H   0  0  0  0  0  0  0  0  0  0  0  0
  147.5930  138.6455  152.8864 H   0  0  0  0  0  0  0  0  0  0  0  0
  146.3160  138.1021  155.0494 H   0  0  0  0  0  0  0  0  0  0  0  0
  145.6366  139.7228  155.0149 H   0  0  0  0  0  0  0  0  0  0  0  0
  144.6006  139.2408  153.1422 H   0  0  0  0  0  0  0  0  0  0  0  0
  1  2  2  0  0  0  0
  2  3  1  0  0  0  0
  2  4  1  0  0  0  0
  4 13  1  0  0  0  0
  4  5  2  0  0  0  0
  5  6  1  0  0  0  0
  5 16  1  0  0  0  0
  6  7  1  0  0  0  0
  6 10  1  0  0  0  0
  7  8  1  0  0  0  0
  7 17  1  0  0  0  0
  7 18  1  0  0  0  0
  8  9  1  0  0  0  0
  8 19  1  0  0  0  0
  8 20  1  0  0  0  0
  9 21  1  0  0  0  0
 10 11  2  0  0  0  0
 10 12  1  0  0  0  0
 12 15  1  0  0  0  0
 12 13  1  0  0  0  0
 13 14  2  0  0  0  0
M  CHG  1   3  -1
M  END
> <s_m_source_file>
AV-unprocessed.smi

> <i_m_source_file_index>
779

> <i_lp_mmshare_version>
43012

> <i_f3d_flags>
0

> <s_epik_input>
Tz1DKFtPSF0pYzFbY0hdbihbQ0gyXVtDSDJdW09IXSljKD1PKVtuSF1jMT1P

> <s_epik_cmdline>
J2VwaWtfcHl0aG9uJywgJy1waCcsICc3LjAnLCAnLXRuJywgJzgnLCAnLW1hJywgJzIwMCcsICctbWV0YWxfYmluZGluZycsICctaW1hZScsICc8aW5maWxlLm1hZT4nLCAnLW9tYWUnLCAnPG91dGZpbGUubWFlPic=

> <r_lp_tautomer_probability>
1

> <r_epik_Ionization_Penalty>
0.00105006

> <r_epik_Ionization_Penalty_Charging>
0.0010499

> <r_epik_Ionization_Penalty_Neutral>
1.56052e-07

> <r_epik_State_Penalty>
-0

> <r_epik_Charging_Adjusted_Penalty>
0.0010499

> <i_epik_Tot_Q>
-1

> <i_epik_Tot_abs_Q>
1

> <r_epik_Metal_State_Penalty>
0.521421

> <b_epik_Metal_Only>
0

> <s_lp_Force_Field>
OPLS_2005

> <r_lp_Energy>
14.2726

> <b_lp_Chiralities_Consistent>
1

> <s_lp_Variant>
AV-unprocessed.smi:779-1

> <Gold.Version>
5.8.1

> <Gold.Id.Protein>
6NUR|6NUR_protein|mol2

> <Gold.PLP.Fitness>
39.1441

> <Gold.PLP.PLP>
-21.8086

> <Gold.PLP.part.hbond>
-3.0000

> <Gold.PLP.part.metal>
0.0000

> <Gold.PLP.part.buried>
-0.4541

> <Gold.PLP.part.nonpolar>
-17.9987

> <Gold.PLP.part.repulsive>
0.3859

> <Gold.PLP.ligand.clash>
0.0000

> <Gold.PLP.ligand.torsion>
0.1185

> <Gold.PLP.Chemscore.Hbond>
4.8560

> <Gold.PLP.Chemscore.CHOScore>
1.0000

> <Gold.PLP.Chemscore.Metal>
0.0000

> <Gold.Chemscore.Hbonds>
donor molecule, donor type, donor heavy atom, donor atom, acceptor molecule, acceptor atom, score
      L1  H     9    21       P1 10175  1.00
      P1  H  7997  8010       L1     1  2.00
      P1  H 10752 10765       L1     3  1.86
      L1  C     5    16       P1  7948  0.63

> <Gold.PLP.Chemscore.Internal.Correction>
0.0045

> <Gold.Rescore>
     Score         DG    S(hbond)    S(metal)    S(lipo)     H(rot)  DE(clash)    DE(int)     intcor
     10.06     -12.15       2.84        0.00      23.99       2.19       0.35       1.75       ----

> <Gold.Chemscore.Fitness>
10.0606

> <Gold.Chemscore.DG>
-12.1535

> <Gold.Chemscore.ZeroCoef>
-5.4800

> <Gold.Chemscore.Hbond>
2.8362

> <Gold.Chemscore.Metal>
0.0000

> <Gold.Chemscore.Lipo>
23.9946

> <Gold.Chemscore.Internal_Hbond>
0.0000

> <Gold.Chemscore.DEClash>
0.3461

> <Gold.Chemscore.DEInternal>
1.7468

> <Gold.Chemscore.Rot>
2.1902

> <Gold.Chemscore.Internal.Correction>
   9.000000E+99

> <Gold.Chemscore.Hbonds>
donor molecule, donor type, donor heavy atom, donor atom, acceptor molecule, acceptor atom, score
      L1  H     9    21       P1 10175  1.00
      P1  H  7997  8010       L1     1  0.97
      P1  H 10752 10765       L1     3  0.91

> <Gold.Chemscore.Hbond.Weighted>
-9.4730

> <Gold.Chemscore.Metal.Weighted>
-0.0000

> <Gold.Chemscore.Lipo.Weighted>
-2.8074

> <Gold.Chemscore.Internal_Hbond.Weighted>
0.0000

> <Gold.Chemscore.DEClash.Weighted>
0.3461

> <Gold.Chemscore.DEInternal.Weighted>
1.7468

> <Gold.Chemscore.Rot.Weighted>
5.6069

> <Gold.Chemscore.Internal.Correction.Weighted>
   9.000000E+99

> <Gold.Protein.RotatedTorsions>
[ 6907 6896 6895 6894 ] final   14.24 input  -60.11 | X-H torsion
[ 7974 7965 7964 7962 ] final  -38.02 input  175.53 | X-H torsion
[ 8008 7997 7996 7995 ] final   80.15 input   59.86 | X-H torsion
[ 10167 10162 10161 10158 ] final  -59.97 input  -65.29 | X-H torsion
[ 10718 10713 10712 10709 ] final -160.66 input   66.30 | X-H torsion
[ 10763 10752 10751 10750 ] final  157.73 input  -60.55 | X-H torsion
[ 11005 11000 10999 10996 ] final  -51.89 input  -57.11 | X-H torsion

> <Gold.Protein.ActiveResidues>
 VAL166  LYS551  ARG553  GLY616  TRP617  ASP618  TYR619  PRO620  LYS621  CYS622 
 ASP623  PHE694  ASN695  SER759  ASP760  ASP761  ALA762  ILE779  LEU786  VAL792 
 PHE793  MET794  SER795  GLU796  ALA797  LYS798  CYS799  TRP800  GLU811  SER814 

> <Gold.Protein.RotatedAtoms>
  151.7991  135.0714  160.0397 H   0  0  0  0  0  0  0  0  0  0  0  0  # atno 6907 bound_to 6896
  152.3102  133.5740  159.5684 H   0  0  0  0  0  0  0  0  0  0  0  0  # atno 6908 bound_to 6896
  150.7316  134.0080  159.3702 H   0  0  0  0  0  0  0  0  0  0  0  0  # atno 6909 bound_to 6896
  146.0524  140.6463  142.9036 H   0  0  0  0  0  0  0  0  0  0  0  0  # atno 7974 bound_to 7965
  155.8795  140.3445  155.5878 H   0  0  0  0  0  0  0  0  0  0  0  0  # atno 8008 bound_to 7997
  155.7736  140.0849  157.2114 H   0  0  0  0  0  0  0  0  0  0  0  0  # atno 8009 bound_to 7997
  154.4023  140.1514  156.2958 H   0  0  0  0  0  0  0  0  0  0  0  0  # atno 8010 bound_to 7997
  140.6101  143.2384  151.5730 H   0  0  0  0  0  0  0  0  0  0  0  0  # atno 10167 bound_to 10162
  156.5853  130.8747  151.2875 H   0  0  0  0  0  0  0  0  0  0  0  0  # atno 10718 bound_to 10713
  154.2048  135.2788  155.2978 H   0  0  0  0  0  0  0  0  0  0  0  0  # atno 10763 bound_to 10752
  154.5825  135.5585  153.7203 H   0  0  0  0  0  0  0  0  0  0  0  0  # atno 10764 bound_to 10752
  153.0079  135.6348  154.2187 H   0  0  0  0  0  0  0  0  0  0  0  0  # atno 10765 bound_to 10752
  141.0895  133.6635  156.3944 H   0  0  0  0  0  0  0  0  0  0  0  0  # atno 11005 bound_to 11000
  144.7129  140.4106  143.7066 LP  0  0  0  0  0  0  0  0  0  0  0  0  # atno 17320 bound_to 7965
  145.6702  139.1598  143.2759 LP  0  0  0  0  0  0  0  0  0  0  0  0  # atno 17321 bound_to 7965
  139.5354  144.2795  152.1241 LP  0  0  0  0  0  0  0  0  0  0  0  0  # atno 17342 bound_to 10162
  140.1992  144.4674  150.6440 LP  0  0  0  0  0  0  0  0  0  0  0  0  # atno 17343 bound_to 10162
  157.7317  130.9704  150.1891 LP  0  0  0  0  0  0  0  0  0  0  0  0  # atno 17370 bound_to 10713
  156.2596  130.3709  149.8144 LP  0  0  0  0  0  0  0  0  0  0  0  0  # atno 17371 bound_to 10713
  140.5285  134.6236  157.5342 LP  0  0  0  0  0  0  0  0  0  0  0  0  # atno 17394 bound_to 11000
  139.9719  134.7279  156.0025 LP  0  0  0  0  0  0  0  0  0  0  0  0  # atno 17395 bound_to 11000

$$$$
