AV-unprocessed.smi:218|AV-procd|sdf|1670|dock10
  -GOLD-   2262020 83D 1   1.00000     0.00000
 Structure written by MMmdl.
 54 57  0  0  0  0  0  0  0  0  1 V2000
  151.3399  141.7210  158.5140 C   0  0  0  0  0  0  0  0  0  0  0  0
  151.9039  140.2980  158.4235 C   0  0  0  0  0  0  0  0  0  0  0  0
  153.0169  140.0732  159.4615 C   0  0  0  0  0  0  0  0  0  0  0  0
  152.4181  140.1402  157.0997 O   0  0  0  0  0  0  0  0  0  0  0  0
  151.5639  139.8571  156.0513 C   0  0  0  0  0  0  0  0  0  0  0  0
  150.4943  140.7416  155.8048 C   0  0  0  0  0  0  0  0  0  0  0  0
  149.6089  140.4630  154.7431 C   0  0  0  0  0  0  0  0  0  0  0  0
  148.4428  141.3840  154.4483 C   0  0  0  0  0  0  0  0  0  0  0  0
  147.1509  140.7177  154.5414 N   0  0  0  0  0  0  0  0  0  0  0  0
  146.8621  139.6846  153.7221 C   0  0  0  0  0  0  0  0  0  0  0  0
  147.2465  139.6962  152.4187 N   0  0  0  0  0  0  0  0  0  0  0  0
  146.9539  138.6599  151.6270 C   0  0  0  0  0  0  0  0  0  0  0  0
  146.2961  137.5386  151.9295 N   0  0  0  0  0  0  0  0  0  0  0  0
  145.9070  137.5238  153.2378 C   0  0  0  0  0  0  0  0  0  0  0  0
  146.1499  138.5508  154.1913 C   0  0  0  0  0  0  0  0  0  0  0  0
  145.6075  138.1915  155.4184 N   0  0  0  0  0  0  0  0  0  0  0  0
  145.0727  137.0203  155.1968 C   0  0  0  0  0  0  0  0  0  0  0  0
  145.2015  136.5464  153.9099 N   0  0  0  0  0  0  0  0  0  0  0  0
  144.7049  135.2470  153.3551 C   0  0  2  0  0  0  0  0  0  0  0  0
  145.8169  134.5186  152.9421 O   0  0  0  0  0  0  0  0  0  0  0  0
  145.5051  133.8137  151.7497 C   0  0  2  0  0  0  0  0  0  0  0  0
  146.7982  133.4908  150.9857 C   0  0  0  0  0  0  0  0  0  0  0  0
  147.5672  132.5530  151.7084 O   0  0  0  0  0  0  0  0  0  0  0  0
  144.5832  134.7859  151.0074 C   0  0  1  0  0  0  0  0  0  0  0  0
  143.7381  134.0853  150.1167 O   0  0  0  0  0  0  0  0  0  0  0  0
  143.7731  135.4178  152.1331 C   0  0  2  0  0  0  0  0  0  0  0  0
  143.4365  136.7594  151.8269 O   0  0  0  0  0  0  0  0  0  0  0  0
  149.8274  139.3064  153.9683 C   0  0  0  0  0  0  0  0  0  0  0  0
  150.9234  138.4826  154.2903 C   0  0  0  0  0  0  0  0  0  0  0  0
  151.7741  138.7439  155.3054 N   0  0  0  0  0  0  0  0  0  0  0  0
  144.2143  134.7530  154.1948 H   0  0  0  0  0  0  0  0  0  0  0  0
  144.9565  132.9048  152.0071 H   0  0  0  0  0  0  0  0  0  0  0  0
  145.1696  135.5359  150.4741 H   0  0  0  0  0  0  0  0  0  0  0  0
  142.8639  134.8475  152.3300 H   0  0  0  0  0  0  0  0  0  0  0  0
  150.9154  141.9141  159.4996 H   0  0  0  0  0  0  0  0  0  0  0  0
  150.5504  141.8746  157.7778 H   0  0  0  0  0  0  0  0  0  0  0  0
  152.1143  142.4666  158.3311 H   0  0  0  0  0  0  0  0  0  0  0  0
  151.0764  139.6114  158.6090 H   0  0  0  0  0  0  0  0  0  0  0  0
  152.6452  140.2372  160.4733 H   0  0  0  0  0  0  0  0  0  0  0  0
  153.8501  140.7572  159.2980 H   0  0  0  0  0  0  0  0  0  0  0  0
  153.4107  139.0581  159.4201 H   0  0  0  0  0  0  0  0  0  0  0  0
  150.3554  141.6157  156.4241 H   0  0  0  0  0  0  0  0  0  0  0  0
  148.4618  142.2282  155.1389 H   0  0  0  0  0  0  0  0  0  0  0  0
  148.5744  141.7862  153.4430 H   0  0  0  0  0  0  0  0  0  0  0  0
  146.5089  141.0823  155.2306 H   0  0  0  0  0  0  0  0  0  0  0  0
  147.2949  138.7410  150.6054 H   0  0  0  0  0  0  0  0  0  0  0  0
  144.5629  136.4671  155.9721 H   0  0  0  0  0  0  0  0  0  0  0  0
  146.5620  133.0432  150.0200 H   0  0  0  0  0  0  0  0  0  0  0  0
  147.3792  134.3929  150.7913 H   0  0  0  0  0  0  0  0  0  0  0  0
  147.9346  131.9318  151.0983 H   0  0  0  0  0  0  0  0  0  0  0  0
  142.8545  134.3987  150.2367 H   0  0  0  0  0  0  0  0  0  0  0  0
  143.5033  136.8756  150.8908 H   0  0  0  0  0  0  0  0  0  0  0  0
  149.1741  139.0531  153.1464 H   0  0  0  0  0  0  0  0  0  0  0  0
  151.1216  137.5890  153.7173 H   0  0  0  0  0  0  0  0  0  0  0  0
  1  2  1  0  0  0  0
  1 35  1  0  0  0  0
  1 36  1  0  0  0  0
  1 37  1  0  0  0  0
  2  3  1  0  0  0  0
  2  4  1  0  0  0  0
  2 38  1  0  0  0  0
  3 39  1  0  0  0  0
  3 40  1  0  0  0  0
  3 41  1  0  0  0  0
  4  5  1  0  0  0  0
  5 30  1  0  0  0  0
  5  6  2  0  0  0  0
  6  7  1  0  0  0  0
  6 42  1  0  0  0  0
  7  8  1  0  0  0  0
  7 28  2  0  0  0  0
  8  9  1  0  0  0  0
  8 43  1  0  0  0  0
  8 44  1  0  0  0  0
  9 10  1  0  0  0  0
  9 45  1  0  0  0  0
 10 15  1  0  0  0  0
 10 11  2  0  0  0  0
 11 12  1  0  0  0  0
 12 13  2  0  0  0  0
 12 46  1  0  0  0  0
 13 14  1  0  0  0  0
 14 18  1  0  0  0  0
 14 15  2  0  0  0  0
 15 16  1  0  0  0  0
 16 17  2  0  0  0  0
 17 18  1  0  0  0  0
 17 47  1  0  0  0  0
 18 19  1  0  0  0  0
 19 31  1  0  0  0  0
 19 26  1  0  0  0  0
 19 20  1  0  0  0  0
 20 21  1  0  0  0  0
 21 32  1  0  0  0  0
 21 22  1  0  0  0  0
 21 24  1  0  0  0  0
 22 23  1  0  0  0  0
 22 48  1  0  0  0  0
 22 49  1  0  0  0  0
 23 50  1  0  0  0  0
 24 33  1  0  0  0  0
 24 25  1  0  0  0  0
 24 26  1  0  0  0  0
 25 51  1  0  0  0  0
 26 34  1  0  0  0  0
 26 27  1  0  0  0  0
 27 52  1  0  0  0  0
 28 29  1  0  0  0  0
 28 53  1  0  0  0  0
 29 30  2  0  0  0  0
 29 54  1  0  0  0  0
M  END
> <s_m_source_file>
AV-unprocessed.smi

> <i_m_source_file_index>
218

> <i_lp_mmshare_version>
43012

> <i_f3d_flags>
0

> <s_epik_input>
W0NIM11bQ0hdKFtDSDNdKU9jMVtjSF1jKFtjSF1bY0hdbjEpW0NIMl1bTkhdYyhuW2NIXW4yKWMoYzIzKW5bY0hdbjNbQ0BASF00T1tDQEhdKFtDSDJdW09IXSlbQ0BASF0oW09IXSlbQ0BIXTRbT0hd

> <s_epik_cmdline>
J2VwaWtfcHl0aG9uJywgJy1waCcsICc3LjAnLCAnLXRuJywgJzgnLCAnLW1hJywgJzIwMCcsICctbWV0YWxfYmluZGluZycsICctaW1hZScsICc8aW5maWxlLm1hZT4nLCAnLW9tYWUnLCAnPG91dGZpbGUubWFlPic=

> <r_lp_tautomer_probability>
1

> <r_epik_Ionization_Penalty>
0.00457014

> <r_epik_Ionization_Penalty_Charging>
0

> <r_epik_Ionization_Penalty_Neutral>
0.00457014

> <r_epik_State_Penalty>
-0

> <r_epik_Charging_Adjusted_Penalty>
0

> <i_epik_Tot_Q>
0

> <i_epik_Tot_abs_Q>
0

> <r_epik_Metal_State_Penalty>
-0

> <b_epik_Metal_Only>
0

> <s_epik_Chemistry_Notes>
This compound contains an acetal/aminal-like group ( X-CH(R)-Y where X, Y are N, S, or O) that may be acid/base labile, releasing an aldehyde.

> <s_lp_Force_Field>
OPLS_2005

> <r_lp_Energy>
38.9245

> <b_lp_Chiralities_Consistent>
1

> <s_lp_Variant>
AV-unprocessed.smi:218-9

> <Gold.Version>
5.8.1

> <Gold.Id.Protein>
6NUR|6NUR_protein|mol2

> <Gold.PLP.Fitness>
50.8755

> <Gold.PLP.PLP>
-40.0305

> <Gold.PLP.part.hbond>
-4.0000

> <Gold.PLP.part.metal>
0.0000

> <Gold.PLP.part.buried>
-4.5100

> <Gold.PLP.part.nonpolar>
-33.7820

> <Gold.PLP.part.repulsive>
3.0951

> <Gold.PLP.ligand.clash>
1.8100

> <Gold.PLP.ligand.torsion>
0.5439

> <Gold.PLP.Chemscore.Hbond>
3.5200

> <Gold.PLP.Chemscore.CHOScore>
1.0180

> <Gold.PLP.Chemscore.Metal>
0.0000

> <Gold.Chemscore.Hbonds>
donor molecule, donor type, donor heavy atom, donor atom, acceptor molecule, acceptor atom, score
      L1  H    23    50       P1 10747  1.00
      L1  H    25    51       P1 10186  0.94
      L1  H    27    52       P1 10171  0.59
      P1  H  7997  8010       L1     4  1.00
      L1  C    12    46       P1  7957  0.20
      L1  C    29    54       P1  7949  0.47

> <Gold.PLP.Chemscore.Internal.Correction>
0.1286

> <Gold.Rescore>
     Score         DG    S(hbond)    S(metal)    S(lipo)     H(rot)  DE(clash)    DE(int)     intcor
      7.51     -12.99       3.18        0.00      80.62       4.90       2.67       2.82       ----

> <Gold.Chemscore.Fitness>
7.5055

> <Gold.Chemscore.DG>
-12.9907

> <Gold.Chemscore.ZeroCoef>
-5.4800

> <Gold.Chemscore.Hbond>
3.1825

> <Gold.Chemscore.Metal>
0.0000

> <Gold.Chemscore.Lipo>
80.6216

> <Gold.Chemscore.Internal_Hbond>
0.0000

> <Gold.Chemscore.DEClash>
2.6673

> <Gold.Chemscore.DEInternal>
2.8179

> <Gold.Chemscore.Rot>
4.9029

> <Gold.Chemscore.Internal.Correction>
   9.000000E+99

> <Gold.Chemscore.Hbonds>
donor molecule, donor type, donor heavy atom, donor atom, acceptor molecule, acceptor atom, score
      L1  H    23    50       P1 10747  1.00
      L1  H    25    51       P1 10186  0.70
      L1  H    27    52       P1 10171  0.55
      P1  H  7997  8010       L1     4  0.76

> <Gold.Chemscore.Hbond.Weighted>
-10.6296

> <Gold.Chemscore.Metal.Weighted>
-0.0000

> <Gold.Chemscore.Lipo.Weighted>
-9.4327

> <Gold.Chemscore.Internal_Hbond.Weighted>
0.0000

> <Gold.Chemscore.DEClash.Weighted>
2.6673

> <Gold.Chemscore.DEInternal.Weighted>
2.8179

> <Gold.Chemscore.Rot.Weighted>
12.5515

> <Gold.Chemscore.Internal.Correction.Weighted>
   9.000000E+99

> <Gold.Protein.RotatedTorsions>
[ 6907 6896 6895 6894 ] final -128.19 input  -60.11 | X-H torsion
[ 7974 7965 7964 7962 ] final  -11.09 input  175.53 | X-H torsion
[ 8008 7997 7996 7995 ] final   66.38 input   59.86 | X-H torsion
[ 10167 10162 10161 10158 ] final  -12.05 input  -65.29 | X-H torsion
[ 10718 10713 10712 10709 ] final  -48.93 input   66.30 | X-H torsion
[ 10763 10752 10751 10750 ] final  -33.46 input  -60.55 | X-H torsion
[ 11005 11000 10999 10996 ] final  167.50 input  -57.11 | X-H torsion

> <Gold.Protein.ActiveResidues>
 VAL166  LYS551  ARG553  GLY616  TRP617  ASP618  TYR619  PRO620  LYS621  CYS622 
 ASP623  PHE694  ASN695  SER759  ASP760  ASP761  ALA762  ILE779  LEU786  VAL792 
 PHE793  MET794  SER795  GLU796  ALA797  LYS798  CYS799  TRP800  GLU811  SER814 

> <Gold.Protein.RotatedAtoms>
  150.9152  133.6948  159.2844 H   0  0  0  0  0  0  0  0  0  0  0  0  # atno 6907 bound_to 6896
  151.4421  135.1020  159.9683 H   0  0  0  0  0  0  0  0  0  0  0  0  # atno 6908 bound_to 6896
  152.4951  133.8558  159.7280 H   0  0  0  0  0  0  0  0  0  0  0  0  # atno 6909 bound_to 6896
  146.2199  140.2860  142.8365 H   0  0  0  0  0  0  0  0  0  0  0  0  # atno 7974 bound_to 7965
  155.6765  140.3497  155.4838 H   0  0  0  0  0  0  0  0  0  0  0  0  # atno 8008 bound_to 7997
  155.9644  140.1143  157.0890 H   0  0  0  0  0  0  0  0  0  0  0  0  # atno 8009 bound_to 7997
  154.4151  140.1169  156.5208 H   0  0  0  0  0  0  0  0  0  0  0  0  # atno 8010 bound_to 7997
  140.7152  143.5574  150.9233 H   0  0  0  0  0  0  0  0  0  0  0  0  # atno 10167 bound_to 10162
  156.1941  130.4154  149.9331 H   0  0  0  0  0  0  0  0  0  0  0  0  # atno 10718 bound_to 10713
  153.8306  135.6866  153.4815 H   0  0  0  0  0  0  0  0  0  0  0  0  # atno 10763 bound_to 10752
  153.1513  135.4617  154.9639 H   0  0  0  0  0  0  0  0  0  0  0  0  # atno 10764 bound_to 10752
  154.7888  135.3294  154.7769 H   0  0  0  0  0  0  0  0  0  0  0  0  # atno 10765 bound_to 10752
  140.2775  134.7777  157.3729 H   0  0  0  0  0  0  0  0  0  0  0  0  # atno 11005 bound_to 11000
  144.9162  140.7815  143.5777 LP  0  0  0  0  0  0  0  0  0  0  0  0  # atno 17320 bound_to 7965
  145.2793  139.1924  143.4799 LP  0  0  0  0  0  0  0  0  0  0  0  0  # atno 17321 bound_to 7965
  139.9299  143.6505  152.3078 LP  0  0  0  0  0  0  0  0  0  0  0  0  # atno 17342 bound_to 10162
  139.6952  144.7642  151.1368 LP  0  0  0  0  0  0  0  0  0  0  0  0  # atno 17343 bound_to 10162
  156.7062  130.8952  151.3604 LP  0  0  0  0  0  0  0  0  0  0  0  0  # atno 17370 bound_to 10713
  157.6947  130.9269  150.0610 LP  0  0  0  0  0  0  0  0  0  0  0  0  # atno 17371 bound_to 10713
  140.1315  134.5089  155.8102 LP  0  0  0  0  0  0  0  0  0  0  0  0  # atno 17394 bound_to 11000
  141.2168  133.6791  156.7047 LP  0  0  0  0  0  0  0  0  0  0  0  0  # atno 17395 bound_to 11000

$$$$
