AV-unprocessed.smi:50|AV-procd|sdf|494|dock2
  -GOLD-   2262016363D 1   1.00000     0.00000
 Structure written by MMmdl.
 43 44  0  0  0  0  0  0  0  0  1 V2000
  145.2298  132.1964  151.7465 C   0  0  0  0  0  0  0  0  0  0  0  0
  144.4316  133.0445  150.7345 C   0  0  0  0  0  0  0  0  0  0  0  0
  144.7100  132.5154  149.3145 C   0  0  0  0  0  0  0  0  0  0  0  0
  144.7001  134.5752  150.8384 C   0  0  1  0  0  0  0  0  0  0  0  0
  144.0191  135.2886  149.7580 N   0  0  0  0  0  0  0  0  0  0  0  0
  144.3015  135.1575  152.2064 C   0  0  0  0  0  0  0  0  0  0  0  0
  145.0504  135.8261  152.9215 O   0  0  0  0  0  0  0  0  0  0  0  0
  143.0247  134.8561  152.4945 O   0  0  0  0  0  0  0  0  0  0  0  0
  142.5193  135.1128  153.7942 C   0  0  0  0  0  0  0  0  0  0  0  0
  141.1188  135.7239  153.6905 C   0  0  0  0  0  0  0  0  0  0  0  0
  140.6801  136.1246  154.9834 O   0  0  0  0  0  0  0  0  0  0  0  0
  140.6982  137.4955  155.2236 C   0  0  0  0  0  0  0  0  0  0  0  0
  139.3932  138.0495  154.9017 N   0  0  0  0  0  0  0  0  0  0  0  0
  139.0925  139.0332  153.9934 C   0  0  0  0  0  0  0  0  0  0  0  0
  137.8214  139.3115  153.9139 N   0  0  0  0  0  0  0  0  0  0  0  0
  137.2274  138.4546  154.8360 C   0  0  0  0  0  0  0  0  0  0  0  0
  135.8466  138.2966  155.1936 C   0  0  0  0  0  0  0  0  0  0  0  0
  134.8708  138.8943  154.7450 O   0  0  0  0  0  0  0  0  0  0  0  0
  135.6664  137.3257  156.1868 N   0  0  0  0  0  0  0  0  0  0  0  0
  136.7022  136.5914  156.7595 C   0  0  0  0  0  0  0  0  0  0  0  0
  136.3626  135.7031  157.7027 N   0  0  0  0  0  0  0  0  0  0  0  0
  137.9724  136.7319  156.4229 N   0  0  0  0  0  0  0  0  0  0  0  0
  138.1865  137.6771  155.4558 C   0  0  0  0  0  0  0  0  0  0  0  0
  145.7691  134.7368  150.7055 H   0  0  0  0  0  0  0  0  0  0  0  0
  134.7200  137.1601  156.4968 H   0  0  0  0  0  0  0  0  0  0  0  0
  146.2992  132.3890  151.6644 H   0  0  0  0  0  0  0  0  0  0  0  0
  145.0729  131.1307  151.5772 H   0  0  0  0  0  0  0  0  0  0  0  0
  144.9304  132.3958  152.7755 H   0  0  0  0  0  0  0  0  0  0  0  0
  143.3739  132.8733  150.9408 H   0  0  0  0  0  0  0  0  0  0  0  0
  145.7530  132.6597  149.0358 H   0  0  0  0  0  0  0  0  0  0  0  0
  144.0949  133.0137  148.5656 H   0  0  0  0  0  0  0  0  0  0  0  0
  144.4949  131.4489  149.2430 H   0  0  0  0  0  0  0  0  0  0  0  0
  144.4308  135.0831  148.8591 H   0  0  0  0  0  0  0  0  0  0  0  0
  143.0444  135.0311  149.6987 H   0  0  0  0  0  0  0  0  0  0  0  0
  142.4999  134.2035  154.3968 H   0  0  0  0  0  0  0  0  0  0  0  0
  143.1874  135.8192  154.2887 H   0  0  0  0  0  0  0  0  0  0  0  0
  141.1656  136.6244  153.0781 H   0  0  0  0  0  0  0  0  0  0  0  0
  140.4349  135.0421  153.1821 H   0  0  0  0  0  0  0  0  0  0  0  0
  140.8727  137.6523  156.2884 H   0  0  0  0  0  0  0  0  0  0  0  0
  141.4905  138.0036  154.6709 H   0  0  0  0  0  0  0  0  0  0  0  0
  139.8403  139.5329  153.3952 H   0  0  0  0  0  0  0  0  0  0  0  0
  135.3927  135.5954  157.9631 H   0  0  0  0  0  0  0  0  0  0  0  0
  137.0710  135.1428  158.1542 H   0  0  0  0  0  0  0  0  0  0  0  0
  1  2  1  0  0  0  0
  1 26  1  0  0  0  0
  1 27  1  0  0  0  0
  1 28  1  0  0  0  0
  2  3  1  0  0  0  0
  2  4  1  0  0  0  0
  2 29  1  0  0  0  0
  3 30  1  0  0  0  0
  3 31  1  0  0  0  0
  3 32  1  0  0  0  0
  4 24  1  0  0  0  0
  4  5  1  0  0  0  0
  4  6  1  0  0  0  0
  5 33  1  0  0  0  0
  5 34  1  0  0  0  0
  6  7  2  0  0  0  0
  6  8  1  0  0  0  0
  8  9  1  0  0  0  0
  9 10  1  0  0  0  0
  9 35  1  0  0  0  0
  9 36  1  0  0  0  0
 10 11  1  0  0  0  0
 10 37  1  0  0  0  0
 10 38  1  0  0  0  0
 11 12  1  0  0  0  0
 12 13  1  0  0  0  0
 12 39  1  0  0  0  0
 12 40  1  0  0  0  0
 13 23  1  0  0  0  0
 13 14  1  0  0  0  0
 14 15  2  0  0  0  0
 14 41  1  0  0  0  0
 15 16  1  0  0  0  0
 16 23  2  0  0  0  0
 16 17  1  0  0  0  0
 17 18  2  0  0  0  0
 17 19  1  0  0  0  0
 19 25  1  0  0  0  0
 19 20  1  0  0  0  0
 20 21  1  0  0  0  0
 20 22  2  0  0  0  0
 21 42  1  0  0  0  0
 21 43  1  0  0  0  0
 22 23  1  0  0  0  0
M  END
> <s_m_source_file>
AV-unprocessed.smi

> <i_m_source_file_index>
50

> <i_lp_mmshare_version>
43012

> <i_f3d_flags>
0

> <s_epik_input>
W0NIM11bQ0hdKFtDSDNdKVtDQEhdKFtOSDJdKUMoPU8pT1tDSDJdW0NIMl1PW0NIMl1uKFtjSF1uMSljKGMxMiluYyhbTkgyXSlbbkhdYzI9Tw==

> <s_epik_cmdline>
J2VwaWtfcHl0aG9uJywgJy1waCcsICc3LjAnLCAnLXRuJywgJzgnLCAnLW1hJywgJzIwMCcsICctbWV0YWxfYmluZGluZycsICctaW1hZScsICc8aW5maWxlLm1hZT4nLCAnLW9tYWUnLCAnPG91dGZpbGUubWFlPic=

> <r_lp_tautomer_probability>
0.99994

> <r_epik_Ionization_Penalty>
0.704142

> <r_epik_Ionization_Penalty_Charging>
0.00148332

> <r_epik_Ionization_Penalty_Neutral>
0.702658

> <r_epik_State_Penalty>
0.725442

> <r_epik_Charging_Adjusted_Penalty>
0.726926

> <i_epik_Tot_Q>
0

> <i_epik_Tot_abs_Q>
0

> <r_epik_Metal_State_Penalty>
1.04557

> <b_epik_Metal_Only>
0

> <s_epik_Chemistry_Notes>
This compound has an ester and may undergo hydrolysis at high or low pH. This compound contains an acetal/aminal-like group ( X-CH(R)-Y where X, Y are N, S, or O) that may be acid/base labile, releasing an aldehyde.

> <s_lp_Force_Field>
OPLS_2005

> <r_lp_Energy>
2.75991

> <b_lp_Chiralities_Consistent>
1

> <s_lp_Variant>
AV-unprocessed.smi:50-4

> <Gold.Version>
5.8.1

> <Gold.Id.Protein>
6NUR|6NUR_protein|mol2

> <Gold.PLP.Fitness>
43.4965

> <Gold.PLP.PLP>
-34.3292

> <Gold.PLP.part.hbond>
-3.8001

> <Gold.PLP.part.metal>
0.0000

> <Gold.PLP.part.buried>
-7.7645

> <Gold.PLP.part.nonpolar>
-24.3774

> <Gold.PLP.part.repulsive>
0.4872

> <Gold.PLP.ligand.clash>
0.0000

> <Gold.PLP.ligand.torsion>
1.1492

> <Gold.PLP.Chemscore.Hbond>
2.7648

> <Gold.PLP.Chemscore.CHOScore>
1.0000

> <Gold.PLP.Chemscore.Metal>
0.0000

> <Gold.Chemscore.Hbonds>
donor molecule, donor type, donor heavy atom, donor atom, acceptor molecule, acceptor atom, score
      L1  H     5    33       P1  7921  0.81
      L1  H     5    34       P1 10186  0.80
      P1  H 11000 11005       L1    11  0.72
      L1  C    14    41       P1 10160  0.37

> <Gold.PLP.Chemscore.Internal.Correction>
0.1714

> <Gold.Rescore>
     Score         DG    S(hbond)    S(metal)    S(lipo)     H(rot)  DE(clash)    DE(int)     intcor
      7.64      -8.96       2.81        0.00      53.40       4.75       0.17       1.15       ----

> <Gold.Chemscore.Fitness>
7.6430

> <Gold.Chemscore.DG>
-8.9566

> <Gold.Chemscore.ZeroCoef>
-5.4800

> <Gold.Chemscore.Hbond>
2.8112

> <Gold.Chemscore.Metal>
0.0000

> <Gold.Chemscore.Lipo>
53.3972

> <Gold.Chemscore.Internal_Hbond>
0.0000

> <Gold.Chemscore.DEClash>
0.1658

> <Gold.Chemscore.DEInternal>
1.1479

> <Gold.Chemscore.Rot>
4.7501

> <Gold.Chemscore.Internal.Correction>
   9.000000E+99

> <Gold.Chemscore.Hbonds>
donor molecule, donor type, donor heavy atom, donor atom, acceptor molecule, acceptor atom, score
      L1  H     5    33       P1  7921  0.77
      L1  H     5    34       P1 10186  0.43
      P1  H 11000 11005       L1    11  0.54

> <Gold.Chemscore.Hbond.Weighted>
-9.3894

> <Gold.Chemscore.Metal.Weighted>
-0.0000

> <Gold.Chemscore.Lipo.Weighted>
-6.2475

> <Gold.Chemscore.Internal_Hbond.Weighted>
0.0000

> <Gold.Chemscore.DEClash.Weighted>
0.1658

> <Gold.Chemscore.DEInternal.Weighted>
1.1479

> <Gold.Chemscore.Rot.Weighted>
12.1603

> <Gold.Chemscore.Internal.Correction.Weighted>
   9.000000E+99

> <Gold.Protein.RotatedTorsions>
[ 6907 6896 6895 6894 ] final  -47.00 input  -60.11 | X-H torsion
[ 7974 7965 7964 7962 ] final  156.51 input  175.53 | X-H torsion
[ 8008 7997 7996 7995 ] final  -75.45 input   59.86 | X-H torsion
[ 10167 10162 10161 10158 ] final  -58.05 input  -65.29 | X-H torsion
[ 10718 10713 10712 10709 ] final  168.91 input   66.30 | X-H torsion
[ 10763 10752 10751 10750 ] final  -27.53 input  -60.55 | X-H torsion
[ 11005 11000 10999 10996 ] final   59.33 input  -57.11 | X-H torsion

> <Gold.Protein.ActiveResidues>
 VAL166  LYS551  ARG553  GLY616  TRP617  ASP618  TYR619  PRO620  LYS621  CYS622 
 ASP623  PHE694  ASN695  SER759  ASP760  ASP761  ALA762  ILE779  LEU786  VAL792 
 PHE793  MET794  SER795  GLU796  ALA797  LYS798  CYS799  TRP800  GLU811  SER814 

> <Gold.Protein.RotatedAtoms>
  150.9053  134.8468  159.7387 H   0  0  0  0  0  0  0  0  0  0  0  0  # atno 6907 bound_to 6896
  152.4915  134.4441  159.9563 H   0  0  0  0  0  0  0  0  0  0  0  0  # atno 6908 bound_to 6896
  151.4488  133.3584  159.2827 H   0  0  0  0  0  0  0  0  0  0  0  0  # atno 6909 bound_to 6896
  144.7959  139.7214  143.6202 H   0  0  0  0  0  0  0  0  0  0  0  0  # atno 7974 bound_to 7965
  154.5418  140.0744  156.8522 H   0  0  0  0  0  0  0  0  0  0  0  0  # atno 8008 bound_to 7997
  155.3167  140.3393  155.4224 H   0  0  0  0  0  0  0  0  0  0  0  0  # atno 8009 bound_to 7997
  156.1881  140.1676  156.8132 H   0  0  0  0  0  0  0  0  0  0  0  0  # atno 8010 bound_to 7997
  140.6221  143.2423  151.5455 H   0  0  0  0  0  0  0  0  0  0  0  0  # atno 10167 bound_to 10162
  157.0303  131.0257  151.2746 H   0  0  0  0  0  0  0  0  0  0  0  0  # atno 10718 bound_to 10713
  153.7337  135.6937  153.4983 H   0  0  0  0  0  0  0  0  0  0  0  0  # atno 10763 bound_to 10752
  153.2118  135.4400  155.0387 H   0  0  0  0  0  0  0  0  0  0  0  0  # atno 10764 bound_to 10752
  154.8244  135.3438  154.6865 H   0  0  0  0  0  0  0  0  0  0  0  0  # atno 10765 bound_to 10752
  140.0312  134.6009  155.9505 H   0  0  0  0  0  0  0  0  0  0  0  0  # atno 11005 bound_to 11000
  146.2226  139.5664  142.9608 LP  0  0  0  0  0  0  0  0  0  0  0  0  # atno 17320 bound_to 7965
  145.5676  141.0398  143.2192 LP  0  0  0  0  0  0  0  0  0  0  0  0  # atno 17321 bound_to 7965
  139.5448  144.2551  152.1420 LP  0  0  0  0  0  0  0  0  0  0  0  0  # atno 17342 bound_to 10162
  140.1774  144.4877  150.6546 LP  0  0  0  0  0  0  0  0  0  0  0  0  # atno 17343 bound_to 10162
  157.5182  130.7981  149.7780 LP  0  0  0  0  0  0  0  0  0  0  0  0  # atno 17370 bound_to 10713
  156.0072  130.3850  150.2391 LP  0  0  0  0  0  0  0  0  0  0  0  0  # atno 17371 bound_to 10713
  141.1832  133.6550  156.5106 LP  0  0  0  0  0  0  0  0  0  0  0  0  # atno 17394 bound_to 11000
  140.4223  134.7176  157.4896 LP  0  0  0  0  0  0  0  0  0  0  0  0  # atno 17395 bound_to 11000

$$$$
