AV-unprocessed.smi:1251|AV-procd|sdf|5259|dock5
  -GOLD-   22720 4373D 1   1.00000     0.00000
 Structure written by MMmdl.
 39 40  0  0  0  0  0  0  0  0  1 V2000
  151.6610  142.6249  158.4269 C   0  0  0  0  0  0  0  0  0  0  0  0
  151.3664  141.4441  157.4958 C   0  0  0  0  0  0  0  0  0  0  0  0
  150.3063  141.7793  156.4374 C   0  0  0  0  0  0  0  0  0  0  0  0
  149.9687  140.6099  155.5737 C   0  0  0  0  0  0  0  0  0  0  0  0
  150.8661  140.0187  154.7746 N   0  0  0  0  0  0  0  0  0  0  0  0
  150.3316  138.9374  154.0875 N   0  0  0  0  0  0  0  0  0  0  0  0
  149.0489  138.7328  154.3994 C   0  0  0  0  0  0  0  0  0  0  0  0
  148.3739  137.6564  153.7715 N   0  0  0  0  0  0  0  0  0  0  0  0
  147.2248  137.0712  154.1451 C   0  0  0  0  0  0  0  0  0  0  0  0
  146.5536  137.3847  155.1279 O   0  0  0  0  0  0  0  0  0  0  0  0
  146.8938  136.0801  153.3041 N   0  0  0  0  0  0  0  0  0  0  0  0
  145.7080  135.2303  153.4030 C   0  0  1  0  0  0  0  0  0  0  0  0
  144.4957  136.1121  153.7363 C   0  0  0  0  0  0  0  0  0  0  0  0
  145.4998  134.4402  152.0945 C   0  0  1  0  0  0  0  0  0  0  0  0
  146.6687  133.5415  151.6858 C   0  0  0  0  0  0  0  0  0  0  0  0
  145.9826  132.5427  150.7832 C   0  0  0  0  0  0  0  0  0  0  0  0
  144.6474  132.3420  151.4946 C   0  0  0  0  0  0  0  0  0  0  0  0
  144.3975  133.5445  152.2189 O   0  0  0  0  0  0  0  0  0  0  0  0
  148.3773  139.8598  155.5782 S   0  0  0  0  0  0  0  0  0  0  0  0
  152.4155  142.3570  159.1669 H   0  0  0  0  0  0  0  0  0  0  0  0
  150.7646  142.9368  158.9638 H   0  0  0  0  0  0  0  0  0  0  0  0
  152.0334  143.4836  157.8679 H   0  0  0  0  0  0  0  0  0  0  0  0
  152.2901  141.1376  157.0034 H   0  0  0  0  0  0  0  0  0  0  0  0
  151.0347  140.5912  158.0893 H   0  0  0  0  0  0  0  0  0  0  0  0
  149.3931  142.1299  156.9195 H   0  0  0  0  0  0  0  0  0  0  0  0
  150.6561  142.5943  155.8020 H   0  0  0  0  0  0  0  0  0  0  0  0
  148.8171  137.2927  152.9410 H   0  0  0  0  0  0  0  0  0  0  0  0
  147.5135  135.8948  152.5290 H   0  0  0  0  0  0  0  0  0  0  0  0
  145.8294  134.5175  154.2208 H   0  0  0  0  0  0  0  0  0  0  0  0
  143.5932  135.5123  153.8569 H   0  0  0  0  0  0  0  0  0  0  0  0
  144.3065  136.8422  152.9486 H   0  0  0  0  0  0  0  0  0  0  0  0
  144.6505  136.6580  154.6677 H   0  0  0  0  0  0  0  0  0  0  0  0
  145.2781  135.1251  151.2739 H   0  0  0  0  0  0  0  0  0  0  0  0
  147.4725  134.0845  151.1877 H   0  0  0  0  0  0  0  0  0  0  0  0
  147.0861  133.0325  152.5558 H   0  0  0  0  0  0  0  0  0  0  0  0
  145.8221  132.9803  149.7969 H   0  0  0  0  0  0  0  0  0  0  0  0
  146.5446  131.6167  150.6596 H   0  0  0  0  0  0  0  0  0  0  0  0
  143.8382  132.1240  150.7973 H   0  0  0  0  0  0  0  0  0  0  0  0
  144.7124  131.5182  152.2063 H   0  0  0  0  0  0  0  0  0  0  0  0
  1  2  1  0  0  0  0
  1 20  1  0  0  0  0
  1 21  1  0  0  0  0
  1 22  1  0  0  0  0
  2  3  1  0  0  0  0
  2 23  1  0  0  0  0
  2 24  1  0  0  0  0
  3  4  1  0  0  0  0
  3 25  1  0  0  0  0
  3 26  1  0  0  0  0
  4 19  1  0  0  0  0
  4  5  2  0  0  0  0
  5  6  1  0  0  0  0
  6  7  2  0  0  0  0
  7  8  1  0  0  0  0
  7 19  1  0  0  0  0
  8  9  1  0  0  0  0
  8 27  1  0  0  0  0
  9 10  2  0  0  0  0
  9 11  1  0  0  0  0
 11 12  1  0  0  0  0
 11 28  1  0  0  0  0
 12 13  1  0  0  0  0
 12 14  1  0  0  0  0
 12 29  1  0  0  0  0
 13 30  1  0  0  0  0
 13 31  1  0  0  0  0
 13 32  1  0  0  0  0
 14 18  1  0  0  0  0
 14 15  1  0  0  0  0
 14 33  1  0  0  0  0
 15 16  1  0  0  0  0
 15 34  1  0  0  0  0
 15 35  1  0  0  0  0
 16 17  1  0  0  0  0
 16 36  1  0  0  0  0
 16 37  1  0  0  0  0
 17 18  1  0  0  0  0
 17 38  1  0  0  0  0
 17 39  1  0  0  0  0
M  END
> <s_m_source_file>
AV-unprocessed.smi

> <i_m_source_file_index>
1251

> <i_lp_mmshare_version>
43012

> <i_f3d_flags>
0

> <s_epik_input>
W0NIM11bQ0gyXVtDSDJdYzFubmMoczEpW05IXUMoPU8pW05IXVtDQEhdKFtDSDNdKVtDQEBIXTJbQ0gyXVtDSDJdW0NIMl1PMg==

> <s_epik_cmdline>
J2VwaWtfcHl0aG9uJywgJy1waCcsICc3LjAnLCAnLXRuJywgJzgnLCAnLW1hJywgJzIwMCcsICctbWV0YWxfYmluZGluZycsICctaW1hZScsICc8aW5maWxlLm1hZT4nLCAnLW9tYWUnLCAnPG91dGZpbGUubWFlPic=

> <r_lp_tautomer_probability>
1

> <r_epik_Ionization_Penalty>
0.000503621

> <r_epik_Ionization_Penalty_Charging>
0

> <r_epik_Ionization_Penalty_Neutral>
0.000503621

> <r_epik_State_Penalty>
-0

> <r_epik_Charging_Adjusted_Penalty>
0

> <i_epik_Tot_Q>
0

> <i_epik_Tot_abs_Q>
0

> <r_epik_Metal_State_Penalty>
0.219912

> <b_epik_Metal_Only>
0

> <s_lp_Force_Field>
OPLS_2005

> <r_lp_Energy>
11.0911

> <b_lp_Chiralities_Consistent>
1

> <s_lp_Variant>
AV-unprocessed.smi:1251-4

> <Gold.Version>
5.8.1

> <Gold.Id.Protein>
6NUR|6NUR_protein|mol2

> <Gold.PLP.Fitness>
36.8923

> <Gold.PLP.PLP>
-28.4843

> <Gold.PLP.part.hbond>
-2.9420

> <Gold.PLP.part.metal>
0.0000

> <Gold.PLP.part.buried>
-4.2442

> <Gold.PLP.part.nonpolar>
-22.1233

> <Gold.PLP.part.repulsive>
0.5687

> <Gold.PLP.ligand.clash>
0.0000

> <Gold.PLP.ligand.torsion>
0.2758

> <Gold.PLP.Chemscore.Hbond>
2.9760

> <Gold.PLP.Chemscore.CHOScore>
0.0000

> <Gold.PLP.Chemscore.Metal>
0.0000

> <Gold.Chemscore.Hbonds>
donor molecule, donor type, donor heavy atom, donor atom, acceptor molecule, acceptor atom, score
      L1  H     8    27       P1  7948  0.93
      L1  H    11    28       P1  7948  0.93
      P1  H  7989  7998       L1     5  1.00

> <Gold.PLP.Chemscore.Internal.Correction>
0.0316

> <Gold.Rescore>
     Score         DG    S(hbond)    S(metal)    S(lipo)     H(rot)  DE(clash)    DE(int)     intcor
     13.67     -15.88       2.16        0.00      61.78       1.58       0.00       2.21       ----

> <Gold.Chemscore.Fitness>
13.6688

> <Gold.Chemscore.DG>
-15.8801

> <Gold.Chemscore.ZeroCoef>
-5.4800

> <Gold.Chemscore.Hbond>
2.1641

> <Gold.Chemscore.Metal>
0.0000

> <Gold.Chemscore.Lipo>
61.7757

> <Gold.Chemscore.Internal_Hbond>
0.0000

> <Gold.Chemscore.DEClash>
0.0009

> <Gold.Chemscore.DEInternal>
2.2104

> <Gold.Chemscore.Rot>
1.5843

> <Gold.Chemscore.Internal.Correction>
   9.000000E+99

> <Gold.Chemscore.Hbonds>
donor molecule, donor type, donor heavy atom, donor atom, acceptor molecule, acceptor atom, score
      L1  H     8    27       P1  7948  0.86
      L1  H    11    28       P1  7948  0.90
      P1  H  7989  7998       L1     5  0.30

> <Gold.Chemscore.Hbond.Weighted>
-7.2281

> <Gold.Chemscore.Metal.Weighted>
-0.0000

> <Gold.Chemscore.Lipo.Weighted>
-7.2278

> <Gold.Chemscore.Internal_Hbond.Weighted>
0.0000

> <Gold.Chemscore.DEClash.Weighted>
0.0009

> <Gold.Chemscore.DEInternal.Weighted>
2.2104

> <Gold.Chemscore.Rot.Weighted>
4.0558

> <Gold.Chemscore.Internal.Correction.Weighted>
   9.000000E+99

> <Gold.Protein.RotatedTorsions>
[ 6907 6896 6895 6894 ] final  -45.29 input  -60.11 | X-H torsion
[ 7974 7965 7964 7962 ] final  -38.98 input  175.53 | X-H torsion
[ 8008 7997 7996 7995 ] final   27.09 input   59.86 | X-H torsion
[ 10167 10162 10161 10158 ] final   79.56 input  -65.29 | X-H torsion
[ 10718 10713 10712 10709 ] final   53.32 input   66.30 | X-H torsion
[ 10763 10752 10751 10750 ] final  175.22 input  -60.55 | X-H torsion
[ 11005 11000 10999 10996 ] final  -92.46 input  -57.11 | X-H torsion

> <Gold.Protein.ActiveResidues>
 VAL166  LYS551  ARG553  GLY616  TRP617  ASP618  TYR619  PRO620  LYS621  CYS622 
 ASP623  PHE694  ASN695  SER759  ASP760  ASP761  ALA762  ILE779  LEU786  VAL792 
 PHE793  MET794  SER795  GLU796  ALA797  LYS798  CYS799  TRP800  GLU811  SER814 

> <Gold.Protein.RotatedAtoms>
  150.9235  134.8652  159.7504 H   0  0  0  0  0  0  0  0  0  0  0  0  # atno 6907 bound_to 6896
  152.5004  134.4183  159.9482 H   0  0  0  0  0  0  0  0  0  0  0  0  # atno 6908 bound_to 6896
  151.4216  133.3657  159.2792 H   0  0  0  0  0  0  0  0  0  0  0  0  # atno 6909 bound_to 6896
  146.0438  140.6574  142.9074 H   0  0  0  0  0  0  0  0  0  0  0  0  # atno 7974 bound_to 7965
  155.0375  140.3165  155.4736 H   0  0  0  0  0  0  0  0  0  0  0  0  # atno 8008 bound_to 7997
  156.2861  140.2169  156.5441 H   0  0  0  0  0  0  0  0  0  0  0  0  # atno 8009 bound_to 7997
  154.7318  140.0481  157.0721 H   0  0  0  0  0  0  0  0  0  0  0  0  # atno 8010 bound_to 7997
  139.9590  144.5974  150.8089 H   0  0  0  0  0  0  0  0  0  0  0  0  # atno 10167 bound_to 10162
  157.5156  130.8530  149.8491 H   0  0  0  0  0  0  0  0  0  0  0  0  # atno 10718 bound_to 10713
  154.4646  135.2769  155.1687 H   0  0  0  0  0  0  0  0  0  0  0  0  # atno 10763 bound_to 10752
  154.3461  135.6160  153.5623 H   0  0  0  0  0  0  0  0  0  0  0  0  # atno 10764 bound_to 10752
  152.9858  135.5800  154.5015 H   0  0  0  0  0  0  0  0  0  0  0  0  # atno 10765 bound_to 10752
  141.1521  133.7822  157.0022 H   0  0  0  0  0  0  0  0  0  0  0  0  # atno 11005 bound_to 11000
  144.7087  140.3956  143.7097 LP  0  0  0  0  0  0  0  0  0  0  0  0  # atno 17320 bound_to 7965
  145.6841  139.1624  143.2684 LP  0  0  0  0  0  0  0  0  0  0  0  0  # atno 17321 bound_to 7965
  140.7559  143.3055  151.2972 LP  0  0  0  0  0  0  0  0  0  0  0  0  # atno 17342 bound_to 10162
  139.6569  144.0260  152.2665 LP  0  0  0  0  0  0  0  0  0  0  0  0  # atno 17343 bound_to 10162
  156.0318  130.3762  150.1667 LP  0  0  0  0  0  0  0  0  0  0  0  0  # atno 17370 bound_to 10713
  156.9856  130.9877  151.3427 LP  0  0  0  0  0  0  0  0  0  0  0  0  # atno 17371 bound_to 10713
  140.0932  134.9580  157.1809 LP  0  0  0  0  0  0  0  0  0  0  0  0  # atno 17394 bound_to 11000
  140.3417  134.2696  155.7211 LP  0  0  0  0  0  0  0  0  0  0  0  0  # atno 17395 bound_to 11000

$$$$
