AV-unprocessed.smi:555|AV-procd|sdf|2911|dock8
  -GOLD-   2262023403D 1   1.00000     0.00000
 Structure written by MMmdl.
 50 51  0  0  0  0  0  0  0  0  2 V2000
  154.8302  140.0528  160.5848 C   0  0  0  0  0  0  0  0  0  0  0  0
  154.5268  139.9578  159.2040 O   0  0  0  0  0  0  0  0  0  0  0  0
  153.1798  139.5845  158.9692 C   0  0  0  0  0  0  0  0  0  0  0  0
  152.2550  140.6382  159.5968 C   0  0  0  0  0  0  0  0  0  0  0  0
  151.8097  141.6209  158.6039 N   0  0  0  0  0  0  0  0  0  0  0  0
  151.1885  141.0632  157.4995 N   0  0  0  0  0  0  0  0  0  0  0  0
  150.7598  141.8214  156.5426 C   0  0  0  0  0  0  0  0  0  0  0  0
  150.0934  141.2576  155.3361 C   0  0  0  0  0  0  0  0  0  0  0  0
  150.5266  140.2604  154.7571 O   0  0  0  0  0  0  0  0  0  0  0  0
  148.9889  141.9117  154.9337 N   0  0  0  0  0  0  0  0  0  0  0  0
  148.1559  141.5525  153.7876 C   0  0  2  0  0  0  0  0  0  0  0  0
  146.9917  142.5401  153.6401 C   0  0  0  0  0  0  0  0  0  0  0  0
  145.9574  142.3949  154.7717 C   0  0  0  0  0  0  0  0  0  0  0  0
  145.4311  141.0019  154.8843 N   0  3  2  0  0  0  0  0  0  0  0  0
  144.3579  140.8466  155.9215 C   0  0  0  0  0  0  0  0  0  0  0  0
  143.8028  139.4074  155.9767 C   0  0  0  0  0  0  0  0  0  0  0  0
  143.1748  141.8159  155.7108 C   0  0  0  0  0  0  0  0  0  0  0  0
  146.5484  140.0257  155.0498 C   0  0  0  0  0  0  0  0  0  0  0  0
  147.5861  140.1312  153.9181 C   0  0  0  0  0  0  0  0  0  0  0  0
  150.9183  143.2642  156.6080 C   0  0  0  0  0  0  0  0  0  0  0  0
  151.5302  143.7932  157.6905 C   0  0  0  0  0  0  0  0  0  0  0  0
  152.0304  142.9581  158.7838 C   0  0  0  0  0  0  0  0  0  0  0  0
  152.6020  143.4150  159.7730 O   0  0  0  0  0  0  0  0  0  0  0  0
  155.8741  140.3395  160.7115 H   0  0  0  0  0  0  0  0  0  0  0  0
  154.6803  139.0971  161.0889 H   0  0  0  0  0  0  0  0  0  0  0  0
  154.2126  140.8075  161.0734 H   0  0  0  0  0  0  0  0  0  0  0  0
  152.9962  139.5078  157.8963 H   0  0  0  0  0  0  0  0  0  0  0  0
  152.9847  138.6048  159.4086 H   0  0  0  0  0  0  0  0  0  0  0  0
  151.3893  140.1422  160.0395 H   0  0  0  0  0  0  0  0  0  0  0  0
  152.7603  141.1341  160.4274 H   0  0  0  0  0  0  0  0  0  0  0  0
  148.7109  142.7248  155.4645 H   0  0  0  0  0  0  0  0  0  0  0  0
  148.7702  141.6098  152.8873 H   0  0  0  0  0  0  0  0  0  0  0  0
  147.3685  143.5632  153.6082 H   0  0  0  0  0  0  0  0  0  0  0  0
  146.4974  142.3712  152.6824 H   0  0  0  0  0  0  0  0  0  0  0  0
  146.3913  142.6989  155.7256 H   0  0  0  0  0  0  0  0  0  0  0  0
  145.1551  143.0962  154.5505 H   0  0  0  0  0  0  0  0  0  0  0  0
  144.7974  141.0732  156.8944 H   0  0  0  0  0  0  0  0  0  0  0  0
  142.9419  139.3439  156.6431 H   0  0  0  0  0  0  0  0  0  0  0  0
  144.5294  138.6941  156.3633 H   0  0  0  0  0  0  0  0  0  0  0  0
  143.4795  139.0675  154.9922 H   0  0  0  0  0  0  0  0  0  0  0  0
  142.3576  141.5928  156.3974 H   0  0  0  0  0  0  0  0  0  0  0  0
  142.7778  141.7476  154.6972 H   0  0  0  0  0  0  0  0  0  0  0  0
  143.4499  142.8527  155.9037 H   0  0  0  0  0  0  0  0  0  0  0  0
  147.0268  140.1793  156.0185 H   0  0  0  0  0  0  0  0  0  0  0  0
  146.1767  139.0031  155.0412 H   0  0  0  0  0  0  0  0  0  0  0  0
  147.1153  139.8467  152.9761 H   0  0  0  0  0  0  0  0  0  0  0  0
  148.3891  139.4112  154.0801 H   0  0  0  0  0  0  0  0  0  0  0  0
  150.5582  143.9050  155.8159 H   0  0  0  0  0  0  0  0  0  0  0  0
  151.6550  144.8643  157.7527 H   0  0  0  0  0  0  0  0  0  0  0  0
  144.9985  140.7919  153.9958 H   0  0  0  0  0  0  0  0  0  0  0  0
  1  2  1  0  0  0  0
  1 24  1  0  0  0  0
  1 25  1  0  0  0  0
  1 26  1  0  0  0  0
  2  3  1  0  0  0  0
  3  4  1  0  0  0  0
  3 27  1  0  0  0  0
  3 28  1  0  0  0  0
  4  5  1  0  0  0  0
  4 29  1  0  0  0  0
  4 30  1  0  0  0  0
  5 22  1  0  0  0  0
  5  6  1  0  0  0  0
  6  7  2  0  0  0  0
  7  8  1  0  0  0  0
  7 20  1  0  0  0  0
  8  9  2  0  0  0  0
  8 10  1  0  0  0  0
 10 11  1  0  0  0  0
 10 31  1  0  0  0  0
 11 19  1  0  0  0  0
 11 12  1  0  0  0  0
 11 32  1  0  0  0  0
 12 13  1  0  0  0  0
 12 33  1  0  0  0  0
 12 34  1  0  0  0  0
 13 14  1  0  0  0  0
 13 35  1  0  0  0  0
 13 36  1  0  0  0  0
 14 15  1  0  0  0  0
 14 18  1  0  0  0  0
 14 50  1  0  0  0  0
 15 16  1  0  0  0  0
 15 17  1  0  0  0  0
 15 37  1  0  0  0  0
 16 38  1  0  0  0  0
 16 39  1  0  0  0  0
 16 40  1  0  0  0  0
 17 41  1  0  0  0  0
 17 42  1  0  0  0  0
 17 43  1  0  0  0  0
 18 19  1  0  0  0  0
 18 44  1  0  0  0  0
 18 45  1  0  0  0  0
 19 46  1  0  0  0  0
 19 47  1  0  0  0  0
 20 21  2  0  0  0  0
 20 48  1  0  0  0  0
 21 22  1  0  0  0  0
 21 49  1  0  0  0  0
 22 23  2  0  0  0  0
M  CHG  1  14   1
M  END
> <s_m_source_file>
AV-unprocessed.smi

> <i_m_source_file_index>
555

> <i_lp_mmshare_version>
43012

> <i_f3d_flags>
0

> <s_epik_input>
W0NIM11PW0NIMl1bQ0gyXW4xbmMoW2NIXVtjSF1jMT1PKUMoPU8pW05IXVtDSF0yW0NIMl1bQ0gyXU4oW0NIXShbQ0gzXSlbQ0gzXSlbQ0gyXVtDSDJdMg==

> <s_epik_cmdline>
J2VwaWtfcHl0aG9uJywgJy1waCcsICc3LjAnLCAnLXRuJywgJzgnLCAnLW1hJywgJzIwMCcsICctbWV0YWxfYmluZGluZycsICctaW1hZScsICc8aW5maWxlLm1hZT4nLCAnLW9tYWUnLCAnPG91dGZpbGUubWFlPic=

> <r_lp_tautomer_probability>
1

> <r_epik_Ionization_Penalty>
0.00560205

> <r_epik_Ionization_Penalty_Charging>
0.00559911

> <r_epik_Ionization_Penalty_Neutral>
2.94673e-06

> <r_epik_State_Penalty>
0.00410202

> <r_epik_Charging_Adjusted_Penalty>
0.00970113

> <i_epik_Tot_Q>
1

> <i_epik_Tot_abs_Q>
1

> <r_epik_Metal_State_Penalty>
-0

> <b_epik_Metal_Only>
0

> <s_lp_Force_Field>
OPLS_2005

> <r_lp_Energy>
41.3332

> <b_lp_Chiralities_Consistent>
1

> <s_lp_Variant>
AV-unprocessed.smi:555-2

> <Gold.Version>
5.8.1

> <Gold.Id.Protein>
6NUR|6NUR_protein|mol2

> <Gold.PLP.Fitness>
49.2284

> <Gold.PLP.PLP>
-36.3109

> <Gold.PLP.part.hbond>
-4.0000

> <Gold.PLP.part.metal>
0.0000

> <Gold.PLP.part.buried>
-2.1921

> <Gold.PLP.part.nonpolar>
-29.5561

> <Gold.PLP.part.repulsive>
0.2912

> <Gold.PLP.ligand.clash>
0.0000

> <Gold.PLP.ligand.torsion>
1.0062

> <Gold.PLP.Chemscore.Hbond>
4.9360

> <Gold.PLP.Chemscore.CHOScore>
0.0000

> <Gold.PLP.Chemscore.Metal>
0.0000

> <Gold.Chemscore.Hbonds>
donor molecule, donor type, donor heavy atom, donor atom, acceptor molecule, acceptor atom, score
      L1  H    10    31       P1  8028  0.91
      L1  H    14    50       P1 10175  2.00
      P1  H  7989  7998       L1     9  1.00
      P1  H  7997  8010       L1     2  0.98

> <Gold.PLP.Chemscore.Internal.Correction>
0.1218

> <Gold.Rescore>
     Score         DG    S(hbond)    S(metal)    S(lipo)     H(rot)  DE(clash)    DE(int)     intcor
     17.69     -21.29       3.30        0.00      79.04       1.74       1.82       1.78       ----

> <Gold.Chemscore.Fitness>
17.6884

> <Gold.Chemscore.DG>
-21.2881

> <Gold.Chemscore.ZeroCoef>
-5.4800

> <Gold.Chemscore.Hbond>
3.3009

> <Gold.Chemscore.Metal>
0.0000

> <Gold.Chemscore.Lipo>
79.0358

> <Gold.Chemscore.Internal_Hbond>
0.0000

> <Gold.Chemscore.DEClash>
1.8183

> <Gold.Chemscore.DEInternal>
1.7813

> <Gold.Chemscore.Rot>
1.7438

> <Gold.Chemscore.Internal.Correction>
   9.000000E+99

> <Gold.Chemscore.Hbonds>
donor molecule, donor type, donor heavy atom, donor atom, acceptor molecule, acceptor atom, score
      L1  H    10    31       P1  8028  0.86
      L1  H    14    50       P1 10175  0.90
      P1  H  7989  7998       L1     9  0.55
      P1  H  7997  8010       L1     2  0.32

> <Gold.Chemscore.Hbond.Weighted>
-11.0251

> <Gold.Chemscore.Metal.Weighted>
-0.0000

> <Gold.Chemscore.Lipo.Weighted>
-9.2472

> <Gold.Chemscore.Internal_Hbond.Weighted>
0.0000

> <Gold.Chemscore.DEClash.Weighted>
1.8183

> <Gold.Chemscore.DEInternal.Weighted>
1.7813

> <Gold.Chemscore.Rot.Weighted>
4.4642

> <Gold.Chemscore.Internal.Correction.Weighted>
   9.000000E+99

> <Gold.Protein.RotatedTorsions>
[ 6907 6896 6895 6894 ] final  140.22 input  -60.11 | X-H torsion
[ 7974 7965 7964 7962 ] final  -36.91 input  175.53 | X-H torsion
[ 8008 7997 7996 7995 ] final   -9.04 input   59.86 | X-H torsion
[ 10167 10162 10161 10158 ] final   69.22 input  -65.29 | X-H torsion
[ 10718 10713 10712 10709 ] final  158.60 input   66.30 | X-H torsion
[ 10763 10752 10751 10750 ] final  -70.08 input  -60.55 | X-H torsion
[ 11005 11000 10999 10996 ] final  -10.53 input  -57.11 | X-H torsion

> <Gold.Protein.ActiveResidues>
 VAL166  LYS551  ARG553  GLY616  TRP617  ASP618  TYR619  PRO620  LYS621  CYS622 
 ASP623  PHE694  ASN695  SER759  ASP760  ASP761  ALA762  ILE779  LEU786  VAL792 
 PHE793  MET794  SER795  GLU796  ALA797  LYS798  CYS799  TRP800  GLU811  SER814 

> <Gold.Protein.RotatedAtoms>
  152.2456  133.5172  159.5295 H   0  0  0  0  0  0  0  0  0  0  0  0  # atno 6907 bound_to 6896
  150.7078  134.1029  159.3981 H   0  0  0  0  0  0  0  0  0  0  0  0  # atno 6908 bound_to 6896
  151.8950  135.0401  160.0552 H   0  0  0  0  0  0  0  0  0  0  0  0  # atno 6909 bound_to 6896
  146.0620  140.6334  142.8992 H   0  0  0  0  0  0  0  0  0  0  0  0  # atno 7974 bound_to 7965
  154.5684  140.2365  155.8228 H   0  0  0  0  0  0  0  0  0  0  0  0  # atno 8008 bound_to 7997
  156.2087  140.3032  155.9642 H   0  0  0  0  0  0  0  0  0  0  0  0  # atno 8009 bound_to 7997
  155.2758  140.0420  157.3001 H   0  0  0  0  0  0  0  0  0  0  0  0  # atno 8010 bound_to 7997
  140.0702  144.5159  150.7233 H   0  0  0  0  0  0  0  0  0  0  0  0  # atno 10167 bound_to 10162
  157.1757  131.0620  151.2159 H   0  0  0  0  0  0  0  0  0  0  0  0  # atno 10718 bound_to 10713
  154.4126  135.6005  153.5961 H   0  0  0  0  0  0  0  0  0  0  0  0  # atno 10763 bound_to 10752
  152.9791  135.5933  154.4052 H   0  0  0  0  0  0  0  0  0  0  0  0  # atno 10764 bound_to 10752
  154.3866  135.2841  155.2158 H   0  0  0  0  0  0  0  0  0  0  0  0  # atno 10765 bound_to 10752
  140.7457  133.8633  155.9004 H   0  0  0  0  0  0  0  0  0  0  0  0  # atno 11005 bound_to 11000
  144.7180  140.4278  143.7029 LP  0  0  0  0  0  0  0  0  0  0  0  0  # atno 17320 bound_to 7965
  145.6543  139.1570  143.2844 LP  0  0  0  0  0  0  0  0  0  0  0  0  # atno 17321 bound_to 7965
  140.7129  143.2520  151.4524 LP  0  0  0  0  0  0  0  0  0  0  0  0  # atno 17342 bound_to 10162
  139.5841  144.1644  152.2006 LP  0  0  0  0  0  0  0  0  0  0  0  0  # atno 17343 bound_to 10162
  157.4001  130.7328  149.6760 LP  0  0  0  0  0  0  0  0  0  0  0  0  # atno 17370 bound_to 10713
  155.9731  130.4123  150.4025 LP  0  0  0  0  0  0  0  0  0  0  0  0  # atno 17371 bound_to 10713
  140.9796  134.1423  157.4506 LP  0  0  0  0  0  0  0  0  0  0  0  0  # atno 17394 bound_to 11000
  139.8797  135.0006  156.6020 LP  0  0  0  0  0  0  0  0  0  0  0  0  # atno 17395 bound_to 11000

$$$$
