AV-unprocessed.smi:2844|AV-procd|sdf|10939|dock4
  -GOLD-   2272015383D 1   1.00000     0.00000
 Structure written by MMmdl.
 38 40  0  0  0  0  0  0  0  0  1 V2000
  152.7526  143.0891  161.3965 C   0  0  0  0  0  0  0  0  0  0  0  0
  152.2196  142.6900  160.0317 C   0  0  0  0  0  0  0  0  0  0  0  0
  152.6795  141.4930  159.4381 C   0  0  0  0  0  0  0  0  0  0  0  0
  152.2139  141.0893  158.1676 C   0  0  0  0  0  0  0  0  0  0  0  0
  152.5263  139.9745  157.4088 N   0  0  0  0  0  0  0  0  0  0  0  0
  151.7757  140.1677  156.3278 C   0  0  0  0  0  0  0  0  0  0  0  0
  151.0135  141.2779  156.2966 N   0  0  0  0  0  0  0  0  0  0  0  0
  150.1253  141.7024  155.2295 C   0  0  0  0  0  0  0  0  0  0  0  0
  149.3378  140.5310  154.6132 C   0  0  2  0  0  0  0  0  0  0  0  0
  150.2021  139.7508  153.8080 O   0  0  0  0  0  0  0  0  0  0  0  0
  148.1433  141.0243  153.7740 C   0  0  0  0  0  0  0  0  0  0  0  0
  147.1434  141.7106  154.5732 N   0  0  0  0  0  0  0  0  0  0  0  0
  146.4212  142.8418  154.2453 C   0  0  0  0  0  0  0  0  0  0  0  0
  145.6195  143.0839  155.3187 C   0  0  0  0  0  0  0  0  0  0  0  0
  144.4852  144.3713  155.4907 Cl  0  0  0  0  0  0  0  0  0  0  0  0
  145.9010  142.0676  156.2668 C   0  0  0  0  0  0  0  0  0  0  0  0
  146.8268  141.2388  155.8066 N   0  0  0  0  0  0  0  0  0  0  0  0
  151.2681  141.9228  157.5017 C   0  0  0  0  0  0  0  0  0  0  0  0
  150.7993  143.1136  158.0839 C   0  0  0  0  0  0  0  0  0  0  0  0
  151.2756  143.5028  159.3536 C   0  0  0  0  0  0  0  0  0  0  0  0
  150.7678  144.7932  159.9724 C   0  0  0  0  0  0  0  0  0  0  0  0
  153.4504  142.3467  161.7844 H   0  0  0  0  0  0  0  0  0  0  0  0
  151.9368  143.1867  162.1131 H   0  0  0  0  0  0  0  0  0  0  0  0
  153.2780  144.0425  161.3364 H   0  0  0  0  0  0  0  0  0  0  0  0
  153.3984  140.8737  159.9542 H   0  0  0  0  0  0  0  0  0  0  0  0
  151.7792  139.4614  155.5105 H   0  0  0  0  0  0  0  0  0  0  0  0
  149.4383  142.4457  155.6356 H   0  0  0  0  0  0  0  0  0  0  0  0
  150.7158  142.2101  154.4652 H   0  0  0  0  0  0  0  0  0  0  0  0
  148.9657  139.8929  155.4161 H   0  0  0  0  0  0  0  0  0  0  0  0
  149.8030  139.6398  152.9583 H   0  0  0  0  0  0  0  0  0  0  0  0
  148.4880  141.7153  153.0037 H   0  0  0  0  0  0  0  0  0  0  0  0
  147.6707  140.1903  153.2522 H   0  0  0  0  0  0  0  0  0  0  0  0
  146.5388  143.3588  153.3044 H   0  0  0  0  0  0  0  0  0  0  0  0
  145.4768  141.9063  157.2470 H   0  0  0  0  0  0  0  0  0  0  0  0
  150.0811  143.7232  157.5557 H   0  0  0  0  0  0  0  0  0  0  0  0
  150.0637  145.3006  159.3127 H   0  0  0  0  0  0  0  0  0  0  0  0
  151.5955  145.4756  160.1663 H   0  0  0  0  0  0  0  0  0  0  0  0
  150.2573  144.5904  160.9141 H   0  0  0  0  0  0  0  0  0  0  0  0
  1  2  1  0  0  0  0
  1 22  1  0  0  0  0
  1 23  1  0  0  0  0
  1 24  1  0  0  0  0
  2 20  1  0  0  0  0
  2  3  2  0  0  0  0
  3  4  1  0  0  0  0
  3 25  1  0  0  0  0
  4 18  2  0  0  0  0
  4  5  1  0  0  0  0
  5  6  2  0  0  0  0
  6  7  1  0  0  0  0
  6 26  1  0  0  0  0
  7  8  1  0  0  0  0
  7 18  1  0  0  0  0
  8  9  1  0  0  0  0
  8 27  1  0  0  0  0
  8 28  1  0  0  0  0
  9 10  1  0  0  0  0
  9 11  1  0  0  0  0
  9 29  1  0  0  0  0
 10 30  1  0  0  0  0
 11 12  1  0  0  0  0
 11 31  1  0  0  0  0
 11 32  1  0  0  0  0
 12 17  1  0  0  0  0
 12 13  1  0  0  0  0
 13 14  2  0  0  0  0
 13 33  1  0  0  0  0
 14 15  1  0  0  0  0
 14 16  1  0  0  0  0
 16 17  2  0  0  0  0
 16 34  1  0  0  0  0
 18 19  1  0  0  0  0
 19 20  2  0  0  0  0
 19 35  1  0  0  0  0
 20 21  1  0  0  0  0
 21 36  1  0  0  0  0
 21 37  1  0  0  0  0
 21 38  1  0  0  0  0
M  END
> <s_m_source_file>
AV-unprocessed.smi

> <i_m_source_file_index>
2844

> <i_lp_mmshare_version>
43012

> <i_f3d_flags>
0

> <s_epik_input>
W0NIM11jKFtjSF0xKWMoW0NIM10pW2NIXWMoYzEyKW4oW2NIXW4yKVtDSDJdW0NASF0oW09IXSlbQ0gyXW4zW2NIXWMoQ2wpW2NIXW4z

> <s_epik_cmdline>
J2VwaWtfcHl0aG9uJywgJy1waCcsICc3LjAnLCAnLXRuJywgJzgnLCAnLW1hJywgJzIwMCcsICctbWV0YWxfYmluZGluZycsICctaW1hZScsICc8aW5maWxlLm1hZT4nLCAnLW9tYWUnLCAnPG91dGZpbGUubWFlPic=

> <r_lp_tautomer_probability>
1

> <r_epik_Ionization_Penalty>
0.1021

> <r_epik_Ionization_Penalty_Charging>
0

> <r_epik_Ionization_Penalty_Neutral>
0.1021

> <r_epik_State_Penalty>
0.0920694

> <r_epik_Charging_Adjusted_Penalty>
0.0920694

> <i_epik_Tot_Q>
0

> <i_epik_Tot_abs_Q>
0

> <r_epik_Metal_State_Penalty>
0.0784292

> <b_epik_Metal_Only>
0

> <s_lp_Force_Field>
OPLS_2005

> <r_lp_Energy>
10.8301

> <b_lp_Chiralities_Consistent>
1

> <s_lp_Variant>
AV-unprocessed.smi:2844-1

> <Gold.Version>
5.8.1

> <Gold.Id.Protein>
6NUR|6NUR_protein|mol2

> <Gold.PLP.Fitness>
55.6915

> <Gold.PLP.PLP>
-48.2684

> <Gold.PLP.part.hbond>
-3.0000

> <Gold.PLP.part.metal>
0.0000

> <Gold.PLP.part.buried>
-5.2135

> <Gold.PLP.part.nonpolar>
-39.8095

> <Gold.PLP.part.repulsive>
0.0655

> <Gold.PLP.ligand.clash>
0.0033

> <Gold.PLP.ligand.torsion>
0.6844

> <Gold.PLP.Chemscore.Hbond>
2.9280

> <Gold.PLP.Chemscore.CHOScore>
0.0000

> <Gold.PLP.Chemscore.Metal>
0.0000

> <Gold.Chemscore.Hbonds>
donor molecule, donor type, donor heavy atom, donor atom, acceptor molecule, acceptor atom, score
      L1  H    10    30       P1  7957  1.00
      P1  H  7989  7998       L1    10  0.93
      P1  H  7997  8010       L1     5  1.00

> <Gold.PLP.Chemscore.Internal.Correction>
0.0112

> <Gold.Rescore>
     Score         DG    S(hbond)    S(metal)    S(lipo)     H(rot)  DE(clash)    DE(int)     intcor
     19.11     -20.40       2.25        0.00     110.37       2.15       0.66       0.62       ----

> <Gold.Chemscore.Fitness>
19.1146

> <Gold.Chemscore.DG>
-20.3980

> <Gold.Chemscore.ZeroCoef>
-5.4800

> <Gold.Chemscore.Hbond>
2.2508

> <Gold.Chemscore.Metal>
0.0000

> <Gold.Chemscore.Lipo>
110.3682

> <Gold.Chemscore.Internal_Hbond>
0.0000

> <Gold.Chemscore.DEClash>
0.6609

> <Gold.Chemscore.DEInternal>
0.6225

> <Gold.Chemscore.Rot>
2.1534

> <Gold.Chemscore.Internal.Correction>
   9.000000E+99

> <Gold.Chemscore.Hbonds>
donor molecule, donor type, donor heavy atom, donor atom, acceptor molecule, acceptor atom, score
      L1  H    10    30       P1  7957  0.97
      P1  H  7989  7998       L1    10  0.16
      P1  H  7997  8010       L1     5  0.26

> <Gold.Chemscore.Hbond.Weighted>
-7.5176

> <Gold.Chemscore.Metal.Weighted>
-0.0000

> <Gold.Chemscore.Lipo.Weighted>
-12.9131

> <Gold.Chemscore.Internal_Hbond.Weighted>
0.0000

> <Gold.Chemscore.DEClash.Weighted>
0.6609

> <Gold.Chemscore.DEInternal.Weighted>
0.6225

> <Gold.Chemscore.Rot.Weighted>
5.5127

> <Gold.Chemscore.Internal.Correction.Weighted>
   9.000000E+99

> <Gold.Protein.RotatedTorsions>
[ 6907 6896 6895 6894 ] final -179.88 input  -60.11 | X-H torsion
[ 7974 7965 7964 7962 ] final  167.16 input  175.53 | X-H torsion
[ 8008 7997 7996 7995 ] final   59.29 input   59.86 | X-H torsion
[ 10167 10162 10161 10158 ] final   11.60 input  -65.29 | X-H torsion
[ 10718 10713 10712 10709 ] final  -13.55 input   66.30 | X-H torsion
[ 10763 10752 10751 10750 ] final   35.01 input  -60.55 | X-H torsion
[ 11005 11000 10999 10996 ] final   33.06 input  -57.11 | X-H torsion

> <Gold.Protein.ActiveResidues>
 VAL166  LYS551  ARG553  GLY616  TRP617  ASP618  TYR619  PRO620  LYS621  CYS622 
 ASP623  PHE694  ASN695  SER759  ASP760  ASP761  ALA762  ILE779  LEU786  VAL792 
 PHE793  MET794  SER795  GLU796  ALA797  LYS798  CYS799  TRP800  GLU811  SER814 

> <Gold.Protein.RotatedAtoms>
  151.6606  133.3317  159.3172 H   0  0  0  0  0  0  0  0  0  0  0  0  # atno 6907 bound_to 6896
  150.7915  134.6947  159.6526 H   0  0  0  0  0  0  0  0  0  0  0  0  # atno 6908 bound_to 6896
  152.3996  134.6313  160.0127 H   0  0  0  0  0  0  0  0  0  0  0  0  # atno 6909 bound_to 6896
  144.7435  139.8720  143.6389 H   0  0  0  0  0  0  0  0  0  0  0  0  # atno 7974 bound_to 7965
  155.5638  140.3488  155.4498 H   0  0  0  0  0  0  0  0  0  0  0  0  # atno 8008 bound_to 7997
  156.0494  140.1314  157.0092 H   0  0  0  0  0  0  0  0  0  0  0  0  # atno 8009 bound_to 7997
  154.4427  140.1008  156.6339 H   0  0  0  0  0  0  0  0  0  0  0  0  # atno 8010 bound_to 7997
  140.6122  143.8384  150.7078 H   0  0  0  0  0  0  0  0  0  0  0  0  # atno 10167 bound_to 10162
  156.6286  130.4895  149.6137 H   0  0  0  0  0  0  0  0  0  0  0  0  # atno 10718 bound_to 10713
  153.0138  135.6345  154.1759 H   0  0  0  0  0  0  0  0  0  0  0  0  # atno 10763 bound_to 10752
  154.1500  135.2829  155.3139 H   0  0  0  0  0  0  0  0  0  0  0  0  # atno 10764 bound_to 10752
  154.6061  135.5572  153.7485 H   0  0  0  0  0  0  0  0  0  0  0  0  # atno 10765 bound_to 10752
  140.2670  134.3126  155.7839 H   0  0  0  0  0  0  0  0  0  0  0  0  # atno 11005 bound_to 11000
  146.1273  139.4302  143.0190 LP  0  0  0  0  0  0  0  0  0  0  0  0  # atno 17320 bound_to 7965
  145.7215  141.0073  143.1400 LP  0  0  0  0  0  0  0  0  0  0  0  0  # atno 17321 bound_to 7965
  140.1955  143.4001  152.1831 LP  0  0  0  0  0  0  0  0  0  0  0  0  # atno 17342 bound_to 10162
  139.5370  144.7219  151.4861 LP  0  0  0  0  0  0  0  0  0  0  0  0  # atno 17343 bound_to 10162
  156.2253  130.6762  151.1409 LP  0  0  0  0  0  0  0  0  0  0  0  0  # atno 17370 bound_to 10713
  157.7206  131.0683  150.6149 LP  0  0  0  0  0  0  0  0  0  0  0  0  # atno 17371 bound_to 10713
  141.2183  133.7444  156.9275 LP  0  0  0  0  0  0  0  0  0  0  0  0  # atno 17394 bound_to 11000
  140.1410  134.9294  157.2466 LP  0  0  0  0  0  0  0  0  0  0  0  0  # atno 17395 bound_to 11000

$$$$
