AV-unprocessed.smi:778|AV-procd|sdf|3703|dock9
  -GOLD-   22720 1123D 1   1.00000     0.00000
 Structure written by MMmdl.
 40 41  0  0  0  0  0  0  0  0  1 V2000
  149.7430  133.9326  154.2088 N   0  0  0  0  0  0  0  0  0  0  0  0
  149.9904  134.8641  154.8487 C   0  0  0  0  0  0  0  0  0  0  0  0
  150.3019  136.0369  155.6543 C   0  0  0  0  0  0  0  0  0  0  0  0
  150.0360  136.0426  157.0407 C   0  0  0  0  0  0  0  0  0  0  0  0
  150.3126  137.1125  157.8170 N   0  0  0  0  0  0  0  0  0  0  0  0
  150.8542  138.1690  157.2051 C   0  0  0  0  0  0  0  0  0  0  0  0
  151.2303  139.6056  158.1958 S   0  0  0  0  0  0  0  0  0  0  0  0
  150.5810  140.9753  157.1890 C   0  0  0  0  0  0  0  0  0  0  0  0
  150.6699  142.3079  157.9373 C   0  0  0  0  0  0  0  0  0  0  0  0
  151.2082  142.0635  159.2279 O   0  0  0  0  0  0  0  0  0  0  0  0
  152.6182  142.2182  159.3394 C   0  0  0  0  0  0  0  0  0  0  0  0
  153.1757  141.8350  160.7291 C   0  0  0  0  0  0  0  0  0  0  0  0
  152.5015  142.5190  161.9280 C   0  0  0  0  0  0  0  0  0  0  0  0
  152.5588  144.0551  161.9100 C   0  0  0  0  0  0  0  0  0  0  0  0
  151.5893  144.6729  160.8918 C   0  0  0  0  0  0  0  0  0  0  0  0
  152.1244  144.7957  159.4535 C   0  0  0  0  0  0  0  0  0  0  0  0
  153.0080  143.6486  158.9216 C   0  0  0  0  0  0  0  0  0  0  0  0
  151.1484  138.2833  155.9081 N   0  0  0  0  0  0  0  0  0  0  0  0
  150.8760  137.2191  155.1219 C   0  0  0  0  0  0  0  0  0  0  0  0
  151.1918  137.3563  153.7689 N   0  0  0  0  0  0  0  0  0  0  0  0
  149.5994  135.1865  157.5345 H   0  0  0  0  0  0  0  0  0  0  0  0
  151.1525  141.0367  156.2625 H   0  0  0  0  0  0  0  0  0  0  0  0
  149.5440  140.7699  156.9212 H   0  0  0  0  0  0  0  0  0  0  0  0
  151.2921  143.0018  157.3724 H   0  0  0  0  0  0  0  0  0  0  0  0
  149.6773  142.7515  158.0277 H   0  0  0  0  0  0  0  0  0  0  0  0
  153.0891  141.5522  158.6141 H   0  0  0  0  0  0  0  0  0  0  0  0
  153.1027  140.7561  160.8638 H   0  0  0  0  0  0  0  0  0  0  0  0
  154.2450  142.0474  160.7548 H   0  0  0  0  0  0  0  0  0  0  0  0
  151.4657  142.1866  162.0086 H   0  0  0  0  0  0  0  0  0  0  0  0
  152.9925  142.1669  162.8357 H   0  0  0  0  0  0  0  0  0  0  0  0
  152.2718  144.4068  162.9014 H   0  0  0  0  0  0  0  0  0  0  0  0
  153.5772  144.4112  161.7500 H   0  0  0  0  0  0  0  0  0  0  0  0
  150.6575  144.1060  160.8899 H   0  0  0  0  0  0  0  0  0  0  0  0
  151.3113  145.6716  161.2302 H   0  0  0  0  0  0  0  0  0  0  0  0
  151.2685  144.9188  158.7890 H   0  0  0  0  0  0  0  0  0  0  0  0
  152.6921  145.7226  159.3660 H   0  0  0  0  0  0  0  0  0  0  0  0
  154.0444  143.8314  159.2070 H   0  0  0  0  0  0  0  0  0  0  0  0
  153.0008  143.7073  157.8326 H   0  0  0  0  0  0  0  0  0  0  0  0
  151.0228  136.6122  153.1075 H   0  0  0  0  0  0  0  0  0  0  0  0
  151.6123  138.2021  153.4111 H   0  0  0  0  0  0  0  0  0  0  0  0
  1  2  3  0  0  0  0
  2  3  1  0  0  0  0
  3 19  1  0  0  0  0
  3  4  2  0  0  0  0
  4  5  1  0  0  0  0
  4 21  1  0  0  0  0
  5  6  2  0  0  0  0
  6  7  1  0  0  0  0
  6 18  1  0  0  0  0
  7  8  1  0  0  0  0
  8  9  1  0  0  0  0
  8 22  1  0  0  0  0
  8 23  1  0  0  0  0
  9 10  1  0  0  0  0
  9 24  1  0  0  0  0
  9 25  1  0  0  0  0
 10 11  1  0  0  0  0
 11 17  1  0  0  0  0
 11 12  1  0  0  0  0
 11 26  1  0  0  0  0
 12 13  1  0  0  0  0
 12 27  1  0  0  0  0
 12 28  1  0  0  0  0
 13 14  1  0  0  0  0
 13 29  1  0  0  0  0
 13 30  1  0  0  0  0
 14 15  1  0  0  0  0
 14 31  1  0  0  0  0
 14 32  1  0  0  0  0
 15 16  1  0  0  0  0
 15 33  1  0  0  0  0
 15 34  1  0  0  0  0
 16 17  1  0  0  0  0
 16 35  1  0  0  0  0
 16 36  1  0  0  0  0
 17 37  1  0  0  0  0
 17 38  1  0  0  0  0
 18 19  2  0  0  0  0
 19 20  1  0  0  0  0
 20 39  1  0  0  0  0
 20 40  1  0  0  0  0
M  END
> <s_m_source_file>
AV-unprocessed.smi

> <i_m_source_file_index>
778

> <i_lp_mmshare_version>
43012

> <i_f3d_flags>
0

> <s_epik_input>
TiNDYzFbY0hdbmMobmMxW05IMl0pU1tDSDJdW0NIMl1PW0NIXTJbQ0gyXVtDSDJdW0NIMl1bQ0gyXVtDSDJdW0NIMl0y

> <s_epik_cmdline>
J2VwaWtfcHl0aG9uJywgJy1waCcsICc3LjAnLCAnLXRuJywgJzgnLCAnLW1hJywgJzIwMCcsICctbWV0YWxfYmluZGluZycsICctaW1hZScsICc8aW5maWxlLm1hZT4nLCAnLW9tYWUnLCAnPG91dGZpbGUubWFlPic=

> <r_lp_tautomer_probability>
1

> <r_epik_Ionization_Penalty>
5.1519e-05

> <r_epik_Ionization_Penalty_Charging>
0

> <r_epik_Ionization_Penalty_Neutral>
5.1519e-05

> <r_epik_State_Penalty>
-0

> <r_epik_Charging_Adjusted_Penalty>
0

> <i_epik_Tot_Q>
0

> <i_epik_Tot_abs_Q>
0

> <r_epik_Metal_State_Penalty>
-0

> <b_epik_Metal_Only>
0

> <s_lp_Force_Field>
OPLS_2005

> <r_lp_Energy>
14.4265

> <b_lp_Chiralities_Consistent>
1

> <s_lp_Variant>
AV-unprocessed.smi:778-1

> <Gold.Version>
5.8.1

> <Gold.Id.Protein>
6NUR|6NUR_protein|mol2

> <Gold.PLP.Fitness>
42.7460

> <Gold.PLP.PLP>
-41.3765

> <Gold.PLP.part.hbond>
-1.7192

> <Gold.PLP.part.metal>
0.0000

> <Gold.PLP.part.buried>
-5.5966

> <Gold.PLP.part.nonpolar>
-33.7189

> <Gold.PLP.part.repulsive>
0.2705

> <Gold.PLP.ligand.clash>
0.0000

> <Gold.PLP.ligand.torsion>
0.7855

> <Gold.PLP.Chemscore.Hbond>
0.9760

> <Gold.PLP.Chemscore.CHOScore>
0.0000

> <Gold.PLP.Chemscore.Metal>
0.0000

> <Gold.Chemscore.Hbonds>
donor molecule, donor type, donor heavy atom, donor atom, acceptor molecule, acceptor atom, score
      L1  H    20    39       P1  7949  0.99

> <Gold.PLP.Chemscore.Internal.Correction>
0.0125

> <Gold.Rescore>
     Score         DG    S(hbond)    S(metal)    S(lipo)     H(rot)  DE(clash)    DE(int)     intcor
     13.63     -14.54       0.71        0.00     106.44       2.26       0.13       0.78       ----

> <Gold.Chemscore.Fitness>
13.6280

> <Gold.Chemscore.DG>
-14.5398

> <Gold.Chemscore.ZeroCoef>
-5.4800

> <Gold.Chemscore.Hbond>
0.7133

> <Gold.Chemscore.Metal>
0.0000

> <Gold.Chemscore.Lipo>
106.4378

> <Gold.Chemscore.Internal_Hbond>
0.0000

> <Gold.Chemscore.DEClash>
0.1326

> <Gold.Chemscore.DEInternal>
0.7792

> <Gold.Chemscore.Rot>
2.2562

> <Gold.Chemscore.Internal.Correction>
   9.000000E+99

> <Gold.Chemscore.Hbonds>
donor molecule, donor type, donor heavy atom, donor atom, acceptor molecule, acceptor atom, score
      L1  H    20    39       P1  7949  0.24

> <Gold.Chemscore.Hbond.Weighted>
-2.3825

> <Gold.Chemscore.Metal.Weighted>
-0.0000

> <Gold.Chemscore.Lipo.Weighted>
-12.4532

> <Gold.Chemscore.Internal_Hbond.Weighted>
0.0000

> <Gold.Chemscore.DEClash.Weighted>
0.1326

> <Gold.Chemscore.DEInternal.Weighted>
0.7792

> <Gold.Chemscore.Rot.Weighted>
5.7759

> <Gold.Chemscore.Internal.Correction.Weighted>
   9.000000E+99

> <Gold.Protein.RotatedTorsions>
[ 6907 6896 6895 6894 ] final   -2.72 input  -60.11 | X-H torsion
[ 7974 7965 7964 7962 ] final -153.21 input  175.53 | X-H torsion
[ 8008 7997 7996 7995 ] final -169.76 input   59.86 | X-H torsion
[ 10167 10162 10161 10158 ] final -103.73 input  -65.29 | X-H torsion
[ 10718 10713 10712 10709 ] final -144.95 input   66.30 | X-H torsion
[ 10763 10752 10751 10750 ] final   95.38 input  -60.55 | X-H torsion
[ 11005 11000 10999 10996 ] final -154.86 input  -57.11 | X-H torsion

> <Gold.Protein.ActiveResidues>
 VAL166  LYS551  ARG553  GLY616  TRP617  ASP618  TYR619  PRO620  LYS621  CYS622 
 ASP623  PHE694  ASN695  SER759  ASP760  ASP761  ALA762  ILE779  LEU786  VAL792 
 PHE793  MET794  SER795  GLU796  ALA797  LYS798  CYS799  TRP800  GLU811  SER814 

> <Gold.Protein.RotatedAtoms>
  151.5253  135.1068  159.9888 H   0  0  0  0  0  0  0  0  0  0  0  0  # atno 6907 bound_to 6896
  152.4602  133.7803  159.6857 H   0  0  0  0  0  0  0  0  0  0  0  0  # atno 6908 bound_to 6896
  150.8561  133.7648  159.3033 H   0  0  0  0  0  0  0  0  0  0  0  0  # atno 6909 bound_to 6896
  144.7752  140.4556  143.5878 H   0  0  0  0  0  0  0  0  0  0  0  0  # atno 7974 bound_to 7965
  155.9093  140.1054  157.1291 H   0  0  0  0  0  0  0  0  0  0  0  0  # atno 8008 bound_to 7997
  154.4037  140.1277  156.4601 H   0  0  0  0  0  0  0  0  0  0  0  0  # atno 8009 bound_to 7997
  155.7329  140.3468  155.5070 H   0  0  0  0  0  0  0  0  0  0  0  0  # atno 8010 bound_to 7997
  140.2169  143.3705  152.1003 H   0  0  0  0  0  0  0  0  0  0  0  0  # atno 10167 bound_to 10162
  156.3764  130.7814  151.2001 H   0  0  0  0  0  0  0  0  0  0  0  0  # atno 10718 bound_to 10713
  153.2525  135.4256  155.0812 H   0  0  0  0  0  0  0  0  0  0  0  0  # atno 10763 bound_to 10752
  154.8387  135.3429  154.6493 H   0  0  0  0  0  0  0  0  0  0  0  0  # atno 10764 bound_to 10752
  153.6914  135.7033  153.5146 H   0  0  0  0  0  0  0  0  0  0  0  0  # atno 10765 bound_to 10752
  140.6928  134.4023  157.5217 H   0  0  0  0  0  0  0  0  0  0  0  0  # atno 11005 bound_to 11000
  145.6206  139.1523  143.3025 LP  0  0  0  0  0  0  0  0  0  0  0  0  # atno 17320 bound_to 7965
  146.1927  140.6316  142.9138 LP  0  0  0  0  0  0  0  0  0  0  0  0  # atno 17321 bound_to 7965
  139.5159  144.6969  151.5604 LP  0  0  0  0  0  0  0  0  0  0  0  0  # atno 17342 bound_to 10162
  140.6283  143.9125  150.6584 LP  0  0  0  0  0  0  0  0  0  0  0  0  # atno 17343 bound_to 10162
  157.7488  131.0357  150.4375 LP  0  0  0  0  0  0  0  0  0  0  0  0  # atno 17370 bound_to 10713
  156.4611  130.4032  149.6575 LP  0  0  0  0  0  0  0  0  0  0  0  0  # atno 17371 bound_to 10713
  139.8918  134.8769  156.2299 LP  0  0  0  0  0  0  0  0  0  0  0  0  # atno 17394 bound_to 11000
  141.0227  133.7032  156.1296 LP  0  0  0  0  0  0  0  0  0  0  0  0  # atno 17395 bound_to 11000

$$$$
