AV-unprocessed.smi:492|AV-procd|sdf|2709|dock5
  -GOLD-   2262023153D 1   1.00000     0.00000
 Structure written by MMmdl.
 46 48  0  0  0  0  0  0  0  0  1 V2000
  144.0564  132.4298  149.5413 C   0  0  0  0  0  0  0  0  0  0  0  0
  144.5467  131.5051  150.5014 O   0  0  0  0  0  0  0  0  0  0  0  0
  145.5429  131.9252  151.3567 C   0  0  0  0  0  0  0  0  0  0  0  0
  146.0468  133.2493  151.4031 C   0  0  0  0  0  0  0  0  0  0  0  0
  147.0677  133.5932  152.3107 C   0  0  0  0  0  0  0  0  0  0  0  0
  147.5975  132.6262  153.1885 C   0  0  0  0  0  0  0  0  0  0  0  0
  148.7089  133.0039  154.1504 C   0  0  0  0  0  0  0  0  0  0  0  0
  148.2089  133.6044  155.3336 O   0  0  0  0  0  0  0  0  0  0  0  0
  148.1789  132.7171  156.4401 C   0  0  0  0  0  0  0  0  0  0  0  0
  148.2599  133.5172  157.7496 C   0  0  1  0  0  0  0  0  0  0  0  0
  149.6076  133.8734  157.9850 O   0  0  0  0  0  0  0  0  0  0  0  0
  147.3249  134.7449  157.7801 C   0  0  0  0  0  0  0  0  0  0  0  0
  147.4477  135.5183  159.0079 N   0  0  0  0  0  0  0  0  0  0  0  0
  147.8036  136.8193  159.1465 C   0  0  0  0  0  0  0  0  0  0  0  0
  148.1419  137.6768  157.9685 C   0  0  0  0  0  0  0  0  0  0  0  0
  147.8357  137.2834  160.3960 N   0  0  0  0  0  0  0  0  0  0  0  0
  147.4684  136.1781  161.1392 C   0  0  0  0  0  0  0  0  0  0  0  0
  147.3153  136.0194  162.5351 C   0  0  0  0  0  0  0  0  0  0  0  0
  146.9265  134.7751  163.0738 C   0  0  0  0  0  0  0  0  0  0  0  0
  146.6850  133.6741  162.2265 C   0  0  0  0  0  0  0  0  0  0  0  0
  146.8313  133.8109  160.8328 C   0  0  0  0  0  0  0  0  0  0  0  0
  147.2200  135.0549  160.3002 C   0  0  0  0  0  0  0  0  0  0  0  0
  147.1064  131.3051  153.1393 C   0  0  0  0  0  0  0  0  0  0  0  0
  146.0850  130.9626  152.2328 C   0  0  0  0  0  0  0  0  0  0  0  0
  143.2768  131.9527  148.9477 H   0  0  0  0  0  0  0  0  0  0  0  0
  144.8437  132.7483  148.8568 H   0  0  0  0  0  0  0  0  0  0  0  0
  143.6163  133.3061  150.0191 H   0  0  0  0  0  0  0  0  0  0  0  0
  145.6672  134.0215  150.7516 H   0  0  0  0  0  0  0  0  0  0  0  0
  147.4420  134.6062  152.3309 H   0  0  0  0  0  0  0  0  0  0  0  0
  149.2710  132.1027  154.3989 H   0  0  0  0  0  0  0  0  0  0  0  0
  149.3955  133.6917  153.6542 H   0  0  0  0  0  0  0  0  0  0  0  0
  147.2440  132.1548  156.4202 H   0  0  0  0  0  0  0  0  0  0  0  0
  148.9927  131.9926  156.3786 H   0  0  0  0  0  0  0  0  0  0  0  0
  147.9823  132.8476  158.5635 H   0  0  0  0  0  0  0  0  0  0  0  0
  150.0236  134.0310  157.1511 H   0  0  0  0  0  0  0  0  0  0  0  0
  147.5382  135.4077  156.9410 H   0  0  0  0  0  0  0  0  0  0  0  0
  146.2872  134.4343  157.6587 H   0  0  0  0  0  0  0  0  0  0  0  0
  148.4282  138.6773  158.2943 H   0  0  0  0  0  0  0  0  0  0  0  0
  147.2825  137.7674  157.3049 H   0  0  0  0  0  0  0  0  0  0  0  0
  148.9761  137.2476  157.4134 H   0  0  0  0  0  0  0  0  0  0  0  0
  147.4972  136.8572  163.1918 H   0  0  0  0  0  0  0  0  0  0  0  0
  146.8123  134.6655  164.1422 H   0  0  0  0  0  0  0  0  0  0  0  0
  146.3866  132.7247  162.6465 H   0  0  0  0  0  0  0  0  0  0  0  0
  146.6449  132.9703  160.1813 H   0  0  0  0  0  0  0  0  0  0  0  0
  147.5089  130.5480  153.7963 H   0  0  0  0  0  0  0  0  0  0  0  0
  145.7145  129.9482  152.2083 H   0  0  0  0  0  0  0  0  0  0  0  0
  1  2  1  0  0  0  0
  1 25  1  0  0  0  0
  1 26  1  0  0  0  0
  1 27  1  0  0  0  0
  2  3  1  0  0  0  0
  3 24  1  0  0  0  0
  3  4  2  0  0  0  0
  4  5  1  0  0  0  0
  4 28  1  0  0  0  0
  5  6  2  0  0  0  0
  5 29  1  0  0  0  0
  6  7  1  0  0  0  0
  6 23  1  0  0  0  0
  7  8  1  0  0  0  0
  7 30  1  0  0  0  0
  7 31  1  0  0  0  0
  8  9  1  0  0  0  0
  9 10  1  0  0  0  0
  9 32  1  0  0  0  0
  9 33  1  0  0  0  0
 10 11  1  0  0  0  0
 10 12  1  0  0  0  0
 10 34  1  0  0  0  0
 11 35  1  0  0  0  0
 12 13  1  0  0  0  0
 12 36  1  0  0  0  0
 12 37  1  0  0  0  0
 13 22  1  0  0  0  0
 13 14  1  0  0  0  0
 14 15  1  0  0  0  0
 14 16  2  0  0  0  0
 15 38  1  0  0  0  0
 15 39  1  0  0  0  0
 15 40  1  0  0  0  0
 16 17  1  0  0  0  0
 17 22  2  0  0  0  0
 17 18  1  0  0  0  0
 18 19  2  0  0  0  0
 18 41  1  0  0  0  0
 19 20  1  0  0  0  0
 19 42  1  0  0  0  0
 20 21  2  0  0  0  0
 20 43  1  0  0  0  0
 21 22  1  0  0  0  0
 21 44  1  0  0  0  0
 23 24  2  0  0  0  0
 23 45  1  0  0  0  0
 24 46  1  0  0  0  0
M  END
> <s_m_source_file>
AV-unprocessed.smi

> <i_m_source_file_index>
492

> <i_lp_mmshare_version>
43012

> <i_f3d_flags>
0

> <s_epik_input>
W0NIM11PYzFbY0hdW2NIXWMoW2NIXVtjSF0xKVtDSDJdT1tDSDJdW0NASF0oW09IXSlbQ0gyXW4oYyhuMilbQ0gzXSljKGMyMylbY0hdW2NIXVtjSF1bY0hdMw==

> <s_epik_cmdline>
J2VwaWtfcHl0aG9uJywgJy1waCcsICc3LjAnLCAnLXRuJywgJzgnLCAnLW1hJywgJzIwMCcsICctbWV0YWxfYmluZGluZycsICctaW1hZScsICc8aW5maWxlLm1hZT4nLCAnLW9tYWUnLCAnPG91dGZpbGUubWFlPic=

> <r_lp_tautomer_probability>
1

> <r_epik_Ionization_Penalty>
0.132603

> <r_epik_Ionization_Penalty_Charging>
0

> <r_epik_Ionization_Penalty_Neutral>
0.132603

> <r_epik_State_Penalty>
0.121982

> <r_epik_Charging_Adjusted_Penalty>
0.121982

> <i_epik_Tot_Q>
0

> <i_epik_Tot_abs_Q>
0

> <r_epik_Metal_State_Penalty>
0.000135431

> <b_epik_Metal_Only>
0

> <s_lp_Force_Field>
OPLS_2005

> <r_lp_Energy>
18.9568

> <b_lp_Chiralities_Consistent>
1

> <s_lp_Variant>
AV-unprocessed.smi:492-2

> <Gold.Version>
5.8.1

> <Gold.Id.Protein>
6NUR|6NUR_protein|mol2

> <Gold.PLP.Fitness>
49.5584

> <Gold.PLP.PLP>
-44.4627

> <Gold.PLP.part.hbond>
-3.0885

> <Gold.PLP.part.metal>
0.0000

> <Gold.PLP.part.buried>
-5.3651

> <Gold.PLP.part.nonpolar>
-36.9198

> <Gold.PLP.part.repulsive>
0.1617

> <Gold.PLP.ligand.clash>
0.0000

> <Gold.PLP.ligand.torsion>
0.9404

> <Gold.PLP.Chemscore.Hbond>
2.2372

> <Gold.PLP.Chemscore.CHOScore>
0.0000

> <Gold.PLP.Chemscore.Metal>
0.0000

> <Gold.Chemscore.Hbonds>
donor molecule, donor type, donor heavy atom, donor atom, acceptor molecule, acceptor atom, score
      P1  H  6896  6908       L1    11  1.00
      P1  H  6931  6943       L1    16  0.43
      P1  H  6934  6947       L1    16  0.82

> <Gold.PLP.Chemscore.Internal.Correction>
0.2648

> <Gold.Rescore>
     Score         DG    S(hbond)    S(metal)    S(lipo)     H(rot)  DE(clash)    DE(int)     intcor
     18.19     -19.20       2.18        0.00     107.47       2.40       0.03       0.98       ----

> <Gold.Chemscore.Fitness>
18.1890

> <Gold.Chemscore.DG>
-19.1995

> <Gold.Chemscore.ZeroCoef>
-5.4800

> <Gold.Chemscore.Hbond>
2.1818

> <Gold.Chemscore.Metal>
0.0000

> <Gold.Chemscore.Lipo>
107.4699

> <Gold.Chemscore.Internal_Hbond>
0.0000

> <Gold.Chemscore.DEClash>
0.0262

> <Gold.Chemscore.DEInternal>
0.9843

> <Gold.Chemscore.Rot>
2.3991

> <Gold.Chemscore.Internal.Correction>
   9.000000E+99

> <Gold.Chemscore.Hbonds>
donor molecule, donor type, donor heavy atom, donor atom, acceptor molecule, acceptor atom, score
      P1  H  6896  6908       L1    11  0.67
      P1  H  6931  6943       L1    16  0.09
      P1  H  6934  6947       L1    16  0.79

> <Gold.Chemscore.Hbond.Weighted>
-7.2872

> <Gold.Chemscore.Metal.Weighted>
-0.0000

> <Gold.Chemscore.Lipo.Weighted>
-12.5740

> <Gold.Chemscore.Internal_Hbond.Weighted>
0.0000

> <Gold.Chemscore.DEClash.Weighted>
0.0262

> <Gold.Chemscore.DEInternal.Weighted>
0.9843

> <Gold.Chemscore.Rot.Weighted>
6.1417

> <Gold.Chemscore.Internal.Correction.Weighted>
   9.000000E+99

> <Gold.Protein.RotatedTorsions>
[ 6907 6896 6895 6894 ] final  112.55 input  -60.11 | X-H torsion
[ 7974 7965 7964 7962 ] final   99.25 input  175.53 | X-H torsion
[ 8008 7997 7996 7995 ] final  -53.84 input   59.86 | X-H torsion
[ 10167 10162 10161 10158 ] final  -94.38 input  -65.29 | X-H torsion
[ 10718 10713 10712 10709 ] final   68.79 input   66.30 | X-H torsion
[ 10763 10752 10751 10750 ] final   -6.92 input  -60.55 | X-H torsion
[ 11005 11000 10999 10996 ] final  -84.56 input  -57.11 | X-H torsion

> <Gold.Protein.ActiveResidues>
 VAL166  LYS551  ARG553  GLY616  TRP617  ASP618  TYR619  PRO620  LYS621  CYS622 
 ASP623  PHE694  ASN695  SER759  ASP760  ASP761  ALA762  ILE779  LEU786  VAL792 
 PHE793  MET794  SER795  GLU796  ALA797  LYS798  CYS799  TRP800  GLU811  SER814 

> <Gold.Protein.RotatedAtoms>
  152.4910  133.8501  159.7196 H   0  0  0  0  0  0  0  0  0  0  0  0  # atno 6907 bound_to 6896
  150.9040  133.7072  159.2878 H   0  0  0  0  0  0  0  0  0  0  0  0  # atno 6908 bound_to 6896
  151.4504  135.1033  159.9748 H   0  0  0  0  0  0  0  0  0  0  0  0  # atno 6909 bound_to 6896
  145.4014  139.2347  143.3298 H   0  0  0  0  0  0  0  0  0  0  0  0  # atno 7974 bound_to 7965
  154.4145  140.1190  156.5218 H   0  0  0  0  0  0  0  0  0  0  0  0  # atno 8008 bound_to 7997
  155.6695  140.3496  155.4793 H   0  0  0  0  0  0  0  0  0  0  0  0  # atno 8009 bound_to 7997
  155.9645  140.1129  157.0856 H   0  0  0  0  0  0  0  0  0  0  0  0  # atno 8010 bound_to 7997
  140.3150  143.3082  152.0107 H   0  0  0  0  0  0  0  0  0  0  0  0  # atno 10167 bound_to 10162
  157.6309  130.9392  150.0425 H   0  0  0  0  0  0  0  0  0  0  0  0  # atno 10718 bound_to 10713
  153.4192  135.7009  153.6306 H   0  0  0  0  0  0  0  0  0  0  0  0  # atno 10763 bound_to 10752
  153.4768  135.3702  155.2421 H   0  0  0  0  0  0  0  0  0  0  0  0  # atno 10764 bound_to 10752
  154.8721  135.4056  154.3557 H   0  0  0  0  0  0  0  0  0  0  0  0  # atno 10765 bound_to 10752
  141.1649  133.7352  156.8886 H   0  0  0  0  0  0  0  0  0  0  0  0  # atno 11005 bound_to 11000
  146.2750  140.4712  142.8799 LP  0  0  0  0  0  0  0  0  0  0  0  0  # atno 17320 bound_to 7965
  144.8371  140.6799  143.6253 LP  0  0  0  0  0  0  0  0  0  0  0  0  # atno 17321 bound_to 7965
  139.4886  144.6355  151.6984 LP  0  0  0  0  0  0  0  0  0  0  0  0  # atno 17342 bound_to 10162
  140.5534  144.0387  150.6137 LP  0  0  0  0  0  0  0  0  0  0  0  0  # atno 17343 bound_to 10162
  156.1512  130.3642  149.9435 LP  0  0  0  0  0  0  0  0  0  0  0  0  # atno 17370 bound_to 10713
  156.7454  130.9095  151.3634 LP  0  0  0  0  0  0  0  0  0  0  0  0  # atno 17371 bound_to 10713
  140.1664  134.9130  157.2779 LP  0  0  0  0  0  0  0  0  0  0  0  0  # atno 17394 bound_to 11000
  140.2552  134.3636  155.7427 LP  0  0  0  0  0  0  0  0  0  0  0  0  # atno 17395 bound_to 11000

$$$$
