AV-unprocessed.smi:2886|AV-procd|sdf|11096|dock1
  -GOLD-   2272015563D 1   1.00000     0.00000
 Structure written by MMmdl.
 27 29  0  0  0  0  0  0  0  0  2 V2000
  151.2051  137.4823  156.2478 O   0  0  0  0  0  0  0  0  0  0  0  0
  151.0220  138.6868  156.0793 C   0  0  0  0  0  0  0  0  0  0  0  0
  150.4747  139.1860  154.9297 N   0  5  0  0  0  0  0  0  0  0  0  0
  150.2887  140.6115  154.7734 N   0  0  0  0  0  0  0  0  0  0  0  0
  150.6188  141.4224  155.6994 C   0  0  0  0  0  0  0  0  0  0  0  0
  151.2036  140.9661  156.9844 C   0  0  0  0  0  0  0  0  0  0  0  0
  151.5645  141.8497  157.9936 N   0  0  0  0  0  0  0  0  0  0  0  0
  151.4575  143.3022  158.0124 C   0  0  1  0  0  0  0  0  0  0  0  0
  150.3401  143.8095  158.9253 C   0  0  0  0  0  0  0  0  0  0  0  0
  151.0998  144.7949  159.8252 C   0  0  1  0  0  0  0  0  0  0  0  0
  151.9611  144.0616  160.8613 C   0  0  0  0  0  0  0  0  0  0  0  0
  153.0913  143.5120  159.9931 C   0  0  0  0  0  0  0  0  0  0  0  0
  152.6914  144.0127  158.5949 C   0  0  2  0  0  0  0  0  0  0  0  0
  152.1051  145.2576  158.9376 O   0  0  0  0  0  0  0  0  0  0  0  0
  151.3962  139.6315  157.1387 C   0  0  0  0  0  0  0  0  0  0  0  0
  152.0862  139.0020  158.5994 Cl  0  0  0  0  0  0  0  0  0  0  0  0
  150.4881  142.5003  155.5799 H   0  0  0  0  0  0  0  0  0  0  0  0
  151.8137  141.4348  158.8799 H   0  0  0  0  0  0  0  0  0  0  0  0
  151.2655  143.6771  157.0071 H   0  0  0  0  0  0  0  0  0  0  0  0
  149.5770  144.3230  158.3396 H   0  0  0  0  0  0  0  0  0  0  0  0
  149.8517  143.0224  159.5018 H   0  0  0  0  0  0  0  0  0  0  0  0
  150.4740  145.5815  160.2478 H   0  0  0  0  0  0  0  0  0  0  0  0
  152.3535  144.7574  161.6036 H   0  0  0  0  0  0  0  0  0  0  0  0
  151.4086  143.2796  161.3835 H   0  0  0  0  0  0  0  0  0  0  0  0
  154.0452  143.9452  160.2959 H   0  0  0  0  0  0  0  0  0  0  0  0
  153.1835  142.4271  160.0490 H   0  0  0  0  0  0  0  0  0  0  0  0
  153.5260  144.0870  157.8971 H   0  0  0  0  0  0  0  0  0  0  0  0
  1  2  2  0  0  0  0
  2 15  1  0  0  0  0
  2  3  1  0  0  0  0
  3  4  1  0  0  0  0
  4  5  2  0  0  0  0
  5  6  1  0  0  0  0
  5 17  1  0  0  0  0
  6  7  1  0  0  0  0
  6 15  2  0  0  0  0
  7  8  1  0  0  0  0
  7 18  1  0  0  0  0
  8 13  1  0  0  0  0
  8  9  1  0  0  0  0
  8 19  1  0  0  0  0
  9 10  1  0  0  0  0
  9 20  1  0  0  0  0
  9 21  1  0  0  0  0
 10 14  1  0  0  0  0
 10 11  1  0  0  0  0
 10 22  1  0  0  0  0
 11 12  1  0  0  0  0
 11 23  1  0  0  0  0
 11 24  1  0  0  0  0
 12 13  1  0  0  0  0
 12 25  1  0  0  0  0
 12 26  1  0  0  0  0
 13 14  1  0  0  0  0
 13 27  1  0  0  0  0
 15 16  1  0  0  0  0
M  CHG  1   3  -1
M  END
> <s_m_source_file>
AV-unprocessed.smi

> <i_m_source_file_index>
2886

> <i_lp_mmshare_version>
43012

> <i_f3d_flags>
0

> <s_epik_input>
Tz1jMVtuSF1uW2NIXWMoYzFDbClbTkhdW0NASF0oW0NIMl1bQ0BASF0yMylbQ0BASF0oTzMpW0NIMl1bQ0gyXTI=

> <s_epik_cmdline>
J2VwaWtfcHl0aG9uJywgJy1waCcsICc3LjAnLCAnLXRuJywgJzgnLCAnLW1hJywgJzIwMCcsICctbWV0YWxfYmluZGluZycsICctaW1hZScsICc8aW5maWxlLm1hZT4nLCAnLW9tYWUnLCAnPG91dGZpbGUubWFlPic=

> <r_lp_tautomer_probability>
0.986175

> <r_epik_Ionization_Penalty>
3.84253

> <r_epik_Ionization_Penalty_Charging>
0.0129711

> <r_epik_Ionization_Penalty_Neutral>
3.82956

> <r_epik_State_Penalty>
3.8249

> <r_epik_Charging_Adjusted_Penalty>
3.83787

> <i_epik_Tot_Q>
-1

> <i_epik_Tot_abs_Q>
1

> <r_epik_Metal_State_Penalty>
0.57612

> <b_epik_Metal_Only>
1

> <s_lp_Force_Field>
OPLS_2005

> <r_lp_Energy>
60.9826

> <b_lp_Chiralities_Consistent>
1

> <s_lp_Variant>
AV-unprocessed.smi:2886-10

> <Gold.Version>
5.8.1

> <Gold.Id.Protein>
6NUR|6NUR_protein|mol2

> <Gold.PLP.Fitness>
34.4772

> <Gold.PLP.PLP>
-30.5526

> <Gold.PLP.part.hbond>
-1.0000

> <Gold.PLP.part.metal>
0.0000

> <Gold.PLP.part.buried>
-6.2771

> <Gold.PLP.part.nonpolar>
-24.1711

> <Gold.PLP.part.repulsive>
0.3074

> <Gold.PLP.ligand.clash>
0.0000

> <Gold.PLP.ligand.torsion>
0.1878

> <Gold.PLP.Chemscore.Hbond>
0.8512

> <Gold.PLP.Chemscore.CHOScore>
0.5792

> <Gold.PLP.Chemscore.Metal>
0.0000

> <Gold.Chemscore.Hbonds>
donor molecule, donor type, donor heavy atom, donor atom, acceptor molecule, acceptor atom, score
      P1  H  7989  7998       L1     4  0.82
      L1  C     5    17       P1  8028  0.49

> <Gold.PLP.Chemscore.Internal.Correction>
0.0091

> <Gold.Rescore>
     Score         DG    S(hbond)    S(metal)    S(lipo)     H(rot)  DE(clash)    DE(int)     intcor
     16.14     -16.26       0.85        0.00      89.61       1.00       0.01       0.10       ----

> <Gold.Chemscore.Fitness>
16.1392

> <Gold.Chemscore.DG>
-16.2589

> <Gold.Chemscore.ZeroCoef>
-5.4800

> <Gold.Chemscore.Hbond>
0.8548

> <Gold.Chemscore.Metal>
0.0000

> <Gold.Chemscore.Lipo>
89.6053

> <Gold.Chemscore.Internal_Hbond>
0.0000

> <Gold.Chemscore.DEClash>
0.0150

> <Gold.Chemscore.DEInternal>
0.1047

> <Gold.Chemscore.Rot>
1.0000

> <Gold.Chemscore.Internal.Correction>
   9.000000E+99

> <Gold.Chemscore.Hbonds>
donor molecule, donor type, donor heavy atom, donor atom, acceptor molecule, acceptor atom, score
      P1  H  7989  7998       L1     4  0.06

> <Gold.Chemscore.Hbond.Weighted>
-2.8551

> <Gold.Chemscore.Metal.Weighted>
-0.0000

> <Gold.Chemscore.Lipo.Weighted>
-10.4838

> <Gold.Chemscore.Internal_Hbond.Weighted>
0.0000

> <Gold.Chemscore.DEClash.Weighted>
0.0150

> <Gold.Chemscore.DEInternal.Weighted>
0.1047

> <Gold.Chemscore.Rot.Weighted>
2.5600

> <Gold.Chemscore.Internal.Correction.Weighted>
   9.000000E+99

> <Gold.Protein.RotatedTorsions>
[ 6907 6896 6895 6894 ] final  101.20 input  -60.11 | X-H torsion
[ 7974 7965 7964 7962 ] final  128.88 input  175.53 | X-H torsion
[ 8008 7997 7996 7995 ] final -130.13 input   59.86 | X-H torsion
[ 10167 10162 10161 10158 ] final  105.07 input  -65.29 | X-H torsion
[ 10718 10713 10712 10709 ] final  111.33 input   66.30 | X-H torsion
[ 10763 10752 10751 10750 ] final -146.14 input  -60.55 | X-H torsion
[ 11005 11000 10999 10996 ] final  172.58 input  -57.11 | X-H torsion

> <Gold.Protein.ActiveResidues>
 VAL166  LYS551  ARG553  GLY616  TRP617  ASP618  TYR619  PRO620  LYS621  CYS622 
 ASP623  PHE694  ASN695  SER759  ASP760  ASP761  ALA762  ILE779  LEU786  VAL792 
 PHE793  MET794  SER795  GLU796  ALA797  LYS798  CYS799  TRP800  GLU811  SER814 

> <Gold.Protein.RotatedAtoms>
  152.5355  134.0161  159.7960 H   0  0  0  0  0  0  0  0  0  0  0  0  # atno 6907 bound_to 6896
  151.0355  133.5744  159.2663 H   0  0  0  0  0  0  0  0  0  0  0  0  # atno 6908 bound_to 6896
  151.2733  135.0698  159.9196 H   0  0  0  0  0  0  0  0  0  0  0  0  # atno 6909 bound_to 6896
  145.0348  139.4015  143.5132 H   0  0  0  0  0  0  0  0  0  0  0  0  # atno 7974 bound_to 7965
  155.2906  140.0448  157.3022 H   0  0  0  0  0  0  0  0  0  0  0  0  # atno 8008 bound_to 7997
  154.5543  140.2327  155.8402 H   0  0  0  0  0  0  0  0  0  0  0  0  # atno 8009 bound_to 7997
  156.1994  140.3029  155.9502 H   0  0  0  0  0  0  0  0  0  0  0  0  # atno 8010 bound_to 7997
  139.7123  144.7075  151.1006 H   0  0  0  0  0  0  0  0  0  0  0  0  # atno 10167 bound_to 10162
  157.6450  131.0949  150.6733 H   0  0  0  0  0  0  0  0  0  0  0  0  # atno 10718 bound_to 10713
  154.8350  135.3394  154.6615 H   0  0  0  0  0  0  0  0  0  0  0  0  # atno 10763 bound_to 10752
  153.7231  135.6957  153.5012 H   0  0  0  0  0  0  0  0  0  0  0  0  # atno 10764 bound_to 10752
  153.2367  135.4398  155.0606 H   0  0  0  0  0  0  0  0  0  0  0  0  # atno 10765 bound_to 10752
  140.3312  134.7355  157.4136 H   0  0  0  0  0  0  0  0  0  0  0  0  # atno 11005 bound_to 11000
  146.3503  139.9917  142.8685 LP  0  0  0  0  0  0  0  0  0  0  0  0  # atno 17320 bound_to 7965
  145.1724  140.9727  143.4314 LP  0  0  0  0  0  0  0  0  0  0  0  0  # atno 17321 bound_to 7965
  140.7736  143.5276  150.9462 LP  0  0  0  0  0  0  0  0  0  0  0  0  # atno 17342 bound_to 10162
  139.8961  143.6893  152.3138 LP  0  0  0  0  0  0  0  0  0  0  0  0  # atno 17343 bound_to 10162
  156.7051  130.4635  149.5562 LP  0  0  0  0  0  0  0  0  0  0  0  0  # atno 17370 bound_to 10713
  156.1768  130.6473  151.0904 LP  0  0  0  0  0  0  0  0  0  0  0  0  # atno 17371 bound_to 10713
  140.0859  134.5668  155.8493 LP  0  0  0  0  0  0  0  0  0  0  0  0  # atno 17394 bound_to 11000
  141.2063  133.6654  156.6232 LP  0  0  0  0  0  0  0  0  0  0  0  0  # atno 17395 bound_to 11000

$$$$
