AV-unprocessed.smi:1558|AV-procd|sdf|6273|dock9
  -GOLD-   22720 6463D 1   1.00000     0.00000
 Structure written by MMmdl.
 36 37  0  0  0  0  0  0  0  0  1 V2000
  146.4629  131.8250  150.3422 N   0  0  0  0  0  0  0  0  0  0  0  0
  145.4962  131.3815  151.1504 C   0  0  0  0  0  0  0  0  0  0  0  0
  145.7118  130.5743  152.0517 O   0  0  0  0  0  0  0  0  0  0  0  0
  144.0846  131.9214  150.9130 C   0  0  0  0  0  0  0  0  0  0  0  0
  144.0565  133.3709  150.9955 N   0  0  0  0  0  0  0  0  0  0  0  0
  143.4244  134.1598  151.9371 C   0  0  0  0  0  0  0  0  0  0  0  0
  143.6964  135.4508  151.5824 C   0  0  0  0  0  0  0  0  0  0  0  0
  143.2936  136.6584  152.2066 N   0  0  0  0  0  0  0  0  0  0  0  0
  142.2902  136.8272  153.0830 C   0  0  0  0  0  0  0  0  0  0  0  0
  141.5469  135.9329  153.4878 O   0  0  0  0  0  0  0  0  0  0  0  0
  142.1954  138.1061  153.4733 N   0  0  0  0  0  0  0  0  0  0  0  0
  141.2333  138.6181  154.4426 C   0  0  0  0  0  0  0  0  0  0  0  0
  139.7895  138.4515  153.9417 C   0  0  1  0  0  0  0  0  0  0  0  0
  139.6001  138.8388  152.4772 C   0  0  0  0  0  0  0  0  0  0  0  0
  138.3343  138.0895  152.1281 C   0  0  0  0  0  0  0  0  0  0  0  0
  138.5042  136.7894  152.9114 C   0  0  0  0  0  0  0  0  0  0  0  0
  139.3781  137.0884  153.9976 O   0  0  0  0  0  0  0  0  0  0  0  0
  144.4952  135.3703  150.4122 C   0  0  0  0  0  0  0  0  0  0  0  0
  144.7089  134.1105  150.0637 N   0  0  0  0  0  0  0  0  0  0  0  0
  147.4083  131.4914  150.4635 H   0  0  0  0  0  0  0  0  0  0  0  0
  146.2475  132.4884  149.6124 H   0  0  0  0  0  0  0  0  0  0  0  0
  143.7281  131.6042  149.9315 H   0  0  0  0  0  0  0  0  0  0  0  0
  143.3920  131.5146  151.6510 H   0  0  0  0  0  0  0  0  0  0  0  0
  142.8562  133.7354  152.7514 H   0  0  0  0  0  0  0  0  0  0  0  0
  143.8317  137.4783  151.9672 H   0  0  0  0  0  0  0  0  0  0  0  0
  142.8481  138.7717  153.0862 H   0  0  0  0  0  0  0  0  0  0  0  0
  141.3655  138.0545  155.3663 H   0  0  0  0  0  0  0  0  0  0  0  0
  141.4400  139.6615  154.6868 H   0  0  0  0  0  0  0  0  0  0  0  0
  139.1053  139.0383  154.5569 H   0  0  0  0  0  0  0  0  0  0  0  0
  139.5151  139.9156  152.3287 H   0  0  0  0  0  0  0  0  0  0  0  0
  140.4302  138.4728  151.8708 H   0  0  0  0  0  0  0  0  0  0  0  0
  137.4652  138.6374  152.4946 H   0  0  0  0  0  0  0  0  0  0  0  0
  138.2101  137.9292  151.0569 H   0  0  0  0  0  0  0  0  0  0  0  0
  137.5507  136.3993  153.2676 H   0  0  0  0  0  0  0  0  0  0  0  0
  138.9728  136.0241  152.2918 H   0  0  0  0  0  0  0  0  0  0  0  0
  144.9190  136.1655  149.8170 H   0  0  0  0  0  0  0  0  0  0  0  0
  1  2  1  0  0  0  0
  1 20  1  0  0  0  0
  1 21  1  0  0  0  0
  2  3  2  0  0  0  0
  2  4  1  0  0  0  0
  4  5  1  0  0  0  0
  4 22  1  0  0  0  0
  4 23  1  0  0  0  0
  5 19  1  0  0  0  0
  5  6  1  0  0  0  0
  6  7  2  0  0  0  0
  6 24  1  0  0  0  0
  7  8  1  0  0  0  0
  7 18  1  0  0  0  0
  8  9  1  0  0  0  0
  8 25  1  0  0  0  0
  9 10  2  0  0  0  0
  9 11  1  0  0  0  0
 11 12  1  0  0  0  0
 11 26  1  0  0  0  0
 12 13  1  0  0  0  0
 12 27  1  0  0  0  0
 12 28  1  0  0  0  0
 13 17  1  0  0  0  0
 13 14  1  0  0  0  0
 13 29  1  0  0  0  0
 14 15  1  0  0  0  0
 14 30  1  0  0  0  0
 14 31  1  0  0  0  0
 15 16  1  0  0  0  0
 15 32  1  0  0  0  0
 15 33  1  0  0  0  0
 16 17  1  0  0  0  0
 16 34  1  0  0  0  0
 16 35  1  0  0  0  0
 18 19  2  0  0  0  0
 18 36  1  0  0  0  0
M  END
> <s_m_source_file>
AV-unprocessed.smi

> <i_m_source_file_index>
1558

> <i_lp_mmshare_version>
43012

> <i_f3d_flags>
0

> <s_epik_input>
W05IMl1DKD1PKVtDSDJdbjFbY0hdYyhbY0hdbjEpW05IXUMoPU8pW05IXVtDSDJdW0NAQEhdMltDSDJdW0NIMl1bQ0gyXU8y

> <s_epik_cmdline>
J2VwaWtfcHl0aG9uJywgJy1waCcsICc3LjAnLCAnLXRuJywgJzgnLCAnLW1hJywgJzIwMCcsICctbWV0YWxfYmluZGluZycsICctaW1hZScsICc8aW5maWxlLm1hZT4nLCAnLW9tYWUnLCAnPG91dGZpbGUubWFlPic=

> <r_lp_tautomer_probability>
1

> <r_epik_Ionization_Penalty>
4.01684e-05

> <r_epik_Ionization_Penalty_Charging>
0

> <r_epik_Ionization_Penalty_Neutral>
4.01684e-05

> <r_epik_State_Penalty>
-0

> <r_epik_Charging_Adjusted_Penalty>
0

> <i_epik_Tot_Q>
0

> <i_epik_Tot_abs_Q>
0

> <r_epik_Metal_State_Penalty>
-0

> <b_epik_Metal_Only>
0

> <s_lp_Force_Field>
OPLS_2005

> <r_lp_Energy>
20.8688

> <b_lp_Chiralities_Consistent>
1

> <s_lp_Variant>
AV-unprocessed.smi:1558-2

> <Gold.Version>
5.8.1

> <Gold.Id.Protein>
6NUR|6NUR_protein|mol2

> <Gold.PLP.Fitness>
42.2318

> <Gold.PLP.PLP>
-31.5749

> <Gold.PLP.part.hbond>
-2.5928

> <Gold.PLP.part.metal>
0.0000

> <Gold.PLP.part.buried>
-8.3261

> <Gold.PLP.part.nonpolar>
-23.3060

> <Gold.PLP.part.repulsive>
1.6922

> <Gold.PLP.ligand.clash>
0.0000

> <Gold.PLP.ligand.torsion>
0.2318

> <Gold.PLP.Chemscore.Hbond>
2.0000

> <Gold.PLP.Chemscore.CHOScore>
1.6989

> <Gold.PLP.Chemscore.Metal>
0.0000

> <Gold.Chemscore.Hbonds>
donor molecule, donor type, donor heavy atom, donor atom, acceptor molecule, acceptor atom, score
      L1  H     1    20       P1 10747  1.00
      L1  H     8    25       P1 10171  0.02
      L1  H    11    26       P1 10175  1.00
      L1  C     6    24       P1 10957  0.26
      L1  C    18    36       P1  7921  0.13
      L1  C    18    36       P1 10171  0.66

> <Gold.PLP.Chemscore.Internal.Correction>
0.0239

> <Gold.Rescore>
     Score         DG    S(hbond)    S(metal)    S(lipo)     H(rot)  DE(clash)    DE(int)     intcor
      9.02     -13.42       2.23        0.00      55.15       2.33       0.06       4.34       ----

> <Gold.Chemscore.Fitness>
9.0235

> <Gold.Chemscore.DG>
-13.4216

> <Gold.Chemscore.ZeroCoef>
-5.4800

> <Gold.Chemscore.Hbond>
2.2318

> <Gold.Chemscore.Metal>
0.0000

> <Gold.Chemscore.Lipo>
55.1525

> <Gold.Chemscore.Internal_Hbond>
0.0000

> <Gold.Chemscore.DEClash>
0.0603

> <Gold.Chemscore.DEInternal>
4.3377

> <Gold.Chemscore.Rot>
2.3303

> <Gold.Chemscore.Internal.Correction>
   9.000000E+99

> <Gold.Chemscore.Hbonds>
donor molecule, donor type, donor heavy atom, donor atom, acceptor molecule, acceptor atom, score
      L1  H     1    20       P1 10747  1.00
      L1  H     8    25       P1 10171  0.04
      L1  H    11    26       P1 10175  0.99

> <Gold.Chemscore.Hbond.Weighted>
-7.4543

> <Gold.Chemscore.Metal.Weighted>
-0.0000

> <Gold.Chemscore.Lipo.Weighted>
-6.4528

> <Gold.Chemscore.Internal_Hbond.Weighted>
0.0000

> <Gold.Chemscore.DEClash.Weighted>
0.0603

> <Gold.Chemscore.DEInternal.Weighted>
4.3377

> <Gold.Chemscore.Rot.Weighted>
5.9656

> <Gold.Chemscore.Internal.Correction.Weighted>
   9.000000E+99

> <Gold.Protein.RotatedTorsions>
[ 6907 6896 6895 6894 ] final   14.52 input  -60.11 | X-H torsion
[ 7974 7965 7964 7962 ] final -126.78 input  175.53 | X-H torsion
[ 8008 7997 7996 7995 ] final  178.55 input   59.86 | X-H torsion
[ 10167 10162 10161 10158 ] final  173.96 input  -65.29 | X-H torsion
[ 10718 10713 10712 10709 ] final   28.91 input   66.30 | X-H torsion
[ 10763 10752 10751 10750 ] final   67.32 input  -60.55 | X-H torsion
[ 11005 11000 10999 10996 ] final  170.39 input  -57.11 | X-H torsion

> <Gold.Protein.ActiveResidues>
 VAL166  LYS551  ARG553  GLY616  TRP617  ASP618  TYR619  PRO620  LYS621  CYS622 
 ASP623  PHE694  ASN695  SER759  ASP760  ASP761  ALA762  ILE779  LEU786  VAL792 
 PHE793  MET794  SER795  GLU796  ALA797  LYS798  CYS799  TRP800  GLU811  SER814 

> <Gold.Protein.RotatedAtoms>
  151.8035  135.0702  160.0403 H   0  0  0  0  0  0  0  0  0  0  0  0  # atno 6907 bound_to 6896
  152.3072  133.5711  159.5665 H   0  0  0  0  0  0  0  0  0  0  0  0  # atno 6908 bound_to 6896
  150.7302  134.0122  159.3715 H   0  0  0  0  0  0  0  0  0  0  0  0  # atno 6909 bound_to 6896
  144.9837  140.7665  143.4596 H   0  0  0  0  0  0  0  0  0  0  0  0  # atno 7974 bound_to 7965
  156.0534  140.1331  157.0024 H   0  0  0  0  0  0  0  0  0  0  0  0  # atno 8008 bound_to 7997
  154.4446  140.1006  156.6481 H   0  0  0  0  0  0  0  0  0  0  0  0  # atno 8009 bound_to 7997
  155.5488  140.3462  155.4466 H   0  0  0  0  0  0  0  0  0  0  0  0  # atno 8010 bound_to 7997
  139.5126  144.3201  152.0211 H   0  0  0  0  0  0  0  0  0  0  0  0  # atno 10167 bound_to 10162
  157.2397  130.7063  149.6352 H   0  0  0  0  0  0  0  0  0  0  0  0  # atno 10718 bound_to 10713
  153.0181  135.5288  154.6961 H   0  0  0  0  0  0  0  0  0  0  0  0  # atno 10763 bound_to 10752
  154.6082  135.2875  155.0463 H   0  0  0  0  0  0  0  0  0  0  0  0  # atno 10764 bound_to 10752
  154.1494  135.6565  153.5012 H   0  0  0  0  0  0  0  0  0  0  0  0  # atno 10765 bound_to 10752
  140.3078  134.7542  157.3967 H   0  0  0  0  0  0  0  0  0  0  0  0  # atno 11005 bound_to 11000
  145.2384  139.2083  143.5006 LP  0  0  0  0  0  0  0  0  0  0  0  0  # atno 17320 bound_to 7965
  146.3414  140.2274  142.8592 LP  0  0  0  0  0  0  0  0  0  0  0  0  # atno 17321 bound_to 7965
  140.2643  144.4033  150.6174 LP  0  0  0  0  0  0  0  0  0  0  0  0  # atno 17342 bound_to 10162
  140.6135  143.2171  151.6839 LP  0  0  0  0  0  0  0  0  0  0  0  0  # atno 17343 bound_to 10162
  155.9671  130.4462  150.5532 LP  0  0  0  0  0  0  0  0  0  0  0  0  # atno 17370 bound_to 10713
  157.3392  131.0713  151.1801 LP  0  0  0  0  0  0  0  0  0  0  0  0  # atno 17371 bound_to 10713
  140.1051  134.5420  155.8316 LP  0  0  0  0  0  0  0  0  0  0  0  0  # atno 17394 bound_to 11000
  141.2114  133.6707  156.6584 LP  0  0  0  0  0  0  0  0  0  0  0  0  # atno 17395 bound_to 11000

$$$$
