AV-unprocessed.smi:290|AV-procd|sdf|2240|dock5
  -GOLD-   2262022113D 1   1.00000     0.00000
 Structure written by MMmdl.
 59 62  0  0  0  0  0  0  0  0  2 V2000
  150.9620  141.8058  156.2878 C   0  0  0  0  0  0  0  0  0  0  0  0
  150.7136  140.3666  155.8079 C   0  0  1  0  0  0  0  0  0  0  0  0
  151.6484  140.0075  154.7908 O   0  0  0  0  0  0  0  0  0  0  0  0
  152.3682  138.8455  155.1772 C   0  0  0  0  0  0  0  0  0  0  0  0
  151.4202  138.1136  156.1178 C   0  0  0  0  0  0  0  0  0  0  0  0
  150.7710  139.2573  156.8845 C   0  0  1  0  0  0  0  0  0  0  0  0
  151.6358  139.6277  157.9470 O   0  0  0  0  0  0  0  0  0  0  0  0
  149.3836  138.9147  157.4775 C   0  0  0  0  0  0  0  0  0  0  0  0
  148.5338  138.1618  156.5671 N   0  0  0  0  0  0  0  0  0  0  0  0
  148.0199  136.9030  156.7732 C   0  0  0  0  0  0  0  0  0  0  0  0
  147.2890  136.4372  155.7986 N   0  0  0  0  0  0  0  0  0  0  0  0
  147.2795  137.4556  154.8500 C   0  0  0  0  0  0  0  0  0  0  0  0
  146.6901  137.6255  153.5600 C   0  0  0  0  0  0  0  0  0  0  0  0
  145.9073  136.7141  152.9223 N   0  0  0  0  0  0  0  0  0  0  0  0
  145.1967  137.0558  151.7021 C   0  0  0  0  0  0  0  0  0  0  0  0
  145.1774  135.7639  150.8969 C   0  0  0  0  0  0  0  0  0  0  0  0
  145.1437  134.6547  151.9610 C   0  0  1  0  0  0  0  0  0  0  0  0
  145.6530  133.3499  151.4309 N   0  3  2  0  0  0  0  0  0  0  0  0
  147.1351  133.3493  151.3151 C   0  0  0  0  0  0  0  0  0  0  0  0
  144.9869  132.8878  150.1785 C   0  0  0  0  0  0  0  0  0  0  0  0
  143.5342  132.4127  150.3723 C   0  0  0  0  0  0  0  0  0  0  0  0
  142.9264  132.1753  149.1199 O   0  0  0  0  0  0  0  0  0  0  0  0
  145.9560  135.2701  153.1328 C   0  0  2  0  0  0  0  0  0  0  0  0
  145.3683  134.9171  154.5174 C   0  0  0  0  0  0  0  0  0  0  0  0
  146.9340  138.7983  152.9179 N   0  0  0  0  0  0  0  0  0  0  0  0
  147.6875  139.7431  153.4855 C   0  0  0  0  0  0  0  0  0  0  0  0
  148.2914  139.7236  154.6733 N   0  0  0  0  0  0  0  0  0  0  0  0
  148.0618  138.5489  155.3251 C   0  0  0  0  0  0  0  0  0  0  0  0
  144.1087  134.5236  152.2832 H   0  0  0  0  0  0  0  0  0  0  0  0
  146.9946  134.9512  153.0525 H   0  0  0  0  0  0  0  0  0  0  0  0
  150.2609  142.0832  157.0748 H   0  0  0  0  0  0  0  0  0  0  0  0
  150.8363  142.5126  155.4676 H   0  0  0  0  0  0  0  0  0  0  0  0
  151.9734  141.9325  156.6747 H   0  0  0  0  0  0  0  0  0  0  0  0
  149.7359  140.3362  155.3253 H   0  0  0  0  0  0  0  0  0  0  0  0
  152.6549  138.2449  154.3139 H   0  0  0  0  0  0  0  0  0  0  0  0
  153.2766  139.1460  155.7011 H   0  0  0  0  0  0  0  0  0  0  0  0
  150.6725  137.5850  155.5253 H   0  0  0  0  0  0  0  0  0  0  0  0
  151.9219  137.3824  156.7531 H   0  0  0  0  0  0  0  0  0  0  0  0
  151.6687  138.9162  158.5678 H   0  0  0  0  0  0  0  0  0  0  0  0
  149.4988  138.3373  158.3960 H   0  0  0  0  0  0  0  0  0  0  0  0
  148.8555  139.8273  157.7575 H   0  0  0  0  0  0  0  0  0  0  0  0
  148.2127  136.3350  157.6721 H   0  0  0  0  0  0  0  0  0  0  0  0
  144.1850  137.3732  151.9574 H   0  0  0  0  0  0  0  0  0  0  0  0
  145.6787  137.8580  151.1418 H   0  0  0  0  0  0  0  0  0  0  0  0
  144.3333  135.7319  150.2078 H   0  0  0  0  0  0  0  0  0  0  0  0
  146.0952  135.6929  150.3105 H   0  0  0  0  0  0  0  0  0  0  0  0
  147.4631  134.0161  150.5168 H   0  0  0  0  0  0  0  0  0  0  0  0
  147.5251  132.3534  151.1130 H   0  0  0  0  0  0  0  0  0  0  0  0
  147.6164  133.6685  152.2382 H   0  0  0  0  0  0  0  0  0  0  0  0
  144.9461  133.6997  149.4551 H   0  0  0  0  0  0  0  0  0  0  0  0
  145.5802  132.0908  149.7286 H   0  0  0  0  0  0  0  0  0  0  0  0
  143.5311  131.4766  150.9313 H   0  0  0  0  0  0  0  0  0  0  0  0
  142.9369  133.1131  150.9547 H   0  0  0  0  0  0  0  0  0  0  0  0
  142.2863  132.8533  148.9618 H   0  0  0  0  0  0  0  0  0  0  0  0
  145.3526  133.8456  154.7057 H   0  0  0  0  0  0  0  0  0  0  0  0
  144.3418  135.2744  154.6072 H   0  0  0  0  0  0  0  0  0  0  0  0
  145.9376  135.3734  155.3264 H   0  0  0  0  0  0  0  0  0  0  0  0
  147.8271  140.6426  152.9041 H   0  0  0  0  0  0  0  0  0  0  0  0
  145.4199  132.6587  152.1300 H   0  0  0  0  0  0  0  0  0  0  0  0
  1  2  1  0  0  0  0
  1 31  1  0  0  0  0
  1 32  1  0  0  0  0
  1 33  1  0  0  0  0
  2  6  1  0  0  0  0
  2  3  1  0  0  0  0
  2 34  1  0  0  0  0
  3  4  1  0  0  0  0
  4  5  1  0  0  0  0
  4 35  1  0  0  0  0
  4 36  1  0  0  0  0
  5  6  1  0  0  0  0
  5 37  1  0  0  0  0
  5 38  1  0  0  0  0
  6  7  1  0  0  0  0
  6  8  1  0  0  0  0
  7 39  1  0  0  0  0
  8  9  1  0  0  0  0
  8 40  1  0  0  0  0
  8 41  1  0  0  0  0
  9 28  1  0  0  0  0
  9 10  1  0  0  0  0
 10 11  2  0  0  0  0
 10 42  1  0  0  0  0
 11 12  1  0  0  0  0
 12 28  2  0  0  0  0
 12 13  1  0  0  0  0
 13 14  1  0  0  0  0
 13 25  2  0  0  0  0
 14 23  1  0  0  0  0
 14 15  1  0  0  0  0
 15 16  1  0  0  0  0
 15 43  1  0  0  0  0
 15 44  1  0  0  0  0
 16 17  1  0  0  0  0
 16 45  1  0  0  0  0
 16 46  1  0  0  0  0
 17 29  1  0  0  0  0
 17 18  1  0  0  0  0
 17 23  1  0  0  0  0
 18 19  1  0  0  0  0
 18 20  1  0  0  0  0
 18 59  1  0  0  0  0
 19 47  1  0  0  0  0
 19 48  1  0  0  0  0
 19 49  1  0  0  0  0
 20 21  1  0  0  0  0
 20 50  1  0  0  0  0
 20 51  1  0  0  0  0
 21 22  1  0  0  0  0
 21 52  1  0  0  0  0
 21 53  1  0  0  0  0
 22 54  1  0  0  0  0
 23 30  1  0  0  0  0
 23 24  1  0  0  0  0
 24 55  1  0  0  0  0
 24 56  1  0  0  0  0
 24 57  1  0  0  0  0
 25 26  1  0  0  0  0
 26 27  2  0  0  0  0
 26 58  1  0  0  0  0
 27 28  1  0  0  0  0
M  CHG  1  18   1
M  END
> <s_m_source_file>
AV-unprocessed.smi

> <i_m_source_file_index>
290

> <i_lp_mmshare_version>
43012

> <i_f3d_flags>
0

> <s_epik_input>
W0NIMl0xW0NIMl1PW0NAQEhdKFtDSDNdKVtDQEBdMShbT0hdKVtDSDJdbihbY0hdbjIpYyhjMjMpbltjSF1uYzNONFtDSDJdW0NIMl1bQ0BIXShbQ0BIXTRbQ0gzXSlOKFtDSDNdKVtDSDJdW0NIMl1bT0hd

> <s_epik_cmdline>
J2VwaWtfcHl0aG9uJywgJy1waCcsICc3LjAnLCAnLXRuJywgJzgnLCAnLW1hJywgJzIwMCcsICctbWV0YWxfYmluZGluZycsICctaW1hZScsICc8aW5maWxlLm1hZT4nLCAnLW9tYWUnLCAnPG91dGZpbGUubWFlPic=

> <r_lp_tautomer_probability>
1

> <r_epik_Ionization_Penalty>
0.0036983

> <r_epik_Ionization_Penalty_Charging>
0.0032725

> <r_epik_Ionization_Penalty_Neutral>
0.000425798

> <r_epik_State_Penalty>
-0

> <r_epik_Charging_Adjusted_Penalty>
0.0032725

> <i_epik_Tot_Q>
1

> <i_epik_Tot_abs_Q>
1

> <r_epik_Metal_State_Penalty>
-0

> <b_epik_Metal_Only>
0

> <s_lp_Force_Field>
OPLS_2005

> <r_lp_Energy>
64.7492

> <b_lp_Chiralities_Consistent>
1

> <s_lp_Variant>
AV-unprocessed.smi:290-26

> <Gold.Version>
5.8.1

> <Gold.Id.Protein>
6NUR|6NUR_protein|mol2

> <Gold.PLP.Fitness>
43.8725

> <Gold.PLP.PLP>
-34.7520

> <Gold.PLP.part.hbond>
-3.8970

> <Gold.PLP.part.metal>
0.0000

> <Gold.PLP.part.buried>
-3.4300

> <Gold.PLP.part.nonpolar>
-27.1689

> <Gold.PLP.part.repulsive>
0.4701

> <Gold.PLP.ligand.clash>
0.0000

> <Gold.PLP.ligand.torsion>
0.6618

> <Gold.PLP.Chemscore.Hbond>
2.8363

> <Gold.PLP.Chemscore.CHOScore>
0.5441

> <Gold.PLP.Chemscore.Metal>
0.0000

> <Gold.Chemscore.Hbonds>
donor molecule, donor type, donor heavy atom, donor atom, acceptor molecule, acceptor atom, score
      L1  H    22    54       P1 10186  0.84
      P1  H  7989  7998       L1     3  1.00
      P1  H 10785 10796       L1    22  0.86
      L1  C    26    58       P1  7957  0.49

> <Gold.PLP.Chemscore.Internal.Correction>
0.3032

> <Gold.Rescore>
     Score         DG    S(hbond)    S(metal)    S(lipo)     H(rot)  DE(clash)    DE(int)     intcor
     10.44     -14.59       2.63        0.00      76.16       3.35       0.61       3.53       ----

> <Gold.Chemscore.Fitness>
10.4421

> <Gold.Chemscore.DG>
-14.5863

> <Gold.Chemscore.ZeroCoef>
-5.4800

> <Gold.Chemscore.Hbond>
2.6276

> <Gold.Chemscore.Metal>
0.0000

> <Gold.Chemscore.Lipo>
76.1600

> <Gold.Chemscore.Internal_Hbond>
0.0000

> <Gold.Chemscore.DEClash>
0.6139

> <Gold.Chemscore.DEInternal>
3.5303

> <Gold.Chemscore.Rot>
3.3518

> <Gold.Chemscore.Internal.Correction>
   9.000000E+99

> <Gold.Chemscore.Hbonds>
donor molecule, donor type, donor heavy atom, donor atom, acceptor molecule, acceptor atom, score
      L1  H    22    54       P1 10186  0.81
      P1  H  7989  7998       L1     3  0.87
      P1  H 10785 10796       L1    22  0.46

> <Gold.Chemscore.Hbond.Weighted>
-8.7762

> <Gold.Chemscore.Metal.Weighted>
-0.0000

> <Gold.Chemscore.Lipo.Weighted>
-8.9107

> <Gold.Chemscore.Internal_Hbond.Weighted>
0.0000

> <Gold.Chemscore.DEClash.Weighted>
0.6139

> <Gold.Chemscore.DEInternal.Weighted>
3.5303

> <Gold.Chemscore.Rot.Weighted>
8.5806

> <Gold.Chemscore.Internal.Correction.Weighted>
   9.000000E+99

> <Gold.Protein.RotatedTorsions>
[ 6907 6896 6895 6894 ] final  -32.91 input  -60.11 | X-H torsion
[ 7974 7965 7964 7962 ] final   45.76 input  175.53 | X-H torsion
[ 8008 7997 7996 7995 ] final  127.60 input   59.86 | X-H torsion
[ 10167 10162 10161 10158 ] final    5.73 input  -65.29 | X-H torsion
[ 10718 10713 10712 10709 ] final  140.16 input   66.30 | X-H torsion
[ 10763 10752 10751 10750 ] final    8.26 input  -60.55 | X-H torsion
[ 11005 11000 10999 10996 ] final   74.17 input  -57.11 | X-H torsion

> <Gold.Protein.ActiveResidues>
 VAL166  LYS551  ARG553  GLY616  TRP617  ASP618  TYR619  PRO620  LYS621  CYS622 
 ASP623  PHE694  ASN695  SER759  ASP760  ASP761  ALA762  ILE779  LEU786  VAL792 
 PHE793  MET794  SER795  GLU796  ALA797  LYS798  CYS799  TRP800  GLU811  SER814 

> <Gold.Protein.RotatedAtoms>
  151.0726  134.9808  159.8315 H   0  0  0  0  0  0  0  0  0  0  0  0  # atno 6907 bound_to 6896
  152.5410  134.2280  159.8824 H   0  0  0  0  0  0  0  0  0  0  0  0  # atno 6908 bound_to 6896
  151.2306  133.4409  159.2637 H   0  0  0  0  0  0  0  0  0  0  0  0  # atno 6909 bound_to 6896
  146.0451  139.4930  142.9753 H   0  0  0  0  0  0  0  0  0  0  0  0  # atno 7974 bound_to 7965
  156.2895  140.2665  156.2300 H   0  0  0  0  0  0  0  0  0  0  0  0  # atno 8008 bound_to 7997
  155.0082  140.0387  157.2407 H   0  0  0  0  0  0  0  0  0  0  0  0  # atno 8009 bound_to 7997
  154.7541  140.2748  155.6273 H   0  0  0  0  0  0  0  0  0  0  0  0  # atno 8010 bound_to 7997
  140.6466  143.7646  150.7509 H   0  0  0  0  0  0  0  0  0  0  0  0  # atno 10167 bound_to 10162
  157.4064  131.1023  151.0499 H   0  0  0  0  0  0  0  0  0  0  0  0  # atno 10718 bound_to 10713
  153.2270  135.6888  153.7934 H   0  0  0  0  0  0  0  0  0  0  0  0  # atno 10763 bound_to 10752
  153.7112  135.3282  155.3247 H   0  0  0  0  0  0  0  0  0  0  0  0  # atno 10764 bound_to 10752
  154.8296  135.4591  154.1140 H   0  0  0  0  0  0  0  0  0  0  0  0  # atno 10765 bound_to 10752
  139.9404  134.7409  156.1115 H   0  0  0  0  0  0  0  0  0  0  0  0  # atno 11005 bound_to 11000
  145.6819  141.0189  143.1602 LP  0  0  0  0  0  0  0  0  0  0  0  0  # atno 17320 bound_to 7965
  144.7094  139.8431  143.7419 LP  0  0  0  0  0  0  0  0  0  0  0  0  # atno 17321 bound_to 7965
  140.1288  143.4544  152.2267 LP  0  0  0  0  0  0  0  0  0  0  0  0  # atno 17342 bound_to 10162
  139.5678  144.7445  151.3975 LP  0  0  0  0  0  0  0  0  0  0  0  0  # atno 17343 bound_to 10162
  157.1479  130.6171  149.5574 LP  0  0  0  0  0  0  0  0  0  0  0  0  # atno 17370 bound_to 10713
  155.9838  130.4859  150.6950 LP  0  0  0  0  0  0  0  0  0  0  0  0  # atno 17371 bound_to 10713
  141.1036  133.6668  156.2812 LP  0  0  0  0  0  0  0  0  0  0  0  0  # atno 17394 bound_to 11000
  140.5966  134.5597  157.5510 LP  0  0  0  0  0  0  0  0  0  0  0  0  # atno 17395 bound_to 11000

$$$$
