AV-unprocessed.smi:1413|AV-procd|sdf|5753|dock2
  -GOLD-   22720 5393D 1   1.00000     0.00000
 Structure written by MMmdl.
 53 55  0  0  0  0  0  0  0  0  1 V2000
  151.2525  144.6513  158.1554 C   0  0  0  0  0  0  0  0  0  0  0  0
  152.0326  143.3328  158.1405 C   0  0  2  0  0  0  0  0  0  0  0  0
  151.2043  142.1772  157.5482 C   0  0  0  0  0  0  0  0  0  0  0  0
  151.9369  140.9183  157.6536 N   0  0  0  0  0  0  0  0  0  0  0  0
  151.4171  139.8428  156.9003 C   0  0  0  0  0  0  0  0  0  0  0  0
  151.3825  139.9131  155.4878 C   0  0  0  0  0  0  0  0  0  0  0  0
  150.8517  138.8320  154.7593 C   0  0  0  0  0  0  0  0  0  0  0  0
  150.3632  137.7068  155.4506 C   0  0  0  0  0  0  0  0  0  0  0  0
  149.8436  136.6296  154.6823 N   0  0  0  0  0  0  0  0  0  0  0  0
  149.4830  135.4005  155.0897 C   0  0  0  0  0  0  0  0  0  0  0  0
  149.5475  134.9835  156.2457 O   0  0  0  0  0  0  0  0  0  0  0  0
  149.0212  134.6709  154.0645 N   0  0  0  0  0  0  0  0  0  0  0  0
  148.5235  133.3004  154.1554 C   0  0  2  0  0  0  0  0  0  0  0  0
  149.6327  132.3241  153.7275 C   0  0  0  0  0  0  0  0  0  0  0  0
  147.2543  133.1644  153.2917 C   0  0  1  0  0  0  0  0  0  0  0  0
  147.5019  133.2259  151.7824 C   0  0  0  0  0  0  0  0  0  0  0  0
  146.3341  132.4349  151.2413 C   0  0  0  0  0  0  0  0  0  0  0  0
  146.2195  131.3205  152.2745 C   0  0  0  0  0  0  0  0  0  0  0  0
  146.6388  131.8941  153.5094 O   0  0  0  0  0  0  0  0  0  0  0  0
  150.4569  137.7159  156.8627 C   0  0  0  0  0  0  0  0  0  0  0  0
  150.9666  138.7502  157.5645 N   0  0  0  0  0  0  0  0  0  0  0  0
  152.4104  140.6405  159.0083 C   0  0  0  0  0  0  0  0  0  0  0  0
  153.2017  141.8408  159.5613 C   0  0  2  0  0  0  0  0  0  0  0  0
  153.6074  141.6365  161.0248 C   0  0  0  0  0  0  0  0  0  0  0  0
  152.3939  143.0117  159.4810 O   0  0  0  0  0  0  0  0  0  0  0  0
  150.9606  144.9456  157.1468 H   0  0  0  0  0  0  0  0  0  0  0  0
  151.8563  145.4564  158.5748 H   0  0  0  0  0  0  0  0  0  0  0  0
  150.3461  144.5672  158.7554 H   0  0  0  0  0  0  0  0  0  0  0  0
  152.9391  143.4746  157.5493 H   0  0  0  0  0  0  0  0  0  0  0  0
  150.2604  142.0772  158.0858 H   0  0  0  0  0  0  0  0  0  0  0  0
  150.9554  142.4134  156.5147 H   0  0  0  0  0  0  0  0  0  0  0  0
  151.7664  140.7711  154.9568 H   0  0  0  0  0  0  0  0  0  0  0  0
  150.8204  138.8707  153.6800 H   0  0  0  0  0  0  0  0  0  0  0  0
  149.6732  136.8381  153.7095 H   0  0  0  0  0  0  0  0  0  0  0  0
  148.9959  135.0998  153.1512 H   0  0  0  0  0  0  0  0  0  0  0  0
  148.2513  133.0849  155.1903 H   0  0  0  0  0  0  0  0  0  0  0  0
  149.3088  131.2876  153.8200 H   0  0  0  0  0  0  0  0  0  0  0  0
  150.5212  132.4405  154.3491 H   0  0  0  0  0  0  0  0  0  0  0  0
  149.9282  132.4893  152.6909 H   0  0  0  0  0  0  0  0  0  0  0  0
  146.5270  133.9314  153.5643 H   0  0  0  0  0  0  0  0  0  0  0  0
  147.5397  134.2459  151.3983 H   0  0  0  0  0  0  0  0  0  0  0  0
  148.4377  132.7280  151.5234 H   0  0  0  0  0  0  0  0  0  0  0  0
  145.4314  133.0474  151.2434 H   0  0  0  0  0  0  0  0  0  0  0  0
  146.4969  132.0630  150.2293 H   0  0  0  0  0  0  0  0  0  0  0  0
  145.2096  130.9159  152.3426 H   0  0  0  0  0  0  0  0  0  0  0  0
  146.8968  130.5021  152.0267 H   0  0  0  0  0  0  0  0  0  0  0  0
  150.1402  136.8804  157.4662 H   0  0  0  0  0  0  0  0  0  0  0  0
  151.5547  140.4260  159.6503 H   0  0  0  0  0  0  0  0  0  0  0  0
  153.0490  139.7562  159.0088 H   0  0  0  0  0  0  0  0  0  0  0  0
  154.1062  141.9890  158.9682 H   0  0  0  0  0  0  0  0  0  0  0  0
  154.2367  140.7534  161.1381 H   0  0  0  0  0  0  0  0  0  0  0  0
  152.7320  141.5080  161.6621 H   0  0  0  0  0  0  0  0  0  0  0  0
  154.1676  142.4943  161.3975 H   0  0  0  0  0  0  0  0  0  0  0  0
  1  2  1  0  0  0  0
  1 26  1  0  0  0  0
  1 27  1  0  0  0  0
  1 28  1  0  0  0  0
  2 25  1  0  0  0  0
  2  3  1  0  0  0  0
  2 29  1  0  0  0  0
  3  4  1  0  0  0  0
  3 30  1  0  0  0  0
  3 31  1  0  0  0  0
  4  5  1  0  0  0  0
  4 22  1  0  0  0  0
  5 21  1  0  0  0  0
  5  6  2  0  0  0  0
  6  7  1  0  0  0  0
  6 32  1  0  0  0  0
  7  8  2  0  0  0  0
  7 33  1  0  0  0  0
  8  9  1  0  0  0  0
  8 20  1  0  0  0  0
  9 10  1  0  0  0  0
  9 34  1  0  0  0  0
 10 11  2  0  0  0  0
 10 12  1  0  0  0  0
 12 13  1  0  0  0  0
 12 35  1  0  0  0  0
 13 14  1  0  0  0  0
 13 15  1  0  0  0  0
 13 36  1  0  0  0  0
 14 37  1  0  0  0  0
 14 38  1  0  0  0  0
 14 39  1  0  0  0  0
 15 19  1  0  0  0  0
 15 16  1  0  0  0  0
 15 40  1  0  0  0  0
 16 17  1  0  0  0  0
 16 41  1  0  0  0  0
 16 42  1  0  0  0  0
 17 18  1  0  0  0  0
 17 43  1  0  0  0  0
 17 44  1  0  0  0  0
 18 19  1  0  0  0  0
 18 45  1  0  0  0  0
 18 46  1  0  0  0  0
 20 21  2  0  0  0  0
 20 47  1  0  0  0  0
 22 23  1  0  0  0  0
 22 48  1  0  0  0  0
 22 49  1  0  0  0  0
 23 24  1  0  0  0  0
 23 25  1  0  0  0  0
 23 50  1  0  0  0  0
 24 51  1  0  0  0  0
 24 52  1  0  0  0  0
 24 53  1  0  0  0  0
M  END
> <s_m_source_file>
AV-unprocessed.smi

> <i_m_source_file_index>
1413

> <i_lp_mmshare_version>
43012

> <i_f3d_flags>
0

> <s_epik_input>
W0NIM11bQ0BASF0xW0NIMl1OKFtDSDJdW0NASF0oTzEpW0NIM10pYzJbY0hdW2NIXWMoW2NIXW4yKVtOSF1DKD1PKVtOSF1bQ0BIXShbQ0gzXSlbQ0BASF0zW0NIMl1bQ0gyXVtDSDJdTzM=

> <s_epik_cmdline>
J2VwaWtfcHl0aG9uJywgJy1waCcsICc3LjAnLCAnLXRuJywgJzgnLCAnLW1hJywgJzIwMCcsICctbWV0YWxfYmluZGluZycsICctaW1hZScsICc8aW5maWxlLm1hZT4nLCAnLW9tYWUnLCAnPG91dGZpbGUubWFlPic=

> <r_lp_tautomer_probability>
1

> <r_epik_Ionization_Penalty>
0.00271172

> <r_epik_Ionization_Penalty_Charging>
0

> <r_epik_Ionization_Penalty_Neutral>
0.00271172

> <r_epik_State_Penalty>
0.00186503

> <r_epik_Charging_Adjusted_Penalty>
0.00186503

> <i_epik_Tot_Q>
0

> <i_epik_Tot_abs_Q>
0

> <r_epik_Metal_State_Penalty>
-0

> <b_epik_Metal_Only>
0

> <s_lp_Force_Field>
OPLS_2005

> <r_lp_Energy>
33.9013

> <b_lp_Chiralities_Consistent>
1

> <s_lp_Variant>
AV-unprocessed.smi:1413-6

> <Gold.Version>
5.8.1

> <Gold.Id.Protein>
6NUR|6NUR_protein|mol2

> <Gold.PLP.Fitness>
49.1298

> <Gold.PLP.PLP>
-44.2002

> <Gold.PLP.part.hbond>
-2.0000

> <Gold.PLP.part.metal>
0.0000

> <Gold.PLP.part.buried>
-5.7700

> <Gold.PLP.part.nonpolar>
-35.4744

> <Gold.PLP.part.repulsive>
0.1867

> <Gold.PLP.ligand.clash>
0.0000

> <Gold.PLP.ligand.torsion>
0.6844

> <Gold.PLP.Chemscore.Hbond>
1.9833

> <Gold.PLP.Chemscore.CHOScore>
0.0000

> <Gold.PLP.Chemscore.Metal>
0.0000

> <Gold.Chemscore.Hbonds>
donor molecule, donor type, donor heavy atom, donor atom, acceptor molecule, acceptor atom, score
      L1  H     9    34       P1  7948  0.97
      L1  H    12    35       P1  7948  1.00

> <Gold.PLP.Chemscore.Internal.Correction>
0.3485

> <Gold.Rescore>
     Score         DG    S(hbond)    S(metal)    S(lipo)     H(rot)  DE(clash)    DE(int)     intcor
     19.28     -21.37       1.75        0.00     115.28       1.35       0.11       1.97       ----

> <Gold.Chemscore.Fitness>
19.2837

> <Gold.Chemscore.DG>
-21.3674

> <Gold.Chemscore.ZeroCoef>
-5.4800

> <Gold.Chemscore.Hbond>
1.7509

> <Gold.Chemscore.Metal>
0.0000

> <Gold.Chemscore.Lipo>
115.2821

> <Gold.Chemscore.Internal_Hbond>
0.0000

> <Gold.Chemscore.DEClash>
0.1117

> <Gold.Chemscore.DEInternal>
1.9720

> <Gold.Chemscore.Rot>
1.3471

> <Gold.Chemscore.Internal.Correction>
   9.000000E+99

> <Gold.Chemscore.Hbonds>
donor molecule, donor type, donor heavy atom, donor atom, acceptor molecule, acceptor atom, score
      L1  H     9    34       P1  7948  0.60
      L1  H    12    35       P1  7948  0.26

> <Gold.Chemscore.Hbond.Weighted>
-5.8480

> <Gold.Chemscore.Metal.Weighted>
-0.0000

> <Gold.Chemscore.Lipo.Weighted>
-13.4880

> <Gold.Chemscore.Internal_Hbond.Weighted>
0.0000

> <Gold.Chemscore.DEClash.Weighted>
0.1117

> <Gold.Chemscore.DEInternal.Weighted>
1.9720

> <Gold.Chemscore.Rot.Weighted>
3.4485

> <Gold.Chemscore.Internal.Correction.Weighted>
   9.000000E+99

> <Gold.Protein.RotatedTorsions>
[ 6907 6896 6895 6894 ] final  178.11 input  -60.11 | X-H torsion
[ 7974 7965 7964 7962 ] final  -56.77 input  175.53 | X-H torsion
[ 8008 7997 7996 7995 ] final   95.21 input   59.86 | X-H torsion
[ 10167 10162 10161 10158 ] final  -38.11 input  -65.29 | X-H torsion
[ 10718 10713 10712 10709 ] final   60.83 input   66.30 | X-H torsion
[ 10763 10752 10751 10750 ] final  -56.81 input  -60.55 | X-H torsion
[ 11005 11000 10999 10996 ] final  -19.56 input  -57.11 | X-H torsion

> <Gold.Protein.ActiveResidues>
 VAL166  LYS551  ARG553  GLY616  TRP617  ASP618  TYR619  PRO620  LYS621  CYS622 
 ASP623  PHE694  ASN695  SER759  ASP760  ASP761  ALA762  ILE779  LEU786  VAL792 
 PHE793  MET794  SER795  GLU796  ALA797  LYS798  CYS799  TRP800  GLU811  SER814 

> <Gold.Protein.RotatedAtoms>
  151.6932  133.3311  159.3247 H   0  0  0  0  0  0  0  0  0  0  0  0  # atno 6907 bound_to 6896
  150.7769  134.6681  159.6385 H   0  0  0  0  0  0  0  0  0  0  0  0  # atno 6908 bound_to 6896
  152.3815  134.6586  160.0193 H   0  0  0  0  0  0  0  0  0  0  0  0  # atno 6909 bound_to 6896
  145.8588  140.8300  142.9948 H   0  0  0  0  0  0  0  0  0  0  0  0  # atno 7974 bound_to 7965
  156.0664  140.3289  155.7523 H   0  0  0  0  0  0  0  0  0  0  0  0  # atno 8008 bound_to 7997
  155.5374  140.0598  157.2894 H   0  0  0  0  0  0  0  0  0  0  0  0  # atno 8009 bound_to 7997
  154.4507  140.1917  156.0545 H   0  0  0  0  0  0  0  0  0  0  0  0  # atno 8010 bound_to 7997
  140.7101  143.3298  151.2594 H   0  0  0  0  0  0  0  0  0  0  0  0  # atno 10167 bound_to 10162
  157.5783  130.8961  149.9385 H   0  0  0  0  0  0  0  0  0  0  0  0  # atno 10718 bound_to 10713
  154.2125  135.6392  153.5119 H   0  0  0  0  0  0  0  0  0  0  0  0  # atno 10763 bound_to 10752
  152.9987  135.5477  154.6200 H   0  0  0  0  0  0  0  0  0  0  0  0  # atno 10764 bound_to 10752
  154.5640  135.2911  155.0865 H   0  0  0  0  0  0  0  0  0  0  0  0  # atno 10765 bound_to 10752
  140.8379  133.7948  155.9828 H   0  0  0  0  0  0  0  0  0  0  0  0  # atno 11005 bound_to 11000
  144.6727  140.1063  143.7458 LP  0  0  0  0  0  0  0  0  0  0  0  0  # atno 17320 bound_to 7965
  145.9273  139.2583  143.1346 LP  0  0  0  0  0  0  0  0  0  0  0  0  # atno 17321 bound_to 7965
  139.6777  143.9908  152.2791 LP  0  0  0  0  0  0  0  0  0  0  0  0  # atno 17342 bound_to 10162
  139.9528  144.6609  150.8155 LP  0  0  0  0  0  0  0  0  0  0  0  0  # atno 17343 bound_to 10162
  156.0828  130.3671  150.0547 LP  0  0  0  0  0  0  0  0  0  0  0  0  # atno 17370 bound_to 10713
  156.8690  130.9518  151.3611 LP  0  0  0  0  0  0  0  0  0  0  0  0  # atno 17371 bound_to 10713
  140.8927  134.2475  157.5085 LP  0  0  0  0  0  0  0  0  0  0  0  0  # atno 17394 bound_to 11000
  139.8704  134.9669  156.4579 LP  0  0  0  0  0  0  0  0  0  0  0  0  # atno 17395 bound_to 11000

$$$$
