AV-unprocessed.smi:2892|AV-procd|sdf|11121|dock5
  -GOLD-   2272015593D 1   1.00000     0.00000
 Structure written by MMmdl.
 42 42  0  0  0  0  0  0  0  0  2 V2000
  146.4355  140.0199  156.2350 C   0  0  0  0  0  0  0  0  0  0  0  0
  147.8061  139.7069  155.6169 C   0  0  0  0  0  0  0  0  0  0  0  0
  148.0768  138.1968  155.3827 C   0  0  1  0  0  0  0  0  0  0  0  0
  147.1160  137.6395  154.3068 C   0  0  0  0  0  0  0  0  0  0  0  0
  149.5725  137.9314  155.0264 C   0  0  1  0  0  0  0  0  0  0  0  0
  150.4230  138.4255  156.1081 N   0  0  0  0  0  0  0  0  0  0  0  0
  151.4672  139.2602  155.9806 C   0  0  0  0  0  0  0  0  0  0  0  0
  151.8678  139.6920  154.8999 O   0  0  0  0  0  0  0  0  0  0  0  0
  152.1660  139.6782  157.2773 C   0  0  0  0  0  0  0  0  0  0  0  0
  151.8282  141.1052  157.6254 C   0  0  0  0  0  0  0  0  0  0  0  0
  150.9256  141.9811  156.9567 C   0  0  0  0  0  0  0  0  0  0  0  0
  151.0219  143.1501  157.6549 C   0  0  0  0  0  0  0  0  0  0  0  0
  151.9256  142.9476  158.6762 N   0  0  0  0  0  0  0  0  0  0  0  0
  152.3815  143.9005  159.6771 C   0  0  0  0  0  0  0  0  0  0  0  0
  152.1473  143.3609  161.0971 C   0  0  0  0  0  0  0  0  0  0  0  0
  151.7352  145.2806  159.4721 C   0  0  0  0  0  0  0  0  0  0  0  0
  152.4162  141.6885  158.6602 N   0  0  0  0  0  0  0  0  0  0  0  0
  149.8634  136.4294  154.8637 C   0  0  0  0  0  0  0  0  0  0  0  0
  148.9081  135.6427  155.0422 O   0  0  0  0  0  0  0  0  0  0  0  0
  151.0318  136.0919  154.5665 O   0  5  0  0  0  0  0  0  0  0  0  0
  146.3511  141.0829  156.4598 H   0  0  0  0  0  0  0  0  0  0  0  0
  146.2893  139.4730  157.1666 H   0  0  0  0  0  0  0  0  0  0  0  0
  145.6164  139.7698  155.5620 H   0  0  0  0  0  0  0  0  0  0  0  0
  147.9174  140.2517  154.6786 H   0  0  0  0  0  0  0  0  0  0  0  0
  148.5531  140.1260  156.2908 H   0  0  0  0  0  0  0  0  0  0  0  0
  147.8574  137.6778  156.3174 H   0  0  0  0  0  0  0  0  0  0  0  0
  147.2876  138.1165  153.3415 H   0  0  0  0  0  0  0  0  0  0  0  0
  146.0722  137.7971  154.5740 H   0  0  0  0  0  0  0  0  0  0  0  0
  147.2303  136.5647  154.1684 H   0  0  0  0  0  0  0  0  0  0  0  0
  149.8066  138.4395  154.0888 H   0  0  0  0  0  0  0  0  0  0  0  0
  150.1875  138.1070  157.0366 H   0  0  0  0  0  0  0  0  0  0  0  0
  151.8544  139.0053  158.0768 H   0  0  0  0  0  0  0  0  0  0  0  0
  153.2445  139.5553  157.1684 H   0  0  0  0  0  0  0  0  0  0  0  0
  150.3134  141.7839  156.0893 H   0  0  0  0  0  0  0  0  0  0  0  0
  150.5298  144.1004  157.5078 H   0  0  0  0  0  0  0  0  0  0  0  0
  153.4577  144.0172  159.5407 H   0  0  0  0  0  0  0  0  0  0  0  0
  152.5474  144.0437  161.8468 H   0  0  0  0  0  0  0  0  0  0  0  0
  152.6377  142.3968  161.2340 H   0  0  0  0  0  0  0  0  0  0  0  0
  151.0853  143.2259  161.3050 H   0  0  0  0  0  0  0  0  0  0  0  0
  152.1417  146.0095  160.1736 H   0  0  0  0  0  0  0  0  0  0  0  0
  150.6556  145.2458  159.6219 H   0  0  0  0  0  0  0  0  0  0  0  0
  151.9211  145.6541  158.4647 H   0  0  0  0  0  0  0  0  0  0  0  0
  1  2  1  0  0  0  0
  1 21  1  0  0  0  0
  1 22  1  0  0  0  0
  1 23  1  0  0  0  0
  2  3  1  0  0  0  0
  2 24  1  0  0  0  0
  2 25  1  0  0  0  0
  3  4  1  0  0  0  0
  3  5  1  0  0  0  0
  3 26  1  0  0  0  0
  4 27  1  0  0  0  0
  4 28  1  0  0  0  0
  4 29  1  0  0  0  0
  5  6  1  0  0  0  0
  5 18  1  0  0  0  0
  5 30  1  0  0  0  0
  6  7  1  0  0  0  0
  6 31  1  0  0  0  0
  7  8  2  0  0  0  0
  7  9  1  0  0  0  0
  9 10  1  0  0  0  0
  9 32  1  0  0  0  0
  9 33  1  0  0  0  0
 10 17  2  0  0  0  0
 10 11  1  0  0  0  0
 11 12  2  0  0  0  0
 11 34  1  0  0  0  0
 12 13  1  0  0  0  0
 12 35  1  0  0  0  0
 13 14  1  0  0  0  0
 13 17  1  0  0  0  0
 14 15  1  0  0  0  0
 14 16  1  0  0  0  0
 14 36  1  0  0  0  0
 15 37  1  0  0  0  0
 15 38  1  0  0  0  0
 15 39  1  0  0  0  0
 16 40  1  0  0  0  0
 16 41  1  0  0  0  0
 16 42  1  0  0  0  0
 18 19  2  0  0  0  0
 18 20  1  0  0  0  0
M  CHG  1  20  -1
M  END
> <s_m_source_file>
AV-unprocessed.smi

> <i_m_source_file_index>
2892

> <i_lp_mmshare_version>
43012

> <i_f3d_flags>
0

> <s_epik_input>
W0NIM11bQ0gyXVtDQEhdKFtDSDNdKVtDQEBIXShDKD1PKVtPSF0pW05IXUMoPU8pW0NIMl1jMVtjSF1bY0hdbihuMSlbQ0hdKFtDSDNdKVtDSDNd

> <s_epik_cmdline>
J2VwaWtfcHl0aG9uJywgJy1waCcsICc3LjAnLCAnLXRuJywgJzgnLCAnLW1hJywgJzIwMCcsICctbWV0YWxfYmluZGluZycsICctaW1hZScsICc8aW5maWxlLm1hZT4nLCAnLW9tYWUnLCAnPG91dGZpbGUubWFlPic=

> <r_lp_tautomer_probability>
1

> <r_epik_Ionization_Penalty>
0.000286846

> <r_epik_Ionization_Penalty_Charging>
0.000224481

> <r_epik_Ionization_Penalty_Neutral>
6.23655e-05

> <r_epik_State_Penalty>
-0

> <r_epik_Charging_Adjusted_Penalty>
0.000224481

> <i_epik_Tot_Q>
-1

> <i_epik_Tot_abs_Q>
1

> <r_epik_Metal_State_Penalty>
-0

> <b_epik_Metal_Only>
0

> <s_lp_Force_Field>
OPLS_2005

> <r_lp_Energy>
13.265

> <b_lp_Chiralities_Consistent>
1

> <s_lp_Variant>
AV-unprocessed.smi:2892-4

> <Gold.Version>
5.8.1

> <Gold.Id.Protein>
6NUR|6NUR_protein|mol2

> <Gold.PLP.Fitness>
43.1205

> <Gold.PLP.PLP>
-31.7382

> <Gold.PLP.part.hbond>
-2.0000

> <Gold.PLP.part.metal>
0.0000

> <Gold.PLP.part.buried>
-5.3296

> <Gold.PLP.part.nonpolar>
-25.6181

> <Gold.PLP.part.repulsive>
0.3191

> <Gold.PLP.ligand.clash>
0.0000

> <Gold.PLP.ligand.torsion>
0.3142

> <Gold.PLP.Chemscore.Hbond>
2.9600

> <Gold.PLP.Chemscore.CHOScore>
0.9975

> <Gold.PLP.Chemscore.Metal>
0.0000

> <Gold.Chemscore.Hbonds>
donor molecule, donor type, donor heavy atom, donor atom, acceptor molecule, acceptor atom, score
      P1  H  7989  7998       L1     8  0.98
      P1  H 10752 10765       L1    20  1.93
      L1  C    12    35       P1  8028  0.97

> <Gold.PLP.Chemscore.Internal.Correction>
0.1383

> <Gold.Rescore>
     Score         DG    S(hbond)    S(metal)    S(lipo)     H(rot)  DE(clash)    DE(int)     intcor
     13.68     -15.23       1.89        0.00      81.63       2.39       0.12       1.43       ----

> <Gold.Chemscore.Fitness>
13.6813

> <Gold.Chemscore.DG>
-15.2311

> <Gold.Chemscore.ZeroCoef>
-5.4800

> <Gold.Chemscore.Hbond>
1.8892

> <Gold.Chemscore.Metal>
0.0000

> <Gold.Chemscore.Lipo>
81.6281

> <Gold.Chemscore.Internal_Hbond>
0.0000

> <Gold.Chemscore.DEClash>
0.1170

> <Gold.Chemscore.DEInternal>
1.4327

> <Gold.Chemscore.Rot>
2.3865

> <Gold.Chemscore.Internal.Correction>
   9.000000E+99

> <Gold.Chemscore.Hbonds>
donor molecule, donor type, donor heavy atom, donor atom, acceptor molecule, acceptor atom, score
      P1  H  7989  7998       L1     8  0.93
      P1  H 10752 10765       L1    20  0.86

> <Gold.Chemscore.Hbond.Weighted>
-6.3099

> <Gold.Chemscore.Metal.Weighted>
-0.0000

> <Gold.Chemscore.Lipo.Weighted>
-9.5505

> <Gold.Chemscore.Internal_Hbond.Weighted>
0.0000

> <Gold.Chemscore.DEClash.Weighted>
0.1170

> <Gold.Chemscore.DEInternal.Weighted>
1.4327

> <Gold.Chemscore.Rot.Weighted>
6.1093

> <Gold.Chemscore.Internal.Correction.Weighted>
   9.000000E+99

> <Gold.Protein.RotatedTorsions>
[ 6907 6896 6895 6894 ] final  170.40 input  -60.11 | X-H torsion
[ 7974 7965 7964 7962 ] final   -3.04 input  175.53 | X-H torsion
[ 8008 7997 7996 7995 ] final   54.57 input   59.86 | X-H torsion
[ 10167 10162 10161 10158 ] final  141.72 input  -65.29 | X-H torsion
[ 10718 10713 10712 10709 ] final   31.74 input   66.30 | X-H torsion
[ 10763 10752 10751 10750 ] final -167.73 input  -60.55 | X-H torsion
[ 11005 11000 10999 10996 ] final  127.87 input  -57.11 | X-H torsion

> <Gold.Protein.ActiveResidues>
 VAL166  LYS551  ARG553  GLY616  TRP617  ASP618  TYR619  PRO620  LYS621  CYS622 
 ASP623  PHE694  ASN695  SER759  ASP760  ASP761  ALA762  ILE779  LEU786  VAL792 
 PHE793  MET794  SER795  GLU796  ALA797  LYS798  CYS799  TRP800  GLU811  SER814 

> <Gold.Protein.RotatedAtoms>
  151.8166  133.3389  159.3571 H   0  0  0  0  0  0  0  0  0  0  0  0  # atno 6907 bound_to 6896
  150.7308  134.5613  159.5853 H   0  0  0  0  0  0  0  0  0  0  0  0  # atno 6908 bound_to 6896
  152.3036  134.7583  160.0403 H   0  0  0  0  0  0  0  0  0  0  0  0  # atno 6909 bound_to 6896
  146.2396  140.1661  142.8332 H   0  0  0  0  0  0  0  0  0  0  0  0  # atno 7974 bound_to 7965
  155.4869  140.3470  155.4348 H   0  0  0  0  0  0  0  0  0  0  0  0  # atno 8008 bound_to 7997
  156.1002  140.1433  156.9505 H   0  0  0  0  0  0  0  0  0  0  0  0  # atno 8009 bound_to 7997
  154.4689  140.0908  156.7071 H   0  0  0  0  0  0  0  0  0  0  0  0  # atno 8010 bound_to 7997
  139.5013  144.6153  151.6177 H   0  0  0  0  0  0  0  0  0  0  0  0  # atno 10167 bound_to 10162
  157.2764  130.7233  149.6532 H   0  0  0  0  0  0  0  0  0  0  0  0  # atno 10718 bound_to 10713
  154.6702  135.2938  154.9752 H   0  0  0  0  0  0  0  0  0  0  0  0  # atno 10763 bound_to 10752
  154.0782  135.6608  153.4838 H   0  0  0  0  0  0  0  0  0  0  0  0  # atno 10764 bound_to 10752
  153.0482  135.5191  154.7694 H   0  0  0  0  0  0  0  0  0  0  0  0  # atno 10765 bound_to 10752
  139.9530  134.9618  156.8918 H   0  0  0  0  0  0  0  0  0  0  0  0  # atno 11005 bound_to 11000
  145.0049  140.8664  143.5259 LP  0  0  0  0  0  0  0  0  0  0  0  0  # atno 17320 bound_to 7965
  145.1686  139.2417  143.5354 LP  0  0  0  0  0  0  0  0  0  0  0  0  # atno 17321 bound_to 7965
  140.5840  143.9897  150.6284 LP  0  0  0  0  0  0  0  0  0  0  0  0  # atno 17342 bound_to 10162
  140.3055  143.3232  152.0930 LP  0  0  0  0  0  0  0  0  0  0  0  0  # atno 17343 bound_to 10162
  155.9664  130.4351  150.5080 LP  0  0  0  0  0  0  0  0  0  0  0  0  # atno 17370 bound_to 10713
  157.3015  131.0646  151.2065 LP  0  0  0  0  0  0  0  0  0  0  0  0  # atno 17371 bound_to 10713
  140.5674  134.0476  155.7419 LP  0  0  0  0  0  0  0  0  0  0  0  0  # atno 17394 bound_to 11000
  141.1197  133.9482  157.2754 LP  0  0  0  0  0  0  0  0  0  0  0  0  # atno 17395 bound_to 11000

$$$$
