AV-unprocessed.smi:218|AV-procd|sdf|1667|dock2
  -GOLD-   2262020 73D 1   1.00000     0.00000
 Structure written by MMmdl.
 54 57  0  0  0  0  0  0  0  0  1 V2000
  150.9314  145.6980  160.0473 C   0  0  0  0  0  0  0  0  0  0  0  0
  151.9438  144.5936  159.7205 C   0  0  0  0  0  0  0  0  0  0  0  0
  151.8899  144.2131  158.2308 C   0  0  0  0  0  0  0  0  0  0  0  0
  151.6065  143.4682  160.5339 O   0  0  0  0  0  0  0  0  0  0  0  0
  152.3364  142.2989  160.4384 C   0  0  0  0  0  0  0  0  0  0  0  0
  152.0725  141.4344  159.3565 C   0  0  0  0  0  0  0  0  0  0  0  0
  152.8123  140.2382  159.2406 C   0  0  0  0  0  0  0  0  0  0  0  0
  152.5714  139.2679  158.0946 C   0  0  0  0  0  0  0  0  0  0  0  0
  152.3962  139.8806  156.7815 N   0  0  0  0  0  0  0  0  0  0  0  0
  151.4087  139.4711  155.9552 C   0  0  0  0  0  0  0  0  0  0  0  0
  151.6009  138.4478  155.0817 N   0  0  0  0  0  0  0  0  0  0  0  0
  150.6072  138.0605  154.2759 C   0  0  0  0  0  0  0  0  0  0  0  0
  149.3666  138.5461  154.1873 N   0  0  0  0  0  0  0  0  0  0  0  0
  149.1697  139.5699  155.0674 C   0  0  0  0  0  0  0  0  0  0  0  0
  150.1314  140.0877  155.9775 C   0  0  0  0  0  0  0  0  0  0  0  0
  149.5718  141.1251  156.7120 N   0  0  0  0  0  0  0  0  0  0  0  0
  148.3494  141.2104  156.2590 C   0  0  0  0  0  0  0  0  0  0  0  0
  148.0266  140.3136  155.2613 N   0  0  0  0  0  0  0  0  0  0  0  0
  146.7348  140.1296  154.5228 C   0  0  1  0  0  0  0  0  0  0  0  0
  147.0110  140.1036  153.1538 O   0  0  0  0  0  0  0  0  0  0  0  0
  146.9502  138.7653  152.6780 C   0  0  2  0  0  0  0  0  0  0  0  0
  146.7893  138.7270  151.1484 C   0  0  0  0  0  0  0  0  0  0  0  0
  146.3931  137.4378  150.7322 O   0  0  0  0  0  0  0  0  0  0  0  0
  145.8224  138.1487  153.5155 C   0  0  2  0  0  0  0  0  0  0  0  0
  144.5511  138.4859  152.9919 O   0  0  0  0  0  0  0  0  0  0  0  0
  146.0278  138.7970  154.8798 C   0  0  1  0  0  0  0  0  0  0  0  0
  146.7936  137.9389  155.7093 O   0  0  0  0  0  0  0  0  0  0  0  0
  153.7806  139.9498  160.2225 C   0  0  0  0  0  0  0  0  0  0  0  0
  153.9709  140.8725  161.2690 C   0  0  0  0  0  0  0  0  0  0  0  0
  153.2694  142.0198  161.3825 N   0  0  0  0  0  0  0  0  0  0  0  0
  146.1483  141.0159  154.7682 H   0  0  0  0  0  0  0  0  0  0  0  0
  147.8886  138.2773  152.9466 H   0  0  0  0  0  0  0  0  0  0  0  0
  145.8912  137.0602  153.5516 H   0  0  0  0  0  0  0  0  0  0  0  0
  145.0831  139.0062  155.3835 H   0  0  0  0  0  0  0  0  0  0  0  0
  151.1365  146.6020  159.4729 H   0  0  0  0  0  0  0  0  0  0  0  0
  150.9699  145.9616  161.1046 H   0  0  0  0  0  0  0  0  0  0  0  0
  149.9129  145.3811  159.8202 H   0  0  0  0  0  0  0  0  0  0  0  0
  152.9331  144.9784  159.9727 H   0  0  0  0  0  0  0  0  0  0  0  0
  152.1008  145.0767  157.5997 H   0  0  0  0  0  0  0  0  0  0  0  0
  150.9049  143.8339  157.9577 H   0  0  0  0  0  0  0  0  0  0  0  0
  152.6197  143.4434  157.9824 H   0  0  0  0  0  0  0  0  0  0  0  0
  151.3173  141.6921  158.6285 H   0  0  0  0  0  0  0  0  0  0  0  0
  153.3874  138.5454  158.0464 H   0  0  0  0  0  0  0  0  0  0  0  0
  151.6716  138.6962  158.3213 H   0  0  0  0  0  0  0  0  0  0  0  0
  153.1344  140.5029  156.4860 H   0  0  0  0  0  0  0  0  0  0  0  0
  150.8394  137.2445  153.6074 H   0  0  0  0  0  0  0  0  0  0  0  0
  147.6509  141.9357  156.6489 H   0  0  0  0  0  0  0  0  0  0  0  0
  146.0676  139.4658  150.7990 H   0  0  0  0  0  0  0  0  0  0  0  0
  147.7403  138.9639  150.6708 H   0  0  0  0  0  0  0  0  0  0  0  0
  145.6186  137.5198  150.1966 H   0  0  0  0  0  0  0  0  0  0  0  0
  144.6177  139.3257  152.5631 H   0  0  0  0  0  0  0  0  0  0  0  0
  146.4588  137.9975  156.5909 H   0  0  0  0  0  0  0  0  0  0  0  0
  154.3683  139.0449  160.1761 H   0  0  0  0  0  0  0  0  0  0  0  0
  154.7060  140.6828  162.0373 H   0  0  0  0  0  0  0  0  0  0  0  0
  1  2  1  0  0  0  0
  1 35  1  0  0  0  0
  1 36  1  0  0  0  0
  1 37  1  0  0  0  0
  2  3  1  0  0  0  0
  2  4  1  0  0  0  0
  2 38  1  0  0  0  0
  3 39  1  0  0  0  0
  3 40  1  0  0  0  0
  3 41  1  0  0  0  0
  4  5  1  0  0  0  0
  5 30  1  0  0  0  0
  5  6  2  0  0  0  0
  6  7  1  0  0  0  0
  6 42  1  0  0  0  0
  7  8  1  0  0  0  0
  7 28  2  0  0  0  0
  8  9  1  0  0  0  0
  8 43  1  0  0  0  0
  8 44  1  0  0  0  0
  9 10  1  0  0  0  0
  9 45  1  0  0  0  0
 10 15  1  0  0  0  0
 10 11  2  0  0  0  0
 11 12  1  0  0  0  0
 12 13  2  0  0  0  0
 12 46  1  0  0  0  0
 13 14  1  0  0  0  0
 14 18  1  0  0  0  0
 14 15  2  0  0  0  0
 15 16  1  0  0  0  0
 16 17  2  0  0  0  0
 17 18  1  0  0  0  0
 17 47  1  0  0  0  0
 18 19  1  0  0  0  0
 19 31  1  0  0  0  0
 19 26  1  0  0  0  0
 19 20  1  0  0  0  0
 20 21  1  0  0  0  0
 21 32  1  0  0  0  0
 21 22  1  0  0  0  0
 21 24  1  0  0  0  0
 22 23  1  0  0  0  0
 22 48  1  0  0  0  0
 22 49  1  0  0  0  0
 23 50  1  0  0  0  0
 24 33  1  0  0  0  0
 24 25  1  0  0  0  0
 24 26  1  0  0  0  0
 25 51  1  0  0  0  0
 26 34  1  0  0  0  0
 26 27  1  0  0  0  0
 27 52  1  0  0  0  0
 28 29  1  0  0  0  0
 28 53  1  0  0  0  0
 29 30  2  0  0  0  0
 29 54  1  0  0  0  0
M  END
> <s_m_source_file>
AV-unprocessed.smi

> <i_m_source_file_index>
218

> <i_lp_mmshare_version>
43012

> <i_f3d_flags>
0

> <s_epik_input>
W0NIM11bQ0hdKFtDSDNdKU9jMVtjSF1jKFtjSF1bY0hdbjEpW0NIMl1bTkhdYyhuW2NIXW4yKWMoYzIzKW5bY0hdbjNbQ0BASF00T1tDQEhdKFtDSDJdW09IXSlbQ0BASF0oW09IXSlbQ0BIXTRbT0hd

> <s_epik_cmdline>
J2VwaWtfcHl0aG9uJywgJy1waCcsICc3LjAnLCAnLXRuJywgJzgnLCAnLW1hJywgJzIwMCcsICctbWV0YWxfYmluZGluZycsICctaW1hZScsICc8aW5maWxlLm1hZT4nLCAnLW9tYWUnLCAnPG91dGZpbGUubWFlPic=

> <r_lp_tautomer_probability>
1

> <r_epik_Ionization_Penalty>
0.00457014

> <r_epik_Ionization_Penalty_Charging>
0

> <r_epik_Ionization_Penalty_Neutral>
0.00457014

> <r_epik_State_Penalty>
-0

> <r_epik_Charging_Adjusted_Penalty>
0

> <i_epik_Tot_Q>
0

> <i_epik_Tot_abs_Q>
0

> <r_epik_Metal_State_Penalty>
-0

> <b_epik_Metal_Only>
0

> <s_epik_Chemistry_Notes>
This compound contains an acetal/aminal-like group ( X-CH(R)-Y where X, Y are N, S, or O) that may be acid/base labile, releasing an aldehyde.

> <s_lp_Force_Field>
OPLS_2005

> <r_lp_Energy>
40.1019

> <b_lp_Chiralities_Consistent>
1

> <s_lp_Variant>
AV-unprocessed.smi:218-6

> <Gold.Version>
5.8.1

> <Gold.Id.Protein>
6NUR|6NUR_protein|mol2

> <Gold.PLP.Fitness>
51.8548

> <Gold.PLP.PLP>
-47.4955

> <Gold.PLP.part.hbond>
-2.5396

> <Gold.PLP.part.metal>
0.0000

> <Gold.PLP.part.buried>
-8.1757

> <Gold.PLP.part.nonpolar>
-41.2260

> <Gold.PLP.part.repulsive>
2.6047

> <Gold.PLP.ligand.clash>
1.5674

> <Gold.PLP.ligand.torsion>
1.6043

> <Gold.PLP.Chemscore.Hbond>
1.8480

> <Gold.PLP.Chemscore.CHOScore>
1.0762

> <Gold.PLP.Chemscore.Metal>
0.0000

> <Gold.Chemscore.Hbonds>
donor molecule, donor type, donor heavy atom, donor atom, acceptor molecule, acceptor atom, score
      L1  H    23    50       P1 10171  0.84
      L1  H    25    51       P1 10175  0.55
      L1  C    12    46       P1  7948  0.18
      L1  C    12    46       P1  7949  0.89

> <Gold.PLP.Chemscore.Internal.Correction>
0.3627

> <Gold.Rescore>
     Score         DG    S(hbond)    S(metal)    S(lipo)     H(rot)  DE(clash)    DE(int)     intcor
      4.84     -10.57       1.84        0.00      98.23       4.90       0.38       5.35       ----

> <Gold.Chemscore.Fitness>
4.8419

> <Gold.Chemscore.DG>
-10.5735

> <Gold.Chemscore.ZeroCoef>
-5.4800

> <Gold.Chemscore.Hbond>
1.8418

> <Gold.Chemscore.Metal>
0.0000

> <Gold.Chemscore.Lipo>
98.2346

> <Gold.Chemscore.Internal_Hbond>
0.0000

> <Gold.Chemscore.DEClash>
0.3794

> <Gold.Chemscore.DEInternal>
5.3522

> <Gold.Chemscore.Rot>
4.9029

> <Gold.Chemscore.Internal.Correction>
   9.000000E+99

> <Gold.Chemscore.Hbonds>
donor molecule, donor type, donor heavy atom, donor atom, acceptor molecule, acceptor atom, score
      L1  H    23    50       P1 10171  0.79
      L1  H    25    51       P1 10175  0.54

> <Gold.Chemscore.Hbond.Weighted>
-6.1516

> <Gold.Chemscore.Metal.Weighted>
-0.0000

> <Gold.Chemscore.Lipo.Weighted>
-11.4934

> <Gold.Chemscore.Internal_Hbond.Weighted>
0.0000

> <Gold.Chemscore.DEClash.Weighted>
0.3794

> <Gold.Chemscore.DEInternal.Weighted>
5.3522

> <Gold.Chemscore.Rot.Weighted>
12.5515

> <Gold.Chemscore.Internal.Correction.Weighted>
   9.000000E+99

> <Gold.Protein.RotatedTorsions>
[ 6907 6896 6895 6894 ] final  -14.41 input  -60.11 | X-H torsion
[ 7974 7965 7964 7962 ] final   72.29 input  175.53 | X-H torsion
[ 8008 7997 7996 7995 ] final   -7.68 input   59.86 | X-H torsion
[ 10167 10162 10161 10158 ] final   -5.77 input  -65.29 | X-H torsion
[ 10718 10713 10712 10709 ] final -155.10 input   66.30 | X-H torsion
[ 10763 10752 10751 10750 ] final  -18.06 input  -60.55 | X-H torsion
[ 11005 11000 10999 10996 ] final   90.73 input  -57.11 | X-H torsion

> <Gold.Protein.ActiveResidues>
 VAL166  LYS551  ARG553  GLY616  TRP617  ASP618  TYR619  PRO620  LYS621  CYS622 
 ASP623  PHE694  ASN695  SER759  ASP760  ASP761  ALA762  ILE779  LEU786  VAL792 
 PHE793  MET794  SER795  GLU796  ALA797  LYS798  CYS799  TRP800  GLU811  SER814 

> <Gold.Protein.RotatedAtoms>
  151.3397  135.0861  159.9366 H   0  0  0  0  0  0  0  0  0  0  0  0  # atno 6907 bound_to 6896
  152.5214  133.9459  159.7659 H   0  0  0  0  0  0  0  0  0  0  0  0  # atno 6908 bound_to 6896
  150.9814  133.6189  159.2752 H   0  0  0  0  0  0  0  0  0  0  0  0  # atno 6909 bound_to 6896
  145.7553  139.2777  143.1408 H   0  0  0  0  0  0  0  0  0  0  0  0  # atno 7974 bound_to 7965
  154.5814  140.2400  155.8048 H   0  0  0  0  0  0  0  0  0  0  0  0  # atno 8008 bound_to 7997
  156.2182  140.3006  155.9845 H   0  0  0  0  0  0  0  0  0  0  0  0  # atno 8009 bound_to 7997
  155.2534  140.0411  157.2980 H   0  0  0  0  0  0  0  0  0  0  0  0  # atno 8010 bound_to 7997
  140.6974  143.6271  150.8558 H   0  0  0  0  0  0  0  0  0  0  0  0  # atno 10167 bound_to 10162
  156.5083  130.8423  151.2636 H   0  0  0  0  0  0  0  0  0  0  0  0  # atno 10718 bound_to 10713
  153.5834  135.7004  153.5454 H   0  0  0  0  0  0  0  0  0  0  0  0  # atno 10763 bound_to 10752
  153.3241  135.4065  155.1441 H   0  0  0  0  0  0  0  0  0  0  0  0  # atno 10764 bound_to 10752
  154.8613  135.3703  154.5362 H   0  0  0  0  0  0  0  0  0  0  0  0  # atno 10765 bound_to 10752
  139.8851  134.8632  156.3327 H   0  0  0  0  0  0  0  0  0  0  0  0  # atno 11005 bound_to 11000
  146.0317  140.8251  142.9872 LP  0  0  0  0  0  0  0  0  0  0  0  0  # atno 17320 bound_to 7965
  144.6841  140.2779  143.7296 LP  0  0  0  0  0  0  0  0  0  0  0  0  # atno 17321 bound_to 7965
  139.9990  143.5765  152.2882 LP  0  0  0  0  0  0  0  0  0  0  0  0  # atno 17342 bound_to 10162
  139.6447  144.7657  151.2267 LP  0  0  0  0  0  0  0  0  0  0  0  0  # atno 17343 bound_to 10162
  157.7454  130.9958  150.2758 LP  0  0  0  0  0  0  0  0  0  0  0  0  # atno 17370 bound_to 10713
  156.3266  130.3794  149.7528 LP  0  0  0  0  0  0  0  0  0  0  0  0  # atno 17371 bound_to 10713
  140.9712  133.7326  156.0537 LP  0  0  0  0  0  0  0  0  0  0  0  0  # atno 17394 bound_to 11000
  140.7868  134.3662  157.5474 LP  0  0  0  0  0  0  0  0  0  0  0  0  # atno 17395 bound_to 11000

$$$$
