AV-unprocessed.smi:715|AV-procd|sdf|3484|dock8
  -GOLD-   22720 0473D 1   1.00000     0.00000
 Structure written by MMmdl.
 39 40  0  0  0  0  0  0  0  0  1 V2000
  146.7357  141.9674  154.2304 C   0  0  0  0  0  0  0  0  0  0  0  0
  147.8995  141.6655  155.0359 N   0  0  0  0  0  0  0  0  0  0  0  0
  149.0936  141.0997  154.6445 C   0  0  0  0  0  0  0  0  0  0  0  0
  149.8891  141.0085  155.7522 C   0  0  0  0  0  0  0  0  0  0  0  0
  151.2920  140.4701  155.8525 C   0  0  2  0  0  0  0  0  0  0  0  0
  151.6088  139.6683  154.7322 O   0  0  0  0  0  0  0  0  0  0  0  0
  151.4533  139.6146  157.1211 C   0  0  0  0  0  0  0  0  0  0  0  0
  151.5886  140.4533  158.3054 N   0  0  0  0  0  0  0  0  0  0  0  0
  152.7266  140.6161  158.9949 C   0  0  0  0  0  0  0  0  0  0  0  0
  153.7834  140.0621  158.6916 O   0  0  0  0  0  0  0  0  0  0  0  0
  152.6611  141.5504  160.2080 C   0  0  0  0  0  0  0  0  0  0  0  0
  152.0299  142.9229  159.8931 C   0  0  0  0  0  0  0  0  0  0  0  0
  152.6087  143.6298  158.6618 C   0  0  0  0  0  0  0  0  0  0  0  0
  152.2393  145.1070  158.8382 C   0  0  0  0  0  0  0  0  0  0  0  0
  151.9829  145.3117  160.3394 C   0  0  0  0  0  0  0  0  0  0  0  0
  152.2296  143.9542  161.0062 C   0  0  0  0  0  0  0  0  0  0  0  0
  149.0755  141.5587  156.7855 C   0  0  0  0  0  0  0  0  0  0  0  0
  147.8865  141.9472  156.3545 N   0  0  0  0  0  0  0  0  0  0  0  0
  146.9518  141.7854  153.1773 H   0  0  0  0  0  0  0  0  0  0  0  0
  146.4575  143.0141  154.3586 H   0  0  0  0  0  0  0  0  0  0  0  0
  145.9024  141.3343  154.5367 H   0  0  0  0  0  0  0  0  0  0  0  0
  149.2787  140.8122  153.6199 H   0  0  0  0  0  0  0  0  0  0  0  0
  152.0052  141.2952  155.8814 H   0  0  0  0  0  0  0  0  0  0  0  0
  151.1128  138.8657  154.7877 H   0  0  0  0  0  0  0  0  0  0  0  0
  150.5644  138.9942  157.2503 H   0  0  0  0  0  0  0  0  0  0  0  0
  152.3035  138.9357  157.0338 H   0  0  0  0  0  0  0  0  0  0  0  0
  150.7649  140.9508  158.6114 H   0  0  0  0  0  0  0  0  0  0  0  0
  152.0802  141.0506  160.9836 H   0  0  0  0  0  0  0  0  0  0  0  0
  153.6632  141.6904  160.6169 H   0  0  0  0  0  0  0  0  0  0  0  0
  150.9553  142.8007  159.7443 H   0  0  0  0  0  0  0  0  0  0  0  0
  153.6949  143.5269  158.6517 H   0  0  0  0  0  0  0  0  0  0  0  0
  152.2305  143.2191  157.7250 H   0  0  0  0  0  0  0  0  0  0  0  0
  153.0299  145.7601  158.4664 H   0  0  0  0  0  0  0  0  0  0  0  0
  151.3342  145.3378  158.2751 H   0  0  0  0  0  0  0  0  0  0  0  0
  152.6238  146.0860  160.7627 H   0  0  0  0  0  0  0  0  0  0  0  0
  150.9493  145.6231  160.4962 H   0  0  0  0  0  0  0  0  0  0  0  0
  151.5696  143.7833  161.8574 H   0  0  0  0  0  0  0  0  0  0  0  0
  153.2566  143.9126  161.3720 H   0  0  0  0  0  0  0  0  0  0  0  0
  149.3145  141.6863  157.8311 H   0  0  0  0  0  0  0  0  0  0  0  0
  1  2  1  0  0  0  0
  1 19  1  0  0  0  0
  1 20  1  0  0  0  0
  1 21  1  0  0  0  0
  2 18  1  0  0  0  0
  2  3  1  0  0  0  0
  3  4  2  0  0  0  0
  3 22  1  0  0  0  0
  4  5  1  0  0  0  0
  4 17  1  0  0  0  0
  5  6  1  0  0  0  0
  5  7  1  0  0  0  0
  5 23  1  0  0  0  0
  6 24  1  0  0  0  0
  7  8  1  0  0  0  0
  7 25  1  0  0  0  0
  7 26  1  0  0  0  0
  8  9  1  0  0  0  0
  8 27  1  0  0  0  0
  9 10  2  0  0  0  0
  9 11  1  0  0  0  0
 11 12  1  0  0  0  0
 11 28  1  0  0  0  0
 11 29  1  0  0  0  0
 12 16  1  0  0  0  0
 12 13  1  0  0  0  0
 12 30  1  0  0  0  0
 13 14  1  0  0  0  0
 13 31  1  0  0  0  0
 13 32  1  0  0  0  0
 14 15  1  0  0  0  0
 14 33  1  0  0  0  0
 14 34  1  0  0  0  0
 15 16  1  0  0  0  0
 15 35  1  0  0  0  0
 15 36  1  0  0  0  0
 16 37  1  0  0  0  0
 16 38  1  0  0  0  0
 17 18  2  0  0  0  0
 17 39  1  0  0  0  0
M  END
> <s_m_source_file>
AV-unprocessed.smi

> <i_m_source_file_index>
715

> <i_lp_mmshare_version>
43012

> <i_f3d_flags>
0

> <s_epik_input>
W0NIM11uMVtjSF1jKFtjSF1uMSlbQ0BIXShbT0hdKVtDSDJdW05IXUMoPU8pW0NIMl1bQ0hdMltDSDJdW0NIMl1bQ0gyXVtDSDJdMg==

> <s_epik_cmdline>
J2VwaWtfcHl0aG9uJywgJy1waCcsICc3LjAnLCAnLXRuJywgJzgnLCAnLW1hJywgJzIwMCcsICctbWV0YWxfYmluZGluZycsICctaW1hZScsICc8aW5maWxlLm1hZT4nLCAnLW9tYWUnLCAnPG91dGZpbGUubWFlPic=

> <r_lp_tautomer_probability>
1

> <r_epik_Ionization_Penalty>
4.45533e-05

> <r_epik_Ionization_Penalty_Charging>
0

> <r_epik_Ionization_Penalty_Neutral>
4.45533e-05

> <r_epik_State_Penalty>
-0

> <r_epik_Charging_Adjusted_Penalty>
0

> <i_epik_Tot_Q>
0

> <i_epik_Tot_abs_Q>
0

> <r_epik_Metal_State_Penalty>
-0

> <b_epik_Metal_Only>
0

> <s_lp_Force_Field>
OPLS_2005

> <r_lp_Energy>
19.3798

> <b_lp_Chiralities_Consistent>
1

> <s_lp_Variant>
AV-unprocessed.smi:715-1

> <Gold.Version>
5.8.1

> <Gold.Id.Protein>
6NUR|6NUR_protein|mol2

> <Gold.PLP.Fitness>
51.9732

> <Gold.PLP.PLP>
-44.6508

> <Gold.PLP.part.hbond>
-2.0000

> <Gold.PLP.part.metal>
0.0000

> <Gold.PLP.part.buried>
-3.8616

> <Gold.PLP.part.nonpolar>
-39.3192

> <Gold.PLP.part.repulsive>
1.3615

> <Gold.PLP.ligand.clash>
0.0000

> <Gold.PLP.ligand.torsion>
0.8473

> <Gold.PLP.Chemscore.Hbond>
2.0000

> <Gold.PLP.Chemscore.CHOScore>
1.0000

> <Gold.PLP.Chemscore.Metal>
0.0000

> <Gold.Chemscore.Hbonds>
donor molecule, donor type, donor heavy atom, donor atom, acceptor molecule, acceptor atom, score
      P1  H  7989  7998       L1     6  1.00
      P1  H  7997  8009       L1    10  1.00
      L1  C     3    22       P1  7957  0.84

> <Gold.PLP.Chemscore.Internal.Correction>
0.0169

> <Gold.Rescore>
     Score         DG    S(hbond)    S(metal)    S(lipo)     H(rot)  DE(clash)    DE(int)     intcor
     16.90     -17.41       1.80        0.00     100.62       2.29       0.00       0.51       ----

> <Gold.Chemscore.Fitness>
16.9017

> <Gold.Chemscore.DG>
-17.4100

> <Gold.Chemscore.ZeroCoef>
-5.4800

> <Gold.Chemscore.Hbond>
1.7997

> <Gold.Chemscore.Metal>
0.0000

> <Gold.Chemscore.Lipo>
100.6227

> <Gold.Chemscore.Internal_Hbond>
0.0000

> <Gold.Chemscore.DEClash>
0.0000

> <Gold.Chemscore.DEInternal>
0.5083

> <Gold.Chemscore.Rot>
2.2866

> <Gold.Chemscore.Internal.Correction>
   9.000000E+99

> <Gold.Chemscore.Hbonds>
donor molecule, donor type, donor heavy atom, donor atom, acceptor molecule, acceptor atom, score
      P1  H  7989  7998       L1     6  0.30
      P1  H  7997  8009       L1    10  0.94

> <Gold.Chemscore.Hbond.Weighted>
-6.0109

> <Gold.Chemscore.Metal.Weighted>
-0.0000

> <Gold.Chemscore.Lipo.Weighted>
-11.7729

> <Gold.Chemscore.Internal_Hbond.Weighted>
0.0000

> <Gold.Chemscore.DEClash.Weighted>
0.0000

> <Gold.Chemscore.DEInternal.Weighted>
0.5083

> <Gold.Chemscore.Rot.Weighted>
5.8538

> <Gold.Chemscore.Internal.Correction.Weighted>
   9.000000E+99

> <Gold.Protein.RotatedTorsions>
[ 6907 6896 6895 6894 ] final  101.25 input  -60.11 | X-H torsion
[ 7974 7965 7964 7962 ] final   41.19 input  175.53 | X-H torsion
[ 8008 7997 7996 7995 ] final  143.78 input   59.86 | X-H torsion
[ 10167 10162 10161 10158 ] final  -28.10 input  -65.29 | X-H torsion
[ 10718 10713 10712 10709 ] final -121.71 input   66.30 | X-H torsion
[ 10763 10752 10751 10750 ] final   71.85 input  -60.55 | X-H torsion
[ 11005 11000 10999 10996 ] final  -82.58 input  -57.11 | X-H torsion

> <Gold.Protein.ActiveResidues>
 VAL166  LYS551  ARG553  GLY616  TRP617  ASP618  TYR619  PRO620  LYS621  CYS622 
 ASP623  PHE694  ASN695  SER759  ASP760  ASP761  ALA762  ILE779  LEU786  VAL792 
 PHE793  MET794  SER795  GLU796  ALA797  LYS798  CYS799  TRP800  GLU811  SER814 

> <Gold.Protein.RotatedAtoms>
  152.5353  134.0154  159.7957 H   0  0  0  0  0  0  0  0  0  0  0  0  # atno 6907 bound_to 6896
  151.0349  133.5749  159.2664 H   0  0  0  0  0  0  0  0  0  0  0  0  # atno 6908 bound_to 6896
  151.2740  135.0701  159.9198 H   0  0  0  0  0  0  0  0  0  0  0  0  # atno 6909 bound_to 6896
  146.0843  139.5444  142.9516 H   0  0  0  0  0  0  0  0  0  0  0  0  # atno 7974 bound_to 7965
  156.2923  140.2253  156.4946 H   0  0  0  0  0  0  0  0  0  0  0  0  # atno 8008 bound_to 7997
  154.7741  140.0464  157.1096 H   0  0  0  0  0  0  0  0  0  0  0  0  # atno 8009 bound_to 7997
  154.9838  140.3081  155.4938 H   0  0  0  0  0  0  0  0  0  0  0  0  # atno 8010 bound_to 7997
  140.7272  143.4038  151.1220 H   0  0  0  0  0  0  0  0  0  0  0  0  # atno 10167 bound_to 10162
  156.1359  130.6430  150.9696 H   0  0  0  0  0  0  0  0  0  0  0  0  # atno 10718 bound_to 10713
  153.0423  135.5121  154.7655 H   0  0  0  0  0  0  0  0  0  0  0  0  # atno 10763 bound_to 10752
  154.6583  135.2935  154.9902 H   0  0  0  0  0  0  0  0  0  0  0  0  # atno 10764 bound_to 10752
  154.0762  135.6670  153.4884 H   0  0  0  0  0  0  0  0  0  0  0  0  # atno 10765 bound_to 10752
  141.1662  133.7251  156.8593 H   0  0  0  0  0  0  0  0  0  0  0  0  # atno 11005 bound_to 11000
  145.6159  141.0331  143.1941 LP  0  0  0  0  0  0  0  0  0  0  0  0  # atno 17320 bound_to 7965
  144.7315  139.7712  143.7345 LP  0  0  0  0  0  0  0  0  0  0  0  0  # atno 17321 bound_to 7965
  139.7661  143.8563  152.3111 LP  0  0  0  0  0  0  0  0  0  0  0  0  # atno 17342 bound_to 10162
  139.8465  144.7185  150.9266 LP  0  0  0  0  0  0  0  0  0  0  0  0  # atno 17343 bound_to 10162
  157.6532  131.0893  150.8005 LP  0  0  0  0  0  0  0  0  0  0  0  0  # atno 17370 bound_to 10713
  156.8085  130.4944  149.5359 LP  0  0  0  0  0  0  0  0  0  0  0  0  # atno 17371 bound_to 10713
  140.1860  134.8999  157.3005 LP  0  0  0  0  0  0  0  0  0  0  0  0  # atno 17394 bound_to 11000
  140.2342  134.3872  155.7508 LP  0  0  0  0  0  0  0  0  0  0  0  0  # atno 17395 bound_to 11000

$$$$
