AV-unprocessed.smi:698|AV-procd|sdf|3398|dock5
  -GOLD-   22720 0383D 1   1.00000     0.00000
 Structure written by MMmdl.
 33 34  0  0  0  0  0  0  0  0  1 V2000
  149.8943  144.7259  160.0992 C   0  0  0  0  0  0  0  0  0  0  0  0
  151.1437  145.4938  159.6614 C   0  0  0  0  0  0  0  0  0  0  0  0
  152.2624  144.6126  159.7057 O   0  0  0  0  0  0  0  0  0  0  0  0
  152.1304  143.3549  159.1534 C   0  0  0  0  0  0  0  0  0  0  0  0
  152.9679  142.3223  159.6155 C   0  0  0  0  0  0  0  0  0  0  0  0
  152.8293  141.0423  159.0499 C   0  0  0  0  0  0  0  0  0  0  0  0
  151.8630  140.8435  158.0455 C   0  0  0  0  0  0  0  0  0  0  0  0
  151.0601  141.9292  157.6315 C   0  0  0  0  0  0  0  0  0  0  0  0
  150.1174  141.6293  156.6126 N   0  0  0  0  0  0  0  0  0  0  0  0
  150.2742  140.8314  155.5397 C   0  0  0  0  0  0  0  0  0  0  0  0
  151.3004  140.2010  155.2806 O   0  0  0  0  0  0  0  0  0  0  0  0
  149.0524  140.7181  154.6198 C   0  0  1  0  0  0  0  0  0  0  0  0
  147.7488  140.3107  155.3337 C   0  0  0  0  0  0  0  0  0  0  0  0
  146.8915  141.5595  155.2585 C   0  0  0  0  0  0  0  0  0  0  0  0
  147.4009  142.2132  153.9821 C   0  0  0  0  0  0  0  0  0  0  0  0
  148.8019  142.0038  154.0555 O   0  0  0  0  0  0  0  0  0  0  0  0
  151.2008  143.1579  158.1864 N   0  0  0  0  0  0  0  0  0  0  0  0
  149.0128  145.3666  160.0665 H   0  0  0  0  0  0  0  0  0  0  0  0
  150.0006  144.3545  161.1187 H   0  0  0  0  0  0  0  0  0  0  0  0
  149.7114  143.8714  159.4473 H   0  0  0  0  0  0  0  0  0  0  0  0
  151.0021  145.8764  158.6492 H   0  0  0  0  0  0  0  0  0  0  0  0
  151.3010  146.3455  160.3252 H   0  0  0  0  0  0  0  0  0  0  0  0
  153.7002  142.5084  160.3872 H   0  0  0  0  0  0  0  0  0  0  0  0
  153.4541  140.2257  159.3803 H   0  0  0  0  0  0  0  0  0  0  0  0
  151.7447  139.8664  157.5997 H   0  0  0  0  0  0  0  0  0  0  0  0
  149.2145  142.0694  156.7117 H   0  0  0  0  0  0  0  0  0  0  0  0
  149.2581  140.0126  153.8127 H   0  0  0  0  0  0  0  0  0  0  0  0
  147.2713  139.4980  154.7850 H   0  0  0  0  0  0  0  0  0  0  0  0
  147.8843  139.9695  156.3608 H   0  0  0  0  0  0  0  0  0  0  0  0
  145.8226  141.3463  155.2329 H   0  0  0  0  0  0  0  0  0  0  0  0
  147.0931  142.2049  156.1145 H   0  0  0  0  0  0  0  0  0  0  0  0
  147.0008  141.7123  153.0993 H   0  0  0  0  0  0  0  0  0  0  0  0
  147.1548  143.2734  153.9216 H   0  0  0  0  0  0  0  0  0  0  0  0
  1  2  1  0  0  0  0
  1 18  1  0  0  0  0
  1 19  1  0  0  0  0
  1 20  1  0  0  0  0
  2  3  1  0  0  0  0
  2 21  1  0  0  0  0
  2 22  1  0  0  0  0
  3  4  1  0  0  0  0
  4 17  1  0  0  0  0
  4  5  2  0  0  0  0
  5  6  1  0  0  0  0
  5 23  1  0  0  0  0
  6  7  2  0  0  0  0
  6 24  1  0  0  0  0
  7  8  1  0  0  0  0
  7 25  1  0  0  0  0
  8  9  1  0  0  0  0
  8 17  2  0  0  0  0
  9 10  1  0  0  0  0
  9 26  1  0  0  0  0
 10 11  2  0  0  0  0
 10 12  1  0  0  0  0
 12 16  1  0  0  0  0
 12 13  1  0  0  0  0
 12 27  1  0  0  0  0
 13 14  1  0  0  0  0
 13 28  1  0  0  0  0
 13 29  1  0  0  0  0
 14 15  1  0  0  0  0
 14 30  1  0  0  0  0
 14 31  1  0  0  0  0
 15 16  1  0  0  0  0
 15 32  1  0  0  0  0
 15 33  1  0  0  0  0
M  END
> <s_m_source_file>
AV-unprocessed.smi

> <i_m_source_file_index>
698

> <i_lp_mmshare_version>
43012

> <i_f3d_flags>
0

> <s_epik_input>
W0NIM11bQ0gyXU9jMVtjSF1bY0hdW2NIXWMobjEpW05IXUMoPU8pW0NAQEhdMltDSDJdW0NIMl1bQ0gyXU8y

> <s_epik_cmdline>
J2VwaWtfcHl0aG9uJywgJy1waCcsICc3LjAnLCAnLXRuJywgJzgnLCAnLW1hJywgJzIwMCcsICctbWV0YWxfYmluZGluZycsICctaW1hZScsICc8aW5maWxlLm1hZT4nLCAnLW9tYWUnLCAnPG91dGZpbGUubWFlPic=

> <r_lp_tautomer_probability>
1

> <r_epik_Ionization_Penalty>
3.42089e-05

> <r_epik_Ionization_Penalty_Charging>
0

> <r_epik_Ionization_Penalty_Neutral>
3.42089e-05

> <r_epik_State_Penalty>
-0

> <r_epik_Charging_Adjusted_Penalty>
0

> <i_epik_Tot_Q>
0

> <i_epik_Tot_abs_Q>
0

> <r_epik_Metal_State_Penalty>
-0

> <b_epik_Metal_Only>
0

> <s_lp_Force_Field>
OPLS_2005

> <r_lp_Energy>
20.5333

> <b_lp_Chiralities_Consistent>
1

> <s_lp_Variant>
AV-unprocessed.smi:698-2

> <Gold.Version>
5.8.1

> <Gold.Id.Protein>
6NUR|6NUR_protein|mol2

> <Gold.PLP.Fitness>
37.4078

> <Gold.PLP.PLP>
-34.6228

> <Gold.PLP.part.hbond>
-2.0000

> <Gold.PLP.part.metal>
0.0000

> <Gold.PLP.part.buried>
-7.9037

> <Gold.PLP.part.nonpolar>
-26.3082

> <Gold.PLP.part.repulsive>
0.4156

> <Gold.PLP.ligand.clash>
0.0000

> <Gold.PLP.ligand.torsion>
0.7379

> <Gold.PLP.Chemscore.Hbond>
1.4160

> <Gold.PLP.Chemscore.CHOScore>
0.0000

> <Gold.PLP.Chemscore.Metal>
0.0000

> <Gold.Chemscore.Hbonds>
donor molecule, donor type, donor heavy atom, donor atom, acceptor molecule, acceptor atom, score
      P1  H  7989  7998       L1    11  0.95
      P1  H  8011  8017       L1    16  0.42

> <Gold.PLP.Chemscore.Internal.Correction>
0.0127

> <Gold.Rescore>
     Score         DG    S(hbond)    S(metal)    S(lipo)     H(rot)  DE(clash)    DE(int)     intcor
      9.62     -13.16       1.10        0.00      65.31       1.42       0.09       3.46       ----

> <Gold.Chemscore.Fitness>
9.6235

> <Gold.Chemscore.DG>
-13.1637

> <Gold.Chemscore.ZeroCoef>
-5.4800

> <Gold.Chemscore.Hbond>
1.1000

> <Gold.Chemscore.Metal>
0.0000

> <Gold.Chemscore.Lipo>
65.3074

> <Gold.Chemscore.Internal_Hbond>
0.0000

> <Gold.Chemscore.DEClash>
0.0851

> <Gold.Chemscore.DEInternal>
3.4552

> <Gold.Chemscore.Rot>
1.4185

> <Gold.Chemscore.Internal.Correction>
   9.000000E+99

> <Gold.Chemscore.Hbonds>
donor molecule, donor type, donor heavy atom, donor atom, acceptor molecule, acceptor atom, score
      P1  H  7989  7998       L1    11  0.21
      P1  H  8011  8017       L1    16  0.33

> <Gold.Chemscore.Hbond.Weighted>
-3.6741

> <Gold.Chemscore.Metal.Weighted>
-0.0000

> <Gold.Chemscore.Lipo.Weighted>
-7.6410

> <Gold.Chemscore.Internal_Hbond.Weighted>
0.0000

> <Gold.Chemscore.DEClash.Weighted>
0.0851

> <Gold.Chemscore.DEInternal.Weighted>
3.4552

> <Gold.Chemscore.Rot.Weighted>
3.6313

> <Gold.Chemscore.Internal.Correction.Weighted>
   9.000000E+99

> <Gold.Protein.RotatedTorsions>
[ 6907 6896 6895 6894 ] final  134.58 input  -60.11 | X-H torsion
[ 7974 7965 7964 7962 ] final   48.32 input  175.53 | X-H torsion
[ 8008 7997 7996 7995 ] final  -52.64 input   59.86 | X-H torsion
[ 10167 10162 10161 10158 ] final  141.35 input  -65.29 | X-H torsion
[ 10718 10713 10712 10709 ] final  122.93 input   66.30 | X-H torsion
[ 10763 10752 10751 10750 ] final -154.52 input  -60.55 | X-H torsion
[ 11005 11000 10999 10996 ] final  108.23 input  -57.11 | X-H torsion

> <Gold.Protein.ActiveResidues>
 VAL166  LYS551  ARG553  GLY616  TRP617  ASP618  TYR619  PRO620  LYS621  CYS622 
 ASP623  PHE694  ASN695  SER759  ASP760  ASP761  ALA762  ILE779  LEU786  VAL792 
 PHE793  MET794  SER795  GLU796  ALA797  LYS798  CYS799  TRP800  GLU811  SER814 

> <Gold.Protein.RotatedAtoms>
  152.3098  133.5741  159.5672 H   0  0  0  0  0  0  0  0  0  0  0  0  # atno 6907 bound_to 6896
  150.7317  134.0169  159.3697 H   0  0  0  0  0  0  0  0  0  0  0  0  # atno 6908 bound_to 6896
  151.8063  135.0694  160.0458 H   0  0  0  0  0  0  0  0  0  0  0  0  # atno 6909 bound_to 6896
  146.0215  139.4657  142.9894 H   0  0  0  0  0  0  0  0  0  0  0  0  # atno 7974 bound_to 7965
  154.4112  140.1219  156.5024 H   0  0  0  0  0  0  0  0  0  0  0  0  # atno 8008 bound_to 7997
  155.6881  140.3495  155.4863 H   0  0  0  0  0  0  0  0  0  0  0  0  # atno 8009 bound_to 7997
  155.9493  140.1102  157.0980 H   0  0  0  0  0  0  0  0  0  0  0  0  # atno 8010 bound_to 7997
  139.5023  144.6177  151.6125 H   0  0  0  0  0  0  0  0  0  0  0  0  # atno 10167 bound_to 10162
  157.5704  131.1083  150.8376 H   0  0  0  0  0  0  0  0  0  0  0  0  # atno 10718 bound_to 10713
  154.7853  135.3188  154.7900 H   0  0  0  0  0  0  0  0  0  0  0  0  # atno 10763 bound_to 10752
  153.8602  135.6854  153.4788 H   0  0  0  0  0  0  0  0  0  0  0  0  # atno 10764 bound_to 10752
  153.1502  135.4702  154.9565 H   0  0  0  0  0  0  0  0  0  0  0  0  # atno 10765 bound_to 10752
  139.8840  134.9424  156.5940 H   0  0  0  0  0  0  0  0  0  0  0  0  # atno 11005 bound_to 11000
  145.7185  141.0083  143.1415 LP  0  0  0  0  0  0  0  0  0  0  0  0  # atno 17320 bound_to 7965
  144.6992  139.8842  143.7449 LP  0  0  0  0  0  0  0  0  0  0  0  0  # atno 17321 bound_to 7965
  140.5870  143.9847  150.6301 LP  0  0  0  0  0  0  0  0  0  0  0  0  # atno 17342 bound_to 10162
  140.3014  143.3258  152.0967 LP  0  0  0  0  0  0  0  0  0  0  0  0  # atno 17343 bound_to 10162
  156.8849  130.5192  149.5289 LP  0  0  0  0  0  0  0  0  0  0  0  0  # atno 17370 bound_to 10713
  156.0750  130.5774  150.9457 LP  0  0  0  0  0  0  0  0  0  0  0  0  # atno 17371 bound_to 10713
  140.7934  133.8564  155.8665 LP  0  0  0  0  0  0  0  0  0  0  0  0  # atno 17394 bound_to 11000
  140.9657  134.1597  157.4618 LP  0  0  0  0  0  0  0  0  0  0  0  0  # atno 17395 bound_to 11000

$$$$
