AV-unprocessed.smi:3127|AV-procd|sdf|11917|dock3
  -GOLD-   2272017293D 1   1.00000     0.00000
 Structure written by MMmdl.
 33 34  0  0  0  0  0  0  0  0  1 V2000
  150.0425  144.6641  160.3511 C   0  0  0  0  0  0  0  0  0  0  0  0
  151.5402  144.3545  160.1583 C   0  0  0  0  0  0  0  0  0  0  0  0
  152.2191  145.5067  159.3919 C   0  0  0  0  0  0  0  0  0  0  0  0
  152.1913  144.2632  161.5551 C   0  0  0  0  0  0  0  0  0  0  0  0
  151.7056  143.0572  159.3919 C   0  0  0  0  0  0  0  0  0  0  0  0
  152.3043  141.8918  159.8130 C   0  0  0  0  0  0  0  0  0  0  0  0
  152.2594  140.6467  158.5956 S   0  0  0  0  0  0  0  0  0  0  0  0
  151.4326  141.7664  157.5233 C   0  0  0  0  0  0  0  0  0  0  0  0
  150.9741  141.3884  156.1512 C   0  0  1  0  0  0  0  0  0  0  0  0
  151.3557  139.9409  155.7856 C   0  0  0  0  0  0  0  0  0  0  0  0
  150.8175  139.5918  154.4718 N   0  0  0  0  0  0  0  0  0  0  0  0
  149.3730  139.8124  154.4171 C   0  0  0  0  0  0  0  0  0  0  0  0
  149.0362  141.2595  154.8205 C   0  0  0  0  0  0  0  0  0  0  0  0
  149.5554  141.5268  156.1187 O   0  0  0  0  0  0  0  0  0  0  0  0
  151.2083  142.9575  158.0858 N   0  0  0  0  0  0  0  0  0  0  0  0
  149.8962  145.5850  160.9168 H   0  0  0  0  0  0  0  0  0  0  0  0
  149.5387  143.8623  160.8921 H   0  0  0  0  0  0  0  0  0  0  0  0
  149.5309  144.7874  159.3960 H   0  0  0  0  0  0  0  0  0  0  0  0
  151.7740  145.6515  158.4066 H   0  0  0  0  0  0  0  0  0  0  0  0
  153.2826  145.3131  159.2465 H   0  0  0  0  0  0  0  0  0  0  0  0
  152.1269  146.4508  159.9299 H   0  0  0  0  0  0  0  0  0  0  0  0
  152.0780  145.1969  162.1075 H   0  0  0  0  0  0  0  0  0  0  0  0
  153.2599  144.0562  161.4865 H   0  0  0  0  0  0  0  0  0  0  0  0
  151.7382  143.4747  162.1571 H   0  0  0  0  0  0  0  0  0  0  0  0
  152.7676  141.6833  160.7657 H   0  0  0  0  0  0  0  0  0  0  0  0
  151.4225  142.0863  155.4417 H   0  0  0  0  0  0  0  0  0  0  0  0
  152.4398  139.8257  155.7886 H   0  0  0  0  0  0  0  0  0  0  0  0
  150.9645  139.2550  156.5382 H   0  0  0  0  0  0  0  0  0  0  0  0
  151.0209  138.6181  154.2693 H   0  0  0  0  0  0  0  0  0  0  0  0
  149.0004  139.6067  153.4135 H   0  0  0  0  0  0  0  0  0  0  0  0
  148.8656  139.1184  155.0883 H   0  0  0  0  0  0  0  0  0  0  0  0
  149.4401  141.9708  154.0982 H   0  0  0  0  0  0  0  0  0  0  0  0
  147.9556  141.4020  154.8369 H   0  0  0  0  0  0  0  0  0  0  0  0
  1  2  1  0  0  0  0
  1 16  1  0  0  0  0
  1 17  1  0  0  0  0
  1 18  1  0  0  0  0
  2  3  1  0  0  0  0
  2  4  1  0  0  0  0
  2  5  1  0  0  0  0
  3 19  1  0  0  0  0
  3 20  1  0  0  0  0
  3 21  1  0  0  0  0
  4 22  1  0  0  0  0
  4 23  1  0  0  0  0
  4 24  1  0  0  0  0
  5 15  1  0  0  0  0
  5  6  2  0  0  0  0
  6  7  1  0  0  0  0
  6 25  1  0  0  0  0
  7  8  1  0  0  0  0
  8  9  1  0  0  0  0
  8 15  2  0  0  0  0
  9 14  1  0  0  0  0
  9 10  1  0  0  0  0
  9 26  1  0  0  0  0
 10 11  1  0  0  0  0
 10 27  1  0  0  0  0
 10 28  1  0  0  0  0
 11 12  1  0  0  0  0
 11 29  1  0  0  0  0
 12 13  1  0  0  0  0
 12 30  1  0  0  0  0
 12 31  1  0  0  0  0
 13 14  1  0  0  0  0
 13 32  1  0  0  0  0
 13 33  1  0  0  0  0
M  END
> <s_m_source_file>
AV-unprocessed.smi

> <i_m_source_file_index>
3127

> <i_lp_mmshare_version>
43012

> <i_f3d_flags>
0

> <s_epik_input>
W0NIM11DKFtDSDNdKShbQ0gzXSljMVtjSF1zYyhuMSlbQ0BASF0yW0NIMl1bTkhdW0NIMl1bQ0gyXU8y

> <s_epik_cmdline>
J2VwaWtfcHl0aG9uJywgJy1waCcsICc3LjAnLCAnLXRuJywgJzgnLCAnLW1hJywgJzIwMCcsICctbWV0YWxfYmluZGluZycsICctaW1hZScsICc8aW5maWxlLm1hZT4nLCAnLW9tYWUnLCAnPG91dGZpbGUubWFlPic=

> <r_epik_Ionization_Penalty>
0.982256

> <r_epik_Ionization_Penalty_Charging>
0

> <r_epik_Ionization_Penalty_Neutral>
0.982256

> <r_epik_State_Penalty>
2.16535

> <r_epik_Charging_Adjusted_Penalty>
2.16535

> <i_epik_Tot_Q>
0

> <i_epik_Tot_abs_Q>
0

> <r_epik_Metal_State_Penalty>
2.16345

> <b_epik_Metal_Only>
0

> <s_lp_Force_Field>
OPLS_2005

> <r_lp_Energy>
6.45536

> <b_lp_Chiralities_Consistent>
1

> <s_lp_Variant>
AV-unprocessed.smi:3127-4

> <Gold.Version>
5.8.1

> <Gold.Id.Protein>
6NUR|6NUR_protein|mol2

> <Gold.PLP.Fitness>
38.9700

> <Gold.PLP.PLP>
-35.9880

> <Gold.PLP.part.hbond>
-1.0000

> <Gold.PLP.part.metal>
0.0000

> <Gold.PLP.part.buried>
-5.5422

> <Gold.PLP.part.nonpolar>
-29.2244

> <Gold.PLP.part.repulsive>
0.1811

> <Gold.PLP.ligand.clash>
0.0000

> <Gold.PLP.ligand.torsion>
0.0148

> <Gold.PLP.Chemscore.Hbond>
1.0000

> <Gold.PLP.Chemscore.CHOScore>
0.0000

> <Gold.PLP.Chemscore.Metal>
0.0000

> <Gold.Chemscore.Hbonds>
donor molecule, donor type, donor heavy atom, donor atom, acceptor molecule, acceptor atom, score
      P1  H  7989  7998       L1    11  0.95

> <Gold.PLP.Chemscore.Internal.Correction>
0.0117

> <Gold.Rescore>
     Score         DG    S(hbond)    S(metal)    S(lipo)     H(rot)  DE(clash)    DE(int)     intcor
     16.21     -16.30       0.28        0.00     109.01       1.12       0.07       0.02       ----

> <Gold.Chemscore.Fitness>
16.2103

> <Gold.Chemscore.DG>
-16.2978

> <Gold.Chemscore.ZeroCoef>
-5.4800

> <Gold.Chemscore.Hbond>
0.2763

> <Gold.Chemscore.Metal>
0.0000

> <Gold.Chemscore.Lipo>
109.0080

> <Gold.Chemscore.Internal_Hbond>
0.0000

> <Gold.Chemscore.DEClash>
0.0689

> <Gold.Chemscore.DEInternal>
0.0186

> <Gold.Chemscore.Rot>
1.1167

> <Gold.Chemscore.Internal.Correction>
   9.000000E+99

> <Gold.Chemscore.Hbonds>
donor molecule, donor type, donor heavy atom, donor atom, acceptor molecule, acceptor atom, score
      P1  H  7989  7998       L1    11  0.14

> <Gold.Chemscore.Hbond.Weighted>
-0.9227

> <Gold.Chemscore.Metal.Weighted>
-0.0000

> <Gold.Chemscore.Lipo.Weighted>
-12.7539

> <Gold.Chemscore.Internal_Hbond.Weighted>
0.0000

> <Gold.Chemscore.DEClash.Weighted>
0.0689

> <Gold.Chemscore.DEInternal.Weighted>
0.0186

> <Gold.Chemscore.Rot.Weighted>
2.8588

> <Gold.Chemscore.Internal.Correction.Weighted>
   9.000000E+99

> <Gold.Protein.RotatedTorsions>
[ 6907 6896 6895 6894 ] final   70.93 input  -60.11 | X-H torsion
[ 7974 7965 7964 7962 ] final    5.46 input  175.53 | X-H torsion
[ 8008 7997 7996 7995 ] final   69.58 input   59.86 | X-H torsion
[ 10167 10162 10161 10158 ] final -147.51 input  -65.29 | X-H torsion
[ 10718 10713 10712 10709 ] final  -63.07 input   66.30 | X-H torsion
[ 10763 10752 10751 10750 ] final  130.62 input  -60.55 | X-H torsion
[ 11005 11000 10999 10996 ] final  -52.49 input  -57.11 | X-H torsion

> <Gold.Protein.ActiveResidues>
 VAL166  LYS551  ARG553  GLY616  TRP617  ASP618  TYR619  PRO620  LYS621  CYS622 
 ASP623  PHE694  ASN695  SER759  ASP760  ASP761  ALA762  ILE779  LEU786  VAL792 
 PHE793  MET794  SER795  GLU796  ALA797  LYS798  CYS799  TRP800  GLU811  SER814 

> <Gold.Protein.RotatedAtoms>
  152.4780  134.4795  159.9660 H   0  0  0  0  0  0  0  0  0  0  0  0  # atno 6907 bound_to 6896
  151.4807  133.3541  159.2845 H   0  0  0  0  0  0  0  0  0  0  0  0  # atno 6908 bound_to 6896
  150.8831  134.8252  159.7301 H   0  0  0  0  0  0  0  0  0  0  0  0  # atno 6909 bound_to 6896
  146.2440  140.0381  142.8384 H   0  0  0  0  0  0  0  0  0  0  0  0  # atno 7974 bound_to 7965
  155.7258  140.3492  155.5036 H   0  0  0  0  0  0  0  0  0  0  0  0  # atno 8008 bound_to 7997
  155.9228  140.1070  157.1215 H   0  0  0  0  0  0  0  0  0  0  0  0  # atno 8009 bound_to 7997
  154.4072  140.1246  156.4688 H   0  0  0  0  0  0  0  0  0  0  0  0  # atno 8010 bound_to 7997
  139.7615  143.8369  152.2608 H   0  0  0  0  0  0  0  0  0  0  0  0  # atno 10167 bound_to 10162
  156.0814  130.4216  150.1225 H   0  0  0  0  0  0  0  0  0  0  0  0  # atno 10718 bound_to 10713
  153.7610  135.3196  155.3337 H   0  0  0  0  0  0  0  0  0  0  0  0  # atno 10763 bound_to 10752
  154.8230  135.4590  154.0838 H   0  0  0  0  0  0  0  0  0  0  0  0  # atno 10764 bound_to 10752
  153.2069  135.6930  153.8245 H   0  0  0  0  0  0  0  0  0  0  0  0  # atno 10765 bound_to 10752
  141.0927  133.6630  156.4031 H   0  0  0  0  0  0  0  0  0  0  0  0  # atno 11005 bound_to 11000
  145.1094  140.9395  143.4665 LP  0  0  0  0  0  0  0  0  0  0  0  0  # atno 17320 bound_to 7965
  145.0592  139.3119  143.5889 LP  0  0  0  0  0  0  0  0  0  0  0  0  # atno 17321 bound_to 7965
  139.8377  144.7224  150.9370 LP  0  0  0  0  0  0  0  0  0  0  0  0  # atno 17342 bound_to 10162
  140.7807  143.4012  151.1147 LP  0  0  0  0  0  0  0  0  0  0  0  0  # atno 17343 bound_to 10162
  156.9255  130.9697  151.3541 LP  0  0  0  0  0  0  0  0  0  0  0  0  # atno 17370 bound_to 10713
  157.5932  130.8459  149.8691 LP  0  0  0  0  0  0  0  0  0  0  0  0  # atno 17371 bound_to 10713
  140.5214  134.6300  157.5319 LP  0  0  0  0  0  0  0  0  0  0  0  0  # atno 17394 bound_to 11000
  139.9756  134.7221  155.9956 LP  0  0  0  0  0  0  0  0  0  0  0  0  # atno 17395 bound_to 11000

$$$$
