AV-unprocessed.smi:219|AV-procd|sdf|1680|dock7
  -GOLD-   2262020113D 1   1.00000     0.00000
 Structure written by MMmdl.
 50 53  0  0  0  0  0  0  0  0  1 V2000
  149.1448  142.3308  156.3085 N   0  0  0  0  0  0  0  0  0  0  0  0
  150.2161  141.6513  155.8921 C   0  0  0  0  0  0  0  0  0  0  0  0
  150.2428  141.0727  154.8081 O   0  0  0  0  0  0  0  0  0  0  0  0
  151.4282  141.6181  156.8328 C   0  0  0  0  0  0  0  0  0  0  0  0
  151.2338  142.3348  158.2016 C   0  0  2  0  0  0  0  0  0  0  0  0
  151.1853  143.8618  157.9630 C   0  0  0  0  0  0  0  0  0  0  0  0
  151.0174  144.6478  159.2703 C   0  0  0  0  0  0  0  0  0  0  0  0
  152.1262  144.2640  160.2554 C   0  0  0  0  0  0  0  0  0  0  0  0
  152.1345  142.7463  160.4783 C   0  0  0  0  0  0  0  0  0  0  0  0
  152.2652  142.0237  159.2112 N   0  0  0  0  0  0  0  0  0  0  0  0
  152.5388  140.7148  159.4136 C   0  0  0  0  0  0  0  0  0  0  0  0
  151.7325  139.7594  158.8798 N   0  0  0  0  0  0  0  0  0  0  0  0
  152.0217  138.4671  159.0612 C   0  0  0  0  0  0  0  0  0  0  0  0
  153.0424  137.9254  159.7302 N   0  0  0  0  0  0  0  0  0  0  0  0
  153.8476  138.8850  160.2708 C   0  0  0  0  0  0  0  0  0  0  0  0
  153.6691  140.2917  160.1600 C   0  0  0  0  0  0  0  0  0  0  0  0
  154.6903  140.9585  160.8235 N   0  0  0  0  0  0  0  0  0  0  0  0
  155.4310  139.9978  161.3051 C   0  0  0  0  0  0  0  0  0  0  0  0
  154.9934  138.7211  161.0301 N   0  0  0  0  0  0  0  0  0  0  0  0
  155.6239  137.4765  161.4441 C   0  0  0  0  0  0  0  0  0  0  0  0
  154.6367  136.4561  162.0612 C   0  0  2  0  0  0  0  0  0  0  0  0
  154.0882  135.6645  161.0223 O   0  0  0  0  0  0  0  0  0  0  0  0
  153.4962  137.1337  162.8238 C   0  0  0  0  0  0  0  0  0  0  0  0
  153.8087  136.8282  164.2838 C   0  0  0  0  0  0  0  0  0  0  0  0
  154.3773  135.5330  164.2142 O   0  0  0  0  0  0  0  0  0  0  0  0
  155.2788  135.5334  163.1170 C   0  0  0  0  0  0  0  0  0  0  0  0
  148.3249  142.3804  155.7210 H   0  0  0  0  0  0  0  0  0  0  0  0
  149.1573  142.7929  157.2060 H   0  0  0  0  0  0  0  0  0  0  0  0
  151.7641  140.5920  156.9908 H   0  0  0  0  0  0  0  0  0  0  0  0
  152.2310  142.1080  156.2806 H   0  0  0  0  0  0  0  0  0  0  0  0
  150.2709  142.0411  158.6226 H   0  0  0  0  0  0  0  0  0  0  0  0
  152.1022  144.1831  157.4663 H   0  0  0  0  0  0  0  0  0  0  0  0
  150.3661  144.1110  157.2876 H   0  0  0  0  0  0  0  0  0  0  0  0
  151.0434  145.7195  159.0722 H   0  0  0  0  0  0  0  0  0  0  0  0
  150.0420  144.4323  159.7083 H   0  0  0  0  0  0  0  0  0  0  0  0
  153.0939  144.5843  159.8671 H   0  0  0  0  0  0  0  0  0  0  0  0
  151.9825  144.7815  161.2041 H   0  0  0  0  0  0  0  0  0  0  0  0
  152.9572  142.4806  161.1443 H   0  0  0  0  0  0  0  0  0  0  0  0
  151.2112  142.4465  160.9766 H   0  0  0  0  0  0  0  0  0  0  0  0
  151.3385  137.7676  158.6027 H   0  0  0  0  0  0  0  0  0  0  0  0
  156.3220  140.1957  161.8834 H   0  0  0  0  0  0  0  0  0  0  0  0
  156.1187  137.0380  160.5764 H   0  0  0  0  0  0  0  0  0  0  0  0
  156.4150  137.7162  162.1560 H   0  0  0  0  0  0  0  0  0  0  0  0
  154.7997  135.2708  160.5405 H   0  0  0  0  0  0  0  0  0  0  0  0
  153.4200  138.2047  162.6322 H   0  0  0  0  0  0  0  0  0  0  0  0
  152.5334  136.6880  162.5679 H   0  0  0  0  0  0  0  0  0  0  0  0
  154.5399  137.5317  164.6851 H   0  0  0  0  0  0  0  0  0  0  0  0
  152.9227  136.8477  164.9186 H   0  0  0  0  0  0  0  0  0  0  0  0
  155.4719  134.5221  162.7568 H   0  0  0  0  0  0  0  0  0  0  0  0
  156.2248  135.9414  163.4735 H   0  0  0  0  0  0  0  0  0  0  0  0
  1  2  1  0  0  0  0
  1 27  1  0  0  0  0
  1 28  1  0  0  0  0
  2  3  2  0  0  0  0
  2  4  1  0  0  0  0
  4  5  1  0  0  0  0
  4 29  1  0  0  0  0
  4 30  1  0  0  0  0
  5 10  1  0  0  0  0
  5  6  1  0  0  0  0
  5 31  1  0  0  0  0
  6  7  1  0  0  0  0
  6 32  1  0  0  0  0
  6 33  1  0  0  0  0
  7  8  1  0  0  0  0
  7 34  1  0  0  0  0
  7 35  1  0  0  0  0
  8  9  1  0  0  0  0
  8 36  1  0  0  0  0
  8 37  1  0  0  0  0
  9 10  1  0  0  0  0
  9 38  1  0  0  0  0
  9 39  1  0  0  0  0
 10 11  1  0  0  0  0
 11 16  1  0  0  0  0
 11 12  2  0  0  0  0
 12 13  1  0  0  0  0
 13 14  2  0  0  0  0
 13 40  1  0  0  0  0
 14 15  1  0  0  0  0
 15 19  1  0  0  0  0
 15 16  2  0  0  0  0
 16 17  1  0  0  0  0
 17 18  2  0  0  0  0
 18 19  1  0  0  0  0
 18 41  1  0  0  0  0
 19 20  1  0  0  0  0
 20 21  1  0  0  0  0
 20 42  1  0  0  0  0
 20 43  1  0  0  0  0
 21 26  1  0  0  0  0
 21 22  1  0  0  0  0
 21 23  1  0  0  0  0
 22 44  1  0  0  0  0
 23 24  1  0  0  0  0
 23 45  1  0  0  0  0
 23 46  1  0  0  0  0
 24 25  1  0  0  0  0
 24 47  1  0  0  0  0
 24 48  1  0  0  0  0
 25 26  1  0  0  0  0
 26 49  1  0  0  0  0
 26 50  1  0  0  0  0
M  END
> <s_m_source_file>
AV-unprocessed.smi

> <i_m_source_file_index>
219

> <i_lp_mmshare_version>
43012

> <i_f3d_flags>
0

> <s_epik_input>
W05IMl1DKD1PKVtDSDJdW0NAQEhdMVtDSDJdW0NIMl1bQ0gyXVtDSDJdTjFjKG5bY0hdbjIpYyhjMjMpbltjSF1uM1tDSDJdW0NAQF00KFtPSF0pW0NIMl1bQ0gyXU9bQ0gyXTQ=

> <s_epik_cmdline>
J2VwaWtfcHl0aG9uJywgJy1waCcsICc3LjAnLCAnLXRuJywgJzgnLCAnLW1hJywgJzIwMCcsICctbWV0YWxfYmluZGluZycsICctaW1hZScsICc8aW5maWxlLm1hZT4nLCAnLW9tYWUnLCAnPG91dGZpbGUubWFlPic=

> <r_lp_tautomer_probability>
1

> <r_epik_Ionization_Penalty>
0.00228532

> <r_epik_Ionization_Penalty_Charging>
0

> <r_epik_Ionization_Penalty_Neutral>
0.00228532

> <r_epik_State_Penalty>
0.00140978

> <r_epik_Charging_Adjusted_Penalty>
0.00140978

> <i_epik_Tot_Q>
0

> <i_epik_Tot_abs_Q>
0

> <r_epik_Metal_State_Penalty>
-0

> <b_epik_Metal_Only>
0

> <s_lp_Force_Field>
OPLS_2005

> <r_lp_Energy>
33.6932

> <b_lp_Chiralities_Consistent>
1

> <s_lp_Variant>
AV-unprocessed.smi:219-3

> <Gold.Version>
5.8.1

> <Gold.Id.Protein>
6NUR|6NUR_protein|mol2

> <Gold.PLP.Fitness>
48.3204

> <Gold.PLP.PLP>
-45.7737

> <Gold.PLP.part.hbond>
-2.9756

> <Gold.PLP.part.metal>
0.0000

> <Gold.PLP.part.buried>
-7.8969

> <Gold.PLP.part.nonpolar>
-35.5309

> <Gold.PLP.part.repulsive>
0.2357

> <Gold.PLP.ligand.clash>
0.0000

> <Gold.PLP.ligand.torsion>
0.8634

> <Gold.PLP.Chemscore.Hbond>
1.3324

> <Gold.PLP.Chemscore.CHOScore>
0.0000

> <Gold.PLP.Chemscore.Metal>
0.0000

> <Gold.Chemscore.Hbonds>
donor molecule, donor type, donor heavy atom, donor atom, acceptor molecule, acceptor atom, score
      P1  H  6896  6909       L1    22  0.66
      P1  H  7989  7998       L1     3  0.64

> <Gold.PLP.Chemscore.Internal.Correction>
0.2765

> <Gold.Rescore>
     Score         DG    S(hbond)    S(metal)    S(lipo)     H(rot)  DE(clash)    DE(int)     intcor
     10.61     -13.24       1.78        0.00      89.13       3.37       0.19       2.44       ----

> <Gold.Chemscore.Fitness>
10.6118

> <Gold.Chemscore.DG>
-13.2414

> <Gold.Chemscore.ZeroCoef>
-5.4800

> <Gold.Chemscore.Hbond>
1.7843

> <Gold.Chemscore.Metal>
0.0000

> <Gold.Chemscore.Lipo>
89.1315

> <Gold.Chemscore.Internal_Hbond>
0.0000

> <Gold.Chemscore.DEClash>
0.1889

> <Gold.Chemscore.DEInternal>
2.4407

> <Gold.Chemscore.Rot>
3.3697

> <Gold.Chemscore.Internal.Correction>
   9.000000E+99

> <Gold.Chemscore.Hbonds>
donor molecule, donor type, donor heavy atom, donor atom, acceptor molecule, acceptor atom, score
      P1  H  6896  6909       L1    22  0.15
      P1  H  7989  7998       L1     3  0.64

> <Gold.Chemscore.Hbond.Weighted>
-5.9595

> <Gold.Chemscore.Metal.Weighted>
-0.0000

> <Gold.Chemscore.Lipo.Weighted>
-10.4284

> <Gold.Chemscore.Internal_Hbond.Weighted>
0.0000

> <Gold.Chemscore.DEClash.Weighted>
0.1889

> <Gold.Chemscore.DEInternal.Weighted>
2.4407

> <Gold.Chemscore.Rot.Weighted>
8.6264

> <Gold.Chemscore.Internal.Correction.Weighted>
   9.000000E+99

> <Gold.Protein.RotatedTorsions>
[ 6907 6896 6895 6894 ] final  179.35 input  -60.11 | X-H torsion
[ 7974 7965 7964 7962 ] final  154.91 input  175.53 | X-H torsion
[ 8008 7997 7996 7995 ] final -156.33 input   59.86 | X-H torsion
[ 10167 10162 10161 10158 ] final  146.42 input  -65.29 | X-H torsion
[ 10718 10713 10712 10709 ] final  -77.19 input   66.30 | X-H torsion
[ 10763 10752 10751 10750 ] final  -28.72 input  -60.55 | X-H torsion
[ 11005 11000 10999 10996 ] final  -68.14 input  -57.11 | X-H torsion

> <Gold.Protein.ActiveResidues>
 VAL166  LYS551  ARG553  GLY616  TRP617  ASP618  TYR619  PRO620  LYS621  CYS622 
 ASP623  PHE694  ASN695  SER759  ASP760  ASP761  ALA762  ILE779  LEU786  VAL792 
 PHE793  MET794  SER795  GLU796  ALA797  LYS798  CYS799  TRP800  GLU811  SER814 

> <Gold.Protein.RotatedAtoms>
  151.6731  133.3313  159.3200 H   0  0  0  0  0  0  0  0  0  0  0  0  # atno 6907 bound_to 6896
  150.7858  134.6845  159.6472 H   0  0  0  0  0  0  0  0  0  0  0  0  # atno 6908 bound_to 6896
  152.3927  134.6418  160.0153 H   0  0  0  0  0  0  0  0  0  0  0  0  # atno 6909 bound_to 6896
  144.8058  139.6997  143.6162 H   0  0  0  0  0  0  0  0  0  0  0  0  # atno 7974 bound_to 7965
  155.7155  140.0783  157.2353 H   0  0  0  0  0  0  0  0  0  0  0  0  # atno 8008 bound_to 7997
  154.4052  140.1622  156.2398 H   0  0  0  0  0  0  0  0  0  0  0  0  # atno 8009 bound_to 7997
  155.9244  140.3395  155.6201 H   0  0  0  0  0  0  0  0  0  0  0  0  # atno 8010 bound_to 7997
  139.4907  144.5830  151.6833 H   0  0  0  0  0  0  0  0  0  0  0  0  # atno 10167 bound_to 10162
  156.0152  130.4485  150.3307 H   0  0  0  0  0  0  0  0  0  0  0  0  # atno 10718 bound_to 10713
  153.7529  135.6925  153.4942 H   0  0  0  0  0  0  0  0  0  0  0  0  # atno 10763 bound_to 10752
  153.1991  135.4443  155.0243 H   0  0  0  0  0  0  0  0  0  0  0  0  # atno 10764 bound_to 10752
  154.8181  135.3408  154.7049 H   0  0  0  0  0  0  0  0  0  0  0  0  # atno 10765 bound_to 10752
  141.1525  133.6734  156.6401 H   0  0  0  0  0  0  0  0  0  0  0  0  # atno 11005 bound_to 11000
  146.2349  139.5886  142.9530 LP  0  0  0  0  0  0  0  0  0  0  0  0  # atno 17320 bound_to 7965
  145.5441  141.0418  143.2314 LP  0  0  0  0  0  0  0  0  0  0  0  0  # atno 17321 bound_to 7965
  140.5440  144.0533  150.6100 LP  0  0  0  0  0  0  0  0  0  0  0  0  # atno 17342 bound_to 10162
  140.3564  143.2933  152.0431 LP  0  0  0  0  0  0  0  0  0  0  0  0  # atno 17343 bound_to 10162
  157.1405  131.0295  151.2930 LP  0  0  0  0  0  0  0  0  0  0  0  0  # atno 17370 bound_to 10713
  157.4476  130.7579  149.7123 LP  0  0  0  0  0  0  0  0  0  0  0  0  # atno 17371 bound_to 10713
  140.3400  134.7857  157.4391 LP  0  0  0  0  0  0  0  0  0  0  0  0  # atno 17394 bound_to 11000
  140.0946  134.5555  155.8411 LP  0  0  0  0  0  0  0  0  0  0  0  0  # atno 17395 bound_to 11000

$$$$
