AV-unprocessed.smi:3124|AV-procd|sdf|11902|dock1
  -GOLD-   2272017283D 1   1.00000     0.00000
 Structure written by MMmdl.
 24 24  0  0  0  0  0  0  0  0  2 V2000
  150.8740  142.7315  157.6641 C   0  0  0  0  0  0  0  0  0  0  0  0
  150.5133  141.8871  156.4893 C   0  0  0  0  0  0  0  0  0  0  0  0
  150.7300  140.5640  156.2249 C   0  0  0  0  0  0  0  0  0  0  0  0
  150.1436  140.3602  154.9410 C   0  0  0  0  0  0  0  0  0  0  0  0
  150.0788  139.0851  154.1438 C   0  0  0  0  0  0  0  0  0  0  0  0
  150.5683  137.8572  154.9360 C   0  0  2  0  0  0  0  0  0  0  0  0
  152.0831  137.9046  155.1780 C   0  0  0  0  0  0  0  0  0  0  0  0
  150.2025  136.6037  154.2507 N   0  3  0  0  0  0  0  0  0  0  0  0
  149.6083  141.4678  154.4487 N   0  0  0  0  0  0  0  0  0  0  0  0
  149.8404  142.3911  155.4004 N   0  0  0  0  0  0  0  0  0  0  0  0
  149.5338  143.3484  155.2972 H   0  0  0  0  0  0  0  0  0  0  0  0
  151.2659  142.1206  158.4778 H   0  0  0  0  0  0  0  0  0  0  0  0
  150.0030  143.2701  158.0380 H   0  0  0  0  0  0  0  0  0  0  0  0
  151.6357  143.4636  157.3955 H   0  0  0  0  0  0  0  0  0  0  0  0
  151.2307  139.8458  156.8572 H   0  0  0  0  0  0  0  0  0  0  0  0
  150.6784  139.1945  153.2388 H   0  0  0  0  0  0  0  0  0  0  0  0
  149.0566  138.9171  153.8017 H   0  0  0  0  0  0  0  0  0  0  0  0
  150.0736  137.8485  155.9080 H   0  0  0  0  0  0  0  0  0  0  0  0
  152.3652  138.8053  155.7243 H   0  0  0  0  0  0  0  0  0  0  0  0
  152.6372  137.8999  154.2385 H   0  0  0  0  0  0  0  0  0  0  0  0
  152.4154  137.0483  155.7660 H   0  0  0  0  0  0  0  0  0  0  0  0
  151.0213  136.2039  153.8156 H   0  0  0  0  0  0  0  0  0  0  0  0
  149.5076  136.7993  153.5437 H   0  0  0  0  0  0  0  0  0  0  0  0
  149.8243  135.9502  154.9215 H   0  0  0  0  0  0  0  0  0  0  0  0
  1 12  1  0  0  0  0
  1 13  1  0  0  0  0
  1 14  1  0  0  0  0
  1  2  1  0  0  0  0
  2 10  1  0  0  0  0
  2  3  2  0  0  0  0
  3  4  1  0  0  0  0
  3 15  1  0  0  0  0
  4  5  1  0  0  0  0
  4  9  2  0  0  0  0
  5  6  1  0  0  0  0
  5 16  1  0  0  0  0
  5 17  1  0  0  0  0
  6  7  1  0  0  0  0
  6  8  1  0  0  0  0
  6 18  1  0  0  0  0
  7 19  1  0  0  0  0
  7 20  1  0  0  0  0
  7 21  1  0  0  0  0
  8 22  1  0  0  0  0
  8 23  1  0  0  0  0
  8 24  1  0  0  0  0
  9 10  1  0  0  0  0
 10 11  1  0  0  0  0
M  CHG  1   8   1
M  END
> <s_m_source_file>
AV-unprocessed.smi

> <i_m_source_file_index>
3124

> <i_lp_mmshare_version>
43012

> <i_f3d_flags>
0

> <s_epik_input>
W0NIM11jMVtjSF1jKFtuSF1uMSlbQ0gyXVtDQEhdKFtDSDNdKVtOSDJd

> <s_epik_cmdline>
J2VwaWtfcHl0aG9uJywgJy1waCcsICc3LjAnLCAnLXRuJywgJzgnLCAnLW1hJywgJzIwMCcsICctbWV0YWxfYmluZGluZycsICctaW1hZScsICc8aW5maWxlLm1hZT4nLCAnLW9tYWUnLCAnPG91dGZpbGUubWFlPic=

> <r_lp_tautomer_probability>
0.5

> <r_epik_Ionization_Penalty>
0.00151643

> <r_epik_Ionization_Penalty_Charging>
0.00146569

> <r_epik_Ionization_Penalty_Neutral>
5.07401e-05

> <r_epik_State_Penalty>
0.379573

> <r_epik_Charging_Adjusted_Penalty>
0.381038

> <i_epik_Tot_Q>
1

> <i_epik_Tot_abs_Q>
1

> <r_epik_Metal_State_Penalty>
0.378341

> <b_epik_Metal_Only>
0

> <s_lp_Force_Field>
OPLS_2005

> <r_lp_Energy>
2.04404

> <b_lp_Chiralities_Consistent>
1

> <s_lp_Variant>
AV-unprocessed.smi:3124-1

> <Gold.Version>
5.8.1

> <Gold.Id.Protein>
6NUR|6NUR_protein|mol2

> <Gold.PLP.Fitness>
33.9361

> <Gold.PLP.PLP>
-23.2231

> <Gold.PLP.part.hbond>
-2.9696

> <Gold.PLP.part.metal>
0.0000

> <Gold.PLP.part.buried>
-1.1101

> <Gold.PLP.part.nonpolar>
-18.8381

> <Gold.PLP.part.repulsive>
0.3940

> <Gold.PLP.ligand.clash>
0.0000

> <Gold.PLP.ligand.torsion>
0.1290

> <Gold.PLP.Chemscore.Hbond>
3.6560

> <Gold.PLP.Chemscore.CHOScore>
0.0000

> <Gold.PLP.Chemscore.Metal>
0.0000

> <Gold.Chemscore.Hbonds>
donor molecule, donor type, donor heavy atom, donor atom, acceptor molecule, acceptor atom, score
      L1  H     8    22       P1  7949  0.21
      L1  H     8    23       P1  7948  1.60
      L1  H    10    11       P1  8028  1.00
      P1  H  8011  8017       L1     9  0.16

> <Gold.PLP.Chemscore.Internal.Correction>
0.0030

> <Gold.Rescore>
     Score         DG    S(hbond)    S(metal)    S(lipo)     H(rot)  DE(clash)    DE(int)     intcor
     13.78     -14.09       1.81        0.00      50.41       1.30       0.01       0.30       ----

> <Gold.Chemscore.Fitness>
13.7806

> <Gold.Chemscore.DG>
-14.0887

> <Gold.Chemscore.ZeroCoef>
-5.4800

> <Gold.Chemscore.Hbond>
1.8071

> <Gold.Chemscore.Metal>
0.0000

> <Gold.Chemscore.Lipo>
50.4056

> <Gold.Chemscore.Internal_Hbond>
0.0000

> <Gold.Chemscore.DEClash>
0.0093

> <Gold.Chemscore.DEInternal>
0.2988

> <Gold.Chemscore.Rot>
1.2987

> <Gold.Chemscore.Internal.Correction>
   9.000000E+99

> <Gold.Chemscore.Hbonds>
donor molecule, donor type, donor heavy atom, donor atom, acceptor molecule, acceptor atom, score
      L1  H     8    22       P1  7949  0.03
      L1  H     8    23       P1  7948  0.65
      L1  H    10    11       P1  8028  0.95
      P1  H  8011  8017       L1     9  0.12

> <Gold.Chemscore.Hbond.Weighted>
-6.0358

> <Gold.Chemscore.Metal.Weighted>
-0.0000

> <Gold.Chemscore.Lipo.Weighted>
-5.8975

> <Gold.Chemscore.Internal_Hbond.Weighted>
0.0000

> <Gold.Chemscore.DEClash.Weighted>
0.0093

> <Gold.Chemscore.DEInternal.Weighted>
0.2988

> <Gold.Chemscore.Rot.Weighted>
3.3246

> <Gold.Chemscore.Internal.Correction.Weighted>
   9.000000E+99

> <Gold.Protein.RotatedTorsions>
[ 6907 6896 6895 6894 ] final    0.25 input  -60.11 | X-H torsion
[ 7974 7965 7964 7962 ] final  162.85 input  175.53 | X-H torsion
[ 8008 7997 7996 7995 ] final -148.47 input   59.86 | X-H torsion
[ 10167 10162 10161 10158 ] final -178.61 input  -65.29 | X-H torsion
[ 10718 10713 10712 10709 ] final  -62.08 input   66.30 | X-H torsion
[ 10763 10752 10751 10750 ] final -156.09 input  -60.55 | X-H torsion
[ 11005 11000 10999 10996 ] final   93.32 input  -57.11 | X-H torsion

> <Gold.Protein.ActiveResidues>
 VAL166  LYS551  ARG553  GLY616  TRP617  ASP618  TYR619  PRO620  LYS621  CYS622 
 ASP623  PHE694  ASN695  SER759  ASP760  ASP761  ALA762  ILE779  LEU786  VAL792 
 PHE793  MET794  SER795  GLU796  ALA797  LYS798  CYS799  TRP800  GLU811  SER814 

> <Gold.Protein.RotatedAtoms>
  151.5733  135.1061  160.0000 H   0  0  0  0  0  0  0  0  0  0  0  0  # atno 6907 bound_to 6896
  152.4390  133.7409  159.6651 H   0  0  0  0  0  0  0  0  0  0  0  0  # atno 6908 bound_to 6896
  150.8292  133.8050  159.3129 H   0  0  0  0  0  0  0  0  0  0  0  0  # atno 6909 bound_to 6896
  144.7617  139.8099  143.6330 H   0  0  0  0  0  0  0  0  0  0  0  0  # atno 7974 bound_to 7965
  155.5922  140.0653  157.2755 H   0  0  0  0  0  0  0  0  0  0  0  0  # atno 8008 bound_to 7997
  154.4302  140.1833  156.1133 H   0  0  0  0  0  0  0  0  0  0  0  0  # atno 8009 bound_to 7997
  156.0224  140.3315  155.7056 H   0  0  0  0  0  0  0  0  0  0  0  0  # atno 8010 bound_to 7997
  139.5424  144.2326  152.0922 H   0  0  0  0  0  0  0  0  0  0  0  0  # atno 10167 bound_to 10162
  156.0879  130.4205  150.1084 H   0  0  0  0  0  0  0  0  0  0  0  0  # atno 10718 bound_to 10713
  154.7739  135.3153  154.8133 H   0  0  0  0  0  0  0  0  0  0  0  0  # atno 10763 bound_to 10752
  153.8861  135.6830  153.4768 H   0  0  0  0  0  0  0  0  0  0  0  0  # atno 10764 bound_to 10752
  153.1358  135.4760  154.9355 H   0  0  0  0  0  0  0  0  0  0  0  0  # atno 10765 bound_to 10752
  139.8811  134.8783  156.3701 H   0  0  0  0  0  0  0  0  0  0  0  0  # atno 11005 bound_to 11000
  146.1686  139.4827  142.9942 LP  0  0  0  0  0  0  0  0  0  0  0  0  # atno 17320 bound_to 7965
  145.6599  141.0243  143.1715 LP  0  0  0  0  0  0  0  0  0  0  0  0  # atno 17321 bound_to 7965
  140.1807  144.4847  150.6530 LP  0  0  0  0  0  0  0  0  0  0  0  0  # atno 17342 bound_to 10162
  140.6659  143.2268  151.5743 LP  0  0  0  0  0  0  0  0  0  0  0  0  # atno 17343 bound_to 10162
  156.9101  130.9649  151.3564 LP  0  0  0  0  0  0  0  0  0  0  0  0  # atno 17370 bound_to 10713
  157.6019  130.8519  149.8815 LP  0  0  0  0  0  0  0  0  0  0  0  0  # atno 17371 bound_to 10713
  140.9470  133.7476  156.0221 LP  0  0  0  0  0  0  0  0  0  0  0  0  # atno 17394 bound_to 11000
  140.8152  134.3353  157.5399 LP  0  0  0  0  0  0  0  0  0  0  0  0  # atno 17395 bound_to 11000

$$$$
