AV-unprocessed.smi:2252|AV-procd|sdf|9106|dock1
  -GOLD-   2272012303D 1   1.00000     0.00000
 Structure written by MMmdl.
 45 47  0  0  0  0  0  0  0  0  2 V2000
  151.7770  144.9403  159.8778 C   0  0  0  0  0  0  0  0  0  0  0  0
  152.1404  143.5372  159.8285 N   0  0  0  0  0  0  0  0  0  0  0  0
  152.9451  142.8751  160.7465 C   0  0  0  0  0  0  0  0  0  0  0  0
  153.0363  141.5715  160.3234 C   0  0  0  0  0  0  0  0  0  0  0  0
  152.2981  141.4138  159.1557 N   0  0  0  0  0  0  0  0  0  0  0  0
  151.7864  142.6160  158.9100 C   0  0  0  0  0  0  0  0  0  0  0  0
  150.9201  142.9168  157.7216 C   0  0  0  0  0  0  0  0  0  0  0  0
  150.9377  141.8089  156.6550 C   0  0  0  0  0  0  0  0  0  0  0  0
  149.8638  141.9830  155.6839 N   0  0  0  0  0  0  0  0  0  0  0  0
  148.8208  141.1533  155.5371 C   0  0  0  0  0  0  0  0  0  0  0  0
  148.6472  140.1559  156.2385 O   0  0  0  0  0  0  0  0  0  0  0  0
  147.8333  141.4874  154.4078 C   0  0  1  0  0  0  0  0  0  0  0  0
  147.0316  140.2121  154.0656 C   0  0  0  0  0  0  0  0  0  0  0  0
  147.7139  139.0074  153.4515 C   0  0  0  0  0  0  0  0  0  0  0  0
  146.7447  139.8184  152.6322 C   0  0  0  0  0  0  0  0  0  0  0  0
  146.9293  142.6158  154.7732 N   0  3  0  0  0  0  0  0  0  0  0  0
  145.9656  143.0241  153.7275 C   0  0  0  0  0  0  0  0  0  0  0  0
  144.9210  143.8529  154.4657 C   0  0  0  0  0  0  0  0  0  0  0  0
  144.8030  143.1557  155.8183 C   0  0  0  0  0  0  0  0  0  0  0  0
  146.1391  142.4235  156.0138 C   0  0  0  0  0  0  0  0  0  0  0  0
  152.2931  145.4333  160.7023 H   0  0  0  0  0  0  0  0  0  0  0  0
  150.7015  145.0376  160.0272 H   0  0  0  0  0  0  0  0  0  0  0  0
  152.0583  145.4309  158.9461 H   0  0  0  0  0  0  0  0  0  0  0  0
  153.3772  143.3728  161.6024 H   0  0  0  0  0  0  0  0  0  0  0  0
  153.5707  140.7429  160.7646 H   0  0  0  0  0  0  0  0  0  0  0  0
  149.8981  143.0647  158.0718 H   0  0  0  0  0  0  0  0  0  0  0  0
  151.2202  143.8645  157.2748 H   0  0  0  0  0  0  0  0  0  0  0  0
  151.9019  141.8233  156.1434 H   0  0  0  0  0  0  0  0  0  0  0  0
  150.8432  140.8305  157.1273 H   0  0  0  0  0  0  0  0  0  0  0  0
  149.9376  142.7735  155.0598 H   0  0  0  0  0  0  0  0  0  0  0  0
  148.4075  141.7910  153.5299 H   0  0  0  0  0  0  0  0  0  0  0  0
  146.2514  139.9806  154.7891 H   0  0  0  0  0  0  0  0  0  0  0  0
  148.7673  139.0914  153.1956 H   0  0  0  0  0  0  0  0  0  0  0  0
  147.3933  138.0232  153.7866 H   0  0  0  0  0  0  0  0  0  0  0  0
  145.7736  139.3768  152.4183 H   0  0  0  0  0  0  0  0  0  0  0  0
  147.1608  140.4355  151.8383 H   0  0  0  0  0  0  0  0  0  0  0  0
  146.4396  143.5885  152.9238 H   0  0  0  0  0  0  0  0  0  0  0  0
  145.4968  142.1401  153.2919 H   0  0  0  0  0  0  0  0  0  0  0  0
  145.2896  144.8700  154.6059 H   0  0  0  0  0  0  0  0  0  0  0  0
  143.9714  143.9106  153.9328 H   0  0  0  0  0  0  0  0  0  0  0  0
  144.5942  143.8612  156.6232 H   0  0  0  0  0  0  0  0  0  0  0  0
  143.9863  142.4329  155.7942 H   0  0  0  0  0  0  0  0  0  0  0  0
  145.9433  141.3656  156.1927 H   0  0  0  0  0  0  0  0  0  0  0  0
  146.6924  142.8110  156.8699 H   0  0  0  0  0  0  0  0  0  0  0  0
  147.5168  143.4210  154.9379 H   0  0  0  0  0  0  0  0  0  0  0  0
  1  2  1  0  0  0  0
  1 21  1  0  0  0  0
  1 22  1  0  0  0  0
  1 23  1  0  0  0  0
  2  6  1  0  0  0  0
  2  3  1  0  0  0  0
  3  4  2  0  0  0  0
  3 24  1  0  0  0  0
  4  5  1  0  0  0  0
  4 25  1  0  0  0  0
  5  6  2  0  0  0  0
  6  7  1  0  0  0  0
  7  8  1  0  0  0  0
  7 26  1  0  0  0  0
  7 27  1  0  0  0  0
  8  9  1  0  0  0  0
  8 28  1  0  0  0  0
  8 29  1  0  0  0  0
  9 10  1  0  0  0  0
  9 30  1  0  0  0  0
 10 11  2  0  0  0  0
 10 12  1  0  0  0  0
 12 13  1  0  0  0  0
 12 16  1  0  0  0  0
 12 31  1  0  0  0  0
 13 15  1  0  0  0  0
 13 14  1  0  0  0  0
 13 32  1  0  0  0  0
 14 15  1  0  0  0  0
 14 33  1  0  0  0  0
 14 34  1  0  0  0  0
 15 35  1  0  0  0  0
 15 36  1  0  0  0  0
 16 20  1  0  0  0  0
 16 17  1  0  0  0  0
 16 45  1  0  0  0  0
 17 18  1  0  0  0  0
 17 37  1  0  0  0  0
 17 38  1  0  0  0  0
 18 19  1  0  0  0  0
 18 39  1  0  0  0  0
 18 40  1  0  0  0  0
 19 20  1  0  0  0  0
 19 41  1  0  0  0  0
 19 42  1  0  0  0  0
 20 43  1  0  0  0  0
 20 44  1  0  0  0  0
M  CHG  1  16   1
M  END
> <s_m_source_file>
AV-unprocessed.smi

> <i_m_source_file_index>
2252

> <i_lp_mmshare_version>
43012

> <i_f3d_flags>
0

> <s_epik_input>
W0NIM11uMVtjSF1bY0hdbmMxW0NIMl1bQ0gyXVtOSF1DKD1PKVtDQEhdKFtDSF0yW0NIMl1bQ0gyXTIpTjNbQ0gyXVtDSDJdW0NIMl1bQ0gyXTM=

> <s_epik_cmdline>
J2VwaWtfcHl0aG9uJywgJy1waCcsICc3LjAnLCAnLXRuJywgJzgnLCAnLW1hJywgJzIwMCcsICctbWV0YWxfYmluZGluZycsICctaW1hZScsICc8aW5maWxlLm1hZT4nLCAnLW9tYWUnLCAnPG91dGZpbGUubWFlPic=

> <r_lp_tautomer_probability>
1

> <r_epik_Ionization_Penalty>
1.07437

> <r_epik_Ionization_Penalty_Charging>
1.07435

> <r_epik_Ionization_Penalty_Neutral>
2.35578e-05

> <r_epik_State_Penalty>
1.18204

> <r_epik_Charging_Adjusted_Penalty>
2.25639

> <i_epik_Tot_Q>
1

> <i_epik_Tot_abs_Q>
1

> <r_epik_Metal_State_Penalty>
0.433434

> <b_epik_Metal_Only>
0

> <s_lp_Force_Field>
OPLS_2005

> <r_lp_Energy>
34.9186

> <b_lp_Chiralities_Consistent>
1

> <s_lp_Variant>
AV-unprocessed.smi:2252-4

> <Gold.Version>
5.8.1

> <Gold.Id.Protein>
6NUR|6NUR_protein|mol2

> <Gold.PLP.Fitness>
50.0606

> <Gold.PLP.PLP>
-45.1955

> <Gold.PLP.part.hbond>
-2.0000

> <Gold.PLP.part.metal>
0.0000

> <Gold.PLP.part.buried>
-5.3404

> <Gold.PLP.part.nonpolar>
-38.7318

> <Gold.PLP.part.repulsive>
0.3062

> <Gold.PLP.ligand.clash>
0.0000

> <Gold.PLP.ligand.torsion>
1.3268

> <Gold.PLP.Chemscore.Hbond>
2.0889

> <Gold.PLP.Chemscore.CHOScore>
0.0000

> <Gold.PLP.Chemscore.Metal>
0.0000

> <Gold.Chemscore.Hbonds>
donor molecule, donor type, donor heavy atom, donor atom, acceptor molecule, acceptor atom, score
      L1  H     9    30       P1  8028  0.14
      L1  H    16    45       P1  8028  1.90

> <Gold.PLP.Chemscore.Internal.Correction>
1.2518

> <Gold.Rescore>
     Score         DG    S(hbond)    S(metal)    S(lipo)     H(rot)  DE(clash)    DE(int)     intcor
     13.00     -14.36       0.82        0.00      95.23       1.95       0.08       1.28       ----

> <Gold.Chemscore.Fitness>
13.0009

> <Gold.Chemscore.DG>
-14.3598

> <Gold.Chemscore.ZeroCoef>
-5.4800

> <Gold.Chemscore.Hbond>
0.8160

> <Gold.Chemscore.Metal>
0.0000

> <Gold.Chemscore.Lipo>
95.2337

> <Gold.Chemscore.Internal_Hbond>
0.0000

> <Gold.Chemscore.DEClash>
0.0817

> <Gold.Chemscore.DEInternal>
1.2771

> <Gold.Chemscore.Rot>
1.9485

> <Gold.Chemscore.Internal.Correction>
   9.000000E+99

> <Gold.Chemscore.Hbonds>
donor molecule, donor type, donor heavy atom, donor atom, acceptor molecule, acceptor atom, score
      L1  H     9    30       P1  8028  0.14
      L1  H    16    45       P1  8028  0.21

> <Gold.Chemscore.Hbond.Weighted>
-2.7255

> <Gold.Chemscore.Metal.Weighted>
-0.0000

> <Gold.Chemscore.Lipo.Weighted>
-11.1423

> <Gold.Chemscore.Internal_Hbond.Weighted>
0.0000

> <Gold.Chemscore.DEClash.Weighted>
0.0817

> <Gold.Chemscore.DEInternal.Weighted>
1.2771

> <Gold.Chemscore.Rot.Weighted>
4.9881

> <Gold.Chemscore.Internal.Correction.Weighted>
   9.000000E+99

> <Gold.Protein.RotatedTorsions>
[ 6907 6896 6895 6894 ] final -161.79 input  -60.11 | X-H torsion
[ 7974 7965 7964 7962 ] final   22.08 input  175.53 | X-H torsion
[ 8008 7997 7996 7995 ] final  140.64 input   59.86 | X-H torsion
[ 10167 10162 10161 10158 ] final  128.83 input  -65.29 | X-H torsion
[ 10718 10713 10712 10709 ] final  171.04 input   66.30 | X-H torsion
[ 10763 10752 10751 10750 ] final  -67.58 input  -60.55 | X-H torsion
[ 11005 11000 10999 10996 ] final  163.31 input  -57.11 | X-H torsion

> <Gold.Protein.ActiveResidues>
 VAL166  LYS551  ARG553  GLY616  TRP617  ASP618  TYR619  PRO620  LYS621  CYS622 
 ASP623  PHE694  ASN695  SER759  ASP760  ASP761  ALA762  ILE779  LEU786  VAL792 
 PHE793  MET794  SER795  GLU796  ALA797  LYS798  CYS799  TRP800  GLU811  SER814 

> <Gold.Protein.RotatedAtoms>
  151.3701  133.3858  159.2698 H   0  0  0  0  0  0  0  0  0  0  0  0  # atno 6907 bound_to 6896
  150.9657  134.9039  159.7768 H   0  0  0  0  0  0  0  0  0  0  0  0  # atno 6908 bound_to 6896
  152.5166  134.3662  159.9354 H   0  0  0  0  0  0  0  0  0  0  0  0  # atno 6909 bound_to 6896
  146.2044  139.7936  142.8737 H   0  0  0  0  0  0  0  0  0  0  0  0  # atno 7974 bound_to 7965
  156.2976  140.2336  156.4435 H   0  0  0  0  0  0  0  0  0  0  0  0  # atno 8008 bound_to 7997
  154.8165  140.0440  157.1400 H   0  0  0  0  0  0  0  0  0  0  0  0  # atno 8009 bound_to 7997
  154.9364  140.3023  155.5146 H   0  0  0  0  0  0  0  0  0  0  0  0  # atno 8010 bound_to 7997
  139.5508  144.6811  151.4331 H   0  0  0  0  0  0  0  0  0  0  0  0  # atno 10167 bound_to 10162
  156.9993  131.0171  151.2835 H   0  0  0  0  0  0  0  0  0  0  0  0  # atno 10718 bound_to 10713
  154.3765  135.6083  153.5768 H   0  0  0  0  0  0  0  0  0  0  0  0  # atno 10763 bound_to 10752
  152.9789  135.5850  154.4460 H   0  0  0  0  0  0  0  0  0  0  0  0  # atno 10764 bound_to 10752
  154.4223  135.2846  155.1945 H   0  0  0  0  0  0  0  0  0  0  0  0  # atno 10765 bound_to 10752
  140.2345  134.8099  157.3350 H   0  0  0  0  0  0  0  0  0  0  0  0  # atno 11005 bound_to 11000
  145.3371  141.0279  143.3413 LP  0  0  0  0  0  0  0  0  0  0  0  0  # atno 17320 bound_to 7965
  144.8758  139.4974  143.6746 LP  0  0  0  0  0  0  0  0  0  0  0  0  # atno 17321 bound_to 7965
  140.6769  143.8169  150.7071 LP  0  0  0  0  0  0  0  0  0  0  0  0  # atno 17342 bound_to 10162
  140.1610  143.4275  152.2067 LP  0  0  0  0  0  0  0  0  0  0  0  0  # atno 17343 bound_to 10162
  157.5401  130.8114  149.8019 LP  0  0  0  0  0  0  0  0  0  0  0  0  # atno 17370 bound_to 10713
  156.0177  130.3807  150.2059 LP  0  0  0  0  0  0  0  0  0  0  0  0  # atno 17371 bound_to 10713
  140.1717  134.4601  155.7828 LP  0  0  0  0  0  0  0  0  0  0  0  0  # atno 17394 bound_to 11000
  141.2215  133.6944  156.7718 LP  0  0  0  0  0  0  0  0  0  0  0  0  # atno 17395 bound_to 11000

$$$$
