AV-unprocessed.smi:2114|AV-procd|sdf|8622|dock4
  -GOLD-   2272011363D 1   1.00000     0.00000
 Structure written by MMmdl.
 47 48  0  0  0  0  0  0  0  0  1 V2000
  156.9787  145.0342  168.7511 C   0  0  0  0  0  0  0  0  0  0  0  0
  155.8055  144.2829  169.0076 O   0  0  0  0  0  0  0  0  0  0  0  0
  155.0394  144.0510  167.8365 C   0  0  0  0  0  0  0  0  0  0  0  0
  155.5851  142.8118  167.1106 C   0  0  1  0  0  0  0  0  0  0  0  0
  155.2748  141.5191  167.8786 C   0  0  0  0  0  0  0  0  0  0  0  0
  155.0038  142.7326  165.7730 N   0  0  0  0  0  0  0  0  0  0  0  0
  155.1704  141.7245  164.9012 C   0  0  0  0  0  0  0  0  0  0  0  0
  155.8633  140.7316  165.1232 O   0  0  0  0  0  0  0  0  0  0  0  0
  154.4979  141.9095  163.5726 C   0  0  0  0  0  0  0  0  0  0  0  0
  154.6763  140.9871  162.5173 C   0  0  0  0  0  0  0  0  0  0  0  0
  154.0335  141.2233  161.2872 C   0  0  0  0  0  0  0  0  0  0  0  0
  153.2335  142.3760  161.1498 C   0  0  0  0  0  0  0  0  0  0  0  0
  152.5853  142.6106  159.9295 N   0  0  0  0  0  0  0  0  0  0  0  0
  151.8291  141.4701  159.4314 C   0  0  0  0  0  0  0  0  0  0  0  0
  151.3146  141.7617  158.0105 C   0  0  1  0  0  0  0  0  0  0  0  0
  150.4249  140.6326  157.4800 C   0  0  0  0  0  0  0  0  0  0  0  0
  150.5453  142.9649  158.0248 O   0  0  0  0  0  0  0  0  0  0  0  0
  151.2378  144.1168  158.5148 C   0  0  2  0  0  0  0  0  0  0  0  0
  152.2963  144.6214  157.5184 C   0  0  0  0  0  0  0  0  0  0  0  0
  151.8030  143.8395  159.9224 C   0  0  0  0  0  0  0  0  0  0  0  0
  153.0690  143.2731  162.1509 N   0  0  0  0  0  0  0  0  0  0  0  0
  153.6928  143.0434  163.3262 C   0  0  0  0  0  0  0  0  0  0  0  0
  157.5304  145.1804  169.6798 H   0  0  0  0  0  0  0  0  0  0  0  0
  156.7376  146.0174  168.3449 H   0  0  0  0  0  0  0  0  0  0  0  0
  157.6331  144.5158  168.0492 H   0  0  0  0  0  0  0  0  0  0  0  0
  153.9965  143.8890  168.1137 H   0  0  0  0  0  0  0  0  0  0  0  0
  155.0719  144.9234  167.1814 H   0  0  0  0  0  0  0  0  0  0  0  0
  156.6702  142.9123  167.0488 H   0  0  0  0  0  0  0  0  0  0  0  0
  155.7153  141.5405  168.8756 H   0  0  0  0  0  0  0  0  0  0  0  0
  155.6783  140.6483  167.3606 H   0  0  0  0  0  0  0  0  0  0  0  0
  154.2002  141.3718  167.9923 H   0  0  0  0  0  0  0  0  0  0  0  0
  154.4386  143.5164  165.4807 H   0  0  0  0  0  0  0  0  0  0  0  0
  155.2960  140.1102  162.6372 H   0  0  0  0  0  0  0  0  0  0  0  0
  154.1514  140.5301  160.4672 H   0  0  0  0  0  0  0  0  0  0  0  0
  152.4626  140.5820  159.4278 H   0  0  0  0  0  0  0  0  0  0  0  0
  150.9894  141.2656  160.0975 H   0  0  0  0  0  0  0  0  0  0  0  0
  152.1592  141.8735  157.3301 H   0  0  0  0  0  0  0  0  0  0  0  0
  150.9701  139.6892  157.4402 H   0  0  0  0  0  0  0  0  0  0  0  0
  150.0733  140.8551  156.4723 H   0  0  0  0  0  0  0  0  0  0  0  0
  149.5496  140.4879  158.1142 H   0  0  0  0  0  0  0  0  0  0  0  0
  150.4902  144.9049  158.6066 H   0  0  0  0  0  0  0  0  0  0  0  0
  152.7125  145.5740  157.8471 H   0  0  0  0  0  0  0  0  0  0  0  0
  151.8581  144.7762  156.5323 H   0  0  0  0  0  0  0  0  0  0  0  0
  153.1281  143.9255  157.4104 H   0  0  0  0  0  0  0  0  0  0  0  0
  150.9800  143.7418  160.6322 H   0  0  0  0  0  0  0  0  0  0  0  0
  152.4147  144.6779  160.2584 H   0  0  0  0  0  0  0  0  0  0  0  0
  153.5327  143.7869  164.0936 H   0  0  0  0  0  0  0  0  0  0  0  0
  1  2  1  0  0  0  0
  1 23  1  0  0  0  0
  1 24  1  0  0  0  0
  1 25  1  0  0  0  0
  2  3  1  0  0  0  0
  3  4  1  0  0  0  0
  3 26  1  0  0  0  0
  3 27  1  0  0  0  0
  4  5  1  0  0  0  0
  4  6  1  0  0  0  0
  4 28  1  0  0  0  0
  5 29  1  0  0  0  0
  5 30  1  0  0  0  0
  5 31  1  0  0  0  0
  6  7  1  0  0  0  0
  6 32  1  0  0  0  0
  7  8  2  0  0  0  0
  7  9  1  0  0  0  0
  9 22  1  0  0  0  0
  9 10  2  0  0  0  0
 10 11  1  0  0  0  0
 10 33  1  0  0  0  0
 11 12  2  0  0  0  0
 11 34  1  0  0  0  0
 12 13  1  0  0  0  0
 12 21  1  0  0  0  0
 13 20  1  0  0  0  0
 13 14  1  0  0  0  0
 14 15  1  0  0  0  0
 14 35  1  0  0  0  0
 14 36  1  0  0  0  0
 15 16  1  0  0  0  0
 15 17  1  0  0  0  0
 15 37  1  0  0  0  0
 16 38  1  0  0  0  0
 16 39  1  0  0  0  0
 16 40  1  0  0  0  0
 17 18  1  0  0  0  0
 18 19  1  0  0  0  0
 18 20  1  0  0  0  0
 18 41  1  0  0  0  0
 19 42  1  0  0  0  0
 19 43  1  0  0  0  0
 19 44  1  0  0  0  0
 20 45  1  0  0  0  0
 20 46  1  0  0  0  0
 21 22  2  0  0  0  0
 22 47  1  0  0  0  0
M  END
> <s_m_source_file>
AV-unprocessed.smi

> <i_m_source_file_index>
2114

> <i_lp_mmshare_version>
43012

> <i_f3d_flags>
0

> <s_epik_input>
W0NIM11PW0NIMl1bQ0BIXShbQ0gzXSlbTkhdQyg9TyljMVtjSF1bY0hdYyhuW2NIXTEpTjJbQ0gyXVtDQEBIXShbQ0gzXSlPW0NAQEhdKFtDSDNdKVtDSDJdMg==

> <s_epik_cmdline>
J2VwaWtfcHl0aG9uJywgJy1waCcsICc3LjAnLCAnLXRuJywgJzgnLCAnLW1hJywgJzIwMCcsICctbWV0YWxfYmluZGluZycsICctaW1hZScsICc8aW5maWxlLm1hZT4nLCAnLW9tYWUnLCAnPG91dGZpbGUubWFlPic=

> <r_lp_tautomer_probability>
1

> <r_epik_Ionization_Penalty>
1.92915e-05

> <r_epik_Ionization_Penalty_Charging>
0

> <r_epik_Ionization_Penalty_Neutral>
1.92915e-05

> <r_epik_State_Penalty>
-0

> <r_epik_Charging_Adjusted_Penalty>
0

> <i_epik_Tot_Q>
0

> <i_epik_Tot_abs_Q>
0

> <r_epik_Metal_State_Penalty>
-0

> <b_epik_Metal_Only>
0

> <s_lp_Force_Field>
OPLS_2005

> <r_lp_Energy>
24.377

> <b_lp_Chiralities_Consistent>
1

> <s_lp_Variant>
AV-unprocessed.smi:2114-6

> <Gold.Version>
5.8.1

> <Gold.Id.Protein>
6NUR|6NUR_protein|mol2

> <Gold.PLP.Fitness>
44.5112

> <Gold.PLP.PLP>
-45.0923

> <Gold.PLP.part.hbond>
0.0000

> <Gold.PLP.part.metal>
0.0000

> <Gold.PLP.part.buried>
-3.9246

> <Gold.PLP.part.nonpolar>
-40.1441

> <Gold.PLP.part.repulsive>
0.5203

> <Gold.PLP.ligand.clash>
0.0000

> <Gold.PLP.ligand.torsion>
0.3520

> <Gold.PLP.Chemscore.Hbond>
0.0000

> <Gold.PLP.Chemscore.CHOScore>
0.0000

> <Gold.PLP.Chemscore.Metal>
0.0000

> <Gold.PLP.Chemscore.Internal.Correction>
0.1229

> <Gold.Rescore>
     Score         DG    S(hbond)    S(metal)    S(lipo)     H(rot)  DE(clash)    DE(int)     intcor
     13.73     -15.76       0.00        0.00     121.21       1.52       0.53       1.50       ----

> <Gold.Chemscore.Fitness>
13.7327

> <Gold.Chemscore.DG>
-15.7632

> <Gold.Chemscore.ZeroCoef>
-5.4800

> <Gold.Chemscore.Hbond>
0.0000

> <Gold.Chemscore.Metal>
0.0000

> <Gold.Chemscore.Lipo>
121.2065

> <Gold.Chemscore.Internal_Hbond>
0.0000

> <Gold.Chemscore.DEClash>
0.5276

> <Gold.Chemscore.DEInternal>
1.5028

> <Gold.Chemscore.Rot>
1.5226

> <Gold.Chemscore.Internal.Correction>
   9.000000E+99

> <Gold.Chemscore.Hbond.Weighted>
-0.0000

> <Gold.Chemscore.Metal.Weighted>
-0.0000

> <Gold.Chemscore.Lipo.Weighted>
-14.1812

> <Gold.Chemscore.Internal_Hbond.Weighted>
0.0000

> <Gold.Chemscore.DEClash.Weighted>
0.5276

> <Gold.Chemscore.DEInternal.Weighted>
1.5028

> <Gold.Chemscore.Rot.Weighted>
3.8980

> <Gold.Chemscore.Internal.Correction.Weighted>
   9.000000E+99

> <Gold.Protein.RotatedTorsions>
[ 6907 6896 6895 6894 ] final  -13.80 input  -60.11 | X-H torsion
[ 7974 7965 7964 7962 ] final -115.24 input  175.53 | X-H torsion
[ 8008 7997 7996 7995 ] final   53.89 input   59.86 | X-H torsion
[ 10167 10162 10161 10158 ] final -141.17 input  -65.29 | X-H torsion
[ 10718 10713 10712 10709 ] final   70.24 input   66.30 | X-H torsion
[ 10763 10752 10751 10750 ] final   -5.43 input  -60.55 | X-H torsion
[ 11005 11000 10999 10996 ] final -159.99 input  -57.11 | X-H torsion

> <Gold.Protein.ActiveResidues>
 VAL166  LYS551  ARG553  GLY616  TRP617  ASP618  TYR619  PRO620  LYS621  CYS622 
 ASP623  PHE694  ASN695  SER759  ASP760  ASP761  ALA762  ILE779  LEU786  VAL792 
 PHE793  MET794  SER795  GLU796  ALA797  LYS798  CYS799  TRP800  GLU811  SER814 

> <Gold.Protein.RotatedAtoms>
  151.3493  135.0881  159.9397 H   0  0  0  0  0  0  0  0  0  0  0  0  # atno 6907 bound_to 6896
  152.5191  133.9369  159.7618 H   0  0  0  0  0  0  0  0  0  0  0  0  # atno 6908 bound_to 6896
  150.9741  133.6259  159.2762 H   0  0  0  0  0  0  0  0  0  0  0  0  # atno 6909 bound_to 6896
  145.1107  140.8610  143.3871 H   0  0  0  0  0  0  0  0  0  0  0  0  # atno 7974 bound_to 7965
  155.4757  140.3466  155.4332 H   0  0  0  0  0  0  0  0  0  0  0  0  # atno 8008 bound_to 7997
  156.1072  140.1451  156.9417 H   0  0  0  0  0  0  0  0  0  0  0  0  # atno 8009 bound_to 7997
  154.4732  140.0894  156.7175 H   0  0  0  0  0  0  0  0  0  0  0  0  # atno 8010 bound_to 7997
  139.8211  143.7573  152.2666 H   0  0  0  0  0  0  0  0  0  0  0  0  # atno 10167 bound_to 10162
  157.6389  130.9467  150.0624 H   0  0  0  0  0  0  0  0  0  0  0  0  # atno 10718 bound_to 10713
  153.3984  135.7004  153.6444 H   0  0  0  0  0  0  0  0  0  0  0  0  # atno 10763 bound_to 10752
  153.4987  135.3657  155.2529 H   0  0  0  0  0  0  0  0  0  0  0  0  # atno 10764 bound_to 10752
  154.8708  135.4106  154.3314 H   0  0  0  0  0  0  0  0  0  0  0  0  # atno 10765 bound_to 10752
  140.6365  134.4597  157.5232 H   0  0  0  0  0  0  0  0  0  0  0  0  # atno 11005 bound_to 11000
  145.0850  139.2932  143.5764 LP  0  0  0  0  0  0  0  0  0  0  0  0  # atno 17320 bound_to 7965
  146.3526  140.0369  142.8646 LP  0  0  0  0  0  0  0  0  0  0  0  0  # atno 17321 bound_to 7965
  139.7751  144.7463  151.0168 LP  0  0  0  0  0  0  0  0  0  0  0  0  # atno 17342 bound_to 10162
  140.7813  143.4602  151.0288 LP  0  0  0  0  0  0  0  0  0  0  0  0  # atno 17343 bound_to 10162
  156.1652  130.3645  149.9242 LP  0  0  0  0  0  0  0  0  0  0  0  0  # atno 17370 bound_to 10713
  156.7231  130.9014  151.3620 LP  0  0  0  0  0  0  0  0  0  0  0  0  # atno 17371 bound_to 10713
  139.9096  134.8373  156.1576 LP  0  0  0  0  0  0  0  0  0  0  0  0  # atno 17394 bound_to 11000
  141.0638  133.6829  156.2004 LP  0  0  0  0  0  0  0  0  0  0  0  0  # atno 17395 bound_to 11000

$$$$
