AV-unprocessed.smi:1762|AV-procd|sdf|7122|dock2
  -GOLD-   22720 8353D 1   1.00000     0.00000
 Structure written by MMmdl.
 52 53  0  0  0  0  0  0  0  0  3 V2000
  149.2851  130.8705  154.2891 C   0  0  0  0  0  0  0  0  0  0  0  0
  148.1264  131.8227  153.9740 C   0  0  1  0  0  0  0  0  0  0  0  0
  148.6256  133.2348  153.5989 C   0  0  0  0  0  0  0  0  0  0  0  0
  147.4948  134.1281  153.2129 N   0  3  2  0  0  0  0  0  0  0  0  0
  146.6659  134.6351  154.3625 C   0  0  1  0  0  0  0  0  0  0  0  0
  147.5704  135.1697  155.4997 C   0  0  0  0  0  0  0  0  0  0  0  0
  148.7330  135.4887  155.2273 O   0  0  0  0  0  0  0  0  0  0  0  0
  146.9140  135.1772  156.6926 N   0  5  0  0  0  0  0  0  0  0  0  0
  147.5923  135.2310  157.9844 C   0  0  0  0  0  0  0  0  0  0  0  0
  146.9847  136.3545  158.8519 C   0  0  0  0  0  0  0  0  0  0  0  0
  147.1247  136.1276  160.3540 C   0  0  0  0  0  0  0  0  0  0  0  0
  147.0427  134.8241  160.8952 C   0  0  0  0  0  0  0  0  0  0  0  0
  147.1723  134.6616  162.2879 C   0  0  0  0  0  0  0  0  0  0  0  0
  147.3745  135.8019  163.0885 C   0  0  0  0  0  0  0  0  0  0  0  0
  147.4347  137.0604  162.4580 C   0  0  0  0  0  0  0  0  0  0  0  0
  147.3097  137.2280  161.1241 N   0  0  0  0  0  0  0  0  0  0  0  0
  145.5790  135.6886  153.9591 C   0  0  0  0  0  0  0  0  0  0  0  0
  144.3178  135.0903  153.3020 C   0  0  0  0  0  0  0  0  0  0  0  0
  146.1396  136.8316  153.0896 C   0  0  0  0  0  0  0  0  0  0  0  0
  146.7508  133.4729  152.1027 C   0  0  0  0  0  0  0  0  0  0  0  0
  146.2667  132.0657  152.5093 C   0  0  1  0  0  0  0  0  0  0  0  0
  145.5493  131.3509  151.3594 C   0  0  0  0  0  0  0  0  0  0  0  0
  147.3958  131.2795  152.8782 O   0  0  0  0  0  0  0  0  0  0  0  0
  149.8752  131.2377  155.1292 H   0  0  0  0  0  0  0  0  0  0  0  0
  149.9514  130.7610  153.4330 H   0  0  0  0  0  0  0  0  0  0  0  0
  148.9144  129.8795  154.5523 H   0  0  0  0  0  0  0  0  0  0  0  0
  147.4798  131.8672  154.8510 H   0  0  0  0  0  0  0  0  0  0  0  0
  149.2287  133.6531  154.4040 H   0  0  0  0  0  0  0  0  0  0  0  0
  149.3021  133.1606  152.7463 H   0  0  0  0  0  0  0  0  0  0  0  0
  146.1058  133.7780  154.7394 H   0  0  0  0  0  0  0  0  0  0  0  0
  147.5047  134.2840  158.5183 H   0  0  0  0  0  0  0  0  0  0  0  0
  148.6617  135.4121  157.8684 H   0  0  0  0  0  0  0  0  0  0  0  0
  147.4532  137.3077  158.6010 H   0  0  0  0  0  0  0  0  0  0  0  0
  145.9257  136.4697  158.6169 H   0  0  0  0  0  0  0  0  0  0  0  0
  146.8894  133.9671  160.2556 H   0  0  0  0  0  0  0  0  0  0  0  0
  147.1184  133.6795  162.7338 H   0  0  0  0  0  0  0  0  0  0  0  0
  147.4807  135.7144  164.1595 H   0  0  0  0  0  0  0  0  0  0  0  0
  147.5872  137.9567  163.0408 H   0  0  0  0  0  0  0  0  0  0  0  0
  145.2576  136.1899  154.8711 H   0  0  0  0  0  0  0  0  0  0  0  0
  144.5285  134.6868  152.3118 H   0  0  0  0  0  0  0  0  0  0  0  0
  143.5492  135.8536  153.1789 H   0  0  0  0  0  0  0  0  0  0  0  0
  143.8842  134.2900  153.9006 H   0  0  0  0  0  0  0  0  0  0  0  0
  146.4246  136.4875  152.0949 H   0  0  0  0  0  0  0  0  0  0  0  0
  147.0190  137.2819  153.5513 H   0  0  0  0  0  0  0  0  0  0  0  0
  145.3990  137.6212  152.9591 H   0  0  0  0  0  0  0  0  0  0  0  0
  145.9307  134.0830  151.7311 H   0  0  0  0  0  0  0  0  0  0  0  0
  147.4311  133.3816  151.2547 H   0  0  0  0  0  0  0  0  0  0  0  0
  145.5785  132.1308  153.3532 H   0  0  0  0  0  0  0  0  0  0  0  0
  144.6710  131.9106  151.0368 H   0  0  0  0  0  0  0  0  0  0  0  0
  145.2172  130.3584  151.6648 H   0  0  0  0  0  0  0  0  0  0  0  0
  146.2058  131.2313  150.4970 H   0  0  0  0  0  0  0  0  0  0  0  0
  147.9150  134.9591  152.8213 H   0  0  0  0  0  0  0  0  0  0  0  0
  1  2  1  0  0  0  0
  1 24  1  0  0  0  0
  1 25  1  0  0  0  0
  1 26  1  0  0  0  0
  2 23  1  0  0  0  0
  2  3  1  0  0  0  0
  2 27  1  0  0  0  0
  3  4  1  0  0  0  0
  3 28  1  0  0  0  0
  3 29  1  0  0  0  0
  4  5  1  0  0  0  0
  4 20  1  0  0  0  0
  4 52  1  0  0  0  0
  5  6  1  0  0  0  0
  5 17  1  0  0  0  0
  5 30  1  0  0  0  0
  6  7  2  0  0  0  0
  6  8  1  0  0  0  0
  8  9  1  0  0  0  0
  9 10  1  0  0  0  0
  9 31  1  0  0  0  0
  9 32  1  0  0  0  0
 10 11  1  0  0  0  0
 10 33  1  0  0  0  0
 10 34  1  0  0  0  0
 11 16  1  0  0  0  0
 11 12  2  0  0  0  0
 12 13  1  0  0  0  0
 12 35  1  0  0  0  0
 13 14  2  0  0  0  0
 13 36  1  0  0  0  0
 14 15  1  0  0  0  0
 14 37  1  0  0  0  0
 15 16  2  0  0  0  0
 15 38  1  0  0  0  0
 17 18  1  0  0  0  0
 17 19  1  0  0  0  0
 17 39  1  0  0  0  0
 18 40  1  0  0  0  0
 18 41  1  0  0  0  0
 18 42  1  0  0  0  0
 19 43  1  0  0  0  0
 19 44  1  0  0  0  0
 19 45  1  0  0  0  0
 20 21  1  0  0  0  0
 20 46  1  0  0  0  0
 20 47  1  0  0  0  0
 21 22  1  0  0  0  0
 21 23  1  0  0  0  0
 21 48  1  0  0  0  0
 22 49  1  0  0  0  0
 22 50  1  0  0  0  0
 22 51  1  0  0  0  0
M  CHG  1   4   1
M  CHG  1   8  -1
M  END
> <s_m_source_file>
AV-unprocessed.smi

> <i_m_source_file_index>
1762

> <i_lp_mmshare_version>
43012

> <i_f3d_flags>
0

> <s_epik_input>
W0NIM11bQ0BASF0xW0NIMl1OKFtDSDJdW0NASF0oTzEpW0NIM10pW0NAQEhdKFtDSF0oW0NIM10pW0NIM10pQyg9TylbTkhdW0NIMl1bQ0gyXWMyW2NIXVtjSF1bY0hdW2NIXW4y

> <s_epik_cmdline>
J2VwaWtfcHl0aG9uJywgJy1waCcsICc3LjAnLCAnLXRuJywgJzgnLCAnLW1hJywgJzIwMCcsICctbWV0YWxfYmluZGluZycsICctaW1hZScsICc8aW5maWxlLm1hZT4nLCAnLW9tYWUnLCAnPG91dGZpbGUubWFlPic=

> <r_epik_Ionization_Penalty>
7.82966

> <r_epik_Ionization_Penalty_Charging>
7.7461

> <r_epik_Ionization_Penalty_Neutral>
0.0835571

> <r_epik_State_Penalty>
8.52273

> <r_epik_Charging_Adjusted_Penalty>
16.2688

> <i_epik_Tot_Q>
0

> <i_epik_Tot_abs_Q>
2

> <r_epik_Metal_State_Penalty>
4.47451

> <b_epik_Metal_Only>
1

> <s_lp_Force_Field>
OPLS_2005

> <r_lp_Energy>
22.3574

> <b_lp_Chiralities_Consistent>
1

> <s_lp_Variant>
AV-unprocessed.smi:1762-24

> <Gold.Version>
5.8.1

> <Gold.Id.Protein>
6NUR|6NUR_protein|mol2

> <Gold.PLP.Fitness>
40.6716

> <Gold.PLP.PLP>
-33.8874

> <Gold.PLP.part.hbond>
-2.5851

> <Gold.PLP.part.metal>
0.0000

> <Gold.PLP.part.buried>
-4.2909

> <Gold.PLP.part.nonpolar>
-28.8023

> <Gold.PLP.part.repulsive>
1.4811

> <Gold.PLP.ligand.clash>
0.0000

> <Gold.PLP.ligand.torsion>
1.4227

> <Gold.PLP.Chemscore.Hbond>
3.0000

> <Gold.PLP.Chemscore.CHOScore>
0.0000

> <Gold.PLP.Chemscore.Metal>
0.0000

> <Gold.Chemscore.Hbonds>
donor molecule, donor type, donor heavy atom, donor atom, acceptor molecule, acceptor atom, score
      L1  H     4    52       P1  7948  2.00
      P1  H  6934  6947       L1    16  1.00

> <Gold.PLP.Chemscore.Internal.Correction>
0.6295

> <Gold.Rescore>
     Score         DG    S(hbond)    S(metal)    S(lipo)     H(rot)  DE(clash)    DE(int)     intcor
     14.54     -17.21       1.74        0.00      85.55       1.60       0.01       2.67       ----

> <Gold.Chemscore.Fitness>
14.5392

> <Gold.Chemscore.DG>
-17.2141

> <Gold.Chemscore.ZeroCoef>
-5.4800

> <Gold.Chemscore.Hbond>
1.7437

> <Gold.Chemscore.Metal>
0.0000

> <Gold.Chemscore.Lipo>
85.5467

> <Gold.Chemscore.Internal_Hbond>
0.0000

> <Gold.Chemscore.DEClash>
0.0059

> <Gold.Chemscore.DEInternal>
2.6690

> <Gold.Chemscore.Rot>
1.6012

> <Gold.Chemscore.Internal.Correction>
   9.000000E+99

> <Gold.Chemscore.Hbonds>
donor molecule, donor type, donor heavy atom, donor atom, acceptor molecule, acceptor atom, score
      L1  H     4    52       P1  7948  0.96
      P1  H  6934  6947       L1    16  0.38

> <Gold.Chemscore.Hbond.Weighted>
-5.8241

> <Gold.Chemscore.Metal.Weighted>
-0.0000

> <Gold.Chemscore.Lipo.Weighted>
-10.0090

> <Gold.Chemscore.Internal_Hbond.Weighted>
0.0000

> <Gold.Chemscore.DEClash.Weighted>
0.0059

> <Gold.Chemscore.DEInternal.Weighted>
2.6690

> <Gold.Chemscore.Rot.Weighted>
4.0990

> <Gold.Chemscore.Internal.Correction.Weighted>
   9.000000E+99

> <Gold.Protein.RotatedTorsions>
[ 6907 6896 6895 6894 ] final  -27.94 input  -60.11 | X-H torsion
[ 7974 7965 7964 7962 ] final  163.61 input  175.53 | X-H torsion
[ 8008 7997 7996 7995 ] final   29.63 input   59.86 | X-H torsion
[ 10167 10162 10161 10158 ] final  103.91 input  -65.29 | X-H torsion
[ 10718 10713 10712 10709 ] final   89.85 input   66.30 | X-H torsion
[ 10763 10752 10751 10750 ] final  -38.36 input  -60.55 | X-H torsion
[ 11005 11000 10999 10996 ] final  133.89 input  -57.11 | X-H torsion

> <Gold.Protein.ActiveResidues>
 VAL166  LYS551  ARG553  GLY616  TRP617  ASP618  TYR619  PRO620  LYS621  CYS622 
 ASP623  PHE694  ASN695  SER759  ASP760  ASP761  ALA762  ILE779  LEU786  VAL792 
 PHE793  MET794  SER795  GLU796  ALA797  LYS798  CYS799  TRP800  GLU811  SER814 

> <Gold.Protein.RotatedAtoms>
  151.1399  135.0174  159.8620 H   0  0  0  0  0  0  0  0  0  0  0  0  # atno 6907 bound_to 6896
  152.5452  134.1512  159.8529 H   0  0  0  0  0  0  0  0  0  0  0  0  # atno 6908 bound_to 6896
  151.1586  133.4814  159.2627 H   0  0  0  0  0  0  0  0  0  0  0  0  # atno 6909 bound_to 6896
  144.7582  139.8207  143.6342 H   0  0  0  0  0  0  0  0  0  0  0  0  # atno 7974 bound_to 7965
  155.0775  140.3207  155.4611 H   0  0  0  0  0  0  0  0  0  0  0  0  # atno 8008 bound_to 7997
  156.2775  140.2101  156.5849 H   0  0  0  0  0  0  0  0  0  0  0  0  # atno 8009 bound_to 7997
  154.7005  140.0507  157.0440 H   0  0  0  0  0  0  0  0  0  0  0  0  # atno 8010 bound_to 7997
  139.7222  144.7055  151.0854 H   0  0  0  0  0  0  0  0  0  0  0  0  # atno 10167 bound_to 10162
  157.6957  131.0348  150.3488 H   0  0  0  0  0  0  0  0  0  0  0  0  # atno 10718 bound_to 10713
  153.9115  135.6792  153.4751 H   0  0  0  0  0  0  0  0  0  0  0  0  # atno 10763 bound_to 10752
  153.1076  135.4798  154.8976 H   0  0  0  0  0  0  0  0  0  0  0  0  # atno 10764 bound_to 10752
  154.7524  135.3188  154.8487 H   0  0  0  0  0  0  0  0  0  0  0  0  # atno 10765 bound_to 10752
  139.9880  134.9525  156.9789 H   0  0  0  0  0  0  0  0  0  0  0  0  # atno 11005 bound_to 11000
  146.1616  139.4732  142.9984 LP  0  0  0  0  0  0  0  0  0  0  0  0  # atno 17320 bound_to 7965
  145.6708  141.0217  143.1659 LP  0  0  0  0  0  0  0  0  0  0  0  0  # atno 17321 bound_to 7965
  140.7756  143.5151  150.9604 LP  0  0  0  0  0  0  0  0  0  0  0  0  # atno 17342 bound_to 10162
  139.8838  143.7038  152.3154 LP  0  0  0  0  0  0  0  0  0  0  0  0  # atno 17343 bound_to 10162
  156.3939  130.3903  149.7009 LP  0  0  0  0  0  0  0  0  0  0  0  0  # atno 17370 bound_to 10713
  156.4350  130.7833  151.2854 LP  0  0  0  0  0  0  0  0  0  0  0  0  # atno 17371 bound_to 10713
  140.4964  134.1141  155.7242 LP  0  0  0  0  0  0  0  0  0  0  0  0  # atno 17394 bound_to 11000
  141.1541  133.8914  157.2022 LP  0  0  0  0  0  0  0  0  0  0  0  0  # atno 17395 bound_to 11000

$$$$
