AV-unprocessed.smi:2784|AV-procd|sdf|10738|dock4
  -GOLD-   2272015173D 1   1.00000     0.00000
 Structure written by MMmdl.
 31 32  0  0  0  0  0  0  0  0  1 V2000
  151.9061  144.8865  158.6143 C   0  0  0  0  0  0  0  0  0  0  0  0
  152.4792  144.4376  159.8324 O   0  0  0  0  0  0  0  0  0  0  0  0
  152.2913  143.0495  160.0717 C   0  0  2  0  0  0  0  0  0  0  0  0
  153.1180  142.6255  161.2889 C   0  0  0  0  0  0  0  0  0  0  0  0
  153.4214  141.1515  161.0455 C   0  0  0  0  0  0  0  0  0  0  0  0
  153.6728  141.0730  159.5403 C   0  0  0  0  0  0  0  0  0  0  0  0
  152.7861  142.1631  158.9055 C   0  0  1  0  0  0  0  0  0  0  0  0
  151.6545  141.5719  158.1949 N   0  0  0  0  0  0  0  0  0  0  0  0
  151.7133  140.5001  157.3908 C   0  0  0  0  0  0  0  0  0  0  0  0
  152.7739  139.9022  157.1835 O   0  0  0  0  0  0  0  0  0  0  0  0
  150.4628  140.2347  156.8549 N   0  0  0  0  0  0  0  0  0  0  0  0
  150.3762  139.4705  155.8106 C   0  0  0  0  0  0  0  0  0  0  0  0
  149.2282  139.0725  155.1445 N   0  0  0  0  0  0  0  0  0  0  0  0
  149.5994  138.2800  154.0936 C   0  0  0  0  0  0  0  0  0  0  0  0
  150.9258  138.1838  154.0956 C   0  0  0  0  0  0  0  0  0  0  0  0
  151.4328  138.9033  155.1353 O   0  0  0  0  0  0  0  0  0  0  0  0
  152.0678  145.9591  158.5097 H   0  0  0  0  0  0  0  0  0  0  0  0
  150.8307  144.7063  158.5947 H   0  0  0  0  0  0  0  0  0  0  0  0
  152.3578  144.3962  157.7515 H   0  0  0  0  0  0  0  0  0  0  0  0
  151.2419  142.8452  160.2953 H   0  0  0  0  0  0  0  0  0  0  0  0
  154.0543  143.1849  161.3171 H   0  0  0  0  0  0  0  0  0  0  0  0
  152.5982  142.8006  162.2310 H   0  0  0  0  0  0  0  0  0  0  0  0
  154.2676  140.7930  161.6322 H   0  0  0  0  0  0  0  0  0  0  0  0
  152.5515  140.5478  161.3073 H   0  0  0  0  0  0  0  0  0  0  0  0
  154.7200  141.3030  159.3396 H   0  0  0  0  0  0  0  0  0  0  0  0
  153.4853  140.0732  159.1463 H   0  0  0  0  0  0  0  0  0  0  0  0
  153.3898  142.7572  158.2167 H   0  0  0  0  0  0  0  0  0  0  0  0
  150.7585  142.0212  158.3153 H   0  0  0  0  0  0  0  0  0  0  0  0
  148.2688  139.3023  155.3597 H   0  0  0  0  0  0  0  0  0  0  0  0
  148.8527  137.8575  153.4374 H   0  0  0  0  0  0  0  0  0  0  0  0
  151.6252  137.6664  153.4557 H   0  0  0  0  0  0  0  0  0  0  0  0
  1  2  1  0  0  0  0
  1 17  1  0  0  0  0
  1 18  1  0  0  0  0
  1 19  1  0  0  0  0
  2  3  1  0  0  0  0
  3  7  1  0  0  0  0
  3  4  1  0  0  0  0
  3 20  1  0  0  0  0
  4  5  1  0  0  0  0
  4 21  1  0  0  0  0
  4 22  1  0  0  0  0
  5  6  1  0  0  0  0
  5 23  1  0  0  0  0
  5 24  1  0  0  0  0
  6  7  1  0  0  0  0
  6 25  1  0  0  0  0
  6 26  1  0  0  0  0
  7  8  1  0  0  0  0
  7 27  1  0  0  0  0
  8 28  1  0  0  0  0
  8  9  1  0  0  0  0
  9 11  1  0  0  0  0
  9 10  2  0  0  0  0
 11 12  2  0  0  0  0
 12 16  1  0  0  0  0
 12 13  1  0  0  0  0
 13 29  1  0  0  0  0
 13 14  1  0  0  0  0
 14 30  1  0  0  0  0
 14 15  2  0  0  0  0
 15 31  1  0  0  0  0
 15 16  1  0  0  0  0
M  END
> <s_m_source_file>
AV-unprocessed.smi

> <i_m_source_file_index>
2784

> <i_lp_mmshare_version>
43012

> <i_f3d_flags>
0

> <s_epik_input>
W0NIM11PW0NAQEhdMVtDSDJdW0NIMl1bQ0gyXVtDQEhdMVtOSF1DKD1PKVtOSF1jMm5bY0hdW2NIXW8y

> <s_epik_cmdline>
J2VwaWtfcHl0aG9uJywgJy1waCcsICc3LjAnLCAnLXRuJywgJzgnLCAnLW1hJywgJzIwMCcsICctbWV0YWxfYmluZGluZycsICctaW1hZScsICc8aW5maWxlLm1hZT4nLCAnLW9tYWUnLCAnPG91dGZpbGUubWFlPic=

> <r_lp_tautomer_probability>
0.107061

> <r_epik_Ionization_Penalty>
1.29244

> <r_epik_Ionization_Penalty_Charging>
1.29208

> <r_epik_Ionization_Penalty_Neutral>
0.000359742

> <r_epik_State_Penalty>
2.59896

> <r_epik_Charging_Adjusted_Penalty>
3.89105

> <i_epik_Tot_Q>
0

> <i_epik_Tot_abs_Q>
0

> <r_epik_Metal_State_Penalty>
3.62496

> <b_epik_Metal_Only>
0

> <s_lp_Force_Field>
OPLS_2005

> <r_lp_Energy>
42.0746

> <b_lp_Chiralities_Consistent>
1

> <s_lp_Variant>
AV-unprocessed.smi:2784-13

> <Gold.Version>
5.8.1

> <Gold.Id.Protein>
6NUR|6NUR_protein|mol2

> <Gold.PLP.Fitness>
38.0847

> <Gold.PLP.PLP>
-30.3895

> <Gold.PLP.part.hbond>
-1.0000

> <Gold.PLP.part.metal>
0.0000

> <Gold.PLP.part.buried>
-2.7057

> <Gold.PLP.part.nonpolar>
-25.8396

> <Gold.PLP.part.repulsive>
0.1784

> <Gold.PLP.ligand.clash>
0.0000

> <Gold.PLP.ligand.torsion>
0.3303

> <Gold.PLP.Chemscore.Hbond>
1.0000

> <Gold.PLP.Chemscore.CHOScore>
1.7835

> <Gold.PLP.Chemscore.Metal>
0.0000

> <Gold.Chemscore.Hbonds>
donor molecule, donor type, donor heavy atom, donor atom, acceptor molecule, acceptor atom, score
      P1  H  7997  8010       L1    10  1.00
      L1  C    14    30       P1  7948  1.00
      L1  C    15    31       P1  7949  0.77

> <Gold.PLP.Chemscore.Internal.Correction>
0.0054

> <Gold.Rescore>
     Score         DG    S(hbond)    S(metal)    S(lipo)     H(rot)  DE(clash)    DE(int)     intcor
     11.82     -15.20       0.98        0.00      83.94       1.32       0.05       3.34       ----

> <Gold.Chemscore.Fitness>
11.8180

> <Gold.Chemscore.DG>
-15.2024

> <Gold.Chemscore.ZeroCoef>
-5.4800

> <Gold.Chemscore.Hbond>
0.9850

> <Gold.Chemscore.Metal>
0.0000

> <Gold.Chemscore.Lipo>
83.9382

> <Gold.Chemscore.Internal_Hbond>
0.0000

> <Gold.Chemscore.DEClash>
0.0482

> <Gold.Chemscore.DEInternal>
3.3363

> <Gold.Chemscore.Rot>
1.3235

> <Gold.Chemscore.Internal.Correction>
   9.000000E+99

> <Gold.Chemscore.Hbonds>
donor molecule, donor type, donor heavy atom, donor atom, acceptor molecule, acceptor atom, score
      P1  H  7997  8010       L1    10  0.99

> <Gold.Chemscore.Hbond.Weighted>
-3.2899

> <Gold.Chemscore.Metal.Weighted>
-0.0000

> <Gold.Chemscore.Lipo.Weighted>
-9.8208

> <Gold.Chemscore.Internal_Hbond.Weighted>
0.0000

> <Gold.Chemscore.DEClash.Weighted>
0.0482

> <Gold.Chemscore.DEInternal.Weighted>
3.3363

> <Gold.Chemscore.Rot.Weighted>
3.3882

> <Gold.Chemscore.Internal.Correction.Weighted>
   9.000000E+99

> <Gold.Protein.RotatedTorsions>
[ 6907 6896 6895 6894 ] final  -39.95 input  -60.11 | X-H torsion
[ 7974 7965 7964 7962 ] final -128.92 input  175.53 | X-H torsion
[ 8008 7997 7996 7995 ] final   50.54 input   59.86 | X-H torsion
[ 10167 10162 10161 10158 ] final   51.62 input  -65.29 | X-H torsion
[ 10718 10713 10712 10709 ] final  117.03 input   66.30 | X-H torsion
[ 10763 10752 10751 10750 ] final   72.81 input  -60.55 | X-H torsion
[ 11005 11000 10999 10996 ] final   23.93 input  -57.11 | X-H torsion

> <Gold.Protein.ActiveResidues>
 VAL166  LYS551  ARG553  GLY616  TRP617  ASP618  TYR619  PRO620  LYS621  CYS622 
 ASP623  PHE694  ASN695  SER759  ASP760  ASP761  ALA762  ILE779  LEU786  VAL792 
 PHE793  MET794  SER795  GLU796  ALA797  LYS798  CYS799  TRP800  GLU811  SER814 

> <Gold.Protein.RotatedAtoms>
  150.9842  134.9191  159.7861 H   0  0  0  0  0  0  0  0  0  0  0  0  # atno 6907 bound_to 6896
  152.5231  134.3369  159.9213 H   0  0  0  0  0  0  0  0  0  0  0  0  # atno 6908 bound_to 6896
  151.3376  133.3934  159.2702 H   0  0  0  0  0  0  0  0  0  0  0  0  # atno 6909 bound_to 6896
  144.9623  140.7459  143.4721 H   0  0  0  0  0  0  0  0  0  0  0  0  # atno 7974 bound_to 7965
  155.4205  140.3446  155.4271 H   0  0  0  0  0  0  0  0  0  0  0  0  # atno 8008 bound_to 7997
  156.1396  140.1538  156.8973 H   0  0  0  0  0  0  0  0  0  0  0  0  # atno 8009 bound_to 7997
  154.4960  140.0828  156.7677 H   0  0  0  0  0  0  0  0  0  0  0  0  # atno 8010 bound_to 7997
  140.2599  144.3384  150.6321 H   0  0  0  0  0  0  0  0  0  0  0  0  # atno 10167 bound_to 10162
  157.6122  131.1032  150.7557 H   0  0  0  0  0  0  0  0  0  0  0  0  # atno 10718 bound_to 10713
  153.0482  135.5086  154.7800 H   0  0  0  0  0  0  0  0  0  0  0  0  # atno 10763 bound_to 10752
  154.6683  135.2949  154.9778 H   0  0  0  0  0  0  0  0  0  0  0  0  # atno 10764 bound_to 10752
  154.0604  135.6691  153.4864 H   0  0  0  0  0  0  0  0  0  0  0  0  # atno 10765 bound_to 10752
  140.3643  134.2092  155.7670 H   0  0  0  0  0  0  0  0  0  0  0  0  # atno 11005 bound_to 11000
  145.2681  139.1965  143.4856 LP  0  0  0  0  0  0  0  0  0  0  0  0  # atno 17320 bound_to 7965
  146.3357  140.2623  142.8602 LP  0  0  0  0  0  0  0  0  0  0  0  0  # atno 17321 bound_to 7965
  140.5974  143.2167  151.7138 LP  0  0  0  0  0  0  0  0  0  0  0  0  # atno 17342 bound_to 10162
  139.5020  144.3846  152.0341 LP  0  0  0  0  0  0  0  0  0  0  0  0  # atno 17343 bound_to 10162
  156.7932  130.4897  149.5381 LP  0  0  0  0  0  0  0  0  0  0  0  0  # atno 17370 bound_to 10713
  156.1230  130.6123  151.0222 LP  0  0  0  0  0  0  0  0  0  0  0  0  # atno 17371 bound_to 10713
  141.1974  133.8059  157.0627 LP  0  0  0  0  0  0  0  0  0  0  0  0  # atno 17394 bound_to 11000
  140.0602  134.9759  157.1291 LP  0  0  0  0  0  0  0  0  0  0  0  0  # atno 17395 bound_to 11000

$$$$
