AV-unprocessed.smi:444|AV-procd|sdf|2587|dock7
  -GOLD-   2262022583D 1   1.00000     0.00000
 Structure written by MMmdl.
 45 46  0  0  0  0  0  0  0  0  1 V2000
  151.4294  144.5541  157.8257 C   0  0  0  0  0  0  0  0  0  0  0  0
  151.8760  143.9948  159.1608 C   0  0  0  0  0  0  0  0  0  0  0  0
  151.7120  144.7500  160.3379 C   0  0  0  0  0  0  0  0  0  0  0  0
  152.1271  144.2228  161.5739 C   0  0  0  0  0  0  0  0  0  0  0  0
  152.7076  142.9391  161.6412 C   0  0  0  0  0  0  0  0  0  0  0  0
  153.1497  142.3861  162.9831 C   0  0  0  0  0  0  0  0  0  0  0  0
  152.8776  142.1693  160.4671 C   0  0  0  0  0  0  0  0  0  0  0  0
  153.4516  140.9218  160.6029 O   0  0  0  0  0  0  0  0  0  0  0  0
  153.3104  139.9887  159.5398 C   0  0  0  0  0  0  0  0  0  0  0  0
  154.3560  138.8737  159.7160 C   0  0  2  0  0  0  0  0  0  0  0  0
  155.5386  139.3161  159.0785 O   0  0  0  0  0  0  0  0  0  0  0  0
  153.9115  137.5549  159.0445 C   0  0  0  0  0  0  0  0  0  0  0  0
  152.5953  137.6812  158.4058 N   0  0  0  0  0  0  0  0  0  0  0  0
  151.5661  137.0964  159.1184 N   0  0  0  0  0  0  0  0  0  0  0  0
  150.3485  137.1201  158.6854 C   0  0  0  0  0  0  0  0  0  0  0  0
  149.3115  136.4493  159.5454 C   0  0  0  0  0  0  0  0  0  0  0  0
  150.0447  137.7785  157.4189 C   0  0  0  0  0  0  0  0  0  0  0  0
  148.5929  137.7798  156.9604 C   0  0  0  0  0  0  0  0  0  0  0  0
  151.0652  138.3413  156.7245 C   0  0  0  0  0  0  0  0  0  0  0  0
  150.8651  139.0006  155.4743 C   0  0  0  0  0  0  0  0  0  0  0  0
  150.7134  139.5514  154.4675 N   0  0  0  0  0  0  0  0  0  0  0  0
  152.4480  138.3121  157.2063 C   0  0  0  0  0  0  0  0  0  0  0  0
  153.3971  138.8031  156.5937 O   0  0  0  0  0  0  0  0  0  0  0  0
  152.4543  142.7110  159.2262 C   0  0  0  0  0  0  0  0  0  0  0  0
  151.2710  145.6316  157.8812 H   0  0  0  0  0  0  0  0  0  0  0  0
  150.4954  144.0857  157.5151 H   0  0  0  0  0  0  0  0  0  0  0  0
  152.1817  144.3626  157.0601 H   0  0  0  0  0  0  0  0  0  0  0  0
  151.2684  145.7341  160.2979 H   0  0  0  0  0  0  0  0  0  0  0  0
  151.9975  144.8097  162.4715 H   0  0  0  0  0  0  0  0  0  0  0  0
  154.2141  142.1497  162.9637 H   0  0  0  0  0  0  0  0  0  0  0  0
  152.5987  141.4743  163.2159 H   0  0  0  0  0  0  0  0  0  0  0  0
  152.9766  143.1016  163.7879 H   0  0  0  0  0  0  0  0  0  0  0  0
  152.3080  139.5619  159.5986 H   0  0  0  0  0  0  0  0  0  0  0  0
  153.4130  140.4669  158.5638 H   0  0  0  0  0  0  0  0  0  0  0  0
  154.5400  138.7121  160.7793 H   0  0  0  0  0  0  0  0  0  0  0  0
  156.2040  138.6531  159.1839 H   0  0  0  0  0  0  0  0  0  0  0  0
  154.6265  137.2867  158.2644 H   0  0  0  0  0  0  0  0  0  0  0  0
  153.9501  136.7206  159.7479 H   0  0  0  0  0  0  0  0  0  0  0  0
  148.7687  135.6916  158.9796 H   0  0  0  0  0  0  0  0  0  0  0  0
  148.5896  137.1765  159.9178 H   0  0  0  0  0  0  0  0  0  0  0  0
  149.7578  135.9553  160.4102 H   0  0  0  0  0  0  0  0  0  0  0  0
  148.4488  138.3566  156.0471 H   0  0  0  0  0  0  0  0  0  0  0  0
  147.9476  138.2154  157.7242 H   0  0  0  0  0  0  0  0  0  0  0  0
  148.2551  136.7617  156.7637 H   0  0  0  0  0  0  0  0  0  0  0  0
  152.5628  142.1575  158.3061 H   0  0  0  0  0  0  0  0  0  0  0  0
  1  2  1  0  0  0  0
  1 25  1  0  0  0  0
  1 26  1  0  0  0  0
  1 27  1  0  0  0  0
  2 24  1  0  0  0  0
  2  3  2  0  0  0  0
  3  4  1  0  0  0  0
  3 28  1  0  0  0  0
  4  5  2  0  0  0  0
  4 29  1  0  0  0  0
  5  6  1  0  0  0  0
  5  7  1  0  0  0  0
  6 30  1  0  0  0  0
  6 31  1  0  0  0  0
  6 32  1  0  0  0  0
  7  8  1  0  0  0  0
  7 24  2  0  0  0  0
  8  9  1  0  0  0  0
  9 10  1  0  0  0  0
  9 33  1  0  0  0  0
  9 34  1  0  0  0  0
 10 11  1  0  0  0  0
 10 12  1  0  0  0  0
 10 35  1  0  0  0  0
 11 36  1  0  0  0  0
 12 13  1  0  0  0  0
 12 37  1  0  0  0  0
 12 38  1  0  0  0  0
 13 22  1  0  0  0  0
 13 14  1  0  0  0  0
 14 15  2  0  0  0  0
 15 16  1  0  0  0  0
 15 17  1  0  0  0  0
 16 39  1  0  0  0  0
 16 40  1  0  0  0  0
 16 41  1  0  0  0  0
 17 18  1  0  0  0  0
 17 19  2  0  0  0  0
 18 42  1  0  0  0  0
 18 43  1  0  0  0  0
 18 44  1  0  0  0  0
 19 20  1  0  0  0  0
 19 22  1  0  0  0  0
 20 21  3  0  0  0  0
 22 23  2  0  0  0  0
 24 45  1  0  0  0  0
M  END
> <s_m_source_file>
AV-unprocessed.smi

> <i_m_source_file_index>
444

> <i_lp_mmshare_version>
43012

> <i_f3d_flags>
0

> <s_epik_input>
W0NIM11jMVtjSF1bY0hdYyhbQ0gzXSljKFtjSF0xKU9bQ0gyXVtDQEhdKFtPSF0pW0NIMl1uMm5jKFtDSDNdKWMoW0NIM10pYyhDI04pYzI9Tw==

> <s_epik_cmdline>
J2VwaWtfcHl0aG9uJywgJy1waCcsICc3LjAnLCAnLXRuJywgJzgnLCAnLW1hJywgJzIwMCcsICctbWV0YWxfYmluZGluZycsICctaW1hZScsICc8aW5maWxlLm1hZT4nLCAnLW9tYWUnLCAnPG91dGZpbGUubWFlPic=

> <r_lp_tautomer_probability>
1

> <r_epik_Ionization_Penalty>
1.17331e-07

> <r_epik_Ionization_Penalty_Charging>
1.57223e-10

> <r_epik_Ionization_Penalty_Neutral>
1.17174e-07

> <r_epik_State_Penalty>
-0

> <r_epik_Charging_Adjusted_Penalty>
1.57223e-10

> <i_epik_Tot_Q>
0

> <i_epik_Tot_abs_Q>
0

> <r_epik_Metal_State_Penalty>
-0

> <b_epik_Metal_Only>
0

> <s_lp_Force_Field>
OPLS_2005

> <r_lp_Energy>
32.4723

> <b_lp_Chiralities_Consistent>
1

> <s_lp_Variant>
AV-unprocessed.smi:444-1

> <Gold.Version>
5.8.1

> <Gold.Id.Protein>
6NUR|6NUR_protein|mol2

> <Gold.PLP.Fitness>
56.2773

> <Gold.PLP.PLP>
-48.7252

> <Gold.PLP.part.hbond>
-3.7832

> <Gold.PLP.part.metal>
0.0000

> <Gold.PLP.part.buried>
-8.1755

> <Gold.PLP.part.nonpolar>
-38.0852

> <Gold.PLP.part.repulsive>
0.1258

> <Gold.PLP.ligand.clash>
0.0002

> <Gold.PLP.ligand.torsion>
1.5632

> <Gold.PLP.Chemscore.Hbond>
3.5553

> <Gold.PLP.Chemscore.CHOScore>
0.0000

> <Gold.PLP.Chemscore.Metal>
0.0000

> <Gold.Chemscore.Hbonds>
donor molecule, donor type, donor heavy atom, donor atom, acceptor molecule, acceptor atom, score
      P1  H  6896  6907       L1    14  0.70
      P1  H  7989  7998       L1    21  1.00
      P1  H  7997  8008       L1    11  0.94
      P1  H  7997  8009       L1    23  0.88

> <Gold.PLP.Chemscore.Internal.Correction>
0.0129

> <Gold.Rescore>
     Score         DG    S(hbond)    S(metal)    S(lipo)     H(rot)  DE(clash)    DE(int)     intcor
     22.49     -24.65       3.02        0.00     127.87       2.29       0.54       1.62       ----

> <Gold.Chemscore.Fitness>
22.4925

> <Gold.Chemscore.DG>
-24.6508

> <Gold.Chemscore.ZeroCoef>
-5.4800

> <Gold.Chemscore.Hbond>
3.0161

> <Gold.Chemscore.Metal>
0.0000

> <Gold.Chemscore.Lipo>
127.8681

> <Gold.Chemscore.Internal_Hbond>
0.0000

> <Gold.Chemscore.DEClash>
0.5432

> <Gold.Chemscore.DEInternal>
1.6151

> <Gold.Chemscore.Rot>
2.2905

> <Gold.Chemscore.Internal.Correction>
   9.000000E+99

> <Gold.Chemscore.Hbonds>
donor molecule, donor type, donor heavy atom, donor atom, acceptor molecule, acceptor atom, score
      P1  H  6896  6907       L1    14  0.12
      P1  H  7989  7998       L1    21  1.00
      P1  H  7997  8008       L1    11  0.54
      P1  H  7997  8009       L1    23  0.86

> <Gold.Chemscore.Hbond.Weighted>
-10.0738

> <Gold.Chemscore.Metal.Weighted>
-0.0000

> <Gold.Chemscore.Lipo.Weighted>
-14.9606

> <Gold.Chemscore.Internal_Hbond.Weighted>
0.0000

> <Gold.Chemscore.DEClash.Weighted>
0.5432

> <Gold.Chemscore.DEInternal.Weighted>
1.6151

> <Gold.Chemscore.Rot.Weighted>
5.8636

> <Gold.Chemscore.Internal.Correction.Weighted>
   9.000000E+99

> <Gold.Protein.RotatedTorsions>
[ 6907 6896 6895 6894 ] final   -3.84 input  -60.11 | X-H torsion
[ 7974 7965 7964 7962 ] final -160.92 input  175.53 | X-H torsion
[ 8008 7997 7996 7995 ] final -159.66 input   59.86 | X-H torsion
[ 10167 10162 10161 10158 ] final  160.25 input  -65.29 | X-H torsion
[ 10718 10713 10712 10709 ] final   81.14 input   66.30 | X-H torsion
[ 10763 10752 10751 10750 ] final  173.42 input  -60.55 | X-H torsion
[ 11005 11000 10999 10996 ] final  107.86 input  -57.11 | X-H torsion

> <Gold.Protein.ActiveResidues>
 VAL166  LYS551  ARG553  GLY616  TRP617  ASP618  TYR619  PRO620  LYS621  CYS622 
 ASP623  PHE694  ASN695  SER759  ASP760  ASP761  ALA762  ILE779  LEU786  VAL792 
 PHE793  MET794  SER795  GLU796  ALA797  LYS798  CYS799  TRP800  GLU811  SER814 

> <Gold.Protein.RotatedAtoms>
  151.5073  135.1064  159.9844 H   0  0  0  0  0  0  0  0  0  0  0  0  # atno 6907 bound_to 6896
  152.4677  133.7955  159.6935 H   0  0  0  0  0  0  0  0  0  0  0  0  # atno 6908 bound_to 6896
  150.8668  133.7499  159.2999 H   0  0  0  0  0  0  0  0  0  0  0  0  # atno 6909 bound_to 6896
  144.7409  140.3472  143.6123 H   0  0  0  0  0  0  0  0  0  0  0  0  # atno 7974 bound_to 7965
  155.7658  140.0845  157.2132 H   0  0  0  0  0  0  0  0  0  0  0  0  # atno 8008 bound_to 7997
  154.4000  140.1534  156.2942 H   0  0  0  0  0  0  0  0  0  0  0  0  # atno 8009 bound_to 7997
  155.8795  140.3421  155.5880 H   0  0  0  0  0  0  0  0  0  0  0  0  # atno 8010 bound_to 7997
  139.4838  144.4652  151.8651 H   0  0  0  0  0  0  0  0  0  0  0  0  # atno 10167 bound_to 10162
  157.6825  130.9991  150.2183 H   0  0  0  0  0  0  0  0  0  0  0  0  # atno 10718 bound_to 10713
  154.4399  135.2762  155.1855 H   0  0  0  0  0  0  0  0  0  0  0  0  # atno 10763 bound_to 10752
  154.3726  135.6105  153.5751 H   0  0  0  0  0  0  0  0  0  0  0  0  # atno 10764 bound_to 10752
  152.9840  135.5861  154.4724 H   0  0  0  0  0  0  0  0  0  0  0  0  # atno 10765 bound_to 10752
  139.8835  134.9413  156.5884 H   0  0  0  0  0  0  0  0  0  0  0  0  # atno 11005 bound_to 11000
  145.7314  139.1737  143.2428 LP  0  0  0  0  0  0  0  0  0  0  0  0  # atno 17320 bound_to 7965
  146.1203  140.7317  142.9460 LP  0  0  0  0  0  0  0  0  0  0  0  0  # atno 17321 bound_to 7965
  140.4117  144.2360  150.5888 LP  0  0  0  0  0  0  0  0  0  0  0  0  # atno 17342 bound_to 10162
  140.4959  143.2332  151.8749 LP  0  0  0  0  0  0  0  0  0  0  0  0  # atno 17343 bound_to 10162
  156.2840  130.3737  149.7907 LP  0  0  0  0  0  0  0  0  0  0  0  0  # atno 17370 bound_to 10713
  156.5587  130.8374  151.3322 LP  0  0  0  0  0  0  0  0  0  0  0  0  # atno 17371 bound_to 10713
  140.7974  133.8533  155.8697 LP  0  0  0  0  0  0  0  0  0  0  0  0  # atno 17394 bound_to 11000
  140.9623  134.1639  157.4644 LP  0  0  0  0  0  0  0  0  0  0  0  0  # atno 17395 bound_to 11000

$$$$
