AV-unprocessed.smi:3025|AV-procd|sdf|11508|dock8
  -GOLD-   2272016443D 1   1.00000     0.00000
 Structure written by MMmdl.
 42 43  0  0  0  0  0  0  0  0  2 V2000
  153.8130  141.5363  160.4453 C   0  0  0  0  0  0  0  0  0  0  0  0
  152.9726  142.7097  160.9607 C   0  0  0  0  0  0  0  0  0  0  0  0
  152.1135  143.3465  159.8552 C   0  0  0  0  0  0  0  0  0  0  0  0
  150.9992  142.4290  159.3106 C   0  0  2  0  0  0  0  0  0  0  0  0
  151.5316  141.3713  158.3198 C   0  0  0  0  0  0  0  0  0  0  0  0
  150.4019  140.4858  157.7658 C   0  0  0  0  0  0  0  0  0  0  0  0
  149.2784  141.3124  157.1050 C   0  0  2  0  0  0  0  0  0  0  0  0
  149.7140  141.9469  155.8390 N   0  3  0  0  0  0  0  0  0  0  0  0
  149.3316  141.2318  154.6038 C   0  0  0  0  0  0  0  0  0  0  0  0
  147.8229  140.9541  154.5775 C   0  0  0  0  0  0  0  0  0  0  0  0
  147.4746  139.8360  153.6519 C   0  0  0  0  0  0  0  0  0  0  0  0
  147.8528  138.5832  153.9106 N   0  0  0  0  0  0  0  0  0  0  0  0
  147.3118  137.9056  152.8750 N   0  0  0  0  0  0  0  0  0  0  0  0
  146.6537  138.7644  152.0976 C   0  0  0  0  0  0  0  0  0  0  0  0
  146.7045  140.0157  152.5356 N   0  0  0  0  0  0  0  0  0  0  0  0
  148.7571  142.3789  158.0860 C   0  0  0  0  0  0  0  0  0  0  0  0
  149.8872  143.2627  158.6427 C   0  0  0  0  0  0  0  0  0  0  0  0
  154.4132  141.1060  161.2475 H   0  0  0  0  0  0  0  0  0  0  0  0
  154.4943  141.8555  159.6562 H   0  0  0  0  0  0  0  0  0  0  0  0
  153.1799  140.7451  160.0428 H   0  0  0  0  0  0  0  0  0  0  0  0
  152.3393  142.3545  161.7731 H   0  0  0  0  0  0  0  0  0  0  0  0
  153.6352  143.4621  161.3897 H   0  0  0  0  0  0  0  0  0  0  0  0
  151.6561  144.2504  160.2599 H   0  0  0  0  0  0  0  0  0  0  0  0
  152.7539  143.6758  159.0357 H   0  0  0  0  0  0  0  0  0  0  0  0
  150.5530  141.9059  160.1581 H   0  0  0  0  0  0  0  0  0  0  0  0
  152.0521  141.8623  157.4966 H   0  0  0  0  0  0  0  0  0  0  0  0
  152.2667  140.7312  158.8071 H   0  0  0  0  0  0  0  0  0  0  0  0
  150.8092  139.7482  157.0749 H   0  0  0  0  0  0  0  0  0  0  0  0
  149.9761  139.9098  158.5885 H   0  0  0  0  0  0  0  0  0  0  0  0
  148.4464  140.6481  156.8671 H   0  0  0  0  0  0  0  0  0  0  0  0
  149.2898  142.8625  155.7970 H   0  0  0  0  0  0  0  0  0  0  0  0
  149.6089  141.8229  153.7312 H   0  0  0  0  0  0  0  0  0  0  0  0
  149.8814  140.2913  154.5463 H   0  0  0  0  0  0  0  0  0  0  0  0
  147.4708  140.7047  155.5795 H   0  0  0  0  0  0  0  0  0  0  0  0
  147.2807  141.8509  154.2732 H   0  0  0  0  0  0  0  0  0  0  0  0
  146.1266  138.4702  151.2019 H   0  0  0  0  0  0  0  0  0  0  0  0
  148.0006  142.9989  157.6036 H   0  0  0  0  0  0  0  0  0  0  0  0
  148.2543  141.8835  158.9178 H   0  0  0  0  0  0  0  0  0  0  0  0
  149.4685  143.9669  159.3627 H   0  0  0  0  0  0  0  0  0  0  0  0
  150.3113  143.8666  157.8395 H   0  0  0  0  0  0  0  0  0  0  0  0
  150.7173  142.0611  155.8615 H   0  0  0  0  0  0  0  0  0  0  0  0
  147.4098  136.9076  152.7514 H   0  0  0  0  0  0  0  0  0  0  0  0
  1  2  1  0  0  0  0
  1 18  1  0  0  0  0
  1 19  1  0  0  0  0
  1 20  1  0  0  0  0
  2  3  1  0  0  0  0
  2 21  1  0  0  0  0
  2 22  1  0  0  0  0
  3  4  1  0  0  0  0
  3 23  1  0  0  0  0
  3 24  1  0  0  0  0
  4 17  1  0  0  0  0
  4  5  1  0  0  0  0
  4 25  1  0  0  0  0
  5  6  1  0  0  0  0
  5 26  1  0  0  0  0
  5 27  1  0  0  0  0
  6  7  1  0  0  0  0
  6 28  1  0  0  0  0
  6 29  1  0  0  0  0
  7  8  1  0  0  0  0
  7 16  1  0  0  0  0
  7 30  1  0  0  0  0
  8  9  1  0  0  0  0
  8 31  1  0  0  0  0
  8 41  1  0  0  0  0
  9 10  1  0  0  0  0
  9 32  1  0  0  0  0
  9 33  1  0  0  0  0
 10 34  1  0  0  0  0
 10 35  1  0  0  0  0
 10 11  1  0  0  0  0
 11 15  1  0  0  0  0
 11 12  2  0  0  0  0
 12 13  1  0  0  0  0
 13 14  1  0  0  0  0
 13 42  1  0  0  0  0
 14 15  2  0  0  0  0
 14 36  1  0  0  0  0
 16 17  1  0  0  0  0
 16 37  1  0  0  0  0
 16 38  1  0  0  0  0
 17 39  1  0  0  0  0
 17 40  1  0  0  0  0
M  CHG  1   8   1
M  END
> <s_m_source_file>
AV-unprocessed.smi

> <i_m_source_file_index>
3025

> <i_lp_mmshare_version>
43012

> <i_f3d_flags>
0

> <s_epik_input>
W0NIM11bQ0gyXVtDSDJdW0NAQEhdMVtDSDJdW0NIMl1bQ0BIXShbQ0gyXVtDSDJdMSlbTkhdW0NIMl1bQ0gyXWMybm5bY0hdW25IXTI=

> <s_epik_cmdline>
J2VwaWtfcHl0aG9uJywgJy1waCcsICc3LjAnLCAnLXRuJywgJzgnLCAnLW1hJywgJzIwMCcsICctbWV0YWxfYmluZGluZycsICctaW1hZScsICc8aW5maWxlLm1hZT4nLCAnLW9tYWUnLCAnPG91dGZpbGUubWFlPic=

> <r_epik_Ionization_Penalty>
0.00995411

> <r_epik_Ionization_Penalty_Charging>
0.000442289

> <r_epik_Ionization_Penalty_Neutral>
0.00951182

> <r_epik_State_Penalty>
0.448541

> <r_epik_Charging_Adjusted_Penalty>
0.448983

> <i_epik_Tot_Q>
1

> <i_epik_Tot_abs_Q>
1

> <r_epik_Metal_State_Penalty>
0.682245

> <b_epik_Metal_Only>
0

> <s_lp_Force_Field>
OPLS_2005

> <r_lp_Energy>
14.0161

> <b_lp_Chiralities_Consistent>
1

> <s_lp_Variant>
AV-unprocessed.smi:3025-4

> <Gold.Version>
5.8.1

> <Gold.Id.Protein>
6NUR|6NUR_protein|mol2

> <Gold.PLP.Fitness>
41.2726

> <Gold.PLP.PLP>
-32.2012

> <Gold.PLP.part.hbond>
-2.3756

> <Gold.PLP.part.metal>
0.0000

> <Gold.PLP.part.buried>
-1.4407

> <Gold.PLP.part.nonpolar>
-30.5126

> <Gold.PLP.part.repulsive>
1.5456

> <Gold.PLP.ligand.clash>
0.0000

> <Gold.PLP.ligand.torsion>
0.9085

> <Gold.PLP.Chemscore.Hbond>
2.6400

> <Gold.PLP.Chemscore.CHOScore>
0.9727

> <Gold.PLP.Chemscore.Metal>
0.0000

> <Gold.Chemscore.Hbonds>
donor molecule, donor type, donor heavy atom, donor atom, acceptor molecule, acceptor atom, score
      L1  H     8    31       P1  8028  2.00
      L1  H    13    42       P1  7948  0.38
      L1  C    14    36       P1 10171  0.73

> <Gold.PLP.Chemscore.Internal.Correction>
0.0504

> <Gold.Rescore>
     Score         DG    S(hbond)    S(metal)    S(lipo)     H(rot)  DE(clash)    DE(int)     intcor
     12.44     -14.28       1.66        0.00      83.90       2.56       0.72       1.12       ----

> <Gold.Chemscore.Fitness>
12.4397

> <Gold.Chemscore.DG>
-14.2782

> <Gold.Chemscore.ZeroCoef>
-5.4800

> <Gold.Chemscore.Hbond>
1.6575

> <Gold.Chemscore.Metal>
0.0000

> <Gold.Chemscore.Lipo>
83.9000

> <Gold.Chemscore.Internal_Hbond>
0.0000

> <Gold.Chemscore.DEClash>
0.7198

> <Gold.Chemscore.DEInternal>
1.1186

> <Gold.Chemscore.Rot>
2.5602

> <Gold.Chemscore.Internal.Correction>
   9.000000E+99

> <Gold.Chemscore.Hbonds>
donor molecule, donor type, donor heavy atom, donor atom, acceptor molecule, acceptor atom, score
      L1  H     8    31       P1  8028  1.00
      L1  H    13    42       P1  7948  0.38

> <Gold.Chemscore.Hbond.Weighted>
-5.5361

> <Gold.Chemscore.Metal.Weighted>
-0.0000

> <Gold.Chemscore.Lipo.Weighted>
-9.8163

> <Gold.Chemscore.Internal_Hbond.Weighted>
0.0000

> <Gold.Chemscore.DEClash.Weighted>
0.7198

> <Gold.Chemscore.DEInternal.Weighted>
1.1186

> <Gold.Chemscore.Rot.Weighted>
6.5542

> <Gold.Chemscore.Internal.Correction.Weighted>
   9.000000E+99

> <Gold.Protein.RotatedTorsions>
[ 6907 6896 6895 6894 ] final  -13.12 input  -60.11 | X-H torsion
[ 7974 7965 7964 7962 ] final  166.60 input  175.53 | X-H torsion
[ 8008 7997 7996 7995 ] final  126.05 input   59.86 | X-H torsion
[ 10167 10162 10161 10158 ] final  -39.14 input  -65.29 | X-H torsion
[ 10718 10713 10712 10709 ] final  -64.19 input   66.30 | X-H torsion
[ 10763 10752 10751 10750 ] final -173.66 input  -60.55 | X-H torsion
[ 11005 11000 10999 10996 ] final  -31.55 input  -57.11 | X-H torsion

> <Gold.Protein.ActiveResidues>
 VAL166  LYS551  ARG553  GLY616  TRP617  ASP618  TYR619  PRO620  LYS621  CYS622 
 ASP623  PHE694  ASN695  SER759  ASP760  ASP761  ALA762  ILE779  LEU786  VAL792 
 PHE793  MET794  SER795  GLU796  ALA797  LYS798  CYS799  TRP800  GLU811  SER814 

> <Gold.Protein.RotatedAtoms>
  151.3598  135.0902  159.9430 H   0  0  0  0  0  0  0  0  0  0  0  0  # atno 6907 bound_to 6896
  152.5165  133.9269  159.7572 H   0  0  0  0  0  0  0  0  0  0  0  0  # atno 6908 bound_to 6896
  150.9661  133.6339  159.2775 H   0  0  0  0  0  0  0  0  0  0  0  0  # atno 6909 bound_to 6896
  144.7456  139.8639  143.6383 H   0  0  0  0  0  0  0  0  0  0  0  0  # atno 7974 bound_to 7965
  156.2852  140.2702  156.2049 H   0  0  0  0  0  0  0  0  0  0  0  0  # atno 8008 bound_to 7997
  155.0324  140.0386  157.2497 H   0  0  0  0  0  0  0  0  0  0  0  0  # atno 8009 bound_to 7997
  154.7343  140.2713  155.6433 H   0  0  0  0  0  0  0  0  0  0  0  0  # atno 8010 bound_to 7997
  140.7072  143.3233  151.2740 H   0  0  0  0  0  0  0  0  0  0  0  0  # atno 10167 bound_to 10162
  156.0744  130.4230  150.1384 H   0  0  0  0  0  0  0  0  0  0  0  0  # atno 10718 bound_to 10713
  154.6052  135.2858  155.0492 H   0  0  0  0  0  0  0  0  0  0  0  0  # atno 10763 bound_to 10752
  154.1742  135.6467  153.5021 H   0  0  0  0  0  0  0  0  0  0  0  0  # atno 10764 bound_to 10752
  153.0173  135.5408  154.6786 H   0  0  0  0  0  0  0  0  0  0  0  0  # atno 10765 bound_to 10752
  140.9478  133.7239  156.1173 H   0  0  0  0  0  0  0  0  0  0  0  0  # atno 11005 bound_to 11000
  146.1329  139.4368  143.0157 LP  0  0  0  0  0  0  0  0  0  0  0  0  # atno 17320 bound_to 7965
  145.7136  141.0098  143.1440 LP  0  0  0  0  0  0  0  0  0  0  0  0  # atno 17321 bound_to 7965
  139.6693  144.0048  152.2743 LP  0  0  0  0  0  0  0  0  0  0  0  0  # atno 17342 bound_to 10162
  139.9642  144.6538  150.8051 LP  0  0  0  0  0  0  0  0  0  0  0  0  # atno 17343 bound_to 10162
  156.9428  130.9750  151.3513 LP  0  0  0  0  0  0  0  0  0  0  0  0  # atno 17370 bound_to 10713
  157.5832  130.8391  149.8553 LP  0  0  0  0  0  0  0  0  0  0  0  0  # atno 17371 bound_to 10713
  140.7645  134.3902  157.5519 LP  0  0  0  0  0  0  0  0  0  0  0  0  # atno 17394 bound_to 11000
  139.8838  134.8983  156.2741 LP  0  0  0  0  0  0  0  0  0  0  0  0  # atno 17395 bound_to 11000

$$$$
