AV-unprocessed.smi:215|AV-procd|sdf|1650|dock9
  -GOLD-   2262020 33D 1   1.00000     0.00000
 Structure written by MMmdl.
 59 62  0  0  0  0  0  0  0  0  2 V2000
  144.6517  133.9166  154.1199 C   0  0  0  0  0  0  0  0  0  0  0  0
  144.5110  134.9315  152.9655 C   0  0  2  0  0  0  0  0  0  0  0  0
  144.0921  134.3873  151.5774 C   0  0  2  0  0  0  0  0  0  0  0  0
  144.1872  132.9037  151.4190 N   0  3  2  0  0  0  0  0  0  0  0  0
  145.5602  132.3466  151.5457 C   0  0  0  0  0  0  0  0  0  0  0  0
  143.4692  132.4074  150.2146 C   0  0  0  0  0  0  0  0  0  0  0  0
  144.2637  132.6106  148.9125 C   0  0  0  0  0  0  0  0  0  0  0  0
  143.5587  133.4704  148.0424 O   0  0  0  0  0  0  0  0  0  0  0  0
  144.9026  135.2155  150.5582 C   0  0  0  0  0  0  0  0  0  0  0  0
  145.4946  136.3428  151.4026 C   0  0  0  0  0  0  0  0  0  0  0  0
  145.6920  135.7521  152.7189 N   0  0  0  0  0  0  0  0  0  0  0  0
  146.0448  136.5932  153.7194 C   0  0  0  0  0  0  0  0  0  0  0  0
  145.9941  136.1845  155.0146 N   0  0  0  0  0  0  0  0  0  0  0  0
  146.3646  137.0171  155.9924 C   0  0  0  0  0  0  0  0  0  0  0  0
  146.8072  138.2729  155.8965 N   0  0  0  0  0  0  0  0  0  0  0  0
  146.8553  138.6867  154.5974 C   0  0  0  0  0  0  0  0  0  0  0  0
  146.5006  137.9123  153.4582 C   0  0  0  0  0  0  0  0  0  0  0  0
  146.6968  138.6502  152.2991 N   0  0  0  0  0  0  0  0  0  0  0  0
  147.1522  139.7956  152.7285 C   0  0  0  0  0  0  0  0  0  0  0  0
  147.2476  139.9180  154.0988 N   0  0  0  0  0  0  0  0  0  0  0  0
  147.7429  141.0452  154.8437 C   0  0  0  0  0  0  0  0  0  0  0  0
  149.0730  141.7023  154.4546 C   0  0  0  0  0  0  0  0  0  0  0  0
  149.7776  140.9918  155.6294 C   0  0  0  0  0  0  0  0  0  0  0  0
  150.4505  139.6508  155.2723 C   0  0  0  0  0  0  0  0  0  0  0  0
  151.7113  139.8501  154.6651 O   0  0  0  0  0  0  0  0  0  0  0  0
  150.7709  141.8583  156.4215 C   0  0  0  0  0  0  0  0  0  0  0  0
  150.1186  142.9430  157.0507 O   0  0  0  0  0  0  0  0  0  0  0  0
  148.3628  140.8776  156.2377 C   0  0  0  0  0  0  0  0  0  0  0  0
  143.7250  135.6248  153.2721 H   0  0  0  0  0  0  0  0  0  0  0  0
  143.0409  134.6599  151.4730 H   0  0  0  0  0  0  0  0  0  0  0  0
  143.7579  133.2984  154.2071 H   0  0  0  0  0  0  0  0  0  0  0  0
  144.7781  134.4270  155.0749 H   0  0  0  0  0  0  0  0  0  0  0  0
  145.5080  133.2560  153.9943 H   0  0  0  0  0  0  0  0  0  0  0  0
  146.0967  132.3837  150.5971 H   0  0  0  0  0  0  0  0  0  0  0  0
  145.5203  131.3054  151.8648 H   0  0  0  0  0  0  0  0  0  0  0  0
  146.1555  132.8851  152.2823 H   0  0  0  0  0  0  0  0  0  0  0  0
  143.2569  131.3424  150.3179 H   0  0  0  0  0  0  0  0  0  0  0  0
  142.5015  132.9060  150.1435 H   0  0  0  0  0  0  0  0  0  0  0  0
  145.2264  133.0700  149.1380 H   0  0  0  0  0  0  0  0  0  0  0  0
  144.4793  131.6680  148.4102 H   0  0  0  0  0  0  0  0  0  0  0  0
  144.1667  134.0965  147.6781 H   0  0  0  0  0  0  0  0  0  0  0  0
  145.7182  134.6531  150.1075 H   0  0  0  0  0  0  0  0  0  0  0  0
  144.2846  135.5936  149.7433 H   0  0  0  0  0  0  0  0  0  0  0  0
  146.4325  136.7111  150.9853 H   0  0  0  0  0  0  0  0  0  0  0  0
  144.7918  137.1760  151.4500 H   0  0  0  0  0  0  0  0  0  0  0  0
  146.2964  136.6214  156.9950 H   0  0  0  0  0  0  0  0  0  0  0  0
  147.4254  140.5847  152.0439 H   0  0  0  0  0  0  0  0  0  0  0  0
  146.9295  141.7716  154.8562 H   0  0  0  0  0  0  0  0  0  0  0  0
  149.4596  141.4292  153.4724 H   0  0  0  0  0  0  0  0  0  0  0  0
  149.0454  142.7875  154.5695 H   0  0  0  0  0  0  0  0  0  0  0  0
  150.6034  139.0365  156.1594 H   0  0  0  0  0  0  0  0  0  0  0  0
  149.8281  139.0575  154.6021 H   0  0  0  0  0  0  0  0  0  0  0  0
  152.3094  139.1969  154.9948 H   0  0  0  0  0  0  0  0  0  0  0  0
  151.2626  141.2719  157.1983 H   0  0  0  0  0  0  0  0  0  0  0  0
  151.5655  142.2443  155.7826 H   0  0  0  0  0  0  0  0  0  0  0  0
  149.8826  143.5756  156.3895 H   0  0  0  0  0  0  0  0  0  0  0  0
  148.1170  141.7136  156.8952 H   0  0  0  0  0  0  0  0  0  0  0  0
  148.1608  139.9320  156.7392 H   0  0  0  0  0  0  0  0  0  0  0  0
  143.6662  132.5344  152.2020 H   0  0  0  0  0  0  0  0  0  0  0  0
  1  2  1  0  0  0  0
  1 31  1  0  0  0  0
  1 32  1  0  0  0  0
  1 33  1  0  0  0  0
  2 29  1  0  0  0  0
  2 11  1  0  0  0  0
  2  3  1  0  0  0  0
  3 30  1  0  0  0  0
  3  4  1  0  0  0  0
  3  9  1  0  0  0  0
  4  5  1  0  0  0  0
  4  6  1  0  0  0  0
  4 59  1  0  0  0  0
  5 34  1  0  0  0  0
  5 35  1  0  0  0  0
  5 36  1  0  0  0  0
  6  7  1  0  0  0  0
  6 37  1  0  0  0  0
  6 38  1  0  0  0  0
  7  8  1  0  0  0  0
  7 39  1  0  0  0  0
  7 40  1  0  0  0  0
  8 41  1  0  0  0  0
  9 10  1  0  0  0  0
  9 42  1  0  0  0  0
  9 43  1  0  0  0  0
 10 11  1  0  0  0  0
 10 44  1  0  0  0  0
 10 45  1  0  0  0  0
 11 12  1  0  0  0  0
 12 17  1  0  0  0  0
 12 13  2  0  0  0  0
 13 14  1  0  0  0  0
 14 15  2  0  0  0  0
 14 46  1  0  0  0  0
 15 16  1  0  0  0  0
 16 20  1  0  0  0  0
 16 17  2  0  0  0  0
 17 18  1  0  0  0  0
 18 19  2  0  0  0  0
 19 20  1  0  0  0  0
 19 47  1  0  0  0  0
 20 21  1  0  0  0  0
 21 28  1  0  0  0  0
 21 22  1  0  0  0  0
 21 48  1  0  0  0  0
 22 23  1  0  0  0  0
 22 49  1  0  0  0  0
 22 50  1  0  0  0  0
 23 24  1  0  0  0  0
 23 26  1  0  0  0  0
 23 28  1  0  0  0  0
 24 25  1  0  0  0  0
 24 51  1  0  0  0  0
 24 52  1  0  0  0  0
 25 53  1  0  0  0  0
 26 27  1  0  0  0  0
 26 54  1  0  0  0  0
 26 55  1  0  0  0  0
 27 56  1  0  0  0  0
 28 57  1  0  0  0  0
 28 58  1  0  0  0  0
M  CHG  1   4   1
M  END
> <s_m_source_file>
AV-unprocessed.smi

> <i_m_source_file_index>
215

> <i_lp_mmshare_version>
43012

> <i_f3d_flags>
0

> <s_epik_input>
W09IXVtDSDJdW0NIMl1OKFtDSDNdKVtDQEBIXShbQ0BIXTFbQ0gzXSlbQ0gyXVtDSDJdTjFjKG5bY0hdbjIpYyhjMjMpbltjSF1uM1tDSF0oW0NIMl00KVtDSDJdQzQoW0NIMl1bT0hdKVtDSDJdW09IXQ==

> <s_epik_cmdline>
J2VwaWtfcHl0aG9uJywgJy1waCcsICc3LjAnLCAnLXRuJywgJzgnLCAnLW1hJywgJzIwMCcsICctbWV0YWxfYmluZGluZycsICctaW1hZScsICc8aW5maWxlLm1hZT4nLCAnLW9tYWUnLCAnPG91dGZpbGUubWFlPic=

> <r_lp_tautomer_probability>
1

> <r_epik_Ionization_Penalty>
0.0036237

> <r_epik_Ionization_Penalty_Charging>
0.0032725

> <r_epik_Ionization_Penalty_Neutral>
0.000351196

> <r_epik_State_Penalty>
-0

> <r_epik_Charging_Adjusted_Penalty>
0.0032725

> <i_epik_Tot_Q>
1

> <i_epik_Tot_abs_Q>
1

> <r_epik_Metal_State_Penalty>
-0

> <b_epik_Metal_Only>
0

> <s_lp_Force_Field>
OPLS_2005

> <r_lp_Energy>
76.3744

> <b_lp_Chiralities_Consistent>
1

> <s_lp_Variant>
AV-unprocessed.smi:215-1

> <Gold.Version>
5.8.1

> <Gold.Id.Protein>
6NUR|6NUR_protein|mol2

> <Gold.PLP.Fitness>
46.9862

> <Gold.PLP.PLP>
-38.9458

> <Gold.PLP.part.hbond>
-4.4324

> <Gold.PLP.part.metal>
0.0000

> <Gold.PLP.part.buried>
-1.3556

> <Gold.PLP.part.nonpolar>
-33.9292

> <Gold.PLP.part.repulsive>
0.4728

> <Gold.PLP.ligand.clash>
0.0000

> <Gold.PLP.ligand.torsion>
1.7263

> <Gold.PLP.Chemscore.Hbond>
2.9920

> <Gold.PLP.Chemscore.CHOScore>
0.5760

> <Gold.PLP.Chemscore.Metal>
0.0000

> <Gold.Chemscore.Hbonds>
donor molecule, donor type, donor heavy atom, donor atom, acceptor molecule, acceptor atom, score
      L1  H     8    41       P1  7921  0.87
      L1  H    27    56       P1  8028  1.00
      P1  H  7989  7998       L1    25  1.00
      L1  C    19    47       P1  7957  0.56

> <Gold.PLP.Chemscore.Internal.Correction>
0.7891

> <Gold.Rescore>
     Score         DG    S(hbond)    S(metal)    S(lipo)     H(rot)  DE(clash)    DE(int)     intcor
      7.66     -13.82       2.94        0.00      92.45       4.81       0.59       5.57       ----

> <Gold.Chemscore.Fitness>
7.6599

> <Gold.Chemscore.DG>
-13.8182

> <Gold.Chemscore.ZeroCoef>
-5.4800

> <Gold.Chemscore.Hbond>
2.9444

> <Gold.Chemscore.Metal>
0.0000

> <Gold.Chemscore.Lipo>
92.4530

> <Gold.Chemscore.Internal_Hbond>
0.0000

> <Gold.Chemscore.DEClash>
0.5865

> <Gold.Chemscore.DEInternal>
5.5718

> <Gold.Chemscore.Rot>
4.8098

> <Gold.Chemscore.Internal.Correction>
   9.000000E+99

> <Gold.Chemscore.Hbonds>
donor molecule, donor type, donor heavy atom, donor atom, acceptor molecule, acceptor atom, score
      L1  H     8    41       P1  7921  0.82
      L1  H    27    56       P1  8028  0.98
      P1  H  7989  7998       L1    25  0.79

> <Gold.Chemscore.Hbond.Weighted>
-9.8342

> <Gold.Chemscore.Metal.Weighted>
-0.0000

> <Gold.Chemscore.Lipo.Weighted>
-10.8170

> <Gold.Chemscore.Internal_Hbond.Weighted>
0.0000

> <Gold.Chemscore.DEClash.Weighted>
0.5865

> <Gold.Chemscore.DEInternal.Weighted>
5.5718

> <Gold.Chemscore.Rot.Weighted>
12.3130

> <Gold.Chemscore.Internal.Correction.Weighted>
   9.000000E+99

> <Gold.Protein.RotatedTorsions>
[ 6907 6896 6895 6894 ] final   17.82 input  -60.11 | X-H torsion
[ 7974 7965 7964 7962 ] final -168.45 input  175.53 | X-H torsion
[ 8008 7997 7996 7995 ] final   60.49 input   59.86 | X-H torsion
[ 10167 10162 10161 10158 ] final   16.38 input  -65.29 | X-H torsion
[ 10718 10713 10712 10709 ] final  -67.24 input   66.30 | X-H torsion
[ 10763 10752 10751 10750 ] final  -93.73 input  -60.55 | X-H torsion
[ 11005 11000 10999 10996 ] final    1.43 input  -57.11 | X-H torsion

> <Gold.Protein.ActiveResidues>
 VAL166  LYS551  ARG553  GLY616  TRP617  ASP618  TYR619  PRO620  LYS621  CYS622 
 ASP623  PHE694  ASN695  SER759  ASP760  ASP761  ALA762  ILE779  LEU786  VAL792 
 PHE793  MET794  SER795  GLU796  ALA797  LYS798  CYS799  TRP800  GLU811  SER814 

> <Gold.Protein.RotatedAtoms>
  151.8556  135.0542  160.0463 H   0  0  0  0  0  0  0  0  0  0  0  0  # atno 6907 bound_to 6896
  152.2703  133.5372  159.5443 H   0  0  0  0  0  0  0  0  0  0  0  0  # atno 6908 bound_to 6896
  150.7149  134.0623  159.3878 H   0  0  0  0  0  0  0  0  0  0  0  0  # atno 6909 bound_to 6896
  144.7203  140.2368  143.6297 H   0  0  0  0  0  0  0  0  0  0  0  0  # atno 7974 bound_to 7965
  155.5831  140.3492  155.4546 H   0  0  0  0  0  0  0  0  0  0  0  0  # atno 8008 bound_to 7997
  156.0358  140.1284  157.0234 H   0  0  0  0  0  0  0  0  0  0  0  0  # atno 8009 bound_to 7997
  154.4371  140.1034  156.6151 H   0  0  0  0  0  0  0  0  0  0  0  0  # atno 8010 bound_to 7997
  140.5801  143.8997  150.6783 H   0  0  0  0  0  0  0  0  0  0  0  0  # atno 10167 bound_to 10162
  156.0568  130.4275  150.1826 H   0  0  0  0  0  0  0  0  0  0  0  0  # atno 10718 bound_to 10713
  154.6988  135.5183  153.8496 H   0  0  0  0  0  0  0  0  0  0  0  0  # atno 10763 bound_to 10752
  153.0687  135.6594  154.0304 H   0  0  0  0  0  0  0  0  0  0  0  0  # atno 10764 bound_to 10752
  154.0167  135.2997  155.3365 H   0  0  0  0  0  0  0  0  0  0  0  0  # atno 10765 bound_to 10752
  140.6155  133.9709  155.8198 H   0  0  0  0  0  0  0  0  0  0  0  0  # atno 11005 bound_to 11000
  145.8358  139.2107  143.1856 LP  0  0  0  0  0  0  0  0  0  0  0  0  # atno 17320 bound_to 7965
  146.0390  140.8183  142.9838 LP  0  0  0  0  0  0  0  0  0  0  0  0  # atno 17321 bound_to 7965
  140.2494  143.3604  152.1419 LP  0  0  0  0  0  0  0  0  0  0  0  0  # atno 17342 bound_to 10162
  139.5165  144.6978  151.5580 LP  0  0  0  0  0  0  0  0  0  0  0  0  # atno 17343 bound_to 10162
  156.9901  130.9890  151.3417 LP  0  0  0  0  0  0  0  0  0  0  0  0  # atno 17370 bound_to 10713
  157.5545  130.8204  149.8186 LP  0  0  0  0  0  0  0  0  0  0  0  0  # atno 17371 bound_to 10713
  141.0778  134.0108  157.3431 LP  0  0  0  0  0  0  0  0  0  0  0  0  # atno 17394 bound_to 11000
  139.9174  135.0198  156.7935 LP  0  0  0  0  0  0  0  0  0  0  0  0  # atno 17395 bound_to 11000

$$$$
