AV-unprocessed.smi:1361|AV-procd|sdf|5557|dock5
  -GOLD-   22720 5153D 1   1.00000     0.00000
 Structure written by MMmdl.
 45 46  0  0  0  0  0  0  0  0  2 V2000
  145.4376  137.1683  156.8305 C   0  0  0  0  0  0  0  0  0  0  0  0
  146.2741  138.3480  156.3834 C   0  0  0  0  0  0  0  0  0  0  0  0
  146.3566  138.6196  155.1370 N   0  0  0  0  0  0  0  0  0  0  0  0
  147.1283  139.7162  154.7176 C   0  0  0  0  0  0  0  0  0  0  0  0
  147.1628  139.9660  153.2196 C   0  0  0  0  0  0  0  0  0  0  0  0
  147.7954  140.4953  155.6171 C   0  0  0  0  0  0  0  0  0  0  0  0
  148.6406  141.7024  155.2133 C   0  0  0  0  0  0  0  0  0  0  0  0
  150.0799  141.6963  155.7304 C   0  0  0  0  0  0  0  0  0  0  0  0
  150.8590  140.8117  155.3767 O   0  0  0  0  0  0  0  0  0  0  0  0
  150.4185  142.6904  156.5662 N   0  0  0  0  0  0  0  0  0  0  0  0
  151.7314  142.8845  157.1768 C   0  0  0  0  0  0  0  0  0  0  0  0
  151.8751  141.9619  158.4086 C   0  0  0  0  0  0  0  0  0  0  0  0
  153.0939  142.2590  159.3020 C   0  0  0  0  0  0  0  0  0  0  0  0
  152.7431  142.7824  160.7073 C   0  0  0  0  0  0  0  0  0  0  0  0
  151.6439  143.8612  160.8024 C   0  0  0  0  0  0  0  0  0  0  0  0
  151.8351  145.1088  159.9224 C   0  0  0  0  0  0  0  0  0  0  0  0
  151.1460  145.0556  158.5416 C   0  0  0  0  0  0  0  0  0  0  0  0
  151.9687  144.3941  157.4196 C   0  0  0  0  0  0  0  0  0  0  0  0
  147.6806  140.1434  157.0441 C   0  0  0  0  0  0  0  0  0  0  0  0
  148.2738  140.8027  157.8969 O   0  0  0  0  0  0  0  0  0  0  0  0
  146.9044  139.0710  157.3709 N   0  5  0  0  0  0  0  0  0  0  0  0
  145.1416  136.5519  155.9807 H   0  0  0  0  0  0  0  0  0  0  0  0
  144.5353  137.5170  157.3336 H   0  0  0  0  0  0  0  0  0  0  0  0
  146.0012  136.5433  157.5241 H   0  0  0  0  0  0  0  0  0  0  0  0
  146.7711  140.9556  152.9843 H   0  0  0  0  0  0  0  0  0  0  0  0
  146.5584  139.2331  152.6840 H   0  0  0  0  0  0  0  0  0  0  0  0
  148.1828  139.8950  152.8427 H   0  0  0  0  0  0  0  0  0  0  0  0
  148.6487  141.7683  154.1249 H   0  0  0  0  0  0  0  0  0  0  0  0
  148.1691  142.6310  155.5357 H   0  0  0  0  0  0  0  0  0  0  0  0
  149.7094  143.3717  156.7945 H   0  0  0  0  0  0  0  0  0  0  0  0
  152.4875  142.5792  156.4505 H   0  0  0  0  0  0  0  0  0  0  0  0
  150.9566  141.9659  158.9941 H   0  0  0  0  0  0  0  0  0  0  0  0
  151.9586  140.9349  158.0505 H   0  0  0  0  0  0  0  0  0  0  0  0
  153.6708  141.3414  159.4229 H   0  0  0  0  0  0  0  0  0  0  0  0
  153.7825  142.9456  158.8124 H   0  0  0  0  0  0  0  0  0  0  0  0
  152.4328  141.9373  161.3229 H   0  0  0  0  0  0  0  0  0  0  0  0
  153.6550  143.1605  161.1708 H   0  0  0  0  0  0  0  0  0  0  0  0
  150.6579  143.4305  160.6296 H   0  0  0  0  0  0  0  0  0  0  0  0
  151.6175  144.1884  161.8426 H   0  0  0  0  0  0  0  0  0  0  0  0
  151.3871  145.9444  160.4615 H   0  0  0  0  0  0  0  0  0  0  0  0
  152.8912  145.3642  159.8302 H   0  0  0  0  0  0  0  0  0  0  0  0
  150.1501  144.6178  158.6132 H   0  0  0  0  0  0  0  0  0  0  0  0
  150.9789  146.0898  158.2381 H   0  0  0  0  0  0  0  0  0  0  0  0
  153.0281  144.5991  157.5712 H   0  0  0  0  0  0  0  0  0  0  0  0
  151.7339  144.9101  156.4870 H   0  0  0  0  0  0  0  0  0  0  0  0
  1  2  1  0  0  0  0
  1 22  1  0  0  0  0
  1 23  1  0  0  0  0
  1 24  1  0  0  0  0
  2 21  1  0  0  0  0
  2  3  2  0  0  0  0
  3  4  1  0  0  0  0
  4  5  1  0  0  0  0
  4  6  2  0  0  0  0
  5 25  1  0  0  0  0
  5 26  1  0  0  0  0
  5 27  1  0  0  0  0
  6  7  1  0  0  0  0
  6 19  1  0  0  0  0
  7  8  1  0  0  0  0
  7 28  1  0  0  0  0
  7 29  1  0  0  0  0
  8  9  2  0  0  0  0
  8 10  1  0  0  0  0
 10 11  1  0  0  0  0
 10 30  1  0  0  0  0
 11 18  1  0  0  0  0
 11 12  1  0  0  0  0
 11 31  1  0  0  0  0
 12 13  1  0  0  0  0
 12 32  1  0  0  0  0
 12 33  1  0  0  0  0
 13 14  1  0  0  0  0
 13 34  1  0  0  0  0
 13 35  1  0  0  0  0
 14 15  1  0  0  0  0
 14 36  1  0  0  0  0
 14 37  1  0  0  0  0
 15 16  1  0  0  0  0
 15 38  1  0  0  0  0
 15 39  1  0  0  0  0
 16 17  1  0  0  0  0
 16 40  1  0  0  0  0
 16 41  1  0  0  0  0
 17 18  1  0  0  0  0
 17 42  1  0  0  0  0
 17 43  1  0  0  0  0
 18 44  1  0  0  0  0
 18 45  1  0  0  0  0
 19 20  2  0  0  0  0
 19 21  1  0  0  0  0
M  CHG  1  21  -1
M  END
> <s_m_source_file>
AV-unprocessed.smi

> <i_m_source_file_index>
1361

> <i_lp_mmshare_version>
43012

> <i_f3d_flags>
0

> <s_epik_input>
W0NIM11jMW5jKFtDSDNdKWMoYyg9TylbbkhdMSlbQ0gyXUMoPU8pW05IXVtDSF0yW0NIMl1bQ0gyXVtDSDJdW0NIMl1bQ0gyXVtDSDJdW0NIMl0y

> <s_epik_cmdline>
J2VwaWtfcHl0aG9uJywgJy1waCcsICc3LjAnLCAnLXRuJywgJzgnLCAnLW1hJywgJzIwMCcsICctbWV0YWxfYmluZGluZycsICctaW1hZScsICc8aW5maWxlLm1hZT4nLCAnLW9tYWUnLCAnPG91dGZpbGUubWFlPic=

> <r_lp_tautomer_probability>
0.839158

> <r_epik_Ionization_Penalty>
6.62804

> <r_epik_Ionization_Penalty_Charging>
7.40585e-08

> <r_epik_Ionization_Penalty_Neutral>
6.62804

> <r_epik_State_Penalty>
4.44437

> <r_epik_Charging_Adjusted_Penalty>
4.44437

> <i_epik_Tot_Q>
-1

> <i_epik_Tot_abs_Q>
1

> <r_epik_Metal_State_Penalty>
0.804717

> <b_epik_Metal_Only>
1

> <s_lp_Force_Field>
OPLS_2005

> <r_lp_Energy>
26.9664

> <b_lp_Chiralities_Consistent>
1

> <s_lp_Variant>
AV-unprocessed.smi:1361-3

> <Gold.Version>
5.8.1

> <Gold.Id.Protein>
6NUR|6NUR_protein|mol2

> <Gold.PLP.Fitness>
40.1891

> <Gold.PLP.PLP>
-36.7078

> <Gold.PLP.part.hbond>
-2.1985

> <Gold.PLP.part.metal>
0.0000

> <Gold.PLP.part.buried>
-3.4371

> <Gold.PLP.part.nonpolar>
-28.7554

> <Gold.PLP.part.repulsive>
0.1883

> <Gold.PLP.ligand.clash>
0.0000

> <Gold.PLP.ligand.torsion>
0.3812

> <Gold.PLP.Chemscore.Hbond>
1.4009

> <Gold.PLP.Chemscore.CHOScore>
0.0000

> <Gold.PLP.Chemscore.Metal>
0.0000

> <Gold.Chemscore.Hbonds>
donor molecule, donor type, donor heavy atom, donor atom, acceptor molecule, acceptor atom, score
      L1  H    10    30       P1  8028  0.59
      P1  H  7989  7998       L1     9  0.80

> <Gold.PLP.Chemscore.Internal.Correction>
0.0412

> <Gold.Rescore>
     Score         DG    S(hbond)    S(metal)    S(lipo)     H(rot)  DE(clash)    DE(int)     intcor
     17.27     -19.60       1.55        0.00     107.77       1.43       0.86       1.47       ----

> <Gold.Chemscore.Fitness>
17.2682

> <Gold.Chemscore.DG>
-19.5989

> <Gold.Chemscore.ZeroCoef>
-5.4800

> <Gold.Chemscore.Hbond>
1.5509

> <Gold.Chemscore.Metal>
0.0000

> <Gold.Chemscore.Lipo>
107.7741

> <Gold.Chemscore.Internal_Hbond>
0.0000

> <Gold.Chemscore.DEClash>
0.8581

> <Gold.Chemscore.DEInternal>
1.4726

> <Gold.Chemscore.Rot>
1.4339

> <Gold.Chemscore.Internal.Correction>
   9.000000E+99

> <Gold.Chemscore.Hbonds>
donor molecule, donor type, donor heavy atom, donor atom, acceptor molecule, acceptor atom, score
      L1  H    10    30       P1  8028  0.59
      P1  H  7989  7998       L1     9  0.71

> <Gold.Chemscore.Hbond.Weighted>
-5.1801

> <Gold.Chemscore.Metal.Weighted>
-0.0000

> <Gold.Chemscore.Lipo.Weighted>
-12.6096

> <Gold.Chemscore.Internal_Hbond.Weighted>
0.0000

> <Gold.Chemscore.DEClash.Weighted>
0.8581

> <Gold.Chemscore.DEInternal.Weighted>
1.4726

> <Gold.Chemscore.Rot.Weighted>
3.6708

> <Gold.Chemscore.Internal.Correction.Weighted>
   9.000000E+99

> <Gold.Protein.RotatedTorsions>
[ 6907 6896 6895 6894 ] final    3.25 input  -60.11 | X-H torsion
[ 7974 7965 7964 7962 ] final  150.00 input  175.53 | X-H torsion
[ 8008 7997 7996 7995 ] final  -60.18 input   59.86 | X-H torsion
[ 10167 10162 10161 10158 ] final   59.14 input  -65.29 | X-H torsion
[ 10718 10713 10712 10709 ] final   94.46 input   66.30 | X-H torsion
[ 10763 10752 10751 10750 ] final   56.06 input  -60.55 | X-H torsion
[ 11005 11000 10999 10996 ] final  -68.29 input  -57.11 | X-H torsion

> <Gold.Protein.ActiveResidues>
 VAL166  LYS551  ARG553  GLY616  TRP617  ASP618  TYR619  PRO620  LYS621  CYS622 
 ASP623  PHE694  ASN695  SER759  ASP760  ASP761  ALA762  ILE779  LEU786  VAL792 
 PHE793  MET794  SER795  GLU796  ALA797  LYS798  CYS799  TRP800  GLU811  SER814 

> <Gold.Protein.RotatedAtoms>
  151.6220  135.1031  160.0103 H   0  0  0  0  0  0  0  0  0  0  0  0  # atno 6907 bound_to 6896
  152.4153  133.7023  159.6442 H   0  0  0  0  0  0  0  0  0  0  0  0  # atno 6908 bound_to 6896
  150.8041  133.8469  159.3235 H   0  0  0  0  0  0  0  0  0  0  0  0  # atno 6909 bound_to 6896
  144.8396  139.6352  143.6022 H   0  0  0  0  0  0  0  0  0  0  0  0  # atno 7974 bound_to 7965
  154.4386  140.1045  156.6232 H   0  0  0  0  0  0  0  0  0  0  0  0  # atno 8008 bound_to 7997
  155.5685  140.3489  155.4490 H   0  0  0  0  0  0  0  0  0  0  0  0  # atno 8009 bound_to 7997
  156.0407  140.1281  157.0147 H   0  0  0  0  0  0  0  0  0  0  0  0  # atno 8010 bound_to 7997
  140.1797  144.4195  150.6621 H   0  0  0  0  0  0  0  0  0  0  0  0  # atno 10167 bound_to 10162
  157.6947  131.0513  150.4190 H   0  0  0  0  0  0  0  0  0  0  0  0  # atno 10718 bound_to 10713
  152.9826  135.5689  154.5167 H   0  0  0  0  0  0  0  0  0  0  0  0  # atno 10763 bound_to 10752
  154.4662  135.2783  155.1678 H   0  0  0  0  0  0  0  0  0  0  0  0  # atno 10764 bound_to 10752
  154.3245  135.6262  153.5576 H   0  0  0  0  0  0  0  0  0  0  0  0  # atno 10765 bound_to 10752
  141.1528  133.6737  156.6424 H   0  0  0  0  0  0  0  0  0  0  0  0  # atno 11005 bound_to 11000
  146.2691  139.6591  142.9309 LP  0  0  0  0  0  0  0  0  0  0  0  0  # atno 17320 bound_to 7965
  145.4721  141.0436  143.2693 LP  0  0  0  0  0  0  0  0  0  0  0  0  # atno 17321 bound_to 7965
  140.6528  143.2229  151.6038 LP  0  0  0  0  0  0  0  0  0  0  0  0  # atno 17342 bound_to 10162
  139.5302  144.2940  152.1129 LP  0  0  0  0  0  0  0  0  0  0  0  0  # atno 17343 bound_to 10162
  156.4567  130.4023  149.6602 LP  0  0  0  0  0  0  0  0  0  0  0  0  # atno 17370 bound_to 10713
  156.3732  130.7541  151.2526 LP  0  0  0  0  0  0  0  0  0  0  0  0  # atno 17371 bound_to 10713
  140.3383  134.7870  157.4379 LP  0  0  0  0  0  0  0  0  0  0  0  0  # atno 17394 bound_to 11000
  140.0959  134.5538  155.8399 LP  0  0  0  0  0  0  0  0  0  0  0  0  # atno 17395 bound_to 11000

$$$$
