AV-unprocessed.smi:2847|AV-procd|sdf|10954|dock1
  -GOLD-   2272015403D 1   1.00000     0.00000
 Structure written by MMmdl.
 45 46  0  0  0  0  0  0  0  0  1 V2000
  143.6843  132.4415  149.9790 C   0  0  0  0  0  0  0  0  0  0  0  0
  144.9616  132.6659  150.8226 C   0  0  0  0  0  0  0  0  0  0  0  0
  145.0158  131.6279  151.9585 C   0  0  0  0  0  0  0  0  0  0  0  0
  146.1530  132.4443  149.8611 C   0  0  0  0  0  0  0  0  0  0  0  0
  144.9897  134.0833  151.4207 C   0  0  0  0  0  0  0  0  0  0  0  0
  146.1022  134.4494  152.0710 N   0  0  0  0  0  0  0  0  0  0  0  0
  146.1891  135.7283  152.4926 C   0  0  0  0  0  0  0  0  0  0  0  0
  145.1688  136.6674  152.2435 C   0  0  0  0  0  0  0  0  0  0  0  0
  145.3328  138.0015  152.7025 N   0  0  0  0  0  0  0  0  0  0  0  0
  146.2824  138.4922  153.5164 C   0  0  0  0  0  0  0  0  0  0  0  0
  147.2110  137.8399  153.9917 O   0  0  0  0  0  0  0  0  0  0  0  0
  146.0936  139.8042  153.7323 N   0  0  0  0  0  0  0  0  0  0  0  0
  146.8906  140.7262  154.5532 C   0  0  2  0  0  0  0  0  0  0  0  0
  146.9409  140.2233  156.0158 C   0  0  0  0  0  0  0  0  0  0  0  0
  146.1425  142.0888  154.5087 C   0  0  0  0  0  0  0  0  0  0  0  0
  144.7418  141.9393  154.6463 O   0  0  0  0  0  0  0  0  0  0  0  0
  148.3369  140.8435  154.0389 C   0  0  0  0  0  0  0  0  0  0  0  0
  149.4488  139.8860  154.4033 C   0  0  0  0  0  0  0  0  0  0  0  0
  149.5001  141.3271  154.8741 C   0  0  0  0  0  0  0  0  0  0  0  0
  144.0621  136.1905  151.5014 C   0  0  0  0  0  0  0  0  0  0  0  0
  143.9889  134.9081  151.0848 N   0  0  0  0  0  0  0  0  0  0  0  0
  143.6847  131.4555  149.5128 H   0  0  0  0  0  0  0  0  0  0  0  0
  143.6003  133.1805  149.1811 H   0  0  0  0  0  0  0  0  0  0  0  0
  142.7788  132.5020  150.5837 H   0  0  0  0  0  0  0  0  0  0  0  0
  144.1683  131.7374  152.6360 H   0  0  0  0  0  0  0  0  0  0  0  0
  145.9255  131.7356  152.5505 H   0  0  0  0  0  0  0  0  0  0  0  0
  144.9959  130.6099  151.5680 H   0  0  0  0  0  0  0  0  0  0  0  0
  146.1112  131.4574  149.3989 H   0  0  0  0  0  0  0  0  0  0  0  0
  147.1123  132.5093  150.3759 H   0  0  0  0  0  0  0  0  0  0  0  0
  146.1581  133.1822  149.0577 H   0  0  0  0  0  0  0  0  0  0  0  0
  147.0844  136.0031  153.0312 H   0  0  0  0  0  0  0  0  0  0  0  0
  144.6756  138.6720  152.3314 H   0  0  0  0  0  0  0  0  0  0  0  0
  145.2900  140.2212  153.2859 H   0  0  0  0  0  0  0  0  0  0  0  0
  147.4022  140.9651  156.6686 H   0  0  0  0  0  0  0  0  0  0  0  0
  147.5259  139.3086  156.1131 H   0  0  0  0  0  0  0  0  0  0  0  0
  145.9463  140.0125  156.4100 H   0  0  0  0  0  0  0  0  0  0  0  0
  146.4686  142.7478  155.3120 H   0  0  0  0  0  0  0  0  0  0  0  0
  146.3253  142.6109  153.5698 H   0  0  0  0  0  0  0  0  0  0  0  0
  144.4658  141.2015  154.1238 H   0  0  0  0  0  0  0  0  0  0  0  0
  148.3754  141.1582  152.9982 H   0  0  0  0  0  0  0  0  0  0  0  0
  149.2684  139.1202  155.1528 H   0  0  0  0  0  0  0  0  0  0  0  0
  150.1344  139.5959  153.6097 H   0  0  0  0  0  0  0  0  0  0  0  0
  150.2172  141.9873  154.3904 H   0  0  0  0  0  0  0  0  0  0  0  0
  149.3554  141.5085  155.9358 H   0  0  0  0  0  0  0  0  0  0  0  0
  143.2388  136.8228  151.2076 H   0  0  0  0  0  0  0  0  0  0  0  0
  1  2  1  0  0  0  0
  1 22  1  0  0  0  0
  1 23  1  0  0  0  0
  1 24  1  0  0  0  0
  2  3  1  0  0  0  0
  2  4  1  0  0  0  0
  2  5  1  0  0  0  0
  3 25  1  0  0  0  0
  3 26  1  0  0  0  0
  3 27  1  0  0  0  0
  4 28  1  0  0  0  0
  4 29  1  0  0  0  0
  4 30  1  0  0  0  0
  5 21  1  0  0  0  0
  5  6  2  0  0  0  0
  6  7  1  0  0  0  0
  7  8  2  0  0  0  0
  7 31  1  0  0  0  0
  8  9  1  0  0  0  0
  8 20  1  0  0  0  0
  9 10  1  0  0  0  0
  9 32  1  0  0  0  0
 10 11  2  0  0  0  0
 10 12  1  0  0  0  0
 12 13  1  0  0  0  0
 12 33  1  0  0  0  0
 13 14  1  0  0  0  0
 13 15  1  0  0  0  0
 13 17  1  0  0  0  0
 14 34  1  0  0  0  0
 14 35  1  0  0  0  0
 14 36  1  0  0  0  0
 15 16  1  0  0  0  0
 15 37  1  0  0  0  0
 15 38  1  0  0  0  0
 16 39  1  0  0  0  0
 17 19  1  0  0  0  0
 17 18  1  0  0  0  0
 17 40  1  0  0  0  0
 18 19  1  0  0  0  0
 18 41  1  0  0  0  0
 18 42  1  0  0  0  0
 19 43  1  0  0  0  0
 19 44  1  0  0  0  0
 20 21  2  0  0  0  0
 20 45  1  0  0  0  0
M  END
> <s_m_source_file>
AV-unprocessed.smi

> <i_m_source_file_index>
2847

> <i_lp_mmshare_version>
43012

> <i_f3d_flags>
0

> <s_epik_input>
W0NIM11DKFtDSDNdKShbQ0gzXSljMW5bY0hdYyhbY0hdbjEpW05IXUMoPU8pW05IXVtDQEBdKFtDSDNdKShbQ0gyXVtPSF0pW0NIXTJbQ0gyXVtDSDJdMg==

> <s_epik_cmdline>
J2VwaWtfcHl0aG9uJywgJy1waCcsICc3LjAnLCAnLXRuJywgJzgnLCAnLW1hJywgJzIwMCcsICctbWV0YWxfYmluZGluZycsICctaW1hZScsICc8aW5maWxlLm1hZT4nLCAnLW9tYWUnLCAnPG91dGZpbGUubWFlPic=

> <r_lp_tautomer_probability>
1

> <r_epik_Ionization_Penalty>
2.57177e-05

> <r_epik_Ionization_Penalty_Charging>
0

> <r_epik_Ionization_Penalty_Neutral>
2.57177e-05

> <r_epik_State_Penalty>
-0

> <r_epik_Charging_Adjusted_Penalty>
0

> <i_epik_Tot_Q>
0

> <i_epik_Tot_abs_Q>
0

> <r_epik_Metal_State_Penalty>
-0

> <b_epik_Metal_Only>
0

> <s_lp_Force_Field>
OPLS_2005

> <r_lp_Energy>
20.8954

> <b_lp_Chiralities_Consistent>
1

> <s_lp_Variant>
AV-unprocessed.smi:2847-2

> <Gold.Version>
5.8.1

> <Gold.Id.Protein>
6NUR|6NUR_protein|mol2

> <Gold.PLP.Fitness>
44.2831

> <Gold.PLP.PLP>
-31.4952

> <Gold.PLP.part.hbond>
-3.3500

> <Gold.PLP.part.metal>
0.0000

> <Gold.PLP.part.buried>
0.6156

> <Gold.PLP.part.nonpolar>
-28.8246

> <Gold.PLP.part.repulsive>
0.4653

> <Gold.PLP.ligand.clash>
0.0000

> <Gold.PLP.ligand.torsion>
0.9840

> <Gold.PLP.Chemscore.Hbond>
2.9920

> <Gold.PLP.Chemscore.CHOScore>
1.4102

> <Gold.PLP.Chemscore.Metal>
0.0000

> <Gold.Chemscore.Hbonds>
donor molecule, donor type, donor heavy atom, donor atom, acceptor molecule, acceptor atom, score
      L1  H     9    32       P1 10175  0.98
      L1  H    12    33       P1 10175  1.00
      L1  H    16    39       P1 10175  0.98
      L1  C     7    31       P1  7948  0.74
      L1  C    20    45       P1 10171  0.69

> <Gold.PLP.Chemscore.Internal.Correction>
1.5492

> <Gold.Rescore>
     Score         DG    S(hbond)    S(metal)    S(lipo)     H(rot)  DE(clash)    DE(int)     intcor
     13.93     -17.76       2.51        0.00      80.63       2.17       1.36       2.47       ----

> <Gold.Chemscore.Fitness>
13.9265

> <Gold.Chemscore.DG>
-17.7583

> <Gold.Chemscore.ZeroCoef>
-5.4800

> <Gold.Chemscore.Hbond>
2.5134

> <Gold.Chemscore.Metal>
0.0000

> <Gold.Chemscore.Lipo>
80.6269

> <Gold.Chemscore.Internal_Hbond>
0.0000

> <Gold.Chemscore.DEClash>
1.3645

> <Gold.Chemscore.DEInternal>
2.4672

> <Gold.Chemscore.Rot>
2.1679

> <Gold.Chemscore.Internal.Correction>
   9.000000E+99

> <Gold.Chemscore.Hbonds>
donor molecule, donor type, donor heavy atom, donor atom, acceptor molecule, acceptor atom, score
      L1  H     9    32       P1 10175  0.88
      L1  H    12    33       P1 10175  1.00
      L1  H    16    39       P1 10175  0.61

> <Gold.Chemscore.Hbond.Weighted>
-8.3948

> <Gold.Chemscore.Metal.Weighted>
-0.0000

> <Gold.Chemscore.Lipo.Weighted>
-9.4333

> <Gold.Chemscore.Internal_Hbond.Weighted>
0.0000

> <Gold.Chemscore.DEClash.Weighted>
1.3645

> <Gold.Chemscore.DEInternal.Weighted>
2.4672

> <Gold.Chemscore.Rot.Weighted>
5.5499

> <Gold.Chemscore.Internal.Correction.Weighted>
   9.000000E+99

> <Gold.Protein.RotatedTorsions>
[ 6907 6896 6895 6894 ] final  167.97 input  -60.11 | X-H torsion
[ 7974 7965 7964 7962 ] final   60.07 input  175.53 | X-H torsion
[ 8008 7997 7996 7995 ] final -160.91 input   59.86 | X-H torsion
[ 10167 10162 10161 10158 ] final   35.68 input  -65.29 | X-H torsion
[ 10718 10713 10712 10709 ] final  115.49 input   66.30 | X-H torsion
[ 10763 10752 10751 10750 ] final  119.18 input  -60.55 | X-H torsion
[ 11005 11000 10999 10996 ] final   65.31 input  -57.11 | X-H torsion

> <Gold.Protein.ActiveResidues>
 VAL166  LYS551  ARG553  GLY616  TRP617  ASP618  TYR619  PRO620  LYS621  CYS622 
 ASP623  PHE694  ASN695  SER759  ASP760  ASP761  ALA762  ILE779  LEU786  VAL792 
 PHE793  MET794  SER795  GLU796  ALA797  LYS798  CYS799  TRP800  GLU811  SER814 

> <Gold.Protein.RotatedAtoms>
  151.8549  133.3446  159.3684 H   0  0  0  0  0  0  0  0  0  0  0  0  # atno 6907 bound_to 6896
  150.7195  134.5262  159.5687 H   0  0  0  0  0  0  0  0  0  0  0  0  # atno 6908 bound_to 6896
  152.2764  134.7877  160.0456 H   0  0  0  0  0  0  0  0  0  0  0  0  # atno 6909 bound_to 6896
  145.9001  139.3574  143.0598 H   0  0  0  0  0  0  0  0  0  0  0  0  # atno 7974 bound_to 7965
  155.7844  140.0869  157.2042 H   0  0  0  0  0  0  0  0  0  0  0  0  # atno 8008 bound_to 7997
  154.3988  140.1501  156.3148 H   0  0  0  0  0  0  0  0  0  0  0  0  # atno 8009 bound_to 7997
  155.8621  140.3429  155.5766 H   0  0  0  0  0  0  0  0  0  0  0  0  # atno 8010 bound_to 7997
  140.4199  144.1474  150.6147 H   0  0  0  0  0  0  0  0  0  0  0  0  # atno 10167 bound_to 10162
  157.6219  131.1013  150.7337 H   0  0  0  0  0  0  0  0  0  0  0  0  # atno 10718 bound_to 10713
  153.5791  135.3487  155.2868 H   0  0  0  0  0  0  0  0  0  0  0  0  # atno 10763 bound_to 10752
  154.8670  135.4177  154.2640 H   0  0  0  0  0  0  0  0  0  0  0  0  # atno 10764 bound_to 10752
  153.3423  135.7050  153.6927 H   0  0  0  0  0  0  0  0  0  0  0  0  # atno 10765 bound_to 10752
  139.9902  134.6603  156.0104 H   0  0  0  0  0  0  0  0  0  0  0  0  # atno 11005 bound_to 11000
  145.8802  140.9367  143.0605 LP  0  0  0  0  0  0  0  0  0  0  0  0  # atno 17320 bound_to 7965
  144.6735  140.0770  143.7471 LP  0  0  0  0  0  0  0  0  0  0  0  0  # atno 17321 bound_to 7965
  140.4545  143.2473  151.9303 LP  0  0  0  0  0  0  0  0  0  0  0  0  # atno 17342 bound_to 10162
  139.4782  144.5529  151.8358 LP  0  0  0  0  0  0  0  0  0  0  0  0  # atno 17343 bound_to 10162
  156.7693  130.4823  149.5421 LP  0  0  0  0  0  0  0  0  0  0  0  0  # atno 17370 bound_to 10713
  156.1368  130.6217  151.0412 LP  0  0  0  0  0  0  0  0  0  0  0  0  # atno 17371 bound_to 10713
  141.1559  133.6543  156.4161 LP  0  0  0  0  0  0  0  0  0  0  0  0  # atno 17394 bound_to 11000
  140.4923  134.6564  157.5215 LP  0  0  0  0  0  0  0  0  0  0  0  0  # atno 17395 bound_to 11000

$$$$
