AV-unprocessed.smi:100|AV-procd|sdf|905|dock8
  -GOLD-   2262017403D 1   1.00000     0.00000
 Structure written by MMmdl.
 31 33  0  0  0  0  0  0  0  0  1 V2000
  151.3696  137.7113  153.4669 N   0  0  0  0  0  0  0  0  0  0  0  0
  151.4566  137.7122  154.8040 C   0  0  0  0  0  0  0  0  0  0  0  0
  151.5926  136.5255  155.4419 N   0  0  0  0  0  0  0  0  0  0  0  0
  151.6829  136.5007  156.7763 C   0  0  0  0  0  0  0  0  0  0  0  0
  151.6588  137.5239  157.6358 N   0  0  0  0  0  0  0  0  0  0  0  0
  151.5201  138.7171  156.9873 C   0  0  0  0  0  0  0  0  0  0  0  0
  151.4145  138.8970  155.5813 C   0  0  0  0  0  0  0  0  0  0  0  0
  151.2901  140.2481  155.2866 N   0  0  0  0  0  0  0  0  0  0  0  0
  151.3228  140.8298  156.4564 C   0  0  0  0  0  0  0  0  0  0  0  0
  151.4620  139.9797  157.5344 N   0  0  0  0  0  0  0  0  0  0  0  0
  151.5316  140.3005  158.9974 C   0  0  2  0  0  0  0  0  0  0  0  0
  151.3743  141.6815  159.1532 O   0  0  0  0  0  0  0  0  0  0  0  0
  152.6381  142.2801  159.4222 C   0  0  1  0  0  0  0  0  0  0  0  0
  152.4513  143.6455  160.0986 C   0  0  0  0  0  0  0  0  0  0  0  0
  151.5828  143.5175  161.2038 O   0  0  0  0  0  0  0  0  0  0  0  0
  153.2631  141.2234  160.3281 C   0  0  2  0  0  0  0  0  0  0  0  0
  154.5754  141.3754  160.5162 F   0  0  0  0  0  0  0  0  0  0  0  0
  152.8977  139.9262  159.6231 C   0  0  2  0  0  0  0  0  0  0  0  0
  153.8873  139.5666  158.6715 O   0  0  0  0  0  0  0  0  0  0  0  0
  151.2689  138.5852  152.9704 H   0  0  0  0  0  0  0  0  0  0  0  0
  151.4070  136.8395  152.9591 H   0  0  0  0  0  0  0  0  0  0  0  0
  151.7904  135.5211  157.2183 H   0  0  0  0  0  0  0  0  0  0  0  0
  151.2444  141.9022  156.5595 H   0  0  0  0  0  0  0  0  0  0  0  0
  150.6834  139.7758  159.4393 H   0  0  0  0  0  0  0  0  0  0  0  0
  153.2215  142.3700  158.5038 H   0  0  0  0  0  0  0  0  0  0  0  0
  153.4064  144.0685  160.4116 H   0  0  0  0  0  0  0  0  0  0  0  0
  151.9952  144.3500  159.4025 H   0  0  0  0  0  0  0  0  0  0  0  0
  151.5536  142.6082  161.4599 H   0  0  0  0  0  0  0  0  0  0  0  0
  152.7942  141.2529  161.3129 H   0  0  0  0  0  0  0  0  0  0  0  0
  152.7699  139.1048  160.3289 H   0  0  0  0  0  0  0  0  0  0  0  0
  153.8749  138.6270  158.5689 H   0  0  0  0  0  0  0  0  0  0  0  0
  1  2  1  0  0  0  0
  1 20  1  0  0  0  0
  1 21  1  0  0  0  0
  2  7  1  0  0  0  0
  2  3  2  0  0  0  0
  3  4  1  0  0  0  0
  4  5  2  0  0  0  0
  4 22  1  0  0  0  0
  5  6  1  0  0  0  0
  6 10  1  0  0  0  0
  6  7  2  0  0  0  0
  7  8  1  0  0  0  0
  8  9  2  0  0  0  0
  9 10  1  0  0  0  0
  9 23  1  0  0  0  0
 10 11  1  0  0  0  0
 11 18  1  0  0  0  0
 11 12  1  0  0  0  0
 11 24  1  0  0  0  0
 12 13  1  0  0  0  0
 13 14  1  0  0  0  0
 13 16  1  0  0  0  0
 13 25  1  0  0  0  0
 14 15  1  0  0  0  0
 14 26  1  0  0  0  0
 14 27  1  0  0  0  0
 15 28  1  0  0  0  0
 16 17  1  0  0  0  0
 16 18  1  0  0  0  0
 16 29  1  0  0  0  0
 18 19  1  0  0  0  0
 18 30  1  0  0  0  0
 19 31  1  0  0  0  0
M  END
> <s_m_source_file>
AV-unprocessed.smi

> <i_m_source_file_index>
100

> <i_lp_mmshare_version>
43012

> <i_f3d_flags>
0

> <s_epik_input>
bjFbY0hdbmMoW05IMl0pYyhjMTIpbltjSF1uMltDQEBIXTNPW0NAQEhdKFtDSDJdW09IXSlbQ0BIXShGKVtDQEhdM1tPSF0=

> <s_epik_cmdline>
J2VwaWtfcHl0aG9uJywgJy1waCcsICc3LjAnLCAnLXRuJywgJzgnLCAnLW1hJywgJzIwMCcsICctbWV0YWxfYmluZGluZycsICctaW1hZScsICc8aW5maWxlLm1hZT4nLCAnLW9tYWUnLCAnPG91dGZpbGUubWFlPic=

> <r_lp_tautomer_probability>
1

> <r_epik_Ionization_Penalty>
0.000750324

> <r_epik_Ionization_Penalty_Charging>
0

> <r_epik_Ionization_Penalty_Neutral>
0.000750324

> <r_epik_State_Penalty>
-0

> <r_epik_Charging_Adjusted_Penalty>
0

> <i_epik_Tot_Q>
0

> <i_epik_Tot_abs_Q>
0

> <r_epik_Metal_State_Penalty>
-0

> <b_epik_Metal_Only>
0

> <s_epik_Chemistry_Notes>
This compound contains an acetal/aminal-like group ( X-CH(R)-Y where X, Y are N, S, or O) that may be acid/base labile, releasing an aldehyde.

> <s_lp_Force_Field>
OPLS_2005

> <r_lp_Energy>
36.1234

> <b_lp_Chiralities_Consistent>
1

> <s_lp_Variant>
AV-unprocessed.smi:100-9

> <Gold.Version>
5.8.1

> <Gold.Id.Protein>
6NUR|6NUR_protein|mol2

> <Gold.PLP.Fitness>
45.5762

> <Gold.PLP.PLP>
-33.7149

> <Gold.PLP.part.hbond>
-5.1015

> <Gold.PLP.part.metal>
0.0000

> <Gold.PLP.part.buried>
-3.2953

> <Gold.PLP.part.nonpolar>
-24.7581

> <Gold.PLP.part.repulsive>
0.2332

> <Gold.PLP.ligand.clash>
0.0000

> <Gold.PLP.ligand.torsion>
0.0494

> <Gold.PLP.Chemscore.Hbond>
3.9760

> <Gold.PLP.Chemscore.CHOScore>
0.0000

> <Gold.PLP.Chemscore.Metal>
0.0000

> <Gold.Chemscore.Hbonds>
donor molecule, donor type, donor heavy atom, donor atom, acceptor molecule, acceptor atom, score
      L1  H     1    21       P1  7949  0.98
      P1  H  7989  7998       L1     8  1.00
      P1  H  7997  8009       L1    19  1.00
      P1  H 10752 10765       L1     3  1.00

> <Gold.PLP.Chemscore.Internal.Correction>
0.0321

> <Gold.Rescore>
     Score         DG    S(hbond)    S(metal)    S(lipo)     H(rot)  DE(clash)    DE(int)     intcor
     11.04     -12.63       3.01        0.00      44.98       3.19       0.49       1.10       ----

> <Gold.Chemscore.Fitness>
11.0386

> <Gold.Chemscore.DG>
-12.6273

> <Gold.Chemscore.ZeroCoef>
-5.4800

> <Gold.Chemscore.Hbond>
3.0095

> <Gold.Chemscore.Metal>
0.0000

> <Gold.Chemscore.Lipo>
44.9750

> <Gold.Chemscore.Internal_Hbond>
0.0000

> <Gold.Chemscore.DEClash>
0.4887

> <Gold.Chemscore.DEInternal>
1.1000

> <Gold.Chemscore.Rot>
3.1901

> <Gold.Chemscore.Internal.Correction>
   9.000000E+99

> <Gold.Chemscore.Hbonds>
donor molecule, donor type, donor heavy atom, donor atom, acceptor molecule, acceptor atom, score
      L1  H     1    21       P1  7949  0.80
      P1  H  7989  7998       L1     8  0.94
      P1  H  7997  8009       L1    19  0.25
      P1  H 10752 10765       L1     3  0.55

> <Gold.Chemscore.Hbond.Weighted>
-10.0518

> <Gold.Chemscore.Metal.Weighted>
-0.0000

> <Gold.Chemscore.Lipo.Weighted>
-5.2621

> <Gold.Chemscore.Internal_Hbond.Weighted>
0.0000

> <Gold.Chemscore.DEClash.Weighted>
0.4887

> <Gold.Chemscore.DEInternal.Weighted>
1.1000

> <Gold.Chemscore.Rot.Weighted>
8.1667

> <Gold.Chemscore.Internal.Correction.Weighted>
   9.000000E+99

> <Gold.Protein.RotatedTorsions>
[ 6907 6896 6895 6894 ] final  -76.23 input  -60.11 | X-H torsion
[ 7974 7965 7964 7962 ] final -134.71 input  175.53 | X-H torsion
[ 8008 7997 7996 7995 ] final  127.72 input   59.86 | X-H torsion
[ 10167 10162 10161 10158 ] final -176.33 input  -65.29 | X-H torsion
[ 10718 10713 10712 10709 ] final  132.19 input   66.30 | X-H torsion
[ 10763 10752 10751 10750 ] final -176.19 input  -60.55 | X-H torsion
[ 11005 11000 10999 10996 ] final  167.07 input  -57.11 | X-H torsion

> <Gold.Protein.ActiveResidues>
 VAL166  LYS551  ARG553  GLY616  TRP617  ASP618  TYR619  PRO620  LYS621  CYS622 
 ASP623  PHE694  ASN695  SER759  ASP760  ASP761  ALA762  ILE779  LEU786  VAL792 
 PHE793  MET794  SER795  GLU796  ALA797  LYS798  CYS799  TRP800  GLU811  SER814 

> <Gold.Protein.RotatedAtoms>
  150.7034  134.4603  159.5377 H   0  0  0  0  0  0  0  0  0  0  0  0  # atno 6907 bound_to 6896
  152.2279  134.8348  160.0486 H   0  0  0  0  0  0  0  0  0  0  0  0  # atno 6908 bound_to 6896
  151.9174  133.3542  159.3922 H   0  0  0  0  0  0  0  0  0  0  0  0  # atno 6909 bound_to 6896
  144.9079  140.6856  143.5044 H   0  0  0  0  0  0  0  0  0  0  0  0  # atno 7974 bound_to 7965
  156.2898  140.2662  156.2320 H   0  0  0  0  0  0  0  0  0  0  0  0  # atno 8008 bound_to 7997
  155.0063  140.0387  157.2399 H   0  0  0  0  0  0  0  0  0  0  0  0  # atno 8009 bound_to 7997
  154.7557  140.2751  155.6260 H   0  0  0  0  0  0  0  0  0  0  0  0  # atno 8010 bound_to 7997
  139.5535  144.2048  152.1119 H   0  0  0  0  0  0  0  0  0  0  0  0  # atno 10167 bound_to 10162
  157.4895  131.1090  150.9575 H   0  0  0  0  0  0  0  0  0  0  0  0  # atno 10718 bound_to 10713
  154.5753  135.2831  155.0787 H   0  0  0  0  0  0  0  0  0  0  0  0  # atno 10763 bound_to 10752
  154.2144  135.6402  153.5129 H   0  0  0  0  0  0  0  0  0  0  0  0  # atno 10764 bound_to 10752
  153.0070  135.5499  154.6389 H   0  0  0  0  0  0  0  0  0  0  0  0  # atno 10765 bound_to 10752
  140.2729  134.7812  157.3691 H   0  0  0  0  0  0  0  0  0  0  0  0  # atno 11005 bound_to 11000
  145.3505  139.1707  143.4437 LP  0  0  0  0  0  0  0  0  0  0  0  0  # atno 17320 bound_to 7965
  146.3143  140.3556  142.8660 LP  0  0  0  0  0  0  0  0  0  0  0  0  # atno 17321 bound_to 7965
  140.1548  144.5081  150.6666 LP  0  0  0  0  0  0  0  0  0  0  0  0  # atno 17342 bound_to 10162
  140.6803  143.2324  151.5401 LP  0  0  0  0  0  0  0  0  0  0  0  0  # atno 17343 bound_to 10162
  157.0281  130.5700  149.5339 LP  0  0  0  0  0  0  0  0  0  0  0  0  # atno 17370 bound_to 10713
  156.0165  130.5260  150.8151 LP  0  0  0  0  0  0  0  0  0  0  0  0  # atno 17371 bound_to 10713
  140.1356  134.5039  155.8071 LP  0  0  0  0  0  0  0  0  0  0  0  0  # atno 17394 bound_to 11000
  141.2174  133.6806  156.7117 LP  0  0  0  0  0  0  0  0  0  0  0  0  # atno 17395 bound_to 11000

$$$$
