AV-unprocessed.smi:91|AV-procd|sdf|833|dock10
  -GOLD-   2262017253D 1   1.00000     0.00000
 Structure written by MMmdl.
 60 63  0  0  0  0  0  0  0  0  1 V2000
  152.1025  137.4227  158.2786 C   0  0  0  0  0  0  0  0  0  0  0  0
  150.9133  136.7015  158.5476 O   0  0  0  0  0  0  0  0  0  0  0  0
  149.9503  137.4791  159.2417 C   0  0  0  0  0  0  0  0  0  0  0  0
  148.7343  136.6140  159.6008 C   0  0  2  0  0  0  0  0  0  0  0  0
  147.6563  136.6083  158.5021 C   0  0  0  0  0  0  0  0  0  0  0  0
  146.4956  135.8579  158.9565 N   0  0  0  0  0  0  0  0  0  0  0  0
  145.5727  135.6538  157.9935 C   0  0  0  0  0  0  0  0  0  0  0  0
  144.2627  135.5067  158.3240 N   0  0  0  0  0  0  0  0  0  0  0  0
  143.3537  135.3088  157.3642 C   0  0  0  0  0  0  0  0  0  0  0  0
  143.5368  135.2280  156.0442 N   0  0  0  0  0  0  0  0  0  0  0  0
  144.8515  135.3798  155.7135 C   0  0  0  0  0  0  0  0  0  0  0  0
  145.9260  135.5919  156.6211 C   0  0  0  0  0  0  0  0  0  0  0  0
  147.1254  135.6926  155.9289 N   0  0  0  0  0  0  0  0  0  0  0  0
  146.7792  135.5483  154.6785 C   0  0  0  0  0  0  0  0  0  0  0  0
  145.4321  135.3645  154.4571 N   0  0  0  0  0  0  0  0  0  0  0  0
  144.7742  135.1900  153.1733 C   0  0  0  0  0  0  0  0  0  0  0  0
  145.7773  134.8654  152.0327 C   0  0  2  0  0  0  0  0  0  0  0  0
  145.6898  135.9192  150.9054 C   0  0  0  0  0  0  0  0  0  0  0  0
  146.2112  137.1597  151.3325 O   0  0  0  0  0  0  0  0  0  0  0  0
  145.5615  133.4356  151.4725 C   0  0  2  0  0  0  0  0  0  0  0  0
  146.6187  132.9657  150.4879 C   0  0  0  0  0  0  0  0  0  0  0  0
  145.9180  131.8038  149.7949 C   0  0  0  0  0  0  0  0  0  0  0  0
  144.5467  132.1743  149.7344 O   0  0  0  0  0  0  0  0  0  0  0  0
  144.2979  133.2621  150.6197 C   0  0  0  0  0  0  0  0  0  0  0  0
  145.9509  136.3808  160.2027 C   0  0  0  0  0  0  0  0  0  0  0  0
  147.0287  136.3946  161.3100 C   0  0  0  0  0  0  0  0  0  0  0  0
  146.5276  137.2099  162.5117 C   0  0  0  0  0  0  0  0  0  0  0  0
  147.3914  134.9696  161.7800 C   0  0  0  0  0  0  0  0  0  0  0  0
  148.1878  137.0887  160.8329 O   0  0  0  0  0  0  0  0  0  0  0  0
  152.8064  136.7831  157.7464 H   0  0  0  0  0  0  0  0  0  0  0  0
  152.5802  137.7537  159.2017 H   0  0  0  0  0  0  0  0  0  0  0  0
  151.9023  138.2949  157.6550 H   0  0  0  0  0  0  0  0  0  0  0  0
  150.3945  137.8825  160.1532 H   0  0  0  0  0  0  0  0  0  0  0  0
  149.6366  138.3268  158.6303 H   0  0  0  0  0  0  0  0  0  0  0  0
  149.0963  135.5964  159.7472 H   0  0  0  0  0  0  0  0  0  0  0  0
  147.3546  137.6287  158.2613 H   0  0  0  0  0  0  0  0  0  0  0  0
  148.0534  136.1641  157.5882 H   0  0  0  0  0  0  0  0  0  0  0  0
  142.3334  135.2003  157.7017 H   0  0  0  0  0  0  0  0  0  0  0  0
  147.5056  135.5738  153.8804 H   0  0  0  0  0  0  0  0  0  0  0  0
  144.0208  134.4095  153.2797 H   0  0  0  0  0  0  0  0  0  0  0  0
  144.2103  136.0983  152.9574 H   0  0  0  0  0  0  0  0  0  0  0  0
  146.7933  134.9051  152.4310 H   0  0  0  0  0  0  0  0  0  0  0  0
  146.2681  135.6150  150.0338 H   0  0  0  0  0  0  0  0  0  0  0  0
  144.6593  136.0519  150.5743 H   0  0  0  0  0  0  0  0  0  0  0  0
  147.1546  137.1200  151.2942 H   0  0  0  0  0  0  0  0  0  0  0  0
  145.5207  132.7246  152.2996 H   0  0  0  0  0  0  0  0  0  0  0  0
  146.8430  133.7508  149.7643 H   0  0  0  0  0  0  0  0  0  0  0  0
  147.5504  132.6592  150.9633 H   0  0  0  0  0  0  0  0  0  0  0  0
  146.3230  131.6004  148.8035 H   0  0  0  0  0  0  0  0  0  0  0  0
  146.0071  130.8953  150.3917 H   0  0  0  0  0  0  0  0  0  0  0  0
  143.4111  133.0719  151.2246 H   0  0  0  0  0  0  0  0  0  0  0  0
  144.1103  134.1525  150.0180 H   0  0  0  0  0  0  0  0  0  0  0  0
  145.5855  137.3949  160.0312 H   0  0  0  0  0  0  0  0  0  0  0  0
  145.0934  135.7830  160.5152 H   0  0  0  0  0  0  0  0  0  0  0  0
  145.6251  136.7724  162.9397 H   0  0  0  0  0  0  0  0  0  0  0  0
  146.2934  138.2353  162.2237 H   0  0  0  0  0  0  0  0  0  0  0  0
  147.2803  137.2550  163.2995 H   0  0  0  0  0  0  0  0  0  0  0  0
  146.5361  134.4867  162.2536 H   0  0  0  0  0  0  0  0  0  0  0  0
  148.2026  134.9918  162.5083 H   0  0  0  0  0  0  0  0  0  0  0  0
  147.7023  134.3250  160.9583 H   0  0  0  0  0  0  0  0  0  0  0  0
  1  2  1  0  0  0  0
  1 30  1  0  0  0  0
  1 31  1  0  0  0  0
  1 32  1  0  0  0  0
  2  3  1  0  0  0  0
  3  4  1  0  0  0  0
  3 33  1  0  0  0  0
  3 34  1  0  0  0  0
  4 29  1  0  0  0  0
  4  5  1  0  0  0  0
  4 35  1  0  0  0  0
  5  6  1  0  0  0  0
  5 36  1  0  0  0  0
  5 37  1  0  0  0  0
  6  7  1  0  0  0  0
  6 25  1  0  0  0  0
  7 12  1  0  0  0  0
  7  8  2  0  0  0  0
  8  9  1  0  0  0  0
  9 10  2  0  0  0  0
  9 38  1  0  0  0  0
 10 11  1  0  0  0  0
 11 15  1  0  0  0  0
 11 12  2  0  0  0  0
 12 13  1  0  0  0  0
 13 14  2  0  0  0  0
 14 15  1  0  0  0  0
 14 39  1  0  0  0  0
 15 16  1  0  0  0  0
 16 17  1  0  0  0  0
 16 40  1  0  0  0  0
 16 41  1  0  0  0  0
 17 18  1  0  0  0  0
 17 20  1  0  0  0  0
 17 42  1  0  0  0  0
 18 19  1  0  0  0  0
 18 43  1  0  0  0  0
 18 44  1  0  0  0  0
 19 45  1  0  0  0  0
 20 24  1  0  0  0  0
 20 21  1  0  0  0  0
 20 46  1  0  0  0  0
 21 22  1  0  0  0  0
 21 47  1  0  0  0  0
 21 48  1  0  0  0  0
 22 23  1  0  0  0  0
 22 49  1  0  0  0  0
 22 50  1  0  0  0  0
 23 24  1  0  0  0  0
 24 51  1  0  0  0  0
 24 52  1  0  0  0  0
 25 26  1  0  0  0  0
 25 53  1  0  0  0  0
 25 54  1  0  0  0  0
 26 27  1  0  0  0  0
 26 28  1  0  0  0  0
 26 29  1  0  0  0  0
 27 55  1  0  0  0  0
 27 56  1  0  0  0  0
 27 57  1  0  0  0  0
 28 58  1  0  0  0  0
 28 59  1  0  0  0  0
 28 60  1  0  0  0  0
M  END
> <s_m_source_file>
AV-unprocessed.smi

> <i_m_source_file_index>
91

> <i_lp_mmshare_version>
43012

> <i_f3d_flags>
0

> <s_epik_input>
W0NIM11PW0NIMl1bQ0BASF0oTzEpW0NIMl1OKFtDSDJdQzEoW0NIM10pW0NIM10pYyhuW2NIXW4yKWMoYzIzKW5bY0hdbjNbQ0gyXVtDQEhdKFtDSDJdW09IXSlbQ0BASF00W0NIMl1bQ0gyXU9bQ0gyXTQ=

> <s_epik_cmdline>
J2VwaWtfcHl0aG9uJywgJy1waCcsICc3LjAnLCAnLXRuJywgJzgnLCAnLW1hJywgJzIwMCcsICctbWV0YWxfYmluZGluZycsICctaW1hZScsICc8aW5maWxlLm1hZT4nLCAnLW9tYWUnLCAnPG91dGZpbGUubWFlPic=

> <r_lp_tautomer_probability>
1

> <r_epik_Ionization_Penalty>
8.63591e-05

> <r_epik_Ionization_Penalty_Charging>
0

> <r_epik_Ionization_Penalty_Neutral>
8.63591e-05

> <r_epik_State_Penalty>
-0

> <r_epik_Charging_Adjusted_Penalty>
0

> <i_epik_Tot_Q>
0

> <i_epik_Tot_abs_Q>
0

> <r_epik_Metal_State_Penalty>
-0

> <b_epik_Metal_Only>
0

> <s_lp_Force_Field>
OPLS_2005

> <r_lp_Energy>
49.9364

> <b_lp_Chiralities_Consistent>
1

> <s_lp_Variant>
AV-unprocessed.smi:91-1

> <Gold.Version>
5.8.1

> <Gold.Id.Protein>
6NUR|6NUR_protein|mol2

> <Gold.PLP.Fitness>
48.3269

> <Gold.PLP.PLP>
-37.5609

> <Gold.PLP.part.hbond>
-4.6049

> <Gold.PLP.part.metal>
0.0000

> <Gold.PLP.part.buried>
-6.9615

> <Gold.PLP.part.nonpolar>
-26.9639

> <Gold.PLP.part.repulsive>
0.2603

> <Gold.PLP.ligand.clash>
0.0000

> <Gold.PLP.ligand.torsion>
2.1471

> <Gold.PLP.Chemscore.Hbond>
2.9066

> <Gold.PLP.Chemscore.CHOScore>
1.9973

> <Gold.PLP.Chemscore.Metal>
0.0000

> <Gold.Chemscore.Hbonds>
donor molecule, donor type, donor heavy atom, donor atom, acceptor molecule, acceptor atom, score
      L1  H    19    45       P1  7948  0.96
      P1  H  6896  6907       L1     2  0.76
      P1  H  6931  6943       L1    29  0.93
      P1  H  6934  6947       L1    29  0.28
      L1  C     9    38       P1 11000  1.00
      L1  C    14    39       P1  7948  0.92

> <Gold.PLP.Chemscore.Internal.Correction>
0.3486

> <Gold.Rescore>
     Score         DG    S(hbond)    S(metal)    S(lipo)     H(rot)  DE(clash)    DE(int)     intcor
     12.84     -16.95       2.70        0.00      87.08       3.03       0.08       4.03       ----

> <Gold.Chemscore.Fitness>
12.8374

> <Gold.Chemscore.DG>
-16.9481

> <Gold.Chemscore.ZeroCoef>
-5.4800

> <Gold.Chemscore.Hbond>
2.7043

> <Gold.Chemscore.Metal>
0.0000

> <Gold.Chemscore.Lipo>
87.0818

> <Gold.Chemscore.Internal_Hbond>
0.0000

> <Gold.Chemscore.DEClash>
0.0830

> <Gold.Chemscore.DEInternal>
4.0277

> <Gold.Chemscore.Rot>
3.0284

> <Gold.Chemscore.Internal.Correction>
   9.000000E+99

> <Gold.Chemscore.Hbonds>
donor molecule, donor type, donor heavy atom, donor atom, acceptor molecule, acceptor atom, score
      L1  H    19    45       P1  7948  0.87
      P1  H  6896  6907       L1     2  0.21
      P1  H  6931  6943       L1    29  0.88
      P1  H  6934  6947       L1    29  0.02

> <Gold.Chemscore.Hbond.Weighted>
-9.0324

> <Gold.Chemscore.Metal.Weighted>
-0.0000

> <Gold.Chemscore.Lipo.Weighted>
-10.1886

> <Gold.Chemscore.Internal_Hbond.Weighted>
0.0000

> <Gold.Chemscore.DEClash.Weighted>
0.0830

> <Gold.Chemscore.DEInternal.Weighted>
4.0277

> <Gold.Chemscore.Rot.Weighted>
7.7528

> <Gold.Chemscore.Internal.Correction.Weighted>
   9.000000E+99

> <Gold.Protein.RotatedTorsions>
[ 6907 6896 6895 6894 ] final  -35.02 input  -60.11 | X-H torsion
[ 7974 7965 7964 7962 ] final   49.05 input  175.53 | X-H torsion
[ 8008 7997 7996 7995 ] final  -50.68 input   59.86 | X-H torsion
[ 10167 10162 10161 10158 ] final   16.97 input  -65.29 | X-H torsion
[ 10718 10713 10712 10709 ] final   33.22 input   66.30 | X-H torsion
[ 10763 10752 10751 10750 ] final  -53.22 input  -60.55 | X-H torsion
[ 11005 11000 10999 10996 ] final   11.11 input  -57.11 | X-H torsion

> <Gold.Protein.ActiveResidues>
 VAL166  LYS551  ARG553  GLY616  TRP617  ASP618  TYR619  PRO620  LYS621  CYS622 
 ASP623  PHE694  ASN695  SER759  ASP760  ASP761  ALA762  ILE779  LEU786  VAL792 
 PHE793  MET794  SER795  GLU796  ALA797  LYS798  CYS799  TRP800  GLU811  SER814 

> <Gold.Protein.RotatedAtoms>
  151.0452  134.9635  159.8182 H   0  0  0  0  0  0  0  0  0  0  0  0  # atno 6907 bound_to 6896
  152.5371  134.2608  159.8944 H   0  0  0  0  0  0  0  0  0  0  0  0  # atno 6908 bound_to 6896
  151.2621  133.4254  159.2650 H   0  0  0  0  0  0  0  0  0  0  0  0  # atno 6909 bound_to 6896
  146.0146  139.4582  142.9935 H   0  0  0  0  0  0  0  0  0  0  0  0  # atno 7974 bound_to 7965
  154.4067  140.1266  156.4705 H   0  0  0  0  0  0  0  0  0  0  0  0  # atno 8008 bound_to 7997
  155.7183  140.3493  155.4985 H   0  0  0  0  0  0  0  0  0  0  0  0  # atno 8009 bound_to 7997
  155.9237  140.1057  157.1177 H   0  0  0  0  0  0  0  0  0  0  0  0  # atno 8010 bound_to 7997
  140.5759  143.9073  150.6750 H   0  0  0  0  0  0  0  0  0  0  0  0  # atno 10167 bound_to 10162
  157.2951  130.7322  149.6634 H   0  0  0  0  0  0  0  0  0  0  0  0  # atno 10718 bound_to 10713
  154.1554  135.6483  153.4973 H   0  0  0  0  0  0  0  0  0  0  0  0  # atno 10763 bound_to 10752
  153.0126  135.5348  154.6765 H   0  0  0  0  0  0  0  0  0  0  0  0  # atno 10764 bound_to 10752
  154.6065  135.2949  155.0451 H   0  0  0  0  0  0  0  0  0  0  0  0  # atno 10765 bound_to 10752
  140.5070  134.0690  155.7808 H   0  0  0  0  0  0  0  0  0  0  0  0  # atno 11005 bound_to 11000
  145.7289  141.0049  143.1362 LP  0  0  0  0  0  0  0  0  0  0  0  0  # atno 17320 bound_to 7965
  144.6966  139.8960  143.7456 LP  0  0  0  0  0  0  0  0  0  0  0  0  # atno 17321 bound_to 7965
  140.2560  143.3558  152.1365 LP  0  0  0  0  0  0  0  0  0  0  0  0  # atno 17342 bound_to 10162
  139.5143  144.6945  151.5668 LP  0  0  0  0  0  0  0  0  0  0  0  0  # atno 17343 bound_to 10162
  155.9669  130.4297  150.4843 LP  0  0  0  0  0  0  0  0  0  0  0  0  # atno 17370 bound_to 10713
  157.2813  131.0607  151.2195 LP  0  0  0  0  0  0  0  0  0  0  0  0  # atno 17371 bound_to 10713
  141.1406  133.9145  157.2335 LP  0  0  0  0  0  0  0  0  0  0  0  0  # atno 17394 bound_to 11000
  139.9681  135.0136  156.9439 LP  0  0  0  0  0  0  0  0  0  0  0  0  # atno 17395 bound_to 11000

$$$$
