AV-unprocessed.smi:1554|AV-procd|sdf|6254|dock2
  -GOLD-   22720 6433D 1   1.00000     0.00000
 Structure written by MMmdl.
 48 50  0  0  0  0  0  0  0  0  2 V2000
  152.3538  143.8033  161.1223 C   0  0  0  0  0  0  0  0  0  0  0  0
  152.0895  142.9504  159.8931 C   0  0  0  0  0  0  0  0  0  0  0  0
  151.1888  143.4343  158.9178 C   0  0  0  0  0  0  0  0  0  0  0  0
  150.9669  142.6313  157.8052 C   0  0  0  0  0  0  0  0  0  0  0  0
  150.1501  142.8226  156.6889 N   0  3  0  0  0  0  0  0  0  0  0  0
  150.2601  141.7509  155.8563 C   0  0  0  0  0  0  0  0  0  0  0  0
  151.1352  140.8775  156.4243 N   0  0  0  0  0  0  0  0  0  0  0  0
  151.5965  139.5688  155.9387 C   0  0  0  0  0  0  0  0  0  0  0  0
  150.5946  138.9053  154.9711 C   0  0  2  0  0  0  0  0  0  0  0  0
  150.5589  139.6269  153.7565 O   0  0  0  0  0  0  0  0  0  0  0  0
  149.1600  138.8675  155.5342 C   0  0  0  0  0  0  0  0  0  0  0  0
  148.8784  137.7810  156.4730 N   0  0  0  0  0  0  0  0  0  0  0  0
  149.3318  138.0773  157.8301 C   0  0  0  0  0  0  0  0  0  0  0  0
  149.0576  136.9107  158.7943 C   0  0  0  0  0  0  0  0  0  0  0  0
  149.6679  135.7242  158.2981 O   0  0  0  0  0  0  0  0  0  0  0  0
  149.2148  135.3697  156.9947 C   0  0  2  0  0  0  0  0  0  0  0  0
  149.9281  134.0818  156.5705 C   0  0  0  0  0  0  0  0  0  0  0  0
  149.4992  136.5370  156.0297 C   0  0  0  0  0  0  0  0  0  0  0  0
  151.6046  141.3859  157.6417 C   0  0  0  0  0  0  0  0  0  0  0  0
  152.4954  140.8951  158.5937 C   0  0  0  0  0  0  0  0  0  0  0  0
  152.7357  141.6974  159.7320 C   0  0  0  0  0  0  0  0  0  0  0  0
  153.7037  141.1875  160.7861 C   0  0  0  0  0  0  0  0  0  0  0  0
  151.7424  144.7062  161.1206 H   0  0  0  0  0  0  0  0  0  0  0  0
  153.3998  144.1086  161.1572 H   0  0  0  0  0  0  0  0  0  0  0  0
  152.1235  143.2491  162.0324 H   0  0  0  0  0  0  0  0  0  0  0  0
  150.6933  144.3871  159.0336 H   0  0  0  0  0  0  0  0  0  0  0  0
  149.7452  141.6167  154.9158 H   0  0  0  0  0  0  0  0  0  0  0  0
  152.5462  139.7395  155.4301 H   0  0  0  0  0  0  0  0  0  0  0  0
  151.8196  138.9233  156.7882 H   0  0  0  0  0  0  0  0  0  0  0  0
  150.9336  137.8990  154.7269 H   0  0  0  0  0  0  0  0  0  0  0  0
  150.1747  139.0765  153.0916 H   0  0  0  0  0  0  0  0  0  0  0  0
  148.9707  139.8212  156.0295 H   0  0  0  0  0  0  0  0  0  0  0  0
  148.4494  138.8178  154.7072 H   0  0  0  0  0  0  0  0  0  0  0  0
  150.4006  138.2967  157.8241 H   0  0  0  0  0  0  0  0  0  0  0  0
  148.8315  138.9659  158.2130 H   0  0  0  0  0  0  0  0  0  0  0  0
  149.4615  137.1321  159.7823 H   0  0  0  0  0  0  0  0  0  0  0  0
  147.9845  136.7534  158.9142 H   0  0  0  0  0  0  0  0  0  0  0  0
  148.1405  135.1798  157.0325 H   0  0  0  0  0  0  0  0  0  0  0  0
  149.6065  133.7630  155.5787 H   0  0  0  0  0  0  0  0  0  0  0  0
  149.7130  133.2704  157.2661 H   0  0  0  0  0  0  0  0  0  0  0  0
  151.0093  134.2205  156.5440 H   0  0  0  0  0  0  0  0  0  0  0  0
  149.1338  136.2776  155.0354 H   0  0  0  0  0  0  0  0  0  0  0  0
  150.5778  136.6763  155.9377 H   0  0  0  0  0  0  0  0  0  0  0  0
  152.9841  139.9396  158.4761 H   0  0  0  0  0  0  0  0  0  0  0  0
  154.1409  140.2311  160.4973 H   0  0  0  0  0  0  0  0  0  0  0  0
  153.1919  141.0459  161.7383 H   0  0  0  0  0  0  0  0  0  0  0  0
  154.5203  141.8949  160.9321 H   0  0  0  0  0  0  0  0  0  0  0  0
  149.5590  143.6237  156.5070 H   0  0  0  0  0  0  0  0  0  0  0  0
  1  2  1  0  0  0  0
  1 23  1  0  0  0  0
  1 24  1  0  0  0  0
  1 25  1  0  0  0  0
  2 21  1  0  0  0  0
  2  3  2  0  0  0  0
  3  4  1  0  0  0  0
  3 26  1  0  0  0  0
  4 19  2  0  0  0  0
  4  5  1  0  0  0  0
  5  6  2  0  0  0  0
  5 48  1  0  0  0  0
  6  7  1  0  0  0  0
  6 27  1  0  0  0  0
  7  8  1  0  0  0  0
  7 19  1  0  0  0  0
  8  9  1  0  0  0  0
  8 28  1  0  0  0  0
  8 29  1  0  0  0  0
  9 10  1  0  0  0  0
  9 11  1  0  0  0  0
  9 30  1  0  0  0  0
 10 31  1  0  0  0  0
 11 12  1  0  0  0  0
 11 32  1  0  0  0  0
 11 33  1  0  0  0  0
 12 18  1  0  0  0  0
 12 13  1  0  0  0  0
 13 14  1  0  0  0  0
 13 34  1  0  0  0  0
 13 35  1  0  0  0  0
 14 15  1  0  0  0  0
 14 36  1  0  0  0  0
 14 37  1  0  0  0  0
 15 16  1  0  0  0  0
 16 17  1  0  0  0  0
 16 18  1  0  0  0  0
 16 38  1  0  0  0  0
 17 39  1  0  0  0  0
 17 40  1  0  0  0  0
 17 41  1  0  0  0  0
 18 42  1  0  0  0  0
 18 43  1  0  0  0  0
 19 20  1  0  0  0  0
 20 21  2  0  0  0  0
 20 44  1  0  0  0  0
 21 22  1  0  0  0  0
 22 45  1  0  0  0  0
 22 46  1  0  0  0  0
 22 47  1  0  0  0  0
M  CHG  1   5   1
M  END
> <s_m_source_file>
AV-unprocessed.smi

> <i_m_source_file_index>
1554

> <i_lp_mmshare_version>
43012

> <i_f3d_flags>
0

> <s_epik_input>
W0NIM11jKFtjSF0xKWMoW0NIM10pW2NIXWMoYzEyKW4oW2NIXW4yKVtDSDJdW0NASF0oW09IXSlbQ0gyXU4zW0NIMl1bQ0gyXU9bQ0BASF0oW0NIM10pW0NIMl0z

> <s_epik_cmdline>
J2VwaWtfcHl0aG9uJywgJy1waCcsICc3LjAnLCAnLXRuJywgJzgnLCAnLW1hJywgJzIwMCcsICctbWV0YWxfYmluZGluZycsICctaW1hZScsICc8aW5maWxlLm1hZT4nLCAnLW9tYWUnLCAnPG91dGZpbGUubWFlPic=

> <r_epik_Ionization_Penalty>
1.42504

> <r_epik_Ionization_Penalty_Charging>
1.21068

> <r_epik_Ionization_Penalty_Neutral>
0.214359

> <r_epik_State_Penalty>
1.46962

> <r_epik_Charging_Adjusted_Penalty>
2.6803

> <i_epik_Tot_Q>
1

> <i_epik_Tot_abs_Q>
1

> <r_epik_Metal_State_Penalty>
5.48754

> <b_epik_Metal_Only>
0

> <s_lp_Force_Field>
OPLS_2005

> <r_lp_Energy>
32.4448

> <b_lp_Chiralities_Consistent>
1

> <s_lp_Variant>
AV-unprocessed.smi:1554-15

> <Gold.Version>
5.8.1

> <Gold.Id.Protein>
6NUR|6NUR_protein|mol2

> <Gold.PLP.Fitness>
51.6150

> <Gold.PLP.PLP>
-40.7490

> <Gold.PLP.part.hbond>
-4.0000

> <Gold.PLP.part.metal>
0.0000

> <Gold.PLP.part.buried>
-4.2941

> <Gold.PLP.part.nonpolar>
-32.4525

> <Gold.PLP.part.repulsive>
0.0371

> <Gold.PLP.ligand.clash>
0.0000

> <Gold.PLP.ligand.torsion>
0.8043

> <Gold.PLP.Chemscore.Hbond>
4.1404

> <Gold.PLP.Chemscore.CHOScore>
0.0000

> <Gold.PLP.Chemscore.Metal>
0.0000

> <Gold.Chemscore.Hbonds>
donor molecule, donor type, donor heavy atom, donor atom, acceptor molecule, acceptor atom, score
      L1  H     5    48       P1  8028  2.00
      L1  H    10    31       P1  7957  0.19
      P1  H  6896  6907       L1    15  1.00
      P1  H  7989  7998       L1    10  1.00

> <Gold.PLP.Chemscore.Internal.Correction>
0.0533

> <Gold.Rescore>
     Score         DG    S(hbond)    S(metal)    S(lipo)     H(rot)  DE(clash)    DE(int)     intcor
     19.63     -21.83       2.77        0.00     105.52       2.04       0.05       2.16       ----

> <Gold.Chemscore.Fitness>
19.6330

> <Gold.Chemscore.DG>
-21.8337

> <Gold.Chemscore.ZeroCoef>
-5.4800

> <Gold.Chemscore.Hbond>
2.7656

> <Gold.Chemscore.Metal>
0.0000

> <Gold.Chemscore.Lipo>
105.5228

> <Gold.Chemscore.Internal_Hbond>
0.0000

> <Gold.Chemscore.DEClash>
0.0455

> <Gold.Chemscore.DEInternal>
2.1553

> <Gold.Chemscore.Rot>
2.0427

> <Gold.Chemscore.Internal.Correction>
   9.000000E+99

> <Gold.Chemscore.Hbonds>
donor molecule, donor type, donor heavy atom, donor atom, acceptor molecule, acceptor atom, score
      L1  H     5    48       P1  8028  0.92
      L1  H    10    31       P1  7957  0.17
      P1  H  6896  6907       L1    15  0.94
      P1  H  7989  7998       L1    10  0.92

> <Gold.Chemscore.Hbond.Weighted>
-9.2370

> <Gold.Chemscore.Metal.Weighted>
-0.0000

> <Gold.Chemscore.Lipo.Weighted>
-12.3462

> <Gold.Chemscore.Internal_Hbond.Weighted>
0.0000

> <Gold.Chemscore.DEClash.Weighted>
0.0455

> <Gold.Chemscore.DEInternal.Weighted>
2.1553

> <Gold.Chemscore.Rot.Weighted>
5.2294

> <Gold.Chemscore.Internal.Correction.Weighted>
   9.000000E+99

> <Gold.Protein.RotatedTorsions>
[ 6907 6896 6895 6894 ] final  -73.98 input  -60.11 | X-H torsion
[ 7974 7965 7964 7962 ] final -148.27 input  175.53 | X-H torsion
[ 8008 7997 7996 7995 ] final  -22.84 input   59.86 | X-H torsion
[ 10167 10162 10161 10158 ] final -106.31 input  -65.29 | X-H torsion
[ 10718 10713 10712 10709 ] final   63.51 input   66.30 | X-H torsion
[ 10763 10752 10751 10750 ] final   36.40 input  -60.55 | X-H torsion
[ 11005 11000 10999 10996 ] final  -37.87 input  -57.11 | X-H torsion

> <Gold.Protein.ActiveResidues>
 VAL166  LYS551  ARG553  GLY616  TRP617  ASP618  TYR619  PRO620  LYS621  CYS622 
 ASP623  PHE694  ASN695  SER759  ASP760  ASP761  ALA762  ILE779  LEU786  VAL792 
 PHE793  MET794  SER795  GLU796  ALA797  LYS798  CYS799  TRP800  GLU811  SER814 

> <Gold.Protein.RotatedAtoms>
  150.7110  134.4937  159.5527 H   0  0  0  0  0  0  0  0  0  0  0  0  # atno 6907 bound_to 6896
  152.2549  134.8092  160.0449 H   0  0  0  0  0  0  0  0  0  0  0  0  # atno 6908 bound_to 6896
  151.8826  133.3463  159.3808 H   0  0  0  0  0  0  0  0  0  0  0  0  # atno 6909 bound_to 6896
  144.8040  140.5218  143.5688 H   0  0  0  0  0  0  0  0  0  0  0  0  # atno 7974 bound_to 7965
  154.4620  140.1997  156.0219 H   0  0  0  0  0  0  0  0  0  0  0  0  # atno 8008 bound_to 7997
  156.0857  140.3265  155.7722 H   0  0  0  0  0  0  0  0  0  0  0  0  # atno 8009 bound_to 7997
  155.5038  140.0556  157.2925 H   0  0  0  0  0  0  0  0  0  0  0  0  # atno 8010 bound_to 7997
  140.1891  143.3906  152.1221 H   0  0  0  0  0  0  0  0  0  0  0  0  # atno 10167 bound_to 10162
  157.5976  130.9109  149.9726 H   0  0  0  0  0  0  0  0  0  0  0  0  # atno 10718 bound_to 10713
  153.0078  135.6307  154.1979 H   0  0  0  0  0  0  0  0  0  0  0  0  # atno 10763 bound_to 10752
  154.1722  135.2817  155.3079 H   0  0  0  0  0  0  0  0  0  0  0  0  # atno 10764 bound_to 10752
  154.5899  135.5621  153.7328 H   0  0  0  0  0  0  0  0  0  0  0  0  # atno 10765 bound_to 10752
  140.9984  133.6968  156.1977 H   0  0  0  0  0  0  0  0  0  0  0  0  # atno 11005 bound_to 11000
  145.5484  139.1476  143.3408 LP  0  0  0  0  0  0  0  0  0  0  0  0  # atno 17320 bound_to 7965
  146.2327  140.5622  142.8968 LP  0  0  0  0  0  0  0  0  0  0  0  0  # atno 17321 bound_to 7965
  139.5263  144.7106  151.5216 LP  0  0  0  0  0  0  0  0  0  0  0  0  # atno 17342 bound_to 10162
  140.6468  143.8778  150.6745 LP  0  0  0  0  0  0  0  0  0  0  0  0  # atno 17343 bound_to 10162
  156.1042  130.3654  150.0163 LP  0  0  0  0  0  0  0  0  0  0  0  0  # atno 17370 bound_to 10713
  156.8273  130.9380  151.3639 LP  0  0  0  0  0  0  0  0  0  0  0  0  # atno 17371 bound_to 10713
  140.6928  134.4647  157.5588 LP  0  0  0  0  0  0  0  0  0  0  0  0  # atno 17394 bound_to 11000
  139.9026  134.8520  156.1832 LP  0  0  0  0  0  0  0  0  0  0  0  0  # atno 17395 bound_to 11000

$$$$
