AV-unprocessed.smi:2378|AV-procd|sdf|9449|dock3
  -GOLD-   2272013 83D 1   1.00000     0.00000
 Structure written by MMmdl.
 40 41  0  0  0  0  0  0  0  0  1 V2000
  152.2114  143.6423  161.6472 C   0  0  0  0  0  0  0  0  0  0  0  0
  152.8066  142.4673  160.9000 C   0  0  0  0  0  0  0  0  0  0  0  0
  153.9109  141.7641  161.4178 C   0  0  0  0  0  0  0  0  0  0  0  0
  154.4177  140.6830  160.6732 C   0  0  0  0  0  0  0  0  0  0  0  0
  153.8969  140.2904  159.4917 N   0  0  0  0  0  0  0  0  0  0  0  0
  152.8323  140.9596  158.9828 C   0  0  0  0  0  0  0  0  0  0  0  0
  152.2054  140.6266  157.7523 N   0  0  0  0  0  0  0  0  0  0  0  0
  152.5262  139.6419  156.8944 C   0  0  0  0  0  0  0  0  0  0  0  0
  153.4630  138.8541  157.0307 O   0  0  0  0  0  0  0  0  0  0  0  0
  151.6897  139.6206  155.8465 N   0  0  0  0  0  0  0  0  0  0  0  0
  151.7619  138.6795  154.7347 C   0  0  0  0  0  0  0  0  0  0  0  0
  150.3647  138.1876  154.3199 C   0  0  0  0  0  0  0  0  0  0  0  0
  149.2594  139.2166  154.6048 C   0  0  2  0  0  0  0  0  0  0  0  0
  148.0039  138.9658  153.7468 C   0  0  0  0  0  0  0  0  0  0  0  0
  146.9515  140.0511  154.0013 C   0  0  0  0  0  0  0  0  0  0  0  0
  147.5782  141.4356  153.8072 C   0  0  0  0  0  0  0  0  0  0  0  0
  148.8569  141.5654  154.6499 C   0  0  0  0  0  0  0  0  0  0  0  0
  149.7649  140.5196  154.3174 O   0  0  0  0  0  0  0  0  0  0  0  0
  152.2618  142.0570  159.6665 C   0  0  0  0  0  0  0  0  0  0  0  0
  152.7058  143.7934  162.6073 H   0  0  0  0  0  0  0  0  0  0  0  0
  151.1502  143.4742  161.8330 H   0  0  0  0  0  0  0  0  0  0  0  0
  152.3179  144.5551  161.0606 H   0  0  0  0  0  0  0  0  0  0  0  0
  154.3612  142.0416  162.3596 H   0  0  0  0  0  0  0  0  0  0  0  0
  155.2633  140.1177  161.0358 H   0  0  0  0  0  0  0  0  0  0  0  0
  151.4160  141.2017  157.4988 H   0  0  0  0  0  0  0  0  0  0  0  0
  150.9478  140.3046  155.8142 H   0  0  0  0  0  0  0  0  0  0  0  0
  152.2750  139.1357  153.8864 H   0  0  0  0  0  0  0  0  0  0  0  0
  152.3763  137.8362  155.0508 H   0  0  0  0  0  0  0  0  0  0  0  0
  150.3630  137.9326  153.2593 H   0  0  0  0  0  0  0  0  0  0  0  0
  150.1373  137.2660  154.8574 H   0  0  0  0  0  0  0  0  0  0  0  0
  148.9917  139.1601  155.6614 H   0  0  0  0  0  0  0  0  0  0  0  0
  148.2748  138.9623  152.6901 H   0  0  0  0  0  0  0  0  0  0  0  0
  147.5850  137.9830  153.9652 H   0  0  0  0  0  0  0  0  0  0  0  0
  146.0999  139.9210  153.3329 H   0  0  0  0  0  0  0  0  0  0  0  0
  146.5698  139.9602  155.0189 H   0  0  0  0  0  0  0  0  0  0  0  0
  147.8205  141.5845  152.7543 H   0  0  0  0  0  0  0  0  0  0  0  0
  146.8653  142.2148  154.0784 H   0  0  0  0  0  0  0  0  0  0  0  0
  149.3376  142.5244  154.4559 H   0  0  0  0  0  0  0  0  0  0  0  0
  148.6259  141.5352  155.7157 H   0  0  0  0  0  0  0  0  0  0  0  0
  151.4136  142.5818  159.2506 H   0  0  0  0  0  0  0  0  0  0  0  0
  1  2  1  0  0  0  0
  1 20  1  0  0  0  0
  1 21  1  0  0  0  0
  1 22  1  0  0  0  0
  2 19  1  0  0  0  0
  2  3  2  0  0  0  0
  3  4  1  0  0  0  0
  3 23  1  0  0  0  0
  4  5  2  0  0  0  0
  4 24  1  0  0  0  0
  5  6  1  0  0  0  0
  6  7  1  0  0  0  0
  6 19  2  0  0  0  0
  7  8  1  0  0  0  0
  7 25  1  0  0  0  0
  8  9  2  0  0  0  0
  8 10  1  0  0  0  0
 10 11  1  0  0  0  0
 10 26  1  0  0  0  0
 11 12  1  0  0  0  0
 11 27  1  0  0  0  0
 11 28  1  0  0  0  0
 12 13  1  0  0  0  0
 12 29  1  0  0  0  0
 12 30  1  0  0  0  0
 13 18  1  0  0  0  0
 13 14  1  0  0  0  0
 13 31  1  0  0  0  0
 14 15  1  0  0  0  0
 14 32  1  0  0  0  0
 14 33  1  0  0  0  0
 15 16  1  0  0  0  0
 15 34  1  0  0  0  0
 15 35  1  0  0  0  0
 16 17  1  0  0  0  0
 16 36  1  0  0  0  0
 16 37  1  0  0  0  0
 17 18  1  0  0  0  0
 17 38  1  0  0  0  0
 17 39  1  0  0  0  0
 19 40  1  0  0  0  0
M  END
> <s_m_source_file>
AV-unprocessed.smi

> <i_m_source_file_index>
2378

> <i_lp_mmshare_version>
43012

> <i_f3d_flags>
0

> <s_epik_input>
W0NIM11jMVtjSF1bY0hdbmMoW2NIXTEpW05IXUMoPU8pW05IXVtDSDJdW0NIMl1bQ0BASF0yW0NIMl1bQ0gyXVtDSDJdW0NIMl1PMg==

> <s_epik_cmdline>
J2VwaWtfcHl0aG9uJywgJy1waCcsICc3LjAnLCAnLXRuJywgJzgnLCAnLW1hJywgJzIwMCcsICctbWV0YWxfYmluZGluZycsICctaW1hZScsICc8aW5maWxlLm1hZT4nLCAnLW9tYWUnLCAnPG91dGZpbGUubWFlPic=

> <r_lp_tautomer_probability>
1

> <r_epik_Ionization_Penalty>
8.60919e-05

> <r_epik_Ionization_Penalty_Charging>
0

> <r_epik_Ionization_Penalty_Neutral>
8.60919e-05

> <r_epik_State_Penalty>
-0

> <r_epik_Charging_Adjusted_Penalty>
0

> <i_epik_Tot_Q>
0

> <i_epik_Tot_abs_Q>
0

> <r_epik_Metal_State_Penalty>
-0

> <b_epik_Metal_Only>
0

> <s_lp_Force_Field>
OPLS_2005

> <r_lp_Energy>
11.3516

> <b_lp_Chiralities_Consistent>
1

> <s_lp_Variant>
AV-unprocessed.smi:2378-1

> <Gold.Version>
5.8.1

> <Gold.Id.Protein>
6NUR|6NUR_protein|mol2

> <Gold.PLP.Fitness>
42.7780

> <Gold.PLP.PLP>
-39.7181

> <Gold.PLP.part.hbond>
-2.0000

> <Gold.PLP.part.metal>
0.0000

> <Gold.PLP.part.buried>
-3.3334

> <Gold.PLP.part.nonpolar>
-35.2576

> <Gold.PLP.part.repulsive>
0.3557

> <Gold.PLP.ligand.clash>
0.0000

> <Gold.PLP.ligand.torsion>
0.5441

> <Gold.PLP.Chemscore.Hbond>
1.3792

> <Gold.PLP.Chemscore.CHOScore>
0.0000

> <Gold.PLP.Chemscore.Metal>
0.0000

> <Gold.Chemscore.Hbonds>
donor molecule, donor type, donor heavy atom, donor atom, acceptor molecule, acceptor atom, score
      P1  H  7989  7998       L1    18  0.71
      P1  H  7997  8009       L1     9  0.61

> <Gold.PLP.Chemscore.Internal.Correction>
0.0105

> <Gold.Rescore>
     Score         DG    S(hbond)    S(metal)    S(lipo)     H(rot)  DE(clash)    DE(int)     intcor
     13.03     -16.73       0.94        0.00     100.56       1.42       0.47       3.24       ----

> <Gold.Chemscore.Fitness>
13.0310

> <Gold.Chemscore.DG>
-16.7349

> <Gold.Chemscore.ZeroCoef>
-5.4800

> <Gold.Chemscore.Hbond>
0.9393

> <Gold.Chemscore.Metal>
0.0000

> <Gold.Chemscore.Lipo>
100.5586

> <Gold.Chemscore.Internal_Hbond>
0.0000

> <Gold.Chemscore.DEClash>
0.4680

> <Gold.Chemscore.DEInternal>
3.2360

> <Gold.Chemscore.Rot>
1.4248

> <Gold.Chemscore.Internal.Correction>
   9.000000E+99

> <Gold.Chemscore.Hbonds>
donor molecule, donor type, donor heavy atom, donor atom, acceptor molecule, acceptor atom, score
      P1  H  7989  7998       L1    18  0.67
      P1  H  7997  8009       L1     9  0.09

> <Gold.Chemscore.Hbond.Weighted>
-3.1372

> <Gold.Chemscore.Metal.Weighted>
-0.0000

> <Gold.Chemscore.Lipo.Weighted>
-11.7654

> <Gold.Chemscore.Internal_Hbond.Weighted>
0.0000

> <Gold.Chemscore.DEClash.Weighted>
0.4680

> <Gold.Chemscore.DEInternal.Weighted>
3.2360

> <Gold.Chemscore.Rot.Weighted>
3.6476

> <Gold.Chemscore.Internal.Correction.Weighted>
   9.000000E+99

> <Gold.Protein.RotatedTorsions>
[ 6907 6896 6895 6894 ] final   88.33 input  -60.11 | X-H torsion
[ 7974 7965 7964 7962 ] final   83.51 input  175.53 | X-H torsion
[ 8008 7997 7996 7995 ] final  148.06 input   59.86 | X-H torsion
[ 10167 10162 10161 10158 ] final   69.96 input  -65.29 | X-H torsion
[ 10718 10713 10712 10709 ] final   -3.26 input   66.30 | X-H torsion
[ 10763 10752 10751 10750 ] final -158.45 input  -60.55 | X-H torsion
[ 11005 11000 10999 10996 ] final -120.00 input  -57.11 | X-H torsion

> <Gold.Protein.ActiveResidues>
 VAL166  LYS551  ARG553  GLY616  TRP617  ASP618  TYR619  PRO620  LYS621  CYS622 
 ASP623  PHE694  ASN695  SER759  ASP760  ASP761  ALA762  ILE779  LEU786  VAL792 
 PHE793  MET794  SER795  GLU796  ALA797  LYS798  CYS799  TRP800  GLU811  SER814 

> <Gold.Protein.RotatedAtoms>
  152.5423  134.2139  159.8760 H   0  0  0  0  0  0  0  0  0  0  0  0  # atno 6907 bound_to 6896
  151.2120  133.4544  159.2606 H   0  0  0  0  0  0  0  0  0  0  0  0  # atno 6908 bound_to 6896
  151.0888  134.9916  159.8448 H   0  0  0  0  0  0  0  0  0  0  0  0  # atno 6909 bound_to 6896
  145.6110  139.2368  143.2192 H   0  0  0  0  0  0  0  0  0  0  0  0  # atno 7974 bound_to 7965
  156.2804  140.2139  156.5637 H   0  0  0  0  0  0  0  0  0  0  0  0  # atno 8008 bound_to 7997
  154.7192  140.0505  157.0646 H   0  0  0  0  0  0  0  0  0  0  0  0  # atno 8009 bound_to 7997
  155.0502  140.3155  155.4698 H   0  0  0  0  0  0  0  0  0  0  0  0  # atno 8010 bound_to 7997
  140.0621  144.5224  150.7287 H   0  0  0  0  0  0  0  0  0  0  0  0  # atno 10167 bound_to 10162
  156.7787  130.5323  149.5754 H   0  0  0  0  0  0  0  0  0  0  0  0  # atno 10718 bound_to 10713
  154.7555  135.3103  154.8477 H   0  0  0  0  0  0  0  0  0  0  0  0  # atno 10763 bound_to 10752
  153.9252  135.6791  153.4751 H   0  0  0  0  0  0  0  0  0  0  0  0  # atno 10764 bound_to 10752
  153.1153  135.4847  154.9034 H   0  0  0  0  0  0  0  0  0  0  0  0  # atno 10765 bound_to 10752
  141.0175  134.0173  157.3329 H   0  0  0  0  0  0  0  0  0  0  0  0  # atno 11005 bound_to 11000
  146.1504  140.6933  142.9324 LP  0  0  0  0  0  0  0  0  0  0  0  0  # atno 17320 bound_to 7965
  144.7270  140.4555  143.6966 LP  0  0  0  0  0  0  0  0  0  0  0  0  # atno 17321 bound_to 7965
  140.7167  143.2551  151.4412 LP  0  0  0  0  0  0  0  0  0  0  0  0  # atno 17342 bound_to 10162
  139.5887  144.1546  152.2062 LP  0  0  0  0  0  0  0  0  0  0  0  0  # atno 17343 bound_to 10162
  156.1231  130.6124  151.0224 LP  0  0  0  0  0  0  0  0  0  0  0  0  # atno 17370 bound_to 10713
  157.6656  131.0872  150.7735 LP  0  0  0  0  0  0  0  0  0  0  0  0  # atno 17371 bound_to 10713
  139.9126  135.0192  156.7753 LP  0  0  0  0  0  0  0  0  0  0  0  0  # atno 17394 bound_to 11000
  140.6629  133.9629  155.7814 LP  0  0  0  0  0  0  0  0  0  0  0  0  # atno 17395 bound_to 11000

$$$$
