AV-unprocessed.smi:2954|AV-procd|sdf|11298|dock5
  -GOLD-   2272016193D 1   1.00000     0.00000
 Structure written by MMmdl.
 42 44  0  0  0  0  0  0  0  0  1 V2000
  150.1614  139.9379  155.5711 C   0  0  0  0  0  0  0  0  0  0  0  0
  151.3636  139.4854  156.4099 C   0  0  1  0  0  0  0  0  0  0  0  0
  152.5455  139.3394  155.5641 N   0  0  0  0  0  0  0  0  0  0  0  0
  152.7413  138.3282  154.7079 C   0  0  0  0  0  0  0  0  0  0  0  0
  151.9332  137.4173  154.5468 O   0  0  0  0  0  0  0  0  0  0  0  0
  151.6742  140.4562  157.5226 C   0  0  0  0  0  0  0  0  0  0  0  0
  151.0944  141.6575  157.5978 N   0  0  0  0  0  0  0  0  0  0  0  0
  151.6658  142.2062  158.7280 C   0  0  0  0  0  0  0  0  0  0  0  0
  151.4740  143.4687  159.3333 C   0  0  0  0  0  0  0  0  0  0  0  0
  152.1855  143.8162  160.5000 C   0  0  0  0  0  0  0  0  0  0  0  0
  153.0963  142.9081  161.0772 C   0  0  0  0  0  0  0  0  0  0  0  0
  153.2995  141.6440  160.4911 C   0  0  0  0  0  0  0  0  0  0  0  0
  152.5861  141.3014  159.3266 C   0  0  0  0  0  0  0  0  0  0  0  0
  152.5554  140.1700  158.5161 N   0  0  0  0  0  0  0  0  0  0  0  0
  153.3390  138.9583  158.7177 C   0  0  0  0  0  0  0  0  0  0  0  0
  153.2480  138.4490  160.1640 C   0  0  0  0  0  0  0  0  0  0  0  0
  153.9976  137.2467  160.2762 O   0  0  0  0  0  0  0  0  0  0  0  0
  154.1140  136.6564  161.5154 C   0  0  0  0  0  0  0  0  0  0  0  0
  153.6898  137.2674  162.7226 C   0  0  0  0  0  0  0  0  0  0  0  0
  153.8420  136.5986  163.9524 C   0  0  0  0  0  0  0  0  0  0  0  0
  154.4198  135.3166  163.9926 C   0  0  0  0  0  0  0  0  0  0  0  0
  154.8473  134.7037  162.8005 C   0  0  0  0  0  0  0  0  0  0  0  0
  154.6959  135.3704  161.5687 C   0  0  0  0  0  0  0  0  0  0  0  0
  155.2206  134.5951  160.1165 Cl  0  0  0  0  0  0  0  0  0  0  0  0
  149.2685  140.0297  156.1901 H   0  0  0  0  0  0  0  0  0  0  0  0
  149.9419  139.2210  154.7794 H   0  0  0  0  0  0  0  0  0  0  0  0
  150.3431  140.9065  155.1038 H   0  0  0  0  0  0  0  0  0  0  0  0
  151.1293  138.5043  156.8204 H   0  0  0  0  0  0  0  0  0  0  0  0
  153.2581  140.0509  155.6372 H   0  0  0  0  0  0  0  0  0  0  0  0
  153.6997  138.4196  154.1742 H   0  0  0  0  0  0  0  0  0  0  0  0
  150.7802  144.1721  158.8973 H   0  0  0  0  0  0  0  0  0  0  0  0
  152.0330  144.7847  160.9533 H   0  0  0  0  0  0  0  0  0  0  0  0
  153.6400  143.1823  161.9692 H   0  0  0  0  0  0  0  0  0  0  0  0
  154.0008  140.9496  160.9287 H   0  0  0  0  0  0  0  0  0  0  0  0
  152.9683  138.1917  158.0369 H   0  0  0  0  0  0  0  0  0  0  0  0
  154.3744  139.1405  158.4292 H   0  0  0  0  0  0  0  0  0  0  0  0
  153.6364  139.2028  160.8501 H   0  0  0  0  0  0  0  0  0  0  0  0
  152.2042  138.2692  160.4219 H   0  0  0  0  0  0  0  0  0  0  0  0
  153.2484  138.2523  162.7308 H   0  0  0  0  0  0  0  0  0  0  0  0
  153.5155  137.0714  164.8670 H   0  0  0  0  0  0  0  0  0  0  0  0
  154.5353  134.8044  164.9364 H   0  0  0  0  0  0  0  0  0  0  0  0
  155.2910  133.7195  162.8317 H   0  0  0  0  0  0  0  0  0  0  0  0
  1  2  1  0  0  0  0
  1 25  1  0  0  0  0
  1 26  1  0  0  0  0
  1 27  1  0  0  0  0
  2  3  1  0  0  0  0
  2  6  1  0  0  0  0
  2 28  1  0  0  0  0
  3  4  1  0  0  0  0
  3 29  1  0  0  0  0
  4  5  2  0  0  0  0
  4 30  1  0  0  0  0
  6 14  1  0  0  0  0
  6  7  2  0  0  0  0
  7  8  1  0  0  0  0
  8 13  2  0  0  0  0
  8  9  1  0  0  0  0
  9 10  2  0  0  0  0
  9 31  1  0  0  0  0
 10 11  1  0  0  0  0
 10 32  1  0  0  0  0
 11 12  2  0  0  0  0
 11 33  1  0  0  0  0
 12 13  1  0  0  0  0
 12 34  1  0  0  0  0
 13 14  1  0  0  0  0
 14 15  1  0  0  0  0
 15 16  1  0  0  0  0
 15 35  1  0  0  0  0
 15 36  1  0  0  0  0
 16 17  1  0  0  0  0
 16 37  1  0  0  0  0
 16 38  1  0  0  0  0
 17 18  1  0  0  0  0
 18 23  1  0  0  0  0
 18 19  2  0  0  0  0
 19 20  1  0  0  0  0
 19 39  1  0  0  0  0
 20 21  2  0  0  0  0
 20 40  1  0  0  0  0
 21 22  1  0  0  0  0
 21 41  1  0  0  0  0
 22 23  2  0  0  0  0
 22 42  1  0  0  0  0
 23 24  1  0  0  0  0
M  END
> <s_m_source_file>
AV-unprocessed.smi

> <i_m_source_file_index>
2954

> <i_lp_mmshare_version>
43012

> <i_f3d_flags>
0

> <s_epik_input>
Tz1bQ0hdW05IXVtDQEBIXShbQ0gzXSljKG4xKW4oYyhjMTIpW2NIXVtjSF1bY0hdW2NIXTIpW0NIMl1bQ0gyXU9jM1tjSF1bY0hdW2NIXVtjSF1jM0Ns

> <s_epik_cmdline>
J2VwaWtfcHl0aG9uJywgJy1waCcsICc3LjAnLCAnLXRuJywgJzgnLCAnLW1hJywgJzIwMCcsICctbWV0YWxfYmluZGluZycsICctaW1hZScsICc8aW5maWxlLm1hZT4nLCAnLW9tYWUnLCAnPG91dGZpbGUubWFlPic=

> <r_lp_tautomer_probability>
1

> <r_epik_Ionization_Penalty>
0.0861383

> <r_epik_Ionization_Penalty_Charging>
0

> <r_epik_Ionization_Penalty_Neutral>
0.0861383

> <r_epik_State_Penalty>
0.0766841

> <r_epik_Charging_Adjusted_Penalty>
0.0766841

> <i_epik_Tot_Q>
0

> <i_epik_Tot_abs_Q>
0

> <r_epik_Metal_State_Penalty>
0.0668745

> <b_epik_Metal_Only>
0

> <s_lp_Force_Field>
OPLS_2005

> <r_lp_Energy>
11.8377

> <b_lp_Chiralities_Consistent>
1

> <s_lp_Variant>
AV-unprocessed.smi:2954-2

> <Gold.Version>
5.8.1

> <Gold.Id.Protein>
6NUR|6NUR_protein|mol2

> <Gold.PLP.Fitness>
50.6322

> <Gold.PLP.PLP>
-49.0144

> <Gold.PLP.part.hbond>
-1.0000

> <Gold.PLP.part.metal>
0.0000

> <Gold.PLP.part.buried>
-7.2010

> <Gold.PLP.part.nonpolar>
-42.0833

> <Gold.PLP.part.repulsive>
0.7087

> <Gold.PLP.ligand.clash>
0.0000

> <Gold.PLP.ligand.torsion>
0.5762

> <Gold.PLP.Chemscore.Hbond>
0.9040

> <Gold.PLP.Chemscore.CHOScore>
0.0000

> <Gold.PLP.Chemscore.Metal>
0.0000

> <Gold.Chemscore.Hbonds>
donor molecule, donor type, donor heavy atom, donor atom, acceptor molecule, acceptor atom, score
      P1  H 10752 10763       L1     5  0.90

> <Gold.PLP.Chemscore.Internal.Correction>
0.0582

> <Gold.Rescore>
     Score         DG    S(hbond)    S(metal)    S(lipo)     H(rot)  DE(clash)    DE(int)     intcor
     16.79     -17.35       0.78        0.00     129.15       2.28       0.06       0.50       ----

> <Gold.Chemscore.Fitness>
16.7932

> <Gold.Chemscore.DG>
-17.3531

> <Gold.Chemscore.ZeroCoef>
-5.4800

> <Gold.Chemscore.Hbond>
0.7820

> <Gold.Chemscore.Metal>
0.0000

> <Gold.Chemscore.Lipo>
129.1515

> <Gold.Chemscore.Internal_Hbond>
0.0000

> <Gold.Chemscore.DEClash>
0.0577

> <Gold.Chemscore.DEInternal>
0.5022

> <Gold.Chemscore.Rot>
2.2849

> <Gold.Chemscore.Internal.Correction>
   9.000000E+99

> <Gold.Chemscore.Hbonds>
donor molecule, donor type, donor heavy atom, donor atom, acceptor molecule, acceptor atom, score
      P1  H 10752 10763       L1     5  0.57

> <Gold.Chemscore.Hbond.Weighted>
-2.6118

> <Gold.Chemscore.Metal.Weighted>
-0.0000

> <Gold.Chemscore.Lipo.Weighted>
-15.1107

> <Gold.Chemscore.Internal_Hbond.Weighted>
0.0000

> <Gold.Chemscore.DEClash.Weighted>
0.0577

> <Gold.Chemscore.DEInternal.Weighted>
0.5022

> <Gold.Chemscore.Rot.Weighted>
5.8495

> <Gold.Chemscore.Internal.Correction.Weighted>
   9.000000E+99

> <Gold.Protein.RotatedTorsions>
[ 6907 6896 6895 6894 ] final  -86.62 input  -60.11 | X-H torsion
[ 7974 7965 7964 7962 ] final  -85.43 input  175.53 | X-H torsion
[ 8008 7997 7996 7995 ] final  -42.38 input   59.86 | X-H torsion
[ 10167 10162 10161 10158 ] final  103.64 input  -65.29 | X-H torsion
[ 10718 10713 10712 10709 ] final -127.13 input   66.30 | X-H torsion
[ 10763 10752 10751 10750 ] final   47.91 input  -60.55 | X-H torsion
[ 11005 11000 10999 10996 ] final -122.46 input  -57.11 | X-H torsion

> <Gold.Protein.ActiveResidues>
 VAL166  LYS551  ARG553  GLY616  TRP617  ASP618  TYR619  PRO620  LYS621  CYS622 
 ASP623  PHE694  ASN695  SER759  ASP760  ASP761  ALA762  ILE779  LEU786  VAL792 
 PHE793  MET794  SER795  GLU796  ALA797  LYS798  CYS799  TRP800  GLU811  SER814 

> <Gold.Protein.RotatedAtoms>
  150.6867  134.3022  159.4710 H   0  0  0  0  0  0  0  0  0  0  0  0  # atno 6907 bound_to 6896
  152.0916  134.9400  160.0581 H   0  0  0  0  0  0  0  0  0  0  0  0  # atno 6908 bound_to 6896
  152.0714  133.4074  159.4498 H   0  0  0  0  0  0  0  0  0  0  0  0  # atno 6909 bound_to 6896
  145.4933  140.9551  143.1800 H   0  0  0  0  0  0  0  0  0  0  0  0  # atno 7974 bound_to 7965
  154.3999  140.1475  156.3345 H   0  0  0  0  0  0  0  0  0  0  0  0  # atno 8008 bound_to 7997
  155.8413  140.3462  155.5612 H   0  0  0  0  0  0  0  0  0  0  0  0  # atno 8009 bound_to 7997
  155.8084  140.0880  157.1908 H   0  0  0  0  0  0  0  0  0  0  0  0  # atno 8010 bound_to 7997
  139.7245  144.7050  151.0819 H   0  0  0  0  0  0  0  0  0  0  0  0  # atno 10167 bound_to 10162
  156.1829  130.6744  151.0327 H   0  0  0  0  0  0  0  0  0  0  0  0  # atno 10718 bound_to 10713
  152.9796  135.5961  154.3840 H   0  0  0  0  0  0  0  0  0  0  0  0  # atno 10763 bound_to 10752
  154.3502  135.2767  155.2378 H   0  0  0  0  0  0  0  0  0  0  0  0  # atno 10764 bound_to 10752
  154.4420  135.6011  153.6191 H   0  0  0  0  0  0  0  0  0  0  0  0  # atno 10765 bound_to 10752
  140.9993  134.0425  157.3557 H   0  0  0  0  0  0  0  0  0  0  0  0  # atno 11005 bound_to 11000
  144.7821  139.6503  143.7150 LP  0  0  0  0  0  0  0  0  0  0  0  0  # atno 17320 bound_to 7965
  146.2271  139.5743  142.9580 LP  0  0  0  0  0  0  0  0  0  0  0  0  # atno 17321 bound_to 7965
  140.7760  143.5122  150.9638 LP  0  0  0  0  0  0  0  0  0  0  0  0  # atno 17342 bound_to 10162
  139.8810  143.7072  152.3157 LP  0  0  0  0  0  0  0  0  0  0  0  0  # atno 17343 bound_to 10162
  157.6880  131.0819  150.7189 LP  0  0  0  0  0  0  0  0  0  0  0  0  # atno 17370 bound_to 10713
  156.7246  130.4691  149.5514 LP  0  0  0  0  0  0  0  0  0  0  0  0  # atno 17371 bound_to 10713
  139.9031  135.0171  156.7360 LP  0  0  0  0  0  0  0  0  0  0  0  0  # atno 17394 bound_to 11000
  140.6914  133.9386  155.7969 LP  0  0  0  0  0  0  0  0  0  0  0  0  # atno 17395 bound_to 11000

$$$$
