AV-unprocessed.smi:1899|AV-procd|sdf|7705|dock1
  -GOLD-   22720 9443D 1   1.00000     0.00000
 Structure written by MMmdl.
 34 35  0  0  0  0  0  0  0  0  2 V2000
  151.7313  141.0647  157.3637 O   0  0  0  0  0  0  0  0  0  0  0  0
  151.1667  142.1347  157.1331 C   0  0  0  0  0  0  0  0  0  0  0  0
  150.3170  142.3108  156.1086 N   0  0  0  0  0  0  0  0  0  0  0  0
  149.9115  141.2747  155.1628 C   0  0  0  0  0  0  0  0  0  0  0  0
  148.4173  141.3747  154.8011 C   0  0  0  0  0  0  0  0  0  0  0  0
  147.9626  140.2698  153.9502 N   0  0  0  0  0  0  0  0  0  0  0  0
  146.7685  140.1723  153.2834 C   0  0  0  0  0  0  0  0  0  0  0  0
  146.7954  138.9802  152.6064 C   0  0  0  0  0  0  0  0  0  0  0  0
  148.0016  138.3989  152.8918 N   0  3  0  0  0  0  0  0  0  0  0  0
  148.7080  139.1821  153.7132 C   0  0  0  0  0  0  0  0  0  0  0  0
  151.3880  143.3383  158.0573 C   0  0  2  0  0  0  0  0  0  0  0  0
  152.5066  143.0589  159.0876 C   0  0  0  0  0  0  0  0  0  0  0  0
  152.5590  144.1151  160.1776 C   0  0  0  0  0  0  0  0  0  0  0  0
  151.5615  144.9841  160.4143 C   0  0  0  0  0  0  0  0  0  0  0  0
  150.2666  145.0065  159.6216 C   0  0  0  0  0  0  0  0  0  0  0  0
  150.0809  143.7345  158.7735 C   0  0  0  0  0  0  0  0  0  0  0  0
  149.9047  143.2249  155.9879 H   0  0  0  0  0  0  0  0  0  0  0  0
  150.5083  141.4052  154.2600 H   0  0  0  0  0  0  0  0  0  0  0  0
  150.1511  140.2796  155.5417 H   0  0  0  0  0  0  0  0  0  0  0  0
  147.8004  141.4032  155.7008 H   0  0  0  0  0  0  0  0  0  0  0  0
  148.2265  142.3009  154.2580 H   0  0  0  0  0  0  0  0  0  0  0  0
  146.0119  140.9419  153.3324 H   0  0  0  0  0  0  0  0  0  0  0  0
  146.0671  138.5150  151.9585 H   0  0  0  0  0  0  0  0  0  0  0  0
  149.6927  138.9819  154.0965 H   0  0  0  0  0  0  0  0  0  0  0  0
  151.6980  144.1873  157.4446 H   0  0  0  0  0  0  0  0  0  0  0  0
  152.3735  142.0885  159.5679 H   0  0  0  0  0  0  0  0  0  0  0  0
  153.4734  143.0329  158.5834 H   0  0  0  0  0  0  0  0  0  0  0  0
  153.4490  144.1401  160.7891 H   0  0  0  0  0  0  0  0  0  0  0  0
  151.6656  145.7207  161.1975 H   0  0  0  0  0  0  0  0  0  0  0  0
  149.4264  145.1222  160.3068 H   0  0  0  0  0  0  0  0  0  0  0  0
  150.2784  145.8887  158.9812 H   0  0  0  0  0  0  0  0  0  0  0  0
  149.2754  143.8885  158.0541 H   0  0  0  0  0  0  0  0  0  0  0  0
  149.7598  142.9183  159.4232 H   0  0  0  0  0  0  0  0  0  0  0  0
  148.3172  137.5071  152.5315 H   0  0  0  0  0  0  0  0  0  0  0  0
  1  2  2  0  0  0  0
  2  3  1  0  0  0  0
  2 11  1  0  0  0  0
  3  4  1  0  0  0  0
  3 17  1  0  0  0  0
  4  5  1  0  0  0  0
  4 18  1  0  0  0  0
  4 19  1  0  0  0  0
  5  6  1  0  0  0  0
  5 20  1  0  0  0  0
  5 21  1  0  0  0  0
  6 10  1  0  0  0  0
  6  7  1  0  0  0  0
  7  8  2  0  0  0  0
  7 22  1  0  0  0  0
  8  9  1  0  0  0  0
  8 23  1  0  0  0  0
  9 10  2  0  0  0  0
  9 34  1  0  0  0  0
 10 24  1  0  0  0  0
 11 16  1  0  0  0  0
 11 12  1  0  0  0  0
 11 25  1  0  0  0  0
 12 13  1  0  0  0  0
 12 26  1  0  0  0  0
 12 27  1  0  0  0  0
 13 14  2  0  0  0  0
 13 28  1  0  0  0  0
 14 15  1  0  0  0  0
 14 29  1  0  0  0  0
 15 16  1  0  0  0  0
 15 30  1  0  0  0  0
 15 31  1  0  0  0  0
 16 32  1  0  0  0  0
 16 33  1  0  0  0  0
M  CHG  1   9   1
M  END
> <s_m_source_file>
AV-unprocessed.smi

> <i_m_source_file_index>
1899

> <i_lp_mmshare_version>
43012

> <i_f3d_flags>
0

> <s_epik_input>
W0NIMl0xW0NIMl1bQ0hdPVtDSF1bQ0gyXVtDQEhdMUMoPU8pW05IXVtDSDJdW0NIMl1uMltjSF1bY0hdbltjSF0y

> <s_epik_cmdline>
J2VwaWtfcHl0aG9uJywgJy1waCcsICc3LjAnLCAnLXRuJywgJzgnLCAnLW1hJywgJzIwMCcsICctbWV0YWxfYmluZGluZycsICctaW1hZScsICc8aW5maWxlLm1hZT4nLCAnLW9tYWUnLCAnPG91dGZpbGUubWFlPic=

> <r_lp_tautomer_probability>
1

> <r_epik_Ionization_Penalty>
0.268283

> <r_epik_Ionization_Penalty_Charging>
0

> <r_epik_Ionization_Penalty_Neutral>
0.268283

> <r_epik_State_Penalty>
0.260312

> <r_epik_Charging_Adjusted_Penalty>
0.260312

> <i_epik_Tot_Q>
1

> <i_epik_Tot_abs_Q>
1

> <r_epik_Metal_State_Penalty>
0.545819

> <b_epik_Metal_Only>
0

> <s_lp_Force_Field>
OPLS_2005

> <r_lp_Energy>
10.5606

> <b_lp_Chiralities_Consistent>
1

> <s_lp_Variant>
AV-unprocessed.smi:1899-1

> <Gold.Version>
5.8.1

> <Gold.Id.Protein>
6NUR|6NUR_protein|mol2

> <Gold.PLP.Fitness>
47.2358

> <Gold.PLP.PLP>
-36.7405

> <Gold.PLP.part.hbond>
-3.0000

> <Gold.PLP.part.metal>
0.0000

> <Gold.PLP.part.buried>
-1.6645

> <Gold.PLP.part.nonpolar>
-33.1243

> <Gold.PLP.part.repulsive>
0.1692

> <Gold.PLP.ligand.clash>
0.0000

> <Gold.PLP.ligand.torsion>
0.3333

> <Gold.PLP.Chemscore.Hbond>
3.0000

> <Gold.PLP.Chemscore.CHOScore>
0.7122

> <Gold.PLP.Chemscore.Metal>
0.0000

> <Gold.Chemscore.Hbonds>
donor molecule, donor type, donor heavy atom, donor atom, acceptor molecule, acceptor atom, score
      L1  H     3    17       P1  8028  1.00
      L1  H     9    34       P1  7948  2.00
      L1  C     7    22       P1 10175  0.81

> <Gold.PLP.Chemscore.Internal.Correction>
0.0253

> <Gold.Rescore>
     Score         DG    S(hbond)    S(metal)    S(lipo)     H(rot)  DE(clash)    DE(int)     intcor
     17.55     -18.07       1.97        0.00      92.22       1.87       0.13       0.38       ----

> <Gold.Chemscore.Fitness>
17.5511

> <Gold.Chemscore.DG>
-18.0654

> <Gold.Chemscore.ZeroCoef>
-5.4800

> <Gold.Chemscore.Hbond>
1.9743

> <Gold.Chemscore.Metal>
0.0000

> <Gold.Chemscore.Lipo>
92.2185

> <Gold.Chemscore.Internal_Hbond>
0.0000

> <Gold.Chemscore.DEClash>
0.1302

> <Gold.Chemscore.DEInternal>
0.3841

> <Gold.Chemscore.Rot>
1.8743

> <Gold.Chemscore.Internal.Correction>
   9.000000E+99

> <Gold.Chemscore.Hbonds>
donor molecule, donor type, donor heavy atom, donor atom, acceptor molecule, acceptor atom, score
      L1  H     3    17       P1  8028  1.00
      L1  H     9    34       P1  7948  0.96

> <Gold.Chemscore.Hbond.Weighted>
-6.5942

> <Gold.Chemscore.Metal.Weighted>
-0.0000

> <Gold.Chemscore.Lipo.Weighted>
-10.7896

> <Gold.Chemscore.Internal_Hbond.Weighted>
0.0000

> <Gold.Chemscore.DEClash.Weighted>
0.1302

> <Gold.Chemscore.DEInternal.Weighted>
0.3841

> <Gold.Chemscore.Rot.Weighted>
4.7983

> <Gold.Chemscore.Internal.Correction.Weighted>
   9.000000E+99

> <Gold.Protein.RotatedTorsions>
[ 6907 6896 6895 6894 ] final    5.57 input  -60.11 | X-H torsion
[ 7974 7965 7964 7962 ] final   59.62 input  175.53 | X-H torsion
[ 8008 7997 7996 7995 ] final  -19.55 input   59.86 | X-H torsion
[ 10167 10162 10161 10158 ] final -162.28 input  -65.29 | X-H torsion
[ 10718 10713 10712 10709 ] final   24.16 input   66.30 | X-H torsion
[ 10763 10752 10751 10750 ] final  164.33 input  -60.55 | X-H torsion
[ 11005 11000 10999 10996 ] final  -94.33 input  -57.11 | X-H torsion

> <Gold.Protein.ActiveResidues>
 VAL166  LYS551  ARG553  GLY616  TRP617  ASP618  TYR619  PRO620  LYS621  CYS622 
 ASP623  PHE694  ASN695  SER759  ASP760  ASP761  ALA762  ILE779  LEU786  VAL792 
 PHE793  MET794  SER795  GLU796  ALA797  LYS798  CYS799  TRP800  GLU811  SER814 

> <Gold.Protein.RotatedAtoms>
  151.6597  135.0991  160.0176 H   0  0  0  0  0  0  0  0  0  0  0  0  # atno 6907 bound_to 6896
  152.3954  133.6734  159.6280 H   0  0  0  0  0  0  0  0  0  0  0  0  # atno 6908 bound_to 6896
  150.7862  133.8800  159.3324 H   0  0  0  0  0  0  0  0  0  0  0  0  # atno 6909 bound_to 6896
  145.9051  139.3611  143.0569 H   0  0  0  0  0  0  0  0  0  0  0  0  # atno 7974 bound_to 7965
  154.4829  140.2085  155.9723 H   0  0  0  0  0  0  0  0  0  0  0  0  # atno 8008 bound_to 7997
  156.1192  140.3216  155.8152 H   0  0  0  0  0  0  0  0  0  0  0  0  # atno 8009 bound_to 7997
  155.4498  140.0516  157.2993 H   0  0  0  0  0  0  0  0  0  0  0  0  # atno 8010 bound_to 7997
  139.6403  144.0272  152.2087 H   0  0  0  0  0  0  0  0  0  0  0  0  # atno 10167 bound_to 10162
  157.1759  130.6781  149.6095 H   0  0  0  0  0  0  0  0  0  0  0  0  # atno 10718 bound_to 10713
  154.3073  135.2758  155.2583 H   0  0  0  0  0  0  0  0  0  0  0  0  # atno 10763 bound_to 10752
  154.4993  135.5812  153.6522 H   0  0  0  0  0  0  0  0  0  0  0  0  # atno 10764 bound_to 10752
  152.9892  135.6154  154.3248 H   0  0  0  0  0  0  0  0  0  0  0  0  # atno 10765 bound_to 10752
  141.1473  133.7949  157.0283 H   0  0  0  0  0  0  0  0  0  0  0  0  # atno 11005 bound_to 11000
  145.8742  140.9402  143.0635 LP  0  0  0  0  0  0  0  0  0  0  0  0  # atno 17320 bound_to 7965
  144.6738  140.0695  143.7473 LP  0  0  0  0  0  0  0  0  0  0  0  0  # atno 17321 bound_to 7965
  139.9960  144.6328  150.7772 LP  0  0  0  0  0  0  0  0  0  0  0  0  # atno 17342 bound_to 10162
  140.7487  143.2927  151.3287 LP  0  0  0  0  0  0  0  0  0  0  0  0  # atno 17343 bound_to 10162
  155.9731  130.4663  150.6284 LP  0  0  0  0  0  0  0  0  0  0  0  0  # atno 17370 bound_to 10713
  157.3998  131.0808  151.1318 LP  0  0  0  0  0  0  0  0  0  0  0  0  # atno 17371 bound_to 10713
  140.0770  134.9670  157.1563 LP  0  0  0  0  0  0  0  0  0  0  0  0  # atno 17394 bound_to 11000
  140.3629  134.2474  155.7185 LP  0  0  0  0  0  0  0  0  0  0  0  0  # atno 17395 bound_to 11000

$$$$
