AV-unprocessed.smi:3185|AV-procd|sdf|12170|dock1
  -GOLD-   2272018 03D 1   1.00000     0.00000
 Structure written by MMmdl.
 37 38  0  0  0  0  0  0  0  0  1 V2000
  151.8956  136.9629  154.6530 N   0  0  0  0  0  0  0  0  0  0  0  0
  151.9328  138.1038  154.8411 C   0  0  0  0  0  0  0  0  0  0  0  0
  151.9797  139.5541  155.0802 C   0  0  0  0  0  0  0  0  0  0  0  0
  150.8571  140.0391  156.0037 C   0  0  0  0  0  0  0  0  0  0  0  0
  150.9222  141.5525  156.2411 C   0  0  0  0  0  0  0  0  0  0  0  0
  151.4486  141.8119  157.5730 N   0  0  0  0  0  0  0  0  0  0  0  0
  151.2108  143.1865  158.0087 C   0  0  1  0  0  0  0  0  0  0  0  0
  149.9039  143.3169  158.8256 C   0  0  0  0  0  0  0  0  0  0  0  0
  149.6840  144.7663  159.2886 C   0  0  0  0  0  0  0  0  0  0  0  0
  150.8809  145.3008  160.0895 C   0  0  0  0  0  0  0  0  0  0  0  0
  152.1963  145.1572  159.3013 C   0  0  0  0  0  0  0  0  0  0  0  0
  152.4519  143.7254  158.7751 C   0  0  1  0  0  0  0  0  0  0  0  0
  152.9675  142.8276  159.8132 N   0  0  0  0  0  0  0  0  0  0  0  0
  153.6307  141.6309  159.6269 C   0  0  0  0  0  0  0  0  0  0  0  0
  153.9306  141.1241  160.8587 C   0  0  0  0  0  0  0  0  0  0  0  0
  153.4040  142.0924  161.7563 C   0  0  0  0  0  0  0  0  0  0  0  0
  152.8310  143.1056  161.1298 N   0  0  0  0  0  0  0  0  0  0  0  0
  152.9539  139.7896  155.5088 H   0  0  0  0  0  0  0  0  0  0  0  0
  151.9208  140.0539  154.1131 H   0  0  0  0  0  0  0  0  0  0  0  0
  149.8926  139.7755  155.5672 H   0  0  0  0  0  0  0  0  0  0  0  0
  150.9221  139.5126  156.9569 H   0  0  0  0  0  0  0  0  0  0  0  0
  151.5660  142.0164  155.4927 H   0  0  0  0  0  0  0  0  0  0  0  0
  149.9272  141.9833  156.1328 H   0  0  0  0  0  0  0  0  0  0  0  0
  152.4430  141.6358  157.5687 H   0  0  0  0  0  0  0  0  0  0  0  0
  151.1079  143.8044  157.1153 H   0  0  0  0  0  0  0  0  0  0  0  0
  149.0446  143.0159  158.2273 H   0  0  0  0  0  0  0  0  0  0  0  0
  149.9159  142.6496  159.6869 H   0  0  0  0  0  0  0  0  0  0  0  0
  149.5195  145.4022  158.4179 H   0  0  0  0  0  0  0  0  0  0  0  0
  148.7777  144.8298  159.8913 H   0  0  0  0  0  0  0  0  0  0  0  0
  150.7165  146.3502  160.3351 H   0  0  0  0  0  0  0  0  0  0  0  0
  150.9475  144.7810  161.0444 H   0  0  0  0  0  0  0  0  0  0  0  0
  152.1600  145.8377  158.4498 H   0  0  0  0  0  0  0  0  0  0  0  0
  153.0361  145.4892  159.9129 H   0  0  0  0  0  0  0  0  0  0  0  0
  153.2554  143.8118  158.0420 H   0  0  0  0  0  0  0  0  0  0  0  0
  153.8330  141.2408  158.6402 H   0  0  0  0  0  0  0  0  0  0  0  0
  154.4467  140.2028  161.0836 H   0  0  0  0  0  0  0  0  0  0  0  0
  153.4211  142.0899  162.8361 H   0  0  0  0  0  0  0  0  0  0  0  0
  1  2  3  0  0  0  0
  2  3  1  0  0  0  0
  3  4  1  0  0  0  0
  3 18  1  0  0  0  0
  3 19  1  0  0  0  0
  4  5  1  0  0  0  0
  4 20  1  0  0  0  0
  4 21  1  0  0  0  0
  5  6  1  0  0  0  0
  5 22  1  0  0  0  0
  5 23  1  0  0  0  0
  6  7  1  0  0  0  0
  6 24  1  0  0  0  0
  7 12  1  0  0  0  0
  7  8  1  0  0  0  0
  7 25  1  0  0  0  0
  8  9  1  0  0  0  0
  8 26  1  0  0  0  0
  8 27  1  0  0  0  0
  9 10  1  0  0  0  0
  9 28  1  0  0  0  0
  9 29  1  0  0  0  0
 10 11  1  0  0  0  0
 10 30  1  0  0  0  0
 10 31  1  0  0  0  0
 11 12  1  0  0  0  0
 11 32  1  0  0  0  0
 11 33  1  0  0  0  0
 12 13  1  0  0  0  0
 12 34  1  0  0  0  0
 13 17  1  0  0  0  0
 13 14  1  0  0  0  0
 14 15  2  0  0  0  0
 14 35  1  0  0  0  0
 15 16  1  0  0  0  0
 15 36  1  0  0  0  0
 16 17  2  0  0  0  0
 16 37  1  0  0  0  0
M  END
> <s_m_source_file>
AV-unprocessed.smi

> <i_m_source_file_index>
3185

> <i_lp_mmshare_version>
43012

> <i_f3d_flags>
0

> <s_epik_input>
TiNDW0NIMl1bQ0gyXVtDSDJdW05IXVtDQEBIXTFbQ0gyXVtDSDJdW0NIMl1bQ0gyXVtDQEhdMW4yW2NIXVtjSF1bY0hdbjI=

> <s_epik_cmdline>
J2VwaWtfcHl0aG9uJywgJy1waCcsICc3LjAnLCAnLXRuJywgJzgnLCAnLW1hJywgJzIwMCcsICctbWV0YWxfYmluZGluZycsICctaW1hZScsICc8aW5maWxlLm1hZT4nLCAnLW9tYWUnLCAnPG91dGZpbGUubWFlPic=

> <r_lp_tautomer_probability>
1

> <r_epik_Ionization_Penalty>
2.21326

> <r_epik_Ionization_Penalty_Charging>
0

> <r_epik_Ionization_Penalty_Neutral>
2.21326

> <r_epik_State_Penalty>
2.35651

> <r_epik_Charging_Adjusted_Penalty>
2.35651

> <i_epik_Tot_Q>
0

> <i_epik_Tot_abs_Q>
0

> <r_epik_Metal_State_Penalty>
2.3555

> <b_epik_Metal_Only>
0

> <s_lp_Force_Field>
OPLS_2005

> <r_lp_Energy>
19.4285

> <b_lp_Chiralities_Consistent>
1

> <s_lp_Variant>
AV-unprocessed.smi:3185-6

> <Gold.Version>
5.8.1

> <Gold.Id.Protein>
6NUR|6NUR_protein|mol2

> <Gold.PLP.Fitness>
44.5811

> <Gold.PLP.PLP>
-43.9616

> <Gold.PLP.part.hbond>
-1.0000

> <Gold.PLP.part.metal>
0.0000

> <Gold.PLP.part.buried>
-2.9728

> <Gold.PLP.part.nonpolar>
-40.6123

> <Gold.PLP.part.repulsive>
0.1921

> <Gold.PLP.ligand.clash>
0.0000

> <Gold.PLP.ligand.torsion>
1.2456

> <Gold.PLP.Chemscore.Hbond>
1.0000

> <Gold.PLP.Chemscore.CHOScore>
0.0000

> <Gold.PLP.Chemscore.Metal>
0.0000

> <Gold.Chemscore.Hbonds>
donor molecule, donor type, donor heavy atom, donor atom, acceptor molecule, acceptor atom, score
      P1  H 10752 10765       L1     1  1.00

> <Gold.PLP.Chemscore.Internal.Correction>
0.1107

> <Gold.Rescore>
     Score         DG    S(hbond)    S(metal)    S(lipo)     H(rot)  DE(clash)    DE(int)     intcor
     15.58     -16.92       0.98        0.00     109.37       1.81       0.05       1.29       ----

> <Gold.Chemscore.Fitness>
15.5783

> <Gold.Chemscore.DG>
-16.9216

> <Gold.Chemscore.ZeroCoef>
-5.4800

> <Gold.Chemscore.Hbond>
0.9824

> <Gold.Chemscore.Metal>
0.0000

> <Gold.Chemscore.Lipo>
109.3725

> <Gold.Chemscore.Internal_Hbond>
0.0000

> <Gold.Chemscore.DEClash>
0.0538

> <Gold.Chemscore.DEInternal>
1.2895

> <Gold.Chemscore.Rot>
1.8110

> <Gold.Chemscore.Internal.Correction>
   9.000000E+99

> <Gold.Chemscore.Hbonds>
donor molecule, donor type, donor heavy atom, donor atom, acceptor molecule, acceptor atom, score
      P1  H 10752 10765       L1     1  0.95

> <Gold.Chemscore.Hbond.Weighted>
-3.2813

> <Gold.Chemscore.Metal.Weighted>
-0.0000

> <Gold.Chemscore.Lipo.Weighted>
-12.7966

> <Gold.Chemscore.Internal_Hbond.Weighted>
0.0000

> <Gold.Chemscore.DEClash.Weighted>
0.0538

> <Gold.Chemscore.DEInternal.Weighted>
1.2895

> <Gold.Chemscore.Rot.Weighted>
4.6362

> <Gold.Chemscore.Internal.Correction.Weighted>
   9.000000E+99

> <Gold.Protein.RotatedTorsions>
[ 6907 6896 6895 6894 ] final  -53.41 input  -60.11 | X-H torsion
[ 7974 7965 7964 7962 ] final   -1.97 input  175.53 | X-H torsion
[ 8008 7997 7996 7995 ] final   10.76 input   59.86 | X-H torsion
[ 10167 10162 10161 10158 ] final -129.13 input  -65.29 | X-H torsion
[ 10718 10713 10712 10709 ] final   59.74 input   66.30 | X-H torsion
[ 10763 10752 10751 10750 ] final  179.45 input  -60.55 | X-H torsion
[ 11005 11000 10999 10996 ] final  111.28 input  -57.11 | X-H torsion

> <Gold.Protein.ActiveResidues>
 VAL166  LYS551  ARG553  GLY616  TRP617  ASP618  TYR619  PRO620  LYS621  CYS622 
 ASP623  PHE694  ASN695  SER759  ASP760  ASP761  ALA762  ILE779  LEU786  VAL792 
 PHE793  MET794  SER795  GLU796  ALA797  LYS798  CYS799  TRP800  GLU811  SER814 

> <Gold.Protein.RotatedAtoms>
  150.8430  134.7728  159.6947 H   0  0  0  0  0  0  0  0  0  0  0  0  # atno 6907 bound_to 6896
  152.4513  134.5384  159.9841 H   0  0  0  0  0  0  0  0  0  0  0  0  # atno 6908 bound_to 6896
  151.5520  133.3378  159.2990 H   0  0  0  0  0  0  0  0  0  0  0  0  # atno 6909 bound_to 6896
  146.2410  140.1501  142.8334 H   0  0  0  0  0  0  0  0  0  0  0  0  # atno 7974 bound_to 7965
  154.7977  140.2846  155.5944 H   0  0  0  0  0  0  0  0  0  0  0  0  # atno 8008 bound_to 7997
  156.2973  140.2592  156.2768 H   0  0  0  0  0  0  0  0  0  0  0  0  # atno 8009 bound_to 7997
  154.9595  140.0378  157.2172 H   0  0  0  0  0  0  0  0  0  0  0  0  # atno 8010 bound_to 7997
  139.9430  143.6142  152.2498 H   0  0  0  0  0  0  0  0  0  0  0  0  # atno 10167 bound_to 10162
  157.5699  130.8900  149.9250 H   0  0  0  0  0  0  0  0  0  0  0  0  # atno 10718 bound_to 10713
  154.5208  135.2794  155.1264 H   0  0  0  0  0  0  0  0  0  0  0  0  # atno 10763 bound_to 10752
  154.2822  135.6283  153.5355 H   0  0  0  0  0  0  0  0  0  0  0  0  # atno 10764 bound_to 10752
  152.9936  135.5654  154.5697 H   0  0  0  0  0  0  0  0  0  0  0  0  # atno 10765 bound_to 10752
  139.8900  134.9504  156.6408 H   0  0  0  0  0  0  0  0  0  0  0  0  # atno 11005 bound_to 11000
  145.0174  140.8765  143.5187 LP  0  0  0  0  0  0  0  0  0  0  0  0  # atno 17320 bound_to 7965
  145.1544  139.2495  143.5424 LP  0  0  0  0  0  0  0  0  0  0  0  0  # atno 17321 bound_to 7965
  139.6689  144.7661  151.1820 LP  0  0  0  0  0  0  0  0  0  0  0  0  # atno 17342 bound_to 10162
  140.7605  143.5895  150.8811 LP  0  0  0  0  0  0  0  0  0  0  0  0  # atno 17343 bound_to 10162
  156.0745  130.3680  150.0706 LP  0  0  0  0  0  0  0  0  0  0  0  0  # atno 17370 bound_to 10713
  156.8860  130.9572  151.3594 LP  0  0  0  0  0  0  0  0  0  0  0  0  # atno 17371 bound_to 10713
  140.7595  133.8829  155.8407 LP  0  0  0  0  0  0  0  0  0  0  0  0  # atno 17394 bound_to 11000
  140.9934  134.1248  157.4387 LP  0  0  0  0  0  0  0  0  0  0  0  0  # atno 17395 bound_to 11000

$$$$
