AV-unprocessed.smi:774|AV-procd|sdf|3691|dock3
  -GOLD-   22720 1113D 1   1.00000     0.00000
 Structure written by MMmdl.
 37 38  0  0  0  0  0  0  0  0  1 V2000
  151.4044  139.0357  155.0767 C   0  0  0  0  0  0  0  0  0  0  0  0
  150.4408  139.5498  156.1494 C   0  0  0  0  0  0  0  0  0  0  0  0
  149.2909  140.7772  155.4724 S   0  0  0  0  0  0  0  0  0  0  0  0
  148.5454  139.8158  154.1243 C   0  0  2  0  0  0  0  0  0  0  0  0
  147.6692  140.6727  153.2146 C   0  0  0  0  0  0  0  0  0  0  0  0
  146.7716  139.6643  152.4962 C   0  0  0  0  0  0  0  0  0  0  0  0
  146.5833  138.4919  153.4774 C   0  0  1  0  0  0  0  0  0  0  0  0
  146.8195  137.2118  152.8116 N   0  0  0  0  0  0  0  0  0  0  0  0
  145.8844  136.2951  152.5232 C   0  0  0  0  0  0  0  0  0  0  0  0
  144.6913  136.4314  152.7914 O   0  0  0  0  0  0  0  0  0  0  0  0
  146.4251  135.2355  151.8964 N   0  0  0  0  0  0  0  0  0  0  0  0
  145.7805  134.0669  151.4057 C   0  0  0  0  0  0  0  0  0  0  0  0
  144.3709  134.0636  151.3593 C   0  0  0  0  0  0  0  0  0  0  0  0
  143.7016  132.9259  150.8702 C   0  0  0  0  0  0  0  0  0  0  0  0
  144.4728  131.8310  150.4353 C   0  0  0  0  0  0  0  0  0  0  0  0
  145.8221  131.8224  150.4567 N   0  0  0  0  0  0  0  0  0  0  0  0
  146.4580  132.9166  150.9286 C   0  0  0  0  0  0  0  0  0  0  0  0
  147.5985  138.7154  154.6145 C   0  0  0  0  0  0  0  0  0  0  0  0
  152.0885  138.2953  155.4914 H   0  0  0  0  0  0  0  0  0  0  0  0
  152.0030  139.8481  154.6639 H   0  0  0  0  0  0  0  0  0  0  0  0
  150.8637  138.5664  154.2541 H   0  0  0  0  0  0  0  0  0  0  0  0
  149.8685  138.7199  156.5642 H   0  0  0  0  0  0  0  0  0  0  0  0
  151.0010  139.9983  156.9699 H   0  0  0  0  0  0  0  0  0  0  0  0
  149.3408  139.3697  153.5255 H   0  0  0  0  0  0  0  0  0  0  0  0
  147.0537  141.3453  153.8137 H   0  0  0  0  0  0  0  0  0  0  0  0
  148.2517  141.2820  152.5230 H   0  0  0  0  0  0  0  0  0  0  0  0
  145.8212  140.1068  152.1963 H   0  0  0  0  0  0  0  0  0  0  0  0
  147.2717  139.3295  151.5859 H   0  0  0  0  0  0  0  0  0  0  0  0
  145.5753  138.5362  153.8935 H   0  0  0  0  0  0  0  0  0  0  0  0
  147.7729  137.0108  152.5483 H   0  0  0  0  0  0  0  0  0  0  0  0
  147.4113  135.3009  151.6913 H   0  0  0  0  0  0  0  0  0  0  0  0
  143.8058  134.9196  151.6983 H   0  0  0  0  0  0  0  0  0  0  0  0
  142.6230  132.8931  150.8297 H   0  0  0  0  0  0  0  0  0  0  0  0
  143.9935  130.9409  150.0556 H   0  0  0  0  0  0  0  0  0  0  0  0
  147.5340  132.8554  150.8962 H   0  0  0  0  0  0  0  0  0  0  0  0
  148.1351  137.8083  154.8960 H   0  0  0  0  0  0  0  0  0  0  0  0
  147.0650  139.0575  155.5026 H   0  0  0  0  0  0  0  0  0  0  0  0
  1  2  1  0  0  0  0
  1 19  1  0  0  0  0
  1 20  1  0  0  0  0
  1 21  1  0  0  0  0
  2  3  1  0  0  0  0
  2 22  1  0  0  0  0
  2 23  1  0  0  0  0
  3  4  1  0  0  0  0
  4 18  1  0  0  0  0
  4  5  1  0  0  0  0
  4 24  1  0  0  0  0
  5  6  1  0  0  0  0
  5 25  1  0  0  0  0
  5 26  1  0  0  0  0
  6  7  1  0  0  0  0
  6 27  1  0  0  0  0
  6 28  1  0  0  0  0
  7  8  1  0  0  0  0
  7 18  1  0  0  0  0
  7 29  1  0  0  0  0
  8  9  1  0  0  0  0
  8 30  1  0  0  0  0
  9 10  2  0  0  0  0
  9 11  1  0  0  0  0
 11 12  1  0  0  0  0
 11 31  1  0  0  0  0
 12 17  1  0  0  0  0
 12 13  2  0  0  0  0
 13 14  1  0  0  0  0
 13 32  1  0  0  0  0
 14 15  2  0  0  0  0
 14 33  1  0  0  0  0
 15 16  1  0  0  0  0
 15 34  1  0  0  0  0
 16 17  2  0  0  0  0
 17 35  1  0  0  0  0
 18 36  1  0  0  0  0
 18 37  1  0  0  0  0
M  END
> <s_m_source_file>
AV-unprocessed.smi

> <i_m_source_file_index>
774

> <i_lp_mmshare_version>
43012

> <i_f3d_flags>
0

> <s_epik_input>
W0NIM11bQ0gyXVNbQ0BASF0xW0NIMl1bQ0gyXVtDQEhdKFtDSDJdMSlbTkhdQyg9TylbTkhdYzJbY0hdW2NIXVtjSF1uW2NIXTI=

> <s_epik_cmdline>
J2VwaWtfcHl0aG9uJywgJy1waCcsICc3LjAnLCAnLXRuJywgJzgnLCAnLW1hJywgJzIwMCcsICctbWV0YWxfYmluZGluZycsICctaW1hZScsICc8aW5maWxlLm1hZT4nLCAnLW9tYWUnLCAnPG91dGZpbGUubWFlPic=

> <r_epik_Ionization_Penalty>
0.00485718

> <r_epik_Ionization_Penalty_Charging>
0

> <r_epik_Ionization_Penalty_Neutral>
0.00485718

> <r_epik_State_Penalty>
0.00349461

> <r_epik_Charging_Adjusted_Penalty>
0.00349461

> <i_epik_Tot_Q>
0

> <i_epik_Tot_abs_Q>
0

> <r_epik_Metal_State_Penalty>
-0

> <b_epik_Metal_Only>
0

> <s_lp_Force_Field>
OPLS_2005

> <r_lp_Energy>
20.878

> <b_lp_Chiralities_Consistent>
1

> <s_lp_Variant>
AV-unprocessed.smi:774-1

> <Gold.Version>
5.8.1

> <Gold.Id.Protein>
6NUR|6NUR_protein|mol2

> <Gold.PLP.Fitness>
37.9992

> <Gold.PLP.PLP>
-29.4881

> <Gold.PLP.part.hbond>
-1.9455

> <Gold.PLP.part.metal>
0.0000

> <Gold.PLP.part.buried>
0.0013

> <Gold.PLP.part.nonpolar>
-28.0775

> <Gold.PLP.part.repulsive>
0.3492

> <Gold.PLP.ligand.clash>
0.0000

> <Gold.PLP.ligand.torsion>
0.1926

> <Gold.PLP.Chemscore.Hbond>
1.9920

> <Gold.PLP.Chemscore.CHOScore>
0.9715

> <Gold.PLP.Chemscore.Metal>
0.0000

> <Gold.Chemscore.Hbonds>
donor molecule, donor type, donor heavy atom, donor atom, acceptor molecule, acceptor atom, score
      L1  H     8    30       P1  7948  1.00
      L1  H    11    31       P1  7948  0.99
      L1  C    17    35       P1 10747  0.97

> <Gold.PLP.Chemscore.Internal.Correction>
0.0060

> <Gold.Rescore>
     Score         DG    S(hbond)    S(metal)    S(lipo)     H(rot)  DE(clash)    DE(int)     intcor
     16.30     -18.33       1.89        0.00      84.48       1.30       0.42       1.61       ----

> <Gold.Chemscore.Fitness>
16.3010

> <Gold.Chemscore.DG>
-18.3329

> <Gold.Chemscore.ZeroCoef>
-5.4800

> <Gold.Chemscore.Hbond>
1.8884

> <Gold.Chemscore.Metal>
0.0000

> <Gold.Chemscore.Lipo>
84.4793

> <Gold.Chemscore.Internal_Hbond>
0.0000

> <Gold.Chemscore.DEClash>
0.4183

> <Gold.Chemscore.DEInternal>
1.6136

> <Gold.Chemscore.Rot>
1.3041

> <Gold.Chemscore.Internal.Correction>
   9.000000E+99

> <Gold.Chemscore.Hbonds>
donor molecule, donor type, donor heavy atom, donor atom, acceptor molecule, acceptor atom, score
      L1  H     8    30       P1  7948  0.96
      L1  H    11    31       P1  7948  0.89

> <Gold.Chemscore.Hbond.Weighted>
-6.3073

> <Gold.Chemscore.Metal.Weighted>
-0.0000

> <Gold.Chemscore.Lipo.Weighted>
-9.8841

> <Gold.Chemscore.Internal_Hbond.Weighted>
0.0000

> <Gold.Chemscore.DEClash.Weighted>
0.4183

> <Gold.Chemscore.DEInternal.Weighted>
1.6136

> <Gold.Chemscore.Rot.Weighted>
3.3384

> <Gold.Chemscore.Internal.Correction.Weighted>
   9.000000E+99

> <Gold.Protein.RotatedTorsions>
[ 6907 6896 6895 6894 ] final   83.69 input  -60.11 | X-H torsion
[ 7974 7965 7964 7962 ] final -149.76 input  175.53 | X-H torsion
[ 8008 7997 7996 7995 ] final  136.34 input   59.86 | X-H torsion
[ 10167 10162 10161 10158 ] final -126.21 input  -65.29 | X-H torsion
[ 10718 10713 10712 10709 ] final   -9.31 input   66.30 | X-H torsion
[ 10763 10752 10751 10750 ] final  -90.34 input  -60.55 | X-H torsion
[ 11005 11000 10999 10996 ] final -132.68 input  -57.11 | X-H torsion

> <Gold.Protein.ActiveResidues>
 VAL166  LYS551  ARG553  GLY616  TRP617  ASP618  TYR619  PRO620  LYS621  CYS622 
 ASP623  PHE694  ASN695  SER759  ASP760  ASP761  ALA762  ILE779  LEU786  VAL792 
 PHE793  MET794  SER795  GLU796  ALA797  LYS798  CYS799  TRP800  GLU811  SER814 

> <Gold.Protein.RotatedAtoms>
  152.5333  134.2857  159.9023 H   0  0  0  0  0  0  0  0  0  0  0  0  # atno 6907 bound_to 6896
  151.2810  133.4203  159.2634 H   0  0  0  0  0  0  0  0  0  0  0  0  # atno 6908 bound_to 6896
  151.0284  134.9536  159.8154 H   0  0  0  0  0  0  0  0  0  0  0  0  # atno 6909 bound_to 6896
  144.7948  140.5021  143.5748 H   0  0  0  0  0  0  0  0  0  0  0  0  # atno 7974 bound_to 7965
  156.3004  140.2447  156.3730 H   0  0  0  0  0  0  0  0  0  0  0  0  # atno 8008 bound_to 7997
  154.8771  140.0414  157.1779 H   0  0  0  0  0  0  0  0  0  0  0  0  # atno 8009 bound_to 7997
  154.8734  140.2938  155.5471 H   0  0  0  0  0  0  0  0  0  0  0  0  # atno 8010 bound_to 7997
  139.9738  143.5816  152.2403 H   0  0  0  0  0  0  0  0  0  0  0  0  # atno 10167 bound_to 10162
  156.6899  130.5062  149.5946 H   0  0  0  0  0  0  0  0  0  0  0  0  # atno 10718 bound_to 10713
  154.6648  135.5308  153.8063 H   0  0  0  0  0  0  0  0  0  0  0  0  # atno 10763 bound_to 10752
  153.0464  135.6514  154.0816 H   0  0  0  0  0  0  0  0  0  0  0  0  # atno 10764 bound_to 10752
  154.0721  135.2953  155.3286 H   0  0  0  0  0  0  0  0  0  0  0  0  # atno 10765 bound_to 10752
  140.9149  134.1520  157.4360 H   0  0  0  0  0  0  0  0  0  0  0  0  # atno 11005 bound_to 11000
  145.5702  139.1483  143.3292 LP  0  0  0  0  0  0  0  0  0  0  0  0  # atno 17320 bound_to 7965
  146.2212  140.5835  142.9016 LP  0  0  0  0  0  0  0  0  0  0  0  0  # atno 17321 bound_to 7965
  139.6461  144.7658  151.2242 LP  0  0  0  0  0  0  0  0  0  0  0  0  # atno 17342 bound_to 10162
  140.7513  143.6237  150.8488 LP  0  0  0  0  0  0  0  0  0  0  0  0  # atno 17343 bound_to 10162
  156.1805  130.6496  151.0946 LP  0  0  0  0  0  0  0  0  0  0  0  0  # atno 17370 bound_to 10713
  157.7013  131.0775  150.6812 LP  0  0  0  0  0  0  0  0  0  0  0  0  # atno 17371 bound_to 10713
  139.8764  134.9950  156.5720 LP  0  0  0  0  0  0  0  0  0  0  0  0  # atno 17394 bound_to 11000
  140.8063  133.8465  155.8770 LP  0  0  0  0  0  0  0  0  0  0  0  0  # atno 17395 bound_to 11000

$$$$
