AV-unprocessed.smi:1350|AV-procd|sdf|5521|dock7
  -GOLD-   22720 5113D 1   1.00000     0.00000
 Structure written by MMmdl.
 43 45  0  0  0  0  0  0  0  0  1 V2000
  151.8555  140.2108  156.5228 C   0  0  0  0  0  0  0  0  0  0  0  0
  152.6332  140.3090  157.7065 O   0  0  0  0  0  0  0  0  0  0  0  0
  152.4624  141.4158  158.5133 C   0  0  0  0  0  0  0  0  0  0  0  0
  151.5659  142.4738  158.2141 C   0  0  0  0  0  0  0  0  0  0  0  0
  151.4378  143.5721  159.0854 C   0  0  0  0  0  0  0  0  0  0  0  0
  152.2007  143.6295  160.2652 C   0  0  0  0  0  0  0  0  0  0  0  0
  153.0935  142.5871  160.5724 C   0  0  0  0  0  0  0  0  0  0  0  0
  153.2289  141.4853  159.7015 C   0  0  0  0  0  0  0  0  0  0  0  0
  154.1952  140.3680  160.0526 C   0  0  0  0  0  0  0  0  0  0  0  0
  154.0413  139.9552  161.4003 O   0  0  0  0  0  0  0  0  0  0  0  0
  154.9938  140.5418  162.2714 C   0  0  0  0  0  0  0  0  0  0  0  0
  155.5092  139.4645  163.2382 C   0  0  1  0  0  0  0  0  0  0  0  0
  156.0177  138.3862  162.4777 O   0  0  0  0  0  0  0  0  0  0  0  0
  156.6231  140.0009  164.1578 C   0  0  0  0  0  0  0  0  0  0  0  0
  156.1400  140.3165  165.4905 N   0  0  0  0  0  0  0  0  0  0  0  0
  155.9751  139.4569  166.5142 C   0  0  0  0  0  0  0  0  0  0  0  0
  155.5148  139.9526  167.6593 N   0  0  0  0  0  0  0  0  0  0  0  0
  155.3642  141.2917  167.3426 C   0  0  0  0  0  0  0  0  0  0  0  0
  154.9079  142.3736  168.1292 C   0  0  0  0  0  0  0  0  0  0  0  0
  154.8393  143.6733  167.5855 C   0  0  0  0  0  0  0  0  0  0  0  0
  155.2252  143.9111  166.2502 C   0  0  0  0  0  0  0  0  0  0  0  0
  155.6829  142.8489  165.4469 C   0  0  0  0  0  0  0  0  0  0  0  0
  155.7483  141.5532  165.9925 C   0  0  0  0  0  0  0  0  0  0  0  0
  152.1162  139.2919  155.9977 H   0  0  0  0  0  0  0  0  0  0  0  0
  152.0519  141.0437  155.8463 H   0  0  0  0  0  0  0  0  0  0  0  0
  150.7890  140.1702  156.7482 H   0  0  0  0  0  0  0  0  0  0  0  0
  150.9612  142.4667  157.3202 H   0  0  0  0  0  0  0  0  0  0  0  0
  150.7516  144.3716  158.8479 H   0  0  0  0  0  0  0  0  0  0  0  0
  152.1010  144.4718  160.9341 H   0  0  0  0  0  0  0  0  0  0  0  0
  153.6760  142.6385  161.4806 H   0  0  0  0  0  0  0  0  0  0  0  0
  154.0404  139.5161  159.3885 H   0  0  0  0  0  0  0  0  0  0  0  0
  155.2117  140.7263  159.8818 H   0  0  0  0  0  0  0  0  0  0  0  0
  155.8122  141.0049  161.7170 H   0  0  0  0  0  0  0  0  0  0  0  0
  154.4979  141.3329  162.8364 H   0  0  0  0  0  0  0  0  0  0  0  0
  154.6844  139.1044  163.8550 H   0  0  0  0  0  0  0  0  0  0  0  0
  155.3030  138.0000  161.9945 H   0  0  0  0  0  0  0  0  0  0  0  0
  157.4360  139.2781  164.2390 H   0  0  0  0  0  0  0  0  0  0  0  0
  157.0560  140.9080  163.7338 H   0  0  0  0  0  0  0  0  0  0  0  0
  156.2069  138.4069  166.4122 H   0  0  0  0  0  0  0  0  0  0  0  0
  154.6108  142.2032  169.1533 H   0  0  0  0  0  0  0  0  0  0  0  0
  154.4897  144.4924  168.1967 H   0  0  0  0  0  0  0  0  0  0  0  0
  155.1705  144.9102  165.8429 H   0  0  0  0  0  0  0  0  0  0  0  0
  155.9826  143.0272  164.4249 H   0  0  0  0  0  0  0  0  0  0  0  0
  1  2  1  0  0  0  0
  1 24  1  0  0  0  0
  1 25  1  0  0  0  0
  1 26  1  0  0  0  0
  2  3  1  0  0  0  0
  3  8  1  0  0  0  0
  3  4  2  0  0  0  0
  4  5  1  0  0  0  0
  4 27  1  0  0  0  0
  5  6  2  0  0  0  0
  5 28  1  0  0  0  0
  6  7  1  0  0  0  0
  6 29  1  0  0  0  0
  7  8  2  0  0  0  0
  7 30  1  0  0  0  0
  8  9  1  0  0  0  0
  9 10  1  0  0  0  0
  9 31  1  0  0  0  0
  9 32  1  0  0  0  0
 10 11  1  0  0  0  0
 11 12  1  0  0  0  0
 11 33  1  0  0  0  0
 11 34  1  0  0  0  0
 12 13  1  0  0  0  0
 12 14  1  0  0  0  0
 12 35  1  0  0  0  0
 13 36  1  0  0  0  0
 14 15  1  0  0  0  0
 14 37  1  0  0  0  0
 14 38  1  0  0  0  0
 15 23  1  0  0  0  0
 15 16  1  0  0  0  0
 16 17  2  0  0  0  0
 16 39  1  0  0  0  0
 17 18  1  0  0  0  0
 18 23  2  0  0  0  0
 18 19  1  0  0  0  0
 19 20  2  0  0  0  0
 19 40  1  0  0  0  0
 20 21  1  0  0  0  0
 20 41  1  0  0  0  0
 21 22  2  0  0  0  0
 21 42  1  0  0  0  0
 22 23  1  0  0  0  0
 22 43  1  0  0  0  0
M  END
> <s_m_source_file>
AV-unprocessed.smi

> <i_m_source_file_index>
1350

> <i_lp_mmshare_version>
43012

> <i_f3d_flags>
0

> <s_epik_input>
W0NIM11PYzFbY0hdW2NIXVtjSF1bY0hdYzFbQ0gyXU9bQ0gyXVtDQEhdKFtPSF0pW0NIMl1uKFtjSF1uMiljKGMyMylbY0hdW2NIXVtjSF1bY0hdMw==

> <s_epik_cmdline>
J2VwaWtfcHl0aG9uJywgJy1waCcsICc3LjAnLCAnLXRuJywgJzgnLCAnLW1hJywgJzIwMCcsICctbWV0YWxfYmluZGluZycsICctaW1hZScsICc8aW5maWxlLm1hZT4nLCAnLW9tYWUnLCAnPG91dGZpbGUubWFlPic=

> <r_lp_tautomer_probability>
1

> <r_epik_Ionization_Penalty>
0.0713119

> <r_epik_Ionization_Penalty_Charging>
0

> <r_epik_Ionization_Penalty_Neutral>
0.0713119

> <r_epik_State_Penalty>
0.06259

> <r_epik_Charging_Adjusted_Penalty>
0.06259

> <i_epik_Tot_Q>
0

> <i_epik_Tot_abs_Q>
0

> <r_epik_Metal_State_Penalty>
6.60119e-05

> <b_epik_Metal_Only>
0

> <s_lp_Force_Field>
OPLS_2005

> <r_lp_Energy>
19.121

> <b_lp_Chiralities_Consistent>
1

> <s_lp_Variant>
AV-unprocessed.smi:1350-2

> <Gold.Version>
5.8.1

> <Gold.Id.Protein>
6NUR|6NUR_protein|mol2

> <Gold.PLP.Fitness>
48.1901

> <Gold.PLP.PLP>
-48.4418

> <Gold.PLP.part.hbond>
-1.8678

> <Gold.PLP.part.metal>
0.0000

> <Gold.PLP.part.buried>
-4.9727

> <Gold.PLP.part.nonpolar>
-41.0083

> <Gold.PLP.part.repulsive>
0.1211

> <Gold.PLP.ligand.clash>
0.0000

> <Gold.PLP.ligand.torsion>
1.6327

> <Gold.PLP.Chemscore.Hbond>
0.9440

> <Gold.PLP.Chemscore.CHOScore>
0.0000

> <Gold.PLP.Chemscore.Metal>
0.0000

> <Gold.Chemscore.Hbonds>
donor molecule, donor type, donor heavy atom, donor atom, acceptor molecule, acceptor atom, score
      P1  H  7997  8010       L1     2  0.87

> <Gold.PLP.Chemscore.Internal.Correction>
0.1817

> <Gold.Rescore>
     Score         DG    S(hbond)    S(metal)    S(lipo)     H(rot)  DE(clash)    DE(int)     intcor
     15.18     -16.88       0.43        0.00     142.72       2.63       0.09       1.61       ----

> <Gold.Chemscore.Fitness>
15.1758

> <Gold.Chemscore.DG>
-16.8796

> <Gold.Chemscore.ZeroCoef>
-5.4800

> <Gold.Chemscore.Hbond>
0.4298

> <Gold.Chemscore.Metal>
0.0000

> <Gold.Chemscore.Lipo>
142.7239

> <Gold.Chemscore.Internal_Hbond>
0.0000

> <Gold.Chemscore.DEClash>
0.0931

> <Gold.Chemscore.DEInternal>
1.6107

> <Gold.Chemscore.Rot>
2.6308

> <Gold.Chemscore.Internal.Correction>
   9.000000E+99

> <Gold.Chemscore.Hbonds>
donor molecule, donor type, donor heavy atom, donor atom, acceptor molecule, acceptor atom, score
      P1  H  7997  8010       L1     2  0.17

> <Gold.Chemscore.Hbond.Weighted>
-1.4357

> <Gold.Chemscore.Metal.Weighted>
-0.0000

> <Gold.Chemscore.Lipo.Weighted>
-16.6987

> <Gold.Chemscore.Internal_Hbond.Weighted>
0.0000

> <Gold.Chemscore.DEClash.Weighted>
0.0931

> <Gold.Chemscore.DEInternal.Weighted>
1.6107

> <Gold.Chemscore.Rot.Weighted>
6.7347

> <Gold.Chemscore.Internal.Correction.Weighted>
   9.000000E+99

> <Gold.Protein.RotatedTorsions>
[ 6907 6896 6895 6894 ] final   69.74 input  -60.11 | X-H torsion
[ 7974 7965 7964 7962 ] final  137.15 input  175.53 | X-H torsion
[ 8008 7997 7996 7995 ] final   44.37 input   59.86 | X-H torsion
[ 10167 10162 10161 10158 ] final   64.68 input  -65.29 | X-H torsion
[ 10718 10713 10712 10709 ] final  174.46 input   66.30 | X-H torsion
[ 10763 10752 10751 10750 ] final  -89.21 input  -60.55 | X-H torsion
[ 11005 11000 10999 10996 ] final   12.81 input  -57.11 | X-H torsion

> <Gold.Protein.ActiveResidues>
 VAL166  LYS551  ARG553  GLY616  TRP617  ASP618  TYR619  PRO620  LYS621  CYS622 
 ASP623  PHE694  ASN695  SER759  ASP760  ASP761  ALA762  ILE779  LEU786  VAL792 
 PHE793  MET794  SER795  GLU796  ALA797  LYS798  CYS799  TRP800  GLU811  SER814 

> <Gold.Protein.RotatedAtoms>
  152.4705  134.4971  159.9712 H   0  0  0  0  0  0  0  0  0  0  0  0  # atno 6907 bound_to 6896
  151.4999  133.3501  159.2875 H   0  0  0  0  0  0  0  0  0  0  0  0  # atno 6908 bound_to 6896
  150.8713  134.8115  159.7218 H   0  0  0  0  0  0  0  0  0  0  0  0  # atno 6909 bound_to 6896
  144.9496  139.4834  143.5532 H   0  0  0  0  0  0  0  0  0  0  0  0  # atno 7974 bound_to 7965
  155.3181  140.3395  155.4242 H   0  0  0  0  0  0  0  0  0  0  0  0  # atno 8008 bound_to 7997
  156.1922  140.1702  156.8106 H   0  0  0  0  0  0  0  0  0  0  0  0  # atno 8009 bound_to 7997
  154.5456  140.0716  156.8566 H   0  0  0  0  0  0  0  0  0  0  0  0  # atno 8010 bound_to 7997
  140.1195  144.4744  150.6929 H   0  0  0  0  0  0  0  0  0  0  0  0  # atno 10167 bound_to 10162
  156.9492  131.0026  151.2952 H   0  0  0  0  0  0  0  0  0  0  0  0  # atno 10718 bound_to 10713
  154.6529  135.5349  153.7923 H   0  0  0  0  0  0  0  0  0  0  0  0  # atno 10763 bound_to 10752
  153.0396  135.6487  154.0989 H   0  0  0  0  0  0  0  0  0  0  0  0  # atno 10764 bound_to 10752
  154.0905  135.2940  155.3252 H   0  0  0  0  0  0  0  0  0  0  0  0  # atno 10765 bound_to 10752
  140.4877  134.0871  155.7764 H   0  0  0  0  0  0  0  0  0  0  0  0  # atno 11005 bound_to 11000
  146.3316  139.8572  142.8862 LP  0  0  0  0  0  0  0  0  0  0  0  0  # atno 17320 bound_to 7965
  145.2865  141.0154  143.3687 LP  0  0  0  0  0  0  0  0  0  0  0  0  # atno 17321 bound_to 7965
  140.6880  143.2360  151.5208 LP  0  0  0  0  0  0  0  0  0  0  0  0  # atno 17342 bound_to 10162
  139.5576  144.2236  152.1638 LP  0  0  0  0  0  0  0  0  0  0  0  0  # atno 17343 bound_to 10162
  157.5733  130.8325  149.8421 LP  0  0  0  0  0  0  0  0  0  0  0  0  # atno 17370 bound_to 10713
  156.0370  130.3749  150.1534 LP  0  0  0  0  0  0  0  0  0  0  0  0  # atno 17371 bound_to 10713
  141.1499  133.8987  157.2123 LP  0  0  0  0  0  0  0  0  0  0  0  0  # atno 17394 bound_to 11000
  139.9788  135.0105  156.9697 LP  0  0  0  0  0  0  0  0  0  0  0  0  # atno 17395 bound_to 11000

$$$$
