AV-unprocessed.smi:1951|AV-procd|sdf|7881|dock3
  -GOLD-   2272010 33D 1   1.00000     0.00000
 Structure written by MMmdl.
 46 47  0  0  0  0  0  0  0  0  2 V2000
  145.5680  133.4774  151.3612 C   0  0  0  0  0  0  0  0  0  0  0  0
  146.6803  133.6740  152.2277 O   0  0  0  0  0  0  0  0  0  0  0  0
  147.2324  132.5722  152.8529 C   0  0  0  0  0  0  0  0  0  0  0  0
  146.6686  131.3571  152.6370 N   0  0  0  0  0  0  0  0  0  0  0  0
  147.2055  130.2817  153.2490 C   0  0  0  0  0  0  0  0  0  0  0  0
  148.3181  130.3587  154.1069 C   0  0  0  0  0  0  0  0  0  0  0  0
  148.9055  131.6174  154.3313 C   0  0  0  0  0  0  0  0  0  0  0  0
  148.3629  132.7535  153.6834 C   0  0  0  0  0  0  0  0  0  0  0  0
  148.8678  134.0711  153.8568 N   0  0  0  0  0  0  0  0  0  0  0  0
  149.6391  134.5425  154.8506 C   0  0  0  0  0  0  0  0  0  0  0  0
  150.0465  133.8868  155.8095 O   0  0  0  0  0  0  0  0  0  0  0  0
  149.9440  135.8336  154.6581 N   0  0  0  0  0  0  0  0  0  0  0  0
  150.7941  136.6280  155.5370 C   0  0  0  0  0  0  0  0  0  0  0  0
  150.9654  138.0635  155.0039 C   0  0  0  0  0  0  0  0  0  0  0  0
  150.8394  139.0847  156.0739 N   0  3  2  0  0  0  0  0  0  0  0  0
  150.7119  140.4591  155.5236 C   0  0  0  0  0  0  0  0  0  0  0  0
  150.4522  141.4853  156.6391 C   0  0  0  0  0  0  0  0  0  0  0  0
  151.5582  141.4409  157.7061 C   0  0  1  0  0  0  0  0  0  0  0  0
  151.2953  142.4430  158.8389 C   0  0  0  0  0  0  0  0  0  0  0  0
  151.6909  140.0031  158.2349 C   0  0  0  0  0  0  0  0  0  0  0  0
  151.9242  139.0043  157.0885 C   0  0  0  0  0  0  0  0  0  0  0  0
  145.2576  134.4376  150.9500 H   0  0  0  0  0  0  0  0  0  0  0  0
  144.7154  133.0556  151.8953 H   0  0  0  0  0  0  0  0  0  0  0  0
  145.8241  132.8266  150.5239 H   0  0  0  0  0  0  0  0  0  0  0  0
  146.7298  129.3320  153.0542 H   0  0  0  0  0  0  0  0  0  0  0  0
  148.7085  129.4728  154.5854 H   0  0  0  0  0  0  0  0  0  0  0  0
  149.7464  131.6900  155.0038 H   0  0  0  0  0  0  0  0  0  0  0  0
  148.6904  134.7040  153.0904 H   0  0  0  0  0  0  0  0  0  0  0  0
  149.5666  136.2961  153.8435 H   0  0  0  0  0  0  0  0  0  0  0  0
  150.3326  136.6514  156.5244 H   0  0  0  0  0  0  0  0  0  0  0  0
  151.7541  136.1249  155.6558 H   0  0  0  0  0  0  0  0  0  0  0  0
  151.9234  138.1851  154.4956 H   0  0  0  0  0  0  0  0  0  0  0  0
  150.1954  138.2340  154.2498 H   0  0  0  0  0  0  0  0  0  0  0  0
  151.6194  140.7187  154.9757 H   0  0  0  0  0  0  0  0  0  0  0  0
  149.8885  140.4961  154.8096 H   0  0  0  0  0  0  0  0  0  0  0  0
  150.3884  142.4854  156.2088 H   0  0  0  0  0  0  0  0  0  0  0  0
  149.4840  141.2849  157.1000 H   0  0  0  0  0  0  0  0  0  0  0  0
  152.5012  141.7172  157.2316 H   0  0  0  0  0  0  0  0  0  0  0  0
  150.3639  142.2189  159.3598 H   0  0  0  0  0  0  0  0  0  0  0  0
  151.2244  143.4604  158.4533 H   0  0  0  0  0  0  0  0  0  0  0  0
  152.1007  142.4253  159.5737 H   0  0  0  0  0  0  0  0  0  0  0  0
  152.5154  139.9423  158.9465 H   0  0  0  0  0  0  0  0  0  0  0  0
  150.7895  139.7241  158.7828 H   0  0  0  0  0  0  0  0  0  0  0  0
  151.9807  137.9995  157.5053 H   0  0  0  0  0  0  0  0  0  0  0  0
  152.8859  139.2009  156.6114 H   0  0  0  0  0  0  0  0  0  0  0  0
  149.9709  138.8927  156.5525 H   0  0  0  0  0  0  0  0  0  0  0  0
  1  2  1  0  0  0  0
  1 22  1  0  0  0  0
  1 23  1  0  0  0  0
  1 24  1  0  0  0  0
  2  3  1  0  0  0  0
  3  8  1  0  0  0  0
  3  4  2  0  0  0  0
  4  5  1  0  0  0  0
  5  6  2  0  0  0  0
  5 25  1  0  0  0  0
  6  7  1  0  0  0  0
  6 26  1  0  0  0  0
  7  8  2  0  0  0  0
  7 27  1  0  0  0  0
  8  9  1  0  0  0  0
  9 10  1  0  0  0  0
  9 28  1  0  0  0  0
 10 11  2  0  0  0  0
 10 12  1  0  0  0  0
 12 13  1  0  0  0  0
 12 29  1  0  0  0  0
 13 14  1  0  0  0  0
 13 30  1  0  0  0  0
 13 31  1  0  0  0  0
 14 15  1  0  0  0  0
 14 32  1  0  0  0  0
 14 33  1  0  0  0  0
 15 21  1  0  0  0  0
 15 16  1  0  0  0  0
 15 46  1  0  0  0  0
 16 17  1  0  0  0  0
 16 34  1  0  0  0  0
 16 35  1  0  0  0  0
 17 18  1  0  0  0  0
 17 36  1  0  0  0  0
 17 37  1  0  0  0  0
 18 19  1  0  0  0  0
 18 20  1  0  0  0  0
 18 38  1  0  0  0  0
 19 39  1  0  0  0  0
 19 40  1  0  0  0  0
 19 41  1  0  0  0  0
 20 21  1  0  0  0  0
 20 42  1  0  0  0  0
 20 43  1  0  0  0  0
 21 44  1  0  0  0  0
 21 45  1  0  0  0  0
M  CHG  1  15   1
M  END
> <s_m_source_file>
AV-unprocessed.smi

> <i_m_source_file_index>
1951

> <i_lp_mmshare_version>
43012

> <i_f3d_flags>
0

> <s_epik_input>
W0NIM11PYzFuW2NIXVtjSF1bY0hdYzFbTkhdQyg9TylbTkhdW0NIMl1bQ0gyXU4yW0NIMl1bQ0gyXVtDSF0oW0NIM10pW0NIMl1bQ0gyXTI=

> <s_epik_cmdline>
J2VwaWtfcHl0aG9uJywgJy1waCcsICc3LjAnLCAnLXRuJywgJzgnLCAnLW1hJywgJzIwMCcsICctbWV0YWxfYmluZGluZycsICctaW1hZScsICc8aW5maWxlLm1hZT4nLCAnLW9tYWUnLCAnPG91dGZpbGUubWFlPic=

> <r_lp_tautomer_probability>
1

> <r_epik_Ionization_Penalty>
0.00147101

> <r_epik_Ionization_Penalty_Charging>
0.00139388

> <r_epik_Ionization_Penalty_Neutral>
7.71355e-05

> <r_epik_State_Penalty>
0.000929204

> <r_epik_Charging_Adjusted_Penalty>
0.00232308

> <i_epik_Tot_Q>
1

> <i_epik_Tot_abs_Q>
1

> <r_epik_Metal_State_Penalty>
-0

> <b_epik_Metal_Only>
0

> <s_lp_Force_Field>
OPLS_2005

> <r_lp_Energy>
18.8997

> <b_lp_Chiralities_Consistent>
1

> <s_lp_Variant>
AV-unprocessed.smi:1951-1

> <Gold.Version>
5.8.1

> <Gold.Id.Protein>
6NUR|6NUR_protein|mol2

> <Gold.PLP.Fitness>
38.2080

> <Gold.PLP.PLP>
-33.4582

> <Gold.PLP.part.hbond>
-2.1887

> <Gold.PLP.part.metal>
0.0000

> <Gold.PLP.part.buried>
-4.6190

> <Gold.PLP.part.nonpolar>
-27.8932

> <Gold.PLP.part.repulsive>
0.4316

> <Gold.PLP.ligand.clash>
0.0000

> <Gold.PLP.ligand.torsion>
0.4484

> <Gold.PLP.Chemscore.Hbond>
1.8760

> <Gold.PLP.Chemscore.CHOScore>
0.0000

> <Gold.PLP.Chemscore.Metal>
0.0000

> <Gold.Chemscore.Hbonds>
donor molecule, donor type, donor heavy atom, donor atom, acceptor molecule, acceptor atom, score
      L1  H     9    28       P1  7948  1.00
      L1  H    12    29       P1  7948  0.95

> <Gold.PLP.Chemscore.Internal.Correction>
0.0186

> <Gold.Rescore>
     Score         DG    S(hbond)    S(metal)    S(lipo)     H(rot)  DE(clash)    DE(int)     intcor
     12.92     -14.62       1.32        0.00      77.75       1.71       0.02       1.68       ----

> <Gold.Chemscore.Fitness>
12.9208

> <Gold.Chemscore.DG>
-14.6219

> <Gold.Chemscore.ZeroCoef>
-5.4800

> <Gold.Chemscore.Hbond>
1.3249

> <Gold.Chemscore.Metal>
0.0000

> <Gold.Chemscore.Lipo>
77.7457

> <Gold.Chemscore.Internal_Hbond>
0.0000

> <Gold.Chemscore.DEClash>
0.0203

> <Gold.Chemscore.DEInternal>
1.6808

> <Gold.Chemscore.Rot>
1.7107

> <Gold.Chemscore.Internal.Correction>
   9.000000E+99

> <Gold.Chemscore.Hbonds>
donor molecule, donor type, donor heavy atom, donor atom, acceptor molecule, acceptor atom, score
      L1  H     9    28       P1  7948  0.25
      L1  H    12    29       P1  7948  0.56

> <Gold.Chemscore.Hbond.Weighted>
-4.4251

> <Gold.Chemscore.Metal.Weighted>
-0.0000

> <Gold.Chemscore.Lipo.Weighted>
-9.0962

> <Gold.Chemscore.Internal_Hbond.Weighted>
0.0000

> <Gold.Chemscore.DEClash.Weighted>
0.0203

> <Gold.Chemscore.DEInternal.Weighted>
1.6808

> <Gold.Chemscore.Rot.Weighted>
4.3794

> <Gold.Chemscore.Internal.Correction.Weighted>
   9.000000E+99

> <Gold.Protein.RotatedTorsions>
[ 6907 6896 6895 6894 ] final  107.73 input  -60.11 | X-H torsion
[ 7974 7965 7964 7962 ] final   17.43 input  175.53 | X-H torsion
[ 8008 7997 7996 7995 ] final  -84.85 input   59.86 | X-H torsion
[ 10167 10162 10161 10158 ] final    2.30 input  -65.29 | X-H torsion
[ 10718 10713 10712 10709 ] final  174.03 input   66.30 | X-H torsion
[ 10763 10752 10751 10750 ] final  -35.10 input  -60.55 | X-H torsion
[ 11005 11000 10999 10996 ] final   54.33 input  -57.11 | X-H torsion

> <Gold.Protein.ActiveResidues>
 VAL166  LYS551  ARG553  GLY616  TRP617  ASP618  TYR619  PRO620  LYS621  CYS622 
 ASP623  PHE694  ASN695  SER759  ASP760  ASP761  ALA762  ILE779  LEU786  VAL792 
 PHE793  MET794  SER795  GLU796  ALA797  LYS798  CYS799  TRP800  GLU811  SER814 

> <Gold.Protein.RotatedAtoms>
  152.5142  133.9192  159.7525 H   0  0  0  0  0  0  0  0  0  0  0  0  # atno 6907 bound_to 6896
  150.9568  133.6481  159.2768 H   0  0  0  0  0  0  0  0  0  0  0  0  # atno 6908 bound_to 6896
  151.3740  135.0933  159.9527 H   0  0  0  0  0  0  0  0  0  0  0  0  # atno 6909 bound_to 6896
  146.2218  139.8603  142.8606 H   0  0  0  0  0  0  0  0  0  0  0  0  # atno 7974 bound_to 7965
  154.6342  140.0599  156.9769 H   0  0  0  0  0  0  0  0  0  0  0  0  # atno 8008 bound_to 7997
  155.1617  140.3283  155.4391 H   0  0  0  0  0  0  0  0  0  0  0  0  # atno 8009 bound_to 7997
  156.2499  140.1929  156.6724 H   0  0  0  0  0  0  0  0  0  0  0  0  # atno 8010 bound_to 7997
  140.6641  143.7225  150.7794 H   0  0  0  0  0  0  0  0  0  0  0  0  # atno 10167 bound_to 10162
  156.9555  131.0044  151.2939 H   0  0  0  0  0  0  0  0  0  0  0  0  # atno 10718 bound_to 10713
  153.8576  135.6843  153.4786 H   0  0  0  0  0  0  0  0  0  0  0  0  # atno 10763 bound_to 10752
  153.1360  135.4677  154.9421 H   0  0  0  0  0  0  0  0  0  0  0  0  # atno 10764 bound_to 10752
  154.7773  135.3257  154.8013 H   0  0  0  0  0  0  0  0  0  0  0  0  # atno 10765 bound_to 10752
  140.0695  134.5490  155.9062 H   0  0  0  0  0  0  0  0  0  0  0  0  # atno 11005 bound_to 11000
  145.2711  141.0109  143.3771 LP  0  0  0  0  0  0  0  0  0  0  0  0  # atno 17320 bound_to 7965
  144.9223  139.4397  143.6535 LP  0  0  0  0  0  0  0  0  0  0  0  0  # atno 17321 bound_to 7965
  140.0899  143.4887  152.2484 LP  0  0  0  0  0  0  0  0  0  0  0  0  # atno 17342 bound_to 10162
  139.5884  144.7540  151.3461 LP  0  0  0  0  0  0  0  0  0  0  0  0  # atno 17343 bound_to 10162
  157.5693  130.8299  149.8370 LP  0  0  0  0  0  0  0  0  0  0  0  0  # atno 17370 bound_to 10713
  156.0344  130.3755  150.1599 LP  0  0  0  0  0  0  0  0  0  0  0  0  # atno 17371 bound_to 10713
  141.2006  133.6613  156.5905 LP  0  0  0  0  0  0  0  0  0  0  0  0  # atno 17394 bound_to 11000
  140.3649  134.7656  157.4559 LP  0  0  0  0  0  0  0  0  0  0  0  0  # atno 17395 bound_to 11000

$$$$
