AV-unprocessed.smi:1552|AV-procd|sdf|6236|dock1
  -GOLD-   22720 6413D 1   1.00000     0.00000
 Structure written by MMmdl.
 49 50  0  0  0  0  0  0  0  0  3 V2000
  144.0657  134.7978  155.6949 C   0  0  0  0  0  0  0  0  0  0  0  0
  143.7694  134.3862  154.3027 N   0  3  0  0  0  0  0  0  0  0  0  0
  142.5625  135.0630  153.7703 C   0  0  0  0  0  0  0  0  0  0  0  0
  144.9682  134.3773  153.4053 C   0  0  2  0  0  0  0  0  0  0  0  0
  145.3557  135.7940  152.8975 C   0  0  0  0  0  0  0  0  0  0  0  0
  145.6914  136.7126  153.9831 N   0  0  0  0  0  0  0  0  0  0  0  0
  146.7072  136.6320  154.8584 C   0  0  0  0  0  0  0  0  0  0  0  0
  147.4825  135.6788  154.8219 O   0  0  0  0  0  0  0  0  0  0  0  0
  146.8984  137.7081  155.9426 C   0  0  0  0  0  0  0  0  0  0  0  0
  148.2053  138.3730  155.8210 N   0  0  0  0  0  0  0  0  0  0  0  0
  148.8442  138.3420  154.5684 C   0  0  0  0  0  0  0  0  0  0  0  0
  150.0360  138.9347  154.3633 C   0  0  0  0  0  0  0  0  0  0  0  0
  150.6659  139.6239  155.4826 C   0  0  0  0  0  0  0  0  0  0  0  0
  151.7543  140.1704  155.3147 O   0  0  0  0  0  0  0  0  0  0  0  0
  150.0056  139.6283  156.6776 N   0  5  0  0  0  0  0  0  0  0  0  0
  148.7945  139.0211  156.8713 C   0  0  0  0  0  0  0  0  0  0  0  0
  148.2177  139.0400  157.9591 O   0  0  0  0  0  0  0  0  0  0  0  0
  144.8507  133.2931  152.2913 C   0  0  0  0  0  0  0  0  0  0  0  0
  146.1040  133.2648  151.3811 C   0  0  0  0  0  0  0  0  0  0  0  0
  145.9952  132.2040  150.2739 C   0  0  0  0  0  0  0  0  0  0  0  0
  144.7368  132.4151  149.4224 C   0  0  0  0  0  0  0  0  0  0  0  0
  143.4815  132.4335  150.3041 C   0  0  0  0  0  0  0  0  0  0  0  0
  143.5920  133.4937  151.4116 C   0  0  0  0  0  0  0  0  0  0  0  0
  144.3206  135.8553  155.7596 H   0  0  0  0  0  0  0  0  0  0  0  0
  144.8922  134.2193  156.1085 H   0  0  0  0  0  0  0  0  0  0  0  0
  143.1976  134.6264  156.3320 H   0  0  0  0  0  0  0  0  0  0  0  0
  142.6875  136.1448  153.7430 H   0  0  0  0  0  0  0  0  0  0  0  0
  141.7024  134.8493  154.4054 H   0  0  0  0  0  0  0  0  0  0  0  0
  142.3168  134.7176  152.7670 H   0  0  0  0  0  0  0  0  0  0  0  0
  145.7981  134.0524  154.0350 H   0  0  0  0  0  0  0  0  0  0  0  0
  146.1683  135.7076  152.1806 H   0  0  0  0  0  0  0  0  0  0  0  0
  144.5222  136.2286  152.3452 H   0  0  0  0  0  0  0  0  0  0  0  0
  145.0572  137.4880  154.1101 H   0  0  0  0  0  0  0  0  0  0  0  0
  146.0982  138.4457  155.9672 H   0  0  0  0  0  0  0  0  0  0  0  0
  146.8250  137.2086  156.9094 H   0  0  0  0  0  0  0  0  0  0  0  0
  148.3086  137.8181  153.7903 H   0  0  0  0  0  0  0  0  0  0  0  0
  150.5117  138.9040  153.3942 H   0  0  0  0  0  0  0  0  0  0  0  0
  144.7644  132.3128  152.7605 H   0  0  0  0  0  0  0  0  0  0  0  0
  146.2530  134.2460  150.9282 H   0  0  0  0  0  0  0  0  0  0  0  0
  147.0005  133.0577  151.9656 H   0  0  0  0  0  0  0  0  0  0  0  0
  146.8814  132.2373  149.6394 H   0  0  0  0  0  0  0  0  0  0  0  0
  145.9721  131.2092  150.7205 H   0  0  0  0  0  0  0  0  0  0  0  0
  144.8160  133.3560  148.8759 H   0  0  0  0  0  0  0  0  0  0  0  0
  144.6559  131.6268  148.6734 H   0  0  0  0  0  0  0  0  0  0  0  0
  142.6010  132.6274  149.6911 H   0  0  0  0  0  0  0  0  0  0  0  0
  143.3346  131.4501  150.7528 H   0  0  0  0  0  0  0  0  0  0  0  0
  142.6865  133.4477  152.0158 H   0  0  0  0  0  0  0  0  0  0  0  0
  143.6111  134.4874  150.9621 H   0  0  0  0  0  0  0  0  0  0  0  0
  143.5106  133.4131  154.3791 H   0  0  0  0  0  0  0  0  0  0  0  0
  1  2  1  0  0  0  0
  1 24  1  0  0  0  0
  1 25  1  0  0  0  0
  1 26  1  0  0  0  0
  2  3  1  0  0  0  0
  2  4  1  0  0  0  0
  2 49  1  0  0  0  0
  3 27  1  0  0  0  0
  3 28  1  0  0  0  0
  3 29  1  0  0  0  0
  4  5  1  0  0  0  0
  4 18  1  0  0  0  0
  4 30  1  0  0  0  0
  5  6  1  0  0  0  0
  5 31  1  0  0  0  0
  5 32  1  0  0  0  0
  6  7  1  0  0  0  0
  6 33  1  0  0  0  0
  7  8  2  0  0  0  0
  7  9  1  0  0  0  0
  9 10  1  0  0  0  0
  9 34  1  0  0  0  0
  9 35  1  0  0  0  0
 10 16  1  0  0  0  0
 10 11  1  0  0  0  0
 11 12  2  0  0  0  0
 11 36  1  0  0  0  0
 12 13  1  0  0  0  0
 12 37  1  0  0  0  0
 13 14  2  0  0  0  0
 13 15  1  0  0  0  0
 15 16  1  0  0  0  0
 16 17  2  0  0  0  0
 18 23  1  0  0  0  0
 18 19  1  0  0  0  0
 18 38  1  0  0  0  0
 19 20  1  0  0  0  0
 19 39  1  0  0  0  0
 19 40  1  0  0  0  0
 20 21  1  0  0  0  0
 20 41  1  0  0  0  0
 20 42  1  0  0  0  0
 21 22  1  0  0  0  0
 21 43  1  0  0  0  0
 21 44  1  0  0  0  0
 22 23  1  0  0  0  0
 22 45  1  0  0  0  0
 22 46  1  0  0  0  0
 23 47  1  0  0  0  0
 23 48  1  0  0  0  0
M  CHG  1   2   1
M  CHG  1  15  -1
M  END
> <s_m_source_file>
AV-unprocessed.smi

> <i_m_source_file_index>
1552

> <i_lp_mmshare_version>
43012

> <i_f3d_flags>
0

> <s_epik_input>
W0NIMl0xW0NIMl1bQ0gyXVtDSDJdW0NIMl1bQ0hdMVtDQEhdKE4oW0NIM10pW0NIM10pW0NIMl1bTkhdQyg9TylbQ0gyXW4yW2NIXVtjSF1jKD1PKVtuSF1jMj1P

> <s_epik_cmdline>
J2VwaWtfcHl0aG9uJywgJy1waCcsICc3LjAnLCAnLXRuJywgJzgnLCAnLW1hJywgJzIwMCcsICctbWV0YWxfYmluZGluZycsICctaW1hZScsICc8aW5maWxlLm1hZT4nLCAnLW9tYWUnLCAnPG91dGZpbGUubWFlPic=

> <r_lp_tautomer_probability>
1

> <r_epik_Ionization_Penalty>
2.93575

> <r_epik_Ionization_Penalty_Charging>
0.00331645

> <r_epik_Ionization_Penalty_Neutral>
2.93244

> <r_epik_State_Penalty>
2.92822

> <r_epik_Charging_Adjusted_Penalty>
2.93154

> <i_epik_Tot_Q>
0

> <i_epik_Tot_abs_Q>
2

> <r_epik_Metal_State_Penalty>
0.448509

> <b_epik_Metal_Only>
1

> <s_lp_Force_Field>
OPLS_2005

> <r_lp_Energy>
39.5493

> <b_lp_Chiralities_Consistent>
1

> <s_lp_Variant>
AV-unprocessed.smi:1552-3

> <Gold.Version>
5.8.1

> <Gold.Id.Protein>
6NUR|6NUR_protein|mol2

> <Gold.PLP.Fitness>
41.3399

> <Gold.PLP.PLP>
-30.7792

> <Gold.PLP.part.hbond>
-2.0000

> <Gold.PLP.part.metal>
0.0000

> <Gold.PLP.part.buried>
-4.7928

> <Gold.PLP.part.nonpolar>
-24.1464

> <Gold.PLP.part.repulsive>
0.1328

> <Gold.PLP.ligand.clash>
0.0000

> <Gold.PLP.ligand.torsion>
0.7901

> <Gold.PLP.Chemscore.Hbond>
2.8640

> <Gold.PLP.Chemscore.CHOScore>
1.0000

> <Gold.PLP.Chemscore.Metal>
0.0000

> <Gold.Chemscore.Hbonds>
donor molecule, donor type, donor heavy atom, donor atom, acceptor molecule, acceptor atom, score
      L1  H     2    49       P1 10957  2.00
      P1  H  7989  7998       L1    14  0.88
      L1  C    11    36       P1  7948  0.90

> <Gold.PLP.Chemscore.Internal.Correction>
0.5490

> <Gold.Rescore>
     Score         DG    S(hbond)    S(metal)    S(lipo)     H(rot)  DE(clash)    DE(int)     intcor
     12.22     -14.82       1.92        0.00      78.32       2.43       0.05       2.55       ----

> <Gold.Chemscore.Fitness>
12.2217

> <Gold.Chemscore.DG>
-14.8223

> <Gold.Chemscore.ZeroCoef>
-5.4800

> <Gold.Chemscore.Hbond>
1.9166

> <Gold.Chemscore.Metal>
0.0000

> <Gold.Chemscore.Lipo>
78.3159

> <Gold.Chemscore.Internal_Hbond>
0.0000

> <Gold.Chemscore.DEClash>
0.0537

> <Gold.Chemscore.DEInternal>
2.5470

> <Gold.Chemscore.Rot>
2.4305

> <Gold.Chemscore.Internal.Correction>
   9.000000E+99

> <Gold.Chemscore.Hbonds>
donor molecule, donor type, donor heavy atom, donor atom, acceptor molecule, acceptor atom, score
      L1  H     2    49       P1 10957  1.00
      P1  H  7989  7998       L1    14  0.38

> <Gold.Chemscore.Hbond.Weighted>
-6.4013

> <Gold.Chemscore.Metal.Weighted>
-0.0000

> <Gold.Chemscore.Lipo.Weighted>
-9.1630

> <Gold.Chemscore.Internal_Hbond.Weighted>
0.0000

> <Gold.Chemscore.DEClash.Weighted>
0.0537

> <Gold.Chemscore.DEInternal.Weighted>
2.5470

> <Gold.Chemscore.Rot.Weighted>
6.2220

> <Gold.Chemscore.Internal.Correction.Weighted>
   9.000000E+99

> <Gold.Protein.RotatedTorsions>
[ 6907 6896 6895 6894 ] final   83.36 input  -60.11 | X-H torsion
[ 7974 7965 7964 7962 ] final  -22.77 input  175.53 | X-H torsion
[ 8008 7997 7996 7995 ] final -165.07 input   59.86 | X-H torsion
[ 10167 10162 10161 10158 ] final    2.50 input  -65.29 | X-H torsion
[ 10718 10713 10712 10709 ] final  -25.96 input   66.30 | X-H torsion
[ 10763 10752 10751 10750 ] final   52.61 input  -60.55 | X-H torsion
[ 11005 11000 10999 10996 ] final  160.33 input  -57.11 | X-H torsion

> <Gold.Protein.ActiveResidues>
 VAL166  LYS551  ARG553  GLY616  TRP617  ASP618  TYR619  PRO620  LYS621  CYS622 
 ASP623  PHE694  ASN695  SER759  ASP760  ASP761  ALA762  ILE779  LEU786  VAL792 
 PHE793  MET794  SER795  GLU796  ALA797  LYS798  CYS799  TRP800  GLU811  SER814 

> <Gold.Protein.RotatedAtoms>
  152.5325  134.2908  159.9041 H   0  0  0  0  0  0  0  0  0  0  0  0  # atno 6907 bound_to 6896
  151.2860  133.4181  159.2637 H   0  0  0  0  0  0  0  0  0  0  0  0  # atno 6908 bound_to 6896
  151.0242  134.9507  159.8133 H   0  0  0  0  0  0  0  0  0  0  0  0  # atno 6909 bound_to 6896
  146.1656  140.4525  142.8553 H   0  0  0  0  0  0  0  0  0  0  0  0  # atno 7974 bound_to 7965
  155.8446  140.0953  157.1713 H   0  0  0  0  0  0  0  0  0  0  0  0  # atno 8008 bound_to 7997
  154.3983  140.1394  156.3831 H   0  0  0  0  0  0  0  0  0  0  0  0  # atno 8009 bound_to 7997
  155.8028  140.3452  155.5415 H   0  0  0  0  0  0  0  0  0  0  0  0  # atno 8010 bound_to 7997
  140.6632  143.7249  150.7777 H   0  0  0  0  0  0  0  0  0  0  0  0  # atno 10167 bound_to 10162
  156.4574  130.4497  149.6950 H   0  0  0  0  0  0  0  0  0  0  0  0  # atno 10718 bound_to 10713
  152.9790  135.5807  154.4606 H   0  0  0  0  0  0  0  0  0  0  0  0  # atno 10763 bound_to 10752
  154.4183  135.2771  155.1994 H   0  0  0  0  0  0  0  0  0  0  0  0  # atno 10764 bound_to 10752
  154.3754  135.6158  153.5816 H   0  0  0  0  0  0  0  0  0  0  0  0  # atno 10765 bound_to 10752
  140.2049  134.8310  157.3058 H   0  0  0  0  0  0  0  0  0  0  0  0  # atno 11005 bound_to 11000
  144.8087  140.6347  143.6429 LP  0  0  0  0  0  0  0  0  0  0  0  0  # atno 17320 bound_to 7965
  145.4476  139.1527  143.3936 LP  0  0  0  0  0  0  0  0  0  0  0  0  # atno 17321 bound_to 7965
  140.0921  143.4867  152.2473 LP  0  0  0  0  0  0  0  0  0  0  0  0  # atno 17342 bound_to 10162
  139.5872  144.7536  151.3490 LP  0  0  0  0  0  0  0  0  0  0  0  0  # atno 17343 bound_to 10162
  156.3752  130.7551  151.2538 LP  0  0  0  0  0  0  0  0  0  0  0  0  # atno 17370 bound_to 10713
  157.7500  131.0311  150.4169 LP  0  0  0  0  0  0  0  0  0  0  0  0  # atno 17371 bound_to 10713
  140.2013  134.4251  155.7661 LP  0  0  0  0  0  0  0  0  0  0  0  0  # atno 17394 bound_to 11000
  141.2227  133.7073  156.8189 LP  0  0  0  0  0  0  0  0  0  0  0  0  # atno 17395 bound_to 11000

$$$$
