AV-unprocessed.smi:564|AV-procd|sdf|2947|dock6
  -GOLD-   2262023443D 1   1.00000     0.00000
 Structure written by MMmdl.
 50 51  0  0  0  0  0  0  0  0  2 V2000
  150.0776  145.4261  159.9754 C   0  0  0  0  0  0  0  0  0  0  0  0
  151.2205  144.5477  160.3980 C   0  0  0  0  0  0  0  0  0  0  0  0
  151.5332  144.4705  161.6801 N   0  0  0  0  0  0  0  0  0  0  0  0
  152.5873  143.6325  161.7302 N   0  0  0  0  0  0  0  0  0  0  0  0
  153.1902  143.3385  163.0162 C   0  0  0  0  0  0  0  0  0  0  0  0
  152.9349  143.1683  160.4755 C   0  0  0  0  0  0  0  0  0  0  0  0
  154.0717  142.2220  160.2558 C   0  0  0  0  0  0  0  0  0  0  0  0
  152.0692  143.7422  159.5824 C   0  0  0  0  0  0  0  0  0  0  0  0
  152.0099  143.5741  158.0840 C   0  0  0  0  0  0  0  0  0  0  0  0
  151.2411  142.2963  157.7522 C   0  0  0  0  0  0  0  0  0  0  0  0
  151.6273  141.2117  158.1863 O   0  0  0  0  0  0  0  0  0  0  0  0
  150.1769  142.4327  156.9460 N   0  0  0  0  0  0  0  0  0  0  0  0
  149.4042  141.3295  156.3828 C   0  0  0  0  0  0  0  0  0  0  0  0
  150.2199  140.4890  155.3734 C   0  0  0  0  0  0  0  0  0  0  0  0
  149.3738  139.5785  154.5468 N   0  3  2  0  0  0  0  0  0  0  0  0
  148.0923  140.2367  154.1658 C   0  0  0  0  0  0  0  0  0  0  0  0
  147.2760  139.3827  153.1884 C   0  0  0  0  0  0  0  0  0  0  0  0
  146.9912  138.0070  153.7899 C   0  0  0  0  0  0  0  0  0  0  0  0
  148.3126  137.3405  154.1796 C   0  0  0  0  0  0  0  0  0  0  0  0
  149.1537  138.2172  155.1348 C   0  0  1  0  0  0  0  0  0  0  0  0
  150.4690  137.4727  155.4449 C   0  0  0  0  0  0  0  0  0  0  0  0
  149.5497  145.0048  159.1198 H   0  0  0  0  0  0  0  0  0  0  0  0
  150.4331  146.4167  159.6911 H   0  0  0  0  0  0  0  0  0  0  0  0
  149.3500  145.5508  160.7786 H   0  0  0  0  0  0  0  0  0  0  0  0
  154.2682  143.2191  162.9059 H   0  0  0  0  0  0  0  0  0  0  0  0
  152.7674  142.4186  163.4193 H   0  0  0  0  0  0  0  0  0  0  0  0
  153.0021  144.1520  163.7184 H   0  0  0  0  0  0  0  0  0  0  0  0
  153.9859  141.7183  159.2934 H   0  0  0  0  0  0  0  0  0  0  0  0
  154.1022  141.4531  161.0274 H   0  0  0  0  0  0  0  0  0  0  0  0
  155.0226  142.7545  160.2722 H   0  0  0  0  0  0  0  0  0  0  0  0
  151.5149  144.4227  157.6103 H   0  0  0  0  0  0  0  0  0  0  0  0
  153.0054  143.5205  157.6420 H   0  0  0  0  0  0  0  0  0  0  0  0
  149.9216  143.3657  156.6555 H   0  0  0  0  0  0  0  0  0  0  0  0
  149.0249  140.6931  157.1841 H   0  0  0  0  0  0  0  0  0  0  0  0
  148.5254  141.7535  155.8973 H   0  0  0  0  0  0  0  0  0  0  0  0
  150.7457  141.2031  154.7456 H   0  0  0  0  0  0  0  0  0  0  0  0
  150.9965  139.9198  155.8859 H   0  0  0  0  0  0  0  0  0  0  0  0
  147.5059  140.4376  155.0640 H   0  0  0  0  0  0  0  0  0  0  0  0
  148.2864  141.2002  153.6960 H   0  0  0  0  0  0  0  0  0  0  0  0
  146.3393  139.8847  152.9446 H   0  0  0  0  0  0  0  0  0  0  0  0
  147.8229  139.2726  152.2526 H   0  0  0  0  0  0  0  0  0  0  0  0
  146.3508  138.1075  154.6671 H   0  0  0  0  0  0  0  0  0  0  0  0
  146.4518  137.3858  153.0743 H   0  0  0  0  0  0  0  0  0  0  0  0
  148.1040  136.3755  154.6428 H   0  0  0  0  0  0  0  0  0  0  0  0
  148.8862  137.1269  153.2774 H   0  0  0  0  0  0  0  0  0  0  0  0
  148.5999  138.3376  156.0675 H   0  0  0  0  0  0  0  0  0  0  0  0
  150.2784  136.4253  155.6807 H   0  0  0  0  0  0  0  0  0  0  0  0
  150.9888  137.8831  156.3096 H   0  0  0  0  0  0  0  0  0  0  0  0
  151.1491  137.4971  154.5935 H   0  0  0  0  0  0  0  0  0  0  0  0
  149.8872  139.4245  153.6904 H   0  0  0  0  0  0  0  0  0  0  0  0
  1  2  1  0  0  0  0
  1 22  1  0  0  0  0
  1 23  1  0  0  0  0
  1 24  1  0  0  0  0
  2  8  1  0  0  0  0
  2  3  2  0  0  0  0
  3  4  1  0  0  0  0
  4  5  1  0  0  0  0
  4  6  1  0  0  0  0
  5 25  1  0  0  0  0
  5 26  1  0  0  0  0
  5 27  1  0  0  0  0
  6  7  1  0  0  0  0
  6  8  2  0  0  0  0
  7 28  1  0  0  0  0
  7 29  1  0  0  0  0
  7 30  1  0  0  0  0
  8  9  1  0  0  0  0
  9 10  1  0  0  0  0
  9 31  1  0  0  0  0
  9 32  1  0  0  0  0
 10 11  2  0  0  0  0
 10 12  1  0  0  0  0
 12 13  1  0  0  0  0
 12 33  1  0  0  0  0
 13 14  1  0  0  0  0
 13 34  1  0  0  0  0
 13 35  1  0  0  0  0
 14 15  1  0  0  0  0
 14 36  1  0  0  0  0
 14 37  1  0  0  0  0
 15 20  1  0  0  0  0
 15 16  1  0  0  0  0
 15 50  1  0  0  0  0
 16 17  1  0  0  0  0
 16 38  1  0  0  0  0
 16 39  1  0  0  0  0
 17 18  1  0  0  0  0
 17 40  1  0  0  0  0
 17 41  1  0  0  0  0
 18 19  1  0  0  0  0
 18 42  1  0  0  0  0
 18 43  1  0  0  0  0
 19 20  1  0  0  0  0
 19 44  1  0  0  0  0
 19 45  1  0  0  0  0
 20 21  1  0  0  0  0
 20 46  1  0  0  0  0
 21 47  1  0  0  0  0
 21 48  1  0  0  0  0
 21 49  1  0  0  0  0
M  CHG  1  15   1
M  END
> <s_m_source_file>
AV-unprocessed.smi

> <i_m_source_file_index>
564

> <i_lp_mmshare_version>
43012

> <i_f3d_flags>
0

> <s_epik_input>
W0NIM11jMW5uKFtDSDNdKWMoW0NIM10pYzFbQ0gyXUMoPU8pW05IXVtDSDJdW0NIMl1OMltDSDJdW0NIMl1bQ0gyXVtDSDJdW0NASF0yW0NIM10=

> <s_epik_cmdline>
J2VwaWtfcHl0aG9uJywgJy1waCcsICc3LjAnLCAnLXRuJywgJzgnLCAnLW1hJywgJzIwMCcsICctbWV0YWxfYmluZGluZycsICctaW1hZScsICc8aW5maWxlLm1hZT4nLCAnLW9tYWUnLCAnPG91dGZpbGUubWFlPic=

> <r_lp_tautomer_probability>
1

> <r_epik_Ionization_Penalty>
0.00456826

> <r_epik_Ionization_Penalty_Charging>
0.00240401

> <r_epik_Ionization_Penalty_Neutral>
0.00216425

> <r_epik_State_Penalty>
-0

> <r_epik_Charging_Adjusted_Penalty>
0.00240401

> <i_epik_Tot_Q>
1

> <i_epik_Tot_abs_Q>
1

> <r_epik_Metal_State_Penalty>
-0

> <b_epik_Metal_Only>
0

> <s_lp_Force_Field>
OPLS_2005

> <r_lp_Energy>
16.6365

> <b_lp_Chiralities_Consistent>
1

> <s_lp_Variant>
AV-unprocessed.smi:564-1

> <Gold.Version>
5.8.1

> <Gold.Id.Protein>
6NUR|6NUR_protein|mol2

> <Gold.PLP.Fitness>
48.8456

> <Gold.PLP.PLP>
-44.7420

> <Gold.PLP.part.hbond>
-2.0000

> <Gold.PLP.part.metal>
0.0000

> <Gold.PLP.part.buried>
0.9362

> <Gold.PLP.part.nonpolar>
-43.0735

> <Gold.PLP.part.repulsive>
0.3740

> <Gold.PLP.ligand.clash>
0.0000

> <Gold.PLP.ligand.torsion>
0.6883

> <Gold.PLP.Chemscore.Hbond>
1.8160

> <Gold.PLP.Chemscore.CHOScore>
0.0000

> <Gold.PLP.Chemscore.Metal>
0.0000

> <Gold.Chemscore.Hbonds>
donor molecule, donor type, donor heavy atom, donor atom, acceptor molecule, acceptor atom, score
      L1  H    12    33       P1  8028  1.00

> <Gold.PLP.Chemscore.Internal.Correction>
0.0323

> <Gold.Rescore>
     Score         DG    S(hbond)    S(metal)    S(lipo)     H(rot)  DE(clash)    DE(int)     intcor
     16.65     -22.61       1.78        0.00     130.84       1.61       5.54       0.42       ----

> <Gold.Chemscore.Fitness>
16.6530

> <Gold.Chemscore.DG>
-22.6127

> <Gold.Chemscore.ZeroCoef>
-5.4800

> <Gold.Chemscore.Hbond>
1.7835

> <Gold.Chemscore.Metal>
0.0000

> <Gold.Chemscore.Lipo>
130.8393

> <Gold.Chemscore.Internal_Hbond>
0.0000

> <Gold.Chemscore.DEClash>
5.5352

> <Gold.Chemscore.DEInternal>
0.4245

> <Gold.Chemscore.Rot>
1.6142

> <Gold.Chemscore.Internal.Correction>
   9.000000E+99

> <Gold.Chemscore.Hbonds>
donor molecule, donor type, donor heavy atom, donor atom, acceptor molecule, acceptor atom, score
      L1  H    12    33       P1  8028  0.97

> <Gold.Chemscore.Hbond.Weighted>
-5.9569

> <Gold.Chemscore.Metal.Weighted>
-0.0000

> <Gold.Chemscore.Lipo.Weighted>
-15.3082

> <Gold.Chemscore.Internal_Hbond.Weighted>
0.0000

> <Gold.Chemscore.DEClash.Weighted>
5.5352

> <Gold.Chemscore.DEInternal.Weighted>
0.4245

> <Gold.Chemscore.Rot.Weighted>
4.1324

> <Gold.Chemscore.Internal.Correction.Weighted>
   9.000000E+99

> <Gold.Protein.RotatedTorsions>
[ 6907 6896 6895 6894 ] final  -53.07 input  -60.11 | X-H torsion
[ 7974 7965 7964 7962 ] final -148.79 input  175.53 | X-H torsion
[ 8008 7997 7996 7995 ] final -121.24 input   59.86 | X-H torsion
[ 10167 10162 10161 10158 ] final  -93.37 input  -65.29 | X-H torsion
[ 10718 10713 10712 10709 ] final -156.94 input   66.30 | X-H torsion
[ 10763 10752 10751 10750 ] final   17.49 input  -60.55 | X-H torsion
[ 11005 11000 10999 10996 ] final  140.89 input  -57.11 | X-H torsion

> <Gold.Protein.ActiveResidues>
 VAL166  LYS551  ARG553  GLY616  TRP617  ASP618  TYR619  PRO620  LYS621  CYS622 
 ASP623  PHE694  ASN695  SER759  ASP760  ASP761  ALA762  ILE779  LEU786  VAL792 
 PHE793  MET794  SER795  GLU796  ALA797  LYS798  CYS799  TRP800  GLU811  SER814 

> <Gold.Protein.RotatedAtoms>
  150.8460  134.7769  159.6970 H   0  0  0  0  0  0  0  0  0  0  0  0  # atno 6907 bound_to 6896
  152.4537  134.5336  159.9828 H   0  0  0  0  0  0  0  0  0  0  0  0  # atno 6908 bound_to 6896
  151.5466  133.3386  159.2981 H   0  0  0  0  0  0  0  0  0  0  0  0  # atno 6909 bound_to 6896
  144.8007  140.5150  143.5709 H   0  0  0  0  0  0  0  0  0  0  0  0  # atno 7974 bound_to 7965
  155.1449  140.0402  157.2807 H   0  0  0  0  0  0  0  0  0  0  0  0  # atno 8008 bound_to 7997
  154.6446  140.2555  155.7256 H   0  0  0  0  0  0  0  0  0  0  0  0  # atno 8009 bound_to 7997
  156.2549  140.2848  156.0854 H   0  0  0  0  0  0  0  0  0  0  0  0  # atno 8010 bound_to 7997
  140.3253  143.3025  152.0002 H   0  0  0  0  0  0  0  0  0  0  0  0  # atno 10167 bound_to 10162
  156.5334  130.8531  151.2724 H   0  0  0  0  0  0  0  0  0  0  0  0  # atno 10718 bound_to 10713
  153.1334  135.6745  153.9142 H   0  0  0  0  0  0  0  0  0  0  0  0  # atno 10763 bound_to 10752
  153.8621  135.3080  155.3439 H   0  0  0  0  0  0  0  0  0  0  0  0  # atno 10764 bound_to 10752
  154.7727  135.4931  153.9763 H   0  0  0  0  0  0  0  0  0  0  0  0  # atno 10765 bound_to 10752
  140.0360  134.9328  157.0754 H   0  0  0  0  0  0  0  0  0  0  0  0  # atno 11005 bound_to 11000
  145.5559  139.1478  143.3368 LP  0  0  0  0  0  0  0  0  0  0  0  0  # atno 17320 bound_to 7965
  146.2288  140.5696  142.8984 LP  0  0  0  0  0  0  0  0  0  0  0  0  # atno 17321 bound_to 7965
  139.4866  144.6278  151.7129 LP  0  0  0  0  0  0  0  0  0  0  0  0  # atno 17342 bound_to 10162
  140.5446  144.0523  150.6102 LP  0  0  0  0  0  0  0  0  0  0  0  0  # atno 17343 bound_to 10162
  157.7418  130.9877  150.2469 LP  0  0  0  0  0  0  0  0  0  0  0  0  # atno 17370 bound_to 10713
  156.3038  130.3762  149.7725 LP  0  0  0  0  0  0  0  0  0  0  0  0  # atno 17371 bound_to 10713
  140.4146  134.1945  155.7163 LP  0  0  0  0  0  0  0  0  0  0  0  0  # atno 17394 bound_to 11000
  141.1858  133.8316  157.1092 LP  0  0  0  0  0  0  0  0  0  0  0  0  # atno 17395 bound_to 11000

$$$$
