AV-unprocessed.smi:3031|AV-procd|sdf|11550|dock1
  -GOLD-   2272016503D 1   1.00000     0.00000
 Structure written by MMmdl.
 48 49  0  0  0  0  0  0  0  0  3 V2000
  151.2740  141.2735  158.2438 C   0  0  0  0  0  0  0  0  0  0  0  0
  150.7677  141.0543  156.8472 C   0  0  0  0  0  0  0  0  0  0  0  0
  151.1639  140.0479  155.9208 C   0  0  0  0  0  0  0  0  0  0  0  0
  150.5205  140.1289  154.7675 N   0  0  0  0  0  0  0  0  0  0  0  0
  149.6953  141.1869  154.9153 N   0  0  0  0  0  0  0  0  0  0  0  0
  148.8175  141.5768  153.8266 C   0  0  0  0  0  0  0  0  0  0  0  0
  147.3296  141.2544  154.1014 C   0  0  1  0  0  0  0  0  0  0  0  0
  146.6517  142.2919  155.0128 C   0  0  0  0  0  0  0  0  0  0  0  0
  146.5676  141.1509  152.8366 N   0  3  0  0  0  0  0  0  0  0  0  0
  146.9281  140.0107  151.9646 C   0  0  0  0  0  0  0  0  0  0  0  0
  146.6273  138.6661  152.6510 C   0  0  2  0  0  0  0  0  0  0  0  0
  147.8265  138.1718  153.2162 O   0  0  0  0  0  0  0  0  0  0  0  0
  146.0894  137.6167  151.6556 C   0  0  0  0  0  0  0  0  0  0  0  0
  146.0692  136.2437  152.2238 N   0  3  0  0  0  0  0  0  0  0  0  0
  145.3805  136.1536  153.5360 C   0  0  0  0  0  0  0  0  0  0  0  0
  145.4325  134.7134  154.0745 C   0  0  0  0  0  0  0  0  0  0  0  0
  144.8516  133.8284  153.1255 O   0  0  0  0  0  0  0  0  0  0  0  0
  145.5561  133.8364  151.8905 C   0  0  0  0  0  0  0  0  0  0  0  0
  145.5098  135.2473  151.2790 C   0  0  0  0  0  0  0  0  0  0  0  0
  149.8219  141.7627  156.1617 C   0  0  0  0  0  0  0  0  0  0  0  0
  152.1298  140.6370  158.4698 H   0  0  0  0  0  0  0  0  0  0  0  0
  150.5073  141.0558  158.9876 H   0  0  0  0  0  0  0  0  0  0  0  0
  151.5914  142.3045  158.3998 H   0  0  0  0  0  0  0  0  0  0  0  0
  151.8957  139.2645  156.0524 H   0  0  0  0  0  0  0  0  0  0  0  0
  148.9433  142.6452  153.6421 H   0  0  0  0  0  0  0  0  0  0  0  0
  149.1656  141.0662  152.9288 H   0  0  0  0  0  0  0  0  0  0  0  0
  147.2677  140.2912  154.6105 H   0  0  0  0  0  0  0  0  0  0  0  0
  147.1101  142.3198  156.0015 H   0  0  0  0  0  0  0  0  0  0  0  0
  145.5965  142.0578  155.1573 H   0  0  0  0  0  0  0  0  0  0  0  0
  146.7150  143.2944  154.5881 H   0  0  0  0  0  0  0  0  0  0  0  0
  145.5920  141.0432  153.0767 H   0  0  0  0  0  0  0  0  0  0  0  0
  146.3511  140.0760  151.0425 H   0  0  0  0  0  0  0  0  0  0  0  0
  147.9814  140.0721  151.6861 H   0  0  0  0  0  0  0  0  0  0  0  0
  145.9061  138.8350  153.4504 H   0  0  0  0  0  0  0  0  0  0  0  0
  148.1477  137.4610  152.6813 H   0  0  0  0  0  0  0  0  0  0  0  0
  145.0818  137.8786  151.3283 H   0  0  0  0  0  0  0  0  0  0  0  0
  146.7111  137.6372  150.7586 H   0  0  0  0  0  0  0  0  0  0  0  0
  145.8422  136.8239  154.2599 H   0  0  0  0  0  0  0  0  0  0  0  0
  144.3414  136.4689  153.4273 H   0  0  0  0  0  0  0  0  0  0  0  0
  146.4594  134.4141  154.2908 H   0  0  0  0  0  0  0  0  0  0  0  0
  144.8765  134.6421  155.0095 H   0  0  0  0  0  0  0  0  0  0  0  0
  146.5863  133.5104  152.0429 H   0  0  0  0  0  0  0  0  0  0  0  0
  145.0916  133.1185  151.2144 H   0  0  0  0  0  0  0  0  0  0  0  0
  144.4809  135.5141  151.0321 H   0  0  0  0  0  0  0  0  0  0  0  0
  146.0774  135.2597  150.3477 H   0  0  0  0  0  0  0  0  0  0  0  0
  149.2357  142.6207  156.4557 H   0  0  0  0  0  0  0  0  0  0  0  0
  146.6728  142.0137  152.3222 H   0  0  0  0  0  0  0  0  0  0  0  0
  147.0326  135.9784  152.3738 H   0  0  0  0  0  0  0  0  0  0  0  0
  1  2  1  0  0  0  0
  1 21  1  0  0  0  0
  1 22  1  0  0  0  0
  1 23  1  0  0  0  0
  2 20  2  0  0  0  0
  2  3  1  0  0  0  0
  3  4  2  0  0  0  0
  3 24  1  0  0  0  0
  4  5  1  0  0  0  0
  5  6  1  0  0  0  0
  5 20  1  0  0  0  0
  6  7  1  0  0  0  0
  6 25  1  0  0  0  0
  6 26  1  0  0  0  0
  7  8  1  0  0  0  0
  7  9  1  0  0  0  0
  7 27  1  0  0  0  0
  8 28  1  0  0  0  0
  8 29  1  0  0  0  0
  8 30  1  0  0  0  0
  9 10  1  0  0  0  0
  9 31  1  0  0  0  0
  9 47  1  0  0  0  0
 10 11  1  0  0  0  0
 10 32  1  0  0  0  0
 10 33  1  0  0  0  0
 11 12  1  0  0  0  0
 11 13  1  0  0  0  0
 11 34  1  0  0  0  0
 12 35  1  0  0  0  0
 13 14  1  0  0  0  0
 13 36  1  0  0  0  0
 13 37  1  0  0  0  0
 14 19  1  0  0  0  0
 14 15  1  0  0  0  0
 14 48  1  0  0  0  0
 15 16  1  0  0  0  0
 15 38  1  0  0  0  0
 15 39  1  0  0  0  0
 16 17  1  0  0  0  0
 16 40  1  0  0  0  0
 16 41  1  0  0  0  0
 17 18  1  0  0  0  0
 18 19  1  0  0  0  0
 18 42  1  0  0  0  0
 18 43  1  0  0  0  0
 19 44  1  0  0  0  0
 19 45  1  0  0  0  0
 20 46  1  0  0  0  0
M  CHG  1   9   1
M  CHG  1  14   1
M  END
> <s_m_source_file>
AV-unprocessed.smi

> <i_m_source_file_index>
3031

> <i_lp_mmshare_version>
43012

> <i_f3d_flags>
0

> <s_epik_input>
W0NIM11jMVtjSF1ubihbY0hdMSlbQ0gyXVtDQEhdKFtDSDNdKVtOSF1bQ0gyXVtDQEhdKFtPSF0pW0NIMl1OMltDSDJdW0NIMl1PW0NIMl1bQ0gyXTI=

> <s_epik_cmdline>
J2VwaWtfcHl0aG9uJywgJy1waCcsICc3LjAnLCAnLXRuJywgJzgnLCAnLW1hJywgJzIwMCcsICctbWV0YWxfYmluZGluZycsICctaW1hZScsICc8aW5maWxlLm1hZT4nLCAnLW9tYWUnLCAnPG91dGZpbGUubWFlPic=

> <r_lp_tautomer_probability>
1

> <r_epik_Ionization_Penalty>
1.76542

> <r_epik_Ionization_Penalty_Charging>
1.76348

> <r_epik_Ionization_Penalty_Neutral>
0.00194017

> <r_epik_State_Penalty>
1.49348

> <r_epik_Charging_Adjusted_Penalty>
3.25696

> <i_epik_Tot_Q>
2

> <i_epik_Tot_abs_Q>
2

> <r_epik_Metal_State_Penalty>
1.49349

> <b_epik_Metal_Only>
0

> <s_lp_Force_Field>
OPLS_2005

> <r_lp_Energy>
28.4524

> <b_lp_Chiralities_Consistent>
1

> <s_lp_Variant>
AV-unprocessed.smi:3031-10

> <Gold.Version>
5.8.1

> <Gold.Id.Protein>
6NUR|6NUR_protein|mol2

> <Gold.PLP.Fitness>
52.7430

> <Gold.PLP.PLP>
-33.6988

> <Gold.PLP.part.hbond>
-4.7186

> <Gold.PLP.part.metal>
0.0000

> <Gold.PLP.part.buried>
5.3019

> <Gold.PLP.part.nonpolar>
-34.8760

> <Gold.PLP.part.repulsive>
0.2520

> <Gold.PLP.ligand.clash>
0.0000

> <Gold.PLP.ligand.torsion>
1.0015

> <Gold.PLP.Chemscore.Hbond>
5.8240

> <Gold.PLP.Chemscore.CHOScore>
0.9921

> <Gold.PLP.Chemscore.Metal>
0.0000

> <Gold.Chemscore.Hbonds>
donor molecule, donor type, donor heavy atom, donor atom, acceptor molecule, acceptor atom, score
      L1  H     9    31       P1 10175  1.75
      L1  H    12    35       P1  7948  1.00
      L1  H    14    48       P1  7948  1.89
      P1  H  7989  7998       L1     4  0.85
      L1  C    20    46       P1  8028  1.00

> <Gold.PLP.Chemscore.Internal.Correction>
0.5991

> <Gold.Rescore>
     Score         DG    S(hbond)    S(metal)    S(lipo)     H(rot)  DE(clash)    DE(int)     intcor
     16.48     -18.20       3.07        0.00      81.05       2.74       0.69       1.02       ----

> <Gold.Chemscore.Fitness>
16.4808

> <Gold.Chemscore.DG>
-18.1966

> <Gold.Chemscore.ZeroCoef>
-5.4800

> <Gold.Chemscore.Hbond>
3.0711

> <Gold.Chemscore.Metal>
0.0000

> <Gold.Chemscore.Lipo>
81.0451

> <Gold.Chemscore.Internal_Hbond>
0.0000

> <Gold.Chemscore.DEClash>
0.6937

> <Gold.Chemscore.DEInternal>
1.0222

> <Gold.Chemscore.Rot>
2.7434

> <Gold.Chemscore.Internal.Correction>
   9.000000E+99

> <Gold.Chemscore.Hbonds>
donor molecule, donor type, donor heavy atom, donor atom, acceptor molecule, acceptor atom, score
      L1  H     9    31       P1 10175  0.24
      L1  H    12    35       P1  7948  1.00
      L1  H    14    48       P1  7948  0.89
      P1  H  7989  7998       L1     4  0.11

> <Gold.Chemscore.Hbond.Weighted>
-10.2574

> <Gold.Chemscore.Metal.Weighted>
-0.0000

> <Gold.Chemscore.Lipo.Weighted>
-9.4823

> <Gold.Chemscore.Internal_Hbond.Weighted>
0.0000

> <Gold.Chemscore.DEClash.Weighted>
0.6937

> <Gold.Chemscore.DEInternal.Weighted>
1.0222

> <Gold.Chemscore.Rot.Weighted>
7.0231

> <Gold.Chemscore.Internal.Correction.Weighted>
   9.000000E+99

> <Gold.Protein.RotatedTorsions>
[ 6907 6896 6895 6894 ] final -122.57 input  -60.11 | X-H torsion
[ 7974 7965 7964 7962 ] final  138.47 input  175.53 | X-H torsion
[ 8008 7997 7996 7995 ] final  146.04 input   59.86 | X-H torsion
[ 10167 10162 10161 10158 ] final  -15.62 input  -65.29 | X-H torsion
[ 10718 10713 10712 10709 ] final    1.30 input   66.30 | X-H torsion
[ 10763 10752 10751 10750 ] final   14.62 input  -60.55 | X-H torsion
[ 11005 11000 10999 10996 ] final  151.29 input  -57.11 | X-H torsion

> <Gold.Protein.ActiveResidues>
 VAL166  LYS551  ARG553  GLY616  TRP617  ASP618  TYR619  PRO620  LYS621  CYS622 
 ASP623  PHE694  ASN695  SER759  ASP760  ASP761  ALA762  ILE779  LEU786  VAL792 
 PHE793  MET794  SER795  GLU796  ALA797  LYS798  CYS799  TRP800  GLU811  SER814 

> <Gold.Protein.RotatedAtoms>
  150.8589  133.7674  159.2999 H   0  0  0  0  0  0  0  0  0  0  0  0  # atno 6907 bound_to 6896
  151.5323  135.1067  159.9915 H   0  0  0  0  0  0  0  0  0  0  0  0  # atno 6908 bound_to 6896
  152.4611  133.7780  159.6891 H   0  0  0  0  0  0  0  0  0  0  0  0  # atno 6909 bound_to 6896
  144.9370  139.4977  143.5590 H   0  0  0  0  0  0  0  0  0  0  0  0  # atno 7974 bound_to 7965
  156.2867  140.2193  156.5312 H   0  0  0  0  0  0  0  0  0  0  0  0  # atno 8008 bound_to 7997
  154.7447  140.0485  157.0864 H   0  0  0  0  0  0  0  0  0  0  0  0  # atno 8009 bound_to 7997
  155.0186  140.3121  155.4805 H   0  0  0  0  0  0  0  0  0  0  0  0  # atno 8010 bound_to 7997
  140.7221  143.5199  150.9646 H   0  0  0  0  0  0  0  0  0  0  0  0  # atno 10167 bound_to 10162
  156.8462  130.5538  149.5673 H   0  0  0  0  0  0  0  0  0  0  0  0  # atno 10718 bound_to 10713
  153.1605  135.6795  153.8750 H   0  0  0  0  0  0  0  0  0  0  0  0  # atno 10763 bound_to 10752
  153.8147  135.3138  155.3405 H   0  0  0  0  0  0  0  0  0  0  0  0  # atno 10764 bound_to 10752
  154.7928  135.4824  154.0182 H   0  0  0  0  0  0  0  0  0  0  0  0  # atno 10765 bound_to 10752
  140.1206  134.8866  157.2066 H   0  0  0  0  0  0  0  0  0  0  0  0  # atno 11005 bound_to 11000
  146.3270  139.8361  142.8899 LP  0  0  0  0  0  0  0  0  0  0  0  0  # atno 17320 bound_to 7965
  145.3052  141.0205  143.3586 LP  0  0  0  0  0  0  0  0  0  0  0  0  # atno 17321 bound_to 7965
  139.8916  143.6946  152.3144 LP  0  0  0  0  0  0  0  0  0  0  0  0  # atno 17342 bound_to 10162
  139.7264  144.7592  151.0872 LP  0  0  0  0  0  0  0  0  0  0  0  0  # atno 17343 bound_to 10162
  156.0853  130.5853  150.9637 LP  0  0  0  0  0  0  0  0  0  0  0  0  # atno 17370 bound_to 10713
  157.6329  131.0919  150.8406 LP  0  0  0  0  0  0  0  0  0  0  0  0  # atno 17371 bound_to 10713
  140.2970  134.3175  155.7299 LP  0  0  0  0  0  0  0  0  0  0  0  0  # atno 17394 bound_to 11000
  141.2151  133.7569  156.9586 LP  0  0  0  0  0  0  0  0  0  0  0  0  # atno 17395 bound_to 11000

$$$$
