AV-unprocessed.smi:219|AV-procd|sdf|1681|dock4
  -GOLD-   2262020113D 1   1.00000     0.00000
 Structure written by MMmdl.
 50 53  0  0  0  0  0  0  0  0  1 V2000
  151.1928  143.3622  156.7974 N   0  0  0  0  0  0  0  0  0  0  0  0
  151.1225  142.3019  157.6058 C   0  0  0  0  0  0  0  0  0  0  0  0
  152.1210  141.8067  158.1246 O   0  0  0  0  0  0  0  0  0  0  0  0
  149.7348  141.6904  157.8368 C   0  0  0  0  0  0  0  0  0  0  0  0
  149.1980  140.8060  156.6721 C   0  0  1  0  0  0  0  0  0  0  0  0
  149.1741  141.6499  155.3760 C   0  0  0  0  0  0  0  0  0  0  0  0
  148.6801  140.8444  154.1672 C   0  0  0  0  0  0  0  0  0  0  0  0
  149.5318  139.5824  154.0020 C   0  0  0  0  0  0  0  0  0  0  0  0
  149.5127  138.7612  155.2968 C   0  0  0  0  0  0  0  0  0  0  0  0
  149.9557  139.5598  156.4416 N   0  0  0  0  0  0  0  0  0  0  0  0
  150.1654  138.7790  157.5248 C   0  0  0  0  0  0  0  0  0  0  0  0
  151.3993  138.7198  158.0928 N   0  0  0  0  0  0  0  0  0  0  0  0
  151.6092  137.9221  159.1442 C   0  0  0  0  0  0  0  0  0  0  0  0
  150.7472  137.1125  159.7637 N   0  0  0  0  0  0  0  0  0  0  0  0
  149.5099  137.1722  159.1912 C   0  0  0  0  0  0  0  0  0  0  0  0
  149.1334  137.9838  158.0859 C   0  0  0  0  0  0  0  0  0  0  0  0
  147.7926  137.7907  157.7822 N   0  0  0  0  0  0  0  0  0  0  0  0
  147.4001  136.9002  158.6521 C   0  0  0  0  0  0  0  0  0  0  0  0
  148.3710  136.4608  159.5250 N   0  0  0  0  0  0  0  0  0  0  0  0
  148.2149  135.4624  160.5713 C   0  0  0  0  0  0  0  0  0  0  0  0
  147.3153  135.9336  161.7388 C   0  0  2  0  0  0  0  0  0  0  0  0
  148.0007  136.9355  162.4710 O   0  0  0  0  0  0  0  0  0  0  0  0
  146.9481  134.8091  162.6979 C   0  0  0  0  0  0  0  0  0  0  0  0
  145.6076  135.2690  163.2547 C   0  0  0  0  0  0  0  0  0  0  0  0
  144.9669  135.8302  162.1216 O   0  0  0  0  0  0  0  0  0  0  0  0
  145.9394  136.4920  161.3173 C   0  0  0  0  0  0  0  0  0  0  0  0
  152.0864  143.7984  156.6219 H   0  0  0  0  0  0  0  0  0  0  0  0
  150.3548  143.7271  156.3687 H   0  0  0  0  0  0  0  0  0  0  0  0
  149.8184  141.0912  158.7446 H   0  0  0  0  0  0  0  0  0  0  0  0
  149.0180  142.4773  158.0757 H   0  0  0  0  0  0  0  0  0  0  0  0
  148.1686  140.5207  156.8950 H   0  0  0  0  0  0  0  0  0  0  0  0
  148.5360  142.5244  155.5082 H   0  0  0  0  0  0  0  0  0  0  0  0
  150.1762  142.0283  155.1686 H   0  0  0  0  0  0  0  0  0  0  0  0
  147.6337  140.5701  154.3077 H   0  0  0  0  0  0  0  0  0  0  0  0
  148.7274  141.4520  153.2634 H   0  0  0  0  0  0  0  0  0  0  0  0
  149.1599  138.9820  153.1718 H   0  0  0  0  0  0  0  0  0  0  0  0
  150.5582  139.8575  153.7554 H   0  0  0  0  0  0  0  0  0  0  0  0
  148.5017  138.3926  155.4771 H   0  0  0  0  0  0  0  0  0  0  0  0
  150.1558  137.8871  155.1826 H   0  0  0  0  0  0  0  0  0  0  0  0
  152.6138  137.9272  159.5408 H   0  0  0  0  0  0  0  0  0  0  0  0
  146.3868  136.5265  158.6724 H   0  0  0  0  0  0  0  0  0  0  0  0
  147.8023  134.5587  160.1212 H   0  0  0  0  0  0  0  0  0  0  0  0
  149.2056  135.1948  160.9406 H   0  0  0  0  0  0  0  0  0  0  0  0
  148.1816  136.6016  163.3364 H   0  0  0  0  0  0  0  0  0  0  0  0
  146.8038  133.8764  162.1508 H   0  0  0  0  0  0  0  0  0  0  0  0
  147.6962  134.6279  163.4710 H   0  0  0  0  0  0  0  0  0  0  0  0
  145.0253  134.4535  163.6840 H   0  0  0  0  0  0  0  0  0  0  0  0
  145.7419  136.0377  164.0173 H   0  0  0  0  0  0  0  0  0  0  0  0
  145.8708  137.5727  161.4512 H   0  0  0  0  0  0  0  0  0  0  0  0
  145.7074  136.2791  160.2748 H   0  0  0  0  0  0  0  0  0  0  0  0
  1  2  1  0  0  0  0
  1 27  1  0  0  0  0
  1 28  1  0  0  0  0
  2  3  2  0  0  0  0
  2  4  1  0  0  0  0
  4  5  1  0  0  0  0
  4 29  1  0  0  0  0
  4 30  1  0  0  0  0
  5 10  1  0  0  0  0
  5  6  1  0  0  0  0
  5 31  1  0  0  0  0
  6  7  1  0  0  0  0
  6 32  1  0  0  0  0
  6 33  1  0  0  0  0
  7  8  1  0  0  0  0
  7 34  1  0  0  0  0
  7 35  1  0  0  0  0
  8  9  1  0  0  0  0
  8 36  1  0  0  0  0
  8 37  1  0  0  0  0
  9 10  1  0  0  0  0
  9 38  1  0  0  0  0
  9 39  1  0  0  0  0
 10 11  1  0  0  0  0
 11 16  1  0  0  0  0
 11 12  2  0  0  0  0
 12 13  1  0  0  0  0
 13 14  2  0  0  0  0
 13 40  1  0  0  0  0
 14 15  1  0  0  0  0
 15 19  1  0  0  0  0
 15 16  2  0  0  0  0
 16 17  1  0  0  0  0
 17 18  2  0  0  0  0
 18 19  1  0  0  0  0
 18 41  1  0  0  0  0
 19 20  1  0  0  0  0
 20 21  1  0  0  0  0
 20 42  1  0  0  0  0
 20 43  1  0  0  0  0
 21 26  1  0  0  0  0
 21 22  1  0  0  0  0
 21 23  1  0  0  0  0
 22 44  1  0  0  0  0
 23 24  1  0  0  0  0
 23 45  1  0  0  0  0
 23 46  1  0  0  0  0
 24 25  1  0  0  0  0
 24 47  1  0  0  0  0
 24 48  1  0  0  0  0
 25 26  1  0  0  0  0
 26 49  1  0  0  0  0
 26 50  1  0  0  0  0
M  END
> <s_m_source_file>
AV-unprocessed.smi

> <i_m_source_file_index>
219

> <i_lp_mmshare_version>
43012

> <i_f3d_flags>
0

> <s_epik_input>
W05IMl1DKD1PKVtDSDJdW0NAQEhdMVtDSDJdW0NIMl1bQ0gyXVtDSDJdTjFjKG5bY0hdbjIpYyhjMjMpbltjSF1uM1tDSDJdW0NAQF00KFtPSF0pW0NIMl1bQ0gyXU9bQ0gyXTQ=

> <s_epik_cmdline>
J2VwaWtfcHl0aG9uJywgJy1waCcsICc3LjAnLCAnLXRuJywgJzgnLCAnLW1hJywgJzIwMCcsICctbWV0YWxfYmluZGluZycsICctaW1hZScsICc8aW5maWxlLm1hZT4nLCAnLW9tYWUnLCAnPG91dGZpbGUubWFlPic=

> <r_lp_tautomer_probability>
1

> <r_epik_Ionization_Penalty>
0.00228532

> <r_epik_Ionization_Penalty_Charging>
0

> <r_epik_Ionization_Penalty_Neutral>
0.00228532

> <r_epik_State_Penalty>
0.00140978

> <r_epik_Charging_Adjusted_Penalty>
0.00140978

> <i_epik_Tot_Q>
0

> <i_epik_Tot_abs_Q>
0

> <r_epik_Metal_State_Penalty>
-0

> <b_epik_Metal_Only>
0

> <s_lp_Force_Field>
OPLS_2005

> <r_lp_Energy>
35.4504

> <b_lp_Chiralities_Consistent>
1

> <s_lp_Variant>
AV-unprocessed.smi:219-4

> <Gold.Version>
5.8.1

> <Gold.Id.Protein>
6NUR|6NUR_protein|mol2

> <Gold.PLP.Fitness>
42.7322

> <Gold.PLP.PLP>
-34.7315

> <Gold.PLP.part.hbond>
-3.0335

> <Gold.PLP.part.metal>
0.0000

> <Gold.PLP.part.buried>
-2.1202

> <Gold.PLP.part.nonpolar>
-29.1716

> <Gold.PLP.part.repulsive>
0.0144

> <Gold.PLP.ligand.clash>
0.0000

> <Gold.PLP.ligand.torsion>
0.5882

> <Gold.PLP.Chemscore.Hbond>
2.9588

> <Gold.PLP.Chemscore.CHOScore>
0.0000

> <Gold.PLP.Chemscore.Metal>
0.0000

> <Gold.Chemscore.Hbonds>
donor molecule, donor type, donor heavy atom, donor atom, acceptor molecule, acceptor atom, score
      L1  H     1    28       P1  8028  1.00
      P1  H  6896  6908       L1    14  0.96
      P1  H  6931  6943       L1    22  1.00

> <Gold.PLP.Chemscore.Internal.Correction>
0.3008

> <Gold.Rescore>
     Score         DG    S(hbond)    S(metal)    S(lipo)     H(rot)  DE(clash)    DE(int)     intcor
     11.20     -14.11       2.65        0.00      71.94       3.37       1.32       1.59       ----

> <Gold.Chemscore.Fitness>
11.2036

> <Gold.Chemscore.DG>
-14.1144

> <Gold.Chemscore.ZeroCoef>
-5.4800

> <Gold.Chemscore.Hbond>
2.6477

> <Gold.Chemscore.Metal>
0.0000

> <Gold.Chemscore.Lipo>
71.9448

> <Gold.Chemscore.Internal_Hbond>
0.0000

> <Gold.Chemscore.DEClash>
1.3228

> <Gold.Chemscore.DEInternal>
1.5880

> <Gold.Chemscore.Rot>
3.3697

> <Gold.Chemscore.Internal.Correction>
   9.000000E+99

> <Gold.Chemscore.Hbonds>
donor molecule, donor type, donor heavy atom, donor atom, acceptor molecule, acceptor atom, score
      L1  H     1    28       P1  8028  1.00
      P1  H  6896  6908       L1    14  0.52
      P1  H  6931  6943       L1    22  0.87

> <Gold.Chemscore.Hbond.Weighted>
-8.8433

> <Gold.Chemscore.Metal.Weighted>
-0.0000

> <Gold.Chemscore.Lipo.Weighted>
-8.4175

> <Gold.Chemscore.Internal_Hbond.Weighted>
0.0000

> <Gold.Chemscore.DEClash.Weighted>
1.3228

> <Gold.Chemscore.DEInternal.Weighted>
1.5880

> <Gold.Chemscore.Rot.Weighted>
8.6264

> <Gold.Chemscore.Internal.Correction.Weighted>
   9.000000E+99

> <Gold.Protein.RotatedTorsions>
[ 6907 6896 6895 6894 ] final -139.14 input  -60.11 | X-H torsion
[ 7974 7965 7964 7962 ] final -165.10 input  175.53 | X-H torsion
[ 8008 7997 7996 7995 ] final   74.85 input   59.86 | X-H torsion
[ 10167 10162 10161 10158 ] final  151.48 input  -65.29 | X-H torsion
[ 10718 10713 10712 10709 ] final   27.90 input   66.30 | X-H torsion
[ 10763 10752 10751 10750 ] final  -32.72 input  -60.55 | X-H torsion
[ 11005 11000 10999 10996 ] final  135.29 input  -57.11 | X-H torsion

> <Gold.Protein.ActiveResidues>
 VAL166  LYS551  ARG553  GLY616  TRP617  ASP618  TYR619  PRO620  LYS621  CYS622 
 ASP623  PHE694  ASN695  SER759  ASP760  ASP761  ALA762  ILE779  LEU786  VAL792 
 PHE793  MET794  SER795  GLU796  ALA797  LYS798  CYS799  TRP800  GLU811  SER814 

> <Gold.Protein.RotatedAtoms>
  151.0439  133.5682  159.2648 H   0  0  0  0  0  0  0  0  0  0  0  0  # atno 6907 bound_to 6896
  151.2718  135.0686  159.9146 H   0  0  0  0  0  0  0  0  0  0  0  0  # atno 6908 bound_to 6896
  152.5369  134.0168  159.8017 H   0  0  0  0  0  0  0  0  0  0  0  0  # atno 6909 bound_to 6896
  144.7279  140.2864  143.6227 H   0  0  0  0  0  0  0  0  0  0  0  0  # atno 7974 bound_to 7965
  155.8044  140.3475  155.5421 H   0  0  0  0  0  0  0  0  0  0  0  0  # atno 8008 bound_to 7997
  155.8505  140.0955  157.1698 H   0  0  0  0  0  0  0  0  0  0  0  0  # atno 8009 bound_to 7997
  154.4007  140.1377  156.3825 H   0  0  0  0  0  0  0  0  0  0  0  0  # atno 8010 bound_to 7997
  139.4840  144.5437  151.7520 H   0  0  0  0  0  0  0  0  0  0  0  0  # atno 10167 bound_to 10162
  157.2263  130.7003  149.6293 H   0  0  0  0  0  0  0  0  0  0  0  0  # atno 10718 bound_to 10713
  153.8183  135.6876  153.4831 H   0  0  0  0  0  0  0  0  0  0  0  0  # atno 10763 bound_to 10752
  153.1585  135.4589  154.9736 H   0  0  0  0  0  0  0  0  0  0  0  0  # atno 10764 bound_to 10752
  154.7938  135.3311  154.7658 H   0  0  0  0  0  0  0  0  0  0  0  0  # atno 10765 bound_to 10752
  139.9970  134.9493  156.9986 H   0  0  0  0  0  0  0  0  0  0  0  0  # atno 11005 bound_to 11000
  145.7899  139.1923  143.2109 LP  0  0  0  0  0  0  0  0  0  0  0  0  # atno 17320 bound_to 7965
  146.0765  140.7812  142.9662 LP  0  0  0  0  0  0  0  0  0  0  0  0  # atno 17321 bound_to 7965
  140.4981  144.1211  150.5964 LP  0  0  0  0  0  0  0  0  0  0  0  0  # atno 17342 bound_to 10162
  140.4094  143.2664  151.9851 LP  0  0  0  0  0  0  0  0  0  0  0  0  # atno 17343 bound_to 10162
  155.9678  130.4503  150.5693 LP  0  0  0  0  0  0  0  0  0  0  0  0  # atno 17370 bound_to 10713
  157.3524  131.0736  151.1703 LP  0  0  0  0  0  0  0  0  0  0  0  0  # atno 17371 bound_to 10713
  140.4799  134.1300  155.7215 LP  0  0  0  0  0  0  0  0  0  0  0  0  # atno 17394 bound_to 11000
  141.1612  133.8789  157.1842 LP  0  0  0  0  0  0  0  0  0  0  0  0  # atno 17395 bound_to 11000

$$$$
