AV-unprocessed.smi:99|AV-procd|sdf|870|dock5
  -GOLD-   2262017333D 1   1.00000     0.00000
 Structure written by MMmdl.
 53 56  0  0  0  0  0  0  0  0  1 V2000
  153.7364  138.7607  158.1305 O   0  0  0  0  0  0  0  0  0  0  0  0
  152.5960  139.2287  158.1467 C   0  0  0  0  0  0  0  0  0  0  0  0
  151.4807  138.4766  158.0736 O   0  0  0  0  0  0  0  0  0  0  0  0
  151.5839  137.0732  157.9004 C   0  0  0  0  0  0  0  0  0  0  0  0
  150.9280  136.6756  156.5712 C   0  0  1  0  0  0  0  0  0  0  0  0
  151.4021  135.4150  156.1233 O   0  0  0  0  0  0  0  0  0  0  0  0
  150.5003  134.9097  155.1904 C   0  0  1  0  0  0  0  0  0  0  0  0
  150.4620  133.4079  155.3635 N   0  0  0  0  0  0  0  0  0  0  0  0
  151.3011  132.7880  156.2791 C   0  0  0  0  0  0  0  0  0  0  0  0
  151.3436  131.4470  156.4580 C   0  0  0  0  0  0  0  0  0  0  0  0
  150.4903  130.5689  155.6652 C   0  0  0  0  0  0  0  0  0  0  0  0
  150.4527  129.3439  155.7576 O   0  0  0  0  0  0  0  0  0  0  0  0
  149.6757  131.2314  154.7425 N   0  0  0  0  0  0  0  0  0  0  0  0
  149.6267  132.6129  154.5463 C   0  0  0  0  0  0  0  0  0  0  0  0
  148.8700  133.0805  153.6966 O   0  0  0  0  0  0  0  0  0  0  0  0
  149.1251  135.5493  155.4598 C   0  0  2  0  0  0  0  0  0  0  0  0
  148.6538  136.2964  154.3564 O   0  0  0  0  0  0  0  0  0  0  0  0
  149.4069  136.4911  156.6297 C   0  0  1  0  0  0  0  0  0  0  0  0
  149.0285  135.8887  157.8627 O   0  0  0  0  0  0  0  0  0  0  0  0
  148.7196  136.6377  158.9412 C   0  0  0  0  0  0  0  0  0  0  0  0
  148.9008  137.8549  159.0033 O   0  0  0  0  0  0  0  0  0  0  0  0
  148.1238  135.8336  160.0463 C   0  0  0  0  0  0  0  0  0  0  0  0
  147.8056  136.4663  161.2705 C   0  0  0  0  0  0  0  0  0  0  0  0
  147.2380  135.7326  162.3305 C   0  0  0  0  0  0  0  0  0  0  0  0
  146.9813  134.3575  162.1787 C   0  0  0  0  0  0  0  0  0  0  0  0
  147.2932  133.7164  160.9657 C   0  0  0  0  0  0  0  0  0  0  0  0
  147.8612  134.4481  159.9048 C   0  0  0  0  0  0  0  0  0  0  0  0
  152.3069  140.6882  158.2513 C   0  0  0  0  0  0  0  0  0  0  0  0
  151.2265  141.2345  157.5198 C   0  0  0  0  0  0  0  0  0  0  0  0
  150.9293  142.6091  157.5975 C   0  0  0  0  0  0  0  0  0  0  0  0
  151.7092  143.4543  158.4079 C   0  0  0  0  0  0  0  0  0  0  0  0
  152.7861  142.9231  159.1413 C   0  0  0  0  0  0  0  0  0  0  0  0
  153.0847  141.5485  159.0650 C   0  0  0  0  0  0  0  0  0  0  0  0
  149.0731  130.6615  154.1669 H   0  0  0  0  0  0  0  0  0  0  0  0
  152.6286  136.7592  157.9215 H   0  0  0  0  0  0  0  0  0  0  0  0
  151.0734  136.5786  158.7279 H   0  0  0  0  0  0  0  0  0  0  0  0
  151.1571  137.4200  155.8061 H   0  0  0  0  0  0  0  0  0  0  0  0
  150.8801  135.1359  154.1934 H   0  0  0  0  0  0  0  0  0  0  0  0
  151.9615  133.3937  156.8795 H   0  0  0  0  0  0  0  0  0  0  0  0
  152.0167  131.0216  157.1884 H   0  0  0  0  0  0  0  0  0  0  0  0
  148.3790  134.7920  155.7043 H   0  0  0  0  0  0  0  0  0  0  0  0
  148.7794  135.7869  153.5706 H   0  0  0  0  0  0  0  0  0  0  0  0
  148.9033  137.4535  156.5220 H   0  0  0  0  0  0  0  0  0  0  0  0
  147.9935  137.5211  161.4103 H   0  0  0  0  0  0  0  0  0  0  0  0
  146.9993  136.2263  163.2609 H   0  0  0  0  0  0  0  0  0  0  0  0
  146.5469  133.7949  162.9921 H   0  0  0  0  0  0  0  0  0  0  0  0
  147.0971  132.6608  160.8482 H   0  0  0  0  0  0  0  0  0  0  0  0
  148.0886  133.9239  158.9879 H   0  0  0  0  0  0  0  0  0  0  0  0
  150.6137  140.6054  156.8902 H   0  0  0  0  0  0  0  0  0  0  0  0
  150.1019  143.0146  157.0340 H   0  0  0  0  0  0  0  0  0  0  0  0
  151.4817  144.5084  158.4672 H   0  0  0  0  0  0  0  0  0  0  0  0
  153.3851  143.5708  159.7641 H   0  0  0  0  0  0  0  0  0  0  0  0
  153.9180  141.1739  159.6410 H   0  0  0  0  0  0  0  0  0  0  0  0
  1  2  2  0  0  0  0
  2  3  1  0  0  0  0
  2 28  1  0  0  0  0
  3  4  1  0  0  0  0
  4  5  1  0  0  0  0
  4 35  1  0  0  0  0
  4 36  1  0  0  0  0
  5 18  1  0  0  0  0
  5  6  1  0  0  0  0
  5 37  1  0  0  0  0
  6  7  1  0  0  0  0
  7  8  1  0  0  0  0
  7 16  1  0  0  0  0
  7 38  1  0  0  0  0
  8 14  1  0  0  0  0
  8  9  1  0  0  0  0
  9 10  2  0  0  0  0
  9 39  1  0  0  0  0
 10 11  1  0  0  0  0
 10 40  1  0  0  0  0
 11 12  2  0  0  0  0
 11 13  1  0  0  0  0
 13 34  1  0  0  0  0
 13 14  1  0  0  0  0
 14 15  2  0  0  0  0
 16 17  1  0  0  0  0
 16 18  1  0  0  0  0
 16 41  1  0  0  0  0
 17 42  1  0  0  0  0
 18 19  1  0  0  0  0
 18 43  1  0  0  0  0
 19 20  1  0  0  0  0
 20 21  2  0  0  0  0
 20 22  1  0  0  0  0
 22 27  1  0  0  0  0
 22 23  2  0  0  0  0
 23 24  1  0  0  0  0
 23 44  1  0  0  0  0
 24 25  2  0  0  0  0
 24 45  1  0  0  0  0
 25 26  1  0  0  0  0
 25 46  1  0  0  0  0
 26 27  2  0  0  0  0
 26 47  1  0  0  0  0
 27 48  1  0  0  0  0
 28 33  1  0  0  0  0
 28 29  2  0  0  0  0
 29 30  1  0  0  0  0
 29 49  1  0  0  0  0
 30 31  2  0  0  0  0
 30 50  1  0  0  0  0
 31 32  1  0  0  0  0
 31 51  1  0  0  0  0
 32 33  2  0  0  0  0
 32 52  1  0  0  0  0
 33 53  1  0  0  0  0
M  END
> <s_m_source_file>
AV-unprocessed.smi

> <i_m_source_file_index>
99

> <i_lp_mmshare_version>
43012

> <i_f3d_flags>
0

> <s_epik_input>
W2NIXTFbY0hdW2NIXVtjSF1bY0hdYzFDKD1PKU9bQ0gyXVtDQEBIXTJPW0NAQEhdKG4zW2NIXVtjSF1jKD1PKVtuSF1jMz1PKVtDQEBIXShbT0hdKVtDQEhdMk9DKD1PKWM0W2NIXVtjSF1bY0hdW2NIXVtjSF00

> <s_epik_cmdline>
J2VwaWtfcHl0aG9uJywgJy1waCcsICc3LjAnLCAnLXRuJywgJzgnLCAnLW1hJywgJzIwMCcsICctbWV0YWxfYmluZGluZycsICctaW1hZScsICc8aW5maWxlLm1hZT4nLCAnLW9tYWUnLCAnPG91dGZpbGUubWFlPic=

> <r_lp_tautomer_probability>
1

> <r_epik_Ionization_Penalty>
0.00454555

> <r_epik_Ionization_Penalty_Charging>
0.0045191

> <r_epik_Ionization_Penalty_Neutral>
2.64449e-05

> <r_epik_State_Penalty>
-0

> <r_epik_Charging_Adjusted_Penalty>
0.0045191

> <i_epik_Tot_Q>
0

> <i_epik_Tot_abs_Q>
0

> <r_epik_Metal_State_Penalty>
1.27877

> <b_epik_Metal_Only>
0

> <s_epik_Chemistry_Notes>
This compound has an ester and may undergo hydrolysis at high or low pH. This compound contains an acetal/aminal-like group ( X-CH(R)-Y where X, Y are N, S, or O) that may be acid/base labile, releasing an aldehyde.

> <s_lp_Force_Field>
OPLS_2005

> <r_lp_Energy>
31.5911

> <b_lp_Chiralities_Consistent>
1

> <s_lp_Variant>
AV-unprocessed.smi:99-6

> <Gold.Version>
5.8.1

> <Gold.Id.Protein>
6NUR|6NUR_protein|mol2

> <Gold.PLP.Fitness>
62.3989

> <Gold.PLP.PLP>
-56.0979

> <Gold.PLP.part.hbond>
-4.7474

> <Gold.PLP.part.metal>
0.0000

> <Gold.PLP.part.buried>
-7.7261

> <Gold.PLP.part.nonpolar>
-44.0001

> <Gold.PLP.part.repulsive>
0.2178

> <Gold.PLP.ligand.clash>
0.0000

> <Gold.PLP.ligand.torsion>
1.6006

> <Gold.PLP.Chemscore.Hbond>
2.9425

> <Gold.PLP.Chemscore.CHOScore>
0.0000

> <Gold.PLP.Chemscore.Metal>
0.0000

> <Gold.Chemscore.Hbonds>
donor molecule, donor type, donor heavy atom, donor atom, acceptor molecule, acceptor atom, score
      L1  H    17    42       P1  7948  0.67
      P1  H  7997  8008       L1     1  1.00
      P1  H 10752 10764       L1     6  0.98

> <Gold.PLP.Chemscore.Internal.Correction>
0.6747

> <Gold.Rescore>
     Score         DG    S(hbond)    S(metal)    S(lipo)     H(rot)  DE(clash)    DE(int)     intcor
     16.41     -19.15       2.35        0.00     119.47       3.19       0.01       2.72       ----

> <Gold.Chemscore.Fitness>
16.4113

> <Gold.Chemscore.DG>
-19.1475

> <Gold.Chemscore.ZeroCoef>
-5.4800

> <Gold.Chemscore.Hbond>
2.3522

> <Gold.Chemscore.Metal>
0.0000

> <Gold.Chemscore.Lipo>
119.4714

> <Gold.Chemscore.Internal_Hbond>
0.0000

> <Gold.Chemscore.DEClash>
0.0148

> <Gold.Chemscore.DEInternal>
2.7214

> <Gold.Chemscore.Rot>
3.1903

> <Gold.Chemscore.Internal.Correction>
   9.000000E+99

> <Gold.Chemscore.Hbonds>
donor molecule, donor type, donor heavy atom, donor atom, acceptor molecule, acceptor atom, score
      L1  H    17    42       P1  7948  0.66
      P1  H  7997  8008       L1     1  0.60
      P1  H 10752 10764       L1     6  0.33

> <Gold.Chemscore.Hbond.Weighted>
-7.8565

> <Gold.Chemscore.Metal.Weighted>
-0.0000

> <Gold.Chemscore.Lipo.Weighted>
-13.9782

> <Gold.Chemscore.Internal_Hbond.Weighted>
0.0000

> <Gold.Chemscore.DEClash.Weighted>
0.0148

> <Gold.Chemscore.DEInternal.Weighted>
2.7214

> <Gold.Chemscore.Rot.Weighted>
8.1671

> <Gold.Chemscore.Internal.Correction.Weighted>
   9.000000E+99

> <Gold.Protein.RotatedTorsions>
[ 6907 6896 6895 6894 ] final  -65.29 input  -60.11 | X-H torsion
[ 7974 7965 7964 7962 ] final  134.82 input  175.53 | X-H torsion
[ 8008 7997 7996 7995 ] final -102.95 input   59.86 | X-H torsion
[ 10167 10162 10161 10158 ] final  151.97 input  -65.29 | X-H torsion
[ 10718 10713 10712 10709 ] final  -61.98 input   66.30 | X-H torsion
[ 10763 10752 10751 10750 ] final  -27.21 input  -60.55 | X-H torsion
[ 11005 11000 10999 10996 ] final  115.57 input  -57.11 | X-H torsion

> <Gold.Protein.ActiveResidues>
 VAL166  LYS551  ARG553  GLY616  TRP617  ASP618  TYR619  PRO620  LYS621  CYS622 
 ASP623  PHE694  ASN695  SER759  ASP760  ASP761  ALA762  ILE779  LEU786  VAL792 
 PHE793  MET794  SER795  GLU796  ALA797  LYS798  CYS799  TRP800  GLU811  SER814 

> <Gold.Protein.RotatedAtoms>
  150.7533  134.6180  159.6120 H   0  0  0  0  0  0  0  0  0  0  0  0  # atno 6907 bound_to 6896
  152.3495  134.7022  160.0249 H   0  0  0  0  0  0  0  0  0  0  0  0  # atno 6908 bound_to 6896
  151.7448  133.3288  159.3412 H   0  0  0  0  0  0  0  0  0  0  0  0  # atno 6909 bound_to 6896
  144.9725  139.4590  143.5426 H   0  0  0  0  0  0  0  0  0  0  0  0  # atno 7974 bound_to 7965
  154.8639  140.0425  157.1683 H   0  0  0  0  0  0  0  0  0  0  0  0  # atno 8008 bound_to 7997
  154.8810  140.2972  155.5404 H   0  0  0  0  0  0  0  0  0  0  0  0  # atno 8009 bound_to 7997
  156.2999  140.2411  156.3813 H   0  0  0  0  0  0  0  0  0  0  0  0  # atno 8010 bound_to 7997
  139.4836  144.5396  151.7586 H   0  0  0  0  0  0  0  0  0  0  0  0  # atno 10167 bound_to 10162
  156.0885  130.4204  150.1070 H   0  0  0  0  0  0  0  0  0  0  0  0  # atno 10718 bound_to 10713
  153.7284  135.6940  153.4995 H   0  0  0  0  0  0  0  0  0  0  0  0  # atno 10763 bound_to 10752
  153.2153  135.4388  155.0426 H   0  0  0  0  0  0  0  0  0  0  0  0  # atno 10764 bound_to 10752
  154.8261  135.3447  154.6815 H   0  0  0  0  0  0  0  0  0  0  0  0  # atno 10765 bound_to 10752
  139.9014  134.9586  156.7065 H   0  0  0  0  0  0  0  0  0  0  0  0  # atno 11005 bound_to 11000
  146.3386  139.8947  142.8803 LP  0  0  0  0  0  0  0  0  0  0  0  0  # atno 17320 bound_to 7965
  145.2538  141.0053  143.3866 LP  0  0  0  0  0  0  0  0  0  0  0  0  # atno 17321 bound_to 7965
  140.4934  144.1276  150.5955 LP  0  0  0  0  0  0  0  0  0  0  0  0  # atno 17342 bound_to 10162
  140.4145  143.2641  151.9792 LP  0  0  0  0  0  0  0  0  0  0  0  0  # atno 17343 bound_to 10162
  156.9085  130.9644  151.3566 LP  0  0  0  0  0  0  0  0  0  0  0  0  # atno 17370 bound_to 10713
  157.6028  130.8525  149.8828 LP  0  0  0  0  0  0  0  0  0  0  0  0  # atno 17371 bound_to 10713
  140.7109  133.9224  155.8084 LP  0  0  0  0  0  0  0  0  0  0  0  0  # atno 17394 bound_to 11000
  141.0301  134.0768  157.4024 LP  0  0  0  0  0  0  0  0  0  0  0  0  # atno 17395 bound_to 11000

$$$$
