AV-unprocessed.smi:623|AV-procd|sdf|3093|dock4
  -GOLD-   22720 0 13D 1   1.00000     0.00000
 Structure written by MMmdl.
 45 47  0  0  0  0  0  0  0  0  1 V2000
  144.8983  135.8879  159.3751 C   0  0  0  0  0  0  0  0  0  0  0  0
  145.6778  135.7049  160.7086 C   0  0  0  0  0  0  0  0  0  0  0  0
  145.1071  136.7910  161.6640 C   0  0  0  0  0  0  0  0  0  0  0  0
  145.6336  134.2724  161.2777 C   0  0  2  0  0  0  0  0  0  0  0  0
  146.5575  134.3456  162.5148 C   0  0  0  0  0  0  0  0  0  0  0  0
  147.6557  135.3270  162.0551 C   0  0  0  0  0  0  0  0  0  0  0  0
  147.2288  135.6624  160.6023 C   0  0  2  0  0  0  0  0  0  0  0  0
  147.9030  136.9424  160.0698 C   0  0  0  0  0  0  0  0  0  0  0  0
  147.5306  134.3652  159.7892 C   0  0  2  0  0  0  0  0  0  0  0  0
  147.5626  134.5892  158.3467 N   0  0  0  0  0  0  0  0  0  0  0  0
  148.5970  134.3934  157.5134 C   0  0  0  0  0  0  0  0  0  0  0  0
  149.6804  133.9399  157.8789 O   0  0  0  0  0  0  0  0  0  0  0  0
  148.4030  134.7866  156.0385 C   0  0  0  0  0  0  0  0  0  0  0  0
  149.0848  136.0348  155.6541 N   0  0  0  0  0  0  0  0  0  0  0  0
  148.3395  137.1501  155.2978 C   0  0  0  0  0  0  0  0  0  0  0  0
  148.8916  138.3159  154.8869 C   0  0  0  0  0  0  0  0  0  0  0  0
  150.3410  138.4551  154.7973 C   0  0  0  0  0  0  0  0  0  0  0  0
  150.9348  139.4677  154.4339 O   0  0  0  0  0  0  0  0  0  0  0  0
  151.0560  137.3123  155.1648 N   0  0  0  0  0  0  0  0  0  0  0  0
  150.4935  136.1074  155.5883 C   0  0  0  0  0  0  0  0  0  0  0  0
  151.2170  135.1546  155.8742 O   0  0  0  0  0  0  0  0  0  0  0  0
  146.3775  133.4301  160.2158 C   0  0  0  0  0  0  0  0  0  0  0  0
  152.0634  137.3608  155.1169 H   0  0  0  0  0  0  0  0  0  0  0  0
  143.8230  135.8478  159.5516 H   0  0  0  0  0  0  0  0  0  0  0  0
  145.0981  135.1422  158.6111 H   0  0  0  0  0  0  0  0  0  0  0  0
  145.1114  136.8598  158.9294 H   0  0  0  0  0  0  0  0  0  0  0  0
  145.5476  136.8128  162.6581 H   0  0  0  0  0  0  0  0  0  0  0  0
  144.0352  136.6505  161.8080 H   0  0  0  0  0  0  0  0  0  0  0  0
  145.2448  137.7870  161.2424 H   0  0  0  0  0  0  0  0  0  0  0  0
  144.6355  133.8971  161.5047 H   0  0  0  0  0  0  0  0  0  0  0  0
  146.0290  134.7237  163.3901 H   0  0  0  0  0  0  0  0  0  0  0  0
  146.9651  133.3706  162.7846 H   0  0  0  0  0  0  0  0  0  0  0  0
  147.6788  136.2139  162.6884 H   0  0  0  0  0  0  0  0  0  0  0  0
  148.6509  134.8841  162.1115 H   0  0  0  0  0  0  0  0  0  0  0  0
  148.9836  136.8136  160.0058 H   0  0  0  0  0  0  0  0  0  0  0  0
  147.7110  137.7927  160.7242 H   0  0  0  0  0  0  0  0  0  0  0  0
  147.5425  137.2086  159.0761 H   0  0  0  0  0  0  0  0  0  0  0  0
  148.4823  133.9321  160.1016 H   0  0  0  0  0  0  0  0  0  0  0  0
  146.7164  134.9624  157.9415 H   0  0  0  0  0  0  0  0  0  0  0  0
  148.7685  133.9667  155.4184 H   0  0  0  0  0  0  0  0  0  0  0  0
  147.3334  134.8449  155.8295 H   0  0  0  0  0  0  0  0  0  0  0  0
  147.2613  137.0878  155.3405 H   0  0  0  0  0  0  0  0  0  0  0  0
  148.2577  139.1488  154.6194 H   0  0  0  0  0  0  0  0  0  0  0  0
  146.7483  132.4885  160.6225 H   0  0  0  0  0  0  0  0  0  0  0  0
  145.7232  133.1717  159.3827 H   0  0  0  0  0  0  0  0  0  0  0  0
  1  2  1  0  0  0  0
  1 24  1  0  0  0  0
  1 25  1  0  0  0  0
  1 26  1  0  0  0  0
  2  7  1  0  0  0  0
  2  3  1  0  0  0  0
  2  4  1  0  0  0  0
  3 27  1  0  0  0  0
  3 28  1  0  0  0  0
  3 29  1  0  0  0  0
  4 22  1  0  0  0  0
  4  5  1  0  0  0  0
  4 30  1  0  0  0  0
  5  6  1  0  0  0  0
  5 31  1  0  0  0  0
  5 32  1  0  0  0  0
  6  7  1  0  0  0  0
  6 33  1  0  0  0  0
  6 34  1  0  0  0  0
  7  8  1  0  0  0  0
  7  9  1  0  0  0  0
  8 35  1  0  0  0  0
  8 36  1  0  0  0  0
  8 37  1  0  0  0  0
  9 10  1  0  0  0  0
  9 22  1  0  0  0  0
  9 38  1  0  0  0  0
 10 11  1  0  0  0  0
 10 39  1  0  0  0  0
 11 12  2  0  0  0  0
 11 13  1  0  0  0  0
 13 14  1  0  0  0  0
 13 40  1  0  0  0  0
 13 41  1  0  0  0  0
 14 20  1  0  0  0  0
 14 15  1  0  0  0  0
 15 16  2  0  0  0  0
 15 42  1  0  0  0  0
 16 17  1  0  0  0  0
 16 43  1  0  0  0  0
 17 18  2  0  0  0  0
 17 19  1  0  0  0  0
 19 23  1  0  0  0  0
 19 20  1  0  0  0  0
 20 21  2  0  0  0  0
 22 44  1  0  0  0  0
 22 45  1  0  0  0  0
M  END
> <s_m_source_file>
AV-unprocessed.smi

> <i_m_source_file_index>
623

> <i_lp_mmshare_version>
43012

> <i_f3d_flags>
0

> <s_epik_input>
W0NIM11bQ0BdMTJDKFtDSDNdKShbQ0gzXSlbQ0BIXShbQ0gyXVtDSDJdMSlbQ0gyXVtDQEBIXTJbTkhdQyg9TylbQ0gyXW4zW2NIXVtjSF1jKD1PKVtuSF1jMz1P

> <s_epik_cmdline>
J2VwaWtfcHl0aG9uJywgJy1waCcsICc3LjAnLCAnLXRuJywgJzgnLCAnLW1hJywgJzIwMCcsICctbWV0YWxfYmluZGluZycsICctaW1hZScsICc8aW5maWxlLm1hZT4nLCAnLW9tYWUnLCAnPG91dGZpbGUubWFlPic=

> <r_lp_tautomer_probability>
0.999537

> <r_epik_Ionization_Penalty>
0.00303563

> <r_epik_Ionization_Penalty_Charging>
0.00303561

> <r_epik_Ionization_Penalty_Neutral>
2.03238e-08

> <r_epik_State_Penalty>
0.00213308

> <r_epik_Charging_Adjusted_Penalty>
0.00516869

> <i_epik_Tot_Q>
0

> <i_epik_Tot_abs_Q>
0

> <r_epik_Metal_State_Penalty>
0.361714

> <b_epik_Metal_Only>
0

> <s_lp_Force_Field>
OPLS_2005

> <r_lp_Energy>
55.1954

> <b_lp_Chiralities_Consistent>
1

> <s_lp_Variant>
AV-unprocessed.smi:623-3

> <Gold.Version>
5.8.1

> <Gold.Id.Protein>
6NUR|6NUR_protein|mol2

> <Gold.PLP.Fitness>
33.9180

> <Gold.PLP.PLP>
-25.4166

> <Gold.PLP.part.hbond>
-3.0000

> <Gold.PLP.part.metal>
0.0000

> <Gold.PLP.part.buried>
-4.1203

> <Gold.PLP.part.nonpolar>
-18.3365

> <Gold.PLP.part.repulsive>
0.2917

> <Gold.PLP.ligand.clash>
0.0000

> <Gold.PLP.ligand.torsion>
0.2571

> <Gold.PLP.Chemscore.Hbond>
3.0000

> <Gold.PLP.Chemscore.CHOScore>
0.0000

> <Gold.PLP.Chemscore.Metal>
0.0000

> <Gold.Chemscore.Hbonds>
donor molecule, donor type, donor heavy atom, donor atom, acceptor molecule, acceptor atom, score
      P1  H  6896  6909       L1    12  1.00
      P1  H  7989  7998       L1    18  1.00
      P1  H 10752 10763       L1    21  0.86

> <Gold.PLP.Chemscore.Internal.Correction>
0.0155

> <Gold.Rescore>
     Score         DG    S(hbond)    S(metal)    S(lipo)     H(rot)  DE(clash)    DE(int)     intcor
     16.42     -17.85       2.92        0.00      58.67       1.66       0.03       1.40       ----

> <Gold.Chemscore.Fitness>
16.4190

> <Gold.Chemscore.DG>
-17.8502

> <Gold.Chemscore.ZeroCoef>
-5.4800

> <Gold.Chemscore.Hbond>
2.9245

> <Gold.Chemscore.Metal>
0.0000

> <Gold.Chemscore.Lipo>
58.6660

> <Gold.Chemscore.Internal_Hbond>
0.0000

> <Gold.Chemscore.DEClash>
0.0291

> <Gold.Chemscore.DEInternal>
1.4021

> <Gold.Chemscore.Rot>
1.6647

> <Gold.Chemscore.Internal.Correction>
   9.000000E+99

> <Gold.Chemscore.Hbonds>
donor molecule, donor type, donor heavy atom, donor atom, acceptor molecule, acceptor atom, score
      P1  H  6896  6909       L1    12  0.95
      P1  H  7989  7998       L1    18  1.00
      P1  H 10752 10763       L1    21  0.45

> <Gold.Chemscore.Hbond.Weighted>
-9.7680

> <Gold.Chemscore.Metal.Weighted>
-0.0000

> <Gold.Chemscore.Lipo.Weighted>
-6.8639

> <Gold.Chemscore.Internal_Hbond.Weighted>
0.0000

> <Gold.Chemscore.DEClash.Weighted>
0.0291

> <Gold.Chemscore.DEInternal.Weighted>
1.4021

> <Gold.Chemscore.Rot.Weighted>
4.2617

> <Gold.Chemscore.Internal.Correction.Weighted>
   9.000000E+99

> <Gold.Protein.RotatedTorsions>
[ 6907 6896 6895 6894 ] final   -6.19 input  -60.11 | X-H torsion
[ 7974 7965 7964 7962 ] final  -37.56 input  175.53 | X-H torsion
[ 8008 7997 7996 7995 ] final  150.91 input   59.86 | X-H torsion
[ 10167 10162 10161 10158 ] final  156.94 input  -65.29 | X-H torsion
[ 10718 10713 10712 10709 ] final -149.39 input   66.30 | X-H torsion
[ 10763 10752 10751 10750 ] final   77.71 input  -60.55 | X-H torsion
[ 11005 11000 10999 10996 ] final -132.69 input  -57.11 | X-H torsion

> <Gold.Protein.ActiveResidues>
 VAL166  LYS551  ARG553  GLY616  TRP617  ASP618  TYR619  PRO620  LYS621  CYS622 
 ASP623  PHE694  ASN695  SER759  ASP760  ASP761  ALA762  ILE779  LEU786  VAL792 
 PHE793  MET794  SER795  GLU796  ALA797  LYS798  CYS799  TRP800  GLU811  SER814 

> <Gold.Protein.RotatedAtoms>
  151.4696  135.1045  159.9747 H   0  0  0  0  0  0  0  0  0  0  0  0  # atno 6907 bound_to 6896
  152.4822  133.8278  159.7097 H   0  0  0  0  0  0  0  0  0  0  0  0  # atno 6908 bound_to 6896
  150.8902  133.7193  159.2933 H   0  0  0  0  0  0  0  0  0  0  0  0  # atno 6909 bound_to 6896
  146.0564  140.6410  142.9018 H   0  0  0  0  0  0  0  0  0  0  0  0  # atno 7974 bound_to 7965
  156.2696  140.2062  156.6092 H   0  0  0  0  0  0  0  0  0  0  0  0  # atno 8008 bound_to 7997
  154.6845  140.0536  157.0324 H   0  0  0  0  0  0  0  0  0  0  0  0  # atno 8009 bound_to 7997
  155.0953  140.3200  155.4565 H   0  0  0  0  0  0  0  0  0  0  0  0  # atno 8010 bound_to 7997
  139.4822  144.4963  151.8235 H   0  0  0  0  0  0  0  0  0  0  0  0  # atno 10167 bound_to 10162
  156.4325  130.8082  151.2310 H   0  0  0  0  0  0  0  0  0  0  0  0  # atno 10718 bound_to 10713
  153.0819  135.4904  154.8519 H   0  0  0  0  0  0  0  0  0  0  0  0  # atno 10763 bound_to 10752
  154.7161  135.3030  154.9124 H   0  0  0  0  0  0  0  0  0  0  0  0  # atno 10764 bound_to 10752
  153.9802  135.6790  153.4803 H   0  0  0  0  0  0  0  0  0  0  0  0  # atno 10765 bound_to 10752
  140.9148  134.1521  157.4361 H   0  0  0  0  0  0  0  0  0  0  0  0  # atno 11005 bound_to 11000
  144.7150  140.4178  143.7051 LP  0  0  0  0  0  0  0  0  0  0  0  0  # atno 17320 bound_to 7965
  145.6636  139.1586  143.2794 LP  0  0  0  0  0  0  0  0  0  0  0  0  # atno 17321 bound_to 7965
  140.4452  144.1932  150.5893 LP  0  0  0  0  0  0  0  0  0  0  0  0  # atno 17342 bound_to 10162
  140.4642  143.2437  151.9178 LP  0  0  0  0  0  0  0  0  0  0  0  0  # atno 17343 bound_to 10162
  157.7508  131.0194  150.3665 LP  0  0  0  0  0  0  0  0  0  0  0  0  # atno 17370 bound_to 10713
  156.4005  130.3915  149.6963 LP  0  0  0  0  0  0  0  0  0  0  0  0  # atno 17371 bound_to 10713
  139.8764  134.9949  156.5718 LP  0  0  0  0  0  0  0  0  0  0  0  0  # atno 17394 bound_to 11000
  140.8064  133.8464  155.8771 LP  0  0  0  0  0  0  0  0  0  0  0  0  # atno 17395 bound_to 11000

$$$$
