AV-unprocessed.smi:2579|AV-procd|sdf|10123|dock1
  -GOLD-   2272014143D 1   1.00000     0.00000
 Structure written by MMmdl.
 39 41  0  0  0  0  0  0  0  0  2 V2000
  147.2678  142.5050  155.2961 O   0  0  0  0  0  0  0  0  0  0  0  0
  147.7422  141.5818  154.3399 C   0  0  0  0  0  0  0  0  0  0  0  0
  149.2508  141.3571  154.5313 C   0  0  0  0  0  0  0  0  0  0  0  0
  149.5705  140.8224  155.8477 N   0  0  0  0  0  0  0  0  0  0  0  0
  150.2917  141.5993  156.7622 C   0  0  0  0  0  0  0  0  0  0  0  0
  150.5366  142.9336  156.6641 N   0  3  0  0  0  0  0  0  0  0  0  0
  151.2931  143.3249  157.7723 C   0  0  0  0  0  0  0  0  0  0  0  0
  151.7979  144.5708  158.1324 C   0  0  0  0  0  0  0  0  0  0  0  0
  152.5384  144.6323  159.3311 C   0  0  0  0  0  0  0  0  0  0  0  0
  152.7562  143.4850  160.1210 C   0  0  0  0  0  0  0  0  0  0  0  0
  152.2405  142.2262  159.7489 C   0  0  0  0  0  0  0  0  0  0  0  0
  151.5053  142.1712  158.5649 C   0  0  0  0  0  0  0  0  0  0  0  0
  150.8582  141.1212  157.9000 N   0  0  0  0  0  0  0  0  0  0  0  0
  150.8891  139.7638  158.4616 C   0  0  0  0  0  0  0  0  0  0  0  0
  151.7323  138.8037  157.6075 C   0  0  2  0  0  0  0  0  0  0  0  0
  151.4924  137.3275  157.9225 C   0  0  0  0  0  0  0  0  0  0  0  0
  152.8104  136.7080  157.5183 C   0  0  0  0  0  0  0  0  0  0  0  0
  153.7998  137.7725  157.9795 C   0  0  0  0  0  0  0  0  0  0  0  0
  153.1286  139.0172  157.8099 O   0  0  0  0  0  0  0  0  0  0  0  0
  147.7321  143.3208  155.1845 H   0  0  0  0  0  0  0  0  0  0  0  0
  147.1765  140.6514  154.3958 H   0  0  0  0  0  0  0  0  0  0  0  0
  147.5590  142.0083  153.3535 H   0  0  0  0  0  0  0  0  0  0  0  0
  149.6163  140.6633  153.7737 H   0  0  0  0  0  0  0  0  0  0  0  0
  149.7990  142.2869  154.3761 H   0  0  0  0  0  0  0  0  0  0  0  0
  149.4966  139.8255  155.9936 H   0  0  0  0  0  0  0  0  0  0  0  0
  151.6364  145.4520  157.5290 H   0  0  0  0  0  0  0  0  0  0  0  0
  152.9496  145.5789  159.6506 H   0  0  0  0  0  0  0  0  0  0  0  0
  153.3316  143.5713  161.0313 H   0  0  0  0  0  0  0  0  0  0  0  0
  152.4196  141.3529  160.3584 H   0  0  0  0  0  0  0  0  0  0  0  0
  151.2593  139.8126  159.4858 H   0  0  0  0  0  0  0  0  0  0  0  0
  149.8608  139.4061  158.5231 H   0  0  0  0  0  0  0  0  0  0  0  0
  151.5305  138.9776  156.5493 H   0  0  0  0  0  0  0  0  0  0  0  0
  151.3275  137.1811  158.9911 H   0  0  0  0  0  0  0  0  0  0  0  0
  150.6398  136.9115  157.3853 H   0  0  0  0  0  0  0  0  0  0  0  0
  152.9872  135.7342  157.9756 H   0  0  0  0  0  0  0  0  0  0  0  0
  152.8551  136.5939  156.4345 H   0  0  0  0  0  0  0  0  0  0  0  0
  154.0288  137.6452  159.0383 H   0  0  0  0  0  0  0  0  0  0  0  0
  154.7370  137.7434  157.4233 H   0  0  0  0  0  0  0  0  0  0  0  0
  150.2148  143.5224  155.9071 H   0  0  0  0  0  0  0  0  0  0  0  0
  1  2  1  0  0  0  0
  1 20  1  0  0  0  0
  2  3  1  0  0  0  0
  2 21  1  0  0  0  0
  2 22  1  0  0  0  0
  3  4  1  0  0  0  0
  3 23  1  0  0  0  0
  3 24  1  0  0  0  0
  4  5  1  0  0  0  0
  4 25  1  0  0  0  0
  5 13  1  0  0  0  0
  5  6  2  0  0  0  0
  6  7  1  0  0  0  0
  6 39  1  0  0  0  0
  7 12  2  0  0  0  0
  7  8  1  0  0  0  0
  8  9  2  0  0  0  0
  8 26  1  0  0  0  0
  9 10  1  0  0  0  0
  9 27  1  0  0  0  0
 10 11  2  0  0  0  0
 10 28  1  0  0  0  0
 11 12  1  0  0  0  0
 11 29  1  0  0  0  0
 12 13  1  0  0  0  0
 13 14  1  0  0  0  0
 14 15  1  0  0  0  0
 14 30  1  0  0  0  0
 14 31  1  0  0  0  0
 15 19  1  0  0  0  0
 15 16  1  0  0  0  0
 15 32  1  0  0  0  0
 16 17  1  0  0  0  0
 16 33  1  0  0  0  0
 16 34  1  0  0  0  0
 17 18  1  0  0  0  0
 17 35  1  0  0  0  0
 17 36  1  0  0  0  0
 18 19  1  0  0  0  0
 18 37  1  0  0  0  0
 18 38  1  0  0  0  0
M  CHG  1   6   1
M  END
> <s_m_source_file>
AV-unprocessed.smi

> <i_m_source_file_index>
2579

> <i_lp_mmshare_version>
43012

> <i_f3d_flags>
0

> <s_epik_input>
W09IXVtDSDJdW0NIMl1bTkhdYyhuMSluKGMoYzEyKVtjSF1bY0hdW2NIXVtjSF0yKVtDSDJdW0NAQEhdM1tDSDJdW0NIMl1bQ0gyXU8z

> <s_epik_cmdline>
J2VwaWtfcHl0aG9uJywgJy1waCcsICc3LjAnLCAnLXRuJywgJzgnLCAnLW1hJywgJzIwMCcsICctbWV0YWxfYmluZGluZycsICctaW1hZScsICc8aW5maWxlLm1hZT4nLCAnLW9tYWUnLCAnPG91dGZpbGUubWFlPic=

> <r_epik_Ionization_Penalty>
0.0735651

> <r_epik_Ionization_Penalty_Charging>
0.0735628

> <r_epik_Ionization_Penalty_Neutral>
2.35277e-06

> <r_epik_State_Penalty>
0.0647164

> <r_epik_Charging_Adjusted_Penalty>
0.138279

> <i_epik_Tot_Q>
1

> <i_epik_Tot_abs_Q>
1

> <r_epik_Metal_State_Penalty>
2.81856

> <b_epik_Metal_Only>
0

> <s_lp_Force_Field>
OPLS_2005

> <r_lp_Energy>
32.6829

> <b_lp_Chiralities_Consistent>
1

> <s_lp_Variant>
AV-unprocessed.smi:2579-1

> <Gold.Version>
5.8.1

> <Gold.Id.Protein>
6NUR|6NUR_protein|mol2

> <Gold.PLP.Fitness>
49.2139

> <Gold.PLP.PLP>
-38.9062

> <Gold.PLP.part.hbond>
-3.0000

> <Gold.PLP.part.metal>
0.0000

> <Gold.PLP.part.buried>
-5.9961

> <Gold.PLP.part.nonpolar>
-31.1944

> <Gold.PLP.part.repulsive>
0.1313

> <Gold.PLP.ligand.clash>
0.0000

> <Gold.PLP.ligand.torsion>
0.2154

> <Gold.PLP.Chemscore.Hbond>
3.5680

> <Gold.PLP.Chemscore.CHOScore>
0.0000

> <Gold.PLP.Chemscore.Metal>
0.0000

> <Gold.Chemscore.Hbonds>
donor molecule, donor type, donor heavy atom, donor atom, acceptor molecule, acceptor atom, score
      L1  H     1    20       P1  8028  1.00
      L1  H     6    39       P1  8028  1.47
      P1  H  7997  8010       L1    19  1.00

> <Gold.PLP.Chemscore.Internal.Correction>
0.0344

> <Gold.Rescore>
     Score         DG    S(hbond)    S(metal)    S(lipo)     H(rot)  DE(clash)    DE(int)     intcor
     19.52     -19.95       2.36        0.00     104.85       2.22       0.02       0.41       ----

> <Gold.Chemscore.Fitness>
19.5158

> <Gold.Chemscore.DG>
-19.9483

> <Gold.Chemscore.ZeroCoef>
-5.4800

> <Gold.Chemscore.Hbond>
2.3608

> <Gold.Chemscore.Metal>
0.0000

> <Gold.Chemscore.Lipo>
104.8455

> <Gold.Chemscore.Internal_Hbond>
0.0000

> <Gold.Chemscore.DEClash>
0.0231

> <Gold.Chemscore.DEInternal>
0.4094

> <Gold.Chemscore.Rot>
2.2202

> <Gold.Chemscore.Internal.Correction>
   9.000000E+99

> <Gold.Chemscore.Hbonds>
donor molecule, donor type, donor heavy atom, donor atom, acceptor molecule, acceptor atom, score
      L1  H     1    20       P1  8028  0.39
      L1  H     6    39       P1  8028  0.74
      P1  H  7997  8010       L1    19  0.30

> <Gold.Chemscore.Hbond.Weighted>
-7.8851

> <Gold.Chemscore.Metal.Weighted>
-0.0000

> <Gold.Chemscore.Lipo.Weighted>
-12.2669

> <Gold.Chemscore.Internal_Hbond.Weighted>
0.0000

> <Gold.Chemscore.DEClash.Weighted>
0.0231

> <Gold.Chemscore.DEInternal.Weighted>
0.4094

> <Gold.Chemscore.Rot.Weighted>
5.6837

> <Gold.Chemscore.Internal.Correction.Weighted>
   9.000000E+99

> <Gold.Protein.RotatedTorsions>
[ 6907 6896 6895 6894 ] final  159.61 input  -60.11 | X-H torsion
[ 7974 7965 7964 7962 ] final  116.14 input  175.53 | X-H torsion
[ 8008 7997 7996 7995 ] final   44.33 input   59.86 | X-H torsion
[ 10167 10162 10161 10158 ] final   31.23 input  -65.29 | X-H torsion
[ 10718 10713 10712 10709 ] final   57.07 input   66.30 | X-H torsion
[ 10763 10752 10751 10750 ] final   73.33 input  -60.55 | X-H torsion
[ 11005 11000 10999 10996 ] final   65.51 input  -57.11 | X-H torsion

> <Gold.Protein.ActiveResidues>
 VAL166  LYS551  ARG553  GLY616  TRP617  ASP618  TYR619  PRO620  LYS621  CYS622 
 ASP623  PHE694  ASN695  SER759  ASP760  ASP761  ALA762  ILE779  LEU786  VAL792 
 PHE793  MET794  SER795  GLU796  ALA797  LYS798  CYS799  TRP800  GLU811  SER814 

> <Gold.Protein.RotatedAtoms>
  151.9830  133.3764  159.4114 H   0  0  0  0  0  0  0  0  0  0  0  0  # atno 6907 bound_to 6896
  150.6932  134.4018  159.5131 H   0  0  0  0  0  0  0  0  0  0  0  0  # atno 6908 bound_to 6896
  152.1740  134.8810  160.0583 H   0  0  0  0  0  0  0  0  0  0  0  0  # atno 6909 bound_to 6896
  145.1833  139.3038  143.4406 H   0  0  0  0  0  0  0  0  0  0  0  0  # atno 7974 bound_to 7965
  155.3175  140.3395  155.4242 H   0  0  0  0  0  0  0  0  0  0  0  0  # atno 8008 bound_to 7997
  156.1925  140.1703  156.8100 H   0  0  0  0  0  0  0  0  0  0  0  0  # atno 8009 bound_to 7997
  154.5459  140.0715  156.8572 H   0  0  0  0  0  0  0  0  0  0  0  0  # atno 8010 bound_to 7997
  140.4607  144.0911  150.6212 H   0  0  0  0  0  0  0  0  0  0  0  0  # atno 10167 bound_to 10162
  157.5484  130.8748  149.8926 H   0  0  0  0  0  0  0  0  0  0  0  0  # atno 10718 bound_to 10713
  153.0514  135.5067  154.7877 H   0  0  0  0  0  0  0  0  0  0  0  0  # atno 10763 bound_to 10752
  154.6736  135.2957  154.9711 H   0  0  0  0  0  0  0  0  0  0  0  0  # atno 10764 bound_to 10752
  154.0521  135.6702  153.4854 H   0  0  0  0  0  0  0  0  0  0  0  0  # atno 10765 bound_to 10752
  139.9890  134.6622  156.0125 H   0  0  0  0  0  0  0  0  0  0  0  0  # atno 11005 bound_to 11000
  146.3449  140.2020  142.8589 LP  0  0  0  0  0  0  0  0  0  0  0  0  # atno 17320 bound_to 7965
  145.0114  140.8717  143.5222 LP  0  0  0  0  0  0  0  0  0  0  0  0  # atno 17321 bound_to 7965
  140.4097  143.2663  151.9848 LP  0  0  0  0  0  0  0  0  0  0  0  0  # atno 17342 bound_to 10162
  139.4806  144.5926  151.7745 LP  0  0  0  0  0  0  0  0  0  0  0  0  # atno 17343 bound_to 10162
  156.0555  130.3709  150.1100 LP  0  0  0  0  0  0  0  0  0  0  0  0  # atno 17370 bound_to 10713
  156.9275  130.9703  151.3538 LP  0  0  0  0  0  0  0  0  0  0  0  0  # atno 17371 bound_to 10713
  141.1549  133.6544  156.4131 LP  0  0  0  0  0  0  0  0  0  0  0  0  # atno 17394 bound_to 11000
  140.4946  134.6543  157.5224 LP  0  0  0  0  0  0  0  0  0  0  0  0  # atno 17395 bound_to 11000

$$$$
