AV-unprocessed.smi:500|AV-procd|sdf|2737|dock6
  -GOLD-   2262023193D 1   1.00000     0.00000
 Structure written by MMmdl.
 46 48  0  0  0  0  0  0  0  0  2 V2000
  153.2826  138.6017  155.1268 C   0  0  0  0  0  0  0  0  0  0  0  0
  151.7639  138.7703  155.0401 C   0  0  0  0  0  0  0  0  0  0  0  0
  151.4263  140.1024  155.3887 O   0  0  0  0  0  0  0  0  0  0  0  0
  150.0267  140.3233  155.4138 C   0  0  0  0  0  0  0  0  0  0  0  0
  149.6460  140.9104  156.7781 C   0  0  0  0  0  0  0  0  0  0  0  0
  150.6299  140.5711  157.8144 N   0  0  0  0  0  0  0  0  0  0  0  0
  150.9239  139.3725  158.3975 C   0  0  0  0  0  0  0  0  0  0  0  0
  150.2526  138.0564  158.1178 C   0  0  1  0  0  0  0  0  0  0  0  0
  151.2538  136.9369  157.7740 C   0  0  0  0  0  0  0  0  0  0  0  0
  149.3398  137.6511  159.1872 N   0  0  0  0  0  0  0  0  0  0  0  0
  148.8279  136.4249  159.3915 C   0  0  0  0  0  0  0  0  0  0  0  0
  149.0611  135.4589  158.6651 O   0  0  0  0  0  0  0  0  0  0  0  0
  147.9534  136.2855  160.5711 C   0  0  0  0  0  0  0  0  0  0  0  0
  147.4096  135.1799  161.1711 C   0  0  0  0  0  0  0  0  0  0  0  0
  146.6478  135.6496  162.2764 C   0  0  0  0  0  0  0  0  0  0  0  0
  146.7802  137.0082  162.2737 C   0  0  0  0  0  0  0  0  0  0  0  0
  147.5722  137.4108  161.2430 O   0  0  0  0  0  0  0  0  0  0  0  0
  151.9057  139.6069  159.3163 N   0  3  0  0  0  0  0  0  0  0  0  0
  152.2537  140.9577  159.3065 C   0  0  0  0  0  0  0  0  0  0  0  0
  153.1942  141.6630  160.0509 C   0  0  0  0  0  0  0  0  0  0  0  0
  153.2983  143.0457  159.7919 C   0  0  0  0  0  0  0  0  0  0  0  0
  152.4859  143.6750  158.8261 C   0  0  0  0  0  0  0  0  0  0  0  0
  151.5351  142.9492  158.0787 C   0  0  0  0  0  0  0  0  0  0  0  0
  151.4387  141.5831  158.3418 C   0  0  0  0  0  0  0  0  0  0  0  0
  153.5764  137.5850  154.8652 H   0  0  0  0  0  0  0  0  0  0  0  0
  153.6421  138.8043  156.1361 H   0  0  0  0  0  0  0  0  0  0  0  0
  153.7930  139.2832  154.4457 H   0  0  0  0  0  0  0  0  0  0  0  0
  151.4224  138.5484  154.0280 H   0  0  0  0  0  0  0  0  0  0  0  0
  151.2739  138.0681  155.7159 H   0  0  0  0  0  0  0  0  0  0  0  0
  149.7416  141.0124  154.6172 H   0  0  0  0  0  0  0  0  0  0  0  0
  149.4980  139.3842  155.2439 H   0  0  0  0  0  0  0  0  0  0  0  0
  149.5453  141.9951  156.7275 H   0  0  0  0  0  0  0  0  0  0  0  0
  148.6766  140.5257  157.0948 H   0  0  0  0  0  0  0  0  0  0  0  0
  149.6268  138.2036  157.2370 H   0  0  0  0  0  0  0  0  0  0  0  0
  151.8604  137.2069  156.9091 H   0  0  0  0  0  0  0  0  0  0  0  0
  150.7336  136.0101  157.5302 H   0  0  0  0  0  0  0  0  0  0  0  0
  151.9325  136.7250  158.6006 H   0  0  0  0  0  0  0  0  0  0  0  0
  149.0815  138.3710  159.8466 H   0  0  0  0  0  0  0  0  0  0  0  0
  147.5415  134.1556  160.8547 H   0  0  0  0  0  0  0  0  0  0  0  0
  146.0752  135.0677  162.9834 H   0  0  0  0  0  0  0  0  0  0  0  0
  146.3985  137.8011  162.9002 H   0  0  0  0  0  0  0  0  0  0  0  0
  153.8169  141.1831  160.7917 H   0  0  0  0  0  0  0  0  0  0  0  0
  154.0151  143.6353  160.3448 H   0  0  0  0  0  0  0  0  0  0  0  0
  152.5935  144.7364  158.6552 H   0  0  0  0  0  0  0  0  0  0  0  0
  150.9179  143.4399  157.3407 H   0  0  0  0  0  0  0  0  0  0  0  0
  152.3008  138.8902  159.9115 H   0  0  0  0  0  0  0  0  0  0  0  0
  1  2  1  0  0  0  0
  1 25  1  0  0  0  0
  1 26  1  0  0  0  0
  1 27  1  0  0  0  0
  2  3  1  0  0  0  0
  2 28  1  0  0  0  0
  2 29  1  0  0  0  0
  3  4  1  0  0  0  0
  4  5  1  0  0  0  0
  4 30  1  0  0  0  0
  4 31  1  0  0  0  0
  5  6  1  0  0  0  0
  5 32  1  0  0  0  0
  5 33  1  0  0  0  0
  6 24  1  0  0  0  0
  6  7  1  0  0  0  0
  7  8  1  0  0  0  0
  7 18  2  0  0  0  0
  8  9  1  0  0  0  0
  8 10  1  0  0  0  0
  8 34  1  0  0  0  0
  9 35  1  0  0  0  0
  9 36  1  0  0  0  0
  9 37  1  0  0  0  0
 10 11  1  0  0  0  0
 10 38  1  0  0  0  0
 11 12  2  0  0  0  0
 11 13  1  0  0  0  0
 13 17  1  0  0  0  0
 13 14  2  0  0  0  0
 14 15  1  0  0  0  0
 14 39  1  0  0  0  0
 15 16  2  0  0  0  0
 15 40  1  0  0  0  0
 16 17  1  0  0  0  0
 16 41  1  0  0  0  0
 18 19  1  0  0  0  0
 18 46  1  0  0  0  0
 19 24  2  0  0  0  0
 19 20  1  0  0  0  0
 20 21  2  0  0  0  0
 20 42  1  0  0  0  0
 21 22  1  0  0  0  0
 21 43  1  0  0  0  0
 22 23  2  0  0  0  0
 22 44  1  0  0  0  0
 23 24  1  0  0  0  0
 23 45  1  0  0  0  0
M  CHG  1  18   1
M  END
> <s_m_source_file>
AV-unprocessed.smi

> <i_m_source_file_index>
500

> <i_lp_mmshare_version>
43012

> <i_f3d_flags>
0

> <s_epik_input>
W0NIM11bQ0gyXU9bQ0gyXVtDSDJdbihjKGMxMilbY0hdW2NIXVtjSF1bY0hdMiljKG4xKVtDQEhdKFtDSDNdKVtOSF1DKD1PKWMzW2NIXVtjSF1bY0hdbzM=

> <s_epik_cmdline>
J2VwaWtfcHl0aG9uJywgJy1waCcsICc3LjAnLCAnLXRuJywgJzgnLCAnLW1hJywgJzIwMCcsICctbWV0YWxfYmluZGluZycsICctaW1hZScsICc8aW5maWxlLm1hZT4nLCAnLW9tYWUnLCAnPG91dGZpbGUubWFlPic=

> <r_epik_Ionization_Penalty>
1.05286

> <r_epik_Ionization_Penalty_Charging>
1.05283

> <r_epik_Ionization_Penalty_Neutral>
2.09263e-05

> <r_epik_State_Penalty>
1.10586

> <r_epik_Charging_Adjusted_Penalty>
2.15869

> <i_epik_Tot_Q>
1

> <i_epik_Tot_abs_Q>
1

> <r_epik_Metal_State_Penalty>
1.22833

> <b_epik_Metal_Only>
0

> <s_lp_Force_Field>
OPLS_2005

> <r_lp_Energy>
11.8725

> <b_lp_Chiralities_Consistent>
1

> <s_lp_Variant>
AV-unprocessed.smi:500-4

> <Gold.Version>
5.8.1

> <Gold.Id.Protein>
6NUR|6NUR_protein|mol2

> <Gold.PLP.Fitness>
57.9584

> <Gold.PLP.PLP>
-49.9921

> <Gold.PLP.part.hbond>
-4.0000

> <Gold.PLP.part.metal>
0.0000

> <Gold.PLP.part.buried>
-6.7677

> <Gold.PLP.part.nonpolar>
-40.7769

> <Gold.PLP.part.repulsive>
0.3921

> <Gold.PLP.ligand.clash>
0.0000

> <Gold.PLP.ligand.torsion>
1.2069

> <Gold.PLP.Chemscore.Hbond>
3.4020

> <Gold.PLP.Chemscore.CHOScore>
0.0000

> <Gold.PLP.Chemscore.Metal>
0.0000

> <Gold.Chemscore.Hbonds>
donor molecule, donor type, donor heavy atom, donor atom, acceptor molecule, acceptor atom, score
      P1  H  6896  6909       L1    12  0.96
      P1  H  6931  6943       L1    17  0.82
      P1  H  6934  6947       L1    17  0.86
      P1  H  7989  7998       L1     3  0.54

> <Gold.PLP.Chemscore.Internal.Correction>
0.1741

> <Gold.Rescore>
     Score         DG    S(hbond)    S(metal)    S(lipo)     H(rot)  DE(clash)    DE(int)     intcor
     19.19     -22.89       2.30        0.00     126.37       1.97       0.64       3.06       ----

> <Gold.Chemscore.Fitness>
19.1888

> <Gold.Chemscore.DG>
-22.8882

> <Gold.Chemscore.ZeroCoef>
-5.4800

> <Gold.Chemscore.Hbond>
2.2988

> <Gold.Chemscore.Metal>
0.0000

> <Gold.Chemscore.Lipo>
126.3692

> <Gold.Chemscore.Internal_Hbond>
0.0000

> <Gold.Chemscore.DEClash>
0.6432

> <Gold.Chemscore.DEInternal>
3.0562

> <Gold.Chemscore.Rot>
1.9746

> <Gold.Chemscore.Internal.Correction>
   9.000000E+99

> <Gold.Chemscore.Hbonds>
donor molecule, donor type, donor heavy atom, donor atom, acceptor molecule, acceptor atom, score
      P1  H  6896  6909       L1    12  0.50
      P1  H  6931  6943       L1    17  0.42
      P1  H  6934  6947       L1    17  0.51
      P1  H  7989  7998       L1     3  0.01

> <Gold.Chemscore.Hbond.Weighted>
-7.6780

> <Gold.Chemscore.Metal.Weighted>
-0.0000

> <Gold.Chemscore.Lipo.Weighted>
-14.7852

> <Gold.Chemscore.Internal_Hbond.Weighted>
0.0000

> <Gold.Chemscore.DEClash.Weighted>
0.6432

> <Gold.Chemscore.DEInternal.Weighted>
3.0562

> <Gold.Chemscore.Rot.Weighted>
5.0550

> <Gold.Chemscore.Internal.Correction.Weighted>
   9.000000E+99

> <Gold.Protein.RotatedTorsions>
[ 6907 6896 6895 6894 ] final   42.23 input  -60.11 | X-H torsion
[ 7974 7965 7964 7962 ] final -154.40 input  175.53 | X-H torsion
[ 8008 7997 7996 7995 ] final  145.66 input   59.86 | X-H torsion
[ 10167 10162 10161 10158 ] final  -53.91 input  -65.29 | X-H torsion
[ 10718 10713 10712 10709 ] final  -92.99 input   66.30 | X-H torsion
[ 10763 10752 10751 10750 ] final -106.18 input  -60.55 | X-H torsion
[ 11005 11000 10999 10996 ] final -177.62 input  -57.11 | X-H torsion

> <Gold.Protein.ActiveResidues>
 VAL166  LYS551  ARG553  GLY616  TRP617  ASP618  TYR619  PRO620  LYS621  CYS622 
 ASP623  PHE694  ASN695  SER759  ASP760  ASP761  ALA762  ILE779  LEU786  VAL792 
 PHE793  MET794  SER795  GLU796  ALA797  LYS798  CYS799  TRP800  GLU811  SER814 

> <Gold.Protein.RotatedAtoms>
  152.2053  134.8551  160.0503 H   0  0  0  0  0  0  0  0  0  0  0  0  # atno 6907 bound_to 6896
  151.9390  133.3627  159.3966 H   0  0  0  0  0  0  0  0  0  0  0  0  # atno 6908 bound_to 6896
  150.6963  134.4383  159.5324 H   0  0  0  0  0  0  0  0  0  0  0  0  # atno 6909 bound_to 6896
  144.7691  140.4394  143.5920 H   0  0  0  0  0  0  0  0  0  0  0  0  # atno 7974 bound_to 7965
  156.2877  140.2203  156.5251 H   0  0  0  0  0  0  0  0  0  0  0  0  # atno 8008 bound_to 7997
  154.7495  140.0481  157.0903 H   0  0  0  0  0  0  0  0  0  0  0  0  # atno 8009 bound_to 7997
  155.0127  140.3115  155.4826 H   0  0  0  0  0  0  0  0  0  0  0  0  # atno 8010 bound_to 7997
  140.6459  143.2535  151.4860 H   0  0  0  0  0  0  0  0  0  0  0  0  # atno 10167 bound_to 10162
  156.0008  130.5009  150.5708 H   0  0  0  0  0  0  0  0  0  0  0  0  # atno 10718 bound_to 10713
  154.7995  135.4721  154.0242 H   0  0  0  0  0  0  0  0  0  0  0  0  # atno 10763 bound_to 10752
  153.1758  135.6832  153.8552 H   0  0  0  0  0  0  0  0  0  0  0  0  # atno 10764 bound_to 10752
  153.8118  135.3216  155.3379 H   0  0  0  0  0  0  0  0  0  0  0  0  # atno 10765 bound_to 10752
  140.4389  134.6450  157.4748 H   0  0  0  0  0  0  0  0  0  0  0  0  # atno 11005 bound_to 11000
  145.6377  139.1545  143.2933 LP  0  0  0  0  0  0  0  0  0  0  0  0  # atno 17320 bound_to 7965
  146.1824  140.6476  142.9183 LP  0  0  0  0  0  0  0  0  0  0  0  0  # atno 17321 bound_to 7965
  139.5670  144.2019  152.1780 LP  0  0  0  0  0  0  0  0  0  0  0  0  # atno 17342 bound_to 10162
  140.1303  144.5294  150.6806 LP  0  0  0  0  0  0  0  0  0  0  0  0  # atno 17343 bound_to 10162
  157.3604  131.0749  151.1641 LP  0  0  0  0  0  0  0  0  0  0  0  0  # atno 17370 bound_to 10713
  157.2428  130.6577  149.5897 LP  0  0  0  0  0  0  0  0  0  0  0  0  # atno 17371 bound_to 10713
  140.0083  134.6729  155.9420 LP  0  0  0  0  0  0  0  0  0  0  0  0  # atno 17394 bound_to 11000
  141.1714  133.6537  156.4666 LP  0  0  0  0  0  0  0  0  0  0  0  0  # atno 17395 bound_to 11000

$$$$
