AV-unprocessed.smi:2961|AV-procd|sdf|11313|dock5
  -GOLD-   2272016213D 1   1.00000     0.00000
 Structure written by MMmdl.
 48 50  0  0  0  0  0  0  0  0  1 V2000
  156.8608  137.2068  153.6546 C   0  0  0  0  0  0  0  0  0  0  0  0
  155.8972  138.3645  153.8919 C   0  0  0  0  0  0  0  0  0  0  0  0
  156.2705  139.5246  153.7193 O   0  0  0  0  0  0  0  0  0  0  0  0
  154.6580  138.0348  154.2864 N   0  0  0  0  0  0  0  0  0  0  0  0
  153.5881  138.9885  154.5553 C   0  0  0  0  0  0  0  0  0  0  0  0
  152.5122  138.3908  155.4769 C   0  0  0  0  0  0  0  0  0  0  0  0
  151.2399  139.1815  155.4581 C   0  0  0  0  0  0  0  0  0  0  0  0
  150.8738  139.9034  154.3985 N   0  0  0  0  0  0  0  0  0  0  0  0
  149.6830  140.4678  154.8129 C   0  0  0  0  0  0  0  0  0  0  0  0
  148.7953  141.3369  154.1391 C   0  0  0  0  0  0  0  0  0  0  0  0
  147.6214  141.7915  154.7750 C   0  0  0  0  0  0  0  0  0  0  0  0
  147.3184  141.3838  156.0903 C   0  0  0  0  0  0  0  0  0  0  0  0
  148.1895  140.5186  156.7800 C   0  0  0  0  0  0  0  0  0  0  0  0
  149.3606  140.0690  156.1414 C   0  0  0  0  0  0  0  0  0  0  0  0
  150.4072  139.2381  156.5278 N   0  0  0  0  0  0  0  0  0  0  0  0
  150.5515  138.5813  157.8179 C   0  0  0  0  0  0  0  0  0  0  0  0
  151.5917  139.2812  158.7005 C   0  0  0  0  0  0  0  0  0  0  0  0
  151.8846  140.5468  158.1260 O   0  0  0  0  0  0  0  0  0  0  0  0
  152.1540  141.6020  158.9709 C   0  0  0  0  0  0  0  0  0  0  0  0
  152.7222  141.2882  160.2225 C   0  0  0  0  0  0  0  0  0  0  0  0
  153.0283  142.3023  161.1496 C   0  0  0  0  0  0  0  0  0  0  0  0
  152.7685  143.6478  160.8320 C   0  0  0  0  0  0  0  0  0  0  0  0
  152.2010  143.9796  159.5857 C   0  0  0  0  0  0  0  0  0  0  0  0
  151.9221  145.4276  159.2379 C   0  0  0  0  0  0  0  0  0  0  0  0
  151.8972  142.9612  158.6580 C   0  0  0  0  0  0  0  0  0  0  0  0
  156.8671  136.5302  154.5098 H   0  0  0  0  0  0  0  0  0  0  0  0
  157.8767  137.5733  153.5029 H   0  0  0  0  0  0  0  0  0  0  0  0
  156.5649  136.6434  152.7692 H   0  0  0  0  0  0  0  0  0  0  0  0
  154.4392  137.0559  154.4037 H   0  0  0  0  0  0  0  0  0  0  0  0
  154.0068  139.8971  154.9906 H   0  0  0  0  0  0  0  0  0  0  0  0
  153.1420  139.2797  153.6041 H   0  0  0  0  0  0  0  0  0  0  0  0
  152.2895  137.3699  155.1639 H   0  0  0  0  0  0  0  0  0  0  0  0
  152.8766  138.3132  156.5008 H   0  0  0  0  0  0  0  0  0  0  0  0
  149.0184  141.6547  153.1311 H   0  0  0  0  0  0  0  0  0  0  0  0
  146.9504  142.4560  154.2506 H   0  0  0  0  0  0  0  0  0  0  0  0
  146.4172  141.7361  156.5703 H   0  0  0  0  0  0  0  0  0  0  0  0
  147.9598  140.2051  157.7874 H   0  0  0  0  0  0  0  0  0  0  0  0
  149.5838  138.5502  158.3186 H   0  0  0  0  0  0  0  0  0  0  0  0
  150.8410  137.5434  157.6502 H   0  0  0  0  0  0  0  0  0  0  0  0
  151.1980  139.4062  159.7107 H   0  0  0  0  0  0  0  0  0  0  0  0
  152.4969  138.6754  158.7592 H   0  0  0  0  0  0  0  0  0  0  0  0
  152.9241  140.2576  160.4753 H   0  0  0  0  0  0  0  0  0  0  0  0
  153.4621  142.0473  162.1052 H   0  0  0  0  0  0  0  0  0  0  0  0
  153.0060  144.4219  161.5472 H   0  0  0  0  0  0  0  0  0  0  0  0
  150.9891  145.5168  158.6805 H   0  0  0  0  0  0  0  0  0  0  0  0
  152.7292  145.8295  158.6250 H   0  0  0  0  0  0  0  0  0  0  0  0
  151.8365  146.0382  160.1373 H   0  0  0  0  0  0  0  0  0  0  0  0
  151.4679  143.2465  157.7093 H   0  0  0  0  0  0  0  0  0  0  0  0
  1  2  1  0  0  0  0
  1 26  1  0  0  0  0
  1 27  1  0  0  0  0
  1 28  1  0  0  0  0
  2  3  2  0  0  0  0
  2  4  1  0  0  0  0
  4  5  1  0  0  0  0
  4 29  1  0  0  0  0
  5  6  1  0  0  0  0
  5 30  1  0  0  0  0
  5 31  1  0  0  0  0
  6  7  1  0  0  0  0
  6 32  1  0  0  0  0
  6 33  1  0  0  0  0
  7 15  1  0  0  0  0
  7  8  2  0  0  0  0
  8  9  1  0  0  0  0
  9 14  2  0  0  0  0
  9 10  1  0  0  0  0
 10 11  2  0  0  0  0
 10 34  1  0  0  0  0
 11 12  1  0  0  0  0
 11 35  1  0  0  0  0
 12 13  2  0  0  0  0
 12 36  1  0  0  0  0
 13 14  1  0  0  0  0
 13 37  1  0  0  0  0
 14 15  1  0  0  0  0
 15 16  1  0  0  0  0
 16 17  1  0  0  0  0
 16 38  1  0  0  0  0
 16 39  1  0  0  0  0
 17 18  1  0  0  0  0
 17 40  1  0  0  0  0
 17 41  1  0  0  0  0
 18 19  1  0  0  0  0
 19 25  1  0  0  0  0
 19 20  2  0  0  0  0
 20 21  1  0  0  0  0
 20 42  1  0  0  0  0
 21 22  2  0  0  0  0
 21 43  1  0  0  0  0
 22 23  1  0  0  0  0
 22 44  1  0  0  0  0
 23 24  1  0  0  0  0
 23 25  2  0  0  0  0
 24 45  1  0  0  0  0
 24 46  1  0  0  0  0
 24 47  1  0  0  0  0
 25 48  1  0  0  0  0
M  END
> <s_m_source_file>
AV-unprocessed.smi

> <i_m_source_file_index>
2961

> <i_lp_mmshare_version>
43012

> <i_f3d_flags>
0

> <s_epik_input>
W0NIM11DKD1PKVtOSF1bQ0gyXVtDSDJdYyhuMSluKGMoYzEyKVtjSF1bY0hdW2NIXVtjSF0yKVtDSDJdW0NIMl1PYzNbY0hdW2NIXVtjSF1jKFtDSDNdKVtjSF0z

> <s_epik_cmdline>
J2VwaWtfcHl0aG9uJywgJy1waCcsICc3LjAnLCAnLXRuJywgJzgnLCAnLW1hJywgJzIwMCcsICctbWV0YWxfYmluZGluZycsICctaW1hZScsICc8aW5maWxlLm1hZT4nLCAnLW9tYWUnLCAnPG91dGZpbGUubWFlPic=

> <r_lp_tautomer_probability>
1

> <r_epik_Ionization_Penalty>
0.0984942

> <r_epik_Ionization_Penalty_Charging>
0

> <r_epik_Ionization_Penalty_Neutral>
0.0984942

> <r_epik_State_Penalty>
0.0885769

> <r_epik_Charging_Adjusted_Penalty>
0.0885769

> <i_epik_Tot_Q>
0

> <i_epik_Tot_abs_Q>
0

> <r_epik_Metal_State_Penalty>
0.0758518

> <b_epik_Metal_Only>
0

> <s_lp_Force_Field>
OPLS_2005

> <r_lp_Energy>
13.474

> <b_lp_Chiralities_Consistent>
1

> <s_lp_Variant>
AV-unprocessed.smi:2961-1

> <Gold.Version>
5.8.1

> <Gold.Id.Protein>
6NUR|6NUR_protein|mol2

> <Gold.PLP.Fitness>
49.4640

> <Gold.PLP.PLP>
-46.7438

> <Gold.PLP.part.hbond>
-2.0000

> <Gold.PLP.part.metal>
0.0000

> <Gold.PLP.part.buried>
-1.9847

> <Gold.PLP.part.nonpolar>
-44.6553

> <Gold.PLP.part.repulsive>
1.5796

> <Gold.PLP.ligand.clash>
0.0000

> <Gold.PLP.ligand.torsion>
1.7404

> <Gold.PLP.Chemscore.Hbond>
2.0000

> <Gold.PLP.Chemscore.CHOScore>
0.0000

> <Gold.PLP.Chemscore.Metal>
0.0000

> <Gold.Chemscore.Hbonds>
donor molecule, donor type, donor heavy atom, donor atom, acceptor molecule, acceptor atom, score
      P1  H  7989  7998       L1     8  0.98
      P1  H  7997  8009       L1     3  1.00

> <Gold.PLP.Chemscore.Internal.Correction>
0.2010

> <Gold.Rescore>
     Score         DG    S(hbond)    S(metal)    S(lipo)     H(rot)  DE(clash)    DE(int)     intcor
     18.77     -22.24       1.72        0.00     140.16       2.11       1.68       1.79       ----

> <Gold.Chemscore.Fitness>
18.7727

> <Gold.Chemscore.DG>
-22.2435

> <Gold.Chemscore.ZeroCoef>
-5.4800

> <Gold.Chemscore.Hbond>
1.7249

> <Gold.Chemscore.Metal>
0.0000

> <Gold.Chemscore.Lipo>
140.1562

> <Gold.Chemscore.Internal_Hbond>
0.0000

> <Gold.Chemscore.DEClash>
1.6833

> <Gold.Chemscore.DEInternal>
1.7875

> <Gold.Chemscore.Rot>
2.1078

> <Gold.Chemscore.Internal.Correction>
   9.000000E+99

> <Gold.Chemscore.Hbonds>
donor molecule, donor type, donor heavy atom, donor atom, acceptor molecule, acceptor atom, score
      P1  H  7989  7998       L1     8  0.72
      P1  H  7997  8009       L1     3  0.28

> <Gold.Chemscore.Hbond.Weighted>
-5.7613

> <Gold.Chemscore.Metal.Weighted>
-0.0000

> <Gold.Chemscore.Lipo.Weighted>
-16.3983

> <Gold.Chemscore.Internal_Hbond.Weighted>
0.0000

> <Gold.Chemscore.DEClash.Weighted>
1.6833

> <Gold.Chemscore.DEInternal.Weighted>
1.7875

> <Gold.Chemscore.Rot.Weighted>
5.3961

> <Gold.Chemscore.Internal.Correction.Weighted>
   9.000000E+99

> <Gold.Protein.RotatedTorsions>
[ 6907 6896 6895 6894 ] final  -56.83 input  -60.11 | X-H torsion
[ 7974 7965 7964 7962 ] final   76.47 input  175.53 | X-H torsion
[ 8008 7997 7996 7995 ] final  -39.34 input   59.86 | X-H torsion
[ 10167 10162 10161 10158 ] final  120.25 input  -65.29 | X-H torsion
[ 10718 10713 10712 10709 ] final -109.16 input   66.30 | X-H torsion
[ 10763 10752 10751 10750 ] final   96.40 input  -60.55 | X-H torsion
[ 11005 11000 10999 10996 ] final  158.04 input  -57.11 | X-H torsion

> <Gold.Protein.ActiveResidues>
 VAL166  LYS551  ARG553  GLY616  TRP617  ASP618  TYR619  PRO620  LYS621  CYS622 
 ASP623  PHE694  ASN695  SER759  ASP760  ASP761  ALA762  ILE779  LEU786  VAL792 
 PHE793  MET794  SER795  GLU796  ALA797  LYS798  CYS799  TRP800  GLU811  SER814 

> <Gold.Protein.RotatedAtoms>
  150.8135  134.7304  159.6709 H   0  0  0  0  0  0  0  0  0  0  0  0  # atno 6907 bound_to 6896
  152.4255  134.5873  159.9974 H   0  0  0  0  0  0  0  0  0  0  0  0  # atno 6908 bound_to 6896
  151.6076  133.3313  159.3096 H   0  0  0  0  0  0  0  0  0  0  0  0  # atno 6909 bound_to 6896
  145.7024  139.2587  143.1698 H   0  0  0  0  0  0  0  0  0  0  0  0  # atno 7974 bound_to 7965
  154.4024  140.1554  156.2847 H   0  0  0  0  0  0  0  0  0  0  0  0  # atno 8008 bound_to 7997
  155.8838  140.3442  155.5885 H   0  0  0  0  0  0  0  0  0  0  0  0  # atno 8009 bound_to 7997
  155.7637  140.0821  157.2133 H   0  0  0  0  0  0  0  0  0  0  0  0  # atno 8010 bound_to 7997
  139.5994  144.7052  151.3098 H   0  0  0  0  0  0  0  0  0  0  0  0  # atno 10167 bound_to 10162
  156.0523  130.5750  150.8062 H   0  0  0  0  0  0  0  0  0  0  0  0  # atno 10718 bound_to 10713
  153.2645  135.4220  155.0927 H   0  0  0  0  0  0  0  0  0  0  0  0  # atno 10763 bound_to 10752
  154.8433  135.3457  154.6330 H   0  0  0  0  0  0  0  0  0  0  0  0  # atno 10764 bound_to 10752
  153.6750  135.7042  153.5192 H   0  0  0  0  0  0  0  0  0  0  0  0  # atno 10765 bound_to 10752
  140.1827  134.8464  157.2822 H   0  0  0  0  0  0  0  0  0  0  0  0  # atno 11005 bound_to 11000
  146.0786  140.7789  142.9653 LP  0  0  0  0  0  0  0  0  0  0  0  0  # atno 17320 bound_to 7965
  144.6965  140.3453  143.7191 LP  0  0  0  0  0  0  0  0  0  0  0  0  # atno 17321 bound_to 7965
  140.7238  143.7062  150.7805 LP  0  0  0  0  0  0  0  0  0  0  0  0  # atno 17342 bound_to 10162
  140.0635  143.5131  152.2616 LP  0  0  0  0  0  0  0  0  0  0  0  0  # atno 17343 bound_to 10162
  157.5460  131.0942  150.9761 LP  0  0  0  0  0  0  0  0  0  0  0  0  # atno 17370 bound_to 10713
  157.0033  130.5608  149.5313 LP  0  0  0  0  0  0  0  0  0  0  0  0  # atno 17371 bound_to 10713
  140.2249  134.3979  155.7548 LP  0  0  0  0  0  0  0  0  0  0  0  0  # atno 17394 bound_to 11000
  141.2223  133.7185  156.8548 LP  0  0  0  0  0  0  0  0  0  0  0  0  # atno 17395 bound_to 11000

$$$$
