AV-unprocessed.smi:265|AV-procd|sdf|2021|dock5
  -GOLD-   2262021223D 1   1.00000     0.00000
 Structure written by MMmdl.
 52 56  0  0  0  0  0  0  0  0  1 V2000
  147.3446  142.1943  154.4563 C   0  0  0  0  0  0  0  0  0  0  0  0
  147.8885  141.0556  155.3351 C   0  0  2  0  0  0  0  0  0  0  0  0
  148.2056  141.6057  156.6126 O   0  0  0  0  0  0  0  0  0  0  0  0
  149.3693  140.9764  157.1196 C   0  0  0  0  0  0  0  0  0  0  0  0
  150.2138  140.7911  155.8701 C   0  0  0  0  0  0  0  0  0  0  0  0
  149.1804  140.3520  154.8338 C   0  0  2  0  0  0  0  0  0  0  0  0
  149.5973  140.8147  153.5608 O   0  0  0  0  0  0  0  0  0  0  0  0
  148.9805  138.8142  154.7572 C   0  0  0  0  0  0  0  0  0  0  0  0
  148.6164  138.1887  156.0202 N   0  0  0  0  0  0  0  0  0  0  0  0
  147.3415  138.0006  156.5052 C   0  0  0  0  0  0  0  0  0  0  0  0
  147.2680  137.4057  157.6641 N   0  0  0  0  0  0  0  0  0  0  0  0
  148.5927  137.1542  158.0013 C   0  0  0  0  0  0  0  0  0  0  0  0
  149.2314  136.5328  159.1116 C   0  0  0  0  0  0  0  0  0  0  0  0
  148.5413  136.0407  160.1718 N   0  0  0  0  0  0  0  0  0  0  0  0
  147.6765  136.9613  160.9091 C   0  0  0  0  0  0  0  0  0  0  0  0
  147.3078  136.3781  162.2817 C   0  0  0  0  0  0  0  0  0  0  0  0
  146.7071  134.9679  162.1622 C   0  0  1  0  0  0  0  0  0  0  0  0
  145.4310  135.0264  161.5380 O   0  0  0  0  0  0  0  0  0  0  0  0
  144.7252  133.7841  161.5529 C   0  0  0  0  0  0  0  0  0  0  0  0
  145.5959  132.6094  161.0694 C   0  0  0  0  0  0  0  0  0  0  0  0
  145.0688  131.5464  160.7499 O   0  0  0  0  0  0  0  0  0  0  0  0
  146.9284  132.7750  161.0519 N   0  0  0  0  0  0  0  0  0  0  0  0
  147.6018  134.0440  161.3073 C   0  0  1  0  0  0  0  0  0  0  0  0
  147.9820  134.7061  159.9672 C   0  0  0  0  0  0  0  0  0  0  0  0
  150.5882  136.4426  159.0816 N   0  0  0  0  0  0  0  0  0  0  0  0
  151.2749  136.9305  158.0443 C   0  0  0  0  0  0  0  0  0  0  0  0
  150.8129  137.5377  156.9497 N   0  0  0  0  0  0  0  0  0  0  0  0
  149.4528  137.6290  156.9709 C   0  0  0  0  0  0  0  0  0  0  0  0
  146.5881  134.5554  163.1661 H   0  0  0  0  0  0  0  0  0  0  0  0
  148.5168  133.8316  161.8616 H   0  0  0  0  0  0  0  0  0  0  0  0
  147.0625  141.8315  153.4676 H   0  0  0  0  0  0  0  0  0  0  0  0
  148.0842  142.9856  154.3294 H   0  0  0  0  0  0  0  0  0  0  0  0
  146.4581  142.6405  154.9072 H   0  0  0  0  0  0  0  0  0  0  0  0
  147.0946  140.3212  155.4792 H   0  0  0  0  0  0  0  0  0  0  0  0
  149.8608  141.5892  157.8753 H   0  0  0  0  0  0  0  0  0  0  0  0
  149.1082  140.0161  157.5666 H   0  0  0  0  0  0  0  0  0  0  0  0
  150.6422  141.7568  155.5955 H   0  0  0  0  0  0  0  0  0  0  0  0
  151.0429  140.1002  156.0135 H   0  0  0  0  0  0  0  0  0  0  0  0
  149.3518  140.1727  152.9122 H   0  0  0  0  0  0  0  0  0  0  0  0
  148.2024  138.5731  154.0318 H   0  0  0  0  0  0  0  0  0  0  0  0
  149.8902  138.3363  154.3905 H   0  0  0  0  0  0  0  0  0  0  0  0
  146.4610  138.3265  155.9703 H   0  0  0  0  0  0  0  0  0  0  0  0
  148.1777  137.9203  161.0482 H   0  0  0  0  0  0  0  0  0  0  0  0
  146.7726  137.1507  160.3284 H   0  0  0  0  0  0  0  0  0  0  0  0
  148.2052  136.3317  162.8999 H   0  0  0  0  0  0  0  0  0  0  0  0
  146.6127  137.0410  162.7976 H   0  0  0  0  0  0  0  0  0  0  0  0
  144.3812  133.5744  162.5663 H   0  0  0  0  0  0  0  0  0  0  0  0
  143.8402  133.8714  160.9223 H   0  0  0  0  0  0  0  0  0  0  0  0
  147.5035  131.9940  160.7705 H   0  0  0  0  0  0  0  0  0  0  0  0
  147.0987  134.8014  159.3336 H   0  0  0  0  0  0  0  0  0  0  0  0
  148.6763  134.0606  159.4301 H   0  0  0  0  0  0  0  0  0  0  0  0
  152.3477  136.8183  158.0993 H   0  0  0  0  0  0  0  0  0  0  0  0
  1  2  1  0  0  0  0
  1 31  1  0  0  0  0
  1 32  1  0  0  0  0
  1 33  1  0  0  0  0
  2  6  1  0  0  0  0
  2  3  1  0  0  0  0
  2 34  1  0  0  0  0
  3  4  1  0  0  0  0
  4  5  1  0  0  0  0
  4 35  1  0  0  0  0
  4 36  1  0  0  0  0
  5  6  1  0  0  0  0
  5 37  1  0  0  0  0
  5 38  1  0  0  0  0
  6  7  1  0  0  0  0
  6  8  1  0  0  0  0
  7 39  1  0  0  0  0
  8  9  1  0  0  0  0
  8 40  1  0  0  0  0
  8 41  1  0  0  0  0
  9 28  1  0  0  0  0
  9 10  1  0  0  0  0
 10 11  2  0  0  0  0
 10 42  1  0  0  0  0
 11 12  1  0  0  0  0
 12 28  2  0  0  0  0
 12 13  1  0  0  0  0
 13 14  1  0  0  0  0
 13 25  2  0  0  0  0
 14 24  1  0  0  0  0
 14 15  1  0  0  0  0
 15 16  1  0  0  0  0
 15 43  1  0  0  0  0
 15 44  1  0  0  0  0
 16 17  1  0  0  0  0
 16 45  1  0  0  0  0
 16 46  1  0  0  0  0
 17 29  1  0  0  0  0
 17 23  1  0  0  0  0
 17 18  1  0  0  0  0
 18 19  1  0  0  0  0
 19 20  1  0  0  0  0
 19 47  1  0  0  0  0
 19 48  1  0  0  0  0
 20 21  2  0  0  0  0
 20 22  1  0  0  0  0
 22 23  1  0  0  0  0
 22 49  1  0  0  0  0
 23 30  1  0  0  0  0
 23 24  1  0  0  0  0
 24 50  1  0  0  0  0
 24 51  1  0  0  0  0
 25 26  1  0  0  0  0
 26 27  2  0  0  0  0
 26 52  1  0  0  0  0
 27 28  1  0  0  0  0
M  END
> <s_m_source_file>
AV-unprocessed.smi

> <i_m_source_file_index>
265

> <i_lp_mmshare_version>
43012

> <i_f3d_flags>
0

> <s_epik_input>
W0NIMl0xW0NIMl1PW0NAQEhdKFtDSDNdKVtDQEBdMShbT0hdKVtDSDJdbihbY0hdbjIpYyhjMjMpbltjSF1uYzNOKFtDSDJdW0NIMl00KVtDSDJdW0NAQEhdKFtDQEhdNDUpW05IXUMoPU8pW0NIMl1PNQ==

> <s_epik_cmdline>
J2VwaWtfcHl0aG9uJywgJy1waCcsICc3LjAnLCAnLXRuJywgJzgnLCAnLW1hJywgJzIwMCcsICctbWV0YWxfYmluZGluZycsICctaW1hZScsICc8aW5maWxlLm1hZT4nLCAnLW9tYWUnLCAnPG91dGZpbGUubWFlPic=

> <r_lp_tautomer_probability>
1

> <r_epik_Ionization_Penalty>
0.00221504

> <r_epik_Ionization_Penalty_Charging>
0

> <r_epik_Ionization_Penalty_Neutral>
0.00221504

> <r_epik_State_Penalty>
-0

> <r_epik_Charging_Adjusted_Penalty>
0

> <i_epik_Tot_Q>
0

> <i_epik_Tot_abs_Q>
0

> <r_epik_Metal_State_Penalty>
-0

> <b_epik_Metal_Only>
0

> <s_lp_Force_Field>
OPLS_2005

> <r_lp_Energy>
45.2978

> <b_lp_Chiralities_Consistent>
1

> <s_lp_Variant>
AV-unprocessed.smi:265-7

> <Gold.Version>
5.8.1

> <Gold.Id.Protein>
6NUR|6NUR_protein|mol2

> <Gold.PLP.Fitness>
41.1075

> <Gold.PLP.PLP>
-33.0836

> <Gold.PLP.part.hbond>
-3.9170

> <Gold.PLP.part.metal>
0.0000

> <Gold.PLP.part.buried>
-3.8040

> <Gold.PLP.part.nonpolar>
-25.7516

> <Gold.PLP.part.repulsive>
0.1830

> <Gold.PLP.ligand.clash>
0.0000

> <Gold.PLP.ligand.torsion>
0.6950

> <Gold.PLP.Chemscore.Hbond>
3.0120

> <Gold.PLP.Chemscore.CHOScore>
0.0000

> <Gold.PLP.Chemscore.Metal>
0.0000

> <Gold.Chemscore.Hbonds>
donor molecule, donor type, donor heavy atom, donor atom, acceptor molecule, acceptor atom, score
      L1  H     7    39       P1  7957  0.67
      P1  H  6896  6908       L1    25  1.00
      P1  H  7989  7998       L1     7  0.37
      P1  H  8011  8017       L1     7  0.90

> <Gold.PLP.Chemscore.Internal.Correction>
0.3777

> <Gold.Rescore>
     Score         DG    S(hbond)    S(metal)    S(lipo)     H(rot)  DE(clash)    DE(int)     intcor
     14.70     -15.44       2.13        0.00      73.37       2.25       0.01       0.74       ----

> <Gold.Chemscore.Fitness>
14.6964

> <Gold.Chemscore.DG>
-15.4388

> <Gold.Chemscore.ZeroCoef>
-5.4800

> <Gold.Chemscore.Hbond>
2.1326

> <Gold.Chemscore.Metal>
0.0000

> <Gold.Chemscore.Lipo>
73.3654

> <Gold.Chemscore.Internal_Hbond>
0.0000

> <Gold.Chemscore.DEClash>
0.0052

> <Gold.Chemscore.DEInternal>
0.7372

> <Gold.Chemscore.Rot>
2.2453

> <Gold.Chemscore.Internal.Correction>
   9.000000E+99

> <Gold.Chemscore.Hbonds>
donor molecule, donor type, donor heavy atom, donor atom, acceptor molecule, acceptor atom, score
      L1  H     7    39       P1  7957  0.66
      P1  H  6896  6908       L1    25  0.59
      P1  H  7989  7998       L1     7  0.14
      P1  H  8011  8017       L1     7  0.16

> <Gold.Chemscore.Hbond.Weighted>
-7.1230

> <Gold.Chemscore.Metal.Weighted>
-0.0000

> <Gold.Chemscore.Lipo.Weighted>
-8.5837

> <Gold.Chemscore.Internal_Hbond.Weighted>
0.0000

> <Gold.Chemscore.DEClash.Weighted>
0.0052

> <Gold.Chemscore.DEInternal.Weighted>
0.7372

> <Gold.Chemscore.Rot.Weighted>
5.7479

> <Gold.Chemscore.Internal.Correction.Weighted>
   9.000000E+99

> <Gold.Protein.RotatedTorsions>
[ 6907 6896 6895 6894 ] final -157.70 input  -60.11 | X-H torsion
[ 7974 7965 7964 7962 ] final   16.98 input  175.53 | X-H torsion
[ 8008 7997 7996 7995 ] final  -73.85 input   59.86 | X-H torsion
[ 10167 10162 10161 10158 ] final  -96.17 input  -65.29 | X-H torsion
[ 10718 10713 10712 10709 ] final  153.91 input   66.30 | X-H torsion
[ 10763 10752 10751 10750 ] final   63.25 input  -60.55 | X-H torsion
[ 11005 11000 10999 10996 ] final  -54.42 input  -57.11 | X-H torsion

> <Gold.Protein.ActiveResidues>
 VAL166  LYS551  ARG553  GLY616  TRP617  ASP618  TYR619  PRO620  LYS621  CYS622 
 ASP623  PHE694  ASN695  SER759  ASP760  ASP761  ALA762  ILE779  LEU786  VAL792 
 PHE793  MET794  SER795  GLU796  ALA797  LYS798  CYS799  TRP800  GLU811  SER814 

> <Gold.Protein.RotatedAtoms>
  151.3068  133.4098  159.2643 H   0  0  0  0  0  0  0  0  0  0  0  0  # atno 6907 bound_to 6896
  151.0148  134.9425  159.8037 H   0  0  0  0  0  0  0  0  0  0  0  0  # atno 6908 bound_to 6896
  152.5310  134.3032  159.9138 H   0  0  0  0  0  0  0  0  0  0  0  0  # atno 6909 bound_to 6896
  146.2232  139.8668  142.8594 H   0  0  0  0  0  0  0  0  0  0  0  0  # atno 7974 bound_to 7965
  154.5281  140.0772  156.8296 H   0  0  0  0  0  0  0  0  0  0  0  0  # atno 8008 bound_to 7997
  155.3432  140.3408  155.4221 H   0  0  0  0  0  0  0  0  0  0  0  0  # atno 8009 bound_to 7997
  156.1753  140.1633  156.8361 H   0  0  0  0  0  0  0  0  0  0  0  0  # atno 8010 bound_to 7997
  140.2966  143.3188  152.0291 H   0  0  0  0  0  0  0  0  0  0  0  0  # atno 10167 bound_to 10162
  157.2385  131.0754  151.1807 H   0  0  0  0  0  0  0  0  0  0  0  0  # atno 10718 bound_to 10713
  153.0011  135.5436  154.6321 H   0  0  0  0  0  0  0  0  0  0  0  0  # atno 10763 bound_to 10752
  154.5596  135.2833  155.0933 H   0  0  0  0  0  0  0  0  0  0  0  0  # atno 10764 bound_to 10752
  154.2141  135.6462  153.5177 H   0  0  0  0  0  0  0  0  0  0  0  0  # atno 10765 bound_to 10752
  141.1025  133.6616  156.4318 H   0  0  0  0  0  0  0  0  0  0  0  0  # atno 11005 bound_to 11000
  145.2648  141.0089  143.3805 LP  0  0  0  0  0  0  0  0  0  0  0  0  # atno 17320 bound_to 7965
  144.9269  139.4344  143.6514 LP  0  0  0  0  0  0  0  0  0  0  0  0  # atno 17321 bound_to 7965
  139.4925  144.6486  151.6724 LP  0  0  0  0  0  0  0  0  0  0  0  0  # atno 17342 bound_to 10162
  140.5687  144.0146  150.6205 LP  0  0  0  0  0  0  0  0  0  0  0  0  # atno 17343 bound_to 10162
  157.3403  130.7030  149.6378 LP  0  0  0  0  0  0  0  0  0  0  0  0  # atno 17370 bound_to 10713
  155.9671  130.4281  150.4776 LP  0  0  0  0  0  0  0  0  0  0  0  0  # atno 17371 bound_to 10713
  140.4986  134.6507  157.5239 LP  0  0  0  0  0  0  0  0  0  0  0  0  # atno 17394 bound_to 11000
  139.9882  134.7028  155.9737 LP  0  0  0  0  0  0  0  0  0  0  0  0  # atno 17395 bound_to 11000

$$$$
