AV-unprocessed.smi:921|AV-procd|sdf|4171|dock5
  -GOLD-   22720 2 83D 1   1.00000     0.00000
 Structure written by MMmdl.
 40 42  0  0  0  0  0  0  0  0  2 V2000
  146.6103  135.9665  152.7812 N   0  0  0  0  0  0  0  0  0  0  0  0
  146.3666  135.3503  153.9405 C   0  0  0  0  0  0  0  0  0  0  0  0
  145.2346  134.9965  154.2661 O   0  0  0  0  0  0  0  0  0  0  0  0
  147.5652  135.1022  154.8620 C   0  0  0  0  0  0  0  0  0  0  0  0
  148.2495  136.3877  155.2181 C   0  0  0  0  0  0  0  0  0  0  0  0
  148.9293  137.1872  154.3477 N   0  3  0  0  0  0  0  0  0  0  0  0
  149.4704  138.2774  155.0281 C   0  0  0  0  0  0  0  0  0  0  0  0
  150.2399  139.3429  154.5715 C   0  0  0  0  0  0  0  0  0  0  0  0
  150.6438  140.2905  155.5346 C   0  0  0  0  0  0  0  0  0  0  0  0
  150.2849  140.1559  156.8910 C   0  0  0  0  0  0  0  0  0  0  0  0
  149.5053  139.0707  157.3412 C   0  0  0  0  0  0  0  0  0  0  0  0
  149.1020  138.1409  156.3819 C   0  0  0  0  0  0  0  0  0  0  0  0
  148.3276  136.9748  156.4498 N   0  0  0  0  0  0  0  0  0  0  0  0
  147.7628  136.5524  157.7456 C   0  0  0  0  0  0  0  0  0  0  0  0
  148.8239  136.1687  158.8052 C   0  0  2  0  0  0  0  0  0  0  0  0
  149.7217  135.2128  158.2747 O   0  0  0  0  0  0  0  0  0  0  0  0
  148.2093  135.7287  160.1301 C   0  0  0  0  0  0  0  0  0  0  0  0
  148.2240  136.5858  161.2547 C   0  0  0  0  0  0  0  0  0  0  0  0
  147.6748  136.1638  162.4805 C   0  0  0  0  0  0  0  0  0  0  0  0
  147.7043  136.9880  163.5541 F   0  0  0  0  0  0  0  0  0  0  0  0
  147.1001  134.8839  162.5910 C   0  0  0  0  0  0  0  0  0  0  0  0
  147.0799  134.0250  161.4760 C   0  0  0  0  0  0  0  0  0  0  0  0
  147.6340  134.4432  160.2503 C   0  0  0  0  0  0  0  0  0  0  0  0
  147.6192  133.5981  159.1917 F   0  0  0  0  0  0  0  0  0  0  0  0
  145.8471  136.1570  152.1472 H   0  0  0  0  0  0  0  0  0  0  0  0
  147.5501  136.2479  152.5424 H   0  0  0  0  0  0  0  0  0  0  0  0
  147.2455  134.6038  155.7781 H   0  0  0  0  0  0  0  0  0  0  0  0
  148.2589  134.4294  154.3604 H   0  0  0  0  0  0  0  0  0  0  0  0
  150.5197  139.4461  153.5333 H   0  0  0  0  0  0  0  0  0  0  0  0
  151.2427  141.1356  155.2273 H   0  0  0  0  0  0  0  0  0  0  0  0
  150.6139  140.9002  157.6015 H   0  0  0  0  0  0  0  0  0  0  0  0
  149.2368  138.9816  158.3829 H   0  0  0  0  0  0  0  0  0  0  0  0
  147.1629  137.3845  158.1157 H   0  0  0  0  0  0  0  0  0  0  0  0
  147.0590  135.7360  157.5824 H   0  0  0  0  0  0  0  0  0  0  0  0
  149.4283  137.0544  159.0037 H   0  0  0  0  0  0  0  0  0  0  0  0
  150.0335  135.5271  157.4395 H   0  0  0  0  0  0  0  0  0  0  0  0
  148.6708  137.5670  161.1891 H   0  0  0  0  0  0  0  0  0  0  0  0
  146.6774  134.5599  163.5306 H   0  0  0  0  0  0  0  0  0  0  0  0
  146.6416  133.0417  161.5616 H   0  0  0  0  0  0  0  0  0  0  0  0
  149.0251  136.9907  153.3597 H   0  0  0  0  0  0  0  0  0  0  0  0
  1  2  1  0  0  0  0
  1 25  1  0  0  0  0
  1 26  1  0  0  0  0
  2  3  2  0  0  0  0
  2  4  1  0  0  0  0
  4  5  1  0  0  0  0
  4 27  1  0  0  0  0
  4 28  1  0  0  0  0
  5 13  1  0  0  0  0
  5  6  2  0  0  0  0
  6  7  1  0  0  0  0
  6 40  1  0  0  0  0
  7 12  2  0  0  0  0
  7  8  1  0  0  0  0
  8  9  2  0  0  0  0
  8 29  1  0  0  0  0
  9 10  1  0  0  0  0
  9 30  1  0  0  0  0
 10 11  2  0  0  0  0
 10 31  1  0  0  0  0
 11 12  1  0  0  0  0
 11 32  1  0  0  0  0
 12 13  1  0  0  0  0
 13 14  1  0  0  0  0
 14 15  1  0  0  0  0
 14 33  1  0  0  0  0
 14 34  1  0  0  0  0
 15 16  1  0  0  0  0
 15 17  1  0  0  0  0
 15 35  1  0  0  0  0
 16 36  1  0  0  0  0
 17 23  1  0  0  0  0
 17 18  2  0  0  0  0
 18 19  1  0  0  0  0
 18 37  1  0  0  0  0
 19 20  1  0  0  0  0
 19 21  2  0  0  0  0
 21 22  1  0  0  0  0
 21 38  1  0  0  0  0
 22 23  2  0  0  0  0
 22 39  1  0  0  0  0
 23 24  1  0  0  0  0
M  CHG  1   6   1
M  END
> <s_m_source_file>
AV-unprocessed.smi

> <i_m_source_file_index>
921

> <i_lp_mmshare_version>
43012

> <i_f3d_flags>
0

> <s_epik_input>
W2NIXTFbY0hdW2NIXVtjSF1jKGMxMiluKGMobjIpW0NIMl1DKD1PKVtOSDJdKVtDSDJdW0NASF0oW09IXSljM1tjSF1jKEYpW2NIXVtjSF1jM0Y=

> <s_epik_cmdline>
J2VwaWtfcHl0aG9uJywgJy1waCcsICc3LjAnLCAnLXRuJywgJzgnLCAnLW1hJywgJzIwMCcsICctbWV0YWxfYmluZGluZycsICctaW1hZScsICc8aW5maWxlLm1hZT4nLCAnLW9tYWUnLCAnPG91dGZpbGUubWFlPic=

> <r_epik_Ionization_Penalty>
1.66646

> <r_epik_Ionization_Penalty_Charging>
1.66645

> <r_epik_Ionization_Penalty_Neutral>
3.86504e-06

> <r_epik_State_Penalty>
1.76975

> <r_epik_Charging_Adjusted_Penalty>
3.43621

> <i_epik_Tot_Q>
1

> <i_epik_Tot_abs_Q>
1

> <r_epik_Metal_State_Penalty>
1.80493

> <b_epik_Metal_Only>
0

> <s_lp_Force_Field>
OPLS_2005

> <r_lp_Energy>
13.8702

> <b_lp_Chiralities_Consistent>
1

> <s_lp_Variant>
AV-unprocessed.smi:921-3

> <Gold.Version>
5.8.1

> <Gold.Id.Protein>
6NUR|6NUR_protein|mol2

> <Gold.PLP.Fitness>
46.0380

> <Gold.PLP.PLP>
-34.7176

> <Gold.PLP.part.hbond>
-2.8994

> <Gold.PLP.part.metal>
0.0000

> <Gold.PLP.part.buried>
-2.4569

> <Gold.PLP.part.nonpolar>
-29.8117

> <Gold.PLP.part.repulsive>
0.0765

> <Gold.PLP.ligand.clash>
0.0000

> <Gold.PLP.ligand.torsion>
0.3788

> <Gold.PLP.Chemscore.Hbond>
4.0000

> <Gold.PLP.Chemscore.CHOScore>
0.0000

> <Gold.PLP.Chemscore.Metal>
0.0000

> <Gold.Chemscore.Hbonds>
donor molecule, donor type, donor heavy atom, donor atom, acceptor molecule, acceptor atom, score
      L1  H     1    26       P1  7948  1.00
      L1  H     6    40       P1  7948  2.00
      P1  H  6896  6907       L1    16  1.00

> <Gold.PLP.Chemscore.Internal.Correction>
0.0780

> <Gold.Rescore>
     Score         DG    S(hbond)    S(metal)    S(lipo)     H(rot)  DE(clash)    DE(int)     intcor
     14.37     -16.15       2.92        0.00      77.26       3.17       0.20       1.58       ----

> <Gold.Chemscore.Fitness>
14.3679

> <Gold.Chemscore.DG>
-16.1502

> <Gold.Chemscore.ZeroCoef>
-5.4800

> <Gold.Chemscore.Hbond>
2.9194

> <Gold.Chemscore.Metal>
0.0000

> <Gold.Chemscore.Lipo>
77.2579

> <Gold.Chemscore.Internal_Hbond>
0.0000

> <Gold.Chemscore.DEClash>
0.2026

> <Gold.Chemscore.DEInternal>
1.5798

> <Gold.Chemscore.Rot>
3.1717

> <Gold.Chemscore.Internal.Correction>
   9.000000E+99

> <Gold.Chemscore.Hbonds>
donor molecule, donor type, donor heavy atom, donor atom, acceptor molecule, acceptor atom, score
      L1  H     1    26       P1  7948  0.95
      L1  H     6    40       P1  7948  1.00
      P1  H  6896  6907       L1    16  0.87

> <Gold.Chemscore.Hbond.Weighted>
-9.7507

> <Gold.Chemscore.Metal.Weighted>
-0.0000

> <Gold.Chemscore.Lipo.Weighted>
-9.0392

> <Gold.Chemscore.Internal_Hbond.Weighted>
0.0000

> <Gold.Chemscore.DEClash.Weighted>
0.2026

> <Gold.Chemscore.DEInternal.Weighted>
1.5798

> <Gold.Chemscore.Rot.Weighted>
8.1196

> <Gold.Chemscore.Internal.Correction.Weighted>
   9.000000E+99

> <Gold.Protein.RotatedTorsions>
[ 6907 6896 6895 6894 ] final  -80.81 input  -60.11 | X-H torsion
[ 7974 7965 7964 7962 ] final -101.47 input  175.53 | X-H torsion
[ 8008 7997 7996 7995 ] final  171.31 input   59.86 | X-H torsion
[ 10167 10162 10161 10158 ] final  -55.26 input  -65.29 | X-H torsion
[ 10718 10713 10712 10709 ] final -140.93 input   66.30 | X-H torsion
[ 10763 10752 10751 10750 ] final  143.20 input  -60.55 | X-H torsion
[ 11005 11000 10999 10996 ] final  -91.95 input  -57.11 | X-H torsion

> <Gold.Protein.ActiveResidues>
 VAL166  LYS551  ARG553  GLY616  TRP617  ASP618  TYR619  PRO620  LYS621  CYS622 
 ASP623  PHE694  ASN695  SER759  ASP760  ASP761  ALA762  ILE779  LEU786  VAL792 
 PHE793  MET794  SER795  GLU796  ALA797  LYS798  CYS799  TRP800  GLU811  SER814 

> <Gold.Protein.RotatedAtoms>
  150.6922  134.3912  159.5077 H   0  0  0  0  0  0  0  0  0  0  0  0  # atno 6907 bound_to 6896
  152.1700  134.8839  160.0544 H   0  0  0  0  0  0  0  0  0  0  0  0  # atno 6908 bound_to 6896
  151.9869  133.3742  159.4166 H   0  0  0  0  0  0  0  0  0  0  0  0  # atno 6909 bound_to 6896
  145.2812  140.9327  143.2931 H   0  0  0  0  0  0  0  0  0  0  0  0  # atno 7974 bound_to 7965
  156.1283  140.1515  156.9104 H   0  0  0  0  0  0  0  0  0  0  0  0  # atno 8008 bound_to 7997
  154.4888  140.0857  156.7589 H   0  0  0  0  0  0  0  0  0  0  0  0  # atno 8009 bound_to 7997
  155.4303  140.3427  155.4282 H   0  0  0  0  0  0  0  0  0  0  0  0  # atno 8010 bound_to 7997
  140.6384  143.2494  151.5055 H   0  0  0  0  0  0  0  0  0  0  0  0  # atno 10167 bound_to 10162
  156.3281  130.7571  151.1683 H   0  0  0  0  0  0  0  0  0  0  0  0  # atno 10718 bound_to 10713
  153.9683  135.2953  155.3429 H   0  0  0  0  0  0  0  0  0  0  0  0  # atno 10763 bound_to 10752
  154.7336  135.5056  153.9008 H   0  0  0  0  0  0  0  0  0  0  0  0  # atno 10764 bound_to 10752
  153.0912  135.6708  153.9961 H   0  0  0  0  0  0  0  0  0  0  0  0  # atno 10765 bound_to 10752
  141.1533  133.7789  156.9952 H   0  0  0  0  0  0  0  0  0  0  0  0  # atno 11005 bound_to 11000
  144.9252  139.4364  143.6522 LP  0  0  0  0  0  0  0  0  0  0  0  0  # atno 17320 bound_to 7965
  146.3216  139.8133  142.8941 LP  0  0  0  0  0  0  0  0  0  0  0  0  # atno 17321 bound_to 7965
  139.5594  144.2194  152.1666 LP  0  0  0  0  0  0  0  0  0  0  0  0  # atno 17342 bound_to 10162
  140.1458  144.5160  150.6717 LP  0  0  0  0  0  0  0  0  0  0  0  0  # atno 17343 bound_to 10162
  157.7425  131.0489  150.5019 LP  0  0  0  0  0  0  0  0  0  0  0  0  # atno 17370 bound_to 10713
  156.5180  130.4155  149.6265 LP  0  0  0  0  0  0  0  0  0  0  0  0  # atno 17371 bound_to 10713
  140.0977  134.9554  157.1874 LP  0  0  0  0  0  0  0  0  0  0  0  0  # atno 17394 bound_to 11000
  140.3361  134.2756  155.7220 LP  0  0  0  0  0  0  0  0  0  0  0  0  # atno 17395 bound_to 11000

$$$$
