AV-unprocessed.smi:2720|AV-procd|sdf|10499|dock4
  -GOLD-   2272014543D 1   1.00000     0.00000
 Structure written by MMmdl.
 32 33  0  0  0  0  0  0  0  0  3 V2000
  144.0724  137.9957  152.4694 O   0  0  0  0  0  0  0  0  0  0  0  0
  145.0609  136.9920  152.3181 C   0  0  0  0  0  0  0  0  0  0  0  0
  144.3122  135.6406  152.1664 C   0  0  0  0  0  0  0  0  0  0  0  0
  145.1731  134.4681  151.7183 C   0  0  0  0  0  0  0  0  0  0  0  0
  146.3118  134.0816  152.4613 C   0  0  0  0  0  0  0  0  0  0  0  0
  147.0885  132.9925  152.0154 C   0  0  0  0  0  0  0  0  0  0  0  0
  146.7397  132.3338  150.8887 N   0  3  0  0  0  0  0  0  0  0  0  0
  145.6617  132.6713  150.1478 C   0  0  0  0  0  0  0  0  0  0  0  0
  144.8485  133.7525  150.5443 C   0  0  0  0  0  0  0  0  0  0  0  0
  145.8690  137.3052  151.0370 C   0  0  0  0  0  0  0  0  0  0  0  0
  146.7030  138.5945  151.1574 C   0  0  0  0  0  0  0  0  0  0  0  0
  147.5864  138.5395  152.3405 N   0  3  0  0  0  0  0  0  0  0  0  0
  146.8402  138.3383  153.5998 C   0  0  0  0  0  0  0  0  0  0  0  0
  146.0038  137.0451  153.5474 C   0  0  0  0  0  0  0  0  0  0  0  0
  144.0228  138.4973  151.6693 H   0  0  0  0  0  0  0  0  0  0  0  0
  143.7993  135.3782  153.0932 H   0  0  0  0  0  0  0  0  0  0  0  0
  143.5205  135.7535  151.4244 H   0  0  0  0  0  0  0  0  0  0  0  0
  146.5890  134.6097  153.3622 H   0  0  0  0  0  0  0  0  0  0  0  0
  147.9720  132.6317  152.5216 H   0  0  0  0  0  0  0  0  0  0  0  0
  145.4845  132.0716  149.2669 H   0  0  0  0  0  0  0  0  0  0  0  0
  143.9859  134.0266  149.9540 H   0  0  0  0  0  0  0  0  0  0  0  0
  146.5456  136.4760  150.8244 H   0  0  0  0  0  0  0  0  0  0  0  0
  145.2025  137.3770  150.1764 H   0  0  0  0  0  0  0  0  0  0  0  0
  147.3149  138.7319  150.2657 H   0  0  0  0  0  0  0  0  0  0  0  0
  146.0541  139.4681  151.2322 H   0  0  0  0  0  0  0  0  0  0  0  0
  148.2382  137.7768  152.2238 H   0  0  0  0  0  0  0  0  0  0  0  0
  147.5485  138.2952  154.4276 H   0  0  0  0  0  0  0  0  0  0  0  0
  146.1988  139.2023  153.7786 H   0  0  0  0  0  0  0  0  0  0  0  0
  145.4380  136.9534  154.4754 H   0  0  0  0  0  0  0  0  0  0  0  0
  146.6814  136.1905  153.5176 H   0  0  0  0  0  0  0  0  0  0  0  0
  148.1051  139.4043  152.4017 H   0  0  0  0  0  0  0  0  0  0  0  0
  147.3157  131.5488  150.5833 H   0  0  0  0  0  0  0  0  0  0  0  0
  1  2  1  0  0  0  0
  1 15  1  0  0  0  0
  2 14  1  0  0  0  0
  2  3  1  0  0  0  0
  2 10  1  0  0  0  0
  3  4  1  0  0  0  0
  3 16  1  0  0  0  0
  3 17  1  0  0  0  0
  4  9  1  0  0  0  0
  4  5  2  0  0  0  0
  5  6  1  0  0  0  0
  5 18  1  0  0  0  0
  6  7  2  0  0  0  0
  6 19  1  0  0  0  0
  7  8  1  0  0  0  0
  7 32  1  0  0  0  0
  8  9  2  0  0  0  0
  8 20  1  0  0  0  0
  9 21  1  0  0  0  0
 10 11  1  0  0  0  0
 10 22  1  0  0  0  0
 10 23  1  0  0  0  0
 11 12  1  0  0  0  0
 11 24  1  0  0  0  0
 11 25  1  0  0  0  0
 12 13  1  0  0  0  0
 12 26  1  0  0  0  0
 12 31  1  0  0  0  0
 13 14  1  0  0  0  0
 13 27  1  0  0  0  0
 13 28  1  0  0  0  0
 14 29  1  0  0  0  0
 14 30  1  0  0  0  0
M  CHG  1   7   1
M  CHG  1  12   1
M  END
> <s_m_source_file>
AV-unprocessed.smi

> <i_m_source_file_index>
2720

> <i_lp_mmshare_version>
43012

> <i_f3d_flags>
0

> <s_epik_input>
W0NIMl0xW0NIMl1bTkhdW0NIMl1bQ0gyXUMxKFtPSF0pW0NIMl1jMltjSF1bY0hdbltjSF1bY0hdMg==

> <s_epik_cmdline>
J2VwaWtfcHl0aG9uJywgJy1waCcsICc3LjAnLCAnLXRuJywgJzgnLCAnLW1hJywgJzIwMCcsICctbWV0YWxfYmluZGluZycsICctaW1hZScsICc8aW5maWxlLm1hZT4nLCAnLW9tYWUnLCAnPG91dGZpbGUubWFlPic=

> <r_epik_Ionization_Penalty>
1.30405

> <r_epik_Ionization_Penalty_Charging>
1.30405

> <r_epik_Ionization_Penalty_Neutral>
5.30574e-07

> <r_epik_State_Penalty>
1.37793

> <r_epik_Charging_Adjusted_Penalty>
2.68198

> <i_epik_Tot_Q>
2

> <i_epik_Tot_abs_Q>
2

> <r_epik_Metal_State_Penalty>
5.40982

> <b_epik_Metal_Only>
0

> <s_lp_Force_Field>
OPLS_2005

> <r_lp_Energy>
28.3784

> <b_lp_Chiralities_Consistent>
1

> <s_lp_Variant>
AV-unprocessed.smi:2720-2

> <Gold.Version>
5.8.1

> <Gold.Id.Protein>
6NUR|6NUR_protein|mol2

> <Gold.PLP.Fitness>
38.6456

> <Gold.PLP.PLP>
-25.3245

> <Gold.PLP.part.hbond>
-4.7921

> <Gold.PLP.part.metal>
0.0000

> <Gold.PLP.part.buried>
2.7171

> <Gold.PLP.part.nonpolar>
-23.2358

> <Gold.PLP.part.repulsive>
0.1343

> <Gold.PLP.ligand.clash>
0.0000

> <Gold.PLP.ligand.torsion>
0.0972

> <Gold.PLP.Chemscore.Hbond>
4.5040

> <Gold.PLP.Chemscore.CHOScore>
0.0000

> <Gold.PLP.Chemscore.Metal>
0.0000

> <Gold.Chemscore.Hbonds>
donor molecule, donor type, donor heavy atom, donor atom, acceptor molecule, acceptor atom, score
      L1  H     1    15       P1 10171  1.00
      L1  H     7    32       P1 10747  0.98
      L1  H    12    26       P1  7948  2.00
      L1  H    12    31       P1  7957  0.52

> <Gold.PLP.Chemscore.Internal.Correction>
0.0035

> <Gold.Rescore>
     Score         DG    S(hbond)    S(metal)    S(lipo)     H(rot)  DE(clash)    DE(int)     intcor
     18.54     -20.73       3.48        0.00      67.41       1.67       2.08       0.11       ----

> <Gold.Chemscore.Fitness>
18.5434

> <Gold.Chemscore.DG>
-20.7316

> <Gold.Chemscore.ZeroCoef>
-5.4800

> <Gold.Chemscore.Hbond>
3.4841

> <Gold.Chemscore.Metal>
0.0000

> <Gold.Chemscore.Lipo>
67.4138

> <Gold.Chemscore.Internal_Hbond>
0.0000

> <Gold.Chemscore.DEClash>
2.0757

> <Gold.Chemscore.DEInternal>
0.1125

> <Gold.Chemscore.Rot>
1.6691

> <Gold.Chemscore.Internal.Correction>
   9.000000E+99

> <Gold.Chemscore.Hbonds>
donor molecule, donor type, donor heavy atom, donor atom, acceptor molecule, acceptor atom, score
      L1  H     1    15       P1 10171  0.95
      L1  H     7    32       P1 10747  0.93
      L1  H    12    26       P1  7948  1.00
      L1  H    12    31       P1  7957  0.48

> <Gold.Chemscore.Hbond.Weighted>
-11.6371

> <Gold.Chemscore.Metal.Weighted>
-0.0000

> <Gold.Chemscore.Lipo.Weighted>
-7.8874

> <Gold.Chemscore.Internal_Hbond.Weighted>
0.0000

> <Gold.Chemscore.DEClash.Weighted>
2.0757

> <Gold.Chemscore.DEInternal.Weighted>
0.1125

> <Gold.Chemscore.Rot.Weighted>
4.2728

> <Gold.Chemscore.Internal.Correction.Weighted>
   9.000000E+99

> <Gold.Protein.RotatedTorsions>
[ 6907 6896 6895 6894 ] final  143.16 input  -60.11 | X-H torsion
[ 7974 7965 7964 7962 ] final  131.50 input  175.53 | X-H torsion
[ 8008 7997 7996 7995 ] final -125.46 input   59.86 | X-H torsion
[ 10167 10162 10161 10158 ] final  138.09 input  -65.29 | X-H torsion
[ 10718 10713 10712 10709 ] final  111.62 input   66.30 | X-H torsion
[ 10763 10752 10751 10750 ] final    6.08 input  -60.55 | X-H torsion
[ 11005 11000 10999 10996 ] final  -55.03 input  -57.11 | X-H torsion

> <Gold.Protein.ActiveResidues>
 VAL166  LYS551  ARG553  GLY616  TRP617  ASP618  TYR619  PRO620  LYS621  CYS622 
 ASP623  PHE694  ASN695  SER759  ASP760  ASP761  ALA762  ILE779  LEU786  VAL792 
 PHE793  MET794  SER795  GLU796  ALA797  LYS798  CYS799  TRP800  GLU811  SER814 

> <Gold.Protein.RotatedAtoms>
  152.2098  133.4902  159.5103 H   0  0  0  0  0  0  0  0  0  0  0  0  # atno 6907 bound_to 6896
  150.6987  134.1482  159.4139 H   0  0  0  0  0  0  0  0  0  0  0  0  # atno 6908 bound_to 6896
  151.9401  135.0217  160.0586 H   0  0  0  0  0  0  0  0  0  0  0  0  # atno 6909 bound_to 6896
  145.0067  139.4260  143.5265 H   0  0  0  0  0  0  0  0  0  0  0  0  # atno 7974 bound_to 7965
  155.2136  140.0419  157.2937 H   0  0  0  0  0  0  0  0  0  0  0  0  # atno 8008 bound_to 7997
  154.5995  140.2448  155.7782 H   0  0  0  0  0  0  0  0  0  0  0  0  # atno 8009 bound_to 7997
  156.2312  140.2937  156.0202 H   0  0  0  0  0  0  0  0  0  0  0  0  # atno 8010 bound_to 7997
  139.5122  144.6373  151.5662 H   0  0  0  0  0  0  0  0  0  0  0  0  # atno 10167 bound_to 10162
  157.6435  131.0954  150.6775 H   0  0  0  0  0  0  0  0  0  0  0  0  # atno 10718 bound_to 10713
  153.2519  135.6914  153.7670 H   0  0  0  0  0  0  0  0  0  0  0  0  # atno 10763 bound_to 10752
  153.6762  135.3336  155.3167 H   0  0  0  0  0  0  0  0  0  0  0  0  # atno 10764 bound_to 10752
  154.8397  135.4511  154.1479 H   0  0  0  0  0  0  0  0  0  0  0  0  # atno 10765 bound_to 10752
  141.1054  133.6614  156.4408 H   0  0  0  0  0  0  0  0  0  0  0  0  # atno 11005 bound_to 11000
  146.3462  139.9487  142.8731 LP  0  0  0  0  0  0  0  0  0  0  0  0  # atno 17320 bound_to 7965
  145.2079  140.9883  143.4117 LP  0  0  0  0  0  0  0  0  0  0  0  0  # atno 17321 bound_to 7965
  140.6127  143.9406  150.6465 LP  0  0  0  0  0  0  0  0  0  0  0  0  # atno 17342 bound_to 10162
  140.2654  143.3494  152.1286 LP  0  0  0  0  0  0  0  0  0  0  0  0  # atno 17343 bound_to 10162
  156.7096  130.4648  149.5551 LP  0  0  0  0  0  0  0  0  0  0  0  0  # atno 17370 bound_to 10713
  156.1739  130.6455  151.0871 LP  0  0  0  0  0  0  0  0  0  0  0  0  # atno 17371 bound_to 10713
  140.4915  134.6571  157.5212 LP  0  0  0  0  0  0  0  0  0  0  0  0  # atno 17394 bound_to 11000
  139.9922  134.6967  155.9670 LP  0  0  0  0  0  0  0  0  0  0  0  0  # atno 17395 bound_to 11000

$$$$
