AV-unprocessed.smi:3241|AV-procd|sdf|12386|dock5
  -GOLD-   2272018253D 1   1.00000     0.00000
 Structure written by MMmdl.
 44 45  0  0  0  0  0  0  0  0  2 V2000
  151.3303  145.5133  159.6827 C   0  0  0  0  0  0  0  0  0  0  0  0
  152.3370  144.4329  160.1068 C   0  0  1  0  0  0  0  0  0  0  0  0
  151.9334  143.7727  161.4401 C   0  0  0  0  0  0  0  0  0  0  0  0
  152.9733  142.7361  161.8928 C   0  0  0  0  0  0  0  0  0  0  0  0
  153.2122  141.6748  160.8085 C   0  0  0  0  0  0  0  0  0  0  0  0
  153.6047  142.3210  159.4687 C   0  0  0  0  0  0  0  0  0  0  0  0
  152.5730  143.3681  159.0089 C   0  0  1  0  0  0  0  0  0  0  0  0
  151.3547  142.6881  158.7308 O   0  0  0  0  0  0  0  0  0  0  0  0
  151.2709  142.1243  157.4311 C   0  0  0  0  0  0  0  0  0  0  0  0
  149.9090  141.4356  157.3074 C   0  0  0  0  0  0  0  0  0  0  0  0
  148.8257  142.4309  157.4156 N   0  3  0  0  0  0  0  0  0  0  0  0
  147.4737  141.8604  157.5706 C   0  0  0  0  0  0  0  0  0  0  0  0
  146.9871  141.2162  156.2621 C   0  0  0  0  0  0  0  0  0  0  0  0
  146.3628  142.1824  155.3750 N   0  0  0  0  0  0  0  0  0  0  0  0
  146.7554  142.5617  154.1086 C   0  0  0  0  0  0  0  0  0  0  0  0
  145.8529  143.4846  153.6632 C   0  0  0  0  0  0  0  0  0  0  0  0
  144.9333  143.6076  154.7418 C   0  0  0  0  0  0  0  0  0  0  0  0
  145.2400  142.8257  155.7646 N   0  0  0  0  0  0  0  0  0  0  0  0
  150.3328  145.0980  159.5405 H   0  0  0  0  0  0  0  0  0  0  0  0
  151.6330  145.9889  158.7496 H   0  0  0  0  0  0  0  0  0  0  0  0
  151.2544  146.2943  160.4398 H   0  0  0  0  0  0  0  0  0  0  0  0
  153.2888  144.9409  160.2714 H   0  0  0  0  0  0  0  0  0  0  0  0
  151.8170  144.5329  162.2133 H   0  0  0  0  0  0  0  0  0  0  0  0
  150.9612  143.2896  161.3350 H   0  0  0  0  0  0  0  0  0  0  0  0
  153.9129  143.2391  162.1246 H   0  0  0  0  0  0  0  0  0  0  0  0
  152.6438  142.2575  162.8154 H   0  0  0  0  0  0  0  0  0  0  0  0
  153.9933  140.9856  161.1305 H   0  0  0  0  0  0  0  0  0  0  0  0
  152.3096  141.0766  160.6777 H   0  0  0  0  0  0  0  0  0  0  0  0
  154.5796  142.7985  159.5734 H   0  0  0  0  0  0  0  0  0  0  0  0
  153.7225  141.5517  158.7051 H   0  0  0  0  0  0  0  0  0  0  0  0
  152.9625  143.8526  158.1111 H   0  0  0  0  0  0  0  0  0  0  0  0
  151.3766  142.8871  156.6581 H   0  0  0  0  0  0  0  0  0  0  0  0
  152.0787  141.4038  157.2961 H   0  0  0  0  0  0  0  0  0  0  0  0
  149.8294  140.9257  156.3466 H   0  0  0  0  0  0  0  0  0  0  0  0
  149.8019  140.6798  158.0866 H   0  0  0  0  0  0  0  0  0  0  0  0
  149.0121  143.0048  158.2264 H   0  0  0  0  0  0  0  0  0  0  0  0
  147.4930  141.1151  158.3664 H   0  0  0  0  0  0  0  0  0  0  0  0
  146.7789  142.6427  157.8796 H   0  0  0  0  0  0  0  0  0  0  0  0
  147.8136  140.7321  155.7391 H   0  0  0  0  0  0  0  0  0  0  0  0
  146.2581  140.4357  156.4827 H   0  0  0  0  0  0  0  0  0  0  0  0
  147.6325  142.1464  153.6340 H   0  0  0  0  0  0  0  0  0  0  0  0
  145.8502  143.9944  152.7112 H   0  0  0  0  0  0  0  0  0  0  0  0
  144.0560  144.2343  154.8100 H   0  0  0  0  0  0  0  0  0  0  0  0
  148.8403  143.0230  156.5975 H   0  0  0  0  0  0  0  0  0  0  0  0
  1  2  1  0  0  0  0
  1 19  1  0  0  0  0
  1 20  1  0  0  0  0
  1 21  1  0  0  0  0
  2  7  1  0  0  0  0
  2  3  1  0  0  0  0
  2 22  1  0  0  0  0
  3  4  1  0  0  0  0
  3 23  1  0  0  0  0
  3 24  1  0  0  0  0
  4  5  1  0  0  0  0
  4 25  1  0  0  0  0
  4 26  1  0  0  0  0
  5  6  1  0  0  0  0
  5 27  1  0  0  0  0
  5 28  1  0  0  0  0
  6  7  1  0  0  0  0
  6 29  1  0  0  0  0
  6 30  1  0  0  0  0
  7  8  1  0  0  0  0
  7 31  1  0  0  0  0
  8  9  1  0  0  0  0
  9 10  1  0  0  0  0
  9 32  1  0  0  0  0
  9 33  1  0  0  0  0
 10 11  1  0  0  0  0
 10 34  1  0  0  0  0
 10 35  1  0  0  0  0
 11 12  1  0  0  0  0
 11 36  1  0  0  0  0
 11 44  1  0  0  0  0
 12 13  1  0  0  0  0
 12 37  1  0  0  0  0
 12 38  1  0  0  0  0
 13 14  1  0  0  0  0
 13 39  1  0  0  0  0
 13 40  1  0  0  0  0
 14 18  1  0  0  0  0
 14 15  1  0  0  0  0
 15 16  2  0  0  0  0
 15 41  1  0  0  0  0
 16 17  1  0  0  0  0
 16 42  1  0  0  0  0
 17 18  2  0  0  0  0
 17 43  1  0  0  0  0
M  CHG  1  11   1
M  END
> <s_m_source_file>
AV-unprocessed.smi

> <i_m_source_file_index>
3241

> <i_lp_mmshare_version>
43012

> <i_f3d_flags>
0

> <s_epik_input>
W0NIM11bQ0BASF0xW0NIMl1bQ0gyXVtDSDJdW0NIMl1bQ0BIXTFPW0NIMl1bQ0gyXVtOSF1bQ0gyXVtDSDJdbjJbY0hdW2NIXVtjSF1uMg==

> <s_epik_cmdline>
J2VwaWtfcHl0aG9uJywgJy1waCcsICc3LjAnLCAnLXRuJywgJzgnLCAnLW1hJywgJzIwMCcsICctbWV0YWxfYmluZGluZycsICctaW1hZScsICc8aW5maWxlLm1hZT4nLCAnLW9tYWUnLCAnPG91dGZpbGUubWFlPic=

> <r_lp_tautomer_probability>
1

> <r_epik_Ionization_Penalty>
0.00924946

> <r_epik_Ionization_Penalty_Charging>
0.00924645

> <r_epik_Ionization_Penalty_Neutral>
3.00629e-06

> <r_epik_State_Penalty>
0.0070118

> <r_epik_Charging_Adjusted_Penalty>
0.0162583

> <i_epik_Tot_Q>
1

> <i_epik_Tot_abs_Q>
1

> <r_epik_Metal_State_Penalty>
0.00702523

> <b_epik_Metal_Only>
0

> <s_lp_Force_Field>
OPLS_2005

> <r_lp_Energy>
14.1188

> <b_lp_Chiralities_Consistent>
1

> <s_lp_Variant>
AV-unprocessed.smi:3241-2

> <Gold.Version>
5.8.1

> <Gold.Id.Protein>
6NUR|6NUR_protein|mol2

> <Gold.PLP.Fitness>
51.2056

> <Gold.PLP.PLP>
-46.0054

> <Gold.PLP.part.hbond>
-1.0000

> <Gold.PLP.part.metal>
0.0000

> <Gold.PLP.part.buried>
-6.5284

> <Gold.PLP.part.nonpolar>
-38.4240

> <Gold.PLP.part.repulsive>
0.2309

> <Gold.PLP.ligand.clash>
0.0000

> <Gold.PLP.ligand.torsion>
0.4940

> <Gold.PLP.Chemscore.Hbond>
2.0000

> <Gold.PLP.Chemscore.CHOScore>
0.0000

> <Gold.PLP.Chemscore.Metal>
0.0000

> <Gold.Chemscore.Hbonds>
donor molecule, donor type, donor heavy atom, donor atom, acceptor molecule, acceptor atom, score
      L1  H    11    44       P1  8028  2.00

> <Gold.PLP.Chemscore.Internal.Correction>
0.1882

> <Gold.Rescore>
     Score         DG    S(hbond)    S(metal)    S(lipo)     H(rot)  DE(clash)    DE(int)     intcor
     17.61     -18.16       0.97        0.00     122.16       1.89       0.13       0.42       ----

> <Gold.Chemscore.Fitness>
17.6071

> <Gold.Chemscore.DG>
-18.1575

> <Gold.Chemscore.ZeroCoef>
-5.4800

> <Gold.Chemscore.Hbond>
0.9654

> <Gold.Chemscore.Metal>
0.0000

> <Gold.Chemscore.Lipo>
122.1623

> <Gold.Chemscore.Internal_Hbond>
0.0000

> <Gold.Chemscore.DEClash>
0.1322

> <Gold.Chemscore.DEInternal>
0.4182

> <Gold.Chemscore.Rot>
1.8906

> <Gold.Chemscore.Internal.Correction>
   9.000000E+99

> <Gold.Chemscore.Hbonds>
donor molecule, donor type, donor heavy atom, donor atom, acceptor molecule, acceptor atom, score
      L1  H    11    44       P1  8028  0.91

> <Gold.Chemscore.Hbond.Weighted>
-3.2245

> <Gold.Chemscore.Metal.Weighted>
-0.0000

> <Gold.Chemscore.Lipo.Weighted>
-14.2930

> <Gold.Chemscore.Internal_Hbond.Weighted>
0.0000

> <Gold.Chemscore.DEClash.Weighted>
0.1322

> <Gold.Chemscore.DEInternal.Weighted>
0.4182

> <Gold.Chemscore.Rot.Weighted>
4.8400

> <Gold.Chemscore.Internal.Correction.Weighted>
   9.000000E+99

> <Gold.Protein.RotatedTorsions>
[ 6907 6896 6895 6894 ] final -143.99 input  -60.11 | X-H torsion
[ 7974 7965 7964 7962 ] final  172.97 input  175.53 | X-H torsion
[ 8008 7997 7996 7995 ] final  132.99 input   59.86 | X-H torsion
[ 10167 10162 10161 10158 ] final  110.27 input  -65.29 | X-H torsion
[ 10718 10713 10712 10709 ] final  -11.49 input   66.30 | X-H torsion
[ 10763 10752 10751 10750 ] final  137.53 input  -60.55 | X-H torsion
[ 11005 11000 10999 10996 ] final -124.17 input  -57.11 | X-H torsion

> <Gold.Protein.ActiveResidues>
 VAL166  LYS551  ARG553  GLY616  TRP617  ASP618  TYR619  PRO620  LYS621  CYS622 
 ASP623  PHE694  ASN695  SER759  ASP760  ASP761  ALA762  ILE779  LEU786  VAL792 
 PHE793  MET794  SER795  GLU796  ALA797  LYS798  CYS799  TRP800  GLU811  SER814 

> <Gold.Protein.RotatedAtoms>
  151.1080  133.5194  159.2606 H   0  0  0  0  0  0  0  0  0  0  0  0  # atno 6907 bound_to 6896
  151.1999  135.0438  159.8878 H   0  0  0  0  0  0  0  0  0  0  0  0  # atno 6908 bound_to 6896
  152.5448  134.0909  159.8330 H   0  0  0  0  0  0  0  0  0  0  0  0  # atno 6909 bound_to 6896
  144.7255  139.9579  143.6434 H   0  0  0  0  0  0  0  0  0  0  0  0  # atno 7974 bound_to 7965
  156.2988  140.2532  156.3180 H   0  0  0  0  0  0  0  0  0  0  0  0  # atno 8008 bound_to 7997
  154.9262  140.0399  157.2043 H   0  0  0  0  0  0  0  0  0  0  0  0  # atno 8009 bound_to 7997
  154.8262  140.2868  155.5757 H   0  0  0  0  0  0  0  0  0  0  0  0  # atno 8010 bound_to 7997
  139.6701  144.7125  151.1703 H   0  0  0  0  0  0  0  0  0  0  0  0  # atno 10167 bound_to 10162
  156.6583  130.4974  149.6039 H   0  0  0  0  0  0  0  0  0  0  0  0  # atno 10718 bound_to 10713
  153.8745  135.3051  155.3443 H   0  0  0  0  0  0  0  0  0  0  0  0  # atno 10763 bound_to 10752
  154.7790  135.4846  153.9807 H   0  0  0  0  0  0  0  0  0  0  0  0  # atno 10764 bound_to 10752
  153.1387  135.6819  153.9158 H   0  0  0  0  0  0  0  0  0  0  0  0  # atno 10765 bound_to 10752
  140.9862  134.0604  157.3708 H   0  0  0  0  0  0  0  0  0  0  0  0  # atno 11005 bound_to 11000
  146.0661  139.3651  143.0552 LP  0  0  0  0  0  0  0  0  0  0  0  0  # atno 17320 bound_to 7965
  145.8030  140.9762  143.0989 LP  0  0  0  0  0  0  0  0  0  0  0  0  # atno 17321 bound_to 7965
  140.7615  143.5857  150.8848 LP  0  0  0  0  0  0  0  0  0  0  0  0  # atno 17342 bound_to 10162
  139.9522  143.6260  152.3026 LP  0  0  0  0  0  0  0  0  0  0  0  0  # atno 17343 bound_to 10162
  156.2030  130.6632  151.1188 LP  0  0  0  0  0  0  0  0  0  0  0  0  # atno 17370 bound_to 10713
  157.7118  131.0730  150.6473 LP  0  0  0  0  0  0  0  0  0  0  0  0  # atno 17371 bound_to 10713
  139.8971  135.0149  156.7086 LP  0  0  0  0  0  0  0  0  0  0  0  0  # atno 17394 bound_to 11000
  140.7111  133.9222  155.8085 LP  0  0  0  0  0  0  0  0  0  0  0  0  # atno 17395 bound_to 11000

$$$$
