AV-unprocessed.smi:609|AV-procd|sdf|3051|dock1
  -GOLD-   2262023573D 1   1.00000     0.00000
 Structure written by MMmdl.
 43 45  0  0  0  0  0  0  0  0  2 V2000
  152.4153  143.5365  161.4579 C   0  0  0  0  0  0  0  0  0  0  0  0
  152.2237  142.7932  160.1468 C   0  0  0  0  0  0  0  0  0  0  0  0
  151.3756  143.3596  159.1684 C   0  0  0  0  0  0  0  0  0  0  0  0
  151.2216  142.6573  157.9791 C   0  0  0  0  0  0  0  0  0  0  0  0
  150.4707  142.9440  156.8368 N   0  3  0  0  0  0  0  0  0  0  0  0
  150.6395  141.9499  155.9211 C   0  0  0  0  0  0  0  0  0  0  0  0
  151.4858  141.0331  156.4633 N   0  0  0  0  0  0  0  0  0  0  0  0
  152.0019  139.7776  155.9030 C   0  0  0  0  0  0  0  0  0  0  0  0
  150.8920  138.8813  155.3203 C   0  0  2  0  0  0  0  0  0  0  0  0
  150.3755  139.4752  154.1445 O   0  0  0  0  0  0  0  0  0  0  0  0
  149.7479  138.6604  156.3220 C   0  0  0  0  0  0  0  0  0  0  0  0
  150.3529  138.5587  158.0346 S   0  0  0  0  0  0  0  0  0  0  0  0
  149.1984  137.3960  158.7001 C   0  0  0  0  0  0  0  0  0  0  0  0
  149.5201  136.3041  159.3901 N   0  0  0  0  0  0  0  0  0  0  0  0
  148.3062  135.7034  159.7049 C   0  0  0  0  0  0  0  0  0  0  0  0
  147.2803  136.4578  159.1910 C   0  0  0  0  0  0  0  0  0  0  0  0
  147.8679  137.5402  158.5497 N   0  0  0  0  0  0  0  0  0  0  0  0
  147.1673  138.6052  157.8589 C   0  0  0  0  0  0  0  0  0  0  0  0
  151.8749  141.4319  157.7459 C   0  0  0  0  0  0  0  0  0  0  0  0
  152.7132  140.8586  158.6987 C   0  0  0  0  0  0  0  0  0  0  0  0
  152.8838  141.5583  159.9148 C   0  0  0  0  0  0  0  0  0  0  0  0
  153.7946  140.9593  160.9731 C   0  0  0  0  0  0  0  0  0  0  0  0
  151.8781  144.4856  161.4613 H   0  0  0  0  0  0  0  0  0  0  0  0
  153.4706  143.7515  161.6269 H   0  0  0  0  0  0  0  0  0  0  0  0
  152.0448  142.9406  162.2923 H   0  0  0  0  0  0  0  0  0  0  0  0
  150.8702  144.2992  159.3377 H   0  0  0  0  0  0  0  0  0  0  0  0
  150.1880  141.8994  154.9408 H   0  0  0  0  0  0  0  0  0  0  0  0
  152.7489  140.0196  155.1459 H   0  0  0  0  0  0  0  0  0  0  0  0
  152.5293  139.2551  156.7023 H   0  0  0  0  0  0  0  0  0  0  0  0
  151.3169  137.9142  155.0490 H   0  0  0  0  0  0  0  0  0  0  0  0
  149.5256  139.8391  154.3427 H   0  0  0  0  0  0  0  0  0  0  0  0
  149.0423  139.4897  156.2592 H   0  0  0  0  0  0  0  0  0  0  0  0
  149.1992  137.7506  156.0745 H   0  0  0  0  0  0  0  0  0  0  0  0
  148.2658  134.7844  160.2709 H   0  0  0  0  0  0  0  0  0  0  0  0
  146.2098  136.3176  159.2273 H   0  0  0  0  0  0  0  0  0  0  0  0
  146.0899  138.4470  157.9157 H   0  0  0  0  0  0  0  0  0  0  0  0
  147.4666  138.6242  156.8105 H   0  0  0  0  0  0  0  0  0  0  0  0
  147.4080  139.5642  158.3188 H   0  0  0  0  0  0  0  0  0  0  0  0
  153.2161  139.9197  158.5199 H   0  0  0  0  0  0  0  0  0  0  0  0
  154.1795  139.9870  160.6640 H   0  0  0  0  0  0  0  0  0  0  0  0
  153.2556  140.8197  161.9105 H   0  0  0  0  0  0  0  0  0  0  0  0
  154.6474  141.6129  161.1567 H   0  0  0  0  0  0  0  0  0  0  0  0
  149.8879  143.7580  156.6887 H   0  0  0  0  0  0  0  0  0  0  0  0
  1  2  1  0  0  0  0
  1 23  1  0  0  0  0
  1 24  1  0  0  0  0
  1 25  1  0  0  0  0
  2 21  1  0  0  0  0
  2  3  2  0  0  0  0
  3  4  1  0  0  0  0
  3 26  1  0  0  0  0
  4 19  2  0  0  0  0
  4  5  1  0  0  0  0
  5  6  2  0  0  0  0
  5 43  1  0  0  0  0
  6  7  1  0  0  0  0
  6 27  1  0  0  0  0
  7  8  1  0  0  0  0
  7 19  1  0  0  0  0
  8  9  1  0  0  0  0
  8 28  1  0  0  0  0
  8 29  1  0  0  0  0
  9 10  1  0  0  0  0
  9 11  1  0  0  0  0
  9 30  1  0  0  0  0
 10 31  1  0  0  0  0
 11 12  1  0  0  0  0
 11 32  1  0  0  0  0
 11 33  1  0  0  0  0
 12 13  1  0  0  0  0
 13 17  1  0  0  0  0
 13 14  2  0  0  0  0
 14 15  1  0  0  0  0
 15 16  2  0  0  0  0
 15 34  1  0  0  0  0
 16 17  1  0  0  0  0
 16 35  1  0  0  0  0
 17 18  1  0  0  0  0
 18 36  1  0  0  0  0
 18 37  1  0  0  0  0
 18 38  1  0  0  0  0
 19 20  1  0  0  0  0
 20 21  2  0  0  0  0
 20 39  1  0  0  0  0
 21 22  1  0  0  0  0
 22 40  1  0  0  0  0
 22 41  1  0  0  0  0
 22 42  1  0  0  0  0
M  CHG  1   5   1
M  END
> <s_m_source_file>
AV-unprocessed.smi

> <i_m_source_file_index>
609

> <i_lp_mmshare_version>
43012

> <i_f3d_flags>
0

> <s_epik_input>
W0NIM11jKFtjSF0xKWMoW0NIM10pW2NIXWMoYzEyKW4oW2NIXW4yKVtDSDJdW0NASF0oW09IXSlbQ0gyXVNjM25bY0hdW2NIXW4zW0NIM10=

> <s_epik_cmdline>
J2VwaWtfcHl0aG9uJywgJy1waCcsICc3LjAnLCAnLXRuJywgJzgnLCAnLW1hJywgJzIwMCcsICctbWV0YWxfYmluZGluZycsICctaW1hZScsICc8aW5maWxlLm1hZT4nLCAnLW9tYWUnLCAnPG91dGZpbGUubWFlPic=

> <r_epik_Ionization_Penalty>
2.09683

> <r_epik_Ionization_Penalty_Charging>
2.09682

> <r_epik_Ionization_Penalty_Neutral>
2.49751e-06

> <r_epik_State_Penalty>
2.21514

> <r_epik_Charging_Adjusted_Penalty>
4.31197

> <i_epik_Tot_Q>
1

> <i_epik_Tot_abs_Q>
1

> <r_epik_Metal_State_Penalty>
1.52634

> <b_epik_Metal_Only>
0

> <s_lp_Force_Field>
OPLS_2005

> <r_lp_Energy>
12.8682

> <b_lp_Chiralities_Consistent>
1

> <s_lp_Variant>
AV-unprocessed.smi:609-7

> <Gold.Version>
5.8.1

> <Gold.Id.Protein>
6NUR|6NUR_protein|mol2

> <Gold.PLP.Fitness>
52.8014

> <Gold.PLP.PLP>
-42.1287

> <Gold.PLP.part.hbond>
-3.6604

> <Gold.PLP.part.metal>
0.0000

> <Gold.PLP.part.buried>
-6.8988

> <Gold.PLP.part.nonpolar>
-31.2025

> <Gold.PLP.part.repulsive>
0.0350

> <Gold.PLP.ligand.clash>
0.0000

> <Gold.PLP.ligand.torsion>
0.7126

> <Gold.PLP.Chemscore.Hbond>
4.0000

> <Gold.PLP.Chemscore.CHOScore>
0.0000

> <Gold.PLP.Chemscore.Metal>
0.0000

> <Gold.Chemscore.Hbonds>
donor molecule, donor type, donor heavy atom, donor atom, acceptor molecule, acceptor atom, score
      L1  H     5    43       P1  8028  2.00
      P1  H  6896  6909       L1    14  1.00
      P1  H  7989  7998       L1    10  1.00

> <Gold.PLP.Chemscore.Internal.Correction>
0.0979

> <Gold.Rescore>
     Score         DG    S(hbond)    S(metal)    S(lipo)     H(rot)  DE(clash)    DE(int)     intcor
     17.10     -18.75       2.31        0.00     101.77       2.48       0.24       1.41       ----

> <Gold.Chemscore.Fitness>
17.0968

> <Gold.Chemscore.DG>
-18.7460

> <Gold.Chemscore.ZeroCoef>
-5.4800

> <Gold.Chemscore.Hbond>
2.3068

> <Gold.Chemscore.Metal>
0.0000

> <Gold.Chemscore.Lipo>
101.7701

> <Gold.Chemscore.Internal_Hbond>
0.0000

> <Gold.Chemscore.DEClash>
0.2408

> <Gold.Chemscore.DEInternal>
1.4084

> <Gold.Chemscore.Rot>
2.4789

> <Gold.Chemscore.Internal.Correction>
   9.000000E+99

> <Gold.Chemscore.Hbonds>
donor molecule, donor type, donor heavy atom, donor atom, acceptor molecule, acceptor atom, score
      L1  H     5    43       P1  8028  0.95
      P1  H  6896  6909       L1    14  0.34
      P1  H  7989  7998       L1    10  0.59

> <Gold.Chemscore.Hbond.Weighted>
-7.7048

> <Gold.Chemscore.Metal.Weighted>
-0.0000

> <Gold.Chemscore.Lipo.Weighted>
-11.9071

> <Gold.Chemscore.Internal_Hbond.Weighted>
0.0000

> <Gold.Chemscore.DEClash.Weighted>
0.2408

> <Gold.Chemscore.DEInternal.Weighted>
1.4084

> <Gold.Chemscore.Rot.Weighted>
6.3459

> <Gold.Chemscore.Internal.Correction.Weighted>
   9.000000E+99

> <Gold.Protein.RotatedTorsions>
[ 6907 6896 6895 6894 ] final   67.65 input  -60.11 | X-H torsion
[ 7974 7965 7964 7962 ] final   74.91 input  175.53 | X-H torsion
[ 8008 7997 7996 7995 ] final  -88.41 input   59.86 | X-H torsion
[ 10167 10162 10161 10158 ] final  -82.71 input  -65.29 | X-H torsion
[ 10718 10713 10712 10709 ] final   -0.61 input   66.30 | X-H torsion
[ 10763 10752 10751 10750 ] final   55.07 input  -60.55 | X-H torsion
[ 11005 11000 10999 10996 ] final   40.99 input  -57.11 | X-H torsion

> <Gold.Protein.ActiveResidues>
 VAL166  LYS551  ARG553  GLY616  TRP617  ASP618  TYR619  PRO620  LYS621  CYS622 
 ASP623  PHE694  ASN695  SER759  ASP760  ASP761  ALA762  ILE779  LEU786  VAL792 
 PHE793  MET794  SER795  GLU796  ALA797  LYS798  CYS799  TRP800  GLU811  SER814 

> <Gold.Protein.RotatedAtoms>
  152.4567  134.5277  159.9801 H   0  0  0  0  0  0  0  0  0  0  0  0  # atno 6907 bound_to 6896
  151.5336  133.3439  159.2930 H   0  0  0  0  0  0  0  0  0  0  0  0  # atno 6908 bound_to 6896
  150.8513  134.7869  159.7074 H   0  0  0  0  0  0  0  0  0  0  0  0  # atno 6909 bound_to 6896
  145.7222  139.2652  143.1589 H   0  0  0  0  0  0  0  0  0  0  0  0  # atno 7974 bound_to 7965
  154.6745  140.0554  157.0200 H   0  0  0  0  0  0  0  0  0  0  0  0  # atno 8008 bound_to 7997
  155.1041  140.3232  155.4520 H   0  0  0  0  0  0  0  0  0  0  0  0  # atno 8009 bound_to 7997
  156.2670  140.2026  156.6166 H   0  0  0  0  0  0  0  0  0  0  0  0  # atno 8010 bound_to 7997
  140.4294  143.2554  151.8780 H   0  0  0  0  0  0  0  0  0  0  0  0  # atno 10167 bound_to 10162
  156.8178  130.5446  149.5701 H   0  0  0  0  0  0  0  0  0  0  0  0  # atno 10718 bound_to 10713
  152.9812  135.5723  154.5007 H   0  0  0  0  0  0  0  0  0  0  0  0  # atno 10763 bound_to 10752
  154.4527  135.2779  155.1772 H   0  0  0  0  0  0  0  0  0  0  0  0  # atno 10764 bound_to 10752
  154.3393  135.6233  153.5642 H   0  0  0  0  0  0  0  0  0  0  0  0  # atno 10765 bound_to 10752
  140.1878  134.4024  155.8163 H   0  0  0  0  0  0  0  0  0  0  0  0  # atno 11005 bound_to 11000
  146.0615  140.7966  142.9732 LP  0  0  0  0  0  0  0  0  0  0  0  0  # atno 17320 bound_to 7965
  144.6914  140.3204  143.7233 LP  0  0  0  0  0  0  0  0  0  0  0  0  # atno 17321 bound_to 7965
  139.4784  144.5351  151.8610 LP  0  0  0  0  0  0  0  0  0  0  0  0  # atno 17342 bound_to 10162
  140.4444  144.1942  150.5893 LP  0  0  0  0  0  0  0  0  0  0  0  0  # atno 17343 bound_to 10162
  156.1006  130.5966  150.9888 LP  0  0  0  0  0  0  0  0  0  0  0  0  # atno 17370 bound_to 10713
  157.6472  131.0902  150.8127 LP  0  0  0  0  0  0  0  0  0  0  0  0  # atno 17371 bound_to 10713
  141.2225  133.7031  156.8042 LP  0  0  0  0  0  0  0  0  0  0  0  0  # atno 17394 bound_to 11000
  140.2194  134.8768  157.3361 LP  0  0  0  0  0  0  0  0  0  0  0  0  # atno 17395 bound_to 11000

$$$$
