AV-unprocessed.smi:3111|AV-procd|sdf|11832|dock3
  -GOLD-   2272017203D 1   1.00000     0.00000
 Structure written by MMmdl.
 29 29  0  0  0  0  0  0  0  0  1 V2000
  152.1991  144.0813  161.5989 C   0  0  0  0  0  0  0  0  0  0  0  0
  152.2494  143.9769  160.1486 N   0  0  0  0  0  0  0  0  0  0  0  0
  152.0894  145.0116  159.3116 C   0  0  0  0  0  0  0  0  0  0  0  0
  151.8990  146.1663  159.6968 O   0  0  0  0  0  0  0  0  0  0  0  0
  152.1821  144.6900  157.8147 C   0  0  0  0  0  0  0  0  0  0  0  0
  151.0490  143.9048  157.3309 N   0  0  0  0  0  0  0  0  0  0  0  0
  150.8044  142.6229  157.6486 C   0  0  0  0  0  0  0  0  0  0  0  0
  151.5369  141.9623  158.3862 O   0  0  0  0  0  0  0  0  0  0  0  0
  149.5418  141.9984  157.0339 C   0  0  2  0  0  0  0  0  0  0  0  0
  148.6378  141.3266  158.0845 C   0  0  0  0  0  0  0  0  0  0  0  0
  149.8970  141.0673  155.9720 N   0  0  0  0  0  0  0  0  0  0  0  0
  149.0387  140.5137  155.0296 C   0  0  0  0  0  0  0  0  0  0  0  0
  149.8038  139.6970  154.2282 C   0  0  0  0  0  0  0  0  0  0  0  0
  151.1292  139.7309  154.6534 N   0  0  0  0  0  0  0  0  0  0  0  0
  151.1077  140.5609  155.6881 C   0  0  0  0  0  0  0  0  0  0  0  0
  152.3305  143.0964  162.0472 H   0  0  0  0  0  0  0  0  0  0  0  0
  151.2379  144.4794  161.9269 H   0  0  0  0  0  0  0  0  0  0  0  0
  152.9915  144.7333  161.9693 H   0  0  0  0  0  0  0  0  0  0  0  0
  152.4082  143.0602  159.7560 H   0  0  0  0  0  0  0  0  0  0  0  0
  152.2103  145.6283  157.2604 H   0  0  0  0  0  0  0  0  0  0  0  0
  153.1172  144.1701  157.5975 H   0  0  0  0  0  0  0  0  0  0  0  0
  150.3970  144.3752  156.7204 H   0  0  0  0  0  0  0  0  0  0  0  0
  148.9675  142.8089  156.5816 H   0  0  0  0  0  0  0  0  0  0  0  0
  148.3606  142.0272  158.8732 H   0  0  0  0  0  0  0  0  0  0  0  0
  149.1261  140.4723  158.5549 H   0  0  0  0  0  0  0  0  0  0  0  0
  147.7149  140.9673  157.6286 H   0  0  0  0  0  0  0  0  0  0  0  0
  147.9826  140.7392  155.0077 H   0  0  0  0  0  0  0  0  0  0  0  0
  149.5048  139.0923  153.3846 H   0  0  0  0  0  0  0  0  0  0  0  0
  151.9950  140.8082  156.2527 H   0  0  0  0  0  0  0  0  0  0  0  0
  1  2  1  0  0  0  0
  1 16  1  0  0  0  0
  1 17  1  0  0  0  0
  1 18  1  0  0  0  0
  2  3  1  0  0  0  0
  2 19  1  0  0  0  0
  3  4  2  0  0  0  0
  3  5  1  0  0  0  0
  5  6  1  0  0  0  0
  5 20  1  0  0  0  0
  5 21  1  0  0  0  0
  6  7  1  0  0  0  0
  6 22  1  0  0  0  0
  7  8  2  0  0  0  0
  7  9  1  0  0  0  0
  9 10  1  0  0  0  0
  9 11  1  0  0  0  0
  9 23  1  0  0  0  0
 10 24  1  0  0  0  0
 10 25  1  0  0  0  0
 10 26  1  0  0  0  0
 11 15  1  0  0  0  0
 11 12  1  0  0  0  0
 12 13  2  0  0  0  0
 12 27  1  0  0  0  0
 13 14  1  0  0  0  0
 13 28  1  0  0  0  0
 14 15  2  0  0  0  0
 15 29  1  0  0  0  0
M  END
> <s_m_source_file>
AV-unprocessed.smi

> <i_m_source_file_index>
3111

> <i_lp_mmshare_version>
43012

> <i_f3d_flags>
0

> <s_epik_input>
W0NIM11bTkhdQyg9TylbQ0gyXVtOSF1DKD1PKVtDQEhdKFtDSDNdKW4xW2NIXVtjSF1uW2NIXTE=

> <s_epik_cmdline>
J2VwaWtfcHl0aG9uJywgJy1waCcsICc3LjAnLCAnLXRuJywgJzgnLCAnLW1hJywgJzIwMCcsICctbWV0YWxfYmluZGluZycsICctaW1hZScsICc8aW5maWxlLm1hZT4nLCAnLW9tYWUnLCAnPG91dGZpbGUubWFlPic=

> <r_lp_tautomer_probability>
1

> <r_epik_Ionization_Penalty>
0.278299

> <r_epik_Ionization_Penalty_Charging>
0.278299

> <r_epik_Ionization_Penalty_Neutral>
1.78617e-07

> <r_epik_State_Penalty>
0.270759

> <r_epik_Charging_Adjusted_Penalty>
0.549058

> <i_epik_Tot_Q>
0

> <i_epik_Tot_abs_Q>
0

> <r_epik_Metal_State_Penalty>
0.183212

> <b_epik_Metal_Only>
0

> <s_lp_Force_Field>
OPLS_2005

> <r_lp_Energy>
5.209

> <b_lp_Chiralities_Consistent>
1

> <s_lp_Variant>
AV-unprocessed.smi:3111-1

> <Gold.Version>
5.8.1

> <Gold.Id.Protein>
6NUR|6NUR_protein|mol2

> <Gold.PLP.Fitness>
38.3672

> <Gold.PLP.PLP>
-31.9754

> <Gold.PLP.part.hbond>
-3.2398

> <Gold.PLP.part.metal>
0.0000

> <Gold.PLP.part.buried>
-2.6657

> <Gold.PLP.part.nonpolar>
-25.4120

> <Gold.PLP.part.repulsive>
0.3287

> <Gold.PLP.ligand.clash>
0.0000

> <Gold.PLP.ligand.torsion>
0.5462

> <Gold.PLP.Chemscore.Hbond>
1.6800

> <Gold.PLP.Chemscore.CHOScore>
0.7919

> <Gold.PLP.Chemscore.Metal>
0.0000

> <Gold.Chemscore.Hbonds>
donor molecule, donor type, donor heavy atom, donor atom, acceptor molecule, acceptor atom, score
      L1  H     6    22       P1  8028  1.00
      P1  H  7989  7998       L1    14  0.68
      L1  C    13    28       P1  7957  0.79

> <Gold.PLP.Chemscore.Internal.Correction>
0.0682

> <Gold.Rescore>
     Score         DG    S(hbond)    S(metal)    S(lipo)     H(rot)  DE(clash)    DE(int)     intcor
      6.22      -8.43       1.00        0.00      46.39       2.27       0.16       2.05       ----

> <Gold.Chemscore.Fitness>
6.2167

> <Gold.Chemscore.DG>
-8.4297

> <Gold.Chemscore.ZeroCoef>
-5.4800

> <Gold.Chemscore.Hbond>
0.9988

> <Gold.Chemscore.Metal>
0.0000

> <Gold.Chemscore.Lipo>
46.3875

> <Gold.Chemscore.Internal_Hbond>
0.0000

> <Gold.Chemscore.DEClash>
0.1647

> <Gold.Chemscore.DEInternal>
2.0483

> <Gold.Chemscore.Rot>
2.2709

> <Gold.Chemscore.Internal.Correction>
   9.000000E+99

> <Gold.Chemscore.Hbonds>
donor molecule, donor type, donor heavy atom, donor atom, acceptor molecule, acceptor atom, score
      L1  H     6    22       P1  8028  0.97
      P1  H  7989  7998       L1    14  0.02

> <Gold.Chemscore.Hbond.Weighted>
-3.3359

> <Gold.Chemscore.Metal.Weighted>
-0.0000

> <Gold.Chemscore.Lipo.Weighted>
-5.4273

> <Gold.Chemscore.Internal_Hbond.Weighted>
0.0000

> <Gold.Chemscore.DEClash.Weighted>
0.1647

> <Gold.Chemscore.DEInternal.Weighted>
2.0483

> <Gold.Chemscore.Rot.Weighted>
5.8135

> <Gold.Chemscore.Internal.Correction.Weighted>
   9.000000E+99

> <Gold.Protein.RotatedTorsions>
[ 6907 6896 6895 6894 ] final   67.28 input  -60.11 | X-H torsion
[ 7974 7965 7964 7962 ] final  129.79 input  175.53 | X-H torsion
[ 8008 7997 7996 7995 ] final   17.29 input   59.86 | X-H torsion
[ 10167 10162 10161 10158 ] final -134.28 input  -65.29 | X-H torsion
[ 10718 10713 10712 10709 ] final  -53.24 input   66.30 | X-H torsion
[ 10763 10752 10751 10750 ] final   48.67 input  -60.55 | X-H torsion
[ 11005 11000 10999 10996 ] final   93.40 input  -57.11 | X-H torsion

> <Gold.Protein.ActiveResidues>
 VAL166  LYS551  ARG553  GLY616  TRP617  ASP618  TYR619  PRO620  LYS621  CYS622 
 ASP623  PHE694  ASN695  SER759  ASP760  ASP761  ALA762  ILE779  LEU786  VAL792 
 PHE793  MET794  SER795  GLU796  ALA797  LYS798  CYS799  TRP800  GLU811  SER814 

> <Gold.Protein.RotatedAtoms>
  152.4541  134.5331  159.9816 H   0  0  0  0  0  0  0  0  0  0  0  0  # atno 6907 bound_to 6896
  151.5396  133.3429  159.2941 H   0  0  0  0  0  0  0  0  0  0  0  0  # atno 6908 bound_to 6896
  150.8479  134.7825  159.7048 H   0  0  0  0  0  0  0  0  0  0  0  0  # atno 6909 bound_to 6896
  145.0249  139.4098  143.5179 H   0  0  0  0  0  0  0  0  0  0  0  0  # atno 7974 bound_to 7965
  154.8893  140.2984  155.5380 H   0  0  0  0  0  0  0  0  0  0  0  0  # atno 8008 bound_to 7997
  156.3021  140.2427  156.3841 H   0  0  0  0  0  0  0  0  0  0  0  0  # atno 8009 bound_to 7997
  154.8635  140.0404  157.1669 H   0  0  0  0  0  0  0  0  0  0  0  0  # atno 8010 bound_to 7997
  139.8896  143.6739  152.2614 H   0  0  0  0  0  0  0  0  0  0  0  0  # atno 10167 bound_to 10162
  156.1552  130.4150  149.9881 H   0  0  0  0  0  0  0  0  0  0  0  0  # atno 10718 bound_to 10713
  152.9790  135.5936  154.3964 H   0  0  0  0  0  0  0  0  0  0  0  0  # atno 10763 bound_to 10752
  154.3614  135.2767  155.2320 H   0  0  0  0  0  0  0  0  0  0  0  0  # atno 10764 bound_to 10752
  154.4315  135.6035  153.6127 H   0  0  0  0  0  0  0  0  0  0  0  0  # atno 10765 bound_to 10752
  139.8810  134.8787  156.3712 H   0  0  0  0  0  0  0  0  0  0  0  0  # atno 11005 bound_to 11000
  146.3491  139.9767  142.8700 LP  0  0  0  0  0  0  0  0  0  0  0  0  # atno 17320 bound_to 7965
  145.1846  140.9783  143.4246 LP  0  0  0  0  0  0  0  0  0  0  0  0  # atno 17321 bound_to 7965
  139.7122  144.7618  151.1094 LP  0  0  0  0  0  0  0  0  0  0  0  0  # atno 17342 bound_to 10162
  140.7729  143.5316  150.9416 LP  0  0  0  0  0  0  0  0  0  0  0  0  # atno 17343 bound_to 10162
  156.7727  130.9192  151.3644 LP  0  0  0  0  0  0  0  0  0  0  0  0  # atno 17370 bound_to 10713
  157.6689  130.9033  149.9995 LP  0  0  0  0  0  0  0  0  0  0  0  0  # atno 17371 bound_to 10713
  140.9463  133.7481  156.0212 LP  0  0  0  0  0  0  0  0  0  0  0  0  # atno 17394 bound_to 11000
  140.8160  134.3345  157.5397 LP  0  0  0  0  0  0  0  0  0  0  0  0  # atno 17395 bound_to 11000

$$$$
