AV-unprocessed.smi:572|AV-procd|sdf|2965|dock4
  -GOLD-   2262023473D 1   1.00000     0.00000
 Structure written by MMmdl.
 44 46  0  0  0  0  0  0  0  0  1 V2000
  153.6196  138.1347  158.6146 C   0  0  0  0  0  0  0  0  0  0  0  0
  153.9938  139.5000  158.6423 O   0  0  0  0  0  0  0  0  0  0  0  0
  153.2358  140.2555  159.5727 C   0  0  0  0  0  0  0  0  0  0  0  0
  151.7880  140.3830  159.0794 C   0  0  0  0  0  0  0  0  0  0  0  0
  151.4861  141.7323  158.6247 N   0  0  0  0  0  0  0  0  0  0  0  0
  150.9600  142.1104  157.4325 C   0  0  0  0  0  0  0  0  0  0  0  0
  150.5952  141.1789  156.3770 C   0  0  0  0  0  0  0  0  0  0  0  0
  149.3683  141.3288  155.7044 C   0  0  0  0  0  0  0  0  0  0  0  0
  149.0080  140.4373  154.6652 C   0  0  0  0  0  0  0  0  0  0  0  0
  147.8309  140.5291  153.9508 O   0  0  0  0  0  0  0  0  0  0  0  0
  147.0219  141.6818  154.1357 C   0  0  0  0  0  0  0  0  0  0  0  0
  149.8949  139.3905  154.3273 C   0  0  0  0  0  0  0  0  0  0  0  0
  149.5532  138.5248  153.3269 O   0  0  0  0  0  0  0  0  0  0  0  0
  151.1260  139.2230  155.0009 C   0  0  0  0  0  0  0  0  0  0  0  0
  151.9306  138.1738  154.6059 O   0  0  0  0  0  0  0  0  0  0  0  0
  153.3373  138.3187  154.7355 C   0  0  0  0  0  0  0  0  0  0  0  0
  151.4689  140.1306  156.0324 C   0  0  0  0  0  0  0  0  0  0  0  0
  150.7983  143.4259  157.2767 N   0  0  0  0  0  0  0  0  0  0  0  0
  151.2609  143.9423  158.4710 C   0  0  0  0  0  0  0  0  0  0  0  0
  151.3542  145.2788  158.9214 C   0  0  0  0  0  0  0  0  0  0  0  0
  151.8745  145.5654  160.2006 C   0  0  0  0  0  0  0  0  0  0  0  0
  152.3073  144.5228  161.0457 C   0  0  0  0  0  0  0  0  0  0  0  0
  152.2211  143.1846  160.6163 C   0  0  0  0  0  0  0  0  0  0  0  0
  151.7007  142.9052  159.3388 C   0  0  0  0  0  0  0  0  0  0  0  0
  154.2320  137.6031  157.8866 H   0  0  0  0  0  0  0  0  0  0  0  0
  152.5744  138.0185  158.3261 H   0  0  0  0  0  0  0  0  0  0  0  0
  153.7700  137.6649  159.5874 H   0  0  0  0  0  0  0  0  0  0  0  0
  153.2524  139.7703  160.5496 H   0  0  0  0  0  0  0  0  0  0  0  0
  153.6759  141.2467  159.6935 H   0  0  0  0  0  0  0  0  0  0  0  0
  151.6016  139.6749  158.2719 H   0  0  0  0  0  0  0  0  0  0  0  0
  151.0950  140.1246  159.8807 H   0  0  0  0  0  0  0  0  0  0  0  0
  148.7237  142.1433  155.9983 H   0  0  0  0  0  0  0  0  0  0  0  0
  146.1441  141.6114  153.4935 H   0  0  0  0  0  0  0  0  0  0  0  0
  147.5570  142.5925  153.8634 H   0  0  0  0  0  0  0  0  0  0  0  0
  146.6708  141.7620  155.1653 H   0  0  0  0  0  0  0  0  0  0  0  0
  149.2754  138.9702  152.5410 H   0  0  0  0  0  0  0  0  0  0  0  0
  153.8257  137.4076  154.3899 H   0  0  0  0  0  0  0  0  0  0  0  0
  153.6280  138.4737  155.7754 H   0  0  0  0  0  0  0  0  0  0  0  0
  153.7110  139.1437  154.1278 H   0  0  0  0  0  0  0  0  0  0  0  0
  152.3996  140.0457  156.5728 H   0  0  0  0  0  0  0  0  0  0  0  0
  151.0264  146.0843  158.2813 H   0  0  0  0  0  0  0  0  0  0  0  0
  151.9425  146.5901  160.5349 H   0  0  0  0  0  0  0  0  0  0  0  0
  152.7054  144.7511  162.0236 H   0  0  0  0  0  0  0  0  0  0  0  0
  152.5522  142.3829  161.2597 H   0  0  0  0  0  0  0  0  0  0  0  0
  1  2  1  0  0  0  0
  1 25  1  0  0  0  0
  1 26  1  0  0  0  0
  1 27  1  0  0  0  0
  2  3  1  0  0  0  0
  3  4  1  0  0  0  0
  3 28  1  0  0  0  0
  3 29  1  0  0  0  0
  4  5  1  0  0  0  0
  4 30  1  0  0  0  0
  4 31  1  0  0  0  0
  5 24  1  0  0  0  0
  5  6  1  0  0  0  0
  6  7  1  0  0  0  0
  6 18  2  0  0  0  0
  7 17  1  0  0  0  0
  7  8  2  0  0  0  0
  8  9  1  0  0  0  0
  8 32  1  0  0  0  0
  9 10  1  0  0  0  0
  9 12  2  0  0  0  0
 10 11  1  0  0  0  0
 11 33  1  0  0  0  0
 11 34  1  0  0  0  0
 11 35  1  0  0  0  0
 12 13  1  0  0  0  0
 12 14  1  0  0  0  0
 13 36  1  0  0  0  0
 14 15  1  0  0  0  0
 14 17  2  0  0  0  0
 15 16  1  0  0  0  0
 16 37  1  0  0  0  0
 16 38  1  0  0  0  0
 16 39  1  0  0  0  0
 17 40  1  0  0  0  0
 18 19  1  0  0  0  0
 19 24  2  0  0  0  0
 19 20  1  0  0  0  0
 20 21  2  0  0  0  0
 20 41  1  0  0  0  0
 21 22  1  0  0  0  0
 21 42  1  0  0  0  0
 22 23  2  0  0  0  0
 22 43  1  0  0  0  0
 23 24  1  0  0  0  0
 23 44  1  0  0  0  0
M  END
> <s_m_source_file>
AV-unprocessed.smi

> <i_m_source_file_index>
572

> <i_lp_mmshare_version>
43012

> <i_f3d_flags>
0

> <s_epik_input>
W2NIXTFbY0hdW2NIXVtjSF1jKGMxMiluKFtDSDJdW0NIMl1PW0NIM10pYyhuMiktYzNbY0hdYyhPW0NIM10pYyhbT0hdKWMoW2NIXTMpT1tDSDNd

> <s_epik_cmdline>
J2VwaWtfcHl0aG9uJywgJy1waCcsICc3LjAnLCAnLXRuJywgJzgnLCAnLW1hJywgJzIwMCcsICctbWV0YWxfYmluZGluZycsICctaW1hZScsICc8aW5maWxlLm1hZT4nLCAnLW9tYWUnLCAnPG91dGZpbGUubWFlPic=

> <r_lp_tautomer_probability>
1

> <r_epik_Ionization_Penalty>
0.264233

> <r_epik_Ionization_Penalty_Charging>
0

> <r_epik_Ionization_Penalty_Neutral>
0.264233

> <r_epik_State_Penalty>
0.193741

> <r_epik_Charging_Adjusted_Penalty>
0.193741

> <i_epik_Tot_Q>
0

> <i_epik_Tot_abs_Q>
0

> <r_epik_Metal_State_Penalty>
0.000227182

> <b_epik_Metal_Only>
0

> <s_lp_Force_Field>
OPLS_2005

> <r_lp_Energy>
21.3559

> <b_lp_Chiralities_Consistent>
1

> <s_lp_Variant>
AV-unprocessed.smi:572-1

> <Gold.Version>
5.8.1

> <Gold.Id.Protein>
6NUR|6NUR_protein|mol2

> <Gold.PLP.Fitness>
57.8209

> <Gold.PLP.PLP>
-53.8728

> <Gold.PLP.part.hbond>
-2.8046

> <Gold.PLP.part.metal>
0.0000

> <Gold.PLP.part.buried>
-5.2139

> <Gold.PLP.part.nonpolar>
-47.7329

> <Gold.PLP.part.repulsive>
2.5018

> <Gold.PLP.ligand.clash>
0.0000

> <Gold.PLP.ligand.torsion>
1.6224

> <Gold.PLP.Chemscore.Hbond>
2.0000

> <Gold.PLP.Chemscore.CHOScore>
0.0000

> <Gold.PLP.Chemscore.Metal>
0.0000

> <Gold.Chemscore.Hbonds>
donor molecule, donor type, donor heavy atom, donor atom, acceptor molecule, acceptor atom, score
      L1  H    13    36       P1  7957  1.00
      P1  H  7997  8008       L1     2  1.00

> <Gold.PLP.Chemscore.Internal.Correction>
1.1930

> <Gold.Rescore>
     Score         DG    S(hbond)    S(metal)    S(lipo)     H(rot)  DE(clash)    DE(int)     intcor
     19.61     -23.06       1.95        0.00     142.95       2.21       1.32       2.13       ----

> <Gold.Chemscore.Fitness>
19.6108

> <Gold.Chemscore.DG>
-23.0618

> <Gold.Chemscore.ZeroCoef>
-5.4800

> <Gold.Chemscore.Hbond>
1.9503

> <Gold.Chemscore.Metal>
0.0000

> <Gold.Chemscore.Lipo>
142.9514

> <Gold.Chemscore.Internal_Hbond>
0.0000

> <Gold.Chemscore.DEClash>
1.3204

> <Gold.Chemscore.DEInternal>
2.1306

> <Gold.Chemscore.Rot>
2.2099

> <Gold.Chemscore.Internal.Correction>
   9.000000E+99

> <Gold.Chemscore.Hbonds>
donor molecule, donor type, donor heavy atom, donor atom, acceptor molecule, acceptor atom, score
      L1  H    13    36       P1  7957  0.92
      P1  H  7997  8008       L1     2  0.91

> <Gold.Chemscore.Hbond.Weighted>
-6.5139

> <Gold.Chemscore.Metal.Weighted>
-0.0000

> <Gold.Chemscore.Lipo.Weighted>
-16.7253

> <Gold.Chemscore.Internal_Hbond.Weighted>
0.0000

> <Gold.Chemscore.DEClash.Weighted>
1.3204

> <Gold.Chemscore.DEInternal.Weighted>
2.1306

> <Gold.Chemscore.Rot.Weighted>
5.6574

> <Gold.Chemscore.Internal.Correction.Weighted>
   9.000000E+99

> <Gold.Protein.RotatedTorsions>
[ 6907 6896 6895 6894 ] final -122.10 input  -60.11 | X-H torsion
[ 7974 7965 7964 7962 ] final   73.50 input  175.53 | X-H torsion
[ 8008 7997 7996 7995 ] final -110.01 input   59.86 | X-H torsion
[ 10167 10162 10161 10158 ] final -124.12 input  -65.29 | X-H torsion
[ 10718 10713 10712 10709 ] final  -38.81 input   66.30 | X-H torsion
[ 10763 10752 10751 10750 ] final   24.11 input  -60.55 | X-H torsion
[ 11005 11000 10999 10996 ] final  146.98 input  -57.11 | X-H torsion

> <Gold.Protein.ActiveResidues>
 VAL166  LYS551  ARG553  GLY616  TRP617  ASP618  TYR619  PRO620  LYS621  CYS622 
 ASP623  PHE694  ASN695  SER759  ASP760  ASP761  ALA762  ILE779  LEU786  VAL792 
 PHE793  MET794  SER795  GLU796  ALA797  LYS798  CYS799  TRP800  GLU811  SER814 

> <Gold.Protein.RotatedAtoms>
  150.8544  133.7738  159.3013 H   0  0  0  0  0  0  0  0  0  0  0  0  # atno 6907 bound_to 6896
  151.5399  135.1067  159.9933 H   0  0  0  0  0  0  0  0  0  0  0  0  # atno 6908 bound_to 6896
  152.4578  133.7716  159.6858 H   0  0  0  0  0  0  0  0  0  0  0  0  # atno 6909 bound_to 6896
  145.7401  139.2717  143.1491 H   0  0  0  0  0  0  0  0  0  0  0  0  # atno 7974 bound_to 7965
  154.9681  140.0398  157.2221 H   0  0  0  0  0  0  0  0  0  0  0  0  # atno 8008 bound_to 7997
  154.7827  140.2821  155.6029 H   0  0  0  0  0  0  0  0  0  0  0  0  # atno 8009 bound_to 7997
  156.2938  140.2588  156.2656 H   0  0  0  0  0  0  0  0  0  0  0  0  # atno 8010 bound_to 7997
  139.9962  143.5588  152.2322 H   0  0  0  0  0  0  0  0  0  0  0  0  # atno 10167 bound_to 10162
  156.2995  130.4238  149.8157 H   0  0  0  0  0  0  0  0  0  0  0  0  # atno 10718 bound_to 10713
  153.0788  135.6612  154.0089 H   0  0  0  0  0  0  0  0  0  0  0  0  # atno 10763 bound_to 10752
  153.9716  135.2964  155.3428 H   0  0  0  0  0  0  0  0  0  0  0  0  # atno 10764 bound_to 10752
  154.7183  135.5176  153.8843 H   0  0  0  0  0  0  0  0  0  0  0  0  # atno 10765 bound_to 10752
  140.0838  134.9081  157.1543 H   0  0  0  0  0  0  0  0  0  0  0  0  # atno 11005 bound_to 11000
  146.0456  140.8121  142.9807 LP  0  0  0  0  0  0  0  0  0  0  0  0  # atno 17320 bound_to 7965
  144.6872  140.2975  143.7268 LP  0  0  0  0  0  0  0  0  0  0  0  0  # atno 17321 bound_to 7965
  139.6304  144.7643  151.2548 LP  0  0  0  0  0  0  0  0  0  0  0  0  # atno 17342 bound_to 10162
  140.7436  143.6489  150.8266 LP  0  0  0  0  0  0  0  0  0  0  0  0  # atno 17343 bound_to 10162
  156.5541  130.8355  151.3308 LP  0  0  0  0  0  0  0  0  0  0  0  0  # atno 17370 bound_to 10713
  157.7364  130.9778  150.2135 LP  0  0  0  0  0  0  0  0  0  0  0  0  # atno 17371 bound_to 10713
  140.3449  134.2662  155.7206 LP  0  0  0  0  0  0  0  0  0  0  0  0  # atno 17394 bound_to 11000
  141.2056  133.7856  157.0225 LP  0  0  0  0  0  0  0  0  0  0  0  0  # atno 17395 bound_to 11000

$$$$
