AV-unprocessed.smi:2744|AV-procd|sdf|10568|dock3
  -GOLD-   2272015 23D 1   1.00000     0.00000
 Structure written by MMmdl.
 40 41  0  0  0  0  0  0  0  0  1 V2000
  151.8778  145.2079  159.6424 C   0  0  0  0  0  0  0  0  0  0  0  0
  152.2534  143.8316  159.0667 C   0  0  0  0  0  0  0  0  0  0  0  0
  151.2549  143.2303  158.0472 C   0  0  1  0  0  0  0  0  0  0  0  0
  149.8463  143.0454  158.6510 C   0  0  0  0  0  0  0  0  0  0  0  0
  151.1368  144.1358  156.9664 O   0  0  0  0  0  0  0  0  0  0  0  0
  151.8332  141.9022  157.4916 C   0  0  0  0  0  0  0  0  0  0  0  0
  150.9706  141.2189  156.5385 N   0  0  0  0  0  0  0  0  0  0  0  0
  149.7252  141.6294  156.1170 C   0  0  0  0  0  0  0  0  0  0  0  0
  149.1406  140.8444  155.2534 N   0  0  0  0  0  0  0  0  0  0  0  0
  150.0472  139.8073  155.0764 C   0  0  0  0  0  0  0  0  0  0  0  0
  150.0492  138.6275  154.2881 C   0  0  0  0  0  0  0  0  0  0  0  0
  149.0023  138.3242  153.4883 N   0  0  0  0  0  0  0  0  0  0  0  0
  147.7433  139.0596  153.5671 C   0  0  0  0  0  0  0  0  0  0  0  0
  147.0487  138.8339  154.9206 C   0  0  0  0  0  0  0  0  0  0  0  0
  146.8266  138.6506  152.4070 C   0  0  0  0  0  0  0  0  0  0  0  0
  151.1350  137.8142  154.3715 N   0  0  0  0  0  0  0  0  0  0  0  0
  152.1547  138.1376  155.1732 C   0  0  0  0  0  0  0  0  0  0  0  0
  152.2905  139.2061  155.9622 N   0  0  0  0  0  0  0  0  0  0  0  0
  151.2016  140.0233  155.8800 C   0  0  0  0  0  0  0  0  0  0  0  0
  152.6712  145.5783  160.2916 H   0  0  0  0  0  0  0  0  0  0  0  0
  150.9688  145.1631  160.2414 H   0  0  0  0  0  0  0  0  0  0  0  0
  151.7293  145.9470  158.8550 H   0  0  0  0  0  0  0  0  0  0  0  0
  153.2349  143.9145  158.5977 H   0  0  0  0  0  0  0  0  0  0  0  0
  152.3813  143.1358  159.8968 H   0  0  0  0  0  0  0  0  0  0  0  0
  149.8672  142.3473  159.4882 H   0  0  0  0  0  0  0  0  0  0  0  0
  149.1358  142.6621  157.9186 H   0  0  0  0  0  0  0  0  0  0  0  0
  149.4322  143.9855  159.0143 H   0  0  0  0  0  0  0  0  0  0  0  0
  150.2387  144.1372  156.6720 H   0  0  0  0  0  0  0  0  0  0  0  0
  152.7986  142.0767  157.0141 H   0  0  0  0  0  0  0  0  0  0  0  0
  152.0262  141.2129  158.3147 H   0  0  0  0  0  0  0  0  0  0  0  0
  149.2640  142.5415  156.4672 H   0  0  0  0  0  0  0  0  0  0  0  0
  149.0128  137.5423  152.8491 H   0  0  0  0  0  0  0  0  0  0  0  0
  147.9485  140.1246  153.4533 H   0  0  0  0  0  0  0  0  0  0  0  0
  146.1116  139.3884  154.9757 H   0  0  0  0  0  0  0  0  0  0  0  0
  147.6711  139.1649  155.7519 H   0  0  0  0  0  0  0  0  0  0  0  0
  146.8201  137.7791  155.0771 H   0  0  0  0  0  0  0  0  0  0  0  0
  145.8916  139.2113  152.4300 H   0  0  0  0  0  0  0  0  0  0  0  0
  146.5792  137.5893  152.4497 H   0  0  0  0  0  0  0  0  0  0  0  0
  147.3015  138.8437  151.4446 H   0  0  0  0  0  0  0  0  0  0  0  0
  152.9795  137.4405  155.1843 H   0  0  0  0  0  0  0  0  0  0  0  0
  1  2  1  0  0  0  0
  1 20  1  0  0  0  0
  1 21  1  0  0  0  0
  1 22  1  0  0  0  0
  2  3  1  0  0  0  0
  2 23  1  0  0  0  0
  2 24  1  0  0  0  0
  3  4  1  0  0  0  0
  3  5  1  0  0  0  0
  3  6  1  0  0  0  0
  4 25  1  0  0  0  0
  4 26  1  0  0  0  0
  4 27  1  0  0  0  0
  5 28  1  0  0  0  0
  6  7  1  0  0  0  0
  6 29  1  0  0  0  0
  6 30  1  0  0  0  0
  7 19  1  0  0  0  0
  7  8  1  0  0  0  0
  8  9  2  0  0  0  0
  8 31  1  0  0  0  0
  9 10  1  0  0  0  0
 10 19  2  0  0  0  0
 10 11  1  0  0  0  0
 11 12  1  0  0  0  0
 11 16  2  0  0  0  0
 12 13  1  0  0  0  0
 12 32  1  0  0  0  0
 13 14  1  0  0  0  0
 13 15  1  0  0  0  0
 13 33  1  0  0  0  0
 14 34  1  0  0  0  0
 14 35  1  0  0  0  0
 14 36  1  0  0  0  0
 15 37  1  0  0  0  0
 15 38  1  0  0  0  0
 15 39  1  0  0  0  0
 16 17  1  0  0  0  0
 17 18  2  0  0  0  0
 17 40  1  0  0  0  0
 18 19  1  0  0  0  0
M  END
> <s_m_source_file>
AV-unprocessed.smi

> <i_m_source_file_index>
2744

> <i_lp_mmshare_version>
43012

> <i_f3d_flags>
0

> <s_epik_input>
W0NIM11bQ0gyXVtDQEBdKFtDSDNdKShbT0hdKVtDSDJdbihbY0hdbjEpYyhjMTIpbltjSF1uYzJbTkhdW0NIXShbQ0gzXSlbQ0gzXQ==

> <s_epik_cmdline>
J2VwaWtfcHl0aG9uJywgJy1waCcsICc3LjAnLCAnLXRuJywgJzgnLCAnLW1hJywgJzIwMCcsICctbWV0YWxfYmluZGluZycsICctaW1hZScsICc8aW5maWxlLm1hZT4nLCAnLW9tYWUnLCAnPG91dGZpbGUubWFlPic=

> <r_lp_tautomer_probability>
1

> <r_epik_Ionization_Penalty>
0.00217876

> <r_epik_Ionization_Penalty_Charging>
0

> <r_epik_Ionization_Penalty_Neutral>
0.00217876

> <r_epik_State_Penalty>
-0

> <r_epik_Charging_Adjusted_Penalty>
0

> <i_epik_Tot_Q>
0

> <i_epik_Tot_abs_Q>
0

> <r_epik_Metal_State_Penalty>
-0

> <b_epik_Metal_Only>
0

> <s_lp_Force_Field>
OPLS_2005

> <r_lp_Energy>
9.06816

> <b_lp_Chiralities_Consistent>
1

> <s_lp_Variant>
AV-unprocessed.smi:2744-1

> <Gold.Version>
5.8.1

> <Gold.Id.Protein>
6NUR|6NUR_protein|mol2

> <Gold.PLP.Fitness>
47.0771

> <Gold.PLP.PLP>
-38.8243

> <Gold.PLP.part.hbond>
-3.6787

> <Gold.PLP.part.metal>
0.0000

> <Gold.PLP.part.buried>
-2.7320

> <Gold.PLP.part.nonpolar>
-31.3327

> <Gold.PLP.part.repulsive>
0.3966

> <Gold.PLP.ligand.clash>
3.1296

> <Gold.PLP.ligand.torsion>
0.1000

> <Gold.PLP.Chemscore.Hbond>
2.8208

> <Gold.PLP.Chemscore.CHOScore>
1.0000

> <Gold.PLP.Chemscore.Metal>
0.0000

> <Gold.Chemscore.Hbonds>
donor molecule, donor type, donor heavy atom, donor atom, acceptor molecule, acceptor atom, score
      L1  H     5    28       P1  8028  1.00
      L1  H    12    32       P1  7948  1.00
      P1  H  7997  8009       L1    18  0.39
      L1  C     8    31       P1  8028  1.00

> <Gold.PLP.Chemscore.Internal.Correction>
0.1202

> <Gold.Rescore>
     Score         DG    S(hbond)    S(metal)    S(lipo)     H(rot)  DE(clash)    DE(int)     intcor
     13.29     -17.83       2.94        0.00      73.81       2.38       1.49       3.06       ----

> <Gold.Chemscore.Fitness>
13.2869

> <Gold.Chemscore.DG>
-17.8301

> <Gold.Chemscore.ZeroCoef>
-5.4800

> <Gold.Chemscore.Hbond>
2.9365

> <Gold.Chemscore.Metal>
0.0000

> <Gold.Chemscore.Lipo>
73.8085

> <Gold.Chemscore.Internal_Hbond>
0.0000

> <Gold.Chemscore.DEClash>
1.4870

> <Gold.Chemscore.DEInternal>
3.0563

> <Gold.Chemscore.Rot>
2.3802

> <Gold.Chemscore.Internal.Correction>
   9.000000E+99

> <Gold.Chemscore.Hbonds>
donor molecule, donor type, donor heavy atom, donor atom, acceptor molecule, acceptor atom, score
      L1  H     5    28       P1  8028  0.96
      L1  H    12    32       P1  7948  0.99
      P1  H  7997  8009       L1    18  0.36

> <Gold.Chemscore.Hbond.Weighted>
-9.8078

> <Gold.Chemscore.Metal.Weighted>
-0.0000

> <Gold.Chemscore.Lipo.Weighted>
-8.6356

> <Gold.Chemscore.Internal_Hbond.Weighted>
0.0000

> <Gold.Chemscore.DEClash.Weighted>
1.4870

> <Gold.Chemscore.DEInternal.Weighted>
3.0563

> <Gold.Chemscore.Rot.Weighted>
6.0933

> <Gold.Chemscore.Internal.Correction.Weighted>
   9.000000E+99

> <Gold.Protein.RotatedTorsions>
[ 6907 6896 6895 6894 ] final -110.32 input  -60.11 | X-H torsion
[ 7974 7965 7964 7962 ] final  136.68 input  175.53 | X-H torsion
[ 8008 7997 7996 7995 ] final -152.14 input   59.86 | X-H torsion
[ 10167 10162 10161 10158 ] final  151.33 input  -65.29 | X-H torsion
[ 10718 10713 10712 10709 ] final  179.70 input   66.30 | X-H torsion
[ 10763 10752 10751 10750 ] final  -37.37 input  -60.55 | X-H torsion
[ 11005 11000 10999 10996 ] final  -37.37 input  -57.11 | X-H torsion

> <Gold.Protein.ActiveResidues>
 VAL166  LYS551  ARG553  GLY616  TRP617  ASP618  TYR619  PRO620  LYS621  CYS622 
 ASP623  PHE694  ASN695  SER759  ASP760  ASP761  ALA762  ILE779  LEU786  VAL792 
 PHE793  MET794  SER795  GLU796  ALA797  LYS798  CYS799  TRP800  GLU811  SER814 

> <Gold.Protein.RotatedAtoms>
  150.7617  133.9399  159.3452 H   0  0  0  0  0  0  0  0  0  0  0  0  # atno 6907 bound_to 6896
  151.7306  135.0873  160.0309 H   0  0  0  0  0  0  0  0  0  0  0  0  # atno 6908 bound_to 6896
  152.3592  133.6238  159.6038 H   0  0  0  0  0  0  0  0  0  0  0  0  # atno 6909 bound_to 6896
  144.9541  139.4785  143.5511 H   0  0  0  0  0  0  0  0  0  0  0  0  # atno 7974 bound_to 7965
  155.6504  140.0711  157.2589 H   0  0  0  0  0  0  0  0  0  0  0  0  # atno 8008 bound_to 7997
  154.4164  140.1734  156.1718 H   0  0  0  0  0  0  0  0  0  0  0  0  # atno 8009 bound_to 7997
  155.9782  140.3356  155.6641 H   0  0  0  0  0  0  0  0  0  0  0  0  # atno 8010 bound_to 7997
  139.4841  144.5449  151.7500 H   0  0  0  0  0  0  0  0  0  0  0  0  # atno 10167 bound_to 10162
  156.8718  130.9786  151.3072 H   0  0  0  0  0  0  0  0  0  0  0  0  # atno 10718 bound_to 10713
  153.8951  135.6808  153.4758 H   0  0  0  0  0  0  0  0  0  0  0  0  # atno 10763 bound_to 10752
  153.1160  135.4761  154.9113 H   0  0  0  0  0  0  0  0  0  0  0  0  # atno 10764 bound_to 10752
  154.7603  135.3209  154.8344 H   0  0  0  0  0  0  0  0  0  0  0  0  # atno 10765 bound_to 10752
  140.9946  133.6987  156.1912 H   0  0  0  0  0  0  0  0  0  0  0  0  # atno 11005 bound_to 11000
  146.3331  139.8646  142.8850 LP  0  0  0  0  0  0  0  0  0  0  0  0  # atno 17320 bound_to 7965
  145.2799  141.0135  143.3723 LP  0  0  0  0  0  0  0  0  0  0  0  0  # atno 17321 bound_to 7965
  140.4994  144.1191  150.5967 LP  0  0  0  0  0  0  0  0  0  0  0  0  # atno 17342 bound_to 10162
  140.4079  143.2671  151.9868 LP  0  0  0  0  0  0  0  0  0  0  0  0  # atno 17343 bound_to 10162
  157.6191  130.8641  149.9078 LP  0  0  0  0  0  0  0  0  0  0  0  0  # atno 17370 bound_to 10713
  156.0722  130.3683  150.0751 LP  0  0  0  0  0  0  0  0  0  0  0  0  # atno 17371 bound_to 10713
  140.6986  134.4589  157.5587 LP  0  0  0  0  0  0  0  0  0  0  0  0  # atno 17394 bound_to 11000
  139.9008  134.8559  156.1902 LP  0  0  0  0  0  0  0  0  0  0  0  0  # atno 17395 bound_to 11000

$$$$
