AV-unprocessed.smi:342|AV-procd|sdf|2385|dock4
  -GOLD-   2262022313D 1   1.00000     0.00000
 Structure written by MMmdl.
 41 43  0  0  0  0  0  0  0  0  1 V2000
  151.7444  140.4035  155.0097 O   0  0  0  0  0  0  0  0  0  0  0  0
  150.5953  140.8708  155.6885 C   0  0  1  0  0  0  0  0  0  0  0  0
  149.3613  140.6281  154.7957 C   0  0  0  0  0  0  0  0  0  0  0  0
  148.1932  141.4609  155.0875 N   0  0  0  0  0  0  0  0  0  0  0  0
  147.2581  141.4546  153.9671 C   0  0  0  0  0  0  0  0  0  0  0  0
  146.0190  142.3228  154.2447 C   0  0  0  0  0  0  0  0  0  0  0  0
  145.3781  141.8693  155.4320 O   0  0  0  0  0  0  0  0  0  0  0  0
  146.2396  141.9017  156.5648 C   0  0  0  0  0  0  0  0  0  0  0  0
  147.4849  141.0388  156.2954 C   0  0  0  0  0  0  0  0  0  0  0  0
  150.4634  140.1415  157.0412 C   0  0  0  0  0  0  0  0  0  0  0  0
  151.2995  140.7255  158.0831 N   0  0  0  0  0  0  0  0  0  0  0  0
  152.1923  140.1085  158.9019 C   0  0  0  0  0  0  0  0  0  0  0  0
  152.4453  138.6269  158.8498 C   0  0  0  0  0  0  0  0  0  0  0  0
  151.3193  137.9428  159.0588 F   0  0  0  0  0  0  0  0  0  0  0  0
  152.9189  138.2755  157.6541 F   0  0  0  0  0  0  0  0  0  0  0  0
  153.3215  138.2585  159.7842 F   0  0  0  0  0  0  0  0  0  0  0  0
  152.8165  140.9041  159.7738 N   0  0  0  0  0  0  0  0  0  0  0  0
  152.2772  142.1448  159.5009 C   0  0  0  0  0  0  0  0  0  0  0  0
  152.5295  143.4048  160.0890 C   0  0  0  0  0  0  0  0  0  0  0  0
  151.8400  144.5515  159.6434 C   0  0  0  0  0  0  0  0  0  0  0  0
  150.8892  144.4542  158.6071 C   0  0  0  0  0  0  0  0  0  0  0  0
  150.6234  143.2082  158.0075 C   0  0  0  0  0  0  0  0  0  0  0  0
  151.3180  142.0671  158.4529 C   0  0  0  0  0  0  0  0  0  0  0  0
  152.5088  140.6473  155.5087 H   0  0  0  0  0  0  0  0  0  0  0  0
  150.7286  141.9333  155.8827 H   0  0  0  0  0  0  0  0  0  0  0  0
  149.6626  140.7786  153.7577 H   0  0  0  0  0  0  0  0  0  0  0  0
  149.0706  139.5787  154.8665 H   0  0  0  0  0  0  0  0  0  0  0  0
  147.7556  141.8189  153.0675 H   0  0  0  0  0  0  0  0  0  0  0  0
  146.9407  140.4325  153.7552 H   0  0  0  0  0  0  0  0  0  0  0  0
  146.2973  143.3726  154.3502 H   0  0  0  0  0  0  0  0  0  0  0  0
  145.3171  142.2588  153.4132 H   0  0  0  0  0  0  0  0  0  0  0  0
  146.5242  142.9320  156.7844 H   0  0  0  0  0  0  0  0  0  0  0  0
  145.6993  141.5265  157.4341 H   0  0  0  0  0  0  0  0  0  0  0  0
  147.1850  139.9938  156.2026 H   0  0  0  0  0  0  0  0  0  0  0  0
  148.1382  141.1005  157.1643 H   0  0  0  0  0  0  0  0  0  0  0  0
  149.4287  140.1837  157.3831 H   0  0  0  0  0  0  0  0  0  0  0  0
  150.6980  139.0845  156.9251 H   0  0  0  0  0  0  0  0  0  0  0  0
  153.2539  143.4886  160.8855 H   0  0  0  0  0  0  0  0  0  0  0  0
  152.0405  145.5095  160.1002 H   0  0  0  0  0  0  0  0  0  0  0  0
  150.3636  145.3366  158.2725 H   0  0  0  0  0  0  0  0  0  0  0  0
  149.8952  143.1318  157.2140 H   0  0  0  0  0  0  0  0  0  0  0  0
  1  2  1  0  0  0  0
  1 24  1  0  0  0  0
  2  3  1  0  0  0  0
  2 10  1  0  0  0  0
  2 25  1  0  0  0  0
  3  4  1  0  0  0  0
  3 26  1  0  0  0  0
  3 27  1  0  0  0  0
  4  9  1  0  0  0  0
  4  5  1  0  0  0  0
  5  6  1  0  0  0  0
  5 28  1  0  0  0  0
  5 29  1  0  0  0  0
  6  7  1  0  0  0  0
  6 30  1  0  0  0  0
  6 31  1  0  0  0  0
  7  8  1  0  0  0  0
  8  9  1  0  0  0  0
  8 32  1  0  0  0  0
  8 33  1  0  0  0  0
  9 34  1  0  0  0  0
  9 35  1  0  0  0  0
 10 11  1  0  0  0  0
 10 36  1  0  0  0  0
 10 37  1  0  0  0  0
 11 23  1  0  0  0  0
 11 12  1  0  0  0  0
 12 13  1  0  0  0  0
 12 17  2  0  0  0  0
 13 14  1  0  0  0  0
 13 15  1  0  0  0  0
 13 16  1  0  0  0  0
 17 18  1  0  0  0  0
 18 23  2  0  0  0  0
 18 19  1  0  0  0  0
 19 20  2  0  0  0  0
 19 38  1  0  0  0  0
 20 21  1  0  0  0  0
 20 39  1  0  0  0  0
 21 22  2  0  0  0  0
 21 40  1  0  0  0  0
 22 23  1  0  0  0  0
 22 41  1  0  0  0  0
M  END
> <s_m_source_file>
AV-unprocessed.smi

> <i_m_source_file_index>
342

> <i_lp_mmshare_version>
43012

> <i_f3d_flags>
0

> <s_epik_input>
W2NIXTFbY0hdW2NIXVtjSF1jKGMxMiluKGMobjIpQyhGKShGKUYpW0NIMl1bQ0BIXShbT0hdKVtDSDJdTjNbQ0gyXVtDSDJdT1tDSDJdW0NIMl0z

> <s_epik_cmdline>
J2VwaWtfcHl0aG9uJywgJy1waCcsICc3LjAnLCAnLXRuJywgJzgnLCAnLW1hJywgJzIwMCcsICctbWV0YWxfYmluZGluZycsICctaW1hZScsICc8aW5maWxlLm1hZT4nLCAnLW9tYWUnLCAnPG91dGZpbGUubWFlPic=

> <r_epik_Ionization_Penalty>
0.263195

> <r_epik_Ionization_Penalty_Charging>
0

> <r_epik_Ionization_Penalty_Neutral>
0.263195

> <r_epik_State_Penalty>
0.254683

> <r_epik_Charging_Adjusted_Penalty>
0.254683

> <i_epik_Tot_Q>
0

> <i_epik_Tot_abs_Q>
0

> <r_epik_Metal_State_Penalty>
0.254691

> <b_epik_Metal_Only>
0

> <s_lp_Force_Field>
OPLS_2005

> <r_lp_Energy>
34.5572

> <b_lp_Chiralities_Consistent>
1

> <s_lp_Variant>
AV-unprocessed.smi:342-2

> <Gold.Version>
5.8.1

> <Gold.Id.Protein>
6NUR|6NUR_protein|mol2

> <Gold.PLP.Fitness>
49.0433

> <Gold.PLP.PLP>
-47.4673

> <Gold.PLP.part.hbond>
-1.0000

> <Gold.PLP.part.metal>
0.0000

> <Gold.PLP.part.buried>
-7.6596

> <Gold.PLP.part.nonpolar>
-39.4632

> <Gold.PLP.part.repulsive>
0.3651

> <Gold.PLP.ligand.clash>
0.0000

> <Gold.PLP.ligand.torsion>
0.6289

> <Gold.PLP.Chemscore.Hbond>
0.9280

> <Gold.PLP.Chemscore.CHOScore>
0.0000

> <Gold.PLP.Chemscore.Metal>
0.0000

> <Gold.Chemscore.Hbonds>
donor molecule, donor type, donor heavy atom, donor atom, acceptor molecule, acceptor atom, score
      P1  H  7989  7998       L1     1  0.83

> <Gold.PLP.Chemscore.Internal.Correction>
0.0498

> <Gold.Rescore>
     Score         DG    S(hbond)    S(metal)    S(lipo)     H(rot)  DE(clash)    DE(int)     intcor
     13.71     -14.53       0.84        0.00     102.38       2.24       0.01       0.81       ----

> <Gold.Chemscore.Fitness>
13.7069

> <Gold.Chemscore.DG>
-14.5339

> <Gold.Chemscore.ZeroCoef>
-5.4800

> <Gold.Chemscore.Hbond>
0.8428

> <Gold.Chemscore.Metal>
0.0000

> <Gold.Chemscore.Lipo>
102.3837

> <Gold.Chemscore.Internal_Hbond>
0.0000

> <Gold.Chemscore.DEClash>
0.0126

> <Gold.Chemscore.DEInternal>
0.8144

> <Gold.Chemscore.Rot>
2.2421

> <Gold.Chemscore.Internal.Correction>
   9.000000E+99

> <Gold.Chemscore.Hbonds>
donor molecule, donor type, donor heavy atom, donor atom, acceptor molecule, acceptor atom, score
      P1  H  7989  7998       L1     1  0.50

> <Gold.Chemscore.Hbond.Weighted>
-2.8149

> <Gold.Chemscore.Metal.Weighted>
-0.0000

> <Gold.Chemscore.Lipo.Weighted>
-11.9789

> <Gold.Chemscore.Internal_Hbond.Weighted>
0.0000

> <Gold.Chemscore.DEClash.Weighted>
0.0126

> <Gold.Chemscore.DEInternal.Weighted>
0.8144

> <Gold.Chemscore.Rot.Weighted>
5.7399

> <Gold.Chemscore.Internal.Correction.Weighted>
   9.000000E+99

> <Gold.Protein.RotatedTorsions>
[ 6907 6896 6895 6894 ] final    4.14 input  -60.11 | X-H torsion
[ 7974 7965 7964 7962 ] final   14.22 input  175.53 | X-H torsion
[ 8008 7997 7996 7995 ] final   56.60 input   59.86 | X-H torsion
[ 10167 10162 10161 10158 ] final  -90.45 input  -65.29 | X-H torsion
[ 10718 10713 10712 10709 ] final  -27.92 input   66.30 | X-H torsion
[ 10763 10752 10751 10750 ] final   99.95 input  -60.55 | X-H torsion
[ 11005 11000 10999 10996 ] final  -96.87 input  -57.11 | X-H torsion

> <Gold.Protein.ActiveResidues>
 VAL166  LYS551  ARG553  GLY616  TRP617  ASP618  TYR619  PRO620  LYS621  CYS622 
 ASP623  PHE694  ASN695  SER759  ASP760  ASP761  ALA762  ILE779  LEU786  VAL792 
 PHE793  MET794  SER795  GLU796  ALA797  LYS798  CYS799  TRP800  GLU811  SER814 

> <Gold.Protein.RotatedAtoms>
  151.6365  135.1017  160.0132 H   0  0  0  0  0  0  0  0  0  0  0  0  # atno 6907 bound_to 6896
  152.4077  133.6911  159.6379 H   0  0  0  0  0  0  0  0  0  0  0  0  # atno 6908 bound_to 6896
  150.7970  133.8596  159.3269 H   0  0  0  0  0  0  0  0  0  0  0  0  # atno 6909 bound_to 6896
  146.2310  139.9073  142.8530 H   0  0  0  0  0  0  0  0  0  0  0  0  # atno 7974 bound_to 7965
  155.5201  140.3479  155.4405 H   0  0  0  0  0  0  0  0  0  0  0  0  # atno 8008 bound_to 7997
  156.0790  140.1382  156.9763 H   0  0  0  0  0  0  0  0  0  0  0  0  # atno 8009 bound_to 7997
  154.4569  140.0950  156.6759 H   0  0  0  0  0  0  0  0  0  0  0  0  # atno 8010 bound_to 7997
  140.3547  143.2873  151.9685 H   0  0  0  0  0  0  0  0  0  0  0  0  # atno 10167 bound_to 10162
  156.4319  130.4447  149.7111 H   0  0  0  0  0  0  0  0  0  0  0  0  # atno 10718 bound_to 10713
  153.3078  135.4096  155.1309 H   0  0  0  0  0  0  0  0  0  0  0  0  # atno 10763 bound_to 10752
  154.8567  135.3557  154.5765 H   0  0  0  0  0  0  0  0  0  0  0  0  # atno 10764 bound_to 10752
  153.6192  135.7065  153.5375 H   0  0  0  0  0  0  0  0  0  0  0  0  # atno 10765 bound_to 10752
  141.1397  133.8129  157.0630 H   0  0  0  0  0  0  0  0  0  0  0  0  # atno 11005 bound_to 11000
  145.2264  140.9956  143.4016 LP  0  0  0  0  0  0  0  0  0  0  0  0  # atno 17320 bound_to 7965
  144.9567  139.4024  143.6376 LP  0  0  0  0  0  0  0  0  0  0  0  0  # atno 17321 bound_to 7965
  139.4821  144.6045  151.7546 LP  0  0  0  0  0  0  0  0  0  0  0  0  # atno 17342 bound_to 10162
  140.5185  144.0916  150.6015 LP  0  0  0  0  0  0  0  0  0  0  0  0  # atno 17343 bound_to 10162
  156.4011  130.7675  151.2683 LP  0  0  0  0  0  0  0  0  0  0  0  0  # atno 17370 bound_to 10713
  157.7508  131.0239  150.3856 LP  0  0  0  0  0  0  0  0  0  0  0  0  # atno 17371 bound_to 10713
  140.0559  134.9780  157.1220 LP  0  0  0  0  0  0  0  0  0  0  0  0  # atno 17394 bound_to 11000
  140.3919  134.2175  155.7166 LP  0  0  0  0  0  0  0  0  0  0  0  0  # atno 17395 bound_to 11000

$$$$
