AV-unprocessed.smi:49|AV-procd|sdf|476|dock2
  -GOLD-   2262016343D 1   1.00000     0.00000
 Structure written by MMmdl.
 27 28  0  0  0  0  0  0  0  0  1 V2000
  138.5675  137.1675  153.5064 C   0  0  0  0  0  0  0  0  0  0  0  0
  139.9382  137.4544  154.1297 C   0  0  0  0  0  0  0  0  0  0  0  0
  140.9116  136.3483  153.8896 C   0  0  0  0  0  0  0  0  0  0  0  0
  142.0569  136.5169  153.1627 N   0  0  0  0  0  0  0  0  0  0  0  0
  142.5456  135.2802  153.2007 C   0  0  0  0  0  0  0  0  0  0  0  0
  143.8159  134.8205  152.5549 C   0  0  1  0  0  0  0  0  0  0  0  0
  143.6031  133.6447  151.5902 C   0  0  0  0  0  0  0  0  0  0  0  0
  144.7060  133.8492  150.5617 C   0  0  1  0  0  0  0  0  0  0  0  0
  144.4334  133.2210  149.3274 O   0  0  0  0  0  0  0  0  0  0  0  0
  144.7476  135.3693  150.4433 C   0  0  0  0  0  0  0  0  0  0  0  0
  144.4945  135.8742  151.7900 N   0  0  0  0  0  0  0  0  0  0  0  0
  141.7536  134.4424  153.8733 N   0  0  0  0  0  0  0  0  0  0  0  0
  140.6746  135.1131  154.3285 N   0  0  0  0  0  0  0  0  0  0  0  0
  144.4925  134.4904  153.3442 H   0  0  0  0  0  0  0  0  0  0  0  0
  145.6549  133.4802  150.9540 H   0  0  0  0  0  0  0  0  0  0  0  0
  141.8977  133.4558  154.0335 H   0  0  0  0  0  0  0  0  0  0  0  0
  137.8742  137.9862  153.6991 H   0  0  0  0  0  0  0  0  0  0  0  0
  138.1309  136.2571  153.9180 H   0  0  0  0  0  0  0  0  0  0  0  0
  138.6455  137.0438  152.4259 H   0  0  0  0  0  0  0  0  0  0  0  0
  140.3441  138.3801  153.7203 H   0  0  0  0  0  0  0  0  0  0  0  0
  139.8313  137.6122  155.2036 H   0  0  0  0  0  0  0  0  0  0  0  0
  143.6403  132.6737  152.0847 H   0  0  0  0  0  0  0  0  0  0  0  0
  142.6315  133.7338  151.0997 H   0  0  0  0  0  0  0  0  0  0  0  0
  144.8640  133.7067  148.6408 H   0  0  0  0  0  0  0  0  0  0  0  0
  145.6923  135.7347  150.0403 H   0  0  0  0  0  0  0  0  0  0  0  0
  143.9516  135.7075  149.7785 H   0  0  0  0  0  0  0  0  0  0  0  0
  145.3858  136.0694  152.2342 H   0  0  0  0  0  0  0  0  0  0  0  0
  1  2  1  0  0  0  0
  1 17  1  0  0  0  0
  1 18  1  0  0  0  0
  1 19  1  0  0  0  0
  2 20  1  0  0  0  0
  2 21  1  0  0  0  0
  2  3  1  0  0  0  0
  3  4  1  0  0  0  0
  3 13  2  0  0  0  0
  4  5  2  0  0  0  0
  5  6  1  0  0  0  0
  5 12  1  0  0  0  0
  6 14  1  0  0  0  0
  6 11  1  0  0  0  0
  6  7  1  0  0  0  0
  7  8  1  0  0  0  0
  7 22  1  0  0  0  0
  7 23  1  0  0  0  0
  8 15  1  0  0  0  0
  8  9  1  0  0  0  0
  8 10  1  0  0  0  0
  9 24  1  0  0  0  0
 10 11  1  0  0  0  0
 10 25  1  0  0  0  0
 10 26  1  0  0  0  0
 11 27  1  0  0  0  0
 12 13  1  0  0  0  0
 12 16  1  0  0  0  0
M  END
> <s_m_source_file>
AV-unprocessed.smi

> <i_m_source_file_index>
49

> <i_lp_mmshare_version>
43012

> <i_f3d_flags>
0

> <s_epik_input>
W0NIM11bQ0gyXWMxbmMobltuSF0xKVtDQEBIXTJbQ0gyXVtDQEBIXShbT0hdKVtDSDJdW05IXTI=

> <s_epik_cmdline>
J2VwaWtfcHl0aG9uJywgJy1waCcsICc3LjAnLCAnLXRuJywgJzgnLCAnLW1hJywgJzIwMCcsICctbWV0YWxfYmluZGluZycsICctaW1hZScsICc8aW5maWxlLm1hZT4nLCAnLW9tYWUnLCAnPG91dGZpbGUubWFlPic=

> <r_epik_Ionization_Penalty>
1.31544

> <r_epik_Ionization_Penalty_Charging>
0

> <r_epik_Ionization_Penalty_Neutral>
1.31544

> <r_epik_State_Penalty>
2.06074

> <r_epik_Charging_Adjusted_Penalty>
2.06074

> <i_epik_Tot_Q>
0

> <i_epik_Tot_abs_Q>
0

> <r_epik_Metal_State_Penalty>
2.32913

> <b_epik_Metal_Only>
0

> <s_lp_Force_Field>
OPLS_2005

> <r_lp_Energy>
18.1426

> <b_lp_Chiralities_Consistent>
1

> <s_lp_Variant>
AV-unprocessed.smi:49-14

> <Gold.Version>
5.8.1

> <Gold.Id.Protein>
6NUR|6NUR_protein|mol2

> <Gold.PLP.Fitness>
35.5586

> <Gold.PLP.PLP>
-26.6216

> <Gold.PLP.part.hbond>
-4.5559

> <Gold.PLP.part.metal>
0.0000

> <Gold.PLP.part.buried>
-5.8801

> <Gold.PLP.part.nonpolar>
-16.5582

> <Gold.PLP.part.repulsive>
0.4049

> <Gold.PLP.ligand.clash>
0.0000

> <Gold.PLP.ligand.torsion>
0.0360

> <Gold.PLP.Chemscore.Hbond>
3.0000

> <Gold.PLP.Chemscore.CHOScore>
0.0000

> <Gold.PLP.Chemscore.Metal>
0.0000

> <Gold.Chemscore.Hbonds>
donor molecule, donor type, donor heavy atom, donor atom, acceptor molecule, acceptor atom, score
      L1  H     9    24       P1  7921  1.00
      L1  H    12    16       P1 10957  1.00
      P1  H 11000 11005       L1    13  1.00

> <Gold.PLP.Chemscore.Internal.Correction>
0.0090

> <Gold.Rescore>
     Score         DG    S(hbond)    S(metal)    S(lipo)     H(rot)  DE(clash)    DE(int)     intcor
     14.31     -14.34       2.83        0.00      35.66       1.86       0.00       0.03       ----

> <Gold.Chemscore.Fitness>
14.3116

> <Gold.Chemscore.DG>
-14.3444

> <Gold.Chemscore.ZeroCoef>
-5.4800

> <Gold.Chemscore.Hbond>
2.8273

> <Gold.Chemscore.Metal>
0.0000

> <Gold.Chemscore.Lipo>
35.6583

> <Gold.Chemscore.Internal_Hbond>
0.0000

> <Gold.Chemscore.DEClash>
0.0000

> <Gold.Chemscore.DEInternal>
0.0327

> <Gold.Chemscore.Rot>
1.8558

> <Gold.Chemscore.Internal.Correction>
   9.000000E+99

> <Gold.Chemscore.Hbonds>
donor molecule, donor type, donor heavy atom, donor atom, acceptor molecule, acceptor atom, score
      L1  H     9    24       P1  7921  0.95
      L1  H    12    16       P1 10957  0.97
      P1  H 11000 11005       L1    13  0.29

> <Gold.Chemscore.Hbond.Weighted>
-9.4431

> <Gold.Chemscore.Metal.Weighted>
-0.0000

> <Gold.Chemscore.Lipo.Weighted>
-4.1720

> <Gold.Chemscore.Internal_Hbond.Weighted>
0.0000

> <Gold.Chemscore.DEClash.Weighted>
0.0000

> <Gold.Chemscore.DEInternal.Weighted>
0.0327

> <Gold.Chemscore.Rot.Weighted>
4.7507

> <Gold.Chemscore.Internal.Correction.Weighted>
   9.000000E+99

> <Gold.Protein.RotatedTorsions>
[ 6907 6896 6895 6894 ] final  135.39 input  -60.11 | X-H torsion
[ 7974 7965 7964 7962 ] final  -95.30 input  175.53 | X-H torsion
[ 8008 7997 7996 7995 ] final  -54.86 input   59.86 | X-H torsion
[ 10167 10162 10161 10158 ] final  140.54 input  -65.29 | X-H torsion
[ 10718 10713 10712 10709 ] final  133.61 input   66.30 | X-H torsion
[ 10763 10752 10751 10750 ] final    4.38 input  -60.55 | X-H torsion
[ 11005 11000 10999 10996 ] final   26.63 input  -57.11 | X-H torsion

> <Gold.Protein.ActiveResidues>
 VAL166  LYS551  ARG553  GLY616  TRP617  ASP618  TYR619  PRO620  LYS621  CYS622 
 ASP623  PHE694  ASN695  SER759  ASP760  ASP761  ALA762  ILE779  LEU786  VAL792 
 PHE793  MET794  SER795  GLU796  ALA797  LYS798  CYS799  TRP800  GLU811  SER814 

> <Gold.Protein.RotatedAtoms>
  152.3010  133.5655  159.5617 H   0  0  0  0  0  0  0  0  0  0  0  0  # atno 6907 bound_to 6896
  150.7277  134.0292  159.3736 H   0  0  0  0  0  0  0  0  0  0  0  0  # atno 6908 bound_to 6896
  151.8192  135.0657  160.0474 H   0  0  0  0  0  0  0  0  0  0  0  0  # atno 6909 bound_to 6896
  145.3619  140.9493  143.2496 H   0  0  0  0  0  0  0  0  0  0  0  0  # atno 7974 bound_to 7965
  154.4176  140.1166  156.5383 H   0  0  0  0  0  0  0  0  0  0  0  0  # atno 8008 bound_to 7997
  155.6534  140.3496  155.4737 H   0  0  0  0  0  0  0  0  0  0  0  0  # atno 8009 bound_to 7997
  155.9773  140.1153  157.0748 H   0  0  0  0  0  0  0  0  0  0  0  0  # atno 8010 bound_to 7997
  139.5046  144.6227  151.6011 H   0  0  0  0  0  0  0  0  0  0  0  0  # atno 10167 bound_to 10162
  157.4755  131.1083  150.9748 H   0  0  0  0  0  0  0  0  0  0  0  0  # atno 10718 bound_to 10713
  153.2719  135.6933  153.7472 H   0  0  0  0  0  0  0  0  0  0  0  0  # atno 10763 bound_to 10752
  153.6492  135.3380  155.3095 H   0  0  0  0  0  0  0  0  0  0  0  0  # atno 10764 bound_to 10752
  154.8467  135.4450  154.1744 H   0  0  0  0  0  0  0  0  0  0  0  0  # atno 10765 bound_to 10752
  140.3350  134.2396  155.7697 H   0  0  0  0  0  0  0  0  0  0  0  0  # atno 11005 bound_to 11000
  144.8640  139.5135  143.6799 LP  0  0  0  0  0  0  0  0  0  0  0  0  # atno 17320 bound_to 7965
  146.2923  139.7176  142.9152 LP  0  0  0  0  0  0  0  0  0  0  0  0  # atno 17321 bound_to 7965
  140.5935  143.9738  150.6339 LP  0  0  0  0  0  0  0  0  0  0  0  0  # atno 17342 bound_to 10162
  140.2926  143.3314  152.1048 LP  0  0  0  0  0  0  0  0  0  0  0  0  # atno 17343 bound_to 10162
  157.0498  130.5783  149.5368 LP  0  0  0  0  0  0  0  0  0  0  0  0  # atno 17370 bound_to 10713
  156.0095  130.5185  150.7941 LP  0  0  0  0  0  0  0  0  0  0  0  0  # atno 17371 bound_to 10713
  141.2053  133.7862  157.0237 LP  0  0  0  0  0  0  0  0  0  0  0  0  # atno 17394 bound_to 11000
  140.0829  134.9638  157.1653 LP  0  0  0  0  0  0  0  0  0  0  0  0  # atno 17395 bound_to 11000

$$$$
