AV-unprocessed.smi:471|AV-procd|sdf|2658|dock4
  -GOLD-   2262023 73D 1   1.00000     0.00000
 Structure written by MMmdl.
 17 17  0  0  0  0  0  0  0  0  2 V2000
  152.3365  137.2383  155.2353 O   0  0  0  0  0  0  0  0  0  0  0  0
  152.2777  138.4349  154.8770 C   0  0  0  0  0  0  0  0  0  0  0  0
  153.2488  139.1363  154.5170 O   0  5  0  0  0  0  0  0  0  0  0  0
  150.8984  139.0992  154.8901 C   0  0  0  0  0  0  0  0  0  0  0  0
  150.8600  140.2834  155.7202 N   0  0  0  0  0  0  0  0  0  0  0  0
  151.5388  140.3401  156.9290 C   0  0  0  0  0  0  0  0  0  0  0  0
  151.5476  141.4362  157.7231 C   0  0  0  0  0  0  0  0  0  0  0  0
  150.8264  142.6408  157.3268 C   0  0  0  0  0  0  0  0  0  0  0  0
  150.7766  143.6831  157.9766 O   0  0  0  0  0  0  0  0  0  0  0  0
  150.1604  142.5427  156.1017 N   0  0  0  0  0  0  0  0  0  0  0  0
  150.1413  141.4195  155.2722 C   0  0  0  0  0  0  0  0  0  0  0  0
  149.5114  141.4614  154.2153 O   0  0  0  0  0  0  0  0  0  0  0  0
  149.6454  143.3528  155.7895 H   0  0  0  0  0  0  0  0  0  0  0  0
  150.6328  139.4482  153.8905 H   0  0  0  0  0  0  0  0  0  0  0  0
  150.1245  138.3900  155.1855 H   0  0  0  0  0  0  0  0  0  0  0  0
  152.0882  139.4685  157.2562 H   0  0  0  0  0  0  0  0  0  0  0  0
  152.0929  141.4218  158.6556 H   0  0  0  0  0  0  0  0  0  0  0  0
  1  2  2  0  0  0  0
  2  3  1  0  0  0  0
  2  4  1  0  0  0  0
  4  5  1  0  0  0  0
  4 14  1  0  0  0  0
  4 15  1  0  0  0  0
  5 11  1  0  0  0  0
  5  6  1  0  0  0  0
  6  7  2  0  0  0  0
  6 16  1  0  0  0  0
  7  8  1  0  0  0  0
  7 17  1  0  0  0  0
  8  9  2  0  0  0  0
  8 10  1  0  0  0  0
 10 13  1  0  0  0  0
 10 11  1  0  0  0  0
 11 12  2  0  0  0  0
M  CHG  1   3  -1
M  END
> <s_m_source_file>
AV-unprocessed.smi

> <i_m_source_file_index>
471

> <i_lp_mmshare_version>
43012

> <i_f3d_flags>
0

> <s_epik_input>
Tz1DKFtPSF0pW0NIMl1uMVtjSF1bY0hdYyg9TylbbkhdYzE9Tw==

> <s_epik_cmdline>
J2VwaWtfcHl0aG9uJywgJy1waCcsICc3LjAnLCAnLXRuJywgJzgnLCAnLW1hJywgJzIwMCcsICctbWV0YWxfYmluZGluZycsICctaW1hZScsICc8aW5maWxlLm1hZT4nLCAnLW9tYWUnLCAnPG91dGZpbGUubWFlPic=

> <r_lp_tautomer_probability>
1

> <r_epik_Ionization_Penalty>
0.00201392

> <r_epik_Ionization_Penalty_Charging>
0.00201392

> <r_epik_Ionization_Penalty_Neutral>
0

> <r_epik_State_Penalty>
-0

> <r_epik_Charging_Adjusted_Penalty>
0.00201392

> <i_epik_Tot_Q>
-1

> <i_epik_Tot_abs_Q>
1

> <r_epik_Metal_State_Penalty>
0.487386

> <b_epik_Metal_Only>
0

> <s_lp_Force_Field>
OPLS_2005

> <r_lp_Energy>
1.1986

> <b_lp_Chiralities_Consistent>
1

> <s_lp_Variant>
AV-unprocessed.smi:471-1

> <Gold.Version>
5.8.1

> <Gold.Id.Protein>
6NUR|6NUR_protein|mol2

> <Gold.PLP.Fitness>
38.2722

> <Gold.PLP.PLP>
-23.5338

> <Gold.PLP.part.hbond>
-5.2801

> <Gold.PLP.part.metal>
0.0000

> <Gold.PLP.part.buried>
-2.8005

> <Gold.PLP.part.nonpolar>
-15.7183

> <Gold.PLP.part.repulsive>
0.5358

> <Gold.PLP.ligand.clash>
0.0000

> <Gold.PLP.ligand.torsion>
0.3004

> <Gold.PLP.Chemscore.Hbond>
5.1125

> <Gold.PLP.Chemscore.CHOScore>
0.0000

> <Gold.PLP.Chemscore.Metal>
0.0000

> <Gold.Chemscore.Hbonds>
donor molecule, donor type, donor heavy atom, donor atom, acceptor molecule, acceptor atom, score
      L1  H    10    13       P1  8028  1.00
      P1  H  7997  8008       L1     3  1.72
      P1  H  8011  8017       L1    12  0.49
      P1  H 10752 10765       L1     1  1.44

> <Gold.PLP.Chemscore.Internal.Correction>
0.0016

> <Gold.Rescore>
     Score         DG    S(hbond)    S(metal)    S(lipo)     H(rot)  DE(clash)    DE(int)     intcor
     13.56     -14.30       3.24        0.00      19.30       1.66       0.49       0.24       ----

> <Gold.Chemscore.Fitness>
13.5634

> <Gold.Chemscore.DG>
-14.2981

> <Gold.Chemscore.ZeroCoef>
-5.4800

> <Gold.Chemscore.Hbond>
3.2357

> <Gold.Chemscore.Metal>
0.0000

> <Gold.Chemscore.Lipo>
19.3003

> <Gold.Chemscore.Internal_Hbond>
0.0000

> <Gold.Chemscore.DEClash>
0.4929

> <Gold.Chemscore.DEInternal>
0.2417

> <Gold.Chemscore.Rot>
1.6591

> <Gold.Chemscore.Internal.Correction>
   9.000000E+99

> <Gold.Chemscore.Hbonds>
donor molecule, donor type, donor heavy atom, donor atom, acceptor molecule, acceptor atom, score
      L1  H    10    13       P1  8028  0.97
      P1  H  7997  8008       L1     3  0.84
      P1  H  8011  8017       L1    12  0.48
      P1  H 10752 10765       L1     1  0.72

> <Gold.Chemscore.Hbond.Weighted>
-10.8072

> <Gold.Chemscore.Metal.Weighted>
-0.0000

> <Gold.Chemscore.Lipo.Weighted>
-2.2581

> <Gold.Chemscore.Internal_Hbond.Weighted>
0.0000

> <Gold.Chemscore.DEClash.Weighted>
0.4929

> <Gold.Chemscore.DEInternal.Weighted>
0.2417

> <Gold.Chemscore.Rot.Weighted>
4.2473

> <Gold.Chemscore.Internal.Correction.Weighted>
   9.000000E+99

> <Gold.Protein.RotatedTorsions>
[ 6907 6896 6895 6894 ] final -167.64 input  -60.11 | X-H torsion
[ 7974 7965 7964 7962 ] final  -21.83 input  175.53 | X-H torsion
[ 8008 7997 7996 7995 ] final   -5.23 input   59.86 | X-H torsion
[ 10167 10162 10161 10158 ] final  162.54 input  -65.29 | X-H torsion
[ 10718 10713 10712 10709 ] final  104.72 input   66.30 | X-H torsion
[ 10763 10752 10751 10750 ] final -166.40 input  -60.55 | X-H torsion
[ 11005 11000 10999 10996 ] final  103.95 input  -57.11 | X-H torsion

> <Gold.Protein.ActiveResidues>
 VAL166  LYS551  ARG553  GLY616  TRP617  ASP618  TYR619  PRO620  LYS621  CYS622 
 ASP623  PHE694  ASN695  SER759  ASP760  ASP761  ALA762  ILE779  LEU786  VAL792 
 PHE793  MET794  SER795  GLU796  ALA797  LYS798  CYS799  TRP800  GLU811  SER814 

> <Gold.Protein.RotatedAtoms>
  151.4629  133.3588  159.2811 H   0  0  0  0  0  0  0  0  0  0  0  0  # atno 6907 bound_to 6896
  150.9013  134.8427  159.7373 H   0  0  0  0  0  0  0  0  0  0  0  0  # atno 6908 bound_to 6896
  152.4881  134.4549  159.9638 H   0  0  0  0  0  0  0  0  0  0  0  0  # atno 6909 bound_to 6896
  146.1711  140.4395  142.8532 H   0  0  0  0  0  0  0  0  0  0  0  0  # atno 7974 bound_to 7965
  154.6060  140.2463  155.7730 H   0  0  0  0  0  0  0  0  0  0  0  0  # atno 8008 bound_to 7997
  156.2341  140.2956  156.0217 H   0  0  0  0  0  0  0  0  0  0  0  0  # atno 8009 bound_to 7997
  155.2131  140.0398  157.2927 H   0  0  0  0  0  0  0  0  0  0  0  0  # atno 8010 bound_to 7997
  139.4862  144.4428  151.8930 H   0  0  0  0  0  0  0  0  0  0  0  0  # atno 10167 bound_to 10162
  157.6730  131.0810  150.5749 H   0  0  0  0  0  0  0  0  0  0  0  0  # atno 10718 bound_to 10713
  154.6837  135.2959  154.9578 H   0  0  0  0  0  0  0  0  0  0  0  0  # atno 10763 bound_to 10752
  154.0564  135.6637  153.4810 H   0  0  0  0  0  0  0  0  0  0  0  0  # atno 10764 bound_to 10752
  153.0564  135.5142  154.7893 H   0  0  0  0  0  0  0  0  0  0  0  0  # atno 10765 bound_to 10752
  139.8788  134.9282  156.5287 H   0  0  0  0  0  0  0  0  0  0  0  0  # atno 11005 bound_to 11000
  144.8164  140.6475  143.6381 LP  0  0  0  0  0  0  0  0  0  0  0  0  # atno 17320 bound_to 7965
  145.4338  139.1545  143.4007 LP  0  0  0  0  0  0  0  0  0  0  0  0  # atno 17321 bound_to 7965
  140.3880  144.2651  150.5902 LP  0  0  0  0  0  0  0  0  0  0  0  0  # atno 17342 bound_to 10162
  140.5172  143.2275  151.8445 LP  0  0  0  0  0  0  0  0  0  0  0  0  # atno 17343 bound_to 10162
  156.6050  130.4364  149.5882 LP  0  0  0  0  0  0  0  0  0  0  0  0  # atno 17370 bound_to 10713
  156.2476  130.6888  151.1615 LP  0  0  0  0  0  0  0  0  0  0  0  0  # atno 17371 bound_to 10713
  140.8396  133.8215  155.9062 LP  0  0  0  0  0  0  0  0  0  0  0  0  # atno 17394 bound_to 11000
  140.9250  134.2094  157.4902 LP  0  0  0  0  0  0  0  0  0  0  0  0  # atno 17395 bound_to 11000

$$$$
