AV-unprocessed.smi:72|AV-procd|sdf|663|dock9
  -GOLD-   2262016563D 1   1.00000     0.00000
 Structure written by MMmdl.
 29 30  0  0  0  0  0  0  0  0  1 V2000
  150.8469  134.6048  156.7454 N   0  0  0  0  0  0  0  0  0  0  0  0
  150.8856  135.7735  156.2122 C   0  0  0  0  0  0  0  0  0  0  0  0
  151.1172  136.0378  154.8536 N   0  0  0  0  0  0  0  0  0  0  0  0
  151.1154  137.2709  154.4502 C   0  0  0  0  0  0  0  0  0  0  0  0
  150.8723  138.3822  155.3570 N   0  0  0  0  0  0  0  0  0  0  0  0
  150.8854  139.8122  154.8666 C   0  0  2  0  0  0  0  0  0  0  0  0
  151.4340  140.6323  155.8586 O   0  0  0  0  0  0  0  0  0  0  0  0
  150.5806  141.7494  156.0725 C   0  0  2  0  0  0  0  0  0  0  0  0
  150.7952  142.3472  157.4750 C   0  0  0  0  0  0  0  0  0  0  0  0
  149.9735  143.4729  157.7075 O   0  0  0  0  0  0  0  0  0  0  0  0
  149.1786  141.2343  155.7393 C   0  0  1  0  0  0  0  0  0  0  0  0
  148.2668  142.2709  155.4276 O   0  0  0  0  0  0  0  0  0  0  0  0
  149.4528  140.2938  154.5687 C   0  0  1  0  0  0  0  0  0  0  0  0
  149.3936  140.9465  153.3137 O   0  0  0  0  0  0  0  0  0  0  0  0
  150.6707  138.1357  156.7366 C   0  0  0  0  0  0  0  0  0  0  0  0
  150.5083  139.0407  157.5550 O   0  0  0  0  0  0  0  0  0  0  0  0
  150.6767  136.8355  157.1028 N   0  0  0  0  0  0  0  0  0  0  0  0
  151.5462  139.8347  153.9983 H   0  0  0  0  0  0  0  0  0  0  0  0
  150.8693  142.4964  155.3305 H   0  0  0  0  0  0  0  0  0  0  0  0
  148.7781  140.6485  156.5672 H   0  0  0  0  0  0  0  0  0  0  0  0
  148.7516  139.4580  154.5515 H   0  0  0  0  0  0  0  0  0  0  0  0
  150.6678  134.6725  157.7365 H   0  0  0  0  0  0  0  0  0  0  0  0
  151.2987  137.5515  153.4126 H   0  0  0  0  0  0  0  0  0  0  0  0
  150.6125  141.5960  158.2440 H   0  0  0  0  0  0  0  0  0  0  0  0
  151.8325  142.6658  157.5810 H   0  0  0  0  0  0  0  0  0  0  0  0
  149.4926  143.6621  156.9163 H   0  0  0  0  0  0  0  0  0  0  0  0
  148.7509  143.0767  155.3313 H   0  0  0  0  0  0  0  0  0  0  0  0
  149.4521  140.2937  152.6328 H   0  0  0  0  0  0  0  0  0  0  0  0
  150.5288  136.6269  158.0792 H   0  0  0  0  0  0  0  0  0  0  0  0
  1  2  2  0  0  0  0
  1 22  1  0  0  0  0
  2 17  1  0  0  0  0
  2  3  1  0  0  0  0
  3  4  2  0  0  0  0
  4  5  1  0  0  0  0
  4 23  1  0  0  0  0
  5  6  1  0  0  0  0
  5 15  1  0  0  0  0
  6 18  1  0  0  0  0
  6 13  1  0  0  0  0
  6  7  1  0  0  0  0
  7  8  1  0  0  0  0
  8 19  1  0  0  0  0
  8  9  1  0  0  0  0
  8 11  1  0  0  0  0
  9 10  1  0  0  0  0
  9 24  1  0  0  0  0
  9 25  1  0  0  0  0
 10 26  1  0  0  0  0
 11 20  1  0  0  0  0
 11 12  1  0  0  0  0
 11 13  1  0  0  0  0
 12 27  1  0  0  0  0
 13 21  1  0  0  0  0
 13 14  1  0  0  0  0
 14 28  1  0  0  0  0
 15 16  2  0  0  0  0
 15 17  1  0  0  0  0
 17 29  1  0  0  0  0
M  END
> <s_m_source_file>
AV-unprocessed.smi

> <i_m_source_file_index>
72

> <i_lp_mmshare_version>
43012

> <i_f3d_flags>
0

> <s_epik_input>
W05IMl1jMW5bY0hdbihjKD1PKW4xKVtDQEBIXTJPW0NASF0oW0NIMl1bT0hdKVtDQEBIXShbT0hdKVtDQEhdMltPSF0=

> <s_epik_cmdline>
J2VwaWtfcHl0aG9uJywgJy1waCcsICc3LjAnLCAnLXRuJywgJzgnLCAnLW1hJywgJzIwMCcsICctbWV0YWxfYmluZGluZycsICctaW1hZScsICc8aW5maWxlLm1hZT4nLCAnLW9tYWUnLCAnPG91dGZpbGUubWFlPic=

> <r_lp_tautomer_probability>
7.17554e-07

> <r_epik_Ionization_Penalty>
0.0066451

> <r_epik_Ionization_Penalty_Charging>
0.00663793

> <r_epik_Ionization_Penalty_Neutral>
7.17052e-06

> <r_epik_State_Penalty>
0.419231

> <r_epik_Charging_Adjusted_Penalty>
0.425868

> <i_epik_Tot_Q>
0

> <i_epik_Tot_abs_Q>
0

> <r_epik_Metal_State_Penalty>
1.44144

> <b_epik_Metal_Only>
0

> <s_epik_Chemistry_Notes>
This compound contains an acetal/aminal-like group ( X-CH(R)-Y where X, Y are N, S, or O) that may be acid/base labile, releasing an aldehyde.

> <s_lp_Force_Field>
OPLS_2005

> <r_lp_Energy>
44.3383

> <b_lp_Chiralities_Consistent>
1

> <s_lp_Variant>
AV-unprocessed.smi:72-1

> <Gold.Version>
5.8.1

> <Gold.Id.Protein>
6NUR|6NUR_protein|mol2

> <Gold.PLP.Fitness>
41.5697

> <Gold.PLP.PLP>
-25.6614

> <Gold.PLP.part.hbond>
-6.6536

> <Gold.PLP.part.metal>
0.0000

> <Gold.PLP.part.buried>
-3.0953

> <Gold.PLP.part.nonpolar>
-17.3397

> <Gold.PLP.part.repulsive>
0.2475

> <Gold.PLP.ligand.clash>
0.0000

> <Gold.PLP.ligand.torsion>
0.6962

> <Gold.PLP.Chemscore.Hbond>
4.8267

> <Gold.PLP.Chemscore.CHOScore>
0.9378

> <Gold.PLP.Chemscore.Metal>
0.0000

> <Gold.Chemscore.Hbonds>
donor molecule, donor type, donor heavy atom, donor atom, acceptor molecule, acceptor atom, score
      L1  H    10    26       P1  8028  1.00
      L1  H    12    27       P1  8028  0.98
      L1  H    14    28       P1  7957  0.84
      P1  H  7989  7998       L1    14  0.01
      P1  H  8011  8017       L1    14  0.95
      P1  H 10752 10763       L1     3  0.95
      L1  C     4    23       P1  7949  0.90

> <Gold.PLP.Chemscore.Internal.Correction>
0.0070

> <Gold.Rescore>
     Score         DG    S(hbond)    S(metal)    S(lipo)     H(rot)  DE(clash)    DE(int)     intcor
      4.95      -8.57       3.06        0.00      27.91       4.06       0.54       3.07       ----

> <Gold.Chemscore.Fitness>
4.9512

> <Gold.Chemscore.DG>
-8.5683

> <Gold.Chemscore.ZeroCoef>
-5.4800

> <Gold.Chemscore.Hbond>
3.0588

> <Gold.Chemscore.Metal>
0.0000

> <Gold.Chemscore.Lipo>
27.9102

> <Gold.Chemscore.Internal_Hbond>
0.0000

> <Gold.Chemscore.DEClash>
0.5439

> <Gold.Chemscore.DEInternal>
3.0732

> <Gold.Chemscore.Rot>
4.0600

> <Gold.Chemscore.Internal.Correction>
   9.000000E+99

> <Gold.Chemscore.Hbonds>
donor molecule, donor type, donor heavy atom, donor atom, acceptor molecule, acceptor atom, score
      L1  H    10    26       P1  8028  0.90
      L1  H    12    27       P1  8028  0.92
      L1  H    14    28       P1  7957  0.79
      P1  H  8011  8017       L1    14  0.21
      P1  H 10752 10763       L1     3  0.13

> <Gold.Chemscore.Hbond.Weighted>
-10.2164

> <Gold.Chemscore.Metal.Weighted>
-0.0000

> <Gold.Chemscore.Lipo.Weighted>
-3.2655

> <Gold.Chemscore.Internal_Hbond.Weighted>
0.0000

> <Gold.Chemscore.DEClash.Weighted>
0.5439

> <Gold.Chemscore.DEInternal.Weighted>
3.0732

> <Gold.Chemscore.Rot.Weighted>
10.3936

> <Gold.Chemscore.Internal.Correction.Weighted>
   9.000000E+99

> <Gold.Protein.RotatedTorsions>
[ 6907 6896 6895 6894 ] final   47.04 input  -60.11 | X-H torsion
[ 7974 7965 7964 7962 ] final -153.51 input  175.53 | X-H torsion
[ 8008 7997 7996 7995 ] final  -40.96 input   59.86 | X-H torsion
[ 10167 10162 10161 10158 ] final   55.68 input  -65.29 | X-H torsion
[ 10718 10713 10712 10709 ] final  -76.30 input   66.30 | X-H torsion
[ 10763 10752 10751 10750 ] final   53.53 input  -60.55 | X-H torsion
[ 11005 11000 10999 10996 ] final   57.14 input  -57.11 | X-H torsion

> <Gold.Protein.ActiveResidues>
 VAL166  LYS551  ARG553  GLY616  TRP617  ASP618  TYR619  PRO620  LYS621  CYS622 
 ASP623  PHE694  ASN695  SER759  ASP760  ASP761  ALA762  ILE779  LEU786  VAL792 
 PHE793  MET794  SER795  GLU796  ALA797  LYS798  CYS799  TRP800  GLU811  SER814 

> <Gold.Protein.RotatedAtoms>
  152.2634  134.8010  160.0426 H   0  0  0  0  0  0  0  0  0  0  0  0  # atno 6907 bound_to 6896
  151.8648  133.3459  159.3724 H   0  0  0  0  0  0  0  0  0  0  0  0  # atno 6908 bound_to 6896
  150.7125  134.5098  159.5646 H   0  0  0  0  0  0  0  0  0  0  0  0  # atno 6909 bound_to 6896
  144.7737  140.4515  143.5889 H   0  0  0  0  0  0  0  0  0  0  0  0  # atno 7974 bound_to 7965
  154.4008  140.1512  156.3112 H   0  0  0  0  0  0  0  0  0  0  0  0  # atno 8008 bound_to 7997
  155.8613  140.3453  155.5737 H   0  0  0  0  0  0  0  0  0  0  0  0  # atno 8009 bound_to 7997
  155.7876  140.0852  157.2016 H   0  0  0  0  0  0  0  0  0  0  0  0  # atno 8010 bound_to 7997
  140.2169  144.3830  150.6466 H   0  0  0  0  0  0  0  0  0  0  0  0  # atno 10167 bound_to 10162
  156.0179  130.4462  150.3173 H   0  0  0  0  0  0  0  0  0  0  0  0  # atno 10718 bound_to 10713
  152.9796  135.5775  154.4757 H   0  0  0  0  0  0  0  0  0  0  0  0  # atno 10763 bound_to 10752
  154.4313  135.2773  155.1912 H   0  0  0  0  0  0  0  0  0  0  0  0  # atno 10764 bound_to 10752
  154.3619  135.6186  153.5749 H   0  0  0  0  0  0  0  0  0  0  0  0  # atno 10765 bound_to 10752
  140.0475  134.5784  155.9304 H   0  0  0  0  0  0  0  0  0  0  0  0  # atno 11005 bound_to 11000
  145.6249  139.1529  143.3001 LP  0  0  0  0  0  0  0  0  0  0  0  0  # atno 17320 bound_to 7965
  146.1901  140.6357  142.9149 LP  0  0  0  0  0  0  0  0  0  0  0  0  # atno 17321 bound_to 7965
  140.6283  143.2184  151.6549 LP  0  0  0  0  0  0  0  0  0  0  0  0  # atno 17342 bound_to 10162
  139.5159  144.3365  152.0779 LP  0  0  0  0  0  0  0  0  0  0  0  0  # atno 17343 bound_to 10162
  157.1273  131.0262  151.2984 LP  0  0  0  0  0  0  0  0  0  0  0  0  # atno 17370 bound_to 10713
  157.4579  130.7636  149.7209 LP  0  0  0  0  0  0  0  0  0  0  0  0  # atno 17371 bound_to 10713
  141.1914  133.6571  156.5456 LP  0  0  0  0  0  0  0  0  0  0  0  0  # atno 17394 bound_to 11000
  140.3970  134.7390  157.4756 LP  0  0  0  0  0  0  0  0  0  0  0  0  # atno 17395 bound_to 11000

$$$$
