AV-unprocessed.smi:72|AV-procd|sdf|692|dock2
  -GOLD-   2262017 03D 1   1.00000     0.00000
 Structure written by MMmdl.
 29 30  0  0  0  0  0  0  0  0  1 V2000
  152.3274  141.0405  159.0854 N   0  0  0  0  0  0  0  0  0  0  0  0
  151.5260  141.1250  158.0850 C   0  0  0  0  0  0  0  0  0  0  0  0
  150.3427  141.8772  158.0538 N   0  0  0  0  0  0  0  0  0  0  0  0
  149.6366  141.8819  156.9655 C   0  0  0  0  0  0  0  0  0  0  0  0
  150.0409  141.1486  155.7717 N   0  0  0  0  0  0  0  0  0  0  0  0
  149.2174  141.1355  154.4937 C   0  0  1  0  0  0  0  0  0  0  0  0
  148.9861  139.8163  154.0878 O   0  0  0  0  0  0  0  0  0  0  0  0
  147.6909  139.4006  154.5116 C   0  0  2  0  0  0  0  0  0  0  0  0
  147.2264  138.1500  153.7458 C   0  0  0  0  0  0  0  0  0  0  0  0
  147.4061  138.3431  152.3592 O   0  0  0  0  0  0  0  0  0  0  0  0
  146.8640  140.6690  154.2830 C   0  0  2  0  0  0  0  0  0  0  0  0
  146.4979  140.7812  152.9171 O   0  0  0  0  0  0  0  0  0  0  0  0
  147.8277  141.7699  154.7259 C   0  0  2  0  0  0  0  0  0  0  0  0
  147.6335  142.9777  154.0140 O   0  0  0  0  0  0  0  0  0  0  0  0
  151.2140  140.3537  155.8051 C   0  0  0  0  0  0  0  0  0  0  0  0
  151.5804  139.6796  154.8425 O   0  0  0  0  0  0  0  0  0  0  0  0
  151.9107  140.3844  156.9611 N   0  0  0  0  0  0  0  0  0  0  0  0
  149.8317  141.6459  153.7496 H   0  0  0  0  0  0  0  0  0  0  0  0
  147.7059  139.1955  155.5838 H   0  0  0  0  0  0  0  0  0  0  0  0
  145.9514  140.6708  154.8801 H   0  0  0  0  0  0  0  0  0  0  0  0
  147.6884  141.9572  155.7919 H   0  0  0  0  0  0  0  0  0  0  0  0
  151.9831  141.5993  159.8530 H   0  0  0  0  0  0  0  0  0  0  0  0
  148.7013  142.4358  156.8873 H   0  0  0  0  0  0  0  0  0  0  0  0
  147.8266  137.2875  154.0368 H   0  0  0  0  0  0  0  0  0  0  0  0
  146.1845  137.9112  153.9615 H   0  0  0  0  0  0  0  0  0  0  0  0
  147.7952  137.5615  151.9974 H   0  0  0  0  0  0  0  0  0  0  0  0
  145.5545  140.8095  152.8655 H   0  0  0  0  0  0  0  0  0  0  0  0
  148.0845  143.6702  154.4735 H   0  0  0  0  0  0  0  0  0  0  0  0
  152.7562  139.8351  157.0139 H   0  0  0  0  0  0  0  0  0  0  0  0
  1  2  2  0  0  0  0
  1 22  1  0  0  0  0
  2 17  1  0  0  0  0
  2  3  1  0  0  0  0
  3  4  2  0  0  0  0
  4  5  1  0  0  0  0
  4 23  1  0  0  0  0
  5  6  1  0  0  0  0
  5 15  1  0  0  0  0
  6 18  1  0  0  0  0
  6 13  1  0  0  0  0
  6  7  1  0  0  0  0
  7  8  1  0  0  0  0
  8 19  1  0  0  0  0
  8  9  1  0  0  0  0
  8 11  1  0  0  0  0
  9 10  1  0  0  0  0
  9 24  1  0  0  0  0
  9 25  1  0  0  0  0
 10 26  1  0  0  0  0
 11 20  1  0  0  0  0
 11 12  1  0  0  0  0
 11 13  1  0  0  0  0
 12 27  1  0  0  0  0
 13 21  1  0  0  0  0
 13 14  1  0  0  0  0
 14 28  1  0  0  0  0
 15 16  2  0  0  0  0
 15 17  1  0  0  0  0
 17 29  1  0  0  0  0
M  END
> <s_m_source_file>
AV-unprocessed.smi

> <i_m_source_file_index>
72

> <i_lp_mmshare_version>
43012

> <i_f3d_flags>
0

> <s_epik_input>
W05IMl1jMW5bY0hdbihjKD1PKW4xKVtDQEBIXTJPW0NASF0oW0NIMl1bT0hdKVtDQEBIXShbT0hdKVtDQEhdMltPSF0=

> <s_epik_cmdline>
J2VwaWtfcHl0aG9uJywgJy1waCcsICc3LjAnLCAnLXRuJywgJzgnLCAnLW1hJywgJzIwMCcsICctbWV0YWxfYmluZGluZycsICctaW1hZScsICc8aW5maWxlLm1hZT4nLCAnLW9tYWUnLCAnPG91dGZpbGUubWFlPic=

> <r_lp_tautomer_probability>
7.17554e-07

> <r_epik_Ionization_Penalty>
0.0066451

> <r_epik_Ionization_Penalty_Charging>
0.00663793

> <r_epik_Ionization_Penalty_Neutral>
7.17052e-06

> <r_epik_State_Penalty>
0.419231

> <r_epik_Charging_Adjusted_Penalty>
0.425868

> <i_epik_Tot_Q>
0

> <i_epik_Tot_abs_Q>
0

> <r_epik_Metal_State_Penalty>
1.44144

> <b_epik_Metal_Only>
0

> <s_epik_Chemistry_Notes>
This compound contains an acetal/aminal-like group ( X-CH(R)-Y where X, Y are N, S, or O) that may be acid/base labile, releasing an aldehyde.

> <s_lp_Force_Field>
OPLS_2005

> <r_lp_Energy>
42.1685

> <b_lp_Chiralities_Consistent>
1

> <s_lp_Variant>
AV-unprocessed.smi:72-30

> <Gold.Version>
5.8.1

> <Gold.Id.Protein>
6NUR|6NUR_protein|mol2

> <Gold.PLP.Fitness>
38.8123

> <Gold.PLP.PLP>
-24.9477

> <Gold.PLP.part.hbond>
-6.8417

> <Gold.PLP.part.metal>
0.0000

> <Gold.PLP.part.buried>
-2.7622

> <Gold.PLP.part.nonpolar>
-16.5769

> <Gold.PLP.part.repulsive>
1.0767

> <Gold.PLP.ligand.clash>
0.0000

> <Gold.PLP.ligand.torsion>
0.2416

> <Gold.PLP.Chemscore.Hbond>
4.0000

> <Gold.PLP.Chemscore.CHOScore>
0.7751

> <Gold.PLP.Chemscore.Metal>
0.0000

> <Gold.Chemscore.Hbonds>
donor molecule, donor type, donor heavy atom, donor atom, acceptor molecule, acceptor atom, score
      L1  H    10    26       P1  7948  1.00
      L1  H    12    27       P1 10175  1.00
      L1  H    14    28       P1  8028  1.00
      P1  H  7989  7998       L1    16  1.00
      L1  C     4    23       P1  8028  0.60

> <Gold.PLP.Chemscore.Internal.Correction>
0.0223

> <Gold.Rescore>
     Score         DG    S(hbond)    S(metal)    S(lipo)     H(rot)  DE(clash)    DE(int)     intcor
      8.12      -9.40       3.79        0.00      13.98       4.06       0.00       1.28       ----

> <Gold.Chemscore.Fitness>
8.1203

> <Gold.Chemscore.DG>
-9.3970

> <Gold.Chemscore.ZeroCoef>
-5.4800

> <Gold.Chemscore.Hbond>
3.7948

> <Gold.Chemscore.Metal>
0.0000

> <Gold.Chemscore.Lipo>
13.9817

> <Gold.Chemscore.Internal_Hbond>
0.0000

> <Gold.Chemscore.DEClash>
0.0000

> <Gold.Chemscore.DEInternal>
1.2767

> <Gold.Chemscore.Rot>
4.0600

> <Gold.Chemscore.Internal.Correction>
   9.000000E+99

> <Gold.Chemscore.Hbonds>
donor molecule, donor type, donor heavy atom, donor atom, acceptor molecule, acceptor atom, score
      L1  H    10    26       P1  7948  0.99
      L1  H    12    27       P1 10175  0.44
      L1  H    14    28       P1  8028  0.78
      P1  H  7989  7998       L1    16  0.44

> <Gold.Chemscore.Hbond.Weighted>
-12.6747

> <Gold.Chemscore.Metal.Weighted>
-0.0000

> <Gold.Chemscore.Lipo.Weighted>
-1.6359

> <Gold.Chemscore.Internal_Hbond.Weighted>
0.0000

> <Gold.Chemscore.DEClash.Weighted>
0.0000

> <Gold.Chemscore.DEInternal.Weighted>
1.2767

> <Gold.Chemscore.Rot.Weighted>
10.3936

> <Gold.Chemscore.Internal.Correction.Weighted>
   9.000000E+99

> <Gold.Protein.RotatedTorsions>
[ 6907 6896 6895 6894 ] final  -55.07 input  -60.11 | X-H torsion
[ 7974 7965 7964 7962 ] final -114.79 input  175.53 | X-H torsion
[ 8008 7997 7996 7995 ] final   12.30 input   59.86 | X-H torsion
[ 10167 10162 10161 10158 ] final   81.74 input  -65.29 | X-H torsion
[ 10718 10713 10712 10709 ] final -149.37 input   66.30 | X-H torsion
[ 10763 10752 10751 10750 ] final  -36.16 input  -60.55 | X-H torsion
[ 11005 11000 10999 10996 ] final -138.21 input  -57.11 | X-H torsion

> <Gold.Protein.ActiveResidues>
 VAL166  LYS551  ARG553  GLY616  TRP617  ASP618  TYR619  PRO620  LYS621  CYS622 
 ASP623  PHE694  ASN695  SER759  ASP760  ASP761  ALA762  ILE779  LEU786  VAL792 
 PHE793  MET794  SER795  GLU796  ALA797  LYS798  CYS799  TRP800  GLU811  SER814 

> <Gold.Protein.RotatedAtoms>
  150.8283  134.7525  159.6831 H   0  0  0  0  0  0  0  0  0  0  0  0  # atno 6907 bound_to 6896
  152.4391  134.5623  159.9907 H   0  0  0  0  0  0  0  0  0  0  0  0  # atno 6908 bound_to 6896
  151.5790  133.3342  159.3040 H   0  0  0  0  0  0  0  0  0  0  0  0  # atno 6909 bound_to 6896
  145.1161  140.8641  143.3841 H   0  0  0  0  0  0  0  0  0  0  0  0  # atno 7974 bound_to 7965
  154.8187  140.2880  155.5802 H   0  0  0  0  0  0  0  0  0  0  0  0  # atno 8008 bound_to 7997
  156.2995  140.2554  156.3020 H   0  0  0  0  0  0  0  0  0  0  0  0  # atno 8009 bound_to 7997
  154.9364  140.0382  157.2064 H   0  0  0  0  0  0  0  0  0  0  0  0  # atno 8010 bound_to 7997
  139.9361  144.6120  150.8297 H   0  0  0  0  0  0  0  0  0  0  0  0  # atno 10167 bound_to 10162
  156.4323  130.8081  151.2309 H   0  0  0  0  0  0  0  0  0  0  0  0  # atno 10718 bound_to 10713
  153.8752  135.6827  153.4771 H   0  0  0  0  0  0  0  0  0  0  0  0  # atno 10763 bound_to 10752
  153.1264  135.4717  154.9277 H   0  0  0  0  0  0  0  0  0  0  0  0  # atno 10764 bound_to 10752
  154.7695  135.3234  154.8170 H   0  0  0  0  0  0  0  0  0  0  0  0  # atno 10765 bound_to 10752
  140.8638  134.2136  157.4692 H   0  0  0  0  0  0  0  0  0  0  0  0  # atno 11005 bound_to 11000
  145.0793  139.2972  143.5792 LP  0  0  0  0  0  0  0  0  0  0  0  0  # atno 17320 bound_to 7965
  146.3524  140.0294  142.8652 LP  0  0  0  0  0  0  0  0  0  0  0  0  # atno 17321 bound_to 7965
  140.7624  143.3197  151.2650 LP  0  0  0  0  0  0  0  0  0  0  0  0  # atno 17342 bound_to 10162
  139.6743  143.9966  152.2771 LP  0  0  0  0  0  0  0  0  0  0  0  0  # atno 17343 bound_to 10162
  157.7508  131.0194  150.3667 LP  0  0  0  0  0  0  0  0  0  0  0  0  # atno 17370 bound_to 10713
  156.4007  130.3915  149.6962 LP  0  0  0  0  0  0  0  0  0  0  0  0  # atno 17371 bound_to 10713
  139.8708  134.9742  156.4837 LP  0  0  0  0  0  0  0  0  0  0  0  0  # atno 17394 bound_to 11000
  140.8653  133.8029  155.9307 LP  0  0  0  0  0  0  0  0  0  0  0  0  # atno 17395 bound_to 11000

$$$$
