AV-unprocessed.smi:2899|AV-procd|sdf|11145|dock10
  -GOLD-   2272016 23D 1   1.00000     0.00000
 Structure written by MMmdl.
 30 32  0  0  0  0  0  0  0  0  1 V2000
  152.7527  142.5615  161.4952 C   0  0  0  0  0  0  0  0  0  0  0  0
  152.3146  142.9139  160.0898 C   0  0  0  0  0  0  0  0  0  0  0  0
  152.5333  144.1970  159.5467 C   0  0  0  0  0  0  0  0  0  0  0  0
  152.0784  144.3985  158.2279 C   0  0  0  0  0  0  0  0  0  0  0  0
  151.4668  143.4178  157.5279 N   0  0  0  0  0  0  0  0  0  0  0  0
  151.3098  142.2414  158.1402 C   0  0  0  0  0  0  0  0  0  0  0  0
  150.6776  141.2639  157.3940 N   0  0  0  0  0  0  0  0  0  0  0  0
  150.7254  141.1708  155.9393 C   0  0  2  0  0  0  0  0  0  0  0  0
  149.3580  141.3578  155.2781 C   0  0  0  0  0  0  0  0  0  0  0  0
  149.2584  140.1004  154.4020 C   0  0  2  0  0  0  0  0  0  0  0  0
  148.9617  138.8515  155.2421 C   0  0  0  0  0  0  0  0  0  0  0  0
  150.2994  138.6256  155.9442 C   0  0  0  0  0  0  0  0  0  0  0  0
  151.1459  139.7893  155.4002 C   0  0  1  0  0  0  0  0  0  0  0  0
  150.6231  139.8800  154.0855 O   0  0  0  0  0  0  0  0  0  0  0  0
  151.7028  141.9382  159.3834 N   0  0  0  0  0  0  0  0  0  0  0  0
  153.2842  143.3912  161.9620 H   0  0  0  0  0  0  0  0  0  0  0  0
  153.4170  141.6970  161.4802 H   0  0  0  0  0  0  0  0  0  0  0  0
  151.8870  142.3200  162.1126 H   0  0  0  0  0  0  0  0  0  0  0  0
  153.0210  144.9825  160.1047 H   0  0  0  0  0  0  0  0  0  0  0  0
  152.2055  145.3496  157.7324 H   0  0  0  0  0  0  0  0  0  0  0  0
  150.2471  140.5061  157.9033 H   0  0  0  0  0  0  0  0  0  0  0  0
  151.4068  141.9321  155.5565 H   0  0  0  0  0  0  0  0  0  0  0  0
  148.5313  141.4273  155.9866 H   0  0  0  0  0  0  0  0  0  0  0  0
  149.3551  142.2609  154.6666 H   0  0  0  0  0  0  0  0  0  0  0  0
  148.6072  140.2148  153.5350 H   0  0  0  0  0  0  0  0  0  0  0  0
  148.1374  139.0055  155.9393 H   0  0  0  0  0  0  0  0  0  0  0  0
  148.7168  138.0018  154.6039 H   0  0  0  0  0  0  0  0  0  0  0  0
  150.2168  138.6278  157.0312 H   0  0  0  0  0  0  0  0  0  0  0  0
  150.7274  137.6691  155.6426 H   0  0  0  0  0  0  0  0  0  0  0  0
  152.2202  139.6071  155.4379 H   0  0  0  0  0  0  0  0  0  0  0  0
  1  2  1  0  0  0  0
  1 16  1  0  0  0  0
  1 17  1  0  0  0  0
  1 18  1  0  0  0  0
  2 15  1  0  0  0  0
  2  3  2  0  0  0  0
  3  4  1  0  0  0  0
  3 19  1  0  0  0  0
  4  5  2  0  0  0  0
  4 20  1  0  0  0  0
  5  6  1  0  0  0  0
  6  7  1  0  0  0  0
  6 15  2  0  0  0  0
  7  8  1  0  0  0  0
  7 21  1  0  0  0  0
  8 13  1  0  0  0  0
  8  9  1  0  0  0  0
  8 22  1  0  0  0  0
  9 10  1  0  0  0  0
  9 23  1  0  0  0  0
  9 24  1  0  0  0  0
 10 14  1  0  0  0  0
 10 11  1  0  0  0  0
 10 25  1  0  0  0  0
 11 12  1  0  0  0  0
 11 26  1  0  0  0  0
 11 27  1  0  0  0  0
 12 13  1  0  0  0  0
 12 28  1  0  0  0  0
 12 29  1  0  0  0  0
 13 14  1  0  0  0  0
 13 30  1  0  0  0  0
M  END
> <s_m_source_file>
AV-unprocessed.smi

> <i_m_source_file_index>
2899

> <i_lp_mmshare_version>
43012

> <i_f3d_flags>
0

> <s_epik_input>
W0NIM11jMVtjSF1bY0hdbmMobjEpW05IXVtDQEhdKFtDSDJdW0NAQEhdMjMpW0NAQEhdKE8zKVtDSDJdW0NIMl0y

> <s_epik_cmdline>
J2VwaWtfcHl0aG9uJywgJy1waCcsICc3LjAnLCAnLXRuJywgJzgnLCAnLW1hJywgJzIwMCcsICctbWV0YWxfYmluZGluZycsICctaW1hZScsICc8aW5maWxlLm1hZT4nLCAnLW9tYWUnLCAnPG91dGZpbGUubWFlPic=

> <r_lp_tautomer_probability>
1

> <r_epik_Ionization_Penalty>
0.00589655

> <r_epik_Ionization_Penalty_Charging>
0

> <r_epik_Ionization_Penalty_Neutral>
0.00589655

> <r_epik_State_Penalty>
0.00375391

> <r_epik_Charging_Adjusted_Penalty>
0.00375391

> <i_epik_Tot_Q>
0

> <i_epik_Tot_abs_Q>
0

> <r_epik_Metal_State_Penalty>
-0

> <b_epik_Metal_Only>
0

> <s_lp_Force_Field>
OPLS_2005

> <r_lp_Energy>
31.8412

> <b_lp_Chiralities_Consistent>
1

> <s_lp_Variant>
AV-unprocessed.smi:2899-3

> <Gold.Version>
5.8.1

> <Gold.Id.Protein>
6NUR|6NUR_protein|mol2

> <Gold.PLP.Fitness>
35.7413

> <Gold.PLP.PLP>
-33.1725

> <Gold.PLP.part.hbond>
-0.9950

> <Gold.PLP.part.metal>
0.0000

> <Gold.PLP.part.buried>
-3.7088

> <Gold.PLP.part.nonpolar>
-28.9338

> <Gold.PLP.part.repulsive>
0.3170

> <Gold.PLP.ligand.clash>
0.0000

> <Gold.PLP.ligand.torsion>
0.2199

> <Gold.PLP.Chemscore.Hbond>
1.0000

> <Gold.PLP.Chemscore.CHOScore>
0.0000

> <Gold.PLP.Chemscore.Metal>
0.0000

> <Gold.Chemscore.Hbonds>
donor molecule, donor type, donor heavy atom, donor atom, acceptor molecule, acceptor atom, score
      P1  H  7989  7998       L1    14  0.99

> <Gold.PLP.Chemscore.Internal.Correction>
0.0086

> <Gold.Rescore>
     Score         DG    S(hbond)    S(metal)    S(lipo)     H(rot)  DE(clash)    DE(int)     intcor
     15.71     -15.89       0.92        0.00      84.57       1.00       0.01       0.18       ----

> <Gold.Chemscore.Fitness>
15.7084

> <Gold.Chemscore.DG>
-15.8948

> <Gold.Chemscore.ZeroCoef>
-5.4800

> <Gold.Chemscore.Hbond>
0.9221

> <Gold.Chemscore.Metal>
0.0000

> <Gold.Chemscore.Lipo>
84.5722

> <Gold.Chemscore.Internal_Hbond>
0.0000

> <Gold.Chemscore.DEClash>
0.0073

> <Gold.Chemscore.DEInternal>
0.1790

> <Gold.Chemscore.Rot>
1.0000

> <Gold.Chemscore.Internal.Correction>
   9.000000E+99

> <Gold.Chemscore.Hbonds>
donor molecule, donor type, donor heavy atom, donor atom, acceptor molecule, acceptor atom, score
      P1  H  7989  7998       L1    14  0.24

> <Gold.Chemscore.Hbond.Weighted>
-3.0799

> <Gold.Chemscore.Metal.Weighted>
-0.0000

> <Gold.Chemscore.Lipo.Weighted>
-9.8949

> <Gold.Chemscore.Internal_Hbond.Weighted>
0.0000

> <Gold.Chemscore.DEClash.Weighted>
0.0073

> <Gold.Chemscore.DEInternal.Weighted>
0.1790

> <Gold.Chemscore.Rot.Weighted>
2.5600

> <Gold.Chemscore.Internal.Correction.Weighted>
   9.000000E+99

> <Gold.Protein.RotatedTorsions>
[ 6907 6896 6895 6894 ] final   -2.21 input  -60.11 | X-H torsion
[ 7974 7965 7964 7962 ] final  127.12 input  175.53 | X-H torsion
[ 8008 7997 7996 7995 ] final   92.21 input   59.86 | X-H torsion
[ 10167 10162 10161 10158 ] final  -96.25 input  -65.29 | X-H torsion
[ 10718 10713 10712 10709 ] final  -18.88 input   66.30 | X-H torsion
[ 10763 10752 10751 10750 ] final   84.76 input  -60.55 | X-H torsion
[ 11005 11000 10999 10996 ] final   11.07 input  -57.11 | X-H torsion

> <Gold.Protein.ActiveResidues>
 VAL166  LYS551  ARG553  GLY616  TRP617  ASP618  TYR619  PRO620  LYS621  CYS622 
 ASP623  PHE694  ASN695  SER759  ASP760  ASP761  ALA762  ILE779  LEU786  VAL792 
 PHE793  MET794  SER795  GLU796  ALA797  LYS798  CYS799  TRP800  GLU811  SER814 

> <Gold.Protein.RotatedAtoms>
  151.5335  135.1068  159.9908 H   0  0  0  0  0  0  0  0  0  0  0  0  # atno 6907 bound_to 6896
  152.4568  133.7735  159.6822 H   0  0  0  0  0  0  0  0  0  0  0  0  # atno 6908 bound_to 6896
  150.8514  133.7716  159.3049 H   0  0  0  0  0  0  0  0  0  0  0  0  # atno 6909 bound_to 6896
  145.0541  139.3858  143.5039 H   0  0  0  0  0  0  0  0  0  0  0  0  # atno 7974 bound_to 7965
  156.0327  140.3328  155.7157 H   0  0  0  0  0  0  0  0  0  0  0  0  # atno 8008 bound_to 7997
  155.5861  140.0641  157.2788 H   0  0  0  0  0  0  0  0  0  0  0  0  # atno 8009 bound_to 7997
  154.4360  140.1835  156.1014 H   0  0  0  0  0  0  0  0  0  0  0  0  # atno 8010 bound_to 7997
  140.2957  143.3193  152.0300 H   0  0  0  0  0  0  0  0  0  0  0  0  # atno 10167 bound_to 10162
  156.5534  130.4707  149.6441 H   0  0  0  0  0  0  0  0  0  0  0  0  # atno 10718 bound_to 10713
  153.1411  135.4642  154.9497 H   0  0  0  0  0  0  0  0  0  0  0  0  # atno 10763 bound_to 10752
  154.7748  135.3170  154.8118 H   0  0  0  0  0  0  0  0  0  0  0  0  # atno 10764 bound_to 10752
  153.8640  135.6910  153.4834 H   0  0  0  0  0  0  0  0  0  0  0  0  # atno 10765 bound_to 10752
  140.5073  134.0686  155.7809 H   0  0  0  0  0  0  0  0  0  0  0  0  # atno 11005 bound_to 11000
  146.3520  140.0206  142.8659 LP  0  0  0  0  0  0  0  0  0  0  0  0  # atno 17320 bound_to 7965
  145.1490  140.9613  143.4444 LP  0  0  0  0  0  0  0  0  0  0  0  0  # atno 17321 bound_to 7965
  139.4927  144.6492  151.6712 LP  0  0  0  0  0  0  0  0  0  0  0  0  # atno 17342 bound_to 10162
  140.5694  144.0135  150.6209 LP  0  0  0  0  0  0  0  0  0  0  0  0  # atno 17343 bound_to 10162
  156.2864  130.7100  151.1937 LP  0  0  0  0  0  0  0  0  0  0  0  0  # atno 17370 bound_to 10713
  157.7383  131.0542  150.5303 LP  0  0  0  0  0  0  0  0  0  0  0  0  # atno 17371 bound_to 10713
  141.1404  133.9148  157.2339 LP  0  0  0  0  0  0  0  0  0  0  0  0  # atno 17394 bound_to 11000
  139.9679  135.0137  156.9434 LP  0  0  0  0  0  0  0  0  0  0  0  0  # atno 17395 bound_to 11000

$$$$
