AV-unprocessed.smi:635|AV-procd|sdf|3139|dock1
  -GOLD-   22720 0 63D 1   1.00000     0.00000
 Structure written by MMmdl.
 37 38  0  0  0  0  0  0  0  0  1 V2000
  146.1950  137.5258  150.7971 C   0  0  0  0  0  0  0  0  0  0  0  0
  146.6434  138.9101  151.2782 C   0  0  0  0  0  0  0  0  0  0  0  0
  146.9821  138.9333  152.7767 C   0  0  0  0  0  0  0  0  0  0  0  0
  146.9975  140.3492  153.3665 C   0  0  0  0  0  0  0  0  0  0  0  0
  148.3447  140.7405  153.6048 O   0  0  0  0  0  0  0  0  0  0  0  0
  148.5021  141.8314  154.5078 C   0  0  0  0  0  0  0  0  0  0  0  0
  149.7167  141.6326  155.4214 C   0  0  0  0  0  0  0  0  0  0  0  0
  150.5739  140.8056  155.1123 O   0  0  0  0  0  0  0  0  0  0  0  0
  149.7489  142.3933  156.5318 N   0  0  0  0  0  0  0  0  0  0  0  0
  150.7320  142.4116  157.5550 C   0  0  0  0  0  0  0  0  0  0  0  0
  151.0615  143.6891  158.0540 C   0  0  0  0  0  0  0  0  0  0  0  0
  152.0244  143.7786  159.0735 C   0  0  0  0  0  0  0  0  0  0  0  0
  152.5992  142.5777  159.5293 C   0  0  0  0  0  0  0  0  0  0  0  0
  153.6241  142.5424  160.6198 C   0  0  0  0  0  0  0  0  0  0  0  0
  154.2456  141.2399  161.0732 C   0  0  0  0  0  0  0  0  0  0  0  0
  153.2878  141.9730  161.9791 C   0  0  0  0  0  0  0  0  0  0  0  0
  152.2449  141.3756  159.0232 N   0  0  0  0  0  0  0  0  0  0  0  0
  151.3301  141.2976  158.0513 N   0  0  0  0  0  0  0  0  0  0  0  0
  145.9650  137.5410  149.7316 H   0  0  0  0  0  0  0  0  0  0  0  0
  145.3006  137.1956  151.3262 H   0  0  0  0  0  0  0  0  0  0  0  0
  146.9750  136.7811  150.9584 H   0  0  0  0  0  0  0  0  0  0  0  0
  147.5124  139.2245  150.6992 H   0  0  0  0  0  0  0  0  0  0  0  0
  145.8558  139.6349  151.0696 H   0  0  0  0  0  0  0  0  0  0  0  0
  146.2488  138.3337  153.3171 H   0  0  0  0  0  0  0  0  0  0  0  0
  147.9498  138.4594  152.9457 H   0  0  0  0  0  0  0  0  0  0  0  0
  146.5146  141.0477  152.6817 H   0  0  0  0  0  0  0  0  0  0  0  0
  146.4258  140.3577  154.2951 H   0  0  0  0  0  0  0  0  0  0  0  0
  148.6570  142.7405  153.9264 H   0  0  0  0  0  0  0  0  0  0  0  0
  147.5949  141.9807  155.0958 H   0  0  0  0  0  0  0  0  0  0  0  0
  148.9832  143.0407  156.6494 H   0  0  0  0  0  0  0  0  0  0  0  0
  150.5889  144.5806  157.6680 H   0  0  0  0  0  0  0  0  0  0  0  0
  152.3083  144.7336  159.4903 H   0  0  0  0  0  0  0  0  0  0  0  0
  154.2653  143.4210  160.5824 H   0  0  0  0  0  0  0  0  0  0  0  0
  153.8913  140.3149  160.6227 H   0  0  0  0  0  0  0  0  0  0  0  0
  155.2954  141.2496  161.3594 H   0  0  0  0  0  0  0  0  0  0  0  0
  153.7125  142.4623  162.8532 H   0  0  0  0  0  0  0  0  0  0  0  0
  152.3000  141.5377  162.1184 H   0  0  0  0  0  0  0  0  0  0  0  0
  1  2  1  0  0  0  0
  1 19  1  0  0  0  0
  1 20  1  0  0  0  0
  1 21  1  0  0  0  0
  2  3  1  0  0  0  0
  2 22  1  0  0  0  0
  2 23  1  0  0  0  0
  3  4  1  0  0  0  0
  3 24  1  0  0  0  0
  3 25  1  0  0  0  0
  4  5  1  0  0  0  0
  4 26  1  0  0  0  0
  4 27  1  0  0  0  0
  5  6  1  0  0  0  0
  6  7  1  0  0  0  0
  6 28  1  0  0  0  0
  6 29  1  0  0  0  0
  7  8  2  0  0  0  0
  7  9  1  0  0  0  0
  9 10  1  0  0  0  0
  9 30  1  0  0  0  0
 10 18  1  0  0  0  0
 10 11  2  0  0  0  0
 11 12  1  0  0  0  0
 11 31  1  0  0  0  0
 12 13  2  0  0  0  0
 12 32  1  0  0  0  0
 13 14  1  0  0  0  0
 13 17  1  0  0  0  0
 14 16  1  0  0  0  0
 14 15  1  0  0  0  0
 14 33  1  0  0  0  0
 15 16  1  0  0  0  0
 15 34  1  0  0  0  0
 15 35  1  0  0  0  0
 16 36  1  0  0  0  0
 16 37  1  0  0  0  0
 17 18  2  0  0  0  0
M  END
> <s_m_source_file>
AV-unprocessed.smi

> <i_m_source_file_index>
635

> <i_lp_mmshare_version>
43012

> <i_f3d_flags>
0

> <s_epik_input>
W0NIM11bQ0gyXVtDSDJdW0NIMl1PW0NIMl1DKD1PKVtOSF1jMVtjSF1bY0hdYyhubjEpW0NIXTJbQ0gyXVtDSDJdMg==

> <s_epik_cmdline>
J2VwaWtfcHl0aG9uJywgJy1waCcsICc3LjAnLCAnLXRuJywgJzgnLCAnLW1hJywgJzIwMCcsICctbWV0YWxfYmluZGluZycsICctaW1hZScsICc8aW5maWxlLm1hZT4nLCAnLW9tYWUnLCAnPG91dGZpbGUubWFlPic=

> <r_lp_tautomer_probability>
1

> <r_epik_Ionization_Penalty>
0.00559584

> <r_epik_Ionization_Penalty_Charging>
0

> <r_epik_Ionization_Penalty_Neutral>
0.00559584

> <r_epik_State_Penalty>
-0

> <r_epik_Charging_Adjusted_Penalty>
0

> <i_epik_Tot_Q>
0

> <i_epik_Tot_abs_Q>
0

> <r_epik_Metal_State_Penalty>
-0

> <b_epik_Metal_Only>
0

> <s_lp_Force_Field>
OPLS_2005

> <r_lp_Energy>
16.6483

> <b_lp_Chiralities_Consistent>
1

> <s_lp_Variant>
AV-unprocessed.smi:635-1

> <Gold.Version>
5.8.1

> <Gold.Id.Protein>
6NUR|6NUR_protein|mol2

> <Gold.PLP.Fitness>
44.6390

> <Gold.PLP.PLP>
-41.1037

> <Gold.PLP.part.hbond>
-2.0000

> <Gold.PLP.part.metal>
0.0000

> <Gold.PLP.part.buried>
0.9714

> <Gold.PLP.part.nonpolar>
-42.4878

> <Gold.PLP.part.repulsive>
2.9252

> <Gold.PLP.ligand.clash>
0.0000

> <Gold.PLP.ligand.torsion>
1.3950

> <Gold.PLP.Chemscore.Hbond>
2.0000

> <Gold.PLP.Chemscore.CHOScore>
0.0000

> <Gold.PLP.Chemscore.Metal>
0.0000

> <Gold.Chemscore.Hbonds>
donor molecule, donor type, donor heavy atom, donor atom, acceptor molecule, acceptor atom, score
      L1  H     9    30       P1  8028  0.45
      P1  H  7989  7998       L1     8  0.83

> <Gold.PLP.Chemscore.Internal.Correction>
0.3254

> <Gold.Rescore>
     Score         DG    S(hbond)    S(metal)    S(lipo)     H(rot)  DE(clash)    DE(int)     intcor
     14.03     -17.51       1.44        0.00     101.54       1.82       0.95       2.52       ----

> <Gold.Chemscore.Fitness>
14.0348

> <Gold.Chemscore.DG>
-17.5091

> <Gold.Chemscore.ZeroCoef>
-5.4800

> <Gold.Chemscore.Hbond>
1.4358

> <Gold.Chemscore.Metal>
0.0000

> <Gold.Chemscore.Lipo>
101.5439

> <Gold.Chemscore.Internal_Hbond>
0.0000

> <Gold.Chemscore.DEClash>
0.9525

> <Gold.Chemscore.DEInternal>
2.5218

> <Gold.Chemscore.Rot>
1.8153

> <Gold.Chemscore.Internal.Correction>
   9.000000E+99

> <Gold.Chemscore.Hbonds>
donor molecule, donor type, donor heavy atom, donor atom, acceptor molecule, acceptor atom, score
      L1  H     9    30       P1  8028  0.44
      P1  H  7989  7998       L1     8  0.82

> <Gold.Chemscore.Hbond.Weighted>
-4.7957

> <Gold.Chemscore.Metal.Weighted>
-0.0000

> <Gold.Chemscore.Lipo.Weighted>
-11.8806

> <Gold.Chemscore.Internal_Hbond.Weighted>
0.0000

> <Gold.Chemscore.DEClash.Weighted>
0.9525

> <Gold.Chemscore.DEInternal.Weighted>
2.5218

> <Gold.Chemscore.Rot.Weighted>
4.6472

> <Gold.Chemscore.Internal.Correction.Weighted>
   9.000000E+99

> <Gold.Protein.RotatedTorsions>
[ 6907 6896 6895 6894 ] final   92.20 input  -60.11 | X-H torsion
[ 7974 7965 7964 7962 ] final  -76.61 input  175.53 | X-H torsion
[ 8008 7997 7996 7995 ] final  -51.01 input   59.86 | X-H torsion
[ 10167 10162 10161 10158 ] final  -56.97 input  -65.29 | X-H torsion
[ 10718 10713 10712 10709 ] final   82.82 input   66.30 | X-H torsion
[ 10763 10752 10751 10750 ] final -164.93 input  -60.55 | X-H torsion
[ 11005 11000 10999 10996 ] final  147.34 input  -57.11 | X-H torsion

> <Gold.Protein.ActiveResidues>
 VAL166  LYS551  ARG553  GLY616  TRP617  ASP618  TYR619  PRO620  LYS621  CYS622 
 ASP623  PHE694  ASN695  SER759  ASP760  ASP761  ALA762  ILE779  LEU786  VAL792 
 PHE793  MET794  SER795  GLU796  ALA797  LYS798  CYS799  TRP800  GLU811  SER814 

> <Gold.Protein.RotatedAtoms>
  152.5452  134.1539  159.8529 H   0  0  0  0  0  0  0  0  0  0  0  0  # atno 6907 bound_to 6896
  151.1563  133.4867  159.2602 H   0  0  0  0  0  0  0  0  0  0  0  0  # atno 6908 bound_to 6896
  151.1419  135.0195  159.8684 H   0  0  0  0  0  0  0  0  0  0  0  0  # atno 6909 bound_to 6896
  145.6106  140.9387  143.1191 H   0  0  0  0  0  0  0  0  0  0  0  0  # atno 7974 bound_to 7965
  154.4074  140.1258  156.4759 H   0  0  0  0  0  0  0  0  0  0  0  0  # atno 8008 bound_to 7997
  155.7133  140.3493  155.4964 H   0  0  0  0  0  0  0  0  0  0  0  0  # atno 8009 bound_to 7997
  155.9280  140.1064  157.1144 H   0  0  0  0  0  0  0  0  0  0  0  0  # atno 8010 bound_to 7997
  140.6285  143.2449  151.5301 H   0  0  0  0  0  0  0  0  0  0  0  0  # atno 10167 bound_to 10162
  157.6866  131.0064  150.2431 H   0  0  0  0  0  0  0  0  0  0  0  0  # atno 10718 bound_to 10713
  154.6981  135.2983  154.9382 H   0  0  0  0  0  0  0  0  0  0  0  0  # atno 10763 bound_to 10752
  154.0323  135.6668  153.4786 H   0  0  0  0  0  0  0  0  0  0  0  0  # atno 10764 bound_to 10752
  153.0661  135.5087  154.8110 H   0  0  0  0  0  0  0  0  0  0  0  0  # atno 10765 bound_to 10752
  140.0868  134.9065  157.1588 H   0  0  0  0  0  0  0  0  0  0  0  0  # atno 11005 bound_to 11000
  144.7271  139.7840  143.7361 LP  0  0  0  0  0  0  0  0  0  0  0  0  # atno 17320 bound_to 7965
  146.1507  139.4590  143.0050 LP  0  0  0  0  0  0  0  0  0  0  0  0  # atno 17321 bound_to 7965
  139.5502  144.2414  152.1517 LP  0  0  0  0  0  0  0  0  0  0  0  0  # atno 17342 bound_to 10162
  140.1652  144.4988  150.6610 LP  0  0  0  0  0  0  0  0  0  0  0  0  # atno 17343 bound_to 10162
  156.3042  130.3762  149.7722 LP  0  0  0  0  0  0  0  0  0  0  0  0  # atno 17370 bound_to 10713
  156.5342  130.8271  151.3247 LP  0  0  0  0  0  0  0  0  0  0  0  0  # atno 17371 bound_to 10713
  140.3409  134.2705  155.7212 LP  0  0  0  0  0  0  0  0  0  0  0  0  # atno 17394 bound_to 11000
  141.2065  133.7831  157.0173 LP  0  0  0  0  0  0  0  0  0  0  0  0  # atno 17395 bound_to 11000

$$$$
