AV-unprocessed.smi:290|AV-procd|sdf|2221|dock2
  -GOLD-   2262022 63D 1   1.00000     0.00000
 Structure written by MMmdl.
 59 62  0  0  0  0  0  0  0  0  2 V2000
  148.3430  140.7226  157.5818 C   0  0  0  0  0  0  0  0  0  0  0  0
  149.7852  141.2016  157.8192 C   0  0  2  0  0  0  0  0  0  0  0  0
  149.8062  142.2311  158.8075 O   0  0  0  0  0  0  0  0  0  0  0  0
  150.3664  143.4166  158.2636 C   0  0  0  0  0  0  0  0  0  0  0  0
  151.3202  142.9147  157.1881 C   0  0  0  0  0  0  0  0  0  0  0  0
  150.5549  141.7445  156.5884 C   0  0  2  0  0  0  0  0  0  0  0  0
  149.6614  142.2584  155.6126 O   0  0  0  0  0  0  0  0  0  0  0  0
  151.4884  140.7156  155.9065 C   0  0  0  0  0  0  0  0  0  0  0  0
  150.8338  139.4555  155.5910 N   0  0  0  0  0  0  0  0  0  0  0  0
  150.4375  139.0209  154.3453 C   0  0  0  0  0  0  0  0  0  0  0  0
  149.8709  137.8449  154.3179 N   0  0  0  0  0  0  0  0  0  0  0  0
  149.8817  137.4382  155.6451 C   0  0  0  0  0  0  0  0  0  0  0  0
  149.4380  136.2725  156.3211 C   0  0  0  0  0  0  0  0  0  0  0  0
  148.8617  135.2440  155.6586 N   0  0  0  0  0  0  0  0  0  0  0  0
  149.7827  134.4690  154.8496 C   0  0  0  0  0  0  0  0  0  0  0  0
  148.9119  133.6860  153.8656 C   0  0  0  0  0  0  0  0  0  0  0  0
  147.4981  134.2987  153.9572 C   0  0  2  0  0  0  0  0  0  0  0  0
  146.9079  134.5044  152.5961 N   0  3  1  0  0  0  0  0  0  0  0  0
  146.7650  133.2117  151.8768 C   0  0  0  0  0  0  0  0  0  0  0  0
  145.6578  135.3163  152.5573 C   0  0  0  0  0  0  0  0  0  0  0  0
  145.2633  135.7981  151.1481 C   0  0  0  0  0  0  0  0  0  0  0  0
  146.0344  136.9224  150.7797 O   0  0  0  0  0  0  0  0  0  0  0  0
  147.7118  135.5650  154.8214 C   0  0  1  0  0  0  0  0  0  0  0  0
  146.5064  135.9418  155.7117 C   0  0  0  0  0  0  0  0  0  0  0  0
  149.6174  136.2084  157.6670 N   0  0  0  0  0  0  0  0  0  0  0  0
  150.1994  137.2254  158.3102 C   0  0  0  0  0  0  0  0  0  0  0  0
  150.6690  138.3706  157.8098 N   0  0  0  0  0  0  0  0  0  0  0  0
  150.4861  138.4355  156.4595 C   0  0  0  0  0  0  0  0  0  0  0  0
  146.8594  133.6121  154.5167 H   0  0  0  0  0  0  0  0  0  0  0  0
  147.9746  136.4029  154.1738 H   0  0  0  0  0  0  0  0  0  0  0  0
  148.3021  139.9454  156.8188 H   0  0  0  0  0  0  0  0  0  0  0  0
  147.6953  141.5405  157.2658 H   0  0  0  0  0  0  0  0  0  0  0  0
  147.9215  140.3075  158.4974 H   0  0  0  0  0  0  0  0  0  0  0  0
  150.3518  140.3787  158.2545 H   0  0  0  0  0  0  0  0  0  0  0  0
  149.5712  144.0204  157.8240 H   0  0  0  0  0  0  0  0  0  0  0  0
  150.8662  144.0121  159.0278 H   0  0  0  0  0  0  0  0  0  0  0  0
  151.5914  143.6827  156.4623 H   0  0  0  0  0  0  0  0  0  0  0  0
  152.2387  142.5649  157.6619 H   0  0  0  0  0  0  0  0  0  0  0  0
  149.4376  143.1456  155.8479 H   0  0  0  0  0  0  0  0  0  0  0  0
  151.8976  141.1286  154.9835 H   0  0  0  0  0  0  0  0  0  0  0  0
  152.3447  140.5020  156.5475 H   0  0  0  0  0  0  0  0  0  0  0  0
  150.5802  139.6102  153.4512 H   0  0  0  0  0  0  0  0  0  0  0  0
  150.4715  135.1213  154.3100 H   0  0  0  0  0  0  0  0  0  0  0  0
  150.3746  133.8005  155.4758 H   0  0  0  0  0  0  0  0  0  0  0  0
  149.3365  133.7626  152.8636 H   0  0  0  0  0  0  0  0  0  0  0  0
  148.8842  132.6275  154.1272 H   0  0  0  0  0  0  0  0  0  0  0  0
  145.9326  132.6330  152.2791 H   0  0  0  0  0  0  0  0  0  0  0  0
  147.6635  132.6005  151.9576 H   0  0  0  0  0  0  0  0  0  0  0  0
  146.5983  133.3617  150.8112 H   0  0  0  0  0  0  0  0  0  0  0  0
  144.8414  134.7367  152.9900 H   0  0  0  0  0  0  0  0  0  0  0  0
  145.7731  136.2121  153.1649 H   0  0  0  0  0  0  0  0  0  0  0  0
  145.3573  135.0156  150.3963 H   0  0  0  0  0  0  0  0  0  0  0  0
  144.2139  136.0944  151.1446 H   0  0  0  0  0  0  0  0  0  0  0  0
  145.4543  137.5978  150.4611 H   0  0  0  0  0  0  0  0  0  0  0  0
  145.6001  136.1396  155.1443 H   0  0  0  0  0  0  0  0  0  0  0  0
  146.7146  136.8392  156.2952 H   0  0  0  0  0  0  0  0  0  0  0  0
  146.2761  135.1418  156.4165 H   0  0  0  0  0  0  0  0  0  0  0  0
  150.3051  137.1046  159.3784 H   0  0  0  0  0  0  0  0  0  0  0  0
  147.5915  135.0434  152.0832 H   0  0  0  0  0  0  0  0  0  0  0  0
  1  2  1  0  0  0  0
  1 31  1  0  0  0  0
  1 32  1  0  0  0  0
  1 33  1  0  0  0  0
  2  6  1  0  0  0  0
  2  3  1  0  0  0  0
  2 34  1  0  0  0  0
  3  4  1  0  0  0  0
  4  5  1  0  0  0  0
  4 35  1  0  0  0  0
  4 36  1  0  0  0  0
  5  6  1  0  0  0  0
  5 37  1  0  0  0  0
  5 38  1  0  0  0  0
  6  7  1  0  0  0  0
  6  8  1  0  0  0  0
  7 39  1  0  0  0  0
  8  9  1  0  0  0  0
  8 40  1  0  0  0  0
  8 41  1  0  0  0  0
  9 28  1  0  0  0  0
  9 10  1  0  0  0  0
 10 11  2  0  0  0  0
 10 42  1  0  0  0  0
 11 12  1  0  0  0  0
 12 28  2  0  0  0  0
 12 13  1  0  0  0  0
 13 14  1  0  0  0  0
 13 25  2  0  0  0  0
 14 23  1  0  0  0  0
 14 15  1  0  0  0  0
 15 16  1  0  0  0  0
 15 43  1  0  0  0  0
 15 44  1  0  0  0  0
 16 17  1  0  0  0  0
 16 45  1  0  0  0  0
 16 46  1  0  0  0  0
 17 29  1  0  0  0  0
 17 18  1  0  0  0  0
 17 23  1  0  0  0  0
 18 19  1  0  0  0  0
 18 20  1  0  0  0  0
 18 59  1  0  0  0  0
 19 47  1  0  0  0  0
 19 48  1  0  0  0  0
 19 49  1  0  0  0  0
 20 21  1  0  0  0  0
 20 50  1  0  0  0  0
 20 51  1  0  0  0  0
 21 22  1  0  0  0  0
 21 52  1  0  0  0  0
 21 53  1  0  0  0  0
 22 54  1  0  0  0  0
 23 30  1  0  0  0  0
 23 24  1  0  0  0  0
 24 55  1  0  0  0  0
 24 56  1  0  0  0  0
 24 57  1  0  0  0  0
 25 26  1  0  0  0  0
 26 27  2  0  0  0  0
 26 58  1  0  0  0  0
 27 28  1  0  0  0  0
M  CHG  1  18   1
M  END
> <s_m_source_file>
AV-unprocessed.smi

> <i_m_source_file_index>
290

> <i_lp_mmshare_version>
43012

> <i_f3d_flags>
0

> <s_epik_input>
W0NIMl0xW0NIMl1PW0NAQEhdKFtDSDNdKVtDQEBdMShbT0hdKVtDSDJdbihbY0hdbjIpYyhjMjMpbltjSF1uYzNONFtDSDJdW0NIMl1bQ0BIXShbQ0BIXTRbQ0gzXSlOKFtDSDNdKVtDSDJdW0NIMl1bT0hd

> <s_epik_cmdline>
J2VwaWtfcHl0aG9uJywgJy1waCcsICc3LjAnLCAnLXRuJywgJzgnLCAnLW1hJywgJzIwMCcsICctbWV0YWxfYmluZGluZycsICctaW1hZScsICc8aW5maWxlLm1hZT4nLCAnLW9tYWUnLCAnPG91dGZpbGUubWFlPic=

> <r_lp_tautomer_probability>
1

> <r_epik_Ionization_Penalty>
0.0036983

> <r_epik_Ionization_Penalty_Charging>
0.0032725

> <r_epik_Ionization_Penalty_Neutral>
0.000425798

> <r_epik_State_Penalty>
-0

> <r_epik_Charging_Adjusted_Penalty>
0.0032725

> <i_epik_Tot_Q>
1

> <i_epik_Tot_abs_Q>
1

> <r_epik_Metal_State_Penalty>
-0

> <b_epik_Metal_Only>
0

> <s_lp_Force_Field>
OPLS_2005

> <r_lp_Energy>
65.2566

> <b_lp_Chiralities_Consistent>
1

> <s_lp_Variant>
AV-unprocessed.smi:290-7

> <Gold.Version>
5.8.1

> <Gold.Id.Protein>
6NUR|6NUR_protein|mol2

> <Gold.PLP.Fitness>
51.8043

> <Gold.PLP.PLP>
-37.2176

> <Gold.PLP.part.hbond>
-5.3093

> <Gold.PLP.part.metal>
0.0000

> <Gold.PLP.part.buried>
-2.2747

> <Gold.PLP.part.nonpolar>
-28.1274

> <Gold.PLP.part.repulsive>
0.6903

> <Gold.PLP.ligand.clash>
0.0000

> <Gold.PLP.ligand.torsion>
0.6510

> <Gold.PLP.Chemscore.Hbond>
4.1855

> <Gold.PLP.Chemscore.CHOScore>
1.0000

> <Gold.PLP.Chemscore.Metal>
0.0000

> <Gold.Chemscore.Hbonds>
donor molecule, donor type, donor heavy atom, donor atom, acceptor molecule, acceptor atom, score
      L1  H     7    39       P1  8028  1.00
      L1  H    18    59       P1  7948  2.00
      L1  H    22    54       P1 10171  1.00
      L1  C    10    42       P1  7957  1.00

> <Gold.PLP.Chemscore.Internal.Correction>
0.3321

> <Gold.Rescore>
     Score         DG    S(hbond)    S(metal)    S(lipo)     H(rot)  DE(clash)    DE(int)     intcor
     13.91     -14.42       2.99        0.00      71.37       3.67       0.03       0.48       ----

> <Gold.Chemscore.Fitness>
13.9147

> <Gold.Chemscore.DG>
-14.4237

> <Gold.Chemscore.ZeroCoef>
-5.4800

> <Gold.Chemscore.Hbond>
2.9872

> <Gold.Chemscore.Metal>
0.0000

> <Gold.Chemscore.Lipo>
71.3748

> <Gold.Chemscore.Internal_Hbond>
0.0000

> <Gold.Chemscore.DEClash>
0.0311

> <Gold.Chemscore.DEInternal>
0.4780

> <Gold.Chemscore.Rot>
3.6658

> <Gold.Chemscore.Internal.Correction>
   9.000000E+99

> <Gold.Chemscore.Hbonds>
donor molecule, donor type, donor heavy atom, donor atom, acceptor molecule, acceptor atom, score
      L1  H     7    39       P1  8028  0.99
      L1  H    18    59       P1  7948  0.92
      L1  H    22    54       P1 10171  0.98

> <Gold.Chemscore.Hbond.Weighted>
-9.9773

> <Gold.Chemscore.Metal.Weighted>
-0.0000

> <Gold.Chemscore.Lipo.Weighted>
-8.3509

> <Gold.Chemscore.Internal_Hbond.Weighted>
0.0000

> <Gold.Chemscore.DEClash.Weighted>
0.0311

> <Gold.Chemscore.DEInternal.Weighted>
0.4780

> <Gold.Chemscore.Rot.Weighted>
9.3844

> <Gold.Chemscore.Internal.Correction.Weighted>
   9.000000E+99

> <Gold.Protein.RotatedTorsions>
[ 6907 6896 6895 6894 ] final -168.07 input  -60.11 | X-H torsion
[ 7974 7965 7964 7962 ] final   13.90 input  175.53 | X-H torsion
[ 8008 7997 7996 7995 ] final  108.58 input   59.86 | X-H torsion
[ 10167 10162 10161 10158 ] final  -92.38 input  -65.29 | X-H torsion
[ 10718 10713 10712 10709 ] final  -76.75 input   66.30 | X-H torsion
[ 10763 10752 10751 10750 ] final -178.37 input  -60.55 | X-H torsion
[ 11005 11000 10999 10996 ] final  104.62 input  -57.11 | X-H torsion

> <Gold.Protein.ActiveResidues>
 VAL166  LYS551  ARG553  GLY616  TRP617  ASP618  TYR619  PRO620  LYS621  CYS622 
 ASP623  PHE694  ASN695  SER759  ASP760  ASP761  ALA762  ILE779  LEU786  VAL792 
 PHE793  MET794  SER795  GLU796  ALA797  LYS798  CYS799  TRP800  GLU811  SER814 

> <Gold.Protein.RotatedAtoms>
  151.4697  133.3572  159.2821 H   0  0  0  0  0  0  0  0  0  0  0  0  # atno 6907 bound_to 6896
  150.8969  134.8380  159.7344 H   0  0  0  0  0  0  0  0  0  0  0  0  # atno 6908 bound_to 6896
  152.4856  134.4613  159.9658 H   0  0  0  0  0  0  0  0  0  0  0  0  # atno 6909 bound_to 6896
  146.2318  139.9121  142.8523 H   0  0  0  0  0  0  0  0  0  0  0  0  # atno 7974 bound_to 7965
  156.1914  140.3074  155.9339 H   0  0  0  0  0  0  0  0  0  0  0  0  # atno 8008 bound_to 7997
  155.3166  140.0453  157.3054 H   0  0  0  0  0  0  0  0  0  0  0  0  # atno 8009 bound_to 7997
  154.5456  140.2275  155.8578 H   0  0  0  0  0  0  0  0  0  0  0  0  # atno 8010 bound_to 7997
  140.3354  143.2971  151.9895 H   0  0  0  0  0  0  0  0  0  0  0  0  # atno 10167 bound_to 10162
  156.0165  130.4473  150.3241 H   0  0  0  0  0  0  0  0  0  0  0  0  # atno 10718 bound_to 10713
  154.5485  135.2811  155.1031 H   0  0  0  0  0  0  0  0  0  0  0  0  # atno 10763 bound_to 10752
  154.2486  135.6343  153.5236 H   0  0  0  0  0  0  0  0  0  0  0  0  # atno 10764 bound_to 10752
  152.9997  135.5577  154.6044 H   0  0  0  0  0  0  0  0  0  0  0  0  # atno 10765 bound_to 10752
  139.8794  134.9307  156.5390 H   0  0  0  0  0  0  0  0  0  0  0  0  # atno 11005 bound_to 11000
  145.2219  140.9939  143.4040 LP  0  0  0  0  0  0  0  0  0  0  0  0  # atno 17320 bound_to 7965
  144.9603  139.3987  143.6359 LP  0  0  0  0  0  0  0  0  0  0  0  0  # atno 17321 bound_to 7965
  139.4849  144.6201  151.7272 LP  0  0  0  0  0  0  0  0  0  0  0  0  # atno 17342 bound_to 10162
  140.5359  144.0657  150.6070 LP  0  0  0  0  0  0  0  0  0  0  0  0  # atno 17343 bound_to 10162
  157.1340  131.0279  151.2957 LP  0  0  0  0  0  0  0  0  0  0  0  0  # atno 17370 bound_to 10713
  157.4527  130.7607  149.7165 LP  0  0  0  0  0  0  0  0  0  0  0  0  # atno 17371 bound_to 10713
  140.8324  133.8268  155.8997 LP  0  0  0  0  0  0  0  0  0  0  0  0  # atno 17394 bound_to 11000
  140.9315  134.2015  157.4860 LP  0  0  0  0  0  0  0  0  0  0  0  0  # atno 17395 bound_to 11000

$$$$
