AV-unprocessed.smi:3303|AV-procd|sdf|12666|dock6
  -GOLD-   2272019 03D 1   1.00000     0.00000
 Structure written by MMmdl.
 45 46  0  0  0  0  0  0  0  0  3 V2000
  147.3428  140.0834  153.4450 C   0  0  0  0  0  0  0  0  0  0  0  0
  148.0489  141.3352  153.9962 C   0  0  1  0  0  0  0  0  0  0  0  0
  147.1616  142.5903  153.8641 C   0  0  0  0  0  0  0  0  0  0  0  0
  146.0212  142.5799  154.8184 N   0  3  2  0  0  0  0  0  0  0  0  0
  145.1025  143.7149  154.5570 C   0  0  0  0  0  0  0  0  0  0  0  0
  146.4784  142.4801  156.2372 C   0  0  1  0  0  0  0  0  0  0  0  0
  145.3067  142.4457  157.2379 C   0  0  0  0  0  0  0  0  0  0  0  0
  147.3587  141.2261  156.4354 C   0  0  0  0  0  0  0  0  0  0  0  0
  148.5367  141.1456  155.4480 C   0  0  2  0  0  0  0  0  0  0  0  0
  149.5836  142.1374  155.7919 N   0  3  0  0  0  0  0  0  0  0  0  0
  150.3508  141.8268  157.0149 C   0  0  0  0  0  0  0  0  0  0  0  0
  151.4517  142.8674  157.2595 C   0  0  0  0  0  0  0  0  0  0  0  0
  152.1310  142.6702  158.6012 C   0  0  0  0  0  0  0  0  0  0  0  0
  152.0597  143.6633  159.6014 C   0  0  0  0  0  0  0  0  0  0  0  0
  152.7201  143.4312  160.8238 C   0  0  0  0  0  0  0  0  0  0  0  0
  153.4235  142.2235  160.9961 C   0  0  0  0  0  0  0  0  0  0  0  0
  153.4352  141.2967  159.9349 C   0  0  0  0  0  0  0  0  0  0  0  0
  152.8057  141.5094  158.7587 N   0  0  0  0  0  0  0  0  0  0  0  0
  146.4315  139.8509  153.9962 H   0  0  0  0  0  0  0  0  0  0  0  0
  147.9938  139.2102  153.4974 H   0  0  0  0  0  0  0  0  0  0  0  0
  147.0679  140.2193  152.3986 H   0  0  0  0  0  0  0  0  0  0  0  0
  148.9268  141.4832  153.3649 H   0  0  0  0  0  0  0  0  0  0  0  0
  147.7581  143.4880  154.0338 H   0  0  0  0  0  0  0  0  0  0  0  0
  146.7874  142.6610  152.8416 H   0  0  0  0  0  0  0  0  0  0  0  0
  145.5549  144.6626  154.8519 H   0  0  0  0  0  0  0  0  0  0  0  0
  144.1602  143.5985  155.0912 H   0  0  0  0  0  0  0  0  0  0  0  0
  144.8526  143.7748  153.4971 H   0  0  0  0  0  0  0  0  0  0  0  0
  147.0797  143.3634  156.4584 H   0  0  0  0  0  0  0  0  0  0  0  0
  145.6662  142.2712  158.2526 H   0  0  0  0  0  0  0  0  0  0  0  0
  144.6010  141.6493  156.9982 H   0  0  0  0  0  0  0  0  0  0  0  0
  144.7596  143.3880  157.2623 H   0  0  0  0  0  0  0  0  0  0  0  0
  147.7358  141.1895  157.4586 H   0  0  0  0  0  0  0  0  0  0  0  0
  146.7389  140.3356  156.3210 H   0  0  0  0  0  0  0  0  0  0  0  0
  148.9740  140.1493  155.5365 H   0  0  0  0  0  0  0  0  0  0  0  0
  150.2318  142.2017  155.0200 H   0  0  0  0  0  0  0  0  0  0  0  0
  149.6669  141.7991  157.8647 H   0  0  0  0  0  0  0  0  0  0  0  0
  150.7933  140.8339  156.9209 H   0  0  0  0  0  0  0  0  0  0  0  0
  152.1994  142.8146  156.4668 H   0  0  0  0  0  0  0  0  0  0  0  0
  151.0330  143.8743  157.2208 H   0  0  0  0  0  0  0  0  0  0  0  0
  151.5148  144.5818  159.4396 H   0  0  0  0  0  0  0  0  0  0  0  0
  152.6890  144.1668  161.6142 H   0  0  0  0  0  0  0  0  0  0  0  0
  153.9421  142.0118  161.9195 H   0  0  0  0  0  0  0  0  0  0  0  0
  153.9652  140.3607  160.0319 H   0  0  0  0  0  0  0  0  0  0  0  0
  149.1449  143.0385  155.9187 H   0  0  0  0  0  0  0  0  0  0  0  0
  145.4938  141.7404  154.6227 H   0  0  0  0  0  0  0  0  0  0  0  0
  1  2  1  0  0  0  0
  1 19  1  0  0  0  0
  1 20  1  0  0  0  0
  1 21  1  0  0  0  0
  2  9  1  0  0  0  0
  2  3  1  0  0  0  0
  2 22  1  0  0  0  0
  3  4  1  0  0  0  0
  3 23  1  0  0  0  0
  3 24  1  0  0  0  0
  4  5  1  0  0  0  0
  4  6  1  0  0  0  0
  4 45  1  0  0  0  0
  5 25  1  0  0  0  0
  5 26  1  0  0  0  0
  5 27  1  0  0  0  0
  6  7  1  0  0  0  0
  6  8  1  0  0  0  0
  6 28  1  0  0  0  0
  7 29  1  0  0  0  0
  7 30  1  0  0  0  0
  7 31  1  0  0  0  0
  8  9  1  0  0  0  0
  8 32  1  0  0  0  0
  8 33  1  0  0  0  0
  9 10  1  0  0  0  0
  9 34  1  0  0  0  0
 10 11  1  0  0  0  0
 10 35  1  0  0  0  0
 10 44  1  0  0  0  0
 11 12  1  0  0  0  0
 11 36  1  0  0  0  0
 11 37  1  0  0  0  0
 12 13  1  0  0  0  0
 12 38  1  0  0  0  0
 12 39  1  0  0  0  0
 13 18  1  0  0  0  0
 13 14  2  0  0  0  0
 14 15  1  0  0  0  0
 14 40  1  0  0  0  0
 15 16  2  0  0  0  0
 15 41  1  0  0  0  0
 16 17  1  0  0  0  0
 16 42  1  0  0  0  0
 17 18  2  0  0  0  0
 17 43  1  0  0  0  0
M  CHG  1   4   1
M  CHG  1  10   1
M  END
> <s_m_source_file>
AV-unprocessed.smi

> <i_m_source_file_index>
3303

> <i_lp_mmshare_version>
43012

> <i_f3d_flags>
0

> <s_epik_input>
W0NIM11bQ0BASF0xW0NIMl1OKFtDSDNdKVtDQEBIXShbQ0gzXSlbQ0gyXVtDQEhdMVtOSF1bQ0gyXVtDSDJdYzJbY0hdW2NIXVtjSF1bY0hdbjI=

> <s_epik_cmdline>
J2VwaWtfcHl0aG9uJywgJy1waCcsICc3LjAnLCAnLXRuJywgJzgnLCAnLW1hJywgJzIwMCcsICctbWV0YWxfYmluZGluZycsICctaW1hZScsICc8aW5maWxlLm1hZT4nLCAnLW9tYWUnLCAnPG91dGZpbGUubWFlPic=

> <r_epik_Ionization_Penalty>
0.0769462

> <r_epik_Ionization_Penalty_Charging>
0.0759813

> <r_epik_Ionization_Penalty_Neutral>
0.000964829

> <r_epik_State_Penalty>
0.0654373

> <r_epik_Charging_Adjusted_Penalty>
0.141419

> <i_epik_Tot_Q>
2

> <i_epik_Tot_abs_Q>
2

> <r_epik_Metal_State_Penalty>
0.0656439

> <b_epik_Metal_Only>
0

> <s_lp_Force_Field>
OPLS_2005

> <r_lp_Energy>
35.1377

> <b_lp_Chiralities_Consistent>
1

> <s_lp_Variant>
AV-unprocessed.smi:3303-10

> <Gold.Version>
5.8.1

> <Gold.Id.Protein>
6NUR|6NUR_protein|mol2

> <Gold.PLP.Fitness>
44.9651

> <Gold.PLP.PLP>
-39.1701

> <Gold.PLP.part.hbond>
-1.0000

> <Gold.PLP.part.metal>
0.0000

> <Gold.PLP.part.buried>
-6.0597

> <Gold.PLP.part.nonpolar>
-32.5849

> <Gold.PLP.part.repulsive>
0.1731

> <Gold.PLP.ligand.clash>
0.0000

> <Gold.PLP.ligand.torsion>
0.1131

> <Gold.PLP.Chemscore.Hbond>
2.0000

> <Gold.PLP.Chemscore.CHOScore>
0.0000

> <Gold.PLP.Chemscore.Metal>
0.0000

> <Gold.Chemscore.Hbonds>
donor molecule, donor type, donor heavy atom, donor atom, acceptor molecule, acceptor atom, score
      L1  H    10    44       P1  8028  2.00

> <Gold.PLP.Chemscore.Internal.Correction>
0.0212

> <Gold.Rescore>
     Score         DG    S(hbond)    S(metal)    S(lipo)     H(rot)  DE(clash)    DE(int)     intcor
     18.11     -18.42       0.98        0.00     112.56       1.37       0.20       0.11       ----

> <Gold.Chemscore.Fitness>
18.1100

> <Gold.Chemscore.DG>
-18.4176

> <Gold.Chemscore.ZeroCoef>
-5.4800

> <Gold.Chemscore.Hbond>
0.9839

> <Gold.Chemscore.Metal>
0.0000

> <Gold.Chemscore.Lipo>
112.5624

> <Gold.Chemscore.Internal_Hbond>
0.0000

> <Gold.Chemscore.DEClash>
0.2009

> <Gold.Chemscore.DEInternal>
0.1067

> <Gold.Chemscore.Rot>
1.3744

> <Gold.Chemscore.Internal.Correction>
   9.000000E+99

> <Gold.Chemscore.Hbonds>
donor molecule, donor type, donor heavy atom, donor atom, acceptor molecule, acceptor atom, score
      L1  H    10    44       P1  8028  0.99

> <Gold.Chemscore.Hbond.Weighted>
-3.2862

> <Gold.Chemscore.Metal.Weighted>
-0.0000

> <Gold.Chemscore.Lipo.Weighted>
-13.1698

> <Gold.Chemscore.Internal_Hbond.Weighted>
0.0000

> <Gold.Chemscore.DEClash.Weighted>
0.2009

> <Gold.Chemscore.DEInternal.Weighted>
0.1067

> <Gold.Chemscore.Rot.Weighted>
3.5185

> <Gold.Chemscore.Internal.Correction.Weighted>
   9.000000E+99

> <Gold.Protein.RotatedTorsions>
[ 6907 6896 6895 6894 ] final  -91.60 input  -60.11 | X-H torsion
[ 7974 7965 7964 7962 ] final   -0.29 input  175.53 | X-H torsion
[ 8008 7997 7996 7995 ] final  -97.92 input   59.86 | X-H torsion
[ 10167 10162 10161 10158 ] final  -51.05 input  -65.29 | X-H torsion
[ 10718 10713 10712 10709 ] final  144.25 input   66.30 | X-H torsion
[ 10763 10752 10751 10750 ] final -172.05 input  -60.55 | X-H torsion
[ 11005 11000 10999 10996 ] final  -38.97 input  -57.11 | X-H torsion

> <Gold.Protein.ActiveResidues>
 VAL166  LYS551  ARG553  GLY616  TRP617  ASP618  TYR619  PRO620  LYS621  CYS622 
 ASP623  PHE694  ASN695  SER759  ASP760  ASP761  ALA762  ILE779  LEU786  VAL792 
 PHE793  MET794  SER795  GLU796  ALA797  LYS798  CYS799  TRP800  GLU811  SER814 

> <Gold.Protein.RotatedAtoms>
  150.6894  134.2252  159.4412 H   0  0  0  0  0  0  0  0  0  0  0  0  # atno 6907 bound_to 6896
  152.0206  134.9822  160.0580 H   0  0  0  0  0  0  0  0  0  0  0  0  # atno 6908 bound_to 6896
  152.1401  133.4424  159.4799 H   0  0  0  0  0  0  0  0  0  0  0  0  # atno 6909 bound_to 6896
  146.2428  140.1247  142.8339 H   0  0  0  0  0  0  0  0  0  0  0  0  # atno 7974 bound_to 7965
  154.7942  140.0459  157.1224 H   0  0  0  0  0  0  0  0  0  0  0  0  # atno 8008 bound_to 7997
  154.9554  140.3070  155.5035 H   0  0  0  0  0  0  0  0  0  0  0  0  # atno 8009 bound_to 7997
  156.2954  140.2280  156.4636 H   0  0  0  0  0  0  0  0  0  0  0  0  # atno 8010 bound_to 7997
  140.6607  143.2634  151.4448 H   0  0  0  0  0  0  0  0  0  0  0  0  # atno 10167 bound_to 10162
  157.3594  131.0963  151.0929 H   0  0  0  0  0  0  0  0  0  0  0  0  # atno 10718 bound_to 10713
  154.6236  135.2878  155.0298 H   0  0  0  0  0  0  0  0  0  0  0  0  # atno 10763 bound_to 10752
  154.1484  135.6507  153.4961 H   0  0  0  0  0  0  0  0  0  0  0  0  # atno 10764 bound_to 10752
  153.0247  135.5349  154.7035 H   0  0  0  0  0  0  0  0  0  0  0  0  # atno 10765 bound_to 10752
  141.0067  133.6928  156.2125 H   0  0  0  0  0  0  0  0  0  0  0  0  # atno 11005 bound_to 11000
  145.0376  140.8920  143.5071 LP  0  0  0  0  0  0  0  0  0  0  0  0  # atno 17320 bound_to 7965
  145.1322  139.2624  143.5533 LP  0  0  0  0  0  0  0  0  0  0  0  0  # atno 17321 bound_to 7965
  139.5841  144.1644  152.2006 LP  0  0  0  0  0  0  0  0  0  0  0  0  # atno 17342 bound_to 10162
  140.0979  144.5565  150.7009 LP  0  0  0  0  0  0  0  0  0  0  0  0  # atno 17343 bound_to 10162
  157.2075  130.6422  149.5761 LP  0  0  0  0  0  0  0  0  0  0  0  0  # atno 17370 bound_to 10713
  155.9735  130.4671  150.6312 LP  0  0  0  0  0  0  0  0  0  0  0  0  # atno 17371 bound_to 10713
  140.6800  134.4777  157.5589 LP  0  0  0  0  0  0  0  0  0  0  0  0  # atno 17394 bound_to 11000
  139.9067  134.8433  156.1678 LP  0  0  0  0  0  0  0  0  0  0  0  0  # atno 17395 bound_to 11000

$$$$
