AV-unprocessed.smi:1076|AV-procd|sdf|4700|dock9
  -GOLD-   22720 3223D 1   1.00000     0.00000
 Structure written by MMmdl.
 44 45  0  0  0  0  0  0  0  0  1 V2000
  144.7708  132.1237  149.6837 C   0  0  0  0  0  0  0  0  0  0  0  0
  145.6816  131.9483  150.8644 C   0  0  0  0  0  0  0  0  0  0  0  0
  145.8024  130.8095  151.7106 C   0  0  0  0  0  0  0  0  0  0  0  0
  146.7048  130.9706  152.6643 N   0  0  0  0  0  0  0  0  0  0  0  0
  147.1858  132.2164  152.4664 N   0  0  0  0  0  0  0  0  0  0  0  0
  148.2205  132.7404  153.3415 C   0  0  0  0  0  0  0  0  0  0  0  0
  147.7369  133.9316  154.1937 C   0  0  1  0  0  0  0  0  0  0  0  0
  146.1993  133.9944  154.2250 C   0  0  0  0  0  0  0  0  0  0  0  0
  148.2572  133.7835  155.5489 N   0  0  0  0  0  0  0  0  0  0  0  0
  149.6146  134.3030  155.6712 C   0  0  0  0  0  0  0  0  0  0  0  0
  149.7441  135.6970  155.0224 C   0  0  0  0  0  0  0  0  0  0  0  0
  151.0945  136.4058  155.2524 C   0  0  0  0  0  0  0  0  0  0  0  0
  151.9395  135.8668  155.9693 O   0  0  0  0  0  0  0  0  0  0  0  0
  151.3152  137.6061  154.6632 N   0  0  0  0  0  0  0  0  0  0  0  0
  152.5669  138.3541  154.8160 C   0  0  0  0  0  0  0  0  0  0  0  0
  152.2673  139.6612  155.5703 C   0  0  0  0  0  0  0  0  0  0  0  0
  151.2922  140.4128  154.8524 O   0  0  0  0  0  0  0  0  0  0  0  0
  150.0691  139.7050  154.6678 C   0  0  0  0  0  0  0  0  0  0  0  0
  150.3341  138.3927  153.9073 C   0  0  0  0  0  0  0  0  0  0  0  0
  146.5903  132.8269  151.3830 C   0  0  0  0  0  0  0  0  0  0  0  0
  143.7476  131.8300  149.9177 H   0  0  0  0  0  0  0  0  0  0  0  0
  145.0931  131.5189  148.8361 H   0  0  0  0  0  0  0  0  0  0  0  0
  144.7379  133.1596  149.3459 H   0  0  0  0  0  0  0  0  0  0  0  0
  145.2647  129.8742  151.6580 H   0  0  0  0  0  0  0  0  0  0  0  0
  148.5521  131.9274  153.9889 H   0  0  0  0  0  0  0  0  0  0  0  0
  149.0827  133.0244  152.7360 H   0  0  0  0  0  0  0  0  0  0  0  0
  148.1245  134.8511  153.7524 H   0  0  0  0  0  0  0  0  0  0  0  0
  145.7938  134.0565  153.2149 H   0  0  0  0  0  0  0  0  0  0  0  0
  145.8345  134.8656  154.7681 H   0  0  0  0  0  0  0  0  0  0  0  0
  145.7756  133.1067  154.6964 H   0  0  0  0  0  0  0  0  0  0  0  0
  148.2660  132.8033  155.7924 H   0  0  0  0  0  0  0  0  0  0  0  0
  149.8739  134.3696  156.7283 H   0  0  0  0  0  0  0  0  0  0  0  0
  150.3305  133.6210  155.2129 H   0  0  0  0  0  0  0  0  0  0  0  0
  149.5710  135.5942  153.9503 H   0  0  0  0  0  0  0  0  0  0  0  0
  148.9541  136.3396  155.4124 H   0  0  0  0  0  0  0  0  0  0  0  0
  153.3383  137.7926  155.3442 H   0  0  0  0  0  0  0  0  0  0  0  0
  152.9776  138.5747  153.8297 H   0  0  0  0  0  0  0  0  0  0  0  0
  151.9111  139.4544  156.5808 H   0  0  0  0  0  0  0  0  0  0  0  0
  153.1737  140.2587  155.6663 H   0  0  0  0  0  0  0  0  0  0  0  0
  149.6041  139.5067  155.6347 H   0  0  0  0  0  0  0  0  0  0  0  0
  149.3800  140.3349  154.1051 H   0  0  0  0  0  0  0  0  0  0  0  0
  150.7359  138.6086  152.9165 H   0  0  0  0  0  0  0  0  0  0  0  0
  149.3885  137.8800  153.7412 H   0  0  0  0  0  0  0  0  0  0  0  0
  146.8591  133.8268  151.0746 H   0  0  0  0  0  0  0  0  0  0  0  0
  1  2  1  0  0  0  0
  1 21  1  0  0  0  0
  1 22  1  0  0  0  0
  1 23  1  0  0  0  0
  2 20  2  0  0  0  0
  2  3  1  0  0  0  0
  3  4  2  0  0  0  0
  3 24  1  0  0  0  0
  4  5  1  0  0  0  0
  5  6  1  0  0  0  0
  5 20  1  0  0  0  0
  6  7  1  0  0  0  0
  6 25  1  0  0  0  0
  6 26  1  0  0  0  0
  7  8  1  0  0  0  0
  7  9  1  0  0  0  0
  7 27  1  0  0  0  0
  8 28  1  0  0  0  0
  8 29  1  0  0  0  0
  8 30  1  0  0  0  0
  9 10  1  0  0  0  0
  9 31  1  0  0  0  0
 10 11  1  0  0  0  0
 10 32  1  0  0  0  0
 10 33  1  0  0  0  0
 11 12  1  0  0  0  0
 11 34  1  0  0  0  0
 11 35  1  0  0  0  0
 12 13  2  0  0  0  0
 12 14  1  0  0  0  0
 14 19  1  0  0  0  0
 14 15  1  0  0  0  0
 15 16  1  0  0  0  0
 15 36  1  0  0  0  0
 15 37  1  0  0  0  0
 16 17  1  0  0  0  0
 16 38  1  0  0  0  0
 16 39  1  0  0  0  0
 17 18  1  0  0  0  0
 18 19  1  0  0  0  0
 18 40  1  0  0  0  0
 18 41  1  0  0  0  0
 19 42  1  0  0  0  0
 19 43  1  0  0  0  0
 20 44  1  0  0  0  0
M  END
> <s_m_source_file>
AV-unprocessed.smi

> <i_m_source_file_index>
1076

> <i_lp_mmshare_version>
43012

> <i_f3d_flags>
0

> <s_epik_input>
W0NIM11jMVtjSF1ubihbY0hdMSlbQ0gyXVtDQEhdKFtDSDNdKVtOSF1bQ0gyXVtDSDJdQyg9TylOMltDSDJdW0NIMl1PW0NIMl1bQ0gyXTI=

> <s_epik_cmdline>
J2VwaWtfcHl0aG9uJywgJy1waCcsICc3LjAnLCAnLXRuJywgJzgnLCAnLW1hJywgJzIwMCcsICctbWV0YWxfYmluZGluZycsICctaW1hZScsICc8aW5maWxlLm1hZT4nLCAnLW9tYWUnLCAnPG91dGZpbGUubWFlPic=

> <r_lp_tautomer_probability>
1

> <r_epik_Ionization_Penalty>
2.55707

> <r_epik_Ionization_Penalty_Charging>
0

> <r_epik_Ionization_Penalty_Neutral>
2.55707

> <r_epik_State_Penalty>
2.726

> <r_epik_Charging_Adjusted_Penalty>
2.726

> <i_epik_Tot_Q>
0

> <i_epik_Tot_abs_Q>
0

> <r_epik_Metal_State_Penalty>
2.72594

> <b_epik_Metal_Only>
0

> <s_lp_Force_Field>
OPLS_2005

> <r_lp_Energy>
22.7086

> <b_lp_Chiralities_Consistent>
1

> <s_lp_Variant>
AV-unprocessed.smi:1076-4

> <Gold.Version>
5.8.1

> <Gold.Id.Protein>
6NUR|6NUR_protein|mol2

> <Gold.PLP.Fitness>
42.2830

> <Gold.PLP.PLP>
-38.2086

> <Gold.PLP.part.hbond>
-2.0000

> <Gold.PLP.part.metal>
0.0000

> <Gold.PLP.part.buried>
-3.1656

> <Gold.PLP.part.nonpolar>
-33.4710

> <Gold.PLP.part.repulsive>
0.2218

> <Gold.PLP.ligand.clash>
0.0000

> <Gold.PLP.ligand.torsion>
0.9900

> <Gold.PLP.Chemscore.Hbond>
1.9920

> <Gold.PLP.Chemscore.CHOScore>
0.0000

> <Gold.PLP.Chemscore.Metal>
0.0000

> <Gold.Chemscore.Hbonds>
donor molecule, donor type, donor heavy atom, donor atom, acceptor molecule, acceptor atom, score
      P1  H  7989  7998       L1    17  0.83
      P1  H 10752 10764       L1    13  1.00

> <Gold.PLP.Chemscore.Internal.Correction>
0.0785

> <Gold.Rescore>
     Score         DG    S(hbond)    S(metal)    S(lipo)     H(rot)  DE(clash)    DE(int)     intcor
     15.06     -16.15       1.54        0.00      89.04       1.91       0.08       1.02       ----

> <Gold.Chemscore.Fitness>
15.0575

> <Gold.Chemscore.DG>
-16.1507

> <Gold.Chemscore.ZeroCoef>
-5.4800

> <Gold.Chemscore.Hbond>
1.5394

> <Gold.Chemscore.Metal>
0.0000

> <Gold.Chemscore.Lipo>
89.0439

> <Gold.Chemscore.Internal_Hbond>
0.0000

> <Gold.Chemscore.DEClash>
0.0766

> <Gold.Chemscore.DEInternal>
1.0166

> <Gold.Chemscore.Rot>
1.9098

> <Gold.Chemscore.Internal.Correction>
   9.000000E+99

> <Gold.Chemscore.Hbonds>
donor molecule, donor type, donor heavy atom, donor atom, acceptor molecule, acceptor atom, score
      P1  H  7989  7998       L1    17  0.34
      P1  H 10752 10764       L1    13  0.72

> <Gold.Chemscore.Hbond.Weighted>
-5.1416

> <Gold.Chemscore.Metal.Weighted>
-0.0000

> <Gold.Chemscore.Lipo.Weighted>
-10.4181

> <Gold.Chemscore.Internal_Hbond.Weighted>
0.0000

> <Gold.Chemscore.DEClash.Weighted>
0.0766

> <Gold.Chemscore.DEInternal.Weighted>
1.0166

> <Gold.Chemscore.Rot.Weighted>
4.8891

> <Gold.Chemscore.Internal.Correction.Weighted>
   9.000000E+99

> <Gold.Protein.RotatedTorsions>
[ 6907 6896 6895 6894 ] final  151.69 input  -60.11 | X-H torsion
[ 7974 7965 7964 7962 ] final  -20.09 input  175.53 | X-H torsion
[ 8008 7997 7996 7995 ] final -105.90 input   59.86 | X-H torsion
[ 10167 10162 10161 10158 ] final   80.00 input  -65.29 | X-H torsion
[ 10718 10713 10712 10709 ] final  -15.64 input   66.30 | X-H torsion
[ 10763 10752 10751 10750 ] final  -24.86 input  -60.55 | X-H torsion
[ 11005 11000 10999 10996 ] final -115.35 input  -57.11 | X-H torsion

> <Gold.Protein.ActiveResidues>
 VAL166  LYS551  ARG553  GLY616  TRP617  ASP618  TYR619  PRO620  LYS621  CYS622 
 ASP623  PHE694  ASN695  SER759  ASP760  ASP761  ALA762  ILE779  LEU786  VAL792 
 PHE793  MET794  SER795  GLU796  ALA797  LYS798  CYS799  TRP800  GLU811  SER814 

> <Gold.Protein.RotatedAtoms>
  152.0971  133.4230  159.4570 H   0  0  0  0  0  0  0  0  0  0  0  0  # atno 6907 bound_to 6896
  150.6863  134.2803  159.4634 H   0  0  0  0  0  0  0  0  0  0  0  0  # atno 6908 bound_to 6896
  152.0660  134.9563  160.0625 H   0  0  0  0  0  0  0  0  0  0  0  0  # atno 6909 bound_to 6896
  146.1807  140.4154  142.8496 H   0  0  0  0  0  0  0  0  0  0  0  0  # atno 7974 bound_to 7965
  154.9067  140.0411  157.1923 H   0  0  0  0  0  0  0  0  0  0  0  0  # atno 8008 bound_to 7997
  154.8390  140.2911  155.5651 H   0  0  0  0  0  0  0  0  0  0  0  0  # atno 8009 bound_to 7997
  156.2991  140.2486  156.3328 H   0  0  0  0  0  0  0  0  0  0  0  0  # atno 8010 bound_to 7997
  139.9544  144.6004  150.8131 H   0  0  0  0  0  0  0  0  0  0  0  0  # atno 10167 bound_to 10162
  156.5989  130.4819  149.6248 H   0  0  0  0  0  0  0  0  0  0  0  0  # atno 10718 bound_to 10713
  153.6905  135.6962  153.5091 H   0  0  0  0  0  0  0  0  0  0  0  0  # atno 10763 bound_to 10752
  153.2417  135.4304  155.0704 H   0  0  0  0  0  0  0  0  0  0  0  0  # atno 10764 bound_to 10752
  154.8374  135.3509  154.6446 H   0  0  0  0  0  0  0  0  0  0  0  0  # atno 10765 bound_to 10752
  141.0493  133.9713  157.2864 H   0  0  0  0  0  0  0  0  0  0  0  0  # atno 11005 bound_to 11000
  144.8310  140.6706  143.6291 LP  0  0  0  0  0  0  0  0  0  0  0  0  # atno 17320 bound_to 7965
  145.4085  139.1584  143.4138 LP  0  0  0  0  0  0  0  0  0  0  0  0  # atno 17321 bound_to 7965
  140.7573  143.3083  151.2907 LP  0  0  0  0  0  0  0  0  0  0  0  0  # atno 17342 bound_to 10162
  139.6603  144.0201  152.2688 LP  0  0  0  0  0  0  0  0  0  0  0  0  # atno 17343 bound_to 10162
  156.2486  130.6894  151.1623 LP  0  0  0  0  0  0  0  0  0  0  0  0  # atno 17370 bound_to 10713
  157.7285  131.0631  150.5819 LP  0  0  0  0  0  0  0  0  0  0  0  0  # atno 17371 bound_to 10713
  139.9337  135.0198  156.8486 LP  0  0  0  0  0  0  0  0  0  0  0  0  # atno 17394 bound_to 11000
  140.6086  134.0104  155.7567 LP  0  0  0  0  0  0  0  0  0  0  0  0  # atno 17395 bound_to 11000

$$$$
