AV-unprocessed.smi:2743|AV-procd|sdf|10567|dock6
  -GOLD-   2272015 23D 1   1.00000     0.00000
 Structure written by MMmdl.
 39 40  0  0  0  0  0  0  0  0  2 V2000
  150.2825  133.1328  157.2774 N   0  0  0  0  0  0  0  0  0  0  0  0
  150.1893  133.7759  156.3197 C   0  0  0  0  0  0  0  0  0  0  0  0
  150.0683  134.5904  155.1005 C   0  0  0  0  0  0  0  0  0  0  0  0
  150.7924  135.9245  155.2475 C   0  0  0  0  0  0  0  0  0  0  0  0
  151.6375  136.0722  156.1297 O   0  0  0  0  0  0  0  0  0  0  0  0
  150.4260  136.8961  154.3968 N   0  0  0  0  0  0  0  0  0  0  0  0
  150.8927  138.2825  154.4257 C   0  0  0  0  0  0  0  0  0  0  0  0
  149.9622  139.2146  155.2600 C   0  0  0  0  0  0  0  0  0  0  0  0
  148.6816  139.4965  154.4394 C   0  0  0  0  0  0  0  0  0  0  0  0
  148.3394  140.8298  154.0969 C   0  0  0  0  0  0  0  0  0  0  0  0
  147.1538  141.0958  153.3835 C   0  0  0  0  0  0  0  0  0  0  0  0
  146.3408  140.0801  153.0295 N   0  3  0  0  0  0  0  0  0  0  0  0
  146.6116  138.7941  153.3319 C   0  0  0  0  0  0  0  0  0  0  0  0
  147.7840  138.4694  154.0434 C   0  0  0  0  0  0  0  0  0  0  0  0
  149.5632  138.5151  156.5938 C   0  0  0  0  0  0  0  0  0  0  0  0
  150.7228  138.3348  157.5913 C   0  0  0  0  0  0  0  0  0  0  0  0
  151.4069  139.6689  157.9062 C   0  0  0  0  0  0  0  0  0  0  0  0
  151.8743  140.3554  156.6191 C   0  0  0  0  0  0  0  0  0  0  0  0
  150.7085  140.5362  155.6303 C   0  0  0  0  0  0  0  0  0  0  0  0
  150.4841  134.0257  154.2652 H   0  0  0  0  0  0  0  0  0  0  0  0
  149.0102  134.7544  154.8941 H   0  0  0  0  0  0  0  0  0  0  0  0
  149.7307  136.6713  153.6994 H   0  0  0  0  0  0  0  0  0  0  0  0
  151.9139  138.3300  154.8074 H   0  0  0  0  0  0  0  0  0  0  0  0
  150.9638  138.6161  153.3919 H   0  0  0  0  0  0  0  0  0  0  0  0
  148.9651  141.6585  154.3920 H   0  0  0  0  0  0  0  0  0  0  0  0
  146.8302  142.0855  153.0959 H   0  0  0  0  0  0  0  0  0  0  0  0
  145.8831  138.0664  153.0049 H   0  0  0  0  0  0  0  0  0  0  0  0
  147.9566  137.4316  154.2809 H   0  0  0  0  0  0  0  0  0  0  0  0
  148.7853  139.1035  157.0832 H   0  0  0  0  0  0  0  0  0  0  0  0
  149.1236  137.5358  156.4068 H   0  0  0  0  0  0  0  0  0  0  0  0
  150.3455  137.8924  158.5137 H   0  0  0  0  0  0  0  0  0  0  0  0
  151.4533  137.6285  157.1971 H   0  0  0  0  0  0  0  0  0  0  0  0
  150.7123  140.3207  158.4379 H   0  0  0  0  0  0  0  0  0  0  0  0
  152.2536  139.5074  158.5738 H   0  0  0  0  0  0  0  0  0  0  0  0
  152.3027  141.3286  156.8610 H   0  0  0  0  0  0  0  0  0  0  0  0
  152.6785  139.7803  156.1605 H   0  0  0  0  0  0  0  0  0  0  0  0
  151.0851  141.0370  154.7379 H   0  0  0  0  0  0  0  0  0  0  0  0
  150.0025  141.2279  156.0924 H   0  0  0  0  0  0  0  0  0  0  0  0
  145.4843  140.2936  152.5174 H   0  0  0  0  0  0  0  0  0  0  0  0
  1  2  3  0  0  0  0
  2  3  1  0  0  0  0
  3  4  1  0  0  0  0
  3 20  1  0  0  0  0
  3 21  1  0  0  0  0
  4  5  2  0  0  0  0
  4  6  1  0  0  0  0
  6  7  1  0  0  0  0
  6 22  1  0  0  0  0
  7  8  1  0  0  0  0
  7 23  1  0  0  0  0
  7 24  1  0  0  0  0
  8 19  1  0  0  0  0
  8  9  1  0  0  0  0
  8 15  1  0  0  0  0
  9 14  1  0  0  0  0
  9 10  2  0  0  0  0
 10 11  1  0  0  0  0
 10 25  1  0  0  0  0
 11 12  2  0  0  0  0
 11 26  1  0  0  0  0
 12 13  1  0  0  0  0
 12 39  1  0  0  0  0
 13 14  2  0  0  0  0
 13 27  1  0  0  0  0
 14 28  1  0  0  0  0
 15 16  1  0  0  0  0
 15 29  1  0  0  0  0
 15 30  1  0  0  0  0
 16 17  1  0  0  0  0
 16 31  1  0  0  0  0
 16 32  1  0  0  0  0
 17 18  1  0  0  0  0
 17 33  1  0  0  0  0
 17 34  1  0  0  0  0
 18 19  1  0  0  0  0
 18 35  1  0  0  0  0
 18 36  1  0  0  0  0
 19 37  1  0  0  0  0
 19 38  1  0  0  0  0
M  CHG  1  12   1
M  END
> <s_m_source_file>
AV-unprocessed.smi

> <i_m_source_file_index>
2743

> <i_lp_mmshare_version>
43012

> <i_f3d_flags>
0

> <s_epik_input>
TiNDW0NIMl1DKD1PKVtOSF1bQ0gyXUMxKFtDSDJdW0NIMl1bQ0gyXVtDSDJdW0NIMl0xKWMyW2NIXVtjSF1uW2NIXVtjSF0y

> <s_epik_cmdline>
J2VwaWtfcHl0aG9uJywgJy1waCcsICc3LjAnLCAnLXRuJywgJzgnLCAnLW1hJywgJzIwMCcsICctbWV0YWxfYmluZGluZycsICctaW1hZScsICc8aW5maWxlLm1hZT4nLCAnLW9tYWUnLCAnPG91dGZpbGUubWFlPic=

> <r_epik_Ionization_Penalty>
1.44483

> <r_epik_Ionization_Penalty_Charging>
1.44483

> <r_epik_Ionization_Penalty_Neutral>
8.95364e-07

> <r_epik_State_Penalty>
1.53054

> <r_epik_Charging_Adjusted_Penalty>
2.97537

> <i_epik_Tot_Q>
1

> <i_epik_Tot_abs_Q>
1

> <r_epik_Metal_State_Penalty>
1.58148

> <b_epik_Metal_Only>
0

> <s_lp_Force_Field>
OPLS_2005

> <r_lp_Energy>
24.9332

> <b_lp_Chiralities_Consistent>
1

> <s_lp_Variant>
AV-unprocessed.smi:2743-2

> <Gold.Version>
5.8.1

> <Gold.Id.Protein>
6NUR|6NUR_protein|mol2

> <Gold.PLP.Fitness>
44.5540

> <Gold.PLP.PLP>
-30.8505

> <Gold.PLP.part.hbond>
-4.6342

> <Gold.PLP.part.metal>
0.0000

> <Gold.PLP.part.buried>
-4.6246

> <Gold.PLP.part.nonpolar>
-22.9144

> <Gold.PLP.part.repulsive>
0.0773

> <Gold.PLP.ligand.clash>
0.0000

> <Gold.PLP.ligand.torsion>
0.6464

> <Gold.PLP.Chemscore.Hbond>
4.9913

> <Gold.PLP.Chemscore.CHOScore>
0.0000

> <Gold.PLP.Chemscore.Metal>
0.0000

> <Gold.Chemscore.Hbonds>
donor molecule, donor type, donor heavy atom, donor atom, acceptor molecule, acceptor atom, score
      L1  H     6    22       P1  7948  1.00
      L1  H    12    39       P1 10175  2.00
      P1  H  6896  6909       L1     1  0.81
      P1  H 10752 10763       L1     5  0.98

> <Gold.PLP.Chemscore.Internal.Correction>
0.0226

> <Gold.Rescore>
     Score         DG    S(hbond)    S(metal)    S(lipo)     H(rot)  DE(clash)    DE(int)     intcor
     17.53     -19.37       3.10        0.00      70.81       1.85       0.11       1.74       ----

> <Gold.Chemscore.Fitness>
17.5264

> <Gold.Chemscore.DG>
-19.3687

> <Gold.Chemscore.ZeroCoef>
-5.4800

> <Gold.Chemscore.Hbond>
3.0995

> <Gold.Chemscore.Metal>
0.0000

> <Gold.Chemscore.Lipo>
70.8135

> <Gold.Chemscore.Internal_Hbond>
0.0000

> <Gold.Chemscore.DEClash>
0.1053

> <Gold.Chemscore.DEInternal>
1.7371

> <Gold.Chemscore.Rot>
1.8550

> <Gold.Chemscore.Internal.Correction>
   9.000000E+99

> <Gold.Chemscore.Hbonds>
donor molecule, donor type, donor heavy atom, donor atom, acceptor molecule, acceptor atom, score
      L1  H     6    22       P1  7948  0.52
      L1  H    12    39       P1 10175  0.71
      P1  H  6896  6909       L1     1  0.79
      P1  H 10752 10763       L1     5  0.31

> <Gold.Chemscore.Hbond.Weighted>
-10.3523

> <Gold.Chemscore.Metal.Weighted>
-0.0000

> <Gold.Chemscore.Lipo.Weighted>
-8.2852

> <Gold.Chemscore.Internal_Hbond.Weighted>
0.0000

> <Gold.Chemscore.DEClash.Weighted>
0.1053

> <Gold.Chemscore.DEInternal.Weighted>
1.7371

> <Gold.Chemscore.Rot.Weighted>
4.7488

> <Gold.Chemscore.Internal.Correction.Weighted>
   9.000000E+99

> <Gold.Protein.RotatedTorsions>
[ 6907 6896 6895 6894 ] final  -18.38 input  -60.11 | X-H torsion
[ 7974 7965 7964 7962 ] final   74.61 input  175.53 | X-H torsion
[ 8008 7997 7996 7995 ] final  -40.23 input   59.86 | X-H torsion
[ 10167 10162 10161 10158 ] final  -16.72 input  -65.29 | X-H torsion
[ 10718 10713 10712 10709 ] final  -97.58 input   66.30 | X-H torsion
[ 10763 10752 10751 10750 ] final  106.03 input  -60.55 | X-H torsion
[ 11005 11000 10999 10996 ] final  143.85 input  -57.11 | X-H torsion

> <Gold.Protein.ActiveResidues>
 VAL166  LYS551  ARG553  GLY616  TRP617  ASP618  TYR619  PRO620  LYS621  CYS622 
 ASP623  PHE694  ASN695  SER759  ASP760  ASP761  ALA762  ILE779  LEU786  VAL792 
 PHE793  MET794  SER795  GLU796  ALA797  LYS798  CYS799  TRP800  GLU811  SER814 

> <Gold.Protein.RotatedAtoms>
  151.2791  135.0708  159.9162 H   0  0  0  0  0  0  0  0  0  0  0  0  # atno 6907 bound_to 6896
  152.5337  134.0050  159.7922 H   0  0  0  0  0  0  0  0  0  0  0  0  # atno 6908 bound_to 6896
  151.0301  133.5748  159.2692 H   0  0  0  0  0  0  0  0  0  0  0  0  # atno 6909 bound_to 6896
  145.7261  139.2666  143.1568 H   0  0  0  0  0  0  0  0  0  0  0  0  # atno 7974 bound_to 7965
  154.4014  140.1531  156.2994 H   0  0  0  0  0  0  0  0  0  0  0  0  # atno 8008 bound_to 7997
  155.8714  140.3448  155.5802 H   0  0  0  0  0  0  0  0  0  0  0  0  # atno 8009 bound_to 7997
  155.7770  140.0838  157.2069 H   0  0  0  0  0  0  0  0  0  0  0  0  # atno 8010 bound_to 7997
  140.7237  143.5088  150.9776 H   0  0  0  0  0  0  0  0  0  0  0  0  # atno 10167 bound_to 10162
  156.0087  130.5200  150.6395 H   0  0  0  0  0  0  0  0  0  0  0  0  # atno 10718 bound_to 10713
  153.3875  135.3890  155.1900 H   0  0  0  0  0  0  0  0  0  0  0  0  # atno 10763 bound_to 10752
  154.8715  135.3740  154.4779 H   0  0  0  0  0  0  0  0  0  0  0  0  # atno 10764 bound_to 10752
  153.5263  135.7086  153.5767 H   0  0  0  0  0  0  0  0  0  0  0  0  # atno 10765 bound_to 10752
  140.0586  134.9217  157.1145 H   0  0  0  0  0  0  0  0  0  0  0  0  # atno 11005 bound_to 11000
  146.0581  140.8000  142.9748 LP  0  0  0  0  0  0  0  0  0  0  0  0  # atno 17320 bound_to 7965
  144.6904  140.3154  143.7241 LP  0  0  0  0  0  0  0  0  0  0  0  0  # atno 17321 bound_to 7965
  139.8801  143.7083  152.3158 LP  0  0  0  0  0  0  0  0  0  0  0  0  # atno 17342 bound_to 10162
  139.7362  144.7570  151.0723 LP  0  0  0  0  0  0  0  0  0  0  0  0  # atno 17343 bound_to 10162
  157.4178  131.0832  151.1160 LP  0  0  0  0  0  0  0  0  0  0  0  0  # atno 17370 bound_to 10713
  157.1772  130.6293  149.5660 LP  0  0  0  0  0  0  0  0  0  0  0  0  # atno 17371 bound_to 10713
  140.3805  134.2292  155.7171 LP  0  0  0  0  0  0  0  0  0  0  0  0  # atno 17394 bound_to 11000
  141.1963  133.8085  157.0677 LP  0  0  0  0  0  0  0  0  0  0  0  0  # atno 17395 bound_to 11000

$$$$
