AV-unprocessed.smi:2624|AV-procd|sdf|10233|dock10
  -GOLD-   2272014243D 1   1.00000     0.00000
 Structure written by MMmdl.
 39 40  0  0  0  0  0  0  0  0  1 V2000
  146.4440  138.5101  152.2357 C   0  0  0  0  0  0  0  0  0  0  0  0
  146.5498  139.4411  153.2985 O   0  0  0  0  0  0  0  0  0  0  0  0
  147.2589  140.6106  152.9270 C   0  0  0  0  0  0  0  0  0  0  0  0
  146.7737  141.7811  153.7948 C   0  0  0  0  0  0  0  0  0  0  0  0
  147.3633  141.7347  155.1395 N   0  0  0  0  0  0  0  0  0  0  0  0
  148.7523  141.5161  155.2184 C   0  0  0  0  0  0  0  0  0  0  0  0
  149.4036  141.4608  156.3952 C   0  0  0  0  0  0  0  0  0  0  0  0
  150.8677  141.2315  156.4354 C   0  0  0  0  0  0  0  0  0  0  0  0
  151.4389  140.6112  155.5374 O   0  0  0  0  0  0  0  0  0  0  0  0
  151.6380  141.7515  157.6029 C   0  0  0  0  0  0  0  0  0  0  0  0
  152.2782  140.8123  158.4429 C   0  0  0  0  0  0  0  0  0  0  0  0
  153.0102  141.2337  159.5710 C   0  0  0  0  0  0  0  0  0  0  0  0
  153.6771  140.2096  160.4657 C   0  0  0  0  0  0  0  0  0  0  0  0
  153.1116  142.6072  159.8647 C   0  0  0  0  0  0  0  0  0  0  0  0
  152.4926  143.5529  159.0270 C   0  0  0  0  0  0  0  0  0  0  0  0
  151.7618  143.1366  157.8961 C   0  0  0  0  0  0  0  0  0  0  0  0
  151.2133  144.0991  157.0941 O   0  0  0  0  0  0  0  0  0  0  0  0
  148.6218  141.6173  157.6061 C   0  0  0  0  0  0  0  0  0  0  0  0
  147.2909  141.8178  157.5374 C   0  0  0  0  0  0  0  0  0  0  0  0
  146.5032  141.9713  158.7155 C   0  0  0  0  0  0  0  0  0  0  0  0
  145.8758  142.0760  159.6825 N   0  0  0  0  0  0  0  0  0  0  0  0
  146.5815  141.8837  156.2519 C   0  0  0  0  0  0  0  0  0  0  0  0
  145.3642  142.0573  156.1726 O   0  0  0  0  0  0  0  0  0  0  0  0
  145.8888  137.6338  152.5700 H   0  0  0  0  0  0  0  0  0  0  0  0
  147.4283  138.1777  151.9033 H   0  0  0  0  0  0  0  0  0  0  0  0
  145.9136  138.9401  151.3854 H   0  0  0  0  0  0  0  0  0  0  0  0
  148.3302  140.4540  153.0641 H   0  0  0  0  0  0  0  0  0  0  0  0
  147.0890  140.8297  151.8715 H   0  0  0  0  0  0  0  0  0  0  0  0
  147.0241  142.7239  153.3061 H   0  0  0  0  0  0  0  0  0  0  0  0
  145.6837  141.7750  153.8521 H   0  0  0  0  0  0  0  0  0  0  0  0
  149.2452  141.4020  154.2628 H   0  0  0  0  0  0  0  0  0  0  0  0
  152.2005  139.7551  158.2303 H   0  0  0  0  0  0  0  0  0  0  0  0
  154.4540  140.6676  161.0788 H   0  0  0  0  0  0  0  0  0  0  0  0
  154.1383  139.4217  159.8694 H   0  0  0  0  0  0  0  0  0  0  0  0
  152.9412  139.7537  161.1284 H   0  0  0  0  0  0  0  0  0  0  0  0
  153.6686  142.9407  160.7281 H   0  0  0  0  0  0  0  0  0  0  0  0
  152.5878  144.6053  159.2527 H   0  0  0  0  0  0  0  0  0  0  0  0
  150.3384  143.8875  156.8065 H   0  0  0  0  0  0  0  0  0  0  0  0
  149.0972  141.5678  158.5751 H   0  0  0  0  0  0  0  0  0  0  0  0
  1  2  1  0  0  0  0
  1 24  1  0  0  0  0
  1 25  1  0  0  0  0
  1 26  1  0  0  0  0
  2  3  1  0  0  0  0
  3  4  1  0  0  0  0
  3 27  1  0  0  0  0
  3 28  1  0  0  0  0
  4  5  1  0  0  0  0
  4 29  1  0  0  0  0
  4 30  1  0  0  0  0
  5 22  1  0  0  0  0
  5  6  1  0  0  0  0
  6  7  2  0  0  0  0
  6 31  1  0  0  0  0
  7  8  1  0  0  0  0
  7 18  1  0  0  0  0
  8  9  2  0  0  0  0
  8 10  1  0  0  0  0
 10 16  1  0  0  0  0
 10 11  2  0  0  0  0
 11 12  1  0  0  0  0
 11 32  1  0  0  0  0
 12 13  1  0  0  0  0
 12 14  2  0  0  0  0
 13 33  1  0  0  0  0
 13 34  1  0  0  0  0
 13 35  1  0  0  0  0
 14 15  1  0  0  0  0
 14 36  1  0  0  0  0
 15 16  2  0  0  0  0
 15 37  1  0  0  0  0
 16 17  1  0  0  0  0
 17 38  1  0  0  0  0
 18 19  2  0  0  0  0
 18 39  1  0  0  0  0
 19 20  1  0  0  0  0
 19 22  1  0  0  0  0
 20 21  3  0  0  0  0
 22 23  2  0  0  0  0
M  END
> <s_m_source_file>
AV-unprocessed.smi

> <i_m_source_file_index>
2624

> <i_lp_mmshare_version>
43012

> <i_f3d_flags>
0

> <s_epik_input>
W0NIM11PW0NIMl1bQ0gyXW4xW2NIXWMoW2NIXWMoQyNOKWMxPU8pQyg9TyljMltjSF1jKFtDSDNdKVtjSF1bY0hdYzJbT0hd

> <s_epik_cmdline>
J2VwaWtfcHl0aG9uJywgJy1waCcsICc3LjAnLCAnLXRuJywgJzgnLCAnLW1hJywgJzIwMCcsICctbWV0YWxfYmluZGluZycsICctaW1hZScsICc8aW5maWxlLm1hZT4nLCAnLW9tYWUnLCAnPG91dGZpbGUubWFlPic=

> <r_epik_Ionization_Penalty>
0.124493

> <r_epik_Ionization_Penalty_Charging>
5.62591e-11

> <r_epik_Ionization_Penalty_Neutral>
0.124493

> <r_epik_State_Penalty>
0.113971

> <r_epik_Charging_Adjusted_Penalty>
0.113971

> <i_epik_Tot_Q>
0

> <i_epik_Tot_abs_Q>
0

> <r_epik_Metal_State_Penalty>
0.113971

> <b_epik_Metal_Only>
0

> <s_lp_Force_Field>
OPLS_2005

> <r_lp_Energy>
23.5595

> <b_lp_Chiralities_Consistent>
1

> <s_lp_Variant>
AV-unprocessed.smi:2624-1

> <Gold.Version>
5.8.1

> <Gold.Id.Protein>
6NUR|6NUR_protein|mol2

> <Gold.PLP.Fitness>
47.6653

> <Gold.PLP.PLP>
-42.8133

> <Gold.PLP.part.hbond>
-3.0000

> <Gold.PLP.part.metal>
0.0000

> <Gold.PLP.part.buried>
-3.9814

> <Gold.PLP.part.nonpolar>
-36.5179

> <Gold.PLP.part.repulsive>
0.3355

> <Gold.PLP.ligand.clash>
0.0000

> <Gold.PLP.ligand.torsion>
1.8959

> <Gold.PLP.Chemscore.Hbond>
2.3064

> <Gold.PLP.Chemscore.CHOScore>
0.0000

> <Gold.PLP.Chemscore.Metal>
0.0000

> <Gold.Chemscore.Hbonds>
donor molecule, donor type, donor heavy atom, donor atom, acceptor molecule, acceptor atom, score
      L1  H    17    38       P1  8028  0.74
      P1  H  6934  6946       L1    21  0.80
      P1  H  7989  7998       L1     9  0.74

> <Gold.PLP.Chemscore.Internal.Correction>
1.7246

> <Gold.Rescore>
     Score         DG    S(hbond)    S(metal)    S(lipo)     H(rot)  DE(clash)    DE(int)     intcor
     16.48     -18.36       1.66        0.00     105.24       1.94       0.09       1.79       ----

> <Gold.Chemscore.Fitness>
16.4774

> <Gold.Chemscore.DG>
-18.3583

> <Gold.Chemscore.ZeroCoef>
-5.4800

> <Gold.Chemscore.Hbond>
1.6567

> <Gold.Chemscore.Metal>
0.0000

> <Gold.Chemscore.Lipo>
105.2414

> <Gold.Chemscore.Internal_Hbond>
0.0000

> <Gold.Chemscore.DEClash>
0.0911

> <Gold.Chemscore.DEInternal>
1.7899

> <Gold.Chemscore.Rot>
1.9407

> <Gold.Chemscore.Internal.Correction>
   9.000000E+99

> <Gold.Chemscore.Hbonds>
donor molecule, donor type, donor heavy atom, donor atom, acceptor molecule, acceptor atom, score
      L1  H    17    38       P1  8028  0.70
      P1  H  6934  6946       L1    21  0.12
      P1  H  7989  7998       L1     9  0.70

> <Gold.Chemscore.Hbond.Weighted>
-5.5333

> <Gold.Chemscore.Metal.Weighted>
-0.0000

> <Gold.Chemscore.Lipo.Weighted>
-12.3132

> <Gold.Chemscore.Internal_Hbond.Weighted>
0.0000

> <Gold.Chemscore.DEClash.Weighted>
0.0911

> <Gold.Chemscore.DEInternal.Weighted>
1.7899

> <Gold.Chemscore.Rot.Weighted>
4.9682

> <Gold.Chemscore.Internal.Correction.Weighted>
   9.000000E+99

> <Gold.Protein.RotatedTorsions>
[ 6907 6896 6895 6894 ] final  -38.97 input  -60.11 | X-H torsion
[ 7974 7965 7964 7962 ] final  -91.05 input  175.53 | X-H torsion
[ 8008 7997 7996 7995 ] final   -3.72 input   59.86 | X-H torsion
[ 10167 10162 10161 10158 ] final  -35.65 input  -65.29 | X-H torsion
[ 10718 10713 10712 10709 ] final -112.64 input   66.30 | X-H torsion
[ 10763 10752 10751 10750 ] final  118.96 input  -60.55 | X-H torsion
[ 11005 11000 10999 10996 ] final   -8.21 input  -57.11 | X-H torsion

> <Gold.Protein.ActiveResidues>
 VAL166  LYS551  ARG553  GLY616  TRP617  ASP618  TYR619  PRO620  LYS621  CYS622 
 ASP623  PHE694  ASN695  SER759  ASP760  ASP761  ALA762  ILE779  LEU786  VAL792 
 PHE793  MET794  SER795  GLU796  ALA797  LYS798  CYS799  TRP800  GLU811  SER814 

> <Gold.Protein.RotatedAtoms>
  150.9959  134.9283  159.7926 H   0  0  0  0  0  0  0  0  0  0  0  0  # atno 6907 bound_to 6896
  152.5264  134.3218  159.9161 H   0  0  0  0  0  0  0  0  0  0  0  0  # atno 6908 bound_to 6896
  151.3224  133.3993  159.2690 H   0  0  0  0  0  0  0  0  0  0  0  0  # atno 6909 bound_to 6896
  145.4183  140.9549  143.2195 H   0  0  0  0  0  0  0  0  0  0  0  0  # atno 7974 bound_to 7965
  154.6219  140.2502  155.7539 H   0  0  0  0  0  0  0  0  0  0  0  0  # atno 8008 bound_to 7997
  156.2431  140.2925  156.0450 H   0  0  0  0  0  0  0  0  0  0  0  0  # atno 8009 bound_to 7997
  155.1884  140.0391  157.2886 H   0  0  0  0  0  0  0  0  0  0  0  0  # atno 8010 bound_to 7997
  140.7160  143.3463  151.2250 H   0  0  0  0  0  0  0  0  0  0  0  0  # atno 10167 bound_to 10162
  156.0718  130.5931  150.8536 H   0  0  0  0  0  0  0  0  0  0  0  0  # atno 10718 bound_to 10713
  153.5757  135.3493  155.2855 H   0  0  0  0  0  0  0  0  0  0  0  0  # atno 10763 bound_to 10752
  154.8675  135.4170  154.2676 H   0  0  0  0  0  0  0  0  0  0  0  0  # atno 10764 bound_to 10752
  153.3452  135.7052  153.6904 H   0  0  0  0  0  0  0  0  0  0  0  0  # atno 10765 bound_to 10752
  140.7210  133.8828  155.8821 H   0  0  0  0  0  0  0  0  0  0  0  0  # atno 11005 bound_to 11000
  144.8262  139.5705  143.6964 LP  0  0  0  0  0  0  0  0  0  0  0  0  # atno 17320 bound_to 7965
  146.2670  139.6543  142.9323 LP  0  0  0  0  0  0  0  0  0  0  0  0  # atno 17321 bound_to 7965
  139.6983  143.9576  152.2893 LP  0  0  0  0  0  0  0  0  0  0  0  0  # atno 17342 bound_to 10162
  139.9260  144.6770  150.8412 LP  0  0  0  0  0  0  0  0  0  0  0  0  # atno 17343 bound_to 10162
  157.5793  131.0946  150.9296 LP  0  0  0  0  0  0  0  0  0  0  0  0  # atno 17370 bound_to 10713
  156.9495  130.5414  149.5282 LP  0  0  0  0  0  0  0  0  0  0  0  0  # atno 17371 bound_to 10713
  141.0003  134.1159  157.4323 LP  0  0  0  0  0  0  0  0  0  0  0  0  # atno 17394 bound_to 11000
  139.8848  135.0066  156.6393 LP  0  0  0  0  0  0  0  0  0  0  0  0  # atno 17395 bound_to 11000

$$$$
