AV-unprocessed.smi:2837|AV-procd|sdf|10921|dock2
  -GOLD-   2272015373D 1   1.00000     0.00000
 Structure written by MMmdl.
 32 34  0  0  0  0  0  0  0  0  1 V2000
  154.2348  140.9838  161.9229 F   0  0  0  0  0  0  0  0  0  0  0  0
  153.2538  141.7991  161.4664 C   0  0  0  0  0  0  0  0  0  0  0  0
  153.0095  142.7234  162.4275 F   0  0  0  0  0  0  0  0  0  0  0  0
  153.6568  142.4036  160.3173 O   0  0  0  0  0  0  0  0  0  0  0  0
  152.7629  142.5361  159.2794 C   0  0  0  0  0  0  0  0  0  0  0  0
  152.3841  143.7806  158.7233 C   0  0  0  0  0  0  0  0  0  0  0  0
  151.4701  143.8014  157.6523 C   0  0  0  0  0  0  0  0  0  0  0  0
  150.9668  142.5788  157.1626 C   0  0  0  0  0  0  0  0  0  0  0  0
  150.0519  142.6080  156.1005 N   0  0  0  0  0  0  0  0  0  0  0  0
  149.8396  141.4388  155.2523 C   0  0  1  0  0  0  0  0  0  0  0  0
  149.3815  140.2068  156.0361 C   0  0  0  0  0  0  0  0  0  0  0  0
  148.1024  139.8120  155.2850 C   0  0  1  0  0  0  0  0  0  0  0  0
  146.9450  140.7675  155.6037 C   0  0  0  0  0  0  0  0  0  0  0  0
  147.3596  142.0232  154.8393 C   0  0  0  0  0  0  0  0  0  0  0  0
  148.7014  141.5921  154.2227 C   0  0  2  0  0  0  0  0  0  0  0  0
  148.4246  140.2251  153.9673 O   0  0  0  0  0  0  0  0  0  0  0  0
  151.3319  141.3846  157.6843 N   0  0  0  0  0  0  0  0  0  0  0  0
  152.2097  141.3717  158.7097 C   0  0  0  0  0  0  0  0  0  0  0  0
  152.3617  141.1919  161.3109 H   0  0  0  0  0  0  0  0  0  0  0  0
  152.7840  144.7106  159.0991 H   0  0  0  0  0  0  0  0  0  0  0  0
  151.1664  144.7416  157.2152 H   0  0  0  0  0  0  0  0  0  0  0  0
  149.6945  143.4980  155.7849 H   0  0  0  0  0  0  0  0  0  0  0  0
  150.7685  141.1929  154.7353 H   0  0  0  0  0  0  0  0  0  0  0  0
  150.1312  139.4178  155.9679 H   0  0  0  0  0  0  0  0  0  0  0  0
  149.1915  140.4007  157.0929 H   0  0  0  0  0  0  0  0  0  0  0  0
  147.8429  138.7572  155.3771 H   0  0  0  0  0  0  0  0  0  0  0  0
  146.0015  140.3794  155.2185 H   0  0  0  0  0  0  0  0  0  0  0  0
  146.8327  140.9412  156.6745 H   0  0  0  0  0  0  0  0  0  0  0  0
  146.6340  142.2453  154.0561 H   0  0  0  0  0  0  0  0  0  0  0  0
  147.4428  142.9040  155.4764 H   0  0  0  0  0  0  0  0  0  0  0  0
  148.9801  142.1606  153.3353 H   0  0  0  0  0  0  0  0  0  0  0  0
  152.4769  140.3978  159.0926 H   0  0  0  0  0  0  0  0  0  0  0  0
  1  2  1  0  0  0  0
  2  3  1  0  0  0  0
  2  4  1  0  0  0  0
  2 19  1  0  0  0  0
  4  5  1  0  0  0  0
  5 18  1  0  0  0  0
  5  6  2  0  0  0  0
  6  7  1  0  0  0  0
  6 20  1  0  0  0  0
  7  8  2  0  0  0  0
  7 21  1  0  0  0  0
  8  9  1  0  0  0  0
  8 17  1  0  0  0  0
  9 10  1  0  0  0  0
  9 22  1  0  0  0  0
 10 15  1  0  0  0  0
 10 11  1  0  0  0  0
 10 23  1  0  0  0  0
 11 12  1  0  0  0  0
 11 24  1  0  0  0  0
 11 25  1  0  0  0  0
 12 16  1  0  0  0  0
 12 13  1  0  0  0  0
 12 26  1  0  0  0  0
 13 14  1  0  0  0  0
 13 27  1  0  0  0  0
 13 28  1  0  0  0  0
 14 15  1  0  0  0  0
 14 29  1  0  0  0  0
 14 30  1  0  0  0  0
 15 16  1  0  0  0  0
 15 31  1  0  0  0  0
 17 18  2  0  0  0  0
 18 32  1  0  0  0  0
M  END
> <s_m_source_file>
AV-unprocessed.smi

> <i_m_source_file_index>
2837

> <i_lp_mmshare_version>
43012

> <i_f3d_flags>
0

> <s_epik_input>
RltDSF0oRilPYzFbY0hdW2NIXWMobltjSF0xKVtOSF1bQ0BIXShbQ0gyXVtDQEBIXTIzKVtDQEBIXShPMylbQ0gyXVtDSDJdMg==

> <s_epik_cmdline>
J2VwaWtfcHl0aG9uJywgJy1waCcsICc3LjAnLCAnLXRuJywgJzgnLCAnLW1hJywgJzIwMCcsICctbWV0YWxfYmluZGluZycsICctaW1hZScsICc8aW5maWxlLm1hZT4nLCAnLW9tYWUnLCAnPG91dGZpbGUubWFlPic=

> <r_lp_tautomer_probability>
1

> <r_epik_Ionization_Penalty>
0.0124072

> <r_epik_Ionization_Penalty_Charging>
0

> <r_epik_Ionization_Penalty_Neutral>
0.0124072

> <r_epik_State_Penalty>
0.00959565

> <r_epik_Charging_Adjusted_Penalty>
0.00959565

> <i_epik_Tot_Q>
0

> <i_epik_Tot_abs_Q>
0

> <r_epik_Metal_State_Penalty>
9.67369e-06

> <b_epik_Metal_Only>
0

> <s_lp_Force_Field>
OPLS_2005

> <r_lp_Energy>
39.9144

> <b_lp_Chiralities_Consistent>
1

> <s_lp_Variant>
AV-unprocessed.smi:2837-2

> <Gold.Version>
5.8.1

> <Gold.Id.Protein>
6NUR|6NUR_protein|mol2

> <Gold.PLP.Fitness>
41.3947

> <Gold.PLP.PLP>
-39.7755

> <Gold.PLP.part.hbond>
-0.8828

> <Gold.PLP.part.metal>
0.0000

> <Gold.PLP.part.buried>
-3.2317

> <Gold.PLP.part.nonpolar>
-34.7621

> <Gold.PLP.part.repulsive>
0.2714

> <Gold.PLP.ligand.clash>
0.0000

> <Gold.PLP.ligand.torsion>
0.7137

> <Gold.PLP.Chemscore.Hbond>
1.0000

> <Gold.PLP.Chemscore.CHOScore>
0.0000

> <Gold.PLP.Chemscore.Metal>
0.0000

> <Gold.Chemscore.Hbonds>
donor molecule, donor type, donor heavy atom, donor atom, acceptor molecule, acceptor atom, score
      L1  H     9    22       P1  8028  0.84

> <Gold.PLP.Chemscore.Internal.Correction>
0.0466

> <Gold.Rescore>
     Score         DG    S(hbond)    S(metal)    S(lipo)     H(rot)  DE(clash)    DE(int)     intcor
     13.51     -15.48       0.99        0.00      86.12       1.32       0.06       1.91       ----

> <Gold.Chemscore.Fitness>
13.5067

> <Gold.Chemscore.DG>
-15.4773

> <Gold.Chemscore.ZeroCoef>
-5.4800

> <Gold.Chemscore.Hbond>
0.9893

> <Gold.Chemscore.Metal>
0.0000

> <Gold.Chemscore.Lipo>
86.1170

> <Gold.Chemscore.Internal_Hbond>
0.0000

> <Gold.Chemscore.DEClash>
0.0615

> <Gold.Chemscore.DEInternal>
1.9092

> <Gold.Chemscore.Rot>
1.3213

> <Gold.Chemscore.Internal.Correction>
   9.000000E+99

> <Gold.Chemscore.Hbonds>
donor molecule, donor type, donor heavy atom, donor atom, acceptor molecule, acceptor atom, score
      L1  H     9    22       P1  8028  0.82

> <Gold.Chemscore.Hbond.Weighted>
-3.3041

> <Gold.Chemscore.Metal.Weighted>
-0.0000

> <Gold.Chemscore.Lipo.Weighted>
-10.0757

> <Gold.Chemscore.Internal_Hbond.Weighted>
0.0000

> <Gold.Chemscore.DEClash.Weighted>
0.0615

> <Gold.Chemscore.DEInternal.Weighted>
1.9092

> <Gold.Chemscore.Rot.Weighted>
3.3825

> <Gold.Chemscore.Internal.Correction.Weighted>
   9.000000E+99

> <Gold.Protein.RotatedTorsions>
[ 6907 6896 6895 6894 ] final   93.14 input  -60.11 | X-H torsion
[ 7974 7965 7964 7962 ] final  141.49 input  175.53 | X-H torsion
[ 8008 7997 7996 7995 ] final  -23.94 input   59.86 | X-H torsion
[ 10167 10162 10161 10158 ] final -135.34 input  -65.29 | X-H torsion
[ 10718 10713 10712 10709 ] final  -88.62 input   66.30 | X-H torsion
[ 10763 10752 10751 10750 ] final -128.19 input  -60.55 | X-H torsion
[ 11005 11000 10999 10996 ] final  173.30 input  -57.11 | X-H torsion

> <Gold.Protein.ActiveResidues>
 VAL166  LYS551  ARG553  GLY616  TRP617  ASP618  TYR619  PRO620  LYS621  CYS622 
 ASP623  PHE694  ASN695  SER759  ASP760  ASP761  ALA762  ILE779  LEU786  VAL792 
 PHE793  MET794  SER795  GLU796  ALA797  LYS798  CYS799  TRP800  GLU811  SER814 

> <Gold.Protein.RotatedAtoms>
  152.5453  134.1393  159.8471 H   0  0  0  0  0  0  0  0  0  0  0  0  # atno 6907 bound_to 6896
  151.1431  133.4951  159.2604 H   0  0  0  0  0  0  0  0  0  0  0  0  # atno 6908 bound_to 6896
  151.1552  135.0257  159.8740 H   0  0  0  0  0  0  0  0  0  0  0  0  # atno 6909 bound_to 6896
  144.9092  139.5316  143.5717 H   0  0  0  0  0  0  0  0  0  0  0  0  # atno 7974 bound_to 7965
  154.4556  140.1967  156.0388 H   0  0  0  0  0  0  0  0  0  0  0  0  # atno 8008 bound_to 7997
  156.0740  140.3280  155.7583 H   0  0  0  0  0  0  0  0  0  0  0  0  # atno 8009 bound_to 7997
  155.5218  140.0570  157.2896 H   0  0  0  0  0  0  0  0  0  0  0  0  # atno 8010 bound_to 7997
  139.8788  143.6864  152.2630 H   0  0  0  0  0  0  0  0  0  0  0  0  # atno 10167 bound_to 10162
  155.9983  130.4842  150.5047 H   0  0  0  0  0  0  0  0  0  0  0  0  # atno 10718 bound_to 10713
  154.8755  135.3937  154.3716 H   0  0  0  0  0  0  0  0  0  0  0  0  # atno 10763 bound_to 10752
  153.4475  135.7027  153.6135 H   0  0  0  0  0  0  0  0  0  0  0  0  # atno 10764 bound_to 10752
  153.4689  135.3795  155.2349 H   0  0  0  0  0  0  0  0  0  0  0  0  # atno 10765 bound_to 10752
  140.3390  134.7293  157.4189 H   0  0  0  0  0  0  0  0  0  0  0  0  # atno 11005 bound_to 11000
  146.3149  139.7884  142.8991 LP  0  0  0  0  0  0  0  0  0  0  0  0  # atno 17320 bound_to 7965
  145.3483  141.0302  143.3353 LP  0  0  0  0  0  0  0  0  0  0  0  0  # atno 17321 bound_to 7965
  139.7215  144.7601  151.0948 LP  0  0  0  0  0  0  0  0  0  0  0  0  # atno 17342 bound_to 10162
  140.7748  143.5202  150.9546 LP  0  0  0  0  0  0  0  0  0  0  0  0  # atno 17343 bound_to 10162
  157.3027  131.0648  151.2057 LP  0  0  0  0  0  0  0  0  0  0  0  0  # atno 17370 bound_to 10713
  157.3030  130.6852  149.6174 LP  0  0  0  0  0  0  0  0  0  0  0  0  # atno 17371 bound_to 10713
  140.0797  134.5748  155.8554 LP  0  0  0  0  0  0  0  0  0  0  0  0  # atno 17394 bound_to 11000
  141.2043  133.6638  156.6116 LP  0  0  0  0  0  0  0  0  0  0  0  0  # atno 17395 bound_to 11000

$$$$
