AV-unprocessed.smi:963|AV-procd|sdf|4276|dock1
  -GOLD-   22720 2183D 1   1.00000     0.00000
 Structure written by MMmdl.
 36 37  0  0  0  0  0  0  0  0  1 V2000
  153.3232  142.1453  162.4902 C   0  0  0  0  0  0  0  0  0  0  0  0
  152.1894  143.1386  162.2133 C   0  0  0  0  0  0  0  0  0  0  0  0
  151.8588  143.2327  160.7527 C   0  0  0  0  0  0  0  0  0  0  0  0
  151.7305  142.0597  160.0023 N   0  0  0  0  0  0  0  0  0  0  0  0
  151.4462  142.2959  158.7201 C   0  0  0  0  0  0  0  0  0  0  0  0
  151.2156  141.2181  157.7147 C   0  0  0  0  0  0  0  0  0  0  0  0
  151.1903  141.7564  156.2780 C   0  0  0  0  0  0  0  0  0  0  0  0
  149.8483  141.6564  155.7159 N   0  0  0  0  0  0  0  0  0  0  0  0
  149.4048  140.6709  154.9197 C   0  0  0  0  0  0  0  0  0  0  0  0
  150.0981  139.7286  154.5378 O   0  0  0  0  0  0  0  0  0  0  0  0
  148.1405  140.8608  154.5093 N   0  0  0  0  0  0  0  0  0  0  0  0
  147.3867  140.2377  153.4252 C   0  0  0  0  0  0  0  0  0  0  0  0
  146.3200  141.2993  153.6835 C   0  0  0  0  0  0  0  0  0  0  0  0
  147.3554  142.0887  154.4814 C   0  0  0  0  0  0  0  0  0  0  0  0
  151.2961  144.0077  158.3500 S   0  0  0  0  0  0  0  0  0  0  0  0
  151.6640  144.3778  160.0151 C   0  0  0  0  0  0  0  0  0  0  0  0
  151.7323  145.7931  160.4848 C   0  0  0  0  0  0  0  0  0  0  0  0
  153.5426  142.0944  163.5567 H   0  0  0  0  0  0  0  0  0  0  0  0
  154.2378  142.4405  161.9753 H   0  0  0  0  0  0  0  0  0  0  0  0
  153.0585  141.1416  162.1562 H   0  0  0  0  0  0  0  0  0  0  0  0
  151.3051  142.8377  162.7762 H   0  0  0  0  0  0  0  0  0  0  0  0
  152.4671  144.1182  162.6027 H   0  0  0  0  0  0  0  0  0  0  0  0
  152.0021  140.4703  157.8219 H   0  0  0  0  0  0  0  0  0  0  0  0
  150.2744  140.7179  157.9475 H   0  0  0  0  0  0  0  0  0  0  0  0
  151.4882  142.8053  156.2657 H   0  0  0  0  0  0  0  0  0  0  0  0
  151.9199  141.2163  155.6722 H   0  0  0  0  0  0  0  0  0  0  0  0
  149.2049  142.4002  155.9437 H   0  0  0  0  0  0  0  0  0  0  0  0
  147.8656  140.3263  152.4486 H   0  0  0  0  0  0  0  0  0  0  0  0
  147.0507  139.2199  153.6257 H   0  0  0  0  0  0  0  0  0  0  0  0
  145.9588  141.8050  152.7874 H   0  0  0  0  0  0  0  0  0  0  0  0
  145.4983  140.9331  154.3013 H   0  0  0  0  0  0  0  0  0  0  0  0
  146.9984  142.4245  155.4557 H   0  0  0  0  0  0  0  0  0  0  0  0
  147.8223  142.8968  153.9163 H   0  0  0  0  0  0  0  0  0  0  0  0
  152.6326  145.9630  161.0756 H   0  0  0  0  0  0  0  0  0  0  0  0
  150.8691  146.0357  161.1050 H   0  0  0  0  0  0  0  0  0  0  0  0
  151.7483  146.4872  159.6444 H   0  0  0  0  0  0  0  0  0  0  0  0
  1  2  1  0  0  0  0
  1 18  1  0  0  0  0
  1 19  1  0  0  0  0
  1 20  1  0  0  0  0
  2  3  1  0  0  0  0
  2 21  1  0  0  0  0
  2 22  1  0  0  0  0
  3 16  2  0  0  0  0
  3  4  1  0  0  0  0
  4  5  2  0  0  0  0
  5  6  1  0  0  0  0
  5 15  1  0  0  0  0
  6  7  1  0  0  0  0
  6 23  1  0  0  0  0
  6 24  1  0  0  0  0
  7  8  1  0  0  0  0
  7 25  1  0  0  0  0
  7 26  1  0  0  0  0
  8  9  1  0  0  0  0
  8 27  1  0  0  0  0
  9 10  2  0  0  0  0
  9 11  1  0  0  0  0
 11 14  1  0  0  0  0
 11 12  1  0  0  0  0
 12 13  1  0  0  0  0
 12 28  1  0  0  0  0
 12 29  1  0  0  0  0
 13 14  1  0  0  0  0
 13 30  1  0  0  0  0
 13 31  1  0  0  0  0
 14 32  1  0  0  0  0
 14 33  1  0  0  0  0
 15 16  1  0  0  0  0
 16 17  1  0  0  0  0
 17 34  1  0  0  0  0
 17 35  1  0  0  0  0
 17 36  1  0  0  0  0
M  END
> <s_m_source_file>
AV-unprocessed.smi

> <i_m_source_file_index>
963

> <i_lp_mmshare_version>
43012

> <i_f3d_flags>
0

> <s_epik_input>
W0NIM11bQ0gyXWMxbmMoc2MxW0NIM10pW0NIMl1bQ0gyXVtOSF1DKD1PKU4yW0NIMl1bQ0gyXVtDSDJdMg==

> <s_epik_cmdline>
J2VwaWtfcHl0aG9uJywgJy1waCcsICc3LjAnLCAnLXRuJywgJzgnLCAnLW1hJywgJzIwMCcsICctbWV0YWxfYmluZGluZycsICctaW1hZScsICc8aW5maWxlLm1hZT4nLCAnLW9tYWUnLCAnPG91dGZpbGUubWFlPic=

> <r_epik_Ionization_Penalty>
0.00446738

> <r_epik_Ionization_Penalty_Charging>
0

> <r_epik_Ionization_Penalty_Neutral>
0.00446738

> <r_epik_State_Penalty>
0.00317617

> <r_epik_Charging_Adjusted_Penalty>
0.00317617

> <i_epik_Tot_Q>
0

> <i_epik_Tot_abs_Q>
0

> <r_epik_Metal_State_Penalty>
-0

> <b_epik_Metal_Only>
0

> <s_lp_Force_Field>
OPLS_2005

> <r_lp_Energy>
11.733

> <b_lp_Chiralities_Consistent>
1

> <s_lp_Variant>
AV-unprocessed.smi:963-1

> <Gold.Version>
5.8.1

> <Gold.Id.Protein>
6NUR|6NUR_protein|mol2

> <Gold.PLP.Fitness>
44.9945

> <Gold.PLP.PLP>
-40.8771

> <Gold.PLP.part.hbond>
-2.0000

> <Gold.PLP.part.metal>
0.0000

> <Gold.PLP.part.buried>
-3.2244

> <Gold.PLP.part.nonpolar>
-35.9508

> <Gold.PLP.part.repulsive>
0.2850

> <Gold.PLP.ligand.clash>
0.0000

> <Gold.PLP.ligand.torsion>
0.9813

> <Gold.PLP.Chemscore.Hbond>
1.9200

> <Gold.PLP.Chemscore.CHOScore>
0.0000

> <Gold.PLP.Chemscore.Metal>
0.0000

> <Gold.Chemscore.Hbonds>
donor molecule, donor type, donor heavy atom, donor atom, acceptor molecule, acceptor atom, score
      L1  H     8    27       P1  8028  0.15
      P1  H  7989  7998       L1    10  0.58

> <Gold.PLP.Chemscore.Internal.Correction>
0.3199

> <Gold.Rescore>
     Score         DG    S(hbond)    S(metal)    S(lipo)     H(rot)  DE(clash)    DE(int)     intcor
     17.19     -20.54       1.43        0.00     120.14       1.48       2.58       0.77       ----

> <Gold.Chemscore.Fitness>
17.1878

> <Gold.Chemscore.DG>
-20.5426

> <Gold.Chemscore.ZeroCoef>
-5.4800

> <Gold.Chemscore.Hbond>
1.4323

> <Gold.Chemscore.Metal>
0.0000

> <Gold.Chemscore.Lipo>
120.1425

> <Gold.Chemscore.Internal_Hbond>
0.0000

> <Gold.Chemscore.DEClash>
2.5837

> <Gold.Chemscore.DEInternal>
0.7710

> <Gold.Chemscore.Rot>
1.4758

> <Gold.Chemscore.Internal.Correction>
   9.000000E+99

> <Gold.Chemscore.Hbonds>
donor molecule, donor type, donor heavy atom, donor atom, acceptor molecule, acceptor atom, score
      L1  H     8    27       P1  8028  0.16
      P1  H  7989  7998       L1    10  0.12

> <Gold.Chemscore.Hbond.Weighted>
-4.7839

> <Gold.Chemscore.Metal.Weighted>
-0.0000

> <Gold.Chemscore.Lipo.Weighted>
-14.0567

> <Gold.Chemscore.Internal_Hbond.Weighted>
0.0000

> <Gold.Chemscore.DEClash.Weighted>
2.5837

> <Gold.Chemscore.DEInternal.Weighted>
0.7710

> <Gold.Chemscore.Rot.Weighted>
3.7780

> <Gold.Chemscore.Internal.Correction.Weighted>
   9.000000E+99

> <Gold.Protein.RotatedTorsions>
[ 6907 6896 6895 6894 ] final  121.44 input  -60.11 | X-H torsion
[ 7974 7965 7964 7962 ] final    9.74 input  175.53 | X-H torsion
[ 8008 7997 7996 7995 ] final -110.81 input   59.86 | X-H torsion
[ 10167 10162 10161 10158 ] final  173.68 input  -65.29 | X-H torsion
[ 10718 10713 10712 10709 ] final   94.90 input   66.30 | X-H torsion
[ 10763 10752 10751 10750 ] final  -97.11 input  -60.55 | X-H torsion
[ 11005 11000 10999 10996 ] final   18.64 input  -57.11 | X-H torsion

> <Gold.Protein.ActiveResidues>
 VAL166  LYS551  ARG553  GLY616  TRP617  ASP618  TYR619  PRO620  LYS621  CYS622 
 ASP623  PHE694  ASN695  SER759  ASP760  ASP761  ALA762  ILE779  LEU786  VAL792 
 PHE793  MET794  SER795  GLU796  ALA797  LYS798  CYS799  TRP800  GLU811  SER814 

> <Gold.Protein.RotatedAtoms>
  152.4322  133.7297  159.6580 H   0  0  0  0  0  0  0  0  0  0  0  0  # atno 6907 bound_to 6896
  150.8202  133.8256  159.3148 H   0  0  0  0  0  0  0  0  0  0  0  0  # atno 6908 bound_to 6896
  151.5940  135.1054  160.0097 H   0  0  0  0  0  0  0  0  0  0  0  0  # atno 6909 bound_to 6896
  146.2399  139.9738  142.8444 H   0  0  0  0  0  0  0  0  0  0  0  0  # atno 7974 bound_to 7965
  154.9802  140.0396  157.2274 H   0  0  0  0  0  0  0  0  0  0  0  0  # atno 8008 bound_to 7997
  154.7721  140.2803  155.6107 H   0  0  0  0  0  0  0  0  0  0  0  0  # atno 8009 bound_to 7997
  156.2922  140.2608  156.2526 H   0  0  0  0  0  0  0  0  0  0  0  0  # atno 8010 bound_to 7997
  139.5116  144.3233  152.0181 H   0  0  0  0  0  0  0  0  0  0  0  0  # atno 10167 bound_to 10162
  157.6944  131.0528  150.4257 H   0  0  0  0  0  0  0  0  0  0  0  0  # atno 10718 bound_to 10713
  154.7299  135.5059  153.8946 H   0  0  0  0  0  0  0  0  0  0  0  0  # atno 10763 bound_to 10752
  153.0940  135.6667  153.9808 H   0  0  0  0  0  0  0  0  0  0  0  0  # atno 10764 bound_to 10752
  153.9612  135.3048  155.3412 H   0  0  0  0  0  0  0  0  0  0  0  0  # atno 10765 bound_to 10752
  140.4226  134.1503  155.7674 H   0  0  0  0  0  0  0  0  0  0  0  0  # atno 11005 bound_to 11000
  145.1656  140.9695  143.4351 LP  0  0  0  0  0  0  0  0  0  0  0  0  # atno 17320 bound_to 7965
  145.0076  139.3540  143.6136 LP  0  0  0  0  0  0  0  0  0  0  0  0  # atno 17321 bound_to 7965
  140.2675  144.4000  150.6163 LP  0  0  0  0  0  0  0  0  0  0  0  0  # atno 17342 bound_to 10162
  140.6113  143.2169  151.6881 LP  0  0  0  0  0  0  0  0  0  0  0  0  # atno 17343 bound_to 10162
  156.4628  130.4035  149.6566 LP  0  0  0  0  0  0  0  0  0  0  0  0  # atno 17370 bound_to 10713
  156.3675  130.7513  151.2492 LP  0  0  0  0  0  0  0  0  0  0  0  0  # atno 17371 bound_to 10713
  141.1778  133.8478  157.1362 LP  0  0  0  0  0  0  0  0  0  0  0  0  # atno 17394 bound_to 11000
  140.0190  134.9954  157.0552 LP  0  0  0  0  0  0  0  0  0  0  0  0  # atno 17395 bound_to 11000

$$$$
