AV-unprocessed.smi:743|AV-procd|sdf|3561|dock4
  -GOLD-   22720 0563D 1   1.00000     0.00000
 Structure written by MMmdl.
 29 30  0  0  0  0  0  0  0  0  2 V2000
  145.8098  142.7908  154.0266 C   0  0  0  0  0  0  0  0  0  0  0  0
  146.9654  142.0858  154.5382 N   0  0  0  0  0  0  0  0  0  0  0  0
  147.9627  141.4462  153.8348 C   0  0  0  0  0  0  0  0  0  0  0  0
  148.8388  140.9209  154.7453 C   0  0  0  0  0  0  0  0  0  0  0  0
  150.1056  140.1334  154.5101 C   0  0  1  0  0  0  0  0  0  0  0  0
  151.0838  140.4000  155.5681 N   0  0  0  0  0  0  0  0  0  0  0  0
  151.9738  139.5321  156.0820 C   0  0  0  0  0  0  0  0  0  0  0  0
  152.7955  139.8819  156.9251 O   0  0  0  0  0  0  0  0  0  0  0  0
  151.9350  138.0638  155.6308 C   0  0  0  0  0  0  0  0  0  0  0  0
  151.1221  137.8318  154.3463 C   0  0  0  0  0  0  0  0  0  0  0  0
  149.8084  138.6213  154.3787 C   0  0  2  0  0  0  0  0  0  0  0  0
  148.9813  138.3279  153.1939 N   0  3  0  0  0  0  0  0  0  0  0  0
  148.2721  141.2995  155.9968 C   0  0  0  0  0  0  0  0  0  0  0  0
  147.1563  141.9972  155.8699 N   0  0  0  0  0  0  0  0  0  0  0  0
  149.2370  138.2950  155.2495 H   0  0  0  0  0  0  0  0  0  0  0  0
  145.9563  143.0327  152.9735 H   0  0  0  0  0  0  0  0  0  0  0  0
  145.6594  143.7166  154.5835 H   0  0  0  0  0  0  0  0  0  0  0  0
  144.9236  142.1637  154.1281 H   0  0  0  0  0  0  0  0  0  0  0  0
  147.9677  141.4192  152.7547 H   0  0  0  0  0  0  0  0  0  0  0  0
  150.5775  140.4694  153.5853 H   0  0  0  0  0  0  0  0  0  0  0  0
  151.1232  141.3503  155.9086 H   0  0  0  0  0  0  0  0  0  0  0  0
  152.9535  137.6961  155.5005 H   0  0  0  0  0  0  0  0  0  0  0  0
  151.4978  137.4846  156.4447 H   0  0  0  0  0  0  0  0  0  0  0  0
  151.7143  138.1263  153.4783 H   0  0  0  0  0  0  0  0  0  0  0  0
  150.9198  136.7659  154.2344 H   0  0  0  0  0  0  0  0  0  0  0  0
  149.1109  139.0528  152.5025 H   0  0  0  0  0  0  0  0  0  0  0  0
  148.0091  138.2903  153.4652 H   0  0  0  0  0  0  0  0  0  0  0  0
  148.6403  141.0911  156.9905 H   0  0  0  0  0  0  0  0  0  0  0  0
  149.2557  137.4376  152.8036 H   0  0  0  0  0  0  0  0  0  0  0  0
  1  2  1  0  0  0  0
  1 16  1  0  0  0  0
  1 17  1  0  0  0  0
  1 18  1  0  0  0  0
  2 14  1  0  0  0  0
  2  3  1  0  0  0  0
  3  4  2  0  0  0  0
  3 19  1  0  0  0  0
  4  5  1  0  0  0  0
  4 13  1  0  0  0  0
  5 11  1  0  0  0  0
  5  6  1  0  0  0  0
  5 20  1  0  0  0  0
  6  7  1  0  0  0  0
  6 21  1  0  0  0  0
  7  8  2  0  0  0  0
  7  9  1  0  0  0  0
  9 10  1  0  0  0  0
  9 22  1  0  0  0  0
  9 23  1  0  0  0  0
 10 11  1  0  0  0  0
 10 24  1  0  0  0  0
 10 25  1  0  0  0  0
 11 15  1  0  0  0  0
 11 12  1  0  0  0  0
 12 26  1  0  0  0  0
 12 27  1  0  0  0  0
 12 29  1  0  0  0  0
 13 14  2  0  0  0  0
 13 28  1  0  0  0  0
M  CHG  1  12   1
M  END
> <s_m_source_file>
AV-unprocessed.smi

> <i_m_source_file_index>
743

> <i_lp_mmshare_version>
43012

> <i_f3d_flags>
0

> <s_epik_input>
W0NIM11uMVtjSF1jKFtjSF1uMSlbQ0BASF0yW05IXUMoPU8pW0NIMl1bQ0gyXVtDQEBIXTJbTkgyXQ==

> <s_epik_cmdline>
J2VwaWtfcHl0aG9uJywgJy1waCcsICc3LjAnLCAnLXRuJywgJzgnLCAnLW1hJywgJzIwMCcsICctbWV0YWxfYmluZGluZycsICctaW1hZScsICc8aW5maWxlLm1hZT4nLCAnLW9tYWUnLCAnPG91dGZpbGUubWFlPic=

> <r_lp_tautomer_probability>
1

> <r_epik_Ionization_Penalty>
0.00878543

> <r_epik_Ionization_Penalty_Charging>
0.00874185

> <r_epik_Ionization_Penalty_Neutral>
4.35793e-05

> <r_epik_State_Penalty>
0.00660351

> <r_epik_Charging_Adjusted_Penalty>
0.0153454

> <i_epik_Tot_Q>
1

> <i_epik_Tot_abs_Q>
1

> <r_epik_Metal_State_Penalty>
0.00660727

> <b_epik_Metal_Only>
0

> <s_lp_Force_Field>
OPLS_2005

> <r_lp_Energy>
10.7235

> <b_lp_Chiralities_Consistent>
1

> <s_lp_Variant>
AV-unprocessed.smi:743-2

> <Gold.Version>
5.8.1

> <Gold.Id.Protein>
6NUR|6NUR_protein|mol2

> <Gold.PLP.Fitness>
41.9182

> <Gold.PLP.PLP>
-28.5455

> <Gold.PLP.part.hbond>
-2.7626

> <Gold.PLP.part.metal>
0.0000

> <Gold.PLP.part.buried>
-1.1215

> <Gold.PLP.part.nonpolar>
-25.1160

> <Gold.PLP.part.repulsive>
1.3054

> <Gold.PLP.ligand.clash>
0.0000

> <Gold.PLP.ligand.torsion>
0.7386

> <Gold.PLP.Chemscore.Hbond>
4.0000

> <Gold.PLP.Chemscore.CHOScore>
0.9428

> <Gold.PLP.Chemscore.Metal>
0.0000

> <Gold.Chemscore.Hbonds>
donor molecule, donor type, donor heavy atom, donor atom, acceptor molecule, acceptor atom, score
      L1  H    12    26       P1  7957  1.00
      L1  H    12    29       P1  7948  1.98
      P1  H  7997  8009       L1     8  1.00
      L1  C     3    19       P1  7957  0.68

> <Gold.PLP.Chemscore.Internal.Correction>
0.0215

> <Gold.Rescore>
     Score         DG    S(hbond)    S(metal)    S(lipo)     H(rot)  DE(clash)    DE(int)     intcor
     18.12     -18.73       2.98        0.00      49.97       1.00       0.01       0.60       ----

> <Gold.Chemscore.Fitness>
18.1243

> <Gold.Chemscore.DG>
-18.7291

> <Gold.Chemscore.ZeroCoef>
-5.4800

> <Gold.Chemscore.Hbond>
2.9828

> <Gold.Chemscore.Metal>
0.0000

> <Gold.Chemscore.Lipo>
49.9704

> <Gold.Chemscore.Internal_Hbond>
0.0000

> <Gold.Chemscore.DEClash>
0.0051

> <Gold.Chemscore.DEInternal>
0.5997

> <Gold.Chemscore.Rot>
1.0000

> <Gold.Chemscore.Internal.Correction>
   9.000000E+99

> <Gold.Chemscore.Hbonds>
donor molecule, donor type, donor heavy atom, donor atom, acceptor molecule, acceptor atom, score
      L1  H    12    26       P1  7957  0.99
      L1  H    12    29       P1  7948  0.84
      P1  H  7997  8009       L1     8  0.97

> <Gold.Chemscore.Hbond.Weighted>
-9.9625

> <Gold.Chemscore.Metal.Weighted>
-0.0000

> <Gold.Chemscore.Lipo.Weighted>
-5.8465

> <Gold.Chemscore.Internal_Hbond.Weighted>
0.0000

> <Gold.Chemscore.DEClash.Weighted>
0.0051

> <Gold.Chemscore.DEInternal.Weighted>
0.5997

> <Gold.Chemscore.Rot.Weighted>
2.5600

> <Gold.Chemscore.Internal.Correction.Weighted>
   9.000000E+99

> <Gold.Protein.RotatedTorsions>
[ 6907 6896 6895 6894 ] final   -3.88 input  -60.11 | X-H torsion
[ 7974 7965 7964 7962 ] final   -7.55 input  175.53 | X-H torsion
[ 8008 7997 7996 7995 ] final  169.68 input   59.86 | X-H torsion
[ 10167 10162 10161 10158 ] final -109.02 input  -65.29 | X-H torsion
[ 10718 10713 10712 10709 ] final   -2.15 input   66.30 | X-H torsion
[ 10763 10752 10751 10750 ] final -100.45 input  -60.55 | X-H torsion
[ 11005 11000 10999 10996 ] final    9.78 input  -57.11 | X-H torsion

> <Gold.Protein.ActiveResidues>
 VAL166  LYS551  ARG553  GLY616  TRP617  ASP618  TYR619  PRO620  LYS621  CYS622 
 ASP623  PHE694  ASN695  SER759  ASP760  ASP761  ALA762  ILE779  LEU786  VAL792 
 PHE793  MET794  SER795  GLU796  ALA797  LYS798  CYS799  TRP800  GLU811  SER814 

> <Gold.Protein.RotatedAtoms>
  151.5066  135.1063  159.9842 H   0  0  0  0  0  0  0  0  0  0  0  0  # atno 6907 bound_to 6896
  152.4679  133.7960  159.6938 H   0  0  0  0  0  0  0  0  0  0  0  0  # atno 6908 bound_to 6896
  150.8673  133.7493  159.2998 H   0  0  0  0  0  0  0  0  0  0  0  0  # atno 6909 bound_to 6896
  146.2304  140.2337  142.8341 H   0  0  0  0  0  0  0  0  0  0  0  0  # atno 7974 bound_to 7965
  156.1435  140.1558  156.8883 H   0  0  0  0  0  0  0  0  0  0  0  0  # atno 8008 bound_to 7997
  154.5008  140.0826  156.7832 H   0  0  0  0  0  0  0  0  0  0  0  0  # atno 8009 bound_to 7997
  155.4033  140.3415  155.4260 H   0  0  0  0  0  0  0  0  0  0  0  0  # atno 8010 bound_to 7997
  140.1599  143.4129  152.1433 H   0  0  0  0  0  0  0  0  0  0  0  0  # atno 10167 bound_to 10162
  156.7951  130.5374  149.5730 H   0  0  0  0  0  0  0  0  0  0  0  0  # atno 10718 bound_to 10713
  154.7580  135.4934  153.9410 H   0  0  0  0  0  0  0  0  0  0  0  0  # atno 10763 bound_to 10752
  153.1218  135.6733  153.9331 H   0  0  0  0  0  0  0  0  0  0  0  0  # atno 10764 bound_to 10752
  153.9061  135.3104  155.3427 H   0  0  0  0  0  0  0  0  0  0  0  0  # atno 10765 bound_to 10752
  140.5219  134.0550  155.7847 H   0  0  0  0  0  0  0  0  0  0  0  0  # atno 11005 bound_to 11000
  144.9538  140.8206  143.5555 LP  0  0  0  0  0  0  0  0  0  0  0  0  # atno 17320 bound_to 7965
  145.2300  139.2119  143.5048 LP  0  0  0  0  0  0  0  0  0  0  0  0  # atno 17321 bound_to 7965
  139.5386  144.7234  151.4809 LP  0  0  0  0  0  0  0  0  0  0  0  0  # atno 17342 bound_to 10162
  140.6650  143.8418  150.6931 LP  0  0  0  0  0  0  0  0  0  0  0  0  # atno 17343 bound_to 10162
  156.1135  130.6058  151.0084 LP  0  0  0  0  0  0  0  0  0  0  0  0  # atno 17370 bound_to 10713
  157.6581  131.0886  150.7900 LP  0  0  0  0  0  0  0  0  0  0  0  0  # atno 17371 bound_to 10713
  141.1329  133.9271  157.2496 LP  0  0  0  0  0  0  0  0  0  0  0  0  # atno 17394 bound_to 11000
  139.9601  135.0156  156.9237 LP  0  0  0  0  0  0  0  0  0  0  0  0  # atno 17395 bound_to 11000

$$$$
