AV-unprocessed.smi:3031|AV-procd|sdf|11541|dock1
  -GOLD-   2272016493D 1   1.00000     0.00000
 Structure written by MMmdl.
 47 48  0  0  0  0  0  0  0  0  2 V2000
  151.6789  144.0881  158.3762 C   0  0  0  0  0  0  0  0  0  0  0  0
  151.4652  142.7386  157.7535 C   0  0  0  0  0  0  0  0  0  0  0  0
  151.7207  141.4596  158.3255 C   0  0  0  0  0  0  0  0  0  0  0  0
  151.4236  140.4627  157.5079 N   0  0  0  0  0  0  0  0  0  0  0  0
  150.9693  141.0675  156.3901 N   0  0  0  0  0  0  0  0  0  0  0  0
  150.5548  140.2656  155.2536 C   0  0  0  0  0  0  0  0  0  0  0  0
  149.2787  140.8042  154.5731 C   0  0  2  0  0  0  0  0  0  0  0  0
  148.1905  141.0959  155.6151 C   0  0  0  0  0  0  0  0  0  0  0  0
  148.7571  139.8433  153.5745 N   0  3  0  0  0  0  0  0  0  0  0  0
  147.3215  139.9920  153.2504 C   0  0  0  0  0  0  0  0  0  0  0  0
  146.7963  138.7812  152.4572 C   0  0  2  0  0  0  0  0  0  0  0  0
  146.1342  139.2830  151.3123 O   0  0  0  0  0  0  0  0  0  0  0  0
  145.7680  137.8936  153.1961 C   0  0  0  0  0  0  0  0  0  0  0  0
  144.9089  137.0582  152.3517 N   0  0  0  0  0  0  0  0  0  0  0  0
  145.6710  136.2199  151.4250 C   0  0  0  0  0  0  0  0  0  0  0  0
  144.7544  135.3373  150.5595 C   0  0  0  0  0  0  0  0  0  0  0  0
  143.9412  134.5269  151.4005 O   0  0  0  0  0  0  0  0  0  0  0  0
  143.1529  135.2940  152.3035 C   0  0  0  0  0  0  0  0  0  0  0  0
  144.0709  136.1790  153.1647 C   0  0  0  0  0  0  0  0  0  0  0  0
  150.9818  142.4406  156.5111 C   0  0  0  0  0  0  0  0  0  0  0  0
  151.9486  144.0111  159.4299 H   0  0  0  0  0  0  0  0  0  0  0  0
  150.7809  144.7038  158.3197 H   0  0  0  0  0  0  0  0  0  0  0  0
  152.4788  144.6375  157.8796 H   0  0  0  0  0  0  0  0  0  0  0  0
  152.1127  141.2278  159.3050 H   0  0  0  0  0  0  0  0  0  0  0  0
  151.3774  140.2074  154.5383 H   0  0  0  0  0  0  0  0  0  0  0  0
  150.3857  139.2490  155.6111 H   0  0  0  0  0  0  0  0  0  0  0  0
  149.5118  141.7480  154.0768 H   0  0  0  0  0  0  0  0  0  0  0  0
  148.5345  141.8263  156.3481 H   0  0  0  0  0  0  0  0  0  0  0  0
  147.9036  140.1930  156.1556 H   0  0  0  0  0  0  0  0  0  0  0  0
  147.2945  141.5023  155.1447 H   0  0  0  0  0  0  0  0  0  0  0  0
  149.2930  139.9413  152.7233 H   0  0  0  0  0  0  0  0  0  0  0  0
  146.8006  140.0783  154.2009 H   0  0  0  0  0  0  0  0  0  0  0  0
  147.1468  140.9131  152.6944 H   0  0  0  0  0  0  0  0  0  0  0  0
  147.6315  138.1663  152.1192 H   0  0  0  0  0  0  0  0  0  0  0  0
  145.3843  139.7854  151.5936 H   0  0  0  0  0  0  0  0  0  0  0  0
  146.2589  137.2871  153.9590 H   0  0  0  0  0  0  0  0  0  0  0  0
  145.1268  138.5796  153.7526 H   0  0  0  0  0  0  0  0  0  0  0  0
  146.2897  136.8214  150.7665 H   0  0  0  0  0  0  0  0  0  0  0  0
  146.3547  135.5791  151.9843 H   0  0  0  0  0  0  0  0  0  0  0  0
  144.1255  135.9505  149.9122 H   0  0  0  0  0  0  0  0  0  0  0  0
  145.3492  134.6927  149.9119 H   0  0  0  0  0  0  0  0  0  0  0  0
  142.4391  135.9037  151.7473 H   0  0  0  0  0  0  0  0  0  0  0  0
  142.5747  134.6190  152.9347 H   0  0  0  0  0  0  0  0  0  0  0  0
  144.6987  135.5450  153.7933 H   0  0  0  0  0  0  0  0  0  0  0  0
  143.4542  136.7739  153.8394 H   0  0  0  0  0  0  0  0  0  0  0  0
  150.6523  143.0857  155.7099 H   0  0  0  0  0  0  0  0  0  0  0  0
  148.8924  138.9085  153.9317 H   0  0  0  0  0  0  0  0  0  0  0  0
  1  2  1  0  0  0  0
  1 21  1  0  0  0  0
  1 22  1  0  0  0  0
  1 23  1  0  0  0  0
  2 20  2  0  0  0  0
  2  3  1  0  0  0  0
  3  4  2  0  0  0  0
  3 24  1  0  0  0  0
  4  5  1  0  0  0  0
  5  6  1  0  0  0  0
  5 20  1  0  0  0  0
  6  7  1  0  0  0  0
  6 25  1  0  0  0  0
  6 26  1  0  0  0  0
  7  8  1  0  0  0  0
  7  9  1  0  0  0  0
  7 27  1  0  0  0  0
  8 28  1  0  0  0  0
  8 29  1  0  0  0  0
  8 30  1  0  0  0  0
  9 10  1  0  0  0  0
  9 31  1  0  0  0  0
  9 47  1  0  0  0  0
 10 11  1  0  0  0  0
 10 32  1  0  0  0  0
 10 33  1  0  0  0  0
 11 12  1  0  0  0  0
 11 13  1  0  0  0  0
 11 34  1  0  0  0  0
 12 35  1  0  0  0  0
 13 14  1  0  0  0  0
 13 36  1  0  0  0  0
 13 37  1  0  0  0  0
 14 19  1  0  0  0  0
 14 15  1  0  0  0  0
 15 16  1  0  0  0  0
 15 38  1  0  0  0  0
 15 39  1  0  0  0  0
 16 17  1  0  0  0  0
 16 40  1  0  0  0  0
 16 41  1  0  0  0  0
 17 18  1  0  0  0  0
 18 19  1  0  0  0  0
 18 42  1  0  0  0  0
 18 43  1  0  0  0  0
 19 44  1  0  0  0  0
 19 45  1  0  0  0  0
 20 46  1  0  0  0  0
M  CHG  1   9   1
M  END
> <s_m_source_file>
AV-unprocessed.smi

> <i_m_source_file_index>
3031

> <i_lp_mmshare_version>
43012

> <i_f3d_flags>
0

> <s_epik_input>
W0NIM11jMVtjSF1ubihbY0hdMSlbQ0gyXVtDQEhdKFtDSDNdKVtOSF1bQ0gyXVtDQEhdKFtPSF0pW0NIMl1OMltDSDJdW0NIMl1PW0NIMl1bQ0gyXTI=

> <s_epik_cmdline>
J2VwaWtfcHl0aG9uJywgJy1waCcsICc3LjAnLCAnLXRuJywgJzgnLCAnLW1hJywgJzIwMCcsICctbWV0YWxfYmluZGluZycsICctaW1hZScsICc8aW5maWxlLm1hZT4nLCAnLW9tYWUnLCAnPG91dGZpbGUubWFlPic=

> <r_lp_tautomer_probability>
1

> <r_epik_Ionization_Penalty>
0.108564

> <r_epik_Ionization_Penalty_Charging>
0.01811

> <r_epik_Ionization_Penalty_Neutral>
0.0904541

> <r_epik_State_Penalty>
0.141043

> <r_epik_Charging_Adjusted_Penalty>
0.159153

> <i_epik_Tot_Q>
1

> <i_epik_Tot_abs_Q>
1

> <r_epik_Metal_State_Penalty>
0.141052

> <b_epik_Metal_Only>
0

> <s_lp_Force_Field>
OPLS_2005

> <r_lp_Energy>
31.5788

> <b_lp_Chiralities_Consistent>
1

> <s_lp_Variant>
AV-unprocessed.smi:3031-1

> <Gold.Version>
5.8.1

> <Gold.Id.Protein>
6NUR|6NUR_protein|mol2

> <Gold.PLP.Fitness>
45.4510

> <Gold.PLP.PLP>
-39.4274

> <Gold.PLP.part.hbond>
-3.0000

> <Gold.PLP.part.metal>
0.0000

> <Gold.PLP.part.buried>
-5.1527

> <Gold.PLP.part.nonpolar>
-32.7059

> <Gold.PLP.part.repulsive>
0.5156

> <Gold.PLP.ligand.clash>
0.0000

> <Gold.PLP.ligand.torsion>
1.5496

> <Gold.PLP.Chemscore.Hbond>
2.0000

> <Gold.PLP.Chemscore.CHOScore>
0.9657

> <Gold.PLP.Chemscore.Metal>
0.0000

> <Gold.Chemscore.Hbonds>
donor molecule, donor type, donor heavy atom, donor atom, acceptor molecule, acceptor atom, score
      L1  H     9    31       P1  7957  1.00
      L1  H    12    35       P1 10175  1.00
      L1  C    20    46       P1  8028  1.00

> <Gold.PLP.Chemscore.Internal.Correction>
0.2257

> <Gold.Rescore>
     Score         DG    S(hbond)    S(metal)    S(lipo)     H(rot)  DE(clash)    DE(int)     intcor
     14.60     -15.99       1.97        0.00      91.16       2.63       0.00       1.39       ----

> <Gold.Chemscore.Fitness>
14.5953

> <Gold.Chemscore.DG>
-15.9851

> <Gold.Chemscore.ZeroCoef>
-5.4800

> <Gold.Chemscore.Hbond>
1.9654

> <Gold.Chemscore.Metal>
0.0000

> <Gold.Chemscore.Lipo>
91.1616

> <Gold.Chemscore.Internal_Hbond>
0.0000

> <Gold.Chemscore.DEClash>
0.0029

> <Gold.Chemscore.DEInternal>
1.3870

> <Gold.Chemscore.Rot>
2.6270

> <Gold.Chemscore.Internal.Correction>
   9.000000E+99

> <Gold.Chemscore.Hbonds>
donor molecule, donor type, donor heavy atom, donor atom, acceptor molecule, acceptor atom, score
      L1  H     9    31       P1  7957  0.98
      L1  H    12    35       P1 10175  0.43

> <Gold.Chemscore.Hbond.Weighted>
-6.5643

> <Gold.Chemscore.Metal.Weighted>
-0.0000

> <Gold.Chemscore.Lipo.Weighted>
-10.6659

> <Gold.Chemscore.Internal_Hbond.Weighted>
0.0000

> <Gold.Chemscore.DEClash.Weighted>
0.0029

> <Gold.Chemscore.DEInternal.Weighted>
1.3870

> <Gold.Chemscore.Rot.Weighted>
6.7251

> <Gold.Chemscore.Internal.Correction.Weighted>
   9.000000E+99

> <Gold.Protein.RotatedTorsions>
[ 6907 6896 6895 6894 ] final    0.00 input  -60.11 | X-H torsion
[ 7974 7965 7964 7962 ] final  127.56 input  175.53 | X-H torsion
[ 8008 7997 7996 7995 ] final  149.51 input   59.86 | X-H torsion
[ 10167 10162 10161 10158 ] final   91.13 input  -65.29 | X-H torsion
[ 10718 10713 10712 10709 ] final   -9.57 input   66.30 | X-H torsion
[ 10763 10752 10751 10750 ] final -159.81 input  -60.55 | X-H torsion
[ 11005 11000 10999 10996 ] final  -83.73 input  -57.11 | X-H torsion

> <Gold.Protein.ActiveResidues>
 VAL166  LYS551  ARG553  GLY616  TRP617  ASP618  TYR619  PRO620  LYS621  CYS622 
 ASP623  PHE694  ASN695  SER759  ASP760  ASP761  ALA762  ILE779  LEU786  VAL792 
 PHE793  MET794  SER795  GLU796  ALA797  LYS798  CYS799  TRP800  GLU811  SER814 

> <Gold.Protein.RotatedAtoms>
  151.5694  135.1063  159.9991 H   0  0  0  0  0  0  0  0  0  0  0  0  # atno 6907 bound_to 6896
  152.4408  133.7440  159.6668 H   0  0  0  0  0  0  0  0  0  0  0  0  # atno 6908 bound_to 6896
  150.8313  133.8017  159.3121 H   0  0  0  0  0  0  0  0  0  0  0  0  # atno 6909 bound_to 6896
  145.0492  139.3897  143.5062 H   0  0  0  0  0  0  0  0  0  0  0  0  # atno 7974 bound_to 7965
  156.2752  140.2100  156.5869 H   0  0  0  0  0  0  0  0  0  0  0  0  # atno 8008 bound_to 7997
  154.7013  140.0520  157.0484 H   0  0  0  0  0  0  0  0  0  0  0  0  # atno 8009 bound_to 7997
  155.0731  140.3179  155.4627 H   0  0  0  0  0  0  0  0  0  0  0  0  # atno 8010 bound_to 7997
  139.8404  144.6644  150.9290 H   0  0  0  0  0  0  0  0  0  0  0  0  # atno 10167 bound_to 10162
  156.6861  130.5051  149.5957 H   0  0  0  0  0  0  0  0  0  0  0  0  # atno 10718 bound_to 10713
  154.7443  135.3076  154.8673 H   0  0  0  0  0  0  0  0  0  0  0  0  # atno 10763 bound_to 10752
  153.9478  135.6767  153.4748 H   0  0  0  0  0  0  0  0  0  0  0  0  # atno 10764 bound_to 10752
  153.1040  135.4898  154.8844 H   0  0  0  0  0  0  0  0  0  0  0  0  # atno 10765 bound_to 10752
  141.1656  133.7309  156.8764 H   0  0  0  0  0  0  0  0  0  0  0  0  # atno 11005 bound_to 11000
  146.3516  140.0134  142.8665 LP  0  0  0  0  0  0  0  0  0  0  0  0  # atno 17320 bound_to 7965
  145.1548  140.9642  143.4411 LP  0  0  0  0  0  0  0  0  0  0  0  0  # atno 17321 bound_to 7965
  140.7798  143.3918  151.1298 LP  0  0  0  0  0  0  0  0  0  0  0  0  # atno 17342 bound_to 10162
  139.7564  143.8701  152.3090 LP  0  0  0  0  0  0  0  0  0  0  0  0  # atno 17343 bound_to 10162
  156.1832  130.6512  151.0975 LP  0  0  0  0  0  0  0  0  0  0  0  0  # atno 17370 bound_to 10713
  157.7026  131.0770  150.6772 LP  0  0  0  0  0  0  0  0  0  0  0  0  # atno 17371 bound_to 10713
  140.1746  134.9076  157.2874 LP  0  0  0  0  0  0  0  0  0  0  0  0  # atno 17394 bound_to 11000
  140.2464  134.3735  155.7460 LP  0  0  0  0  0  0  0  0  0  0  0  0  # atno 17395 bound_to 11000

$$$$
