AV-unprocessed.smi:2124|AV-procd|sdf|8657|dock8
  -GOLD-   2272011403D 1   1.00000     0.00000
 Structure written by MMmdl.
 47 49  0  0  0  0  0  0  0  0  1 V2000
  143.8364  146.1411  157.7564 C   0  0  0  0  0  0  0  0  0  0  0  0
  144.6187  144.9357  157.2787 C   0  0  0  0  0  0  0  0  0  0  0  0
  144.8282  144.6587  156.0336 N   0  0  0  0  0  0  0  0  0  0  0  0
  145.5667  143.5109  155.7138 C   0  0  0  0  0  0  0  0  0  0  0  0
  145.7652  143.2501  154.2304 C   0  0  0  0  0  0  0  0  0  0  0  0
  146.0659  142.6878  156.6822 C   0  0  0  0  0  0  0  0  0  0  0  0
  146.8672  141.4266  156.3626 C   0  0  0  0  0  0  0  0  0  0  0  0
  148.1652  141.2517  157.1546 C   0  0  0  0  0  0  0  0  0  0  0  0
  148.2854  140.3152  157.9446 O   0  0  0  0  0  0  0  0  0  0  0  0
  149.1284  142.1581  156.9239 N   0  0  0  0  0  0  0  0  0  0  0  0
  150.4619  142.1729  157.5243 C   0  0  1  0  0  0  0  0  0  0  0  0
  151.4561  141.5690  156.5204 C   0  0  0  0  0  0  0  0  0  0  0  0
  150.8396  143.6173  157.9352 C   0  0  1  0  0  0  0  0  0  0  0  0
  150.0330  144.1926  159.1230 C   0  0  0  0  0  0  0  0  0  0  0  0
  151.1282  144.7496  160.0508 C   0  0  1  0  0  0  0  0  0  0  0  0
  151.8453  143.5747  160.7404 C   0  0  0  0  0  0  0  0  0  0  0  0
  152.6818  142.9727  159.5971 C   0  0  0  0  0  0  0  0  0  0  0  0
  152.3011  143.8568  158.3913 C   0  0  2  0  0  0  0  0  0  0  0  0
  152.1818  145.2242  159.0571 C   0  0  0  0  0  0  0  0  0  0  0  0
  145.8220  143.0147  158.1005 C   0  0  0  0  0  0  0  0  0  0  0  0
  146.2206  142.3433  159.0508 O   0  0  0  0  0  0  0  0  0  0  0  0
  145.1016  144.1383  158.3149 N   0  0  0  0  0  0  0  0  0  0  0  0
  144.9065  144.4042  159.2689 H   0  0  0  0  0  0  0  0  0  0  0  0
  142.8119  146.0938  157.3869 H   0  0  0  0  0  0  0  0  0  0  0  0
  144.2939  147.0575  157.3831 H   0  0  0  0  0  0  0  0  0  0  0  0
  143.8042  146.1950  158.8453 H   0  0  0  0  0  0  0  0  0  0  0  0
  146.8252  143.2663  153.9765 H   0  0  0  0  0  0  0  0  0  0  0  0
  145.2656  144.0074  153.6247 H   0  0  0  0  0  0  0  0  0  0  0  0
  145.3554  142.2789  153.9524 H   0  0  0  0  0  0  0  0  0  0  0  0
  146.2261  140.5609  156.5340 H   0  0  0  0  0  0  0  0  0  0  0  0
  147.1112  141.3836  155.3008 H   0  0  0  0  0  0  0  0  0  0  0  0
  148.9276  142.8931  156.2612 H   0  0  0  0  0  0  0  0  0  0  0  0
  150.4625  141.5363  158.4092 H   0  0  0  0  0  0  0  0  0  0  0  0
  152.4555  141.4909  156.9484 H   0  0  0  0  0  0  0  0  0  0  0  0
  151.5269  142.1753  155.6169 H   0  0  0  0  0  0  0  0  0  0  0  0
  151.1522  140.5641  156.2248 H   0  0  0  0  0  0  0  0  0  0  0  0
  150.6635  144.2600  157.0703 H   0  0  0  0  0  0  0  0  0  0  0  0
  149.3653  144.9850  158.7825 H   0  0  0  0  0  0  0  0  0  0  0  0
  149.4236  143.4451  159.6318 H   0  0  0  0  0  0  0  0  0  0  0  0
  150.7688  145.5099  160.7448 H   0  0  0  0  0  0  0  0  0  0  0  0
  152.4919  143.9277  161.5447 H   0  0  0  0  0  0  0  0  0  0  0  0
  151.1445  142.8553  161.1660 H   0  0  0  0  0  0  0  0  0  0  0  0
  153.7456  143.0721  159.8176 H   0  0  0  0  0  0  0  0  0  0  0  0
  152.4847  141.9132  159.4405 H   0  0  0  0  0  0  0  0  0  0  0  0
  153.0249  143.8179  157.5766 H   0  0  0  0  0  0  0  0  0  0  0  0
  151.8222  146.0064  158.3861 H   0  0  0  0  0  0  0  0  0  0  0  0
  153.1058  145.5583  159.5326 H   0  0  0  0  0  0  0  0  0  0  0  0
  1  2  1  0  0  0  0
  1 24  1  0  0  0  0
  1 25  1  0  0  0  0
  1 26  1  0  0  0  0
  2 22  1  0  0  0  0
  2  3  2  0  0  0  0
  3  4  1  0  0  0  0
  4  5  1  0  0  0  0
  4  6  2  0  0  0  0
  5 27  1  0  0  0  0
  5 28  1  0  0  0  0
  5 29  1  0  0  0  0
  6  7  1  0  0  0  0
  6 20  1  0  0  0  0
  7  8  1  0  0  0  0
  7 30  1  0  0  0  0
  7 31  1  0  0  0  0
  8  9  2  0  0  0  0
  8 10  1  0  0  0  0
 10 11  1  0  0  0  0
 10 32  1  0  0  0  0
 11 12  1  0  0  0  0
 11 13  1  0  0  0  0
 11 33  1  0  0  0  0
 12 34  1  0  0  0  0
 12 35  1  0  0  0  0
 12 36  1  0  0  0  0
 13 18  1  0  0  0  0
 13 14  1  0  0  0  0
 13 37  1  0  0  0  0
 14 15  1  0  0  0  0
 14 38  1  0  0  0  0
 14 39  1  0  0  0  0
 15 19  1  0  0  0  0
 15 16  1  0  0  0  0
 15 40  1  0  0  0  0
 16 17  1  0  0  0  0
 16 41  1  0  0  0  0
 16 42  1  0  0  0  0
 17 18  1  0  0  0  0
 17 43  1  0  0  0  0
 17 44  1  0  0  0  0
 18 19  1  0  0  0  0
 18 45  1  0  0  0  0
 19 46  1  0  0  0  0
 19 47  1  0  0  0  0
 20 21  2  0  0  0  0
 20 22  1  0  0  0  0
 22 23  1  0  0  0  0
M  END
> <s_m_source_file>
AV-unprocessed.smi

> <i_m_source_file_index>
2124

> <i_lp_mmshare_version>
43012

> <i_f3d_flags>
0

> <s_epik_input>
W0NIM11jMW5jKFtDSDNdKWMoYyg9TylbbkhdMSlbQ0gyXUMoPU8pW05IXVtDQEhdKFtDSDNdKVtDQEhdKFtDSDJdW0NASF0yMylbQ0BIXShbQ0gyXTMpW0NIMl1bQ0gyXTI=

> <s_epik_cmdline>
J2VwaWtfcHl0aG9uJywgJy1waCcsICc3LjAnLCAnLXRuJywgJzgnLCAnLW1hJywgJzIwMCcsICctbWV0YWxfYmluZGluZycsICctaW1hZScsICc8aW5maWxlLm1hZT4nLCAnLW9tYWUnLCAnPG91dGZpbGUubWFlPic=

> <r_lp_tautomer_probability>
0.839158

> <r_epik_Ionization_Penalty>
0.000383628

> <r_epik_Ionization_Penalty_Charging>
0.00035045

> <r_epik_Ionization_Penalty_Neutral>
3.31781e-05

> <r_epik_State_Penalty>
0.09125

> <r_epik_Charging_Adjusted_Penalty>
0.0916005

> <i_epik_Tot_Q>
0

> <i_epik_Tot_abs_Q>
0

> <r_epik_Metal_State_Penalty>
0.255229

> <b_epik_Metal_Only>
0

> <s_lp_Force_Field>
OPLS_2005

> <r_lp_Energy>
52.5586

> <b_lp_Chiralities_Consistent>
1

> <s_lp_Variant>
AV-unprocessed.smi:2124-8

> <Gold.Version>
5.8.1

> <Gold.Id.Protein>
6NUR|6NUR_protein|mol2

> <Gold.PLP.Fitness>
46.0374

> <Gold.PLP.PLP>
-41.0640

> <Gold.PLP.part.hbond>
-2.7811

> <Gold.PLP.part.metal>
0.0000

> <Gold.PLP.part.buried>
-6.4218

> <Gold.PLP.part.nonpolar>
-32.3236

> <Gold.PLP.part.repulsive>
0.1622

> <Gold.PLP.ligand.clash>
0.0000

> <Gold.PLP.ligand.torsion>
0.5224

> <Gold.PLP.Chemscore.Hbond>
2.0000

> <Gold.PLP.Chemscore.CHOScore>
0.0000

> <Gold.PLP.Chemscore.Metal>
0.0000

> <Gold.Chemscore.Hbonds>
donor molecule, donor type, donor heavy atom, donor atom, acceptor molecule, acceptor atom, score
      L1  H    10    32       P1  8028  1.00
      P1  H  6934  6946       L1    21  0.26

> <Gold.PLP.Chemscore.Internal.Correction>
0.0182

> <Gold.Rescore>
     Score         DG    S(hbond)    S(metal)    S(lipo)     H(rot)  DE(clash)    DE(int)     intcor
     19.12     -20.72       1.95        0.00     110.71       1.65       0.22       1.38       ----

> <Gold.Chemscore.Fitness>
19.1212

> <Gold.Chemscore.DG>
-20.7198

> <Gold.Chemscore.ZeroCoef>
-5.4800

> <Gold.Chemscore.Hbond>
1.9519

> <Gold.Chemscore.Metal>
0.0000

> <Gold.Chemscore.Lipo>
110.7105

> <Gold.Chemscore.Internal_Hbond>
0.0000

> <Gold.Chemscore.DEClash>
0.2229

> <Gold.Chemscore.DEInternal>
1.3757

> <Gold.Chemscore.Rot>
1.6534

> <Gold.Chemscore.Internal.Correction>
   9.000000E+99

> <Gold.Chemscore.Hbonds>
donor molecule, donor type, donor heavy atom, donor atom, acceptor molecule, acceptor atom, score
      L1  H    10    32       P1  8028  0.97
      P1  H  6934  6946       L1    21  0.26

> <Gold.Chemscore.Hbond.Weighted>
-6.5192

> <Gold.Chemscore.Metal.Weighted>
-0.0000

> <Gold.Chemscore.Lipo.Weighted>
-12.9531

> <Gold.Chemscore.Internal_Hbond.Weighted>
0.0000

> <Gold.Chemscore.DEClash.Weighted>
0.2229

> <Gold.Chemscore.DEInternal.Weighted>
1.3757

> <Gold.Chemscore.Rot.Weighted>
4.2326

> <Gold.Chemscore.Internal.Correction.Weighted>
   9.000000E+99

> <Gold.Protein.RotatedTorsions>
[ 6907 6896 6895 6894 ] final    4.94 input  -60.11 | X-H torsion
[ 7974 7965 7964 7962 ] final -130.00 input  175.53 | X-H torsion
[ 8008 7997 7996 7995 ] final  163.36 input   59.86 | X-H torsion
[ 10167 10162 10161 10158 ] final  -47.62 input  -65.29 | X-H torsion
[ 10718 10713 10712 10709 ] final -119.49 input   66.30 | X-H torsion
[ 10763 10752 10751 10750 ] final   73.94 input  -60.55 | X-H torsion
[ 11005 11000 10999 10996 ] final   82.72 input  -57.11 | X-H torsion

> <Gold.Protein.ActiveResidues>
 VAL166  LYS551  ARG553  GLY616  TRP617  ASP618  TYR619  PRO620  LYS621  CYS622 
 ASP623  PHE694  ASN695  SER759  ASP760  ASP761  ALA762  ILE779  LEU786  VAL792 
 PHE793  MET794  SER795  GLU796  ALA797  LYS798  CYS799  TRP800  GLU811  SER814 

> <Gold.Protein.RotatedAtoms>
  151.6494  135.1003  160.0157 H   0  0  0  0  0  0  0  0  0  0  0  0  # atno 6907 bound_to 6896
  152.4009  133.6812  159.6324 H   0  0  0  0  0  0  0  0  0  0  0  0  # atno 6908 bound_to 6896
  150.7909  133.8709  159.3299 H   0  0  0  0  0  0  0  0  0  0  0  0  # atno 6909 bound_to 6896
  144.9517  140.7351  143.4784 H   0  0  0  0  0  0  0  0  0  0  0  0  # atno 7974 bound_to 7965
  156.1963  140.1725  156.7992 H   0  0  0  0  0  0  0  0  0  0  0  0  # atno 8008 bound_to 7997
  154.5533  140.0713  156.8735 H   0  0  0  0  0  0  0  0  0  0  0  0  # atno 8009 bound_to 7997
  155.2986  140.3360  155.4251 H   0  0  0  0  0  0  0  0  0  0  0  0  # atno 8010 bound_to 7997
  140.6767  143.2776  151.3953 H   0  0  0  0  0  0  0  0  0  0  0  0  # atno 10167 bound_to 10162
  156.1185  130.6304  150.9423 H   0  0  0  0  0  0  0  0  0  0  0  0  # atno 10718 bound_to 10713
  153.0554  135.5044  154.7968 H   0  0  0  0  0  0  0  0  0  0  0  0  # atno 10763 bound_to 10752
  154.6798  135.2966  154.9630 H   0  0  0  0  0  0  0  0  0  0  0  0  # atno 10764 bound_to 10752
  154.0420  135.6715  153.4844 H   0  0  0  0  0  0  0  0  0  0  0  0  # atno 10765 bound_to 10752
  139.9054  134.8092  156.2212 H   0  0  0  0  0  0  0  0  0  0  0  0  # atno 11005 bound_to 11000
  145.2834  139.1910  143.4778 LP  0  0  0  0  0  0  0  0  0  0  0  0  # atno 17320 bound_to 7965
  146.3323  140.2800  142.8610 LP  0  0  0  0  0  0  0  0  0  0  0  0  # atno 17321 bound_to 7965
  139.6063  144.1189  152.2253 LP  0  0  0  0  0  0  0  0  0  0  0  0  # atno 17342 bound_to 10162
  140.0590  144.5872  150.7278 LP  0  0  0  0  0  0  0  0  0  0  0  0  # atno 17343 bound_to 10162
  157.6368  131.0915  150.8331 LP  0  0  0  0  0  0  0  0  0  0  0  0  # atno 17370 bound_to 10713
  156.8431  130.5055  149.5319 LP  0  0  0  0  0  0  0  0  0  0  0  0  # atno 17371 bound_to 10713
  141.0404  133.6941  156.1588 LP  0  0  0  0  0  0  0  0  0  0  0  0  # atno 17394 bound_to 11000
  140.6963  134.4611  157.5587 LP  0  0  0  0  0  0  0  0  0  0  0  0  # atno 17395 bound_to 11000

$$$$
