AV-unprocessed.smi:703|AV-procd|sdf|3429|dock7
  -GOLD-   22720 0413D 1   1.00000     0.00000
 Structure written by MMmdl.
 38 39  0  0  0  0  0  0  0  0  2 V2000
  145.6261  134.4983  151.0202 C   0  0  0  0  0  0  0  0  0  0  0  0
  145.6505  136.0148  150.7867 C   0  0  0  0  0  0  0  0  0  0  0  0
  146.3077  136.7420  151.8976 N   0  3  2  0  0  0  0  0  0  0  0  0
  145.5907  136.7043  153.1862 C   0  0  0  0  0  0  0  0  0  0  0  0
  146.2344  137.8118  154.0242 C   0  0  2  0  0  0  0  0  0  0  0  0
  145.3123  138.3770  155.1129 C   0  0  0  0  0  0  0  0  0  0  0  0
  146.6934  138.8561  152.9893 C   0  0  1  0  0  0  0  0  0  0  0  0
  148.0836  139.2484  153.2392 N   0  0  0  0  0  0  0  0  0  0  0  0
  148.3812  140.5811  154.2912 S   0  0  0  0  0  0  0  0  0  0  0  0
  149.2497  141.5230  153.5686 O   0  0  0  0  0  0  0  0  0  0  0  0
  147.0818  141.0322  154.8127 O   0  0  0  0  0  0  0  0  0  0  0  0
  149.3329  139.8069  155.6657 C   0  0  0  0  0  0  0  0  0  0  0  0
  150.7131  139.4572  155.1872 C   0  0  0  0  0  0  0  0  0  0  0  0
  151.1562  138.2567  154.5665 C   0  0  0  0  0  0  0  0  0  0  0  0
  152.4852  138.4819  154.3496 C   0  0  0  0  0  0  0  0  0  0  0  0
  152.8378  139.7126  154.7990 O   0  0  0  0  0  0  0  0  0  0  0  0
  151.6999  140.3273  155.3337 N   0  0  0  0  0  0  0  0  0  0  0  0
  146.5575  138.1704  151.6199 C   0  0  0  0  0  0  0  0  0  0  0  0
  145.1963  133.9839  150.1605 H   0  0  0  0  0  0  0  0  0  0  0  0
  145.0257  134.2340  151.8910 H   0  0  0  0  0  0  0  0  0  0  0  0
  146.6318  134.1052  151.1716 H   0  0  0  0  0  0  0  0  0  0  0  0
  146.2004  136.2170  149.8665 H   0  0  0  0  0  0  0  0  0  0  0  0
  144.6383  136.3931  150.6369 H   0  0  0  0  0  0  0  0  0  0  0  0
  144.5332  136.9183  153.0206 H   0  0  0  0  0  0  0  0  0  0  0  0
  145.6675  135.7288  153.6675 H   0  0  0  0  0  0  0  0  0  0  0  0
  147.1112  137.3793  154.5104 H   0  0  0  0  0  0  0  0  0  0  0  0
  144.4127  138.8191  154.6838 H   0  0  0  0  0  0  0  0  0  0  0  0
  145.8209  139.1508  155.6890 H   0  0  0  0  0  0  0  0  0  0  0  0
  145.0022  137.5960  155.8074 H   0  0  0  0  0  0  0  0  0  0  0  0
  146.0526  139.7393  153.0115 H   0  0  0  0  0  0  0  0  0  0  0  0
  148.6078  139.3422  152.3695 H   0  0  0  0  0  0  0  0  0  0  0  0
  149.3655  140.5091  156.4994 H   0  0  0  0  0  0  0  0  0  0  0  0
  148.7991  138.9174  155.9996 H   0  0  0  0  0  0  0  0  0  0  0  0
  150.5888  137.3726  154.3171 H   0  0  0  0  0  0  0  0  0  0  0  0
  153.2758  137.8931  153.9085 H   0  0  0  0  0  0  0  0  0  0  0  0
  147.4316  138.3004  150.9799 H   0  0  0  0  0  0  0  0  0  0  0  0
  145.7005  138.5924  151.0916 H   0  0  0  0  0  0  0  0  0  0  0  0
  147.2115  136.3187  152.0535 H   0  0  0  0  0  0  0  0  0  0  0  0
  1  2  1  0  0  0  0
  1 19  1  0  0  0  0
  1 20  1  0  0  0  0
  1 21  1  0  0  0  0
  2  3  1  0  0  0  0
  2 22  1  0  0  0  0
  2 23  1  0  0  0  0
  3 18  1  0  0  0  0
  3  4  1  0  0  0  0
  3 38  1  0  0  0  0
  4  5  1  0  0  0  0
  4 24  1  0  0  0  0
  4 25  1  0  0  0  0
  5  6  1  0  0  0  0
  5  7  1  0  0  0  0
  5 26  1  0  0  0  0
  6 27  1  0  0  0  0
  6 28  1  0  0  0  0
  6 29  1  0  0  0  0
  7  8  1  0  0  0  0
  7 18  1  0  0  0  0
  7 30  1  0  0  0  0
  8  9  1  0  0  0  0
  8 31  1  0  0  0  0
  9 10  2  0  0  0  0
  9 11  2  0  0  0  0
  9 12  1  0  0  0  0
 12 13  1  0  0  0  0
 12 32  1  0  0  0  0
 12 33  1  0  0  0  0
 13 17  2  0  0  0  0
 13 14  1  0  0  0  0
 14 15  2  0  0  0  0
 14 34  1  0  0  0  0
 15 16  1  0  0  0  0
 15 35  1  0  0  0  0
 16 17  1  0  0  0  0
 18 36  1  0  0  0  0
 18 37  1  0  0  0  0
M  CHG  1   3   1
M  END
> <s_m_source_file>
AV-unprocessed.smi

> <i_m_source_file_index>
703

> <i_lp_mmshare_version>
43012

> <i_f3d_flags>
0

> <s_epik_input>
W0NIM11bQ0gyXU4xW0NIMl1bQ0BASF0oW0NIM10pW0NASF0oW0NIMl0xKVtOSF1TKD1PKSg9TylbQ0gyXWMyW2NIXVtjSF1vbjI=

> <s_epik_cmdline>
J2VwaWtfcHl0aG9uJywgJy1waCcsICc3LjAnLCAnLXRuJywgJzgnLCAnLW1hJywgJzIwMCcsICctbWV0YWxfYmluZGluZycsICctaW1hZScsICc8aW5maWxlLm1hZT4nLCAnLW9tYWUnLCAnPG91dGZpbGUubWFlPic=

> <r_epik_Ionization_Penalty>
0.00324529

> <r_epik_Ionization_Penalty_Charging>
0.0019384

> <r_epik_Ionization_Penalty_Neutral>
0.00130689

> <r_epik_State_Penalty>
0.00218682

> <r_epik_Charging_Adjusted_Penalty>
0.00412522

> <i_epik_Tot_Q>
1

> <i_epik_Tot_abs_Q>
1

> <r_epik_Metal_State_Penalty>
0.310831

> <b_epik_Metal_Only>
0

> <s_lp_Force_Field>
OPLS_2005

> <r_lp_Energy>
19.0381

> <b_lp_Chiralities_Consistent>
1

> <s_lp_Variant>
AV-unprocessed.smi:703-4

> <Gold.Version>
5.8.1

> <Gold.Id.Protein>
6NUR|6NUR_protein|mol2

> <Gold.PLP.Fitness>
43.5472

> <Gold.PLP.PLP>
-30.9335

> <Gold.PLP.part.hbond>
-7.0000

> <Gold.PLP.part.metal>
0.0000

> <Gold.PLP.part.buried>
-4.8770

> <Gold.PLP.part.nonpolar>
-21.5863

> <Gold.PLP.part.repulsive>
1.5873

> <Gold.PLP.ligand.clash>
0.0000

> <Gold.PLP.ligand.torsion>
0.9824

> <Gold.PLP.Chemscore.Hbond>
4.8078

> <Gold.PLP.Chemscore.CHOScore>
0.0000

> <Gold.PLP.Chemscore.Metal>
0.0000

> <Gold.Chemscore.Hbonds>
donor molecule, donor type, donor heavy atom, donor atom, acceptor molecule, acceptor atom, score
      L1  H     3    38       P1  7948  2.00
      L1  H     8    31       P1  7957  1.00
      P1  H  7997  8010       L1    16  0.96
      P1  H  8011  8017       L1    10  0.82

> <Gold.PLP.Chemscore.Internal.Correction>
0.1551

> <Gold.Rescore>
     Score         DG    S(hbond)    S(metal)    S(lipo)     H(rot)  DE(clash)    DE(int)     intcor
     19.56     -20.62       3.72        0.00      65.65       1.94       0.28       0.78       ----

> <Gold.Chemscore.Fitness>
19.5595

> <Gold.Chemscore.DG>
-20.6187

> <Gold.Chemscore.ZeroCoef>
-5.4800

> <Gold.Chemscore.Hbond>
3.7200

> <Gold.Chemscore.Metal>
0.0000

> <Gold.Chemscore.Lipo>
65.6451

> <Gold.Chemscore.Internal_Hbond>
0.0000

> <Gold.Chemscore.DEClash>
0.2841

> <Gold.Chemscore.DEInternal>
0.7751

> <Gold.Chemscore.Rot>
1.9400

> <Gold.Chemscore.Internal.Correction>
   9.000000E+99

> <Gold.Chemscore.Hbonds>
donor molecule, donor type, donor heavy atom, donor atom, acceptor molecule, acceptor atom, score
      L1  H     3    38       P1  7948  0.97
      L1  H     8    31       P1  7957  1.00
      P1  H  7989  7998       L1    10  0.01
      P1  H  7997  8010       L1    16  0.49
      P1  H  8011  8017       L1    10  0.81

> <Gold.Chemscore.Hbond.Weighted>
-12.4247

> <Gold.Chemscore.Metal.Weighted>
-0.0000

> <Gold.Chemscore.Lipo.Weighted>
-7.6805

> <Gold.Chemscore.Internal_Hbond.Weighted>
0.0000

> <Gold.Chemscore.DEClash.Weighted>
0.2841

> <Gold.Chemscore.DEInternal.Weighted>
0.7751

> <Gold.Chemscore.Rot.Weighted>
4.9665

> <Gold.Chemscore.Internal.Correction.Weighted>
   9.000000E+99

> <Gold.Protein.RotatedTorsions>
[ 6907 6896 6895 6894 ] final -164.69 input  -60.11 | X-H torsion
[ 7974 7965 7964 7962 ] final -175.28 input  175.53 | X-H torsion
[ 8008 7997 7996 7995 ] final   91.67 input   59.86 | X-H torsion
[ 10167 10162 10161 10158 ] final -133.25 input  -65.29 | X-H torsion
[ 10718 10713 10712 10709 ] final  -91.85 input   66.30 | X-H torsion
[ 10763 10752 10751 10750 ] final  163.66 input  -60.55 | X-H torsion
[ 11005 11000 10999 10996 ] final  -78.08 input  -57.11 | X-H torsion

> <Gold.Protein.ActiveResidues>
 VAL166  LYS551  ARG553  GLY616  TRP617  ASP618  TYR619  PRO620  LYS621  CYS622 
 ASP623  PHE694  ASN695  SER759  ASP760  ASP761  ALA762  ILE779  LEU786  VAL792 
 PHE793  MET794  SER795  GLU796  ALA797  LYS798  CYS799  TRP800  GLU811  SER814 

> <Gold.Protein.RotatedAtoms>
  151.4158  133.3713  159.2749 H   0  0  0  0  0  0  0  0  0  0  0  0  # atno 6907 bound_to 6896
  150.9330  134.8745  159.7574 H   0  0  0  0  0  0  0  0  0  0  0  0  # atno 6908 bound_to 6896
  152.5037  134.4103  159.9498 H   0  0  0  0  0  0  0  0  0  0  0  0  # atno 6909 bound_to 6896
  144.7128  140.1345  143.6396 H   0  0  0  0  0  0  0  0  0  0  0  0  # atno 7974 bound_to 7965
  156.0264  140.3335  155.7093 H   0  0  0  0  0  0  0  0  0  0  0  0  # atno 8008 bound_to 7997
  155.5948  140.0650  157.2766 H   0  0  0  0  0  0  0  0  0  0  0  0  # atno 8009 bound_to 7997
  154.4336  140.1821  156.1100 H   0  0  0  0  0  0  0  0  0  0  0  0  # atno 8010 bound_to 7997
  139.9002  143.6617  152.2596 H   0  0  0  0  0  0  0  0  0  0  0  0  # atno 10167 bound_to 10162
  155.9997  130.4964  150.5536 H   0  0  0  0  0  0  0  0  0  0  0  0  # atno 10718 bound_to 10713
  154.2971  135.2760  155.2628 H   0  0  0  0  0  0  0  0  0  0  0  0  # atno 10763 bound_to 10752
  154.5081  135.5790  153.6587 H   0  0  0  0  0  0  0  0  0  0  0  0  # atno 10764 bound_to 10752
  152.9906  135.6174  154.3139 H   0  0  0  0  0  0  0  0  0  0  0  0  # atno 10765 bound_to 10752
  141.1663  133.7048  156.7917 H   0  0  0  0  0  0  0  0  0  0  0  0  # atno 11005 bound_to 11000
  145.9257  139.2574  143.1355 LP  0  0  0  0  0  0  0  0  0  0  0  0  # atno 17320 bound_to 7965
  145.9574  140.8862  143.0228 LP  0  0  0  0  0  0  0  0  0  0  0  0  # atno 17321 bound_to 7965
  139.7032  144.7632  151.1237 LP  0  0  0  0  0  0  0  0  0  0  0  0  # atno 17342 bound_to 10162
  140.7708  143.5429  150.9291 LP  0  0  0  0  0  0  0  0  0  0  0  0  # atno 17343 bound_to 10162
  157.3456  131.0724  151.1754 LP  0  0  0  0  0  0  0  0  0  0  0  0  # atno 17370 bound_to 10713
  157.2588  130.6649  149.5965 LP  0  0  0  0  0  0  0  0  0  0  0  0  # atno 17371 bound_to 10713
  140.2320  134.8678  157.3487 LP  0  0  0  0  0  0  0  0  0  0  0  0  # atno 17394 bound_to 11000
  140.1881  134.4406  155.7732 LP  0  0  0  0  0  0  0  0  0  0  0  0  # atno 17395 bound_to 11000

$$$$
