AV-unprocessed.smi:485|AV-procd|sdf|2694|dock2
  -GOLD-   2262023123D 1   1.00000     0.00000
 Structure written by MMmdl.
 37 39  0  0  0  0  0  0  0  0  2 V2000
  152.3216  137.3833  153.4988 O   0  0  0  0  0  0  0  0  0  0  0  0
  152.2767  138.5883  154.2304 C   0  0  0  0  0  0  0  0  0  0  0  0
  150.9375  139.2443  154.1589 C   0  0  0  0  0  0  0  0  0  0  0  0
  149.8582  138.7825  153.4669 N   0  3  0  0  0  0  0  0  0  0  0  0
  148.7774  139.6469  153.6453 C   0  0  0  0  0  0  0  0  0  0  0  0
  147.4788  139.5955  153.1479 C   0  0  0  0  0  0  0  0  0  0  0  0
  146.6144  140.6444  153.5249 C   0  0  0  0  0  0  0  0  0  0  0  0
  147.0523  141.6911  154.3620 C   0  0  0  0  0  0  0  0  0  0  0  0
  148.3717  141.7326  154.8595 C   0  0  0  0  0  0  0  0  0  0  0  0
  149.2193  140.6897  154.4855 C   0  0  0  0  0  0  0  0  0  0  0  0
  150.5574  140.3986  154.7785 N   0  0  0  0  0  0  0  0  0  0  0  0
  151.3253  141.2966  155.6563 C   0  0  0  0  0  0  0  0  0  0  0  0
  151.6110  140.6867  157.0434 C   0  0  1  0  0  0  0  0  0  0  0  0
  152.6825  139.7666  156.9630 O   0  0  0  0  0  0  0  0  0  0  0  0
  151.8595  141.7723  158.0789 C   0  0  0  0  0  0  0  0  0  0  0  0
  151.2237  143.0293  157.9723 C   0  0  0  0  0  0  0  0  0  0  0  0
  151.4528  144.0255  158.9412 C   0  0  0  0  0  0  0  0  0  0  0  0
  152.3158  143.7703  160.0242 C   0  0  0  0  0  0  0  0  0  0  0  0
  152.9487  142.5177  160.1382 C   0  0  0  0  0  0  0  0  0  0  0  0
  152.7206  141.5213  159.1690 C   0  0  0  0  0  0  0  0  0  0  0  0
  151.8761  137.5130  152.6754 H   0  0  0  0  0  0  0  0  0  0  0  0
  152.5290  138.3844  155.2710 H   0  0  0  0  0  0  0  0  0  0  0  0
  153.0361  139.2680  153.8430 H   0  0  0  0  0  0  0  0  0  0  0  0
  147.1413  138.7953  152.5056 H   0  0  0  0  0  0  0  0  0  0  0  0
  145.5962  140.6468  153.1641 H   0  0  0  0  0  0  0  0  0  0  0  0
  146.3629  142.4794  154.6277 H   0  0  0  0  0  0  0  0  0  0  0  0
  148.6973  142.5426  155.4951 H   0  0  0  0  0  0  0  0  0  0  0  0
  152.2471  141.5905  155.1540 H   0  0  0  0  0  0  0  0  0  0  0  0
  150.7411  142.2108  155.7688 H   0  0  0  0  0  0  0  0  0  0  0  0
  150.7389  140.1124  157.3583 H   0  0  0  0  0  0  0  0  0  0  0  0
  152.3677  138.9179  157.2356 H   0  0  0  0  0  0  0  0  0  0  0  0
  150.5560  143.2335  157.1479 H   0  0  0  0  0  0  0  0  0  0  0  0
  150.9649  144.9852  158.8549 H   0  0  0  0  0  0  0  0  0  0  0  0
  152.4906  144.5340  160.7677 H   0  0  0  0  0  0  0  0  0  0  0  0
  153.6086  142.3205  160.9701 H   0  0  0  0  0  0  0  0  0  0  0  0
  153.2085  140.5628  159.2679 H   0  0  0  0  0  0  0  0  0  0  0  0
  149.8629  137.9326  152.9178 H   0  0  0  0  0  0  0  0  0  0  0  0
  1  2  1  0  0  0  0
  1 21  1  0  0  0  0
  2  3  1  0  0  0  0
  2 22  1  0  0  0  0
  2 23  1  0  0  0  0
  3 11  1  0  0  0  0
  3  4  2  0  0  0  0
  4  5  1  0  0  0  0
  4 37  1  0  0  0  0
  5 10  2  0  0  0  0
  5  6  1  0  0  0  0
  6  7  2  0  0  0  0
  6 24  1  0  0  0  0
  7  8  1  0  0  0  0
  7 25  1  0  0  0  0
  8  9  2  0  0  0  0
  8 26  1  0  0  0  0
  9 10  1  0  0  0  0
  9 27  1  0  0  0  0
 10 11  1  0  0  0  0
 11 12  1  0  0  0  0
 12 13  1  0  0  0  0
 12 28  1  0  0  0  0
 12 29  1  0  0  0  0
 13 14  1  0  0  0  0
 13 15  1  0  0  0  0
 13 30  1  0  0  0  0
 14 31  1  0  0  0  0
 15 20  1  0  0  0  0
 15 16  2  0  0  0  0
 16 17  1  0  0  0  0
 16 32  1  0  0  0  0
 17 18  2  0  0  0  0
 17 33  1  0  0  0  0
 18 19  1  0  0  0  0
 18 34  1  0  0  0  0
 19 20  2  0  0  0  0
 19 35  1  0  0  0  0
 20 36  1  0  0  0  0
M  CHG  1   4   1
M  END
> <s_m_source_file>
AV-unprocessed.smi

> <i_m_source_file_index>
485

> <i_lp_mmshare_version>
43012

> <i_f3d_flags>
0

> <s_epik_input>
W2NIXTFbY0hdW2NIXVtjSF1jKGMxMiluKGMobjIpW0NIMl1bT0hdKVtDSDJdW0NASF0oW09IXSljM1tjSF1bY0hdW2NIXVtjSF1bY0hdMw==

> <s_epik_cmdline>
J2VwaWtfcHl0aG9uJywgJy1waCcsICc3LjAnLCAnLXRuJywgJzgnLCAnLW1hJywgJzIwMCcsICctbWV0YWxfYmluZGluZycsICctaW1hZScsICc8aW5maWxlLm1hZT4nLCAnLW9tYWUnLCAnPG91dGZpbGUubWFlPic=

> <r_epik_Ionization_Penalty>
1.35643

> <r_epik_Ionization_Penalty_Charging>
1.35557

> <r_epik_Ionization_Penalty_Neutral>
0.000857128

> <r_epik_State_Penalty>
1.43401

> <r_epik_Charging_Adjusted_Penalty>
2.78958

> <i_epik_Tot_Q>
1

> <i_epik_Tot_abs_Q>
1

> <r_epik_Metal_State_Penalty>
5.47166

> <b_epik_Metal_Only>
0

> <s_lp_Force_Field>
OPLS_2005

> <r_lp_Energy>
14.7644

> <b_lp_Chiralities_Consistent>
1

> <s_lp_Variant>
AV-unprocessed.smi:485-4

> <Gold.Version>
5.8.1

> <Gold.Id.Protein>
6NUR|6NUR_protein|mol2

> <Gold.PLP.Fitness>
58.4557

> <Gold.PLP.PLP>
-46.2367

> <Gold.PLP.part.hbond>
-5.0000

> <Gold.PLP.part.metal>
0.0000

> <Gold.PLP.part.buried>
0.9957

> <Gold.PLP.part.nonpolar>
-42.3685

> <Gold.PLP.part.repulsive>
0.0648

> <Gold.PLP.ligand.clash>
0.0000

> <Gold.PLP.ligand.torsion>
1.0532

> <Gold.PLP.Chemscore.Hbond>
4.7600

> <Gold.PLP.Chemscore.CHOScore>
0.0000

> <Gold.PLP.Chemscore.Metal>
0.0000

> <Gold.Chemscore.Hbonds>
donor molecule, donor type, donor heavy atom, donor atom, acceptor molecule, acceptor atom, score
      L1  H     1    21       P1  7949  0.48
      L1  H     4    37       P1  7948  1.40
      P1  H  7997  8009       L1    14  1.00
      P1  H 10752 10765       L1     1  0.98

> <Gold.PLP.Chemscore.Internal.Correction>
0.0454

> <Gold.Rescore>
     Score         DG    S(hbond)    S(metal)    S(lipo)     H(rot)  DE(clash)    DE(int)     intcor
     21.48     -22.99       3.08        0.00     120.78       2.70       0.63       0.88       ----

> <Gold.Chemscore.Fitness>
21.4752

> <Gold.Chemscore.DG>
-22.9907

> <Gold.Chemscore.ZeroCoef>
-5.4800

> <Gold.Chemscore.Hbond>
3.0785

> <Gold.Chemscore.Metal>
0.0000

> <Gold.Chemscore.Lipo>
120.7780

> <Gold.Chemscore.Internal_Hbond>
0.0000

> <Gold.Chemscore.DEClash>
0.6308

> <Gold.Chemscore.DEInternal>
0.8847

> <Gold.Chemscore.Rot>
2.6963

> <Gold.Chemscore.Internal.Correction>
   9.000000E+99

> <Gold.Chemscore.Hbonds>
donor molecule, donor type, donor heavy atom, donor atom, acceptor molecule, acceptor atom, score
      L1  H     1    21       P1  7949  0.45
      L1  H     4    37       P1  7948  0.30
      P1  H  7997  8009       L1    14  0.99
      P1  H 10752 10765       L1     1  0.90

> <Gold.Chemscore.Hbond.Weighted>
-10.2821

> <Gold.Chemscore.Metal.Weighted>
-0.0000

> <Gold.Chemscore.Lipo.Weighted>
-14.1310

> <Gold.Chemscore.Internal_Hbond.Weighted>
0.0000

> <Gold.Chemscore.DEClash.Weighted>
0.6308

> <Gold.Chemscore.DEInternal.Weighted>
0.8847

> <Gold.Chemscore.Rot.Weighted>
6.9024

> <Gold.Chemscore.Internal.Correction.Weighted>
   9.000000E+99

> <Gold.Protein.RotatedTorsions>
[ 6907 6896 6895 6894 ] final -128.70 input  -60.11 | X-H torsion
[ 7974 7965 7964 7962 ] final  -63.66 input  175.53 | X-H torsion
[ 8008 7997 7996 7995 ] final  177.25 input   59.86 | X-H torsion
[ 10167 10162 10161 10158 ] final  -20.14 input  -65.29 | X-H torsion
[ 10718 10713 10712 10709 ] final  178.55 input   66.30 | X-H torsion
[ 10763 10752 10751 10750 ] final  133.38 input  -60.55 | X-H torsion
[ 11005 11000 10999 10996 ] final   93.06 input  -57.11 | X-H torsion

> <Gold.Protein.ActiveResidues>
 VAL166  LYS551  ARG553  GLY616  TRP617  ASP618  TYR619  PRO620  LYS621  CYS622 
 ASP623  PHE694  ASN695  SER759  ASP760  ASP761  ALA762  ILE779  LEU786  VAL792 
 PHE793  MET794  SER795  GLU796  ALA797  LYS798  CYS799  TRP800  GLU811  SER814 

> <Gold.Protein.RotatedAtoms>
  150.9207  133.6884  159.2832 H   0  0  0  0  0  0  0  0  0  0  0  0  # atno 6907 bound_to 6896
  151.4340  135.1011  159.9660 H   0  0  0  0  0  0  0  0  0  0  0  0  # atno 6908 bound_to 6896
  152.4978  133.8630  159.7315 H   0  0  0  0  0  0  0  0  0  0  0  0  # atno 6909 bound_to 6896
  145.7763  140.8786  143.0354 H   0  0  0  0  0  0  0  0  0  0  0  0  # atno 7974 bound_to 7965
  156.0677  140.1363  156.9866 H   0  0  0  0  0  0  0  0  0  0  0  0  # atno 8008 bound_to 7997
  154.4515  140.0978  156.6683 H   0  0  0  0  0  0  0  0  0  0  0  0  # atno 8009 bound_to 7997
  155.5278  140.3458  155.4422 H   0  0  0  0  0  0  0  0  0  0  0  0  # atno 8010 bound_to 7997
  140.7274  143.4751  151.0194 H   0  0  0  0  0  0  0  0  0  0  0  0  # atno 10167 bound_to 10162
  156.8889  130.9841  151.3052 H   0  0  0  0  0  0  0  0  0  0  0  0  # atno 10718 bound_to 10713
  153.8062  135.3135  155.3396 H   0  0  0  0  0  0  0  0  0  0  0  0  # atno 10763 bound_to 10752
  154.8069  135.4692  154.0419 H   0  0  0  0  0  0  0  0  0  0  0  0  # atno 10764 bound_to 10752
  153.1783  135.6889  153.8601 H   0  0  0  0  0  0  0  0  0  0  0  0  # atno 10765 bound_to 10752
  139.8815  134.8769  156.3664 H   0  0  0  0  0  0  0  0  0  0  0  0  # atno 11005 bound_to 11000
  144.6804  139.9926  143.7484 LP  0  0  0  0  0  0  0  0  0  0  0  0  # atno 17320 bound_to 7965
  146.0119  139.3177  143.0865 LP  0  0  0  0  0  0  0  0  0  0  0  0  # atno 17321 bound_to 7965
  139.8445  143.7519  152.3179 LP  0  0  0  0  0  0  0  0  0  0  0  0  # atno 17342 bound_to 10162
  139.7680  144.7486  151.0266 LP  0  0  0  0  0  0  0  0  0  0  0  0  # atno 17343 bound_to 10162
  157.6096  130.8573  149.8930 LP  0  0  0  0  0  0  0  0  0  0  0  0  # atno 17370 bound_to 10713
  156.0639  130.3695  150.0921 LP  0  0  0  0  0  0  0  0  0  0  0  0  # atno 17371 bound_to 10713
  140.9494  133.7461  156.0252 LP  0  0  0  0  0  0  0  0  0  0  0  0  # atno 17394 bound_to 11000
  140.8123  134.3385  157.5408 LP  0  0  0  0  0  0  0  0  0  0  0  0  # atno 17395 bound_to 11000

$$$$
