AV-unprocessed.smi:3119|AV-procd|sdf|11890|dock6
  -GOLD-   2272017273D 1   1.00000     0.00000
 Structure written by MMmdl.
 31 32  0  0  0  0  0  0  0  0  1 V2000
  151.5053  140.4369  155.3868 O   0  0  0  0  0  0  0  0  0  0  0  0
  150.3413  140.7697  155.6139 C   0  0  0  0  0  0  0  0  0  0  0  0
  149.8433  140.8985  156.8529 N   0  0  0  0  0  0  0  0  0  0  0  0
  150.5929  140.6699  158.0831 C   0  0  0  0  0  0  0  0  0  0  0  0
  151.9038  141.4736  158.1077 C   0  0  0  0  0  0  0  0  0  0  0  0
  151.7448  142.8103  158.8072 C   0  0  0  0  0  0  0  0  0  0  0  0
  152.3662  143.0527  160.0510 C   0  0  0  0  0  0  0  0  0  0  0  0
  152.1807  144.3092  160.6596 C   0  0  0  0  0  0  0  0  0  0  0  0
  151.3850  145.2694  160.0054 C   0  0  0  0  0  0  0  0  0  0  0  0
  150.8068  144.9287  158.7664 C   0  0  0  0  0  0  0  0  0  0  0  0
  150.9774  143.7268  158.1749 N   0  0  0  0  0  0  0  0  0  0  0  0
  149.3701  141.0643  154.4630 C   0  0  0  0  0  0  0  0  0  0  0  0
  148.0389  141.7000  154.9005 C   0  0  0  0  0  0  0  0  0  0  0  0
  147.3149  140.7404  153.9513 C   0  0  0  0  0  0  0  0  0  0  0  0
  148.5598  139.8488  153.9780 C   0  0  0  0  0  0  0  0  0  0  0  0
  148.8773  141.1763  156.9500 H   0  0  0  0  0  0  0  0  0  0  0  0
  149.9742  140.9173  158.9475 H   0  0  0  0  0  0  0  0  0  0  0  0
  150.8110  139.6040  158.1539 H   0  0  0  0  0  0  0  0  0  0  0  0
  152.6844  140.8974  158.6063 H   0  0  0  0  0  0  0  0  0  0  0  0
  152.2579  141.6520  157.0913 H   0  0  0  0  0  0  0  0  0  0  0  0
  152.9696  142.2953  160.5298 H   0  0  0  0  0  0  0  0  0  0  0  0
  152.6400  144.5321  161.6115 H   0  0  0  0  0  0  0  0  0  0  0  0
  151.2214  146.2436  160.4421 H   0  0  0  0  0  0  0  0  0  0  0  0
  150.1905  145.6401  158.2365 H   0  0  0  0  0  0  0  0  0  0  0  0
  149.8282  141.6055  153.6330 H   0  0  0  0  0  0  0  0  0  0  0  0
  147.7819  141.5299  155.9477 H   0  0  0  0  0  0  0  0  0  0  0  0
  147.9335  142.7516  154.6324 H   0  0  0  0  0  0  0  0  0  0  0  0
  146.4176  140.2807  154.3661 H   0  0  0  0  0  0  0  0  0  0  0  0
  147.1303  141.1775  152.9689 H   0  0  0  0  0  0  0  0  0  0  0  0
  148.8557  139.4734  152.9982 H   0  0  0  0  0  0  0  0  0  0  0  0
  148.4807  139.0392  154.7056 H   0  0  0  0  0  0  0  0  0  0  0  0
  1  2  2  0  0  0  0
  2  3  1  0  0  0  0
  2 12  1  0  0  0  0
  3  4  1  0  0  0  0
  3 16  1  0  0  0  0
  4  5  1  0  0  0  0
  4 17  1  0  0  0  0
  4 18  1  0  0  0  0
  5  6  1  0  0  0  0
  5 19  1  0  0  0  0
  5 20  1  0  0  0  0
  6 11  1  0  0  0  0
  6  7  2  0  0  0  0
  7  8  1  0  0  0  0
  7 21  1  0  0  0  0
  8  9  2  0  0  0  0
  8 22  1  0  0  0  0
  9 10  1  0  0  0  0
  9 23  1  0  0  0  0
 10 11  2  0  0  0  0
 10 24  1  0  0  0  0
 12 15  1  0  0  0  0
 12 13  1  0  0  0  0
 12 25  1  0  0  0  0
 13 14  1  0  0  0  0
 13 26  1  0  0  0  0
 13 27  1  0  0  0  0
 14 15  1  0  0  0  0
 14 28  1  0  0  0  0
 14 29  1  0  0  0  0
 15 30  1  0  0  0  0
 15 31  1  0  0  0  0
M  END
> <s_m_source_file>
AV-unprocessed.smi

> <i_m_source_file_index>
3119

> <i_lp_mmshare_version>
43012

> <i_f3d_flags>
0

> <s_epik_input>
W0NIMl0xW0NIMl1bQ0gyXVtDSF0xQyg9TylbTkhdW0NIMl1bQ0gyXWMyW2NIXVtjSF1bY0hdW2NIXW4y

> <s_epik_cmdline>
J2VwaWtfcHl0aG9uJywgJy1waCcsICc3LjAnLCAnLXRuJywgJzgnLCAnLW1hJywgJzIwMCcsICctbWV0YWxfYmluZGluZycsICctaW1hZScsICc8aW5maWxlLm1hZT4nLCAnLW9tYWUnLCAnPG91dGZpbGUubWFlPic=

> <r_epik_Ionization_Penalty>
0.0277532

> <r_epik_Ionization_Penalty_Charging>
0

> <r_epik_Ionization_Penalty_Neutral>
0.0277532

> <r_epik_State_Penalty>
0.022734

> <r_epik_Charging_Adjusted_Penalty>
0.022734

> <i_epik_Tot_Q>
0

> <i_epik_Tot_abs_Q>
0

> <r_epik_Metal_State_Penalty>
0.0217133

> <b_epik_Metal_Only>
0

> <s_lp_Force_Field>
OPLS_2005

> <r_lp_Energy>
9.15138

> <b_lp_Chiralities_Consistent>
1

> <s_lp_Variant>
AV-unprocessed.smi:3119-1

> <Gold.Version>
5.8.1

> <Gold.Id.Protein>
6NUR|6NUR_protein|mol2

> <Gold.PLP.Fitness>
38.4881

> <Gold.PLP.PLP>
-34.0308

> <Gold.PLP.part.hbond>
-1.0000

> <Gold.PLP.part.metal>
0.0000

> <Gold.PLP.part.buried>
-2.8023

> <Gold.PLP.part.nonpolar>
-30.6330

> <Gold.PLP.part.repulsive>
0.1852

> <Gold.PLP.ligand.clash>
0.0000

> <Gold.PLP.ligand.torsion>
0.7957

> <Gold.PLP.Chemscore.Hbond>
0.8800

> <Gold.PLP.Chemscore.CHOScore>
1.0000

> <Gold.PLP.Chemscore.Metal>
0.0000

> <Gold.Chemscore.Hbonds>
donor molecule, donor type, donor heavy atom, donor atom, acceptor molecule, acceptor atom, score
      P1  H  7989  7998       L1     1  0.86
      L1  C    10    24       P1  8029  1.00

> <Gold.PLP.Chemscore.Internal.Correction>
0.4086

> <Gold.Rescore>
     Score         DG    S(hbond)    S(metal)    S(lipo)     H(rot)  DE(clash)    DE(int)     intcor
     14.13     -16.17       0.94        0.00      96.15       1.44       0.03       2.00       ----

> <Gold.Chemscore.Fitness>
14.1349

> <Gold.Chemscore.DG>
-16.1722

> <Gold.Chemscore.ZeroCoef>
-5.4800

> <Gold.Chemscore.Hbond>
0.9356

> <Gold.Chemscore.Metal>
0.0000

> <Gold.Chemscore.Lipo>
96.1497

> <Gold.Chemscore.Internal_Hbond>
0.0000

> <Gold.Chemscore.DEClash>
0.0338

> <Gold.Chemscore.DEInternal>
2.0036

> <Gold.Chemscore.Rot>
1.4383

> <Gold.Chemscore.Internal.Correction>
   9.000000E+99

> <Gold.Chemscore.Hbonds>
donor molecule, donor type, donor heavy atom, donor atom, acceptor molecule, acceptor atom, score
      P1  H  7989  7998       L1     1  0.25

> <Gold.Chemscore.Hbond.Weighted>
-3.1248

> <Gold.Chemscore.Metal.Weighted>
-0.0000

> <Gold.Chemscore.Lipo.Weighted>
-11.2495

> <Gold.Chemscore.Internal_Hbond.Weighted>
0.0000

> <Gold.Chemscore.DEClash.Weighted>
0.0338

> <Gold.Chemscore.DEInternal.Weighted>
2.0036

> <Gold.Chemscore.Rot.Weighted>
3.6820

> <Gold.Chemscore.Internal.Correction.Weighted>
   9.000000E+99

> <Gold.Protein.RotatedTorsions>
[ 6907 6896 6895 6894 ] final  124.77 input  -60.11 | X-H torsion
[ 7974 7965 7964 7962 ] final    3.45 input  175.53 | X-H torsion
[ 8008 7997 7996 7995 ] final   69.41 input   59.86 | X-H torsion
[ 10167 10162 10161 10158 ] final  -11.99 input  -65.29 | X-H torsion
[ 10718 10713 10712 10709 ] final  -18.49 input   66.30 | X-H torsion
[ 10763 10752 10751 10750 ] final  -62.62 input  -60.55 | X-H torsion
[ 11005 11000 10999 10996 ] final   -3.80 input  -57.11 | X-H torsion

> <Gold.Protein.ActiveResidues>
 VAL166  LYS551  ARG553  GLY616  TRP617  ASP618  TYR619  PRO620  LYS621  CYS622 
 ASP623  PHE694  ASN695  SER759  ASP760  ASP761  ALA762  ILE779  LEU786  VAL792 
 PHE793  MET794  SER795  GLU796  ALA797  LYS798  CYS799  TRP800  GLU811  SER814 

> <Gold.Protein.RotatedAtoms>
  152.4050  133.6874  159.6347 H   0  0  0  0  0  0  0  0  0  0  0  0  # atno 6907 bound_to 6896
  150.7936  133.8725  159.3271 H   0  0  0  0  0  0  0  0  0  0  0  0  # atno 6908 bound_to 6896
  151.6482  135.1006  160.0207 H   0  0  0  0  0  0  0  0  0  0  0  0  # atno 6909 bound_to 6896
  146.2445  140.0683  142.8364 H   0  0  0  0  0  0  0  0  0  0  0  0  # atno 7974 bound_to 7965
  155.7232  140.3493  155.5025 H   0  0  0  0  0  0  0  0  0  0  0  0  # atno 8008 bound_to 7997
  155.9251  140.1074  157.1198 H   0  0  0  0  0  0  0  0  0  0  0  0  # atno 8009 bound_to 7997
  154.4076  140.1242  156.4716 H   0  0  0  0  0  0  0  0  0  0  0  0  # atno 8010 bound_to 7997
  140.7151  143.5580  150.9227 H   0  0  0  0  0  0  0  0  0  0  0  0  # atno 10167 bound_to 10162
  156.5588  130.4720  149.6416 H   0  0  0  0  0  0  0  0  0  0  0  0  # atno 10718 bound_to 10713
  154.3026  135.6231  153.5431 H   0  0  0  0  0  0  0  0  0  0  0  0  # atno 10763 bound_to 10752
  152.9838  135.5682  154.5266 H   0  0  0  0  0  0  0  0  0  0  0  0  # atno 10764 bound_to 10752
  154.4900  135.2867  155.1480 H   0  0  0  0  0  0  0  0  0  0  0  0  # atno 10765 bound_to 10752
  140.6733  133.9217  155.8508 H   0  0  0  0  0  0  0  0  0  0  0  0  # atno 11005 bound_to 11000
  145.0839  140.9239  143.4809 LP  0  0  0  0  0  0  0  0  0  0  0  0  # atno 17320 bound_to 7965
  145.0841  139.2938  143.5768 LP  0  0  0  0  0  0  0  0  0  0  0  0  # atno 17321 bound_to 7965
  139.9305  143.6499  152.3077 LP  0  0  0  0  0  0  0  0  0  0  0  0  # atno 17342 bound_to 10162
  139.6948  144.7642  151.1376 LP  0  0  0  0  0  0  0  0  0  0  0  0  # atno 17343 bound_to 10162
  156.2818  130.7075  151.1901 LP  0  0  0  0  0  0  0  0  0  0  0  0  # atno 17370 bound_to 10713
  157.7373  131.0553  150.5365 LP  0  0  0  0  0  0  0  0  0  0  0  0  # atno 17371 bound_to 10713
  141.0375  134.0669  157.3942 LP  0  0  0  0  0  0  0  0  0  0  0  0  # atno 17394 bound_to 11000
  139.8974  135.0150  156.7101 LP  0  0  0  0  0  0  0  0  0  0  0  0  # atno 17395 bound_to 11000

$$$$
