AV-unprocessed.smi:1231|AV-procd|sdf|5162|dock1
  -GOLD-   22720 4233D 1   1.00000     0.00000
 Structure written by MMmdl.
 42 43  0  0  0  0  0  0  0  0  1 V2000
  152.4257  138.4016  155.4934 C   0  0  0  0  0  0  0  0  0  0  0  0
  151.4249  139.0412  154.5160 C   0  0  1  0  0  0  0  0  0  0  0  0
  150.0907  138.2747  154.4142 C   0  0  0  0  0  0  0  0  0  0  0  0
  149.2402  138.4533  155.5868 N   0  0  0  0  0  0  0  0  0  0  0  0
  147.9838  137.7209  155.4332 C   0  0  0  0  0  0  0  0  0  0  0  0
  148.1231  136.1873  155.3905 C   0  0  0  0  0  0  0  0  0  0  0  0
  147.8393  135.6663  154.0588 N   0  0  0  0  0  0  0  0  0  0  0  0
  146.8113  134.8651  153.7449 C   0  0  0  0  0  0  0  0  0  0  0  0
  145.9785  134.4769  154.5647 O   0  0  0  0  0  0  0  0  0  0  0  0
  146.8225  134.5519  152.4370 N   0  0  0  0  0  0  0  0  0  0  0  0
  145.9116  133.7297  151.7218 C   0  0  0  0  0  0  0  0  0  0  0  0
  146.4932  132.9308  150.7115 C   0  0  0  0  0  0  0  0  0  0  0  0
  145.6751  132.0784  149.9450 C   0  0  0  0  0  0  0  0  0  0  0  0
  144.2941  132.0479  150.2082 C   0  0  0  0  0  0  0  0  0  0  0  0
  143.7956  132.8754  151.2312 C   0  0  0  0  0  0  0  0  0  0  0  0
  144.5780  133.6924  151.9675 N   0  0  0  0  0  0  0  0  0  0  0  0
  149.0320  139.8817  155.8069 C   0  0  0  0  0  0  0  0  0  0  0  0
  150.3612  140.6408  155.9705 C   0  0  2  0  0  0  0  0  0  0  0  0
  150.1480  142.1517  156.1100 C   0  0  0  0  0  0  0  0  0  0  0  0
  151.1832  140.4139  154.8275 O   0  0  0  0  0  0  0  0  0  0  0  0
  152.6915  137.3947  155.1712 H   0  0  0  0  0  0  0  0  0  0  0  0
  152.0218  138.3240  156.5026 H   0  0  0  0  0  0  0  0  0  0  0  0
  153.3451  138.9852  155.5449 H   0  0  0  0  0  0  0  0  0  0  0  0
  151.8927  139.0299  153.5312 H   0  0  0  0  0  0  0  0  0  0  0  0
  149.5567  138.6190  153.5267 H   0  0  0  0  0  0  0  0  0  0  0  0
  150.2922  137.2145  154.2572 H   0  0  0  0  0  0  0  0  0  0  0  0
  147.2948  138.0032  156.2307 H   0  0  0  0  0  0  0  0  0  0  0  0
  147.5091  138.0369  154.5031 H   0  0  0  0  0  0  0  0  0  0  0  0
  149.1222  135.8848  155.7086 H   0  0  0  0  0  0  0  0  0  0  0  0
  147.4204  135.7122  156.0737 H   0  0  0  0  0  0  0  0  0  0  0  0
  148.4749  135.9356  153.3223 H   0  0  0  0  0  0  0  0  0  0  0  0
  147.5727  134.9457  151.8890 H   0  0  0  0  0  0  0  0  0  0  0  0
  147.5564  132.9666  150.5222 H   0  0  0  0  0  0  0  0  0  0  0  0
  146.1008  131.4594  149.1689 H   0  0  0  0  0  0  0  0  0  0  0  0
  143.6343  131.4077  149.6416 H   0  0  0  0  0  0  0  0  0  0  0  0
  142.7412  132.8819  151.4652 H   0  0  0  0  0  0  0  0  0  0  0  0
  148.4695  140.3051  154.9732 H   0  0  0  0  0  0  0  0  0  0  0  0
  148.4330  140.0430  156.7021 H   0  0  0  0  0  0  0  0  0  0  0  0
  150.8759  140.2840  156.8630 H   0  0  0  0  0  0  0  0  0  0  0  0
  149.5242  142.3819  156.9741 H   0  0  0  0  0  0  0  0  0  0  0  0
  149.6618  142.5647  155.2258 H   0  0  0  0  0  0  0  0  0  0  0  0
  151.0991  142.6688  156.2394 H   0  0  0  0  0  0  0  0  0  0  0  0
  1  2  1  0  0  0  0
  1 21  1  0  0  0  0
  1 22  1  0  0  0  0
  1 23  1  0  0  0  0
  2 20  1  0  0  0  0
  2  3  1  0  0  0  0
  2 24  1  0  0  0  0
  3  4  1  0  0  0  0
  3 25  1  0  0  0  0
  3 26  1  0  0  0  0
  4  5  1  0  0  0  0
  4 17  1  0  0  0  0
  5  6  1  0  0  0  0
  5 27  1  0  0  0  0
  5 28  1  0  0  0  0
  6  7  1  0  0  0  0
  6 29  1  0  0  0  0
  6 30  1  0  0  0  0
  7  8  1  0  0  0  0
  7 31  1  0  0  0  0
  8  9  2  0  0  0  0
  8 10  1  0  0  0  0
 10 11  1  0  0  0  0
 10 32  1  0  0  0  0
 11 16  1  0  0  0  0
 11 12  2  0  0  0  0
 12 13  1  0  0  0  0
 12 33  1  0  0  0  0
 13 14  2  0  0  0  0
 13 34  1  0  0  0  0
 14 15  1  0  0  0  0
 14 35  1  0  0  0  0
 15 16  2  0  0  0  0
 15 36  1  0  0  0  0
 17 18  1  0  0  0  0
 17 37  1  0  0  0  0
 17 38  1  0  0  0  0
 18 19  1  0  0  0  0
 18 20  1  0  0  0  0
 18 39  1  0  0  0  0
 19 40  1  0  0  0  0
 19 41  1  0  0  0  0
 19 42  1  0  0  0  0
M  END
> <s_m_source_file>
AV-unprocessed.smi

> <i_m_source_file_index>
1231

> <i_lp_mmshare_version>
43012

> <i_f3d_flags>
0

> <s_epik_input>
W0NIM11bQ0BASF0xW0NIMl1OKFtDSDJdW0NASF0oTzEpW0NIM10pW0NIMl1bQ0gyXVtOSF1DKD1PKVtOSF1jMltjSF1bY0hdW2NIXVtjSF1uMg==

> <s_epik_cmdline>
J2VwaWtfcHl0aG9uJywgJy1waCcsICc3LjAnLCAnLXRuJywgJzgnLCAnLW1hJywgJzIwMCcsICctbWV0YWxfYmluZGluZycsICctaW1hZScsICc8aW5maWxlLm1hZT4nLCAnLW9tYWUnLCAnPG91dGZpbGUubWFlPic=

> <r_epik_Ionization_Penalty>
0.266037

> <r_epik_Ionization_Penalty_Charging>
0

> <r_epik_Ionization_Penalty_Neutral>
0.266037

> <r_epik_State_Penalty>
0.257924

> <r_epik_Charging_Adjusted_Penalty>
0.257924

> <i_epik_Tot_Q>
0

> <i_epik_Tot_abs_Q>
0

> <r_epik_Metal_State_Penalty>
0.257923

> <b_epik_Metal_Only>
0

> <s_lp_Force_Field>
OPLS_2005

> <r_lp_Energy>
24.2682

> <b_lp_Chiralities_Consistent>
1

> <s_lp_Variant>
AV-unprocessed.smi:1231-3

> <Gold.Version>
5.8.1

> <Gold.Id.Protein>
6NUR|6NUR_protein|mol2

> <Gold.PLP.Fitness>
43.1008

> <Gold.PLP.PLP>
-32.7862

> <Gold.PLP.part.hbond>
-2.8448

> <Gold.PLP.part.metal>
0.0000

> <Gold.PLP.part.buried>
-4.7204

> <Gold.PLP.part.nonpolar>
-26.0617

> <Gold.PLP.part.repulsive>
0.2862

> <Gold.PLP.ligand.clash>
0.0000

> <Gold.PLP.ligand.torsion>
0.6578

> <Gold.PLP.Chemscore.Hbond>
2.8720

> <Gold.PLP.Chemscore.CHOScore>
0.9972

> <Gold.PLP.Chemscore.Metal>
0.0000

> <Gold.Chemscore.Hbonds>
donor molecule, donor type, donor heavy atom, donor atom, acceptor molecule, acceptor atom, score
      L1  H     7    31       P1  7948  1.00
      L1  H    10    32       P1  7948  0.93
      P1  H  7989  7998       L1    20  0.56

> <Gold.PLP.Chemscore.Internal.Correction>
0.0227

> <Gold.Rescore>
     Score         DG    S(hbond)    S(metal)    S(lipo)     H(rot)  DE(clash)    DE(int)     intcor
     18.44     -19.74       2.71        0.00      77.75       1.52       0.01       1.29       ----

> <Gold.Chemscore.Fitness>
18.4391

> <Gold.Chemscore.DG>
-19.7443

> <Gold.Chemscore.ZeroCoef>
-5.4800

> <Gold.Chemscore.Hbond>
2.7091

> <Gold.Chemscore.Metal>
0.0000

> <Gold.Chemscore.Lipo>
77.7547

> <Gold.Chemscore.Internal_Hbond>
0.0000

> <Gold.Chemscore.DEClash>
0.0107

> <Gold.Chemscore.DEInternal>
1.2945

> <Gold.Chemscore.Rot>
1.5162

> <Gold.Chemscore.Internal.Correction>
   9.000000E+99

> <Gold.Chemscore.Hbonds>
donor molecule, donor type, donor heavy atom, donor atom, acceptor molecule, acceptor atom, score
      L1  H     7    31       P1  7948  0.95
      L1  H    10    32       P1  7948  0.71
      P1  H  7989  7998       L1    20  0.05

> <Gold.Chemscore.Hbond.Weighted>
-9.0485

> <Gold.Chemscore.Metal.Weighted>
-0.0000

> <Gold.Chemscore.Lipo.Weighted>
-9.0973

> <Gold.Chemscore.Internal_Hbond.Weighted>
0.0000

> <Gold.Chemscore.DEClash.Weighted>
0.0107

> <Gold.Chemscore.DEInternal.Weighted>
1.2945

> <Gold.Chemscore.Rot.Weighted>
3.8814

> <Gold.Chemscore.Internal.Correction.Weighted>
   9.000000E+99

> <Gold.Protein.RotatedTorsions>
[ 6907 6896 6895 6894 ] final -126.45 input  -60.11 | X-H torsion
[ 7974 7965 7964 7962 ] final   78.53 input  175.53 | X-H torsion
[ 8008 7997 7996 7995 ] final  -16.01 input   59.86 | X-H torsion
[ 10167 10162 10161 10158 ] final  169.60 input  -65.29 | X-H torsion
[ 10718 10713 10712 10709 ] final  -78.01 input   66.30 | X-H torsion
[ 10763 10752 10751 10750 ] final   62.87 input  -60.55 | X-H torsion
[ 11005 11000 10999 10996 ] final -173.63 input  -57.11 | X-H torsion

> <Gold.Protein.ActiveResidues>
 VAL166  LYS551  ARG553  GLY616  TRP617  ASP618  TYR619  PRO620  LYS621  CYS622 
 ASP623  PHE694  ASN695  SER759  ASP760  ASP761  ALA762  ILE779  LEU786  VAL792 
 PHE793  MET794  SER795  GLU796  ALA797  LYS798  CYS799  TRP800  GLU811  SER814 

> <Gold.Protein.RotatedAtoms>
  150.8971  133.7167  159.2888 H   0  0  0  0  0  0  0  0  0  0  0  0  # atno 6907 bound_to 6896
  151.4698  135.1043  159.9758 H   0  0  0  0  0  0  0  0  0  0  0  0  # atno 6908 bound_to 6896
  152.4855  133.8313  159.7160 H   0  0  0  0  0  0  0  0  0  0  0  0  # atno 6909 bound_to 6896
  145.6760  139.2510  143.1841 H   0  0  0  0  0  0  0  0  0  0  0  0  # atno 7974 bound_to 7965
  154.5086  140.2181  155.9201 H   0  0  0  0  0  0  0  0  0  0  0  0  # atno 8008 bound_to 7997
  156.1524  140.3158  155.8637 H   0  0  0  0  0  0  0  0  0  0  0  0  # atno 8009 bound_to 7997
  155.3912  140.0478  157.3031 H   0  0  0  0  0  0  0  0  0  0  0  0  # atno 8010 bound_to 7997
  139.4996  144.3688  151.9747 H   0  0  0  0  0  0  0  0  0  0  0  0  # atno 10167 bound_to 10162
  156.0129  130.4506  150.3432 H   0  0  0  0  0  0  0  0  0  0  0  0  # atno 10718 bound_to 10713
  152.9997  135.5449  154.6261 H   0  0  0  0  0  0  0  0  0  0  0  0  # atno 10763 bound_to 10752
  154.5549  135.2829  155.0976 H   0  0  0  0  0  0  0  0  0  0  0  0  # atno 10764 bound_to 10752
  154.2201  135.6452  153.5194 H   0  0  0  0  0  0  0  0  0  0  0  0  # atno 10765 bound_to 10752
  140.4836  134.6052  157.4928 H   0  0  0  0  0  0  0  0  0  0  0  0  # atno 11005 bound_to 11000
  146.1005  140.7549  142.9551 LP  0  0  0  0  0  0  0  0  0  0  0  0  # atno 17320 bound_to 7965
  144.7041  140.3780  143.7132 LP  0  0  0  0  0  0  0  0  0  0  0  0  # atno 17321 bound_to 7965
  140.3124  144.3523  150.6030 LP  0  0  0  0  0  0  0  0  0  0  0  0  # atno 17342 bound_to 10162
  140.5788  143.2174  151.7466 LP  0  0  0  0  0  0  0  0  0  0  0  0  # atno 17343 bound_to 10162
  157.1527  131.0325  151.2877 LP  0  0  0  0  0  0  0  0  0  0  0  0  # atno 17370 bound_to 10713
  157.4378  130.7527  149.7044 LP  0  0  0  0  0  0  0  0  0  0  0  0  # atno 17371 bound_to 10713
  139.9812  134.7135  155.9857 LP  0  0  0  0  0  0  0  0  0  0  0  0  # atno 17394 bound_to 11000
  141.1519  133.6547  156.4040 LP  0  0  0  0  0  0  0  0  0  0  0  0  # atno 17395 bound_to 11000

$$$$
