AV-unprocessed.smi:1|AV-procd|sdf|14|dock1
  -GOLD-   2262015103D 1   1.00000     0.00000
 Structure written by MMmdl.
 57 62  0  0  0  0  0  0  0  0  1 V2000
  147.5949  130.2649  153.7072 O   0  0  0  0  0  0  0  0  0  0  0  0
  147.6527  131.4846  153.5287 C   0  0  0  0  0  0  0  0  0  0  0  0
  148.4752  132.4170  154.1474 N   0  0  0  0  0  0  0  0  0  0  0  0
  148.0685  133.0401  155.2119 C   0  0  0  0  0  0  0  0  0  0  0  0
  146.8737  132.9866  155.9410 N   0  0  0  0  0  0  0  0  0  0  0  0
  146.5678  133.7519  157.0762 C   0  0  0  0  0  0  0  0  0  0  0  0
  147.3673  134.6276  157.6231 N   0  0  0  0  0  0  0  0  0  0  0  0
  148.5768  134.7135  156.9458 C   0  0  0  0  0  0  0  0  0  0  0  0
  148.9885  134.0213  155.8265 C   0  0  0  0  0  0  0  0  0  0  0  0
  150.2755  134.3961  155.4561 N   0  0  0  0  0  0  0  0  0  0  0  0
  150.5899  135.3034  156.3761 C   0  0  0  0  0  0  0  0  0  0  0  0
  149.6393  135.5474  157.2970 N   0  0  0  0  0  0  0  0  0  0  0  0
  149.7537  136.5116  158.4374 C   0  0  1  0  0  0  0  0  0  0  0  0
  151.1034  136.6792  158.7423 O   0  0  0  0  0  0  0  0  0  0  0  0
  151.3274  138.0142  159.1662 C   0  0  1  0  0  0  0  0  0  0  0  0
  152.8089  138.3867  159.0282 C   0  0  0  0  0  0  0  0  0  0  0  0
  152.9433  139.7987  159.0615 O   0  0  0  0  0  0  0  0  0  0  0  0
  153.3429  140.4139  160.1921 C   0  0  0  0  0  0  0  0  0  0  0  0
  153.9917  139.8570  161.0801 O   0  0  0  0  0  0  0  0  0  0  0  0
  152.9219  141.8433  160.2540 C   0  0  0  0  0  0  0  0  0  0  0  0
  152.7814  142.4701  161.5143 C   0  0  0  0  0  0  0  0  0  0  0  0
  152.3874  143.8193  161.6048 C   0  0  0  0  0  0  0  0  0  0  0  0
  152.1263  144.5576  160.4358 C   0  0  0  0  0  0  0  0  0  0  0  0
  152.2603  143.9449  159.1761 C   0  0  0  0  0  0  0  0  0  0  0  0
  152.6566  142.5964  159.0837 C   0  0  0  0  0  0  0  0  0  0  0  0
  150.3646  138.8395  158.3109 C   0  0  1  0  0  0  0  0  0  0  0  0
  150.9179  139.1533  157.0445 O   0  0  0  0  0  0  0  0  0  0  0  0
  149.7058  139.0174  155.9070 S   0  0  0  0  0  0  0  0  0  0  0  0
  149.0414  140.3246  155.7902 O   0  0  0  0  0  0  0  0  0  0  0  0
  150.2298  138.2926  154.7398 O   0  0  0  0  0  0  0  0  0  0  0  0
  148.6947  137.9993  156.7626 O   0  0  0  0  0  0  0  0  0  0  0  0
  149.1677  137.8987  158.1002 C   0  0  1  0  0  0  0  0  0  0  0  0
  146.7364  132.0867  152.5141 C   0  0  0  0  0  0  0  0  0  0  0  0
  146.7887  133.4715  152.2477 C   0  0  0  0  0  0  0  0  0  0  0  0
  145.9287  134.0390  151.2874 C   0  0  0  0  0  0  0  0  0  0  0  0
  145.0164  133.2242  150.5891 C   0  0  0  0  0  0  0  0  0  0  0  0
  144.9645  131.8412  150.8503 C   0  0  0  0  0  0  0  0  0  0  0  0
  145.8235  131.2721  151.8109 C   0  0  0  0  0  0  0  0  0  0  0  0
  145.5762  133.5588  157.4880 H   0  0  0  0  0  0  0  0  0  0  0  0
  151.5466  135.8047  156.3846 H   0  0  0  0  0  0  0  0  0  0  0  0
  149.2385  136.0265  159.2676 H   0  0  0  0  0  0  0  0  0  0  0  0
  151.0243  138.0791  160.2127 H   0  0  0  0  0  0  0  0  0  0  0  0
  153.3822  137.9552  159.8494 H   0  0  0  0  0  0  0  0  0  0  0  0
  153.2136  137.9785  158.1008 H   0  0  0  0  0  0  0  0  0  0  0  0
  152.9765  141.9235  162.4258 H   0  0  0  0  0  0  0  0  0  0  0  0
  152.2855  144.2877  162.5727 H   0  0  0  0  0  0  0  0  0  0  0  0
  151.8236  145.5921  160.5056 H   0  0  0  0  0  0  0  0  0  0  0  0
  152.0588  144.5102  158.2783 H   0  0  0  0  0  0  0  0  0  0  0  0
  152.7491  142.1570  158.1012 H   0  0  0  0  0  0  0  0  0  0  0  0
  150.0762  139.7688  158.8036 H   0  0  0  0  0  0  0  0  0  0  0  0
  148.3644  138.1172  158.8044 H   0  0  0  0  0  0  0  0  0  0  0  0
  147.4880  134.1024  152.7776 H   0  0  0  0  0  0  0  0  0  0  0  0
  145.9701  135.0992  151.0850 H   0  0  0  0  0  0  0  0  0  0  0  0
  144.3579  133.6604  149.8524 H   0  0  0  0  0  0  0  0  0  0  0  0
  144.2660  131.2162  150.3134 H   0  0  0  0  0  0  0  0  0  0  0  0
  145.7789  130.2101  152.0044 H   0  0  0  0  0  0  0  0  0  0  0  0
  146.1671  132.3426  155.6158 H   0  0  0  0  0  0  0  0  0  0  0  0
  1  2  2  0  0  0  0
  2  3  1  0  0  0  0
  2 33  1  0  0  0  0
  3  4  2  0  0  0  0
  4  9  1  0  0  0  0
  4  5  1  0  0  0  0
  5  6  1  0  0  0  0
  5 57  1  0  0  0  0
  6  7  2  0  0  0  0
  6 39  1  0  0  0  0
  7  8  1  0  0  0  0
  8 12  1  0  0  0  0
  8  9  2  0  0  0  0
  9 10  1  0  0  0  0
 10 11  2  0  0  0  0
 11 12  1  0  0  0  0
 11 40  1  0  0  0  0
 12 13  1  0  0  0  0
 13 32  1  0  0  0  0
 13 14  1  0  0  0  0
 13 41  1  0  0  0  0
 14 15  1  0  0  0  0
 15 16  1  0  0  0  0
 15 26  1  0  0  0  0
 15 42  1  0  0  0  0
 16 17  1  0  0  0  0
 16 43  1  0  0  0  0
 16 44  1  0  0  0  0
 17 18  1  0  0  0  0
 18 19  2  0  0  0  0
 18 20  1  0  0  0  0
 20 25  1  0  0  0  0
 20 21  2  0  0  0  0
 21 22  1  0  0  0  0
 21 45  1  0  0  0  0
 22 23  2  0  0  0  0
 22 46  1  0  0  0  0
 23 24  1  0  0  0  0
 23 47  1  0  0  0  0
 24 25  2  0  0  0  0
 24 48  1  0  0  0  0
 25 49  1  0  0  0  0
 26 32  1  0  0  0  0
 26 27  1  0  0  0  0
 26 50  1  0  0  0  0
 27 28  1  0  0  0  0
 28 29  2  0  0  0  0
 28 30  2  0  0  0  0
 28 31  1  0  0  0  0
 31 32  1  0  0  0  0
 32 51  1  0  0  0  0
 33 38  1  0  0  0  0
 33 34  2  0  0  0  0
 34 35  1  0  0  0  0
 34 52  1  0  0  0  0
 35 36  2  0  0  0  0
 35 53  1  0  0  0  0
 36 37  1  0  0  0  0
 36 54  1  0  0  0  0
 37 38  2  0  0  0  0
 37 55  1  0  0  0  0
 38 56  1  0  0  0  0
M  END
> <s_m_source_file>
AV-unprocessed.smi

> <i_m_source_file_index>
1

> <i_lp_mmshare_version>
43012

> <i_f3d_flags>
0

> <s_epik_input>
W2NIXTFbY0hdW2NIXVtjSF1bY0hdYzFDKD1PKVtOSF1jKG5bY0hdbjIpYyhjMjMpbltjSF1uM1tDQEBIXShbQ0BIXShbQ0BIXTQ1KU9TKE81KSg9Tyk9TylPW0NASF00W0NIMl1PQyg9TyljNltjSF1bY0hdW2NIXVtjSF1bY0hdNg==

> <s_epik_cmdline>
J2VwaWtfcHl0aG9uJywgJy1waCcsICc3LjAnLCAnLXRuJywgJzgnLCAnLW1hJywgJzIwMCcsICctbWV0YWxfYmluZGluZycsICctaW1hZScsICc8aW5maWxlLm1hZT4nLCAnLW9tYWUnLCAnPG91dGZpbGUubWFlPic=

> <r_epik_Ionization_Penalty>
0.122545

> <r_epik_Ionization_Penalty_Charging>
0.122545

> <r_epik_Ionization_Penalty_Neutral>
7.8935e-16

> <r_epik_State_Penalty>
2.69178

> <r_epik_Charging_Adjusted_Penalty>
2.81433

> <i_epik_Tot_Q>
0

> <i_epik_Tot_abs_Q>
0

> <r_epik_Metal_State_Penalty>
3.02665

> <b_epik_Metal_Only>
0

> <s_epik_Chemistry_Notes>
This compound has an ester and may undergo hydrolysis at high or low pH. This compound contains an acetal/aminal-like group ( X-CH(R)-Y where X, Y are N, S, or O) that may be acid/base labile, releasing an aldehyde.

> <s_lp_Force_Field>
OPLS_2005

> <r_lp_Energy>
60.6373

> <b_lp_Chiralities_Consistent>
1

> <s_lp_Variant>
AV-unprocessed.smi:1-14

> <Gold.Version>
5.8.1

> <Gold.Id.Protein>
6NUR|6NUR_protein|mol2

> <Gold.PLP.Fitness>
52.8140

> <Gold.PLP.PLP>
-55.3094

> <Gold.PLP.part.hbond>
-1.0000

> <Gold.PLP.part.metal>
0.0000

> <Gold.PLP.part.buried>
-10.3782

> <Gold.PLP.part.nonpolar>
-44.3624

> <Gold.PLP.part.repulsive>
0.5064

> <Gold.PLP.ligand.clash>
0.0000

> <Gold.PLP.ligand.torsion>
2.4705

> <Gold.PLP.Chemscore.Hbond>
0.5691

> <Gold.PLP.Chemscore.CHOScore>
0.0000

> <Gold.PLP.Chemscore.Metal>
0.0000

> <Gold.Chemscore.Hbonds>
donor molecule, donor type, donor heavy atom, donor atom, acceptor molecule, acceptor atom, score
      P1  H  6896  6907       L1    14  0.75

> <Gold.PLP.Chemscore.Internal.Correction>
0.7384

> <Gold.Rescore>
     Score         DG    S(hbond)    S(metal)    S(lipo)     H(rot)  DE(clash)    DE(int)     intcor
     14.70     -17.15       0.56        0.00     130.28       2.13       0.10       2.35       ----

> <Gold.Chemscore.Fitness>
14.7013

> <Gold.Chemscore.DG>
-17.1454

> <Gold.Chemscore.ZeroCoef>
-5.4800

> <Gold.Chemscore.Hbond>
0.5641

> <Gold.Chemscore.Metal>
0.0000

> <Gold.Chemscore.Lipo>
130.2780

> <Gold.Chemscore.Internal_Hbond>
0.0000

> <Gold.Chemscore.DEClash>
0.0961

> <Gold.Chemscore.DEInternal>
2.3481

> <Gold.Chemscore.Rot>
2.1333

> <Gold.Chemscore.Internal.Correction>
   9.000000E+99

> <Gold.Chemscore.Hbonds>
donor molecule, donor type, donor heavy atom, donor atom, acceptor molecule, acceptor atom, score
      P1  H  6896  6907       L1    14  0.35

> <Gold.Chemscore.Hbond.Weighted>
-1.8842

> <Gold.Chemscore.Metal.Weighted>
-0.0000

> <Gold.Chemscore.Lipo.Weighted>
-15.2425

> <Gold.Chemscore.Internal_Hbond.Weighted>
0.0000

> <Gold.Chemscore.DEClash.Weighted>
0.0961

> <Gold.Chemscore.DEInternal.Weighted>
2.3481

> <Gold.Chemscore.Rot.Weighted>
5.4614

> <Gold.Chemscore.Internal.Correction.Weighted>
   9.000000E+99

> <Gold.Protein.RotatedTorsions>
[ 6907 6896 6895 6894 ] final   -0.22 input  -60.11 | X-H torsion
[ 7974 7965 7964 7962 ] final -162.92 input  175.53 | X-H torsion
[ 8008 7997 7996 7995 ] final  -65.49 input   59.86 | X-H torsion
[ 10167 10162 10161 10158 ] final -127.90 input  -65.29 | X-H torsion
[ 10718 10713 10712 10709 ] final   91.42 input   66.30 | X-H torsion
[ 10763 10752 10751 10750 ] final   29.90 input  -60.55 | X-H torsion
[ 11005 11000 10999 10996 ] final  -94.49 input  -57.11 | X-H torsion

> <Gold.Protein.ActiveResidues>
 VAL166  LYS551  ARG553  GLY616  TRP617  ASP618  TYR619  PRO620  LYS621  CYS622 
 ASP623  PHE694  ASN695  SER759  ASP760  ASP761  ALA762  ILE779  LEU786  VAL792 
 PHE793  MET794  SER795  GLU796  ALA797  LYS798  CYS799  TRP800  GLU811  SER814 

> <Gold.Protein.RotatedAtoms>
  151.5657  135.1064  159.9983 H   0  0  0  0  0  0  0  0  0  0  0  0  # atno 6907 bound_to 6896
  152.4425  133.7470  159.6683 H   0  0  0  0  0  0  0  0  0  0  0  0  # atno 6908 bound_to 6896
  150.8333  133.7986  159.3113 H   0  0  0  0  0  0  0  0  0  0  0  0  # atno 6909 bound_to 6896
  144.7342  140.3182  143.6175 H   0  0  0  0  0  0  0  0  0  0  0  0  # atno 7974 bound_to 7965
  154.4675  140.0932  156.7059 H   0  0  0  0  0  0  0  0  0  0  0  0  # atno 8008 bound_to 7997
  155.4817  140.3468  155.4322 H   0  0  0  0  0  0  0  0  0  0  0  0  # atno 8009 bound_to 7997
  156.0982  140.1415  156.9491 H   0  0  0  0  0  0  0  0  0  0  0  0  # atno 8010 bound_to 7997
  139.9560  143.6003  152.2460 H   0  0  0  0  0  0  0  0  0  0  0  0  # atno 10167 bound_to 10162
  157.6960  131.0406  150.3726 H   0  0  0  0  0  0  0  0  0  0  0  0  # atno 10718 bound_to 10713
  153.0403  135.6477  154.0961 H   0  0  0  0  0  0  0  0  0  0  0  0  # atno 10763 bound_to 10752
  154.0669  135.2883  155.3316 H   0  0  0  0  0  0  0  0  0  0  0  0  # atno 10764 bound_to 10752
  154.6620  135.5388  153.8095 H   0  0  0  0  0  0  0  0  0  0  0  0  # atno 10765 bound_to 10752
  141.1469  133.7960  157.0305 H   0  0  0  0  0  0  0  0  0  0  0  0  # atno 11005 bound_to 11000
  145.7596  139.1820  143.2275 LP  0  0  0  0  0  0  0  0  0  0  0  0  # atno 17320 bound_to 7965
  146.0997  140.7558  142.9555 LP  0  0  0  0  0  0  0  0  0  0  0  0  # atno 17321 bound_to 7965
  139.6591  144.7662  151.1998 LP  0  0  0  0  0  0  0  0  0  0  0  0  # atno 17342 bound_to 10162
  140.7568  143.6039  150.8673 LP  0  0  0  0  0  0  0  0  0  0  0  0  # atno 17343 bound_to 10162
  156.4149  130.3941  149.6865 LP  0  0  0  0  0  0  0  0  0  0  0  0  # atno 17370 bound_to 10713
  156.4136  130.7734  151.2748 LP  0  0  0  0  0  0  0  0  0  0  0  0  # atno 17371 bound_to 10713
  140.0757  134.9677  157.1541 LP  0  0  0  0  0  0  0  0  0  0  0  0  # atno 17394 bound_to 11000
  140.3647  134.2455  155.7183 LP  0  0  0  0  0  0  0  0  0  0  0  0  # atno 17395 bound_to 11000

$$$$
