AV-unprocessed.smi:1633|AV-procd|sdf|6534|dock1
  -GOLD-   22720 7213D 1   1.00000     0.00000
 Structure written by MMmdl.
 52 54  0  0  0  0  0  0  0  0  3 V2000
  148.4358  132.2482  156.5291 C   0  0  0  0  0  0  0  0  0  0  0  0
  147.7652  133.6148  156.3723 C   0  0  0  0  0  0  0  0  0  0  0  0
  146.8689  133.9129  157.1612 O   0  0  0  0  0  0  0  0  0  0  0  0
  148.1725  134.4444  155.3818 N   0  0  0  0  0  0  0  0  0  0  0  0
  149.2706  134.1131  154.4693 C   0  0  0  0  0  0  0  0  0  0  0  0
  150.4430  135.0795  154.7165 C   0  0  0  0  0  0  0  0  0  0  0  0
  150.0146  136.4982  154.5915 N   0  3  0  0  0  0  0  0  0  0  0  0
  151.1415  137.4454  154.7946 C   0  0  0  0  0  0  0  0  0  0  0  0
  150.6717  138.8727  155.1425 C   0  0  2  0  0  0  0  0  0  0  0  0
  150.3456  139.5465  153.9425 O   0  0  0  0  0  0  0  0  0  0  0  0
  151.7594  139.6618  155.8981 C   0  0  0  0  0  0  0  0  0  0  0  0
  151.2590  140.9175  156.4772 N   0  0  0  0  0  0  0  0  0  0  0  0
  150.3106  141.7727  156.0057 C   0  0  0  0  0  0  0  0  0  0  0  0
  150.1932  142.7916  156.9014 N   0  3  0  0  0  0  0  0  0  0  0  0
  151.0775  142.5846  157.9618 C   0  0  0  0  0  0  0  0  0  0  0  0
  151.3227  143.3406  159.1018 C   0  0  0  0  0  0  0  0  0  0  0  0
  152.3004  142.8558  159.9993 C   0  0  0  0  0  0  0  0  0  0  0  0
  152.5975  143.6619  161.2524 C   0  0  0  0  0  0  0  0  0  0  0  0
  152.9925  141.6446  159.7402 C   0  0  0  0  0  0  0  0  0  0  0  0
  154.0407  141.1319  160.7132 C   0  0  0  0  0  0  0  0  0  0  0  0
  152.7273  140.8891  158.5755 C   0  0  0  0  0  0  0  0  0  0  0  0
  151.7633  141.3824  157.6988 C   0  0  0  0  0  0  0  0  0  0  0  0
  148.8153  136.8081  155.4184 C   0  0  0  0  0  0  0  0  0  0  0  0
  147.6775  135.8056  155.1529 C   0  0  0  0  0  0  0  0  0  0  0  0
  148.3016  131.6450  155.6307 H   0  0  0  0  0  0  0  0  0  0  0  0
  147.9998  131.7002  157.3652 H   0  0  0  0  0  0  0  0  0  0  0  0
  149.5023  132.3607  156.7265 H   0  0  0  0  0  0  0  0  0  0  0  0
  149.6163  133.0837  154.5742 H   0  0  0  0  0  0  0  0  0  0  0  0
  148.9194  134.2047  153.4404 H   0  0  0  0  0  0  0  0  0  0  0  0
  150.8560  134.9134  155.7131 H   0  0  0  0  0  0  0  0  0  0  0  0
  151.2408  134.8716  154.0025 H   0  0  0  0  0  0  0  0  0  0  0  0
  151.8009  137.0582  155.5728 H   0  0  0  0  0  0  0  0  0  0  0  0
  151.7422  137.4943  153.8848 H   0  0  0  0  0  0  0  0  0  0  0  0
  149.7792  138.8386  155.7664 H   0  0  0  0  0  0  0  0  0  0  0  0
  149.4182  139.4507  153.7862 H   0  0  0  0  0  0  0  0  0  0  0  0
  152.1430  139.0624  156.7246 H   0  0  0  0  0  0  0  0  0  0  0  0
  152.6151  139.8758  155.2569 H   0  0  0  0  0  0  0  0  0  0  0  0
  149.7500  141.6629  155.0885 H   0  0  0  0  0  0  0  0  0  0  0  0
  150.7909  144.2612  159.2939 H   0  0  0  0  0  0  0  0  0  0  0  0
  152.3567  143.0838  162.1448 H   0  0  0  0  0  0  0  0  0  0  0  0
  152.0134  144.5821  161.2832 H   0  0  0  0  0  0  0  0  0  0  0  0
  153.6517  143.9369  161.2914 H   0  0  0  0  0  0  0  0  0  0  0  0
  154.4376  140.1657  160.4005 H   0  0  0  0  0  0  0  0  0  0  0  0
  153.6135  141.0079  161.7086 H   0  0  0  0  0  0  0  0  0  0  0  0
  154.8753  141.8307  160.7779 H   0  0  0  0  0  0  0  0  0  0  0  0
  153.2592  139.9702  158.3791 H   0  0  0  0  0  0  0  0  0  0  0  0
  149.0874  136.7840  156.4751 H   0  0  0  0  0  0  0  0  0  0  0  0
  148.4562  137.8143  155.2067 H   0  0  0  0  0  0  0  0  0  0  0  0
  147.3426  135.8899  154.1179 H   0  0  0  0  0  0  0  0  0  0  0  0
  146.8120  136.0667  155.7600 H   0  0  0  0  0  0  0  0  0  0  0  0
  149.7312  136.6086  153.6277 H   0  0  0  0  0  0  0  0  0  0  0  0
  149.5536  143.5689  156.7957 H   0  0  0  0  0  0  0  0  0  0  0  0
  1  2  1  0  0  0  0
  1 25  1  0  0  0  0
  1 26  1  0  0  0  0
  1 27  1  0  0  0  0
  2  3  2  0  0  0  0
  2  4  1  0  0  0  0
  4 24  1  0  0  0  0
  4  5  1  0  0  0  0
  5  6  1  0  0  0  0
  5 28  1  0  0  0  0
  5 29  1  0  0  0  0
  6  7  1  0  0  0  0
  6 30  1  0  0  0  0
  6 31  1  0  0  0  0
  7  8  1  0  0  0  0
  7 23  1  0  0  0  0
  7 51  1  0  0  0  0
  8  9  1  0  0  0  0
  8 32  1  0  0  0  0
  8 33  1  0  0  0  0
  9 10  1  0  0  0  0
  9 11  1  0  0  0  0
  9 34  1  0  0  0  0
 10 35  1  0  0  0  0
 11 12  1  0  0  0  0
 11 36  1  0  0  0  0
 11 37  1  0  0  0  0
 12 22  1  0  0  0  0
 12 13  1  0  0  0  0
 13 14  2  0  0  0  0
 13 38  1  0  0  0  0
 14 15  1  0  0  0  0
 14 52  1  0  0  0  0
 15 22  2  0  0  0  0
 15 16  1  0  0  0  0
 16 17  2  0  0  0  0
 16 39  1  0  0  0  0
 17 18  1  0  0  0  0
 17 19  1  0  0  0  0
 18 40  1  0  0  0  0
 18 41  1  0  0  0  0
 18 42  1  0  0  0  0
 19 20  1  0  0  0  0
 19 21  2  0  0  0  0
 20 43  1  0  0  0  0
 20 44  1  0  0  0  0
 20 45  1  0  0  0  0
 21 22  1  0  0  0  0
 21 46  1  0  0  0  0
 23 24  1  0  0  0  0
 23 47  1  0  0  0  0
 23 48  1  0  0  0  0
 24 49  1  0  0  0  0
 24 50  1  0  0  0  0
M  CHG  1   7   1
M  CHG  1  14   1
M  END
> <s_m_source_file>
AV-unprocessed.smi

> <i_m_source_file_index>
1633

> <i_lp_mmshare_version>
43012

> <i_f3d_flags>
0

> <s_epik_input>
W0NIM11DKD1PKU4xW0NIMl1bQ0gyXU4oW0NIMl1bQ0gyXTEpW0NIMl1bQ0BIXShbT0hdKVtDSDJdbihbY0hdbjIpYyhjMjMpW2NIXWMoW0NIM10pYyhbY0hdMylbQ0gzXQ==

> <s_epik_cmdline>
J2VwaWtfcHl0aG9uJywgJy1waCcsICc3LjAnLCAnLXRuJywgJzgnLCAnLW1hJywgJzIwMCcsICctbWV0YWxfYmluZGluZycsICctaW1hZScsICc8aW5maWxlLm1hZT4nLCAnLW9tYWUnLCAnPG91dGZpbGUubWFlPic=

> <r_epik_Ionization_Penalty>
1.18448

> <r_epik_Ionization_Penalty_Charging>
1.18447

> <r_epik_Ionization_Penalty_Neutral>
4.53746e-06

> <r_epik_State_Penalty>
1.28566

> <r_epik_Charging_Adjusted_Penalty>
2.47013

> <i_epik_Tot_Q>
2

> <i_epik_Tot_abs_Q>
2

> <r_epik_Metal_State_Penalty>
5.30076

> <b_epik_Metal_Only>
0

> <s_lp_Force_Field>
OPLS_2005

> <r_lp_Energy>
52.9318

> <b_lp_Chiralities_Consistent>
1

> <s_lp_Variant>
AV-unprocessed.smi:1633-3

> <Gold.Version>
5.8.1

> <Gold.Id.Protein>
6NUR|6NUR_protein|mol2

> <Gold.PLP.Fitness>
58.2004

> <Gold.PLP.PLP>
-45.0239

> <Gold.PLP.part.hbond>
-4.0511

> <Gold.PLP.part.metal>
0.0000

> <Gold.PLP.part.buried>
-4.7828

> <Gold.PLP.part.nonpolar>
-36.0296

> <Gold.PLP.part.repulsive>
0.0811

> <Gold.PLP.ligand.clash>
0.0000

> <Gold.PLP.ligand.torsion>
0.9276

> <Gold.PLP.Chemscore.Hbond>
5.0000

> <Gold.PLP.Chemscore.CHOScore>
0.0000

> <Gold.PLP.Chemscore.Metal>
0.0000

> <Gold.Chemscore.Hbonds>
donor molecule, donor type, donor heavy atom, donor atom, acceptor molecule, acceptor atom, score
      L1  H     7    51       P1  7948  2.00
      L1  H    14    52       P1  8028  1.82
      P1  H  7989  7998       L1    10  1.00

> <Gold.PLP.Chemscore.Internal.Correction>
0.0318

> <Gold.Rescore>
     Score         DG    S(hbond)    S(metal)    S(lipo)     H(rot)  DE(clash)    DE(int)     intcor
     20.27     -22.00       2.58        0.00     116.01       2.22       0.05       1.68       ----

> <Gold.Chemscore.Fitness>
20.2673

> <Gold.Chemscore.DG>
-22.0027

> <Gold.Chemscore.ZeroCoef>
-5.4800

> <Gold.Chemscore.Hbond>
2.5830

> <Gold.Chemscore.Metal>
0.0000

> <Gold.Chemscore.Lipo>
116.0092

> <Gold.Chemscore.Internal_Hbond>
0.0000

> <Gold.Chemscore.DEClash>
0.0528

> <Gold.Chemscore.DEInternal>
1.6826

> <Gold.Chemscore.Rot>
2.2178

> <Gold.Chemscore.Internal.Correction>
   9.000000E+99

> <Gold.Chemscore.Hbonds>
donor molecule, donor type, donor heavy atom, donor atom, acceptor molecule, acceptor atom, score
      L1  H     7    51       P1  7948  0.50
      L1  H    14    52       P1  8028  0.87
      P1  H  7989  7998       L1    10  0.83

> <Gold.Chemscore.Hbond.Weighted>
-8.6271

> <Gold.Chemscore.Metal.Weighted>
-0.0000

> <Gold.Chemscore.Lipo.Weighted>
-13.5731

> <Gold.Chemscore.Internal_Hbond.Weighted>
0.0000

> <Gold.Chemscore.DEClash.Weighted>
0.0528

> <Gold.Chemscore.DEInternal.Weighted>
1.6826

> <Gold.Chemscore.Rot.Weighted>
5.6775

> <Gold.Chemscore.Internal.Correction.Weighted>
   9.000000E+99

> <Gold.Protein.RotatedTorsions>
[ 6907 6896 6895 6894 ] final -114.24 input  -60.11 | X-H torsion
[ 7974 7965 7964 7962 ] final  -10.31 input  175.53 | X-H torsion
[ 8008 7997 7996 7995 ] final -179.24 input   59.86 | X-H torsion
[ 10167 10162 10161 10158 ] final  132.08 input  -65.29 | X-H torsion
[ 10718 10713 10712 10709 ] final  157.19 input   66.30 | X-H torsion
[ 10763 10752 10751 10750 ] final   42.08 input  -60.55 | X-H torsion
[ 11005 11000 10999 10996 ] final -109.63 input  -57.11 | X-H torsion

> <Gold.Protein.ActiveResidues>
 VAL166  LYS551  ARG553  GLY616  TRP617  ASP618  TYR619  PRO620  LYS621  CYS622 
 ASP623  PHE694  ASN695  SER759  ASP760  ASP761  ALA762  ILE779  LEU786  VAL792 
 PHE793  MET794  SER795  GLU796  ALA797  LYS798  CYS799  TRP800  GLU811  SER814 

> <Gold.Protein.RotatedAtoms>
  150.7887  133.8830  159.3291 H   0  0  0  0  0  0  0  0  0  0  0  0  # atno 6907 bound_to 6896
  151.6674  135.0979  160.0201 H   0  0  0  0  0  0  0  0  0  0  0  0  # atno 6908 bound_to 6896
  152.3957  133.6704  159.6309 H   0  0  0  0  0  0  0  0  0  0  0  0  # atno 6909 bound_to 6896
  146.2225  140.2744  142.8358 H   0  0  0  0  0  0  0  0  0  0  0  0  # atno 7974 bound_to 7965
  156.0282  140.1276  157.0286 H   0  0  0  0  0  0  0  0  0  0  0  0  # atno 8008 bound_to 7997
  154.4339  140.1055  156.6132 H   0  0  0  0  0  0  0  0  0  0  0  0  # atno 8009 bound_to 7997
  155.5845  140.3468  155.4551 H   0  0  0  0  0  0  0  0  0  0  0  0  # atno 8010 bound_to 7997
  139.5355  144.6678  151.4801 H   0  0  0  0  0  0  0  0  0  0  0  0  # atno 10167 bound_to 10162
  157.1948  131.0663  151.2059 H   0  0  0  0  0  0  0  0  0  0  0  0  # atno 10718 bound_to 10713
  152.9892  135.6142  154.2892 H   0  0  0  0  0  0  0  0  0  0  0  0  # atno 10763 bound_to 10752
  154.2618  135.2782  155.2777 H   0  0  0  0  0  0  0  0  0  0  0  0  # atno 10764 bound_to 10752
  154.5199  135.5817  153.6730 H   0  0  0  0  0  0  0  0  0  0  0  0  # atno 10765 bound_to 10752
  141.0837  133.9176  157.2233 H   0  0  0  0  0  0  0  0  0  0  0  0  # atno 11005 bound_to 11000
  144.9243  140.7904  143.5728 LP  0  0  0  0  0  0  0  0  0  0  0  0  # atno 17320 bound_to 7965
  145.2683  139.1964  143.4855 LP  0  0  0  0  0  0  0  0  0  0  0  0  # atno 17321 bound_to 7965
  140.6559  143.8600  150.6834 LP  0  0  0  0  0  0  0  0  0  0  0  0  # atno 17342 bound_to 10162
  140.1980  143.3983  152.1813 LP  0  0  0  0  0  0  0  0  0  0  0  0  # atno 17343 bound_to 10162
  157.3825  130.7239  149.6640 LP  0  0  0  0  0  0  0  0  0  0  0  0  # atno 17370 bound_to 10713
  155.9707  130.4168  150.4250 LP  0  0  0  0  0  0  0  0  0  0  0  0  # atno 17371 bound_to 10713
  139.9653  135.0143  156.9369 LP  0  0  0  0  0  0  0  0  0  0  0  0  # atno 17394 bound_to 11000
  140.5412  134.0718  155.7342 LP  0  0  0  0  0  0  0  0  0  0  0  0  # atno 17395 bound_to 11000

$$$$
