AV-unprocessed.smi:1527|AV-procd|sdf|6149|dock3
  -GOLD-   22720 6293D 1   1.00000     0.00000
 Structure written by MMmdl.
 31 31  0  0  0  0  0  0  0  0  1 V2000
  152.4934  143.7558  161.8703 C   0  0  0  0  0  0  0  0  0  0  0  0
  152.3433  143.6184  160.3478 C   0  0  0  0  0  0  0  0  0  0  0  0
  152.2899  142.1575  159.8637 C   0  0  2  0  0  0  0  0  0  0  0  0
  153.5702  141.3888  160.2231 C   0  0  0  0  0  0  0  0  0  0  0  0
  152.0758  142.1142  158.4191 N   0  0  0  0  0  0  0  0  0  0  0  0
  151.0528  141.5076  157.7979 C   0  0  0  0  0  0  0  0  0  0  0  0
  150.1794  140.8728  158.3905 O   0  0  0  0  0  0  0  0  0  0  0  0
  151.0292  141.6230  156.2673 C   0  0  0  0  0  0  0  0  0  0  0  0
  150.9970  140.3157  155.5970 N   0  0  0  0  0  0  0  0  0  0  0  0
  149.9222  140.1435  154.7380 N   0  0  0  0  0  0  0  0  0  0  0  0
  149.7920  139.0401  154.0823 C   0  0  0  0  0  0  0  0  0  0  0  0
  148.7153  138.9138  153.2394 O   0  0  0  0  0  0  0  0  0  0  0  0
  150.7486  137.9650  154.2273 C   0  0  0  0  0  0  0  0  0  0  0  0
  151.7905  138.1407  155.0693 C   0  0  0  0  0  0  0  0  0  0  0  0
  151.9698  139.3804  155.8270 C   0  0  0  0  0  0  0  0  0  0  0  0
  152.9088  139.5679  156.6008 O   0  0  0  0  0  0  0  0  0  0  0  0
  148.7799  138.0424  152.8799 H   0  0  0  0  0  0  0  0  0  0  0  0
  152.5697  144.8043  162.1583 H   0  0  0  0  0  0  0  0  0  0  0  0
  153.3912  143.2480  162.2238 H   0  0  0  0  0  0  0  0  0  0  0  0
  151.6395  143.3314  162.3990 H   0  0  0  0  0  0  0  0  0  0  0  0
  151.4470  144.1494  160.0244 H   0  0  0  0  0  0  0  0  0  0  0  0
  153.1832  144.1234  159.8692 H   0  0  0  0  0  0  0  0  0  0  0  0
  151.4538  141.6740  160.3723 H   0  0  0  0  0  0  0  0  0  0  0  0
  153.7399  141.3922  161.3002 H   0  0  0  0  0  0  0  0  0  0  0  0
  154.4466  141.8299  159.7469 H   0  0  0  0  0  0  0  0  0  0  0  0
  153.5062  140.3475  159.9053 H   0  0  0  0  0  0  0  0  0  0  0  0
  152.7482  142.6052  157.8476 H   0  0  0  0  0  0  0  0  0  0  0  0
  150.1735  142.2227  155.9506 H   0  0  0  0  0  0  0  0  0  0  0  0
  151.9116  142.1864  155.9591 H   0  0  0  0  0  0  0  0  0  0  0  0
  150.6242  137.0472  153.6716 H   0  0  0  0  0  0  0  0  0  0  0  0
  152.5123  137.3462  155.1876 H   0  0  0  0  0  0  0  0  0  0  0  0
  1  2  1  0  0  0  0
  1 18  1  0  0  0  0
  1 19  1  0  0  0  0
  1 20  1  0  0  0  0
  2  3  1  0  0  0  0
  2 21  1  0  0  0  0
  2 22  1  0  0  0  0
  3  4  1  0  0  0  0
  3  5  1  0  0  0  0
  3 23  1  0  0  0  0
  4 24  1  0  0  0  0
  4 25  1  0  0  0  0
  4 26  1  0  0  0  0
  5  6  1  0  0  0  0
  5 27  1  0  0  0  0
  6  7  2  0  0  0  0
  6  8  1  0  0  0  0
  8 28  1  0  0  0  0
  8 29  1  0  0  0  0
  8  9  1  0  0  0  0
  9 10  1  0  0  0  0
  9 15  1  0  0  0  0
 10 11  2  0  0  0  0
 11 12  1  0  0  0  0
 11 13  1  0  0  0  0
 12 17  1  0  0  0  0
 13 30  1  0  0  0  0
 13 14  2  0  0  0  0
 14 31  1  0  0  0  0
 14 15  1  0  0  0  0
 15 16  2  0  0  0  0
M  END
> <s_m_source_file>
AV-unprocessed.smi

> <i_m_source_file_index>
1527

> <i_lp_mmshare_version>
43012

> <i_f3d_flags>
0

> <s_epik_input>
W0NIM11bQ0gyXVtDQEhdKFtDSDNdKVtOSF1DKD1PKVtDSDJdbjFbbkhdYyg9TylbY0hdW2NIXWMxPU8=

> <s_epik_cmdline>
J2VwaWtfcHl0aG9uJywgJy1waCcsICc3LjAnLCAnLXRuJywgJzgnLCAnLW1hJywgJzIwMCcsICctbWV0YWxfYmluZGluZycsICctaW1hZScsICc8aW5maWxlLm1hZT4nLCAnLW9tYWUnLCAnPG91dGZpbGUubWFlPic=

> <r_lp_tautomer_probability>
0.9996

> <r_epik_Ionization_Penalty>
2.12171

> <r_epik_Ionization_Penalty_Charging>
3.79077e-08

> <r_epik_Ionization_Penalty_Neutral>
2.12171

> <r_epik_State_Penalty>
1.69857

> <r_epik_Charging_Adjusted_Penalty>
1.69857

> <i_epik_Tot_Q>
0

> <i_epik_Tot_abs_Q>
0

> <r_epik_Metal_State_Penalty>
1.69857

> <b_epik_Metal_Only>
0

> <s_lp_Force_Field>
OPLS_2005

> <r_lp_Energy>
14.661

> <b_lp_Chiralities_Consistent>
1

> <s_lp_Variant>
AV-unprocessed.smi:1527-3

> <Gold.Version>
5.8.1

> <Gold.Id.Protein>
6NUR|6NUR_protein|mol2

> <Gold.PLP.Fitness>
43.8880

> <Gold.PLP.PLP>
-37.9628

> <Gold.PLP.part.hbond>
-3.3702

> <Gold.PLP.part.metal>
0.0000

> <Gold.PLP.part.buried>
-3.5483

> <Gold.PLP.part.nonpolar>
-30.8355

> <Gold.PLP.part.repulsive>
0.1558

> <Gold.PLP.ligand.clash>
0.0000

> <Gold.PLP.ligand.torsion>
0.0443

> <Gold.PLP.Chemscore.Hbond>
2.0000

> <Gold.PLP.Chemscore.CHOScore>
0.0000

> <Gold.PLP.Chemscore.Metal>
0.0000

> <Gold.Chemscore.Hbonds>
donor molecule, donor type, donor heavy atom, donor atom, acceptor molecule, acceptor atom, score
      L1  H    12    17       P1  7948  0.93
      P1  H  7997  8009       L1    16  1.00

> <Gold.PLP.Chemscore.Internal.Correction>
0.0138

> <Gold.Rescore>
     Score         DG    S(hbond)    S(metal)    S(lipo)     H(rot)  DE(clash)    DE(int)     intcor
     12.27     -13.46       1.97        0.00      68.57       2.58       0.01       1.18       ----

> <Gold.Chemscore.Fitness>
12.2726

> <Gold.Chemscore.DG>
-13.4647

> <Gold.Chemscore.ZeroCoef>
-5.4800

> <Gold.Chemscore.Hbond>
1.9664

> <Gold.Chemscore.Metal>
0.0000

> <Gold.Chemscore.Lipo>
68.5737

> <Gold.Chemscore.Internal_Hbond>
0.0000

> <Gold.Chemscore.DEClash>
0.0135

> <Gold.Chemscore.DEInternal>
1.1787

> <Gold.Chemscore.Rot>
2.5806

> <Gold.Chemscore.Internal.Correction>
   9.000000E+99

> <Gold.Chemscore.Hbonds>
donor molecule, donor type, donor heavy atom, donor atom, acceptor molecule, acceptor atom, score
      L1  H    12    17       P1  7948  0.89
      P1  H  7997  8009       L1    16  0.95

> <Gold.Chemscore.Hbond.Weighted>
-6.5679

> <Gold.Chemscore.Metal.Weighted>
-0.0000

> <Gold.Chemscore.Lipo.Weighted>
-8.0231

> <Gold.Chemscore.Internal_Hbond.Weighted>
0.0000

> <Gold.Chemscore.DEClash.Weighted>
0.0135

> <Gold.Chemscore.DEInternal.Weighted>
1.1787

> <Gold.Chemscore.Rot.Weighted>
6.6063

> <Gold.Chemscore.Internal.Correction.Weighted>
   9.000000E+99

> <Gold.Protein.RotatedTorsions>
[ 6907 6896 6895 6894 ] final   64.38 input  -60.11 | X-H torsion
[ 7974 7965 7964 7962 ] final  116.21 input  175.53 | X-H torsion
[ 8008 7997 7996 7995 ] final -153.29 input   59.86 | X-H torsion
[ 10167 10162 10161 10158 ] final  -69.08 input  -65.29 | X-H torsion
[ 10718 10713 10712 10709 ] final   93.55 input   66.30 | X-H torsion
[ 10763 10752 10751 10750 ] final   99.23 input  -60.55 | X-H torsion
[ 11005 11000 10999 10996 ] final  145.18 input  -57.11 | X-H torsion

> <Gold.Protein.ActiveResidues>
 VAL166  LYS551  ARG553  GLY616  TRP617  ASP618  TYR619  PRO620  LYS621  CYS622 
 ASP623  PHE694  ASN695  SER759  ASP760  ASP761  ALA762  ILE779  LEU786  VAL792 
 PHE793  MET794  SER795  GLU796  ALA797  LYS798  CYS799  TRP800  GLU811  SER814 

> <Gold.Protein.RotatedAtoms>
  152.4327  134.5747  159.9930 H   0  0  0  0  0  0  0  0  0  0  0  0  # atno 6907 bound_to 6896
  151.5866  133.3365  159.3027 H   0  0  0  0  0  0  0  0  0  0  0  0  # atno 6908 bound_to 6896
  150.8221  134.7470  159.6846 H   0  0  0  0  0  0  0  0  0  0  0  0  # atno 6909 bound_to 6896
  145.1825  139.3042  143.4410 H   0  0  0  0  0  0  0  0  0  0  0  0  # atno 7974 bound_to 7965
  155.6685  140.0730  157.2528 H   0  0  0  0  0  0  0  0  0  0  0  0  # atno 8008 bound_to 7997
  154.4128  140.1703  156.1904 H   0  0  0  0  0  0  0  0  0  0  0  0  # atno 8009 bound_to 7997
  155.9637  140.3368  155.6516 H   0  0  0  0  0  0  0  0  0  0  0  0  # atno 8010 bound_to 7997
  140.5458  143.2313  151.7004 H   0  0  0  0  0  0  0  0  0  0  0  0  # atno 10167 bound_to 10162
  157.6954  131.0482  150.4052 H   0  0  0  0  0  0  0  0  0  0  0  0  # atno 10718 bound_to 10713
  153.2989  135.4120  155.1234 H   0  0  0  0  0  0  0  0  0  0  0  0  # atno 10763 bound_to 10752
  154.8543  135.3536  154.5879 H   0  0  0  0  0  0  0  0  0  0  0  0  # atno 10764 bound_to 10752
  153.6304  135.7061  153.5336 H   0  0  0  0  0  0  0  0  0  0  0  0  # atno 10765 bound_to 10752
  140.0691  134.9162  157.1315 H   0  0  0  0  0  0  0  0  0  0  0  0  # atno 11005 bound_to 11000
  146.3450  140.2009  142.8589 LP  0  0  0  0  0  0  0  0  0  0  0  0  # atno 17320 bound_to 7965
  145.0122  140.8724  143.5217 LP  0  0  0  0  0  0  0  0  0  0  0  0  # atno 17321 bound_to 7965
  139.5007  144.3897  152.0292 LP  0  0  0  0  0  0  0  0  0  0  0  0  # atno 17342 bound_to 10162
  140.3010  144.3647  150.6060 LP  0  0  0  0  0  0  0  0  0  0  0  0  # atno 17343 bound_to 10162
  156.4441  130.3998  149.6678 LP  0  0  0  0  0  0  0  0  0  0  0  0  # atno 17370 bound_to 10713
  156.3851  130.7598  151.2595 LP  0  0  0  0  0  0  0  0  0  0  0  0  # atno 17371 bound_to 10713
  140.3654  134.2448  155.7183 LP  0  0  0  0  0  0  0  0  0  0  0  0  # atno 17394 bound_to 11000
  141.2005  133.7986  157.0487 LP  0  0  0  0  0  0  0  0  0  0  0  0  # atno 17395 bound_to 11000

$$$$
