AV-unprocessed.smi:1686|AV-procd|sdf|6763|dock5
  -GOLD-   22720 7523D 1   1.00000     0.00000
 Structure written by MMmdl.
 41 43  0  0  0  0  0  0  0  0  1 V2000
  151.0050  130.2398  155.0991 C   0  0  0  0  0  0  0  0  0  0  0  0
  150.5916  131.5431  155.7201 C   0  0  0  0  0  0  0  0  0  0  0  0
  150.8078  131.7374  157.0145 N   0  0  0  0  0  0  0  0  0  0  0  0
  150.3364  133.0229  157.3045 O   0  0  0  0  0  0  0  0  0  0  0  0
  149.8545  133.5378  156.1502 C   0  0  0  0  0  0  0  0  0  0  0  0
  149.1806  135.1167  156.0572 Cl  0  0  0  0  0  0  0  0  0  0  0  0
  149.9724  132.6700  155.1031 C   0  0  0  0  0  0  0  0  0  0  0  0
  149.5635  132.8511  153.6609 C   0  0  0  0  0  0  0  0  0  0  0  0
  148.0395  132.9202  153.5044 C   0  0  0  0  0  0  0  0  0  0  0  0
  147.3281  131.9389  153.7266 O   0  0  0  0  0  0  0  0  0  0  0  0
  147.5514  134.1066  153.1114 N   0  0  0  0  0  0  0  0  0  0  0  0
  146.1421  134.4107  152.8719 C   0  0  1  0  0  0  0  0  0  0  0  0
  145.9089  135.9174  153.0859 C   0  0  0  0  0  0  0  0  0  0  0  0
  145.7398  133.9513  151.4490 C   0  0  2  0  0  0  0  0  0  0  0  0
  144.2245  134.0845  151.1583 C   0  0  0  0  0  0  0  0  0  0  0  0
  143.8283  132.6760  150.6820 C   0  0  1  0  0  0  0  0  0  0  0  0
  144.4521  132.4041  149.3012 C   0  0  0  0  0  0  0  0  0  0  0  0
  145.9433  132.2164  149.6365 C   0  0  0  0  0  0  0  0  0  0  0  0
  145.9814  132.4464  151.1596 C   0  0  2  0  0  0  0  0  0  0  0  0
  144.6719  131.7969  151.5949 C   0  0  0  0  0  0  0  0  0  0  0  0
  150.8024  130.2239  154.0285 H   0  0  0  0  0  0  0  0  0  0  0  0
  150.4693  129.4038  155.5495 H   0  0  0  0  0  0  0  0  0  0  0  0
  152.0725  130.0633  155.2333 H   0  0  0  0  0  0  0  0  0  0  0  0
  149.9981  133.7599  153.2438 H   0  0  0  0  0  0  0  0  0  0  0  0
  149.9321  132.0318  153.0430 H   0  0  0  0  0  0  0  0  0  0  0  0
  148.2085  134.8564  152.9520 H   0  0  0  0  0  0  0  0  0  0  0  0
  145.5356  133.8618  153.5944 H   0  0  0  0  0  0  0  0  0  0  0  0
  144.8603  136.1845  152.9578 H   0  0  0  0  0  0  0  0  0  0  0  0
  146.4910  136.5123  152.3812 H   0  0  0  0  0  0  0  0  0  0  0  0
  146.1966  136.2215  154.0929 H   0  0  0  0  0  0  0  0  0  0  0  0
  146.3040  134.5497  150.7315 H   0  0  0  0  0  0  0  0  0  0  0  0
  143.6639  134.3367  152.0593 H   0  0  0  0  0  0  0  0  0  0  0  0
  144.0109  134.8513  150.4126 H   0  0  0  0  0  0  0  0  0  0  0  0
  142.7553  132.4865  150.7232 H   0  0  0  0  0  0  0  0  0  0  0  0
  144.0411  131.4962  148.8580 H   0  0  0  0  0  0  0  0  0  0  0  0
  144.2821  133.2250  148.6036 H   0  0  0  0  0  0  0  0  0  0  0  0
  146.2646  131.2033  149.3914 H   0  0  0  0  0  0  0  0  0  0  0  0
  146.5850  132.9087  149.0906 H   0  0  0  0  0  0  0  0  0  0  0  0
  146.8731  132.0281  151.6264 H   0  0  0  0  0  0  0  0  0  0  0  0
  144.4485  131.9302  152.6545 H   0  0  0  0  0  0  0  0  0  0  0  0
  144.6125  130.7349  151.3491 H   0  0  0  0  0  0  0  0  0  0  0  0
  1  2  1  0  0  0  0
  1 21  1  0  0  0  0
  1 22  1  0  0  0  0
  1 23  1  0  0  0  0
  2  7  1  0  0  0  0
  2  3  2  0  0  0  0
  3  4  1  0  0  0  0
  4  5  1  0  0  0  0
  5  6  1  0  0  0  0
  5  7  2  0  0  0  0
  7  8  1  0  0  0  0
  8  9  1  0  0  0  0
  8 24  1  0  0  0  0
  8 25  1  0  0  0  0
  9 10  2  0  0  0  0
  9 11  1  0  0  0  0
 11 12  1  0  0  0  0
 11 26  1  0  0  0  0
 12 13  1  0  0  0  0
 12 14  1  0  0  0  0
 12 27  1  0  0  0  0
 13 28  1  0  0  0  0
 13 29  1  0  0  0  0
 13 30  1  0  0  0  0
 14 19  1  0  0  0  0
 14 15  1  0  0  0  0
 14 31  1  0  0  0  0
 15 16  1  0  0  0  0
 15 32  1  0  0  0  0
 15 33  1  0  0  0  0
 16 20  1  0  0  0  0
 16 17  1  0  0  0  0
 16 34  1  0  0  0  0
 17 18  1  0  0  0  0
 17 35  1  0  0  0  0
 17 36  1  0  0  0  0
 18 19  1  0  0  0  0
 18 37  1  0  0  0  0
 18 38  1  0  0  0  0
 19 20  1  0  0  0  0
 19 39  1  0  0  0  0
 20 40  1  0  0  0  0
 20 41  1  0  0  0  0
M  END
> <s_m_source_file>
AV-unprocessed.smi

> <i_m_source_file_index>
1686

> <i_lp_mmshare_version>
43012

> <i_f3d_flags>
0

> <s_epik_input>
W0NIM11jMW5vYyhDbCljMVtDSDJdQyg9TylbTkhdW0NASF0oW0NIM10pW0NASF0oW0NIMl1bQ0BIXTIzKVtDQEhdKFtDSDJdMylbQ0gyXVtDSDJdMg==

> <s_epik_cmdline>
J2VwaWtfcHl0aG9uJywgJy1waCcsICc3LjAnLCAnLXRuJywgJzgnLCAnLW1hJywgJzIwMCcsICctbWV0YWxfYmluZGluZycsICctaW1hZScsICc8aW5maWxlLm1hZT4nLCAnLW9tYWUnLCAnPG91dGZpbGUubWFlPic=

> <r_lp_tautomer_probability>
1

> <r_epik_Ionization_Penalty>
2.01576e-08

> <r_epik_Ionization_Penalty_Charging>
0

> <r_epik_Ionization_Penalty_Neutral>
2.01576e-08

> <r_epik_State_Penalty>
-0

> <r_epik_Charging_Adjusted_Penalty>
0

> <i_epik_Tot_Q>
0

> <i_epik_Tot_abs_Q>
0

> <r_epik_Metal_State_Penalty>
-0

> <b_epik_Metal_Only>
0

> <s_lp_Force_Field>
OPLS_2005

> <r_lp_Energy>
46.9039

> <b_lp_Chiralities_Consistent>
1

> <s_lp_Variant>
AV-unprocessed.smi:1686-6

> <Gold.Version>
5.8.1

> <Gold.Id.Protein>
6NUR|6NUR_protein|mol2

> <Gold.PLP.Fitness>
42.4876

> <Gold.PLP.PLP>
-37.4252

> <Gold.PLP.part.hbond>
-2.0000

> <Gold.PLP.part.metal>
0.0000

> <Gold.PLP.part.buried>
-5.7785

> <Gold.PLP.part.nonpolar>
-30.3316

> <Gold.PLP.part.repulsive>
0.0740

> <Gold.PLP.ligand.clash>
0.0000

> <Gold.PLP.ligand.torsion>
0.4686

> <Gold.PLP.Chemscore.Hbond>
1.9913

> <Gold.PLP.Chemscore.CHOScore>
0.0000

> <Gold.PLP.Chemscore.Metal>
0.0000

> <Gold.Chemscore.Hbonds>
donor molecule, donor type, donor heavy atom, donor atom, acceptor molecule, acceptor atom, score
      L1  H    11    26       P1  7948  1.00
      P1  H  6896  6907       L1     4  0.86

> <Gold.PLP.Chemscore.Internal.Correction>
0.0258

> <Gold.Rescore>
     Score         DG    S(hbond)    S(metal)    S(lipo)     H(rot)  DE(clash)    DE(int)     intcor
     18.08     -18.60       1.88        0.00      90.40       1.46       0.00       0.51       ----

> <Gold.Chemscore.Fitness>
18.0826

> <Gold.Chemscore.DG>
-18.5952

> <Gold.Chemscore.ZeroCoef>
-5.4800

> <Gold.Chemscore.Hbond>
1.8828

> <Gold.Chemscore.Metal>
0.0000

> <Gold.Chemscore.Lipo>
90.3992

> <Gold.Chemscore.Internal_Hbond>
0.0000

> <Gold.Chemscore.DEClash>
0.0000

> <Gold.Chemscore.DEInternal>
0.5126

> <Gold.Chemscore.Rot>
1.4648

> <Gold.Chemscore.Internal.Correction>
   9.000000E+99

> <Gold.Chemscore.Hbonds>
donor molecule, donor type, donor heavy atom, donor atom, acceptor molecule, acceptor atom, score
      L1  H    11    26       P1  7948  0.75
      P1  H  6896  6907       L1     4  0.54

> <Gold.Chemscore.Hbond.Weighted>
-6.2884

> <Gold.Chemscore.Metal.Weighted>
-0.0000

> <Gold.Chemscore.Lipo.Weighted>
-10.5767

> <Gold.Chemscore.Internal_Hbond.Weighted>
0.0000

> <Gold.Chemscore.DEClash.Weighted>
0.0000

> <Gold.Chemscore.DEInternal.Weighted>
0.5126

> <Gold.Chemscore.Rot.Weighted>
3.7500

> <Gold.Chemscore.Internal.Correction.Weighted>
   9.000000E+99

> <Gold.Protein.RotatedTorsions>
[ 6907 6896 6895 6894 ] final -138.20 input  -60.11 | X-H torsion
[ 7974 7965 7964 7962 ] final  -74.79 input  175.53 | X-H torsion
[ 8008 7997 7996 7995 ] final  -86.59 input   59.86 | X-H torsion
[ 10167 10162 10161 10158 ] final -157.23 input  -65.29 | X-H torsion
[ 10718 10713 10712 10709 ] final  -73.56 input   66.30 | X-H torsion
[ 10763 10752 10751 10750 ] final  -26.86 input  -60.55 | X-H torsion
[ 11005 11000 10999 10996 ] final  -22.02 input  -57.11 | X-H torsion

> <Gold.Protein.ActiveResidues>
 VAL166  LYS551  ARG553  GLY616  TRP617  ASP618  TYR619  PRO620  LYS621  CYS622 
 ASP623  PHE694  ASN695  SER759  ASP760  ASP761  ALA762  ILE779  LEU786  VAL792 
 PHE793  MET794  SER795  GLU796  ALA797  LYS798  CYS799  TRP800  GLU811  SER814 

> <Gold.Protein.RotatedAtoms>
  151.0321  133.5781  159.2659 H   0  0  0  0  0  0  0  0  0  0  0  0  # atno 6907 bound_to 6896
  151.2859  135.0727  159.9196 H   0  0  0  0  0  0  0  0  0  0  0  0  # atno 6908 bound_to 6896
  152.5347  134.0027  159.7956 H   0  0  0  0  0  0  0  0  0  0  0  0  # atno 6909 bound_to 6896
  145.6345  140.9328  143.1069 H   0  0  0  0  0  0  0  0  0  0  0  0  # atno 7974 bound_to 7965
  154.6536  140.0576  156.9983 H   0  0  0  0  0  0  0  0  0  0  0  0  # atno 8008 bound_to 7997
  155.1334  140.3258  155.4450 H   0  0  0  0  0  0  0  0  0  0  0  0  # atno 8009 bound_to 7997
  156.2587  140.1976  156.6453 H   0  0  0  0  0  0  0  0  0  0  0  0  # atno 8010 bound_to 7997
  139.6787  143.9618  152.2325 H   0  0  0  0  0  0  0  0  0  0  0  0  # atno 10167 bound_to 10162
  156.0276  130.4397  150.2760 H   0  0  0  0  0  0  0  0  0  0  0  0  # atno 10718 bound_to 10713
  153.7228  135.6944  153.5008 H   0  0  0  0  0  0  0  0  0  0  0  0  # atno 10763 bound_to 10752
  153.2191  135.4376  155.0468 H   0  0  0  0  0  0  0  0  0  0  0  0  # atno 10764 bound_to 10752
  154.8279  135.3456  154.6761 H   0  0  0  0  0  0  0  0  0  0  0  0  # atno 10765 bound_to 10752
  140.8617  133.7783  156.0082 H   0  0  0  0  0  0  0  0  0  0  0  0  # atno 11005 bound_to 11000
  144.7181  139.8127  143.7392 LP  0  0  0  0  0  0  0  0  0  0  0  0  # atno 17320 bound_to 7965
  146.1330  139.4369  143.0157 LP  0  0  0  0  0  0  0  0  0  0  0  0  # atno 17321 bound_to 7965
  139.9402  144.6686  150.8274 LP  0  0  0  0  0  0  0  0  0  0  0  0  # atno 17342 bound_to 10162
  140.7645  143.3249  151.2538 LP  0  0  0  0  0  0  0  0  0  0  0  0  # atno 17343 bound_to 10162
  157.0863  131.0157  151.3138 LP  0  0  0  0  0  0  0  0  0  0  0  0  # atno 17370 bound_to 10713
  157.4888  130.7810  149.7487 LP  0  0  0  0  0  0  0  0  0  0  0  0  # atno 17371 bound_to 10713
  140.8675  134.2766  157.5206 LP  0  0  0  0  0  0  0  0  0  0  0  0  # atno 17394 bound_to 11000
  139.8707  134.9550  156.4193 LP  0  0  0  0  0  0  0  0  0  0  0  0  # atno 17395 bound_to 11000

$$$$
