AV-unprocessed.smi:1667|AV-procd|sdf|6675|dock8
  -GOLD-   22720 7393D 1   1.00000     0.00000
 Structure written by MMmdl.
 45 47  0  0  0  0  0  0  0  0  1 V2000
  150.5423  134.0810  154.0369 C   0  0  0  0  0  0  0  0  0  0  0  0
  151.1657  135.2970  154.7139 C   0  0  0  0  0  0  0  0  0  0  0  0
  151.8838  135.1468  155.7017 O   0  0  0  0  0  0  0  0  0  0  0  0
  150.8802  136.4938  154.1794 N   0  0  0  0  0  0  0  0  0  0  0  0
  151.3358  137.7834  154.6956 C   0  0  1  0  0  0  0  0  0  0  0  0
  152.6321  138.2283  154.0011 C   0  0  0  0  0  0  0  0  0  0  0  0
  150.2248  138.7851  154.5027 C   0  0  0  0  0  0  0  0  0  0  0  0
  149.1889  138.5429  153.6938 N   0  0  0  0  0  0  0  0  0  0  0  0
  148.4570  139.7094  153.7682 C   0  0  0  0  0  0  0  0  0  0  0  0
  147.2471  140.0741  153.1354 C   0  0  0  0  0  0  0  0  0  0  0  0
  146.6815  141.3468  153.3562 C   0  0  0  0  0  0  0  0  0  0  0  0
  147.3182  142.2711  154.2088 C   0  0  0  0  0  0  0  0  0  0  0  0
  148.5243  141.9266  154.8484 C   0  0  0  0  0  0  0  0  0  0  0  0
  149.0827  140.6522  154.6302 C   0  0  0  0  0  0  0  0  0  0  0  0
  150.2273  140.0093  155.0970 N   0  0  0  0  0  0  0  0  0  0  0  0
  151.2118  140.5781  156.0150 C   0  0  0  0  0  0  0  0  0  0  0  0
  150.7432  140.6369  157.4888 C   0  0  1  0  0  0  0  0  0  0  0  0
  150.9318  139.3840  158.1163 O   0  0  0  0  0  0  0  0  0  0  0  0
  151.3654  141.7835  158.2761 C   0  0  0  0  0  0  0  0  0  0  0  0
  151.2910  143.1140  157.8045 C   0  0  0  0  0  0  0  0  0  0  0  0
  151.8731  144.1634  158.5412 C   0  0  0  0  0  0  0  0  0  0  0  0
  152.5345  143.8906  159.7535 C   0  0  0  0  0  0  0  0  0  0  0  0
  152.6074  142.5685  160.2320 C   0  0  0  0  0  0  0  0  0  0  0  0
  153.2368  142.3062  161.4017 F   0  0  0  0  0  0  0  0  0  0  0  0
  152.0244  141.5187  159.4959 C   0  0  0  0  0  0  0  0  0  0  0  0
  151.5328  137.6603  155.7588 H   0  0  0  0  0  0  0  0  0  0  0  0
  149.7400  134.3701  153.3570 H   0  0  0  0  0  0  0  0  0  0  0  0
  150.1261  133.4063  154.7853 H   0  0  0  0  0  0  0  0  0  0  0  0
  151.2977  133.5389  153.4679 H   0  0  0  0  0  0  0  0  0  0  0  0
  150.2824  136.5223  153.3658 H   0  0  0  0  0  0  0  0  0  0  0  0
  152.9716  139.1882  154.3909 H   0  0  0  0  0  0  0  0  0  0  0  0
  152.4896  138.3379  152.9257 H   0  0  0  0  0  0  0  0  0  0  0  0
  153.4347  137.5075  154.1596 H   0  0  0  0  0  0  0  0  0  0  0  0
  146.7543  139.3743  152.4770 H   0  0  0  0  0  0  0  0  0  0  0  0
  145.7563  141.6158  152.8676 H   0  0  0  0  0  0  0  0  0  0  0  0
  146.8804  143.2449  154.3720 H   0  0  0  0  0  0  0  0  0  0  0  0
  149.0126  142.6337  155.5022 H   0  0  0  0  0  0  0  0  0  0  0  0
  152.1505  140.0316  155.9322 H   0  0  0  0  0  0  0  0  0  0  0  0
  151.4418  141.5871  155.6706 H   0  0  0  0  0  0  0  0  0  0  0  0
  149.6645  140.7984  157.4828 H   0  0  0  0  0  0  0  0  0  0  0  0
  150.8851  138.7091  157.4565 H   0  0  0  0  0  0  0  0  0  0  0  0
  150.7803  143.3368  156.8789 H   0  0  0  0  0  0  0  0  0  0  0  0
  151.8099  145.1784  158.1776 H   0  0  0  0  0  0  0  0  0  0  0  0
  152.9786  144.6957  160.3203 H   0  0  0  0  0  0  0  0  0  0  0  0
  152.0843  140.5082  159.8724 H   0  0  0  0  0  0  0  0  0  0  0  0
  1  2  1  0  0  0  0
  1 27  1  0  0  0  0
  1 28  1  0  0  0  0
  1 29  1  0  0  0  0
  2  3  2  0  0  0  0
  2  4  1  0  0  0  0
  4  5  1  0  0  0  0
  4 30  1  0  0  0  0
  5 26  1  0  0  0  0
  5  6  1  0  0  0  0
  5  7  1  0  0  0  0
  6 31  1  0  0  0  0
  6 32  1  0  0  0  0
  6 33  1  0  0  0  0
  7 15  1  0  0  0  0
  7  8  2  0  0  0  0
  8  9  1  0  0  0  0
  9 14  2  0  0  0  0
  9 10  1  0  0  0  0
 10 11  2  0  0  0  0
 10 34  1  0  0  0  0
 11 12  1  0  0  0  0
 11 35  1  0  0  0  0
 12 13  2  0  0  0  0
 12 36  1  0  0  0  0
 13 14  1  0  0  0  0
 13 37  1  0  0  0  0
 14 15  1  0  0  0  0
 15 16  1  0  0  0  0
 16 17  1  0  0  0  0
 16 38  1  0  0  0  0
 16 39  1  0  0  0  0
 17 18  1  0  0  0  0
 17 19  1  0  0  0  0
 17 40  1  0  0  0  0
 18 41  1  0  0  0  0
 19 25  1  0  0  0  0
 19 20  2  0  0  0  0
 20 21  1  0  0  0  0
 20 42  1  0  0  0  0
 21 22  2  0  0  0  0
 21 43  1  0  0  0  0
 22 23  1  0  0  0  0
 22 44  1  0  0  0  0
 23 24  1  0  0  0  0
 23 25  2  0  0  0  0
 25 45  1  0  0  0  0
M  END
> <s_m_source_file>
AV-unprocessed.smi

> <i_m_source_file_index>
1667

> <i_lp_mmshare_version>
43012

> <i_f3d_flags>
0

> <s_epik_input>
W0NIM11DKD1PKVtOSF1bQ0BASF0oW0NIM10pYyhuMSluKGMoYzEyKVtjSF1bY0hdW2NIXVtjSF0yKVtDSDJdW0NASF0oW09IXSljM1tjSF1bY0hdW2NIXWMoRilbY0hdMw==

> <s_epik_cmdline>
J2VwaWtfcHl0aG9uJywgJy1waCcsICc3LjAnLCAnLXRuJywgJzgnLCAnLW1hJywgJzIwMCcsICctbWV0YWxfYmluZGluZycsICctaW1hZScsICc8aW5maWxlLm1hZT4nLCAnLW9tYWUnLCAnPG91dGZpbGUubWFlPic=

> <r_epik_Ionization_Penalty>
0.133011

> <r_epik_Ionization_Penalty_Charging>
0

> <r_epik_Ionization_Penalty_Neutral>
0.133011

> <r_epik_State_Penalty>
0.122384

> <r_epik_Charging_Adjusted_Penalty>
0.122384

> <i_epik_Tot_Q>
0

> <i_epik_Tot_abs_Q>
0

> <r_epik_Metal_State_Penalty>
0.0997374

> <b_epik_Metal_Only>
0

> <s_lp_Force_Field>
OPLS_2005

> <r_lp_Energy>
5.5788

> <b_lp_Chiralities_Consistent>
1

> <s_lp_Variant>
AV-unprocessed.smi:1667-3

> <Gold.Version>
5.8.1

> <Gold.Id.Protein>
6NUR|6NUR_protein|mol2

> <Gold.PLP.Fitness>
57.7035

> <Gold.PLP.PLP>
-54.0458

> <Gold.PLP.part.hbond>
-2.9754

> <Gold.PLP.part.metal>
0.0000

> <Gold.PLP.part.buried>
0.4169

> <Gold.PLP.part.nonpolar>
-50.2899

> <Gold.PLP.part.repulsive>
1.1037

> <Gold.PLP.ligand.clash>
0.0000

> <Gold.PLP.ligand.torsion>
1.1458

> <Gold.PLP.Chemscore.Hbond>
1.9516

> <Gold.PLP.Chemscore.CHOScore>
0.0000

> <Gold.PLP.Chemscore.Metal>
0.0000

> <Gold.Chemscore.Hbonds>
donor molecule, donor type, donor heavy atom, donor atom, acceptor molecule, acceptor atom, score
      L1  H     4    30       P1  7948  0.40
      P1  H 10752 10763       L1     3  0.73

> <Gold.PLP.Chemscore.Internal.Correction>
0.0945

> <Gold.Rescore>
     Score         DG    S(hbond)    S(metal)    S(lipo)     H(rot)  DE(clash)    DE(int)     intcor
     13.98     -16.28       0.29        0.00     138.12       2.48       1.24       1.05       ----

> <Gold.Chemscore.Fitness>
13.9807

> <Gold.Chemscore.DG>
-16.2770

> <Gold.Chemscore.ZeroCoef>
-5.4800

> <Gold.Chemscore.Hbond>
0.2920

> <Gold.Chemscore.Metal>
0.0000

> <Gold.Chemscore.Lipo>
138.1216

> <Gold.Chemscore.Internal_Hbond>
0.0000

> <Gold.Chemscore.DEClash>
1.2434

> <Gold.Chemscore.DEInternal>
1.0529

> <Gold.Chemscore.Rot>
2.4760

> <Gold.Chemscore.Internal.Correction>
   9.000000E+99

> <Gold.Chemscore.Hbonds>
donor molecule, donor type, donor heavy atom, donor atom, acceptor molecule, acceptor atom, score
      L1  H     4    30       P1  7948  0.01
      P1  H 10752 10763       L1     3  0.21

> <Gold.Chemscore.Hbond.Weighted>
-0.9752

> <Gold.Chemscore.Metal.Weighted>
-0.0000

> <Gold.Chemscore.Lipo.Weighted>
-16.1602

> <Gold.Chemscore.Internal_Hbond.Weighted>
0.0000

> <Gold.Chemscore.DEClash.Weighted>
1.2434

> <Gold.Chemscore.DEInternal.Weighted>
1.0529

> <Gold.Chemscore.Rot.Weighted>
6.3385

> <Gold.Chemscore.Internal.Correction.Weighted>
   9.000000E+99

> <Gold.Protein.RotatedTorsions>
[ 6907 6896 6895 6894 ] final    3.75 input  -60.11 | X-H torsion
[ 7974 7965 7964 7962 ] final   54.80 input  175.53 | X-H torsion
[ 8008 7997 7996 7995 ] final -116.46 input   59.86 | X-H torsion
[ 10167 10162 10161 10158 ] final   -5.97 input  -65.29 | X-H torsion
[ 10718 10713 10712 10709 ] final  173.78 input   66.30 | X-H torsion
[ 10763 10752 10751 10750 ] final   96.74 input  -60.55 | X-H torsion
[ 11005 11000 10999 10996 ] final   21.41 input  -57.11 | X-H torsion

> <Gold.Protein.ActiveResidues>
 VAL166  LYS551  ARG553  GLY616  TRP617  ASP618  TYR619  PRO620  LYS621  CYS622 
 ASP623  PHE694  ASN695  SER759  ASP760  ASP761  ALA762  ILE779  LEU786  VAL792 
 PHE793  MET794  SER795  GLU796  ALA797  LYS798  CYS799  TRP800  GLU811  SER814 

> <Gold.Protein.RotatedAtoms>
  151.6301  135.1023  160.0119 H   0  0  0  0  0  0  0  0  0  0  0  0  # atno 6907 bound_to 6896
  152.4111  133.6960  159.6407 H   0  0  0  0  0  0  0  0  0  0  0  0  # atno 6908 bound_to 6896
  150.8001  133.8540  159.3254 H   0  0  0  0  0  0  0  0  0  0  0  0  # atno 6909 bound_to 6896
  145.9571  139.4025  143.0271 H   0  0  0  0  0  0  0  0  0  0  0  0  # atno 7974 bound_to 7965
  155.0682  140.0393  157.2599 H   0  0  0  0  0  0  0  0  0  0  0  0  # atno 8008 bound_to 7997
  154.7004  140.2672  155.6701 H   0  0  0  0  0  0  0  0  0  0  0  0  # atno 8009 bound_to 7997
  156.2758  140.2741  156.1613 H   0  0  0  0  0  0  0  0  0  0  0  0  # atno 8010 bound_to 7997
  140.6981  143.6247  150.8579 H   0  0  0  0  0  0  0  0  0  0  0  0  # atno 10167 bound_to 10162
  156.9592  131.0055  151.2931 H   0  0  0  0  0  0  0  0  0  0  0  0  # atno 10718 bound_to 10713
  153.2685  135.4208  155.0965 H   0  0  0  0  0  0  0  0  0  0  0  0  # atno 10763 bound_to 10752
  154.8447  135.3466  154.6277 H   0  0  0  0  0  0  0  0  0  0  0  0  # atno 10764 bound_to 10752
  153.6697  135.7044  153.5208 H   0  0  0  0  0  0  0  0  0  0  0  0  # atno 10765 bound_to 10752
  140.3918  134.1811  155.7662 H   0  0  0  0  0  0  0  0  0  0  0  0  # atno 11005 bound_to 11000
  145.8091  140.9734  143.0958 LP  0  0  0  0  0  0  0  0  0  0  0  0  # atno 17320 bound_to 7965
  144.6807  139.9898  143.7484 LP  0  0  0  0  0  0  0  0  0  0  0  0  # atno 17321 bound_to 7965
  139.9967  143.5788  152.2890 LP  0  0  0  0  0  0  0  0  0  0  0  0  # atno 17342 bound_to 10162
  139.6463  144.7658  151.2238 LP  0  0  0  0  0  0  0  0  0  0  0  0  # atno 17343 bound_to 10162
  157.5669  130.8284  149.8339 LP  0  0  0  0  0  0  0  0  0  0  0  0  # atno 17370 bound_to 10713
  156.0329  130.3759  150.1638 LP  0  0  0  0  0  0  0  0  0  0  0  0  # atno 17371 bound_to 10713
  141.1888  133.8252  157.0981 LP  0  0  0  0  0  0  0  0  0  0  0  0  # atno 17394 bound_to 11000
  140.0401  134.9859  157.0945 LP  0  0  0  0  0  0  0  0  0  0  0  0  # atno 17395 bound_to 11000

$$$$
