AV-unprocessed.smi:2153|AV-procd|sdf|8768|dock2
  -GOLD-   2272011543D 1   1.00000     0.00000
 Structure written by MMmdl.
 48 49  0  0  0  0  0  0  0  0  1 V2000
  151.1439  137.8349  154.3705 C   0  0  0  0  0  0  0  0  0  0  0  0
  150.9443  139.2933  154.8111 C   0  0  2  0  0  0  0  0  0  0  0  0
  151.2817  139.4912  156.3039 C   0  0  0  0  0  0  0  0  0  0  0  0
  151.1171  140.9580  156.7310 C   0  0  0  0  0  0  0  0  0  0  0  0
  149.7116  141.4796  156.4003 C   0  0  0  0  0  0  0  0  0  0  0  0
  149.3789  141.2864  154.9127 C   0  0  0  0  0  0  0  0  0  0  0  0
  149.5231  139.8085  154.4887 C   0  0  2  0  0  0  0  0  0  0  0  0
  148.5955  138.9867  155.1866 O   0  0  0  0  0  0  0  0  0  0  0  0
  147.9091  138.0237  154.4016 C   0  0  0  0  0  0  0  0  0  0  0  0
  147.8727  136.6924  155.1691 C   0  0  0  0  0  0  0  0  0  0  0  0
  148.2740  135.5713  154.3240 N   0  0  0  0  0  0  0  0  0  0  0  0
  147.8071  134.3176  154.4323 C   0  0  0  0  0  0  0  0  0  0  0  0
  147.0172  133.9657  155.3081 O   0  0  0  0  0  0  0  0  0  0  0  0
  148.3247  133.3002  153.4082 C   0  0  0  0  0  0  0  0  0  0  0  0
  147.2419  132.7743  152.5669 N   0  0  0  0  0  0  0  0  0  0  0  0
  146.5810  133.6317  151.7057 C   0  0  0  0  0  0  0  0  0  0  0  0
  145.5563  133.2502  150.9126 C   0  0  0  0  0  0  0  0  0  0  0  0
  145.0701  131.8767  150.9292 C   0  0  0  0  0  0  0  0  0  0  0  0
  144.1448  131.4803  150.2197 O   0  0  0  0  0  0  0  0  0  0  0  0
  145.7543  131.0220  151.8247 N   0  0  0  0  0  0  0  0  0  0  0  0
  145.3249  129.6402  151.8886 C   0  0  0  0  0  0  0  0  0  0  0  0
  146.8479  131.4189  152.6281 C   0  0  0  0  0  0  0  0  0  0  0  0
  147.4466  130.6249  153.3571 O   0  0  0  0  0  0  0  0  0  0  0  0
  150.4904  137.1578  154.9216 H   0  0  0  0  0  0  0  0  0  0  0  0
  152.1715  137.5124  154.5395 H   0  0  0  0  0  0  0  0  0  0  0  0
  150.9309  137.7133  153.3082 H   0  0  0  0  0  0  0  0  0  0  0  0
  151.6479  139.8960  154.2350 H   0  0  0  0  0  0  0  0  0  0  0  0
  150.6386  138.8601  156.9187 H   0  0  0  0  0  0  0  0  0  0  0  0
  152.3045  139.1688  156.5011 H   0  0  0  0  0  0  0  0  0  0  0  0
  151.3094  141.0572  157.7993 H   0  0  0  0  0  0  0  0  0  0  0  0
  151.8626  141.5719  156.2244 H   0  0  0  0  0  0  0  0  0  0  0  0
  148.9768  140.9491  157.0050 H   0  0  0  0  0  0  0  0  0  0  0  0
  149.6329  142.5334  156.6683 H   0  0  0  0  0  0  0  0  0  0  0  0
  148.3776  141.6610  154.7035 H   0  0  0  0  0  0  0  0  0  0  0  0
  150.0543  141.8981  154.3133 H   0  0  0  0  0  0  0  0  0  0  0  0
  149.3521  139.7178  153.4144 H   0  0  0  0  0  0  0  0  0  0  0  0
  146.8946  138.3451  154.1675 H   0  0  0  0  0  0  0  0  0  0  0  0
  148.4354  137.8889  153.4558 H   0  0  0  0  0  0  0  0  0  0  0  0
  148.5690  136.7391  156.0063 H   0  0  0  0  0  0  0  0  0  0  0  0
  146.8840  136.5217  155.5988 H   0  0  0  0  0  0  0  0  0  0  0  0
  148.9322  135.7705  153.5849 H   0  0  0  0  0  0  0  0  0  0  0  0
  149.0943  133.7578  152.7841 H   0  0  0  0  0  0  0  0  0  0  0  0
  148.8258  132.4883  153.9381 H   0  0  0  0  0  0  0  0  0  0  0  0
  146.8964  134.6643  151.6652 H   0  0  0  0  0  0  0  0  0  0  0  0
  145.0847  133.9726  150.2627 H   0  0  0  0  0  0  0  0  0  0  0  0
  145.5674  129.2188  152.8648 H   0  0  0  0  0  0  0  0  0  0  0  0
  145.8405  129.1106  151.0866 H   0  0  0  0  0  0  0  0  0  0  0  0
  144.2414  129.5964  151.7662 H   0  0  0  0  0  0  0  0  0  0  0  0
  1  2  1  0  0  0  0
  1 24  1  0  0  0  0
  1 25  1  0  0  0  0
  1 26  1  0  0  0  0
  2  7  1  0  0  0  0
  2  3  1  0  0  0  0
  2 27  1  0  0  0  0
  3  4  1  0  0  0  0
  3 28  1  0  0  0  0
  3 29  1  0  0  0  0
  4  5  1  0  0  0  0
  4 30  1  0  0  0  0
  4 31  1  0  0  0  0
  5  6  1  0  0  0  0
  5 32  1  0  0  0  0
  5 33  1  0  0  0  0
  6  7  1  0  0  0  0
  6 34  1  0  0  0  0
  6 35  1  0  0  0  0
  7  8  1  0  0  0  0
  7 36  1  0  0  0  0
  8  9  1  0  0  0  0
  9 10  1  0  0  0  0
  9 37  1  0  0  0  0
  9 38  1  0  0  0  0
 10 11  1  0  0  0  0
 10 39  1  0  0  0  0
 10 40  1  0  0  0  0
 11 12  1  0  0  0  0
 11 41  1  0  0  0  0
 12 13  2  0  0  0  0
 12 14  1  0  0  0  0
 14 15  1  0  0  0  0
 14 42  1  0  0  0  0
 14 43  1  0  0  0  0
 15 22  1  0  0  0  0
 15 16  1  0  0  0  0
 16 17  2  0  0  0  0
 16 44  1  0  0  0  0
 17 18  1  0  0  0  0
 17 45  1  0  0  0  0
 18 19  2  0  0  0  0
 18 20  1  0  0  0  0
 20 21  1  0  0  0  0
 20 22  1  0  0  0  0
 21 46  1  0  0  0  0
 21 47  1  0  0  0  0
 21 48  1  0  0  0  0
 22 23  2  0  0  0  0
M  END
> <s_m_source_file>
AV-unprocessed.smi

> <i_m_source_file_index>
2153

> <i_lp_mmshare_version>
43012

> <i_f3d_flags>
0

> <s_epik_input>
W0NIM11bQ0BASF0xW0NIMl1bQ0gyXVtDSDJdW0NIMl1bQ0BIXTFPW0NIMl1bQ0gyXVtOSF1DKD1PKVtDSDJdbjJbY0hdW2NIXWMoPU8pbihbQ0gzXSljMj1P

> <s_epik_cmdline>
J2VwaWtfcHl0aG9uJywgJy1waCcsICc3LjAnLCAnLXRuJywgJzgnLCAnLW1hJywgJzIwMCcsICctbWV0YWxfYmluZGluZycsICctaW1hZScsICc8aW5maWxlLm1hZT4nLCAnLW9tYWUnLCAnPG91dGZpbGUubWFlPic=

> <r_lp_tautomer_probability>
1

> <r_epik_Ionization_Penalty>
4.02205e-08

> <r_epik_Ionization_Penalty_Charging>
1.23606e-08

> <r_epik_Ionization_Penalty_Neutral>
2.78599e-08

> <r_epik_State_Penalty>
-0

> <r_epik_Charging_Adjusted_Penalty>
1.23606e-08

> <i_epik_Tot_Q>
0

> <i_epik_Tot_abs_Q>
0

> <r_epik_Metal_State_Penalty>
-0

> <b_epik_Metal_Only>
0

> <s_lp_Force_Field>
OPLS_2005

> <r_lp_Energy>
17.534

> <b_lp_Chiralities_Consistent>
1

> <s_lp_Variant>
AV-unprocessed.smi:2153-3

> <Gold.Version>
5.8.1

> <Gold.Id.Protein>
6NUR|6NUR_protein|mol2

> <Gold.PLP.Fitness>
44.0063

> <Gold.PLP.PLP>
-40.3105

> <Gold.PLP.part.hbond>
-2.0000

> <Gold.PLP.part.metal>
0.0000

> <Gold.PLP.part.buried>
-2.3959

> <Gold.PLP.part.nonpolar>
-36.4927

> <Gold.PLP.part.repulsive>
0.3515

> <Gold.PLP.ligand.clash>
0.0000

> <Gold.PLP.ligand.torsion>
1.5017

> <Gold.PLP.Chemscore.Hbond>
1.2104

> <Gold.PLP.Chemscore.CHOScore>
0.9961

> <Gold.PLP.Chemscore.Metal>
0.0000

> <Gold.Chemscore.Hbonds>
donor molecule, donor type, donor heavy atom, donor atom, acceptor molecule, acceptor atom, score
      L1  H    11    41       P1  7948  0.83
      P1  H 10785 10796       L1    19  0.37
      L1  C    16    44       P1  7948  0.96

> <Gold.PLP.Chemscore.Internal.Correction>
0.0798

> <Gold.Rescore>
     Score         DG    S(hbond)    S(metal)    S(lipo)     H(rot)  DE(clash)    DE(int)     intcor
     13.25     -14.84       1.64        0.00      81.33       2.20       0.10       1.48       ----

> <Gold.Chemscore.Fitness>
13.2501

> <Gold.Chemscore.DG>
-14.8350

> <Gold.Chemscore.ZeroCoef>
-5.4800

> <Gold.Chemscore.Hbond>
1.6358

> <Gold.Chemscore.Metal>
0.0000

> <Gold.Chemscore.Lipo>
81.3274

> <Gold.Chemscore.Internal_Hbond>
0.0000

> <Gold.Chemscore.DEClash>
0.1005

> <Gold.Chemscore.DEInternal>
1.4844

> <Gold.Chemscore.Rot>
2.1968

> <Gold.Chemscore.Internal.Correction>
   9.000000E+99

> <Gold.Chemscore.Hbonds>
donor molecule, donor type, donor heavy atom, donor atom, acceptor molecule, acceptor atom, score
      L1  H    11    41       P1  7948  0.75
      P1  H 10785 10796       L1    19  0.36

> <Gold.Chemscore.Hbond.Weighted>
-5.4635

> <Gold.Chemscore.Metal.Weighted>
-0.0000

> <Gold.Chemscore.Lipo.Weighted>
-9.5153

> <Gold.Chemscore.Internal_Hbond.Weighted>
0.0000

> <Gold.Chemscore.DEClash.Weighted>
0.1005

> <Gold.Chemscore.DEInternal.Weighted>
1.4844

> <Gold.Chemscore.Rot.Weighted>
5.6238

> <Gold.Chemscore.Internal.Correction.Weighted>
   9.000000E+99

> <Gold.Protein.RotatedTorsions>
[ 6907 6896 6895 6894 ] final  -32.49 input  -60.11 | X-H torsion
[ 7974 7965 7964 7962 ] final    3.74 input  175.53 | X-H torsion
[ 8008 7997 7996 7995 ] final  144.80 input   59.86 | X-H torsion
[ 10167 10162 10161 10158 ] final  -45.71 input  -65.29 | X-H torsion
[ 10718 10713 10712 10709 ] final   35.11 input   66.30 | X-H torsion
[ 10763 10752 10751 10750 ] final -117.91 input  -60.55 | X-H torsion
[ 11005 11000 10999 10996 ] final -103.93 input  -57.11 | X-H torsion

> <Gold.Protein.ActiveResidues>
 VAL166  LYS551  ARG553  GLY616  TRP617  ASP618  TYR619  PRO620  LYS621  CYS622 
 ASP623  PHE694  ASN695  SER759  ASP760  ASP761  ALA762  ILE779  LEU786  VAL792 
 PHE793  MET794  SER795  GLU796  ALA797  LYS798  CYS799  TRP800  GLU811  SER814 

> <Gold.Protein.RotatedAtoms>
  151.0781  134.9841  159.8342 H   0  0  0  0  0  0  0  0  0  0  0  0  # atno 6907 bound_to 6896
  152.5416  134.2215  159.8799 H   0  0  0  0  0  0  0  0  0  0  0  0  # atno 6908 bound_to 6896
  151.2244  133.4441  159.2635 H   0  0  0  0  0  0  0  0  0  0  0  0  # atno 6909 bound_to 6896
  146.2445  140.0640  142.8366 H   0  0  0  0  0  0  0  0  0  0  0  0  # atno 7974 bound_to 7965
  156.2899  140.2226  156.5112 H   0  0  0  0  0  0  0  0  0  0  0  0  # atno 8008 bound_to 7997
  154.7607  140.0473  157.0992 H   0  0  0  0  0  0  0  0  0  0  0  0  # atno 8009 bound_to 7997
  154.9995  140.3100  155.4876 H   0  0  0  0  0  0  0  0  0  0  0  0  # atno 8010 bound_to 7997
  140.6847  143.2866  151.3678 H   0  0  0  0  0  0  0  0  0  0  0  0  # atno 10167 bound_to 10162
  157.3187  130.7437  149.6771 H   0  0  0  0  0  0  0  0  0  0  0  0  # atno 10718 bound_to 10713
  154.8570  135.4293  154.2054 H   0  0  0  0  0  0  0  0  0  0  0  0  # atno 10763 bound_to 10752
  153.3091  135.6974  153.7137 H   0  0  0  0  0  0  0  0  0  0  0  0  # atno 10764 bound_to 10752
  153.6237  135.3497  155.2993 H   0  0  0  0  0  0  0  0  0  0  0  0  # atno 10765 bound_to 10752
  141.1123  133.8681  157.1548 H   0  0  0  0  0  0  0  0  0  0  0  0  # atno 11005 bound_to 11000
  145.0874  140.9262  143.4789 LP  0  0  0  0  0  0  0  0  0  0  0  0  # atno 17320 bound_to 7965
  145.0806  139.2963  143.5785 LP  0  0  0  0  0  0  0  0  0  0  0  0  # atno 17321 bound_to 7965
  139.6196  144.0934  152.2378 LP  0  0  0  0  0  0  0  0  0  0  0  0  # atno 17342 bound_to 10162
  140.0374  144.6034  150.7439 LP  0  0  0  0  0  0  0  0  0  0  0  0  # atno 17343 bound_to 10162
  155.9684  130.4229  150.4540 LP  0  0  0  0  0  0  0  0  0  0  0  0  # atno 17370 bound_to 10713
  157.2552  131.0555  151.2355 LP  0  0  0  0  0  0  0  0  0  0  0  0  # atno 17371 bound_to 10713
  140.0024  135.0022  157.0220 LP  0  0  0  0  0  0  0  0  0  0  0  0  # atno 17394 bound_to 11000
  140.4741  134.1357  155.7207 LP  0  0  0  0  0  0  0  0  0  0  0  0  # atno 17395 bound_to 11000

$$$$
