AV-unprocessed.smi:2776|AV-procd|sdf|10706|dock5
  -GOLD-   2272015143D 1   1.00000     0.00000
 Structure written by MMmdl.
 26 27  0  0  0  0  0  0  0  0  2 V2000
  150.4487  139.8371  154.4229 O   0  0  0  0  0  0  0  0  0  0  0  0
  150.9070  139.2140  155.6078 C   0  0  2  0  0  0  0  0  0  0  0  0
  151.9934  140.0837  156.2740 C   0  0  0  0  0  0  0  0  0  0  0  0
  151.4672  141.3534  156.7964 N   0  0  0  0  0  0  0  0  0  0  0  0
  150.6070  142.2379  156.2226 C   0  0  0  0  0  0  0  0  0  0  0  0
  150.4238  143.2629  157.1003 N   0  3  0  0  0  0  0  0  0  0  0  0
  151.1791  143.0312  158.2520 C   0  0  0  0  0  0  0  0  0  0  0  0
  151.3219  143.7825  159.4141 C   0  0  0  0  0  0  0  0  0  0  0  0
  152.1788  143.2618  160.4060 C   0  0  0  0  0  0  0  0  0  0  0  0
  152.3542  143.9535  161.5567 F   0  0  0  0  0  0  0  0  0  0  0  0
  152.8557  142.0375  160.2218 C   0  0  0  0  0  0  0  0  0  0  0  0
  153.6713  141.5742  161.1983 F   0  0  0  0  0  0  0  0  0  0  0  0
  152.7015  141.2841  159.0394 C   0  0  0  0  0  0  0  0  0  0  0  0
  151.8522  141.8057  158.0643 C   0  0  0  0  0  0  0  0  0  0  0  0
  151.3993  137.7931  155.2722 C   0  0  0  0  0  0  0  0  0  0  0  0
  152.3602  137.8496  154.3497 F   0  0  0  0  0  0  0  0  0  0  0  0
  151.8609  137.1782  156.3617 F   0  0  0  0  0  0  0  0  0  0  0  0
  150.3900  137.0795  154.7737 F   0  0  0  0  0  0  0  0  0  0  0  0
  149.5198  139.9915  154.5074 H   0  0  0  0  0  0  0  0  0  0  0  0
  150.0544  139.1369  156.2839 H   0  0  0  0  0  0  0  0  0  0  0  0
  152.4316  139.5493  157.1175 H   0  0  0  0  0  0  0  0  0  0  0  0
  152.8139  140.2905  155.5867 H   0  0  0  0  0  0  0  0  0  0  0  0
  150.1522  142.1440  155.2468 H   0  0  0  0  0  0  0  0  0  0  0  0
  150.8070  144.7208  159.5586 H   0  0  0  0  0  0  0  0  0  0  0  0
  153.2295  140.3513  158.9079 H   0  0  0  0  0  0  0  0  0  0  0  0
  149.8272  144.0612  156.9228 H   0  0  0  0  0  0  0  0  0  0  0  0
  1  2  1  0  0  0  0
  1 19  1  0  0  0  0
  2  3  1  0  0  0  0
  2 15  1  0  0  0  0
  2 20  1  0  0  0  0
  3  4  1  0  0  0  0
  3 21  1  0  0  0  0
  3 22  1  0  0  0  0
  4 14  1  0  0  0  0
  4  5  1  0  0  0  0
  5  6  2  0  0  0  0
  5 23  1  0  0  0  0
  6  7  1  0  0  0  0
  6 26  1  0  0  0  0
  7 14  2  0  0  0  0
  7  8  1  0  0  0  0
  8  9  2  0  0  0  0
  8 24  1  0  0  0  0
  9 10  1  0  0  0  0
  9 11  1  0  0  0  0
 11 12  1  0  0  0  0
 11 13  2  0  0  0  0
 13 14  1  0  0  0  0
 13 25  1  0  0  0  0
 15 16  1  0  0  0  0
 15 17  1  0  0  0  0
 15 18  1  0  0  0  0
M  CHG  1   6   1
M  END
> <s_m_source_file>
AV-unprocessed.smi

> <i_m_source_file_index>
2776

> <i_lp_mmshare_version>
43012

> <i_f3d_flags>
0

> <s_epik_input>
RkMoRikoRilbQ0BIXShbT0hdKVtDSDJdbihbY0hdbjEpYyhjMTIpW2NIXWMoRiljKEYpW2NIXTI=

> <s_epik_cmdline>
J2VwaWtfcHl0aG9uJywgJy1waCcsICc3LjAnLCAnLXRuJywgJzgnLCAnLW1hJywgJzIwMCcsICctbWV0YWxfYmluZGluZycsICctaW1hZScsICc8aW5maWxlLm1hZT4nLCAnLW9tYWUnLCAnPG91dGZpbGUubWFlPic=

> <r_epik_Ionization_Penalty>
2.38424

> <r_epik_Ionization_Penalty_Charging>
2.37244

> <r_epik_Ionization_Penalty_Neutral>
0.0117937

> <r_epik_State_Penalty>
2.52832

> <r_epik_Charging_Adjusted_Penalty>
4.90076

> <i_epik_Tot_Q>
1

> <i_epik_Tot_abs_Q>
1

> <r_epik_Metal_State_Penalty>
6.61271

> <b_epik_Metal_Only>
0

> <s_lp_Force_Field>
OPLS_2005

> <r_lp_Energy>
13.8942

> <b_lp_Chiralities_Consistent>
1

> <s_lp_Variant>
AV-unprocessed.smi:2776-3

> <Gold.Version>
5.8.1

> <Gold.Id.Protein>
6NUR|6NUR_protein|mol2

> <Gold.PLP.Fitness>
47.6460

> <Gold.PLP.PLP>
-40.2488

> <Gold.PLP.part.hbond>
-2.0000

> <Gold.PLP.part.metal>
0.0000

> <Gold.PLP.part.buried>
-3.2815

> <Gold.PLP.part.nonpolar>
-35.0037

> <Gold.PLP.part.repulsive>
0.0049

> <Gold.PLP.ligand.clash>
0.0000

> <Gold.PLP.ligand.torsion>
0.2576

> <Gold.PLP.Chemscore.Hbond>
2.6000

> <Gold.PLP.Chemscore.CHOScore>
0.0334

> <Gold.PLP.Chemscore.Metal>
0.0000

> <Gold.Chemscore.Hbonds>
donor molecule, donor type, donor heavy atom, donor atom, acceptor molecule, acceptor atom, score
      L1  H     6    26       P1  8028  1.63
      P1  H  7989  7998       L1     1  1.00
      L1  C     5    23       P1  8028  0.02

> <Gold.PLP.Chemscore.Internal.Correction>
0.0122

> <Gold.Rescore>
     Score         DG    S(hbond)    S(metal)    S(lipo)     H(rot)  DE(clash)    DE(int)     intcor
     14.00     -15.13       1.77        0.00      78.22       2.12       0.85       0.29       ----

> <Gold.Chemscore.Fitness>
14.0002

> <Gold.Chemscore.DG>
-15.1337

> <Gold.Chemscore.ZeroCoef>
-5.4800

> <Gold.Chemscore.Hbond>
1.7732

> <Gold.Chemscore.Metal>
0.0000

> <Gold.Chemscore.Lipo>
78.2155

> <Gold.Chemscore.Internal_Hbond>
0.0000

> <Gold.Chemscore.DEClash>
0.8462

> <Gold.Chemscore.DEInternal>
0.2873

> <Gold.Chemscore.Rot>
2.1173

> <Gold.Chemscore.Internal.Correction>
   9.000000E+99

> <Gold.Chemscore.Hbonds>
donor molecule, donor type, donor heavy atom, donor atom, acceptor molecule, acceptor atom, score
      L1  H     6    26       P1  8028  0.74
      P1  H  7989  7998       L1     1  0.96

> <Gold.Chemscore.Hbond.Weighted>
-5.9226

> <Gold.Chemscore.Metal.Weighted>
-0.0000

> <Gold.Chemscore.Lipo.Weighted>
-9.1512

> <Gold.Chemscore.Internal_Hbond.Weighted>
0.0000

> <Gold.Chemscore.DEClash.Weighted>
0.8462

> <Gold.Chemscore.DEInternal.Weighted>
0.2873

> <Gold.Chemscore.Rot.Weighted>
5.4202

> <Gold.Chemscore.Internal.Correction.Weighted>
   9.000000E+99

> <Gold.Protein.RotatedTorsions>
[ 6907 6896 6895 6894 ] final -147.27 input  -60.11 | X-H torsion
[ 7974 7965 7964 7962 ] final    3.58 input  175.53 | X-H torsion
[ 8008 7997 7996 7995 ] final  157.68 input   59.86 | X-H torsion
[ 10167 10162 10161 10158 ] final   39.98 input  -65.29 | X-H torsion
[ 10718 10713 10712 10709 ] final -155.20 input   66.30 | X-H torsion
[ 10763 10752 10751 10750 ] final   15.20 input  -60.55 | X-H torsion
[ 11005 11000 10999 10996 ] final  129.49 input  -57.11 | X-H torsion

> <Gold.Protein.ActiveResidues>
 VAL166  LYS551  ARG553  GLY616  TRP617  ASP618  TYR619  PRO620  LYS621  CYS622 
 ASP623  PHE694  ASN695  SER759  ASP760  ASP761  ALA762  ILE779  LEU786  VAL792 
 PHE793  MET794  SER795  GLU796  ALA797  LYS798  CYS799  TRP800  GLU811  SER814 

> <Gold.Protein.RotatedAtoms>
  151.1534  133.4892  159.2594 H   0  0  0  0  0  0  0  0  0  0  0  0  # atno 6907 bound_to 6896
  151.1530  135.0236  159.8687 H   0  0  0  0  0  0  0  0  0  0  0  0  # atno 6908 bound_to 6896
  152.5463  134.1416  159.8534 H   0  0  0  0  0  0  0  0  0  0  0  0  # atno 6909 bound_to 6896
  146.2445  140.0664  142.8365 H   0  0  0  0  0  0  0  0  0  0  0  0  # atno 7974 bound_to 7965
  156.2349  140.1879  156.7145 H   0  0  0  0  0  0  0  0  0  0  0  0  # atno 8008 bound_to 7997
  154.6089  140.0625  156.9495 H   0  0  0  0  0  0  0  0  0  0  0  0  # atno 8009 bound_to 7997
  155.2049  140.3295  155.4340 H   0  0  0  0  0  0  0  0  0  0  0  0  # atno 8010 bound_to 7997
  140.3786  144.2009  150.6131 H   0  0  0  0  0  0  0  0  0  0  0  0  # atno 10167 bound_to 10162
  156.5097  130.8429  151.2641 H   0  0  0  0  0  0  0  0  0  0  0  0  # atno 10718 bound_to 10713
  153.1548  135.6785  153.8828 H   0  0  0  0  0  0  0  0  0  0  0  0  # atno 10763 bound_to 10752
  153.8243  135.3126  155.3414 H   0  0  0  0  0  0  0  0  0  0  0  0  # atno 10764 bound_to 10752
  154.7889  135.4846  154.0096 H   0  0  0  0  0  0  0  0  0  0  0  0  # atno 10765 bound_to 10752
  139.9618  134.9600  156.9155 H   0  0  0  0  0  0  0  0  0  0  0  0  # atno 11005 bound_to 11000
  145.0854  140.9249  143.4800 LP  0  0  0  0  0  0  0  0  0  0  0  0  # atno 17320 bound_to 7965
  145.0826  139.2949  143.5776 LP  0  0  0  0  0  0  0  0  0  0  0  0  # atno 17321 bound_to 7965
  140.4960  143.2332  151.8748 LP  0  0  0  0  0  0  0  0  0  0  0  0  # atno 17342 bound_to 10162
  139.4797  144.5113  151.8929 LP  0  0  0  0  0  0  0  0  0  0  0  0  # atno 17343 bound_to 10162
  157.7452  130.9954  150.2742 LP  0  0  0  0  0  0  0  0  0  0  0  0  # atno 17370 bound_to 10713
  156.3253  130.3792  149.7539 LP  0  0  0  0  0  0  0  0  0  0  0  0  # atno 17371 bound_to 10713
  140.5483  134.0652  155.7361 LP  0  0  0  0  0  0  0  0  0  0  0  0  # atno 17394 bound_to 11000
  141.1296  133.9325  157.2564 LP  0  0  0  0  0  0  0  0  0  0  0  0  # atno 17395 bound_to 11000

$$$$
