AV-unprocessed.smi:3209|AV-procd|sdf|12268|dock9
  -GOLD-   2272018103D 1   1.00000     0.00000
 Structure written by MMmdl.
 37 39  0  0  0  0  0  0  0  0  2 V2000
  153.5418  138.6008  154.2775 C   0  0  0  0  0  0  0  0  0  0  0  0
  152.1193  138.8778  154.6240 C   0  0  0  0  0  0  0  0  0  0  0  0
  151.6584  140.0932  154.9308 N   0  0  0  0  0  0  0  0  0  0  0  0
  150.2904  140.0932  155.2203 C   0  0  0  0  0  0  0  0  0  0  0  0
  149.6060  141.3746  155.5870 C   0  0  0  0  0  0  0  0  0  0  0  0
  149.4089  141.5129  157.1026 C   0  0  0  0  0  0  0  0  0  0  0  0
  149.7119  142.8861  157.5540 N   0  3  0  0  0  0  0  0  0  0  0  0
  151.1545  143.1919  157.6704 C   0  0  2  0  0  0  0  0  0  0  0  0
  151.8813  142.4043  158.7827 C   0  0  0  0  0  0  0  0  0  0  0  0
  152.5867  143.5188  159.5800 C   0  0  2  0  0  0  0  0  0  0  0  0
  151.5414  144.2587  160.4330 C   0  0  0  0  0  0  0  0  0  0  0  0
  150.7459  145.0482  159.3776 C   0  0  0  0  0  0  0  0  0  0  0  0
  151.4420  144.6597  158.0545 C   0  0  1  0  0  0  0  0  0  0  0  0
  152.8964  144.5538  158.5023 C   0  0  0  0  0  0  0  0  0  0  0  0
  149.7178  138.8489  155.1287 C   0  0  0  0  0  0  0  0  0  0  0  0
  150.8786  137.6314  154.6754 S   0  0  0  0  0  0  0  0  0  0  0  0
  154.0008  139.4783  153.8212 H   0  0  0  0  0  0  0  0  0  0  0  0
  153.6020  137.7710  153.5732 H   0  0  0  0  0  0  0  0  0  0  0  0
  154.0997  138.3392  155.1767 H   0  0  0  0  0  0  0  0  0  0  0  0
  150.1850  142.2214  155.2156 H   0  0  0  0  0  0  0  0  0  0  0  0
  148.6375  141.4330  155.0884 H   0  0  0  0  0  0  0  0  0  0  0  0
  148.3816  141.2586  157.3664 H   0  0  0  0  0  0  0  0  0  0  0  0
  150.0594  140.8128  157.6284 H   0  0  0  0  0  0  0  0  0  0  0  0
  149.3108  143.5263  156.8834 H   0  0  0  0  0  0  0  0  0  0  0  0
  151.6286  142.9873  156.7086 H   0  0  0  0  0  0  0  0  0  0  0  0
  151.2072  141.8225  159.4132 H   0  0  0  0  0  0  0  0  0  0  0  0
  152.6064  141.7149  158.3483 H   0  0  0  0  0  0  0  0  0  0  0  0
  153.4490  143.1722  160.1504 H   0  0  0  0  0  0  0  0  0  0  0  0
  150.9128  143.5763  161.0067 H   0  0  0  0  0  0  0  0  0  0  0  0
  152.0242  144.9384  161.1364 H   0  0  0  0  0  0  0  0  0  0  0  0
  149.6827  144.8083  159.3902 H   0  0  0  0  0  0  0  0  0  0  0  0
  150.8399  146.1197  159.5587 H   0  0  0  0  0  0  0  0  0  0  0  0
  151.2653  145.3666  157.2430 H   0  0  0  0  0  0  0  0  0  0  0  0
  153.2968  145.4875  158.9017 H   0  0  0  0  0  0  0  0  0  0  0  0
  153.5668  144.1818  157.7251 H   0  0  0  0  0  0  0  0  0  0  0  0
  148.6875  138.5736  155.2991 H   0  0  0  0  0  0  0  0  0  0  0  0
  149.2749  143.0439  158.4507 H   0  0  0  0  0  0  0  0  0  0  0  0
  1  2  1  0  0  0  0
  1 17  1  0  0  0  0
  1 18  1  0  0  0  0
  1 19  1  0  0  0  0
  2 16  1  0  0  0  0
  2  3  2  0  0  0  0
  3  4  1  0  0  0  0
  4  5  1  0  0  0  0
  4 15  2  0  0  0  0
  5  6  1  0  0  0  0
  5 20  1  0  0  0  0
  5 21  1  0  0  0  0
  6  7  1  0  0  0  0
  6 22  1  0  0  0  0
  6 23  1  0  0  0  0
  7  8  1  0  0  0  0
  7 24  1  0  0  0  0
  7 37  1  0  0  0  0
  8 13  1  0  0  0  0
  8  9  1  0  0  0  0
  8 25  1  0  0  0  0
  9 10  1  0  0  0  0
  9 26  1  0  0  0  0
  9 27  1  0  0  0  0
 10 14  1  0  0  0  0
 10 11  1  0  0  0  0
 10 28  1  0  0  0  0
 11 12  1  0  0  0  0
 11 29  1  0  0  0  0
 11 30  1  0  0  0  0
 12 13  1  0  0  0  0
 12 31  1  0  0  0  0
 12 32  1  0  0  0  0
 13 14  1  0  0  0  0
 13 33  1  0  0  0  0
 14 34  1  0  0  0  0
 14 35  1  0  0  0  0
 15 16  1  0  0  0  0
 15 36  1  0  0  0  0
M  CHG  1   7   1
M  END
> <s_m_source_file>
AV-unprocessed.smi

> <i_m_source_file_index>
3209

> <i_lp_mmshare_version>
43012

> <i_f3d_flags>
0

> <s_epik_input>
W0NIM11jMW5jKFtjSF1zMSlbQ0gyXVtDSDJdW05IXVtDQEhdKFtDSDJdW0NASF0yMylbQ0BIXShbQ0gyXTMpW0NIMl1bQ0gyXTI=

> <s_epik_cmdline>
J2VwaWtfcHl0aG9uJywgJy1waCcsICc3LjAnLCAnLXRuJywgJzgnLCAnLW1hJywgJzIwMCcsICctbWV0YWxfYmluZGluZycsICctaW1hZScsICc8aW5maWxlLm1hZT4nLCAnLW9tYWUnLCAnPG91dGZpbGUubWFlPic=

> <r_lp_tautomer_probability>
1

> <r_epik_Ionization_Penalty>
0.000342479

> <r_epik_Ionization_Penalty_Charging>
0.000317129

> <r_epik_Ionization_Penalty_Neutral>
2.535e-05

> <r_epik_State_Penalty>
-0

> <r_epik_Charging_Adjusted_Penalty>
0.000317129

> <i_epik_Tot_Q>
1

> <i_epik_Tot_abs_Q>
1

> <r_epik_Metal_State_Penalty>
-0

> <b_epik_Metal_Only>
0

> <s_lp_Force_Field>
OPLS_2005

> <r_lp_Energy>
49.3093

> <b_lp_Chiralities_Consistent>
1

> <s_lp_Variant>
AV-unprocessed.smi:3209-1

> <Gold.Version>
5.8.1

> <Gold.Id.Protein>
6NUR|6NUR_protein|mol2

> <Gold.PLP.Fitness>
48.8178

> <Gold.PLP.PLP>
-41.1345

> <Gold.PLP.part.hbond>
-2.0000

> <Gold.PLP.part.metal>
0.0000

> <Gold.PLP.part.buried>
-5.8784

> <Gold.PLP.part.nonpolar>
-34.4647

> <Gold.PLP.part.repulsive>
0.0720

> <Gold.PLP.ligand.clash>
0.0000

> <Gold.PLP.ligand.torsion>
0.6662

> <Gold.PLP.Chemscore.Hbond>
3.0000

> <Gold.PLP.Chemscore.CHOScore>
0.0000

> <Gold.PLP.Chemscore.Metal>
0.0000

> <Gold.Chemscore.Hbonds>
donor molecule, donor type, donor heavy atom, donor atom, acceptor molecule, acceptor atom, score
      L1  H     7    24       P1  8028  2.00
      P1  H  7989  7998       L1     3  1.00

> <Gold.PLP.Chemscore.Internal.Correction>
0.0158

> <Gold.Rescore>
     Score         DG    S(hbond)    S(metal)    S(lipo)     H(rot)  DE(clash)    DE(int)     intcor
     21.06     -21.68       1.36        0.00     128.33       1.31       0.01       0.61       ----

> <Gold.Chemscore.Fitness>
21.0573

> <Gold.Chemscore.DG>
-21.6824

> <Gold.Chemscore.ZeroCoef>
-5.4800

> <Gold.Chemscore.Hbond>
1.3604

> <Gold.Chemscore.Metal>
0.0000

> <Gold.Chemscore.Lipo>
128.3277

> <Gold.Chemscore.Internal_Hbond>
0.0000

> <Gold.Chemscore.DEClash>
0.0121

> <Gold.Chemscore.DEInternal>
0.6129

> <Gold.Chemscore.Rot>
1.3108

> <Gold.Chemscore.Internal.Correction>
   9.000000E+99

> <Gold.Chemscore.Hbonds>
donor molecule, donor type, donor heavy atom, donor atom, acceptor molecule, acceptor atom, score
      L1  H     7    24       P1  8028  0.91
      P1  H  7989  7998       L1     3  0.13

> <Gold.Chemscore.Hbond.Weighted>
-4.5438

> <Gold.Chemscore.Metal.Weighted>
-0.0000

> <Gold.Chemscore.Lipo.Weighted>
-15.0143

> <Gold.Chemscore.Internal_Hbond.Weighted>
0.0000

> <Gold.Chemscore.DEClash.Weighted>
0.0121

> <Gold.Chemscore.DEInternal.Weighted>
0.6129

> <Gold.Chemscore.Rot.Weighted>
3.3558

> <Gold.Chemscore.Internal.Correction.Weighted>
   9.000000E+99

> <Gold.Protein.RotatedTorsions>
[ 6907 6896 6895 6894 ] final  -19.01 input  -60.11 | X-H torsion
[ 7974 7965 7964 7962 ] final -177.77 input  175.53 | X-H torsion
[ 8008 7997 7996 7995 ] final -168.57 input   59.86 | X-H torsion
[ 10167 10162 10161 10158 ] final   98.34 input  -65.29 | X-H torsion
[ 10718 10713 10712 10709 ] final  162.64 input   66.30 | X-H torsion
[ 10763 10752 10751 10750 ] final -154.99 input  -60.55 | X-H torsion
[ 11005 11000 10999 10996 ] final  -52.32 input  -57.11 | X-H torsion

> <Gold.Protein.ActiveResidues>
 VAL166  LYS551  ARG553  GLY616  TRP617  ASP618  TYR619  PRO620  LYS621  CYS622 
 ASP623  PHE694  ASN695  SER759  ASP760  ASP761  ALA762  ILE779  LEU786  VAL792 
 PHE793  MET794  SER795  GLU796  ALA797  LYS798  CYS799  TRP800  GLU811  SER814 

> <Gold.Protein.RotatedAtoms>
  151.2695  135.0680  159.9128 H   0  0  0  0  0  0  0  0  0  0  0  0  # atno 6907 bound_to 6896
  152.5353  134.0146  159.7964 H   0  0  0  0  0  0  0  0  0  0  0  0  # atno 6908 bound_to 6896
  151.0382  133.5680  159.2685 H   0  0  0  0  0  0  0  0  0  0  0  0  # atno 6909 bound_to 6896
  144.7128  140.0969  143.6418 H   0  0  0  0  0  0  0  0  0  0  0  0  # atno 7974 bound_to 7965
  155.8932  140.1028  157.1403 H   0  0  0  0  0  0  0  0  0  0  0  0  # atno 8008 bound_to 7997
  154.4017  140.1307  156.4406 H   0  0  0  0  0  0  0  0  0  0  0  0  # atno 8009 bound_to 7997
  155.7509  140.3465  155.5152 H   0  0  0  0  0  0  0  0  0  0  0  0  # atno 8010 bound_to 7997
  139.7718  144.6920  151.0145 H   0  0  0  0  0  0  0  0  0  0  0  0  # atno 10167 bound_to 10162
  157.1197  131.0489  151.2420 H   0  0  0  0  0  0  0  0  0  0  0  0  # atno 10718 bound_to 10713
  154.7819  135.3177  154.7971 H   0  0  0  0  0  0  0  0  0  0  0  0  # atno 10763 bound_to 10752
  153.8680  135.6847  153.4781 H   0  0  0  0  0  0  0  0  0  0  0  0  # atno 10764 bound_to 10752
  153.1458  135.4720  154.9502 H   0  0  0  0  0  0  0  0  0  0  0  0  # atno 10765 bound_to 10752
  141.0918  133.6631  156.4007 H   0  0  0  0  0  0  0  0  0  0  0  0  # atno 11005 bound_to 11000
  145.9572  139.2775  143.1177 LP  0  0  0  0  0  0  0  0  0  0  0  0  # atno 17320 bound_to 7965
  145.9260  140.9082  143.0381 LP  0  0  0  0  0  0  0  0  0  0  0  0  # atno 17321 bound_to 7965
  140.7814  143.4580  151.0318 LP  0  0  0  0  0  0  0  0  0  0  0  0  # atno 17342 bound_to 10162
  139.8263  143.7751  152.3178 LP  0  0  0  0  0  0  0  0  0  0  0  0  # atno 17343 bound_to 10162
  157.4487  130.7586  149.7132 LP  0  0  0  0  0  0  0  0  0  0  0  0  # atno 17370 bound_to 10713
  155.9831  130.4003  150.3380 LP  0  0  0  0  0  0  0  0  0  0  0  0  # atno 17371 bound_to 10713
  140.5234  134.6282  157.5326 LP  0  0  0  0  0  0  0  0  0  0  0  0  # atno 17394 bound_to 11000
  139.9746  134.7237  155.9975 LP  0  0  0  0  0  0  0  0  0  0  0  0  # atno 17395 bound_to 11000

$$$$
