AV-unprocessed.smi:234|AV-procd|sdf|1785|dock10
  -GOLD-   2262020343D 1   1.00000     0.00000
 Structure written by MMmdl.
 59 62  0  0  0  0  0  0  0  0  1 V2000
  153.1386  141.4380  159.8062 C   0  0  0  0  0  0  0  0  0  0  0  0
  151.9921  141.0334  158.8773 C   0  0  0  0  0  0  0  0  0  0  0  0
  152.4686  140.0698  157.9527 O   0  0  0  0  0  0  0  0  0  0  0  0
  151.4275  139.3020  157.3681 C   0  0  2  0  0  0  0  0  0  0  0  0
  150.8554  138.2086  158.2803 C   0  0  0  0  0  0  0  0  0  0  0  0
  150.8915  137.2696  157.0670 C   0  0  1  0  0  0  0  0  0  0  0  0
  149.5975  137.1182  156.3706 N   0  0  0  0  0  0  0  0  0  0  0  0
  148.9466  138.1907  155.6110 C   0  0  0  0  0  0  0  0  0  0  0  0
  149.2763  135.8470  156.0099 C   0  0  0  0  0  0  0  0  0  0  0  0
  150.0486  134.8169  156.4500 N   0  0  0  0  0  0  0  0  0  0  0  0
  149.7441  133.5558  156.1320 C   0  0  0  0  0  0  0  0  0  0  0  0
  148.7292  133.1039  155.3945 N   0  0  0  0  0  0  0  0  0  0  0  0
  147.9564  134.1298  154.9367 C   0  0  0  0  0  0  0  0  0  0  0  0
  148.1588  135.5172  155.1884 C   0  0  0  0  0  0  0  0  0  0  0  0
  147.1833  136.2584  154.5304 N   0  0  0  0  0  0  0  0  0  0  0  0
  146.4380  135.3629  153.9439 C   0  0  0  0  0  0  0  0  0  0  0  0
  146.8234  134.0574  154.1450 N   0  0  0  0  0  0  0  0  0  0  0  0
  146.1729  132.8655  153.6222 C   0  0  0  0  0  0  0  0  0  0  0  0
  146.2804  132.7344  152.0798 C   0  0  1  0  0  0  0  0  0  0  0  0
  147.6130  133.0392  151.7036 O   0  0  0  0  0  0  0  0  0  0  0  0
  145.9613  131.3321  151.5659 C   0  0  0  0  0  0  0  0  0  0  0  0
  145.3997  131.5914  150.1768 C   0  0  0  0  0  0  0  0  0  0  0  0
  144.6203  132.7561  150.3804 O   0  0  0  0  0  0  0  0  0  0  0  0
  145.3344  133.6395  151.2406 C   0  0  1  0  0  0  0  0  0  0  0  0
  144.3059  134.4778  152.0156 C   0  0  0  0  0  0  0  0  0  0  0  0
  151.9446  138.2057  156.4044 C   0  0  0  0  0  0  0  0  0  0  0  0
  151.8465  138.4987  154.9023 C   0  0  0  0  0  0  0  0  0  0  0  0
  153.3902  137.7462  156.6422 C   0  0  0  0  0  0  0  0  0  0  0  0
  152.8076  142.1799  160.5332 H   0  0  0  0  0  0  0  0  0  0  0  0
  153.9659  141.8688  159.2415 H   0  0  0  0  0  0  0  0  0  0  0  0
  153.5198  140.5772  160.3557 H   0  0  0  0  0  0  0  0  0  0  0  0
  151.1682  140.6234  159.4631 H   0  0  0  0  0  0  0  0  0  0  0  0
  151.6164  141.9095  158.3468 H   0  0  0  0  0  0  0  0  0  0  0  0
  150.6556  139.9220  156.9094 H   0  0  0  0  0  0  0  0  0  0  0  0
  151.5577  137.9034  159.0575 H   0  0  0  0  0  0  0  0  0  0  0  0
  149.8764  138.4170  158.7095 H   0  0  0  0  0  0  0  0  0  0  0  0
  151.3387  136.3196  157.3535 H   0  0  0  0  0  0  0  0  0  0  0  0
  147.8865  137.9687  155.4811 H   0  0  0  0  0  0  0  0  0  0  0  0
  149.3829  138.3110  154.6212 H   0  0  0  0  0  0  0  0  0  0  0  0
  149.0014  139.1500  156.1211 H   0  0  0  0  0  0  0  0  0  0  0  0
  150.4070  132.8004  156.5273 H   0  0  0  0  0  0  0  0  0  0  0  0
  145.5777  135.6329  153.3490 H   0  0  0  0  0  0  0  0  0  0  0  0
  146.6262  132.0030  154.1118 H   0  0  0  0  0  0  0  0  0  0  0  0
  145.1274  132.8833  153.9327 H   0  0  0  0  0  0  0  0  0  0  0  0
  147.9412  132.3346  151.1663 H   0  0  0  0  0  0  0  0  0  0  0  0
  146.8169  130.6552  151.5649 H   0  0  0  0  0  0  0  0  0  0  0  0
  145.1799  130.8777  152.1764 H   0  0  0  0  0  0  0  0  0  0  0  0
  146.1959  131.7969  149.4596 H   0  0  0  0  0  0  0  0  0  0  0  0
  144.7983  130.7631  149.8019 H   0  0  0  0  0  0  0  0  0  0  0  0
  145.9162  134.3117  150.6067 H   0  0  0  0  0  0  0  0  0  0  0  0
  144.7930  135.1868  152.6851 H   0  0  0  0  0  0  0  0  0  0  0  0
  143.6397  133.8496  152.6070 H   0  0  0  0  0  0  0  0  0  0  0  0
  143.6856  135.0532  151.3283 H   0  0  0  0  0  0  0  0  0  0  0  0
  151.9290  137.5859  154.3116 H   0  0  0  0  0  0  0  0  0  0  0  0
  152.6388  139.1719  154.5736 H   0  0  0  0  0  0  0  0  0  0  0  0
  150.9088  138.9782  154.6318 H   0  0  0  0  0  0  0  0  0  0  0  0
  153.6255  136.8548  156.0596 H   0  0  0  0  0  0  0  0  0  0  0  0
  153.5724  137.5000  157.6887 H   0  0  0  0  0  0  0  0  0  0  0  0
  154.1094  138.5185  156.3666 H   0  0  0  0  0  0  0  0  0  0  0  0
  1  2  1  0  0  0  0
  1 29  1  0  0  0  0
  1 30  1  0  0  0  0
  1 31  1  0  0  0  0
  2  3  1  0  0  0  0
  2 32  1  0  0  0  0
  2 33  1  0  0  0  0
  3  4  1  0  0  0  0
  4 26  1  0  0  0  0
  4  5  1  0  0  0  0
  4 34  1  0  0  0  0
  5  6  1  0  0  0  0
  5 35  1  0  0  0  0
  5 36  1  0  0  0  0
  6  7  1  0  0  0  0
  6 26  1  0  0  0  0
  6 37  1  0  0  0  0
  7  8  1  0  0  0  0
  7  9  1  0  0  0  0
  8 38  1  0  0  0  0
  8 39  1  0  0  0  0
  8 40  1  0  0  0  0
  9 14  1  0  0  0  0
  9 10  2  0  0  0  0
 10 11  1  0  0  0  0
 11 12  2  0  0  0  0
 11 41  1  0  0  0  0
 12 13  1  0  0  0  0
 13 17  1  0  0  0  0
 13 14  2  0  0  0  0
 14 15  1  0  0  0  0
 15 16  2  0  0  0  0
 16 17  1  0  0  0  0
 16 42  1  0  0  0  0
 17 18  1  0  0  0  0
 18 19  1  0  0  0  0
 18 43  1  0  0  0  0
 18 44  1  0  0  0  0
 19 24  1  0  0  0  0
 19 20  1  0  0  0  0
 19 21  1  0  0  0  0
 20 45  1  0  0  0  0
 21 22  1  0  0  0  0
 21 46  1  0  0  0  0
 21 47  1  0  0  0  0
 22 23  1  0  0  0  0
 22 48  1  0  0  0  0
 22 49  1  0  0  0  0
 23 24  1  0  0  0  0
 24 25  1  0  0  0  0
 24 50  1  0  0  0  0
 25 51  1  0  0  0  0
 25 52  1  0  0  0  0
 25 53  1  0  0  0  0
 26 27  1  0  0  0  0
 26 28  1  0  0  0  0
 27 54  1  0  0  0  0
 27 55  1  0  0  0  0
 27 56  1  0  0  0  0
 28 57  1  0  0  0  0
 28 58  1  0  0  0  0
 28 59  1  0  0  0  0
M  END
> <s_m_source_file>
AV-unprocessed.smi

> <i_m_source_file_index>
234

> <i_lp_mmshare_version>
43012

> <i_f3d_flags>
0

> <s_epik_input>
W0NIM11bQ0gyXU9bQ0BASF0oQzEoW0NIM10pW0NIM10pW0NIMl1bQ0BIXTFOKFtDSDNdKWMobltjSF1uMiljKGMyMyluW2NIXW4zW0NIMl1bQ0BAXTQoW09IXSlbQ0gyXVtDSDJdT1tDQEhdNFtDSDNd

> <s_epik_cmdline>
J2VwaWtfcHl0aG9uJywgJy1waCcsICc3LjAnLCAnLXRuJywgJzgnLCAnLW1hJywgJzIwMCcsICctbWV0YWxfYmluZGluZycsICctaW1hZScsICc8aW5maWxlLm1hZT4nLCAnLW9tYWUnLCAnPG91dGZpbGUubWFlPic=

> <r_lp_tautomer_probability>
1

> <r_epik_Ionization_Penalty>
0.00349132

> <r_epik_Ionization_Penalty_Charging>
0

> <r_epik_Ionization_Penalty_Neutral>
0.00349132

> <r_epik_State_Penalty>
0.00242418

> <r_epik_Charging_Adjusted_Penalty>
0.00242418

> <i_epik_Tot_Q>
0

> <i_epik_Tot_abs_Q>
0

> <r_epik_Metal_State_Penalty>
-0

> <b_epik_Metal_Only>
0

> <s_lp_Force_Field>
OPLS_2005

> <r_lp_Energy>
52.3915

> <b_lp_Chiralities_Consistent>
1

> <s_lp_Variant>
AV-unprocessed.smi:234-1

> <Gold.Version>
5.8.1

> <Gold.Id.Protein>
6NUR|6NUR_protein|mol2

> <Gold.PLP.Fitness>
37.2502

> <Gold.PLP.PLP>
-31.9026

> <Gold.PLP.part.hbond>
-2.0000

> <Gold.PLP.part.metal>
0.0000

> <Gold.PLP.part.buried>
-4.6614

> <Gold.PLP.part.nonpolar>
-25.2649

> <Gold.PLP.part.repulsive>
1.0161

> <Gold.PLP.ligand.clash>
0.0000

> <Gold.PLP.ligand.torsion>
0.8019

> <Gold.PLP.Chemscore.Hbond>
2.0000

> <Gold.PLP.Chemscore.CHOScore>
0.0000

> <Gold.PLP.Chemscore.Metal>
0.0000

> <Gold.Chemscore.Hbonds>
donor molecule, donor type, donor heavy atom, donor atom, acceptor molecule, acceptor atom, score
      L1  H    20    45       P1 10747  1.00
      P1  H  7997  8008       L1     3  0.37

> <Gold.PLP.Chemscore.Internal.Correction>
0.9514

> <Gold.Rescore>
     Score         DG    S(hbond)    S(metal)    S(lipo)     H(rot)  DE(clash)    DE(int)     intcor
     13.38     -16.96       1.92        0.00      94.97       2.37       0.24       3.33       ----

> <Gold.Chemscore.Fitness>
13.3789

> <Gold.Chemscore.DG>
-16.9563

> <Gold.Chemscore.ZeroCoef>
-5.4800

> <Gold.Chemscore.Hbond>
1.9238

> <Gold.Chemscore.Metal>
0.0000

> <Gold.Chemscore.Lipo>
94.9730

> <Gold.Chemscore.Internal_Hbond>
0.0000

> <Gold.Chemscore.DEClash>
0.2434

> <Gold.Chemscore.DEInternal>
3.3341

> <Gold.Chemscore.Rot>
2.3676

> <Gold.Chemscore.Internal.Correction>
   9.000000E+99

> <Gold.Chemscore.Hbonds>
donor molecule, donor type, donor heavy atom, donor atom, acceptor molecule, acceptor atom, score
      L1  H    20    45       P1 10747  0.95
      P1  H  7997  8008       L1     3  0.33

> <Gold.Chemscore.Hbond.Weighted>
-6.4255

> <Gold.Chemscore.Metal.Weighted>
-0.0000

> <Gold.Chemscore.Lipo.Weighted>
-11.1118

> <Gold.Chemscore.Internal_Hbond.Weighted>
0.0000

> <Gold.Chemscore.DEClash.Weighted>
0.2434

> <Gold.Chemscore.DEInternal.Weighted>
3.3341

> <Gold.Chemscore.Rot.Weighted>
6.0610

> <Gold.Chemscore.Internal.Correction.Weighted>
   9.000000E+99

> <Gold.Protein.RotatedTorsions>
[ 6907 6896 6895 6894 ] final -126.06 input  -60.11 | X-H torsion
[ 7974 7965 7964 7962 ] final   51.81 input  175.53 | X-H torsion
[ 8008 7997 7996 7995 ] final  -69.42 input   59.86 | X-H torsion
[ 10167 10162 10161 10158 ] final  124.89 input  -65.29 | X-H torsion
[ 10718 10713 10712 10709 ] final  131.48 input   66.30 | X-H torsion
[ 10763 10752 10751 10750 ] final   35.87 input  -60.55 | X-H torsion
[ 11005 11000 10999 10996 ] final -150.76 input  -57.11 | X-H torsion

> <Gold.Protein.ActiveResidues>
 VAL166  LYS551  ARG553  GLY616  TRP617  ASP618  TYR619  PRO620  LYS621  CYS622 
 ASP623  PHE694  ASN695  SER759  ASP760  ASP761  ALA762  ILE779  LEU786  VAL792 
 PHE793  MET794  SER795  GLU796  ALA797  LYS798  CYS799  TRP800  GLU811  SER814 

> <Gold.Protein.RotatedAtoms>
  150.8930  133.7218  159.2899 H   0  0  0  0  0  0  0  0  0  0  0  0  # atno 6907 bound_to 6896
  151.4761  135.1048  159.9774 H   0  0  0  0  0  0  0  0  0  0  0  0  # atno 6908 bound_to 6896
  152.4832  133.8258  159.7133 H   0  0  0  0  0  0  0  0  0  0  0  0  # atno 6909 bound_to 6896
  145.9877  139.4306  143.0093 H   0  0  0  0  0  0  0  0  0  0  0  0  # atno 7974 bound_to 7965
  154.4938  140.0854  156.7651 H   0  0  0  0  0  0  0  0  0  0  0  0  # atno 8008 bound_to 7997
  155.4167  140.3444  155.4250 H   0  0  0  0  0  0  0  0  0  0  0  0  # atno 8009 bound_to 7997
  156.1366  140.1517  156.8973 H   0  0  0  0  0  0  0  0  0  0  0  0  # atno 8010 bound_to 7997
  139.5716  144.6942  151.3764 H   0  0  0  0  0  0  0  0  0  0  0  0  # atno 10167 bound_to 10162
  157.4963  131.1092  150.9488 H   0  0  0  0  0  0  0  0  0  0  0  0  # atno 10718 bound_to 10713
  153.0100  135.6321  154.1896 H   0  0  0  0  0  0  0  0  0  0  0  0  # atno 10763 bound_to 10752
  154.1638  135.2822  155.3102 H   0  0  0  0  0  0  0  0  0  0  0  0  # atno 10764 bound_to 10752
  154.5961  135.5602  153.7387 H   0  0  0  0  0  0  0  0  0  0  0  0  # atno 10765 bound_to 10752
  140.7367  134.3560  157.5156 H   0  0  0  0  0  0  0  0  0  0  0  0  # atno 11005 bound_to 11000
  145.7677  140.9909  143.1166 LP  0  0  0  0  0  0  0  0  0  0  0  0  # atno 17320 bound_to 7965
  144.6879  139.9408  143.7475 LP  0  0  0  0  0  0  0  0  0  0  0  0  # atno 17321 bound_to 7965
  140.7000  143.7655  150.7388 LP  0  0  0  0  0  0  0  0  0  0  0  0  # atno 17342 bound_to 10162
  140.1163  143.4653  152.2340 LP  0  0  0  0  0  0  0  0  0  0  0  0  # atno 17343 bound_to 10162
  157.0174  130.5660  149.5327 LP  0  0  0  0  0  0  0  0  0  0  0  0  # atno 17370 bound_to 10713
  156.0202  130.5297  150.8254 LP  0  0  0  0  0  0  0  0  0  0  0  0  # atno 17371 bound_to 10713
  139.8814  134.9054  156.2899 LP  0  0  0  0  0  0  0  0  0  0  0  0  # atno 17394 bound_to 11000
  140.9873  133.7230  156.0761 LP  0  0  0  0  0  0  0  0  0  0  0  0  # atno 17395 bound_to 11000

$$$$
