AV-unprocessed.smi:1154|AV-procd|sdf|4901|dock9
  -GOLD-   22720 3473D 1   1.00000     0.00000
 Structure written by MMmdl.
 42 43  0  0  0  0  0  0  0  0  2 V2000
  151.6447  144.7636  160.6986 C   0  0  0  0  0  0  0  0  0  0  0  0
  152.2026  143.6162  159.8443 C   0  0  1  0  0  0  0  0  0  0  0  0
  152.9803  142.6039  160.7017 C   0  0  0  0  0  0  0  0  0  0  0  0
  153.5152  141.4546  159.8314 C   0  0  1  0  0  0  0  0  0  0  0  0
  154.2764  140.4212  160.6738 C   0  0  0  0  0  0  0  0  0  0  0  0
  152.3627  140.8019  159.0438 C   0  0  0  0  0  0  0  0  0  0  0  0
  151.6322  141.8010  158.2214 N   0  3  1  0  0  0  0  0  0  0  0  0
  150.6120  141.1683  157.3470 C   0  0  0  0  0  0  0  0  0  0  0  0
  150.8790  141.4226  155.8544 C   0  0  0  0  0  0  0  0  0  0  0  0
  150.7815  140.1809  155.1000 N   0  0  0  0  0  0  0  0  0  0  0  0
  151.8101  139.5996  154.4638 C   0  0  0  0  0  0  0  0  0  0  0  0
  152.9417  140.0818  154.4349 O   0  0  0  0  0  0  0  0  0  0  0  0
  151.5236  138.2801  153.7417 C   0  0  0  0  0  0  0  0  0  0  0  0
  151.3422  137.1830  154.6754 N   0  0  0  0  0  0  0  0  0  0  0  0
  150.3370  136.3184  154.8266 C   0  0  0  0  0  0  0  0  0  0  0  0
  150.5645  135.4722  155.8192 N   0  0  0  0  0  0  0  0  0  0  0  0
  151.8072  135.8642  156.2881 N   0  0  0  0  0  0  0  0  0  0  0  0
  152.2746  136.8776  155.6121 N   0  0  0  0  0  0  0  0  0  0  0  0
  151.0858  142.9020  159.0589 C   0  0  0  0  0  0  0  0  0  0  0  0
  150.9416  144.3969  161.4472 H   0  0  0  0  0  0  0  0  0  0  0  0
  151.1219  145.4950  160.0814 H   0  0  0  0  0  0  0  0  0  0  0  0
  152.4448  145.2879  161.2221 H   0  0  0  0  0  0  0  0  0  0  0  0
  152.8960  144.0526  159.1234 H   0  0  0  0  0  0  0  0  0  0  0  0
  153.8076  143.1033  161.2079 H   0  0  0  0  0  0  0  0  0  0  0  0
  152.3323  142.2051  161.4840 H   0  0  0  0  0  0  0  0  0  0  0  0
  154.2202  141.8750  159.1124 H   0  0  0  0  0  0  0  0  0  0  0  0
  153.6254  139.9559  161.4145 H   0  0  0  0  0  0  0  0  0  0  0  0
  155.1079  140.8843  161.2060 H   0  0  0  0  0  0  0  0  0  0  0  0
  154.6879  139.6290  160.0475 H   0  0  0  0  0  0  0  0  0  0  0  0
  152.7696  140.0253  158.3947 H   0  0  0  0  0  0  0  0  0  0  0  0
  151.6647  140.3120  159.7250 H   0  0  0  0  0  0  0  0  0  0  0  0
  150.6205  140.0892  157.5089 H   0  0  0  0  0  0  0  0  0  0  0  0
  149.6164  141.5141  157.6296 H   0  0  0  0  0  0  0  0  0  0  0  0
  150.1630  142.1317  155.4389 H   0  0  0  0  0  0  0  0  0  0  0  0
  151.8737  141.8530  155.7249 H   0  0  0  0  0  0  0  0  0  0  0  0
  149.8807  139.7256  155.0706 H   0  0  0  0  0  0  0  0  0  0  0  0
  150.6226  138.3835  153.1357 H   0  0  0  0  0  0  0  0  0  0  0  0
  152.3426  138.0347  153.0639 H   0  0  0  0  0  0  0  0  0  0  0  0
  149.4438  136.3131  154.2196 H   0  0  0  0  0  0  0  0  0  0  0  0
  150.3388  142.4996  159.7454 H   0  0  0  0  0  0  0  0  0  0  0  0
  150.5749  143.6320  158.4322 H   0  0  0  0  0  0  0  0  0  0  0  0
  152.3194  142.2122  157.6057 H   0  0  0  0  0  0  0  0  0  0  0  0
  1  2  1  0  0  0  0
  1 20  1  0  0  0  0
  1 21  1  0  0  0  0
  1 22  1  0  0  0  0
  2 19  1  0  0  0  0
  2  3  1  0  0  0  0
  2 23  1  0  0  0  0
  3  4  1  0  0  0  0
  3 24  1  0  0  0  0
  3 25  1  0  0  0  0
  4  5  1  0  0  0  0
  4  6  1  0  0  0  0
  4 26  1  0  0  0  0
  5 27  1  0  0  0  0
  5 28  1  0  0  0  0
  5 29  1  0  0  0  0
  6  7  1  0  0  0  0
  6 30  1  0  0  0  0
  6 31  1  0  0  0  0
  7  8  1  0  0  0  0
  7 19  1  0  0  0  0
  7 42  1  0  0  0  0
  8  9  1  0  0  0  0
  8 32  1  0  0  0  0
  8 33  1  0  0  0  0
  9 10  1  0  0  0  0
  9 34  1  0  0  0  0
  9 35  1  0  0  0  0
 10 11  1  0  0  0  0
 10 36  1  0  0  0  0
 11 12  2  0  0  0  0
 11 13  1  0  0  0  0
 13 14  1  0  0  0  0
 13 37  1  0  0  0  0
 13 38  1  0  0  0  0
 14 18  1  0  0  0  0
 14 15  1  0  0  0  0
 15 16  2  0  0  0  0
 15 39  1  0  0  0  0
 16 17  1  0  0  0  0
 17 18  2  0  0  0  0
 19 40  1  0  0  0  0
 19 41  1  0  0  0  0
M  CHG  1   7   1
M  END
> <s_m_source_file>
AV-unprocessed.smi

> <i_m_source_file_index>
1154

> <i_lp_mmshare_version>
43012

> <i_f3d_flags>
0

> <s_epik_input>
W0NIM11bQ0BASF0xW0NIMl1bQ0BASF0oW0NIM10pW0NIMl1OKFtDSDJdMSlbQ0gyXVtDSDJdW05IXUMoPU8pW0NIMl1uMltjSF1ubm4y

> <s_epik_cmdline>
J2VwaWtfcHl0aG9uJywgJy1waCcsICc3LjAnLCAnLXRuJywgJzgnLCAnLW1hJywgJzIwMCcsICctbWV0YWxfYmluZGluZycsICctaW1hZScsICc8aW5maWxlLm1hZT4nLCAnLW9tYWUnLCAnPG91dGZpbGUubWFlPic=

> <r_lp_tautomer_probability>
1

> <r_epik_Ionization_Penalty>
0.00217773

> <r_epik_Ionization_Penalty_Charging>
0.00217329

> <r_epik_Ionization_Penalty_Neutral>
4.43997e-06

> <r_epik_State_Penalty>
0.00149294

> <r_epik_Charging_Adjusted_Penalty>
0.00366623

> <i_epik_Tot_Q>
1

> <i_epik_Tot_abs_Q>
1

> <r_epik_Metal_State_Penalty>
-0

> <b_epik_Metal_Only>
0

> <s_lp_Force_Field>
OPLS_2005

> <r_lp_Energy>
19.913

> <b_lp_Chiralities_Consistent>
1

> <s_lp_Variant>
AV-unprocessed.smi:1154-2

> <Gold.Version>
5.8.1

> <Gold.Id.Protein>
6NUR|6NUR_protein|mol2

> <Gold.PLP.Fitness>
45.1622

> <Gold.PLP.PLP>
-40.5553

> <Gold.PLP.part.hbond>
-3.0000

> <Gold.PLP.part.metal>
0.0000

> <Gold.PLP.part.buried>
-3.5092

> <Gold.PLP.part.nonpolar>
-32.9040

> <Gold.PLP.part.repulsive>
0.3715

> <Gold.PLP.ligand.clash>
0.0000

> <Gold.PLP.ligand.torsion>
1.2639

> <Gold.PLP.Chemscore.Hbond>
1.9913

> <Gold.PLP.Chemscore.CHOScore>
0.3655

> <Gold.PLP.Chemscore.Metal>
0.0000

> <Gold.Chemscore.Hbonds>
donor molecule, donor type, donor heavy atom, donor atom, acceptor molecule, acceptor atom, score
      P1  H  7997  8008       L1    12  0.89
      L1  C    15    39       P1  7948  1.00

> <Gold.PLP.Chemscore.Internal.Correction>
0.0643

> <Gold.Rescore>
     Score         DG    S(hbond)    S(metal)    S(lipo)     H(rot)  DE(clash)    DE(int)     intcor
     12.13     -13.36       1.00        0.00      97.14       2.67       0.04       1.19       ----

> <Gold.Chemscore.Fitness>
12.1286

> <Gold.Chemscore.DG>
-13.3572

> <Gold.Chemscore.ZeroCoef>
-5.4800

> <Gold.Chemscore.Hbond>
1.0001

> <Gold.Chemscore.Metal>
0.0000

> <Gold.Chemscore.Lipo>
97.1417

> <Gold.Chemscore.Internal_Hbond>
0.0000

> <Gold.Chemscore.DEClash>
0.0430

> <Gold.Chemscore.DEInternal>
1.1857

> <Gold.Chemscore.Rot>
2.6674

> <Gold.Chemscore.Internal.Correction>
   9.000000E+99

> <Gold.Chemscore.Hbonds>
donor molecule, donor type, donor heavy atom, donor atom, acceptor molecule, acceptor atom, score
      P1  H  7997  8008       L1    12  0.87

> <Gold.Chemscore.Hbond.Weighted>
-3.3402

> <Gold.Chemscore.Metal.Weighted>
-0.0000

> <Gold.Chemscore.Lipo.Weighted>
-11.3656

> <Gold.Chemscore.Internal_Hbond.Weighted>
0.0000

> <Gold.Chemscore.DEClash.Weighted>
0.0430

> <Gold.Chemscore.DEInternal.Weighted>
1.1857

> <Gold.Chemscore.Rot.Weighted>
6.8286

> <Gold.Chemscore.Internal.Correction.Weighted>
   9.000000E+99

> <Gold.Protein.RotatedTorsions>
[ 6907 6896 6895 6894 ] final   -1.59 input  -60.11 | X-H torsion
[ 7974 7965 7964 7962 ] final  -41.93 input  175.53 | X-H torsion
[ 8008 7997 7996 7995 ] final   -7.01 input   59.86 | X-H torsion
[ 10167 10162 10161 10158 ] final  -10.07 input  -65.29 | X-H torsion
[ 10718 10713 10712 10709 ] final  136.42 input   66.30 | X-H torsion
[ 10763 10752 10751 10750 ] final  103.98 input  -60.55 | X-H torsion
[ 11005 11000 10999 10996 ] final  -48.62 input  -57.11 | X-H torsion

> <Gold.Protein.ActiveResidues>
 VAL166  LYS551  ARG553  GLY616  TRP617  ASP618  TYR619  PRO620  LYS621  CYS622 
 ASP623  PHE694  ASN695  SER759  ASP760  ASP761  ALA762  ILE779  LEU786  VAL792 
 PHE793  MET794  SER795  GLU796  ALA797  LYS798  CYS799  TRP800  GLU811  SER814 

> <Gold.Protein.RotatedAtoms>
  151.5436  135.1068  159.9932 H   0  0  0  0  0  0  0  0  0  0  0  0  # atno 6907 bound_to 6896
  152.4524  133.7651  159.6779 H   0  0  0  0  0  0  0  0  0  0  0  0  # atno 6908 bound_to 6896
  150.8456  133.7800  159.3068 H   0  0  0  0  0  0  0  0  0  0  0  0  # atno 6909 bound_to 6896
  146.0164  140.6903  142.9199 H   0  0  0  0  0  0  0  0  0  0  0  0  # atno 7974 bound_to 7965
  154.5880  140.2418  155.7960 H   0  0  0  0  0  0  0  0  0  0  0  0  # atno 8008 bound_to 7997
  156.2227  140.2992  155.9946 H   0  0  0  0  0  0  0  0  0  0  0  0  # atno 8009 bound_to 7997
  155.2423  140.0407  157.2967 H   0  0  0  0  0  0  0  0  0  0  0  0  # atno 8010 bound_to 7997
  140.7104  143.5788  150.9014 H   0  0  0  0  0  0  0  0  0  0  0  0  # atno 10167 bound_to 10162
  157.4468  131.1062  151.0079 H   0  0  0  0  0  0  0  0  0  0  0  0  # atno 10718 bound_to 10713
  153.3599  135.3958  155.1710 H   0  0  0  0  0  0  0  0  0  0  0  0  # atno 10763 bound_to 10752
  154.8677  135.3677  154.5113 H   0  0  0  0  0  0  0  0  0  0  0  0  # atno 10764 bound_to 10752
  153.5571  135.7082  153.5624 H   0  0  0  0  0  0  0  0  0  0  0  0  # atno 10765 bound_to 10752
  141.0711  133.6679  156.3467 H   0  0  0  0  0  0  0  0  0  0  0  0  # atno 11005 bound_to 11000
  144.6972  140.3489  143.7185 LP  0  0  0  0  0  0  0  0  0  0  0  0  # atno 17320 bound_to 7965
  145.7262  139.1723  143.2456 LP  0  0  0  0  0  0  0  0  0  0  0  0  # atno 17321 bound_to 7965
  139.9514  143.6268  152.3028 LP  0  0  0  0  0  0  0  0  0  0  0  0  # atno 17342 bound_to 10162
  139.6788  144.7657  151.1647 LP  0  0  0  0  0  0  0  0  0  0  0  0  # atno 17343 bound_to 10162
  157.0923  130.5947  149.5442 LP  0  0  0  0  0  0  0  0  0  0  0  0  # atno 17370 bound_to 10713
  155.9971  130.5041  150.7520 LP  0  0  0  0  0  0  0  0  0  0  0  0  # atno 17371 bound_to 10713
  140.5670  134.5877  157.5448 LP  0  0  0  0  0  0  0  0  0  0  0  0  # atno 17394 bound_to 11000
  139.9525  134.7592  156.0416 LP  0  0  0  0  0  0  0  0  0  0  0  0  # atno 17395 bound_to 11000

$$$$
