AV-unprocessed.smi:27|AV-procd|sdf|188|dock8
  -GOLD-   2262015453D 1   1.00000     0.00000
 Structure written by MMmdl.
 53 56  0  0  0  0  0  0  0  0  1 V2000
  148.4575  135.0190  158.2537 O   0  0  0  0  0  0  0  0  0  0  0  0
  147.4598  134.8401  157.5531 C   0  0  0  0  0  0  0  0  0  0  0  0
  147.3436  135.4738  156.1586 C   0  0  0  0  0  0  0  0  0  0  0  0
  147.6015  134.5232  155.0552 N   0  0  0  0  0  0  0  0  0  0  0  0
  148.8493  133.8533  155.0123 C   0  0  0  0  0  0  0  0  0  0  0  0
  149.7067  134.0439  155.8762 O   0  0  0  0  0  0  0  0  0  0  0  0
  149.0375  132.9450  153.8867 C   0  0  0  0  0  0  0  0  0  0  0  0
  150.1864  132.2571  153.7726 F   0  0  0  0  0  0  0  0  0  0  0  0
  148.0745  132.7811  152.9563 C   0  0  0  0  0  0  0  0  0  0  0  0
  146.8665  133.4544  153.0026 N   0  0  0  0  0  0  0  0  0  0  0  0
  145.7959  133.2618  151.9490 C   0  0  1  0  0  0  0  0  0  0  0  0
  146.3465  133.5916  150.5485 C   0  0  0  0  0  0  0  0  0  0  0  0
  145.9676  132.3650  149.7428 C   0  0  0  0  0  0  0  0  0  0  0  0
  145.9786  131.2758  150.8048 C   0  0  0  0  0  0  0  0  0  0  0  0
  145.3874  131.9236  151.9238 O   0  0  0  0  0  0  0  0  0  0  0  0
  146.6053  134.3448  154.0665 C   0  0  0  0  0  0  0  0  0  0  0  0
  145.5356  134.9555  154.1250 O   0  0  0  0  0  0  0  0  0  0  0  0
  146.4178  134.0877  157.9369 N   0  0  0  0  0  0  0  0  0  0  0  0
  146.3047  133.3795  159.2123 C   0  0  0  0  0  0  0  0  0  0  0  0
  145.0676  132.4894  159.2848 C   0  0  0  0  0  0  0  0  0  0  0  0
  145.1810  131.0900  159.4527 C   0  0  0  0  0  0  0  0  0  0  0  0
  144.0273  130.2845  159.5096 C   0  0  0  0  0  0  0  0  0  0  0  0
  142.7522  130.8703  159.3961 C   0  0  0  0  0  0  0  0  0  0  0  0
  142.6316  132.2624  159.2228 C   0  0  0  0  0  0  0  0  0  0  0  0
  143.7852  133.0681  159.1651 C   0  0  0  0  0  0  0  0  0  0  0  0
  146.3504  134.3385  160.3955 C   0  0  0  0  0  0  0  0  0  0  0  0
  146.3384  135.7385  160.1994 C   0  0  0  0  0  0  0  0  0  0  0  0
  146.3758  136.6119  161.3036 C   0  0  0  0  0  0  0  0  0  0  0  0
  146.4223  136.0932  162.6114 C   0  0  0  0  0  0  0  0  0  0  0  0
  146.4267  134.7001  162.8146 C   0  0  0  0  0  0  0  0  0  0  0  0
  146.3881  133.8263  161.7107 C   0  0  0  0  0  0  0  0  0  0  0  0
  146.3530  135.9222  156.0668 H   0  0  0  0  0  0  0  0  0  0  0  0
  148.0235  136.3256  156.1052 H   0  0  0  0  0  0  0  0  0  0  0  0
  148.2761  132.0916  152.1512 H   0  0  0  0  0  0  0  0  0  0  0  0
  144.9590  133.8895  152.2602 H   0  0  0  0  0  0  0  0  0  0  0  0
  145.9089  134.5125  150.1623 H   0  0  0  0  0  0  0  0  0  0  0  0
  147.4316  133.7024  150.5852 H   0  0  0  0  0  0  0  0  0  0  0  0
  144.9624  132.4790  149.3348 H   0  0  0  0  0  0  0  0  0  0  0  0
  146.6528  132.1659  148.9186 H   0  0  0  0  0  0  0  0  0  0  0  0
  145.4154  130.3907  150.5091 H   0  0  0  0  0  0  0  0  0  0  0  0
  147.0000  130.9735  151.0401 H   0  0  0  0  0  0  0  0  0  0  0  0
  145.6412  133.9960  157.2985 H   0  0  0  0  0  0  0  0  0  0  0  0
  147.1797  132.7324  159.3019 H   0  0  0  0  0  0  0  0  0  0  0  0
  146.1523  130.6252  159.5356 H   0  0  0  0  0  0  0  0  0  0  0  0
  144.1209  129.2164  159.6392 H   0  0  0  0  0  0  0  0  0  0  0  0
  141.8676  130.2522  159.4403 H   0  0  0  0  0  0  0  0  0  0  0  0
  141.6541  132.7125  159.1329 H   0  0  0  0  0  0  0  0  0  0  0  0
  143.6822  134.1347  159.0290 H   0  0  0  0  0  0  0  0  0  0  0  0
  146.2945  136.1511  159.2022 H   0  0  0  0  0  0  0  0  0  0  0  0
  146.3665  137.6804  161.1466 H   0  0  0  0  0  0  0  0  0  0  0  0
  146.4513  136.7633  163.4581 H   0  0  0  0  0  0  0  0  0  0  0  0
  146.4587  134.3009  163.8176 H   0  0  0  0  0  0  0  0  0  0  0  0
  146.3886  132.7591  161.8782 H   0  0  0  0  0  0  0  0  0  0  0  0
  1  2  2  0  0  0  0
  2  3  1  0  0  0  0
  2 18  1  0  0  0  0
  3  4  1  0  0  0  0
  3 32  1  0  0  0  0
  3 33  1  0  0  0  0
  4 16  1  0  0  0  0
  4  5  1  0  0  0  0
  5  6  2  0  0  0  0
  5  7  1  0  0  0  0
  7  8  1  0  0  0  0
  7  9  2  0  0  0  0
  9 10  1  0  0  0  0
  9 34  1  0  0  0  0
 10 11  1  0  0  0  0
 10 16  1  0  0  0  0
 11 15  1  0  0  0  0
 11 12  1  0  0  0  0
 11 35  1  0  0  0  0
 12 13  1  0  0  0  0
 12 36  1  0  0  0  0
 12 37  1  0  0  0  0
 13 14  1  0  0  0  0
 13 38  1  0  0  0  0
 13 39  1  0  0  0  0
 14 15  1  0  0  0  0
 14 40  1  0  0  0  0
 14 41  1  0  0  0  0
 16 17  2  0  0  0  0
 18 19  1  0  0  0  0
 18 42  1  0  0  0  0
 19 20  1  0  0  0  0
 19 26  1  0  0  0  0
 19 43  1  0  0  0  0
 20 25  1  0  0  0  0
 20 21  2  0  0  0  0
 21 22  1  0  0  0  0
 21 44  1  0  0  0  0
 22 23  2  0  0  0  0
 22 45  1  0  0  0  0
 23 24  1  0  0  0  0
 23 46  1  0  0  0  0
 24 25  2  0  0  0  0
 24 47  1  0  0  0  0
 25 48  1  0  0  0  0
 26 31  1  0  0  0  0
 26 27  2  0  0  0  0
 27 28  1  0  0  0  0
 27 49  1  0  0  0  0
 28 29  2  0  0  0  0
 28 50  1  0  0  0  0
 29 30  1  0  0  0  0
 29 51  1  0  0  0  0
 30 31  2  0  0  0  0
 30 52  1  0  0  0  0
 31 53  1  0  0  0  0
M  END
> <s_m_source_file>
AV-unprocessed.smi

> <i_m_source_file_index>
27

> <i_lp_mmshare_version>
43012

> <i_f3d_flags>
0

> <s_epik_input>
W2NIXTFbY0hdW2NIXVtjSF1bY0hdYzFbQ0hdKGMyW2NIXVtjSF1bY0hdW2NIXVtjSF0yKVtOSF1DKD1PKVtDSDJdbjNjKD1PKWMoRilbY0hdbihjMz1PKVtDQEBIXTRbQ0gyXVtDSDJdW0NIMl1PNA==

> <s_epik_cmdline>
J2VwaWtfcHl0aG9uJywgJy1waCcsICc3LjAnLCAnLXRuJywgJzgnLCAnLW1hJywgJzIwMCcsICctbWV0YWxfYmluZGluZycsICctaW1hZScsICc8aW5maWxlLm1hZT4nLCAnLW9tYWUnLCAnPG91dGZpbGUubWFlPic=

> <r_lp_tautomer_probability>
1

> <r_epik_Ionization_Penalty>
5.29953e-08

> <r_epik_Ionization_Penalty_Charging>
3.6115e-09

> <r_epik_Ionization_Penalty_Neutral>
4.93838e-08

> <r_epik_State_Penalty>
-0

> <r_epik_Charging_Adjusted_Penalty>
3.6115e-09

> <i_epik_Tot_Q>
0

> <i_epik_Tot_abs_Q>
0

> <r_epik_Metal_State_Penalty>
-0

> <b_epik_Metal_Only>
0

> <s_epik_Chemistry_Notes>
This compound contains an acetal/aminal-like group ( X-CH(R)-Y where X, Y are N, S, or O) that may be acid/base labile, releasing an aldehyde.

> <s_lp_Force_Field>
OPLS_2005

> <r_lp_Energy>
31.2801

> <b_lp_Chiralities_Consistent>
1

> <s_lp_Variant>
AV-unprocessed.smi:27-2

> <Gold.Version>
5.8.1

> <Gold.Id.Protein>
6NUR|6NUR_protein|mol2

> <Gold.PLP.Fitness>
49.6736

> <Gold.PLP.PLP>
-44.1752

> <Gold.PLP.part.hbond>
-1.0000

> <Gold.PLP.part.metal>
0.0000

> <Gold.PLP.part.buried>
-5.3455

> <Gold.PLP.part.nonpolar>
-38.4083

> <Gold.PLP.part.repulsive>
0.2199

> <Gold.PLP.ligand.clash>
0.0000

> <Gold.PLP.ligand.torsion>
0.3374

> <Gold.PLP.Chemscore.Hbond>
1.0000

> <Gold.PLP.Chemscore.CHOScore>
1.0000

> <Gold.PLP.Chemscore.Metal>
0.0000

> <Gold.Chemscore.Hbonds>
donor molecule, donor type, donor heavy atom, donor atom, acceptor molecule, acceptor atom, score
      L1  C     9    34       P1 10747  1.00

> <Gold.PLP.Chemscore.Internal.Correction>
0.1732

> <Gold.Rescore>
     Score         DG    S(hbond)    S(metal)    S(lipo)     H(rot)  DE(clash)    DE(int)     intcor
     14.28     -14.85       0.97        0.00      99.77       2.16       0.02       0.55       ----

> <Gold.Chemscore.Fitness>
14.2784

> <Gold.Chemscore.DG>
-14.8500

> <Gold.Chemscore.ZeroCoef>
-5.4800

> <Gold.Chemscore.Hbond>
0.9693

> <Gold.Chemscore.Metal>
0.0000

> <Gold.Chemscore.Lipo>
99.7696

> <Gold.Chemscore.Internal_Hbond>
0.0000

> <Gold.Chemscore.DEClash>
0.0174

> <Gold.Chemscore.DEInternal>
0.5542

> <Gold.Chemscore.Rot>
2.1642

> <Gold.Chemscore.Internal.Correction>
   9.000000E+99

> <Gold.Chemscore.Hbond.Weighted>
-3.2373

> <Gold.Chemscore.Metal.Weighted>
-0.0000

> <Gold.Chemscore.Lipo.Weighted>
-11.6730

> <Gold.Chemscore.Internal_Hbond.Weighted>
0.0000

> <Gold.Chemscore.DEClash.Weighted>
0.0174

> <Gold.Chemscore.DEInternal.Weighted>
0.5542

> <Gold.Chemscore.Rot.Weighted>
5.5404

> <Gold.Chemscore.Internal.Correction.Weighted>
   9.000000E+99

> <Gold.Protein.RotatedTorsions>
[ 6907 6896 6895 6894 ] final   34.37 input  -60.11 | X-H torsion
[ 7974 7965 7964 7962 ] final -146.89 input  175.53 | X-H torsion
[ 8008 7997 7996 7995 ] final   42.96 input   59.86 | X-H torsion
[ 10167 10162 10161 10158 ] final  -57.43 input  -65.29 | X-H torsion
[ 10718 10713 10712 10709 ] final  -61.68 input   66.30 | X-H torsion
[ 10763 10752 10751 10750 ] final   77.10 input  -60.55 | X-H torsion
[ 11005 11000 10999 10996 ] final  -25.60 input  -57.11 | X-H torsion

> <Gold.Protein.ActiveResidues>
 VAL166  LYS551  ARG553  GLY616  TRP617  ASP618  TYR619  PRO620  LYS621  CYS622 
 ASP623  PHE694  ASN695  SER759  ASP760  ASP761  ALA762  ILE779  LEU786  VAL792 
 PHE793  MET794  SER795  GLU796  ALA797  LYS798  CYS799  TRP800  GLU811  SER814 

> <Gold.Protein.RotatedAtoms>
  152.1014  134.9339  160.0569 H   0  0  0  0  0  0  0  0  0  0  0  0  # atno 6907 bound_to 6896
  152.0551  133.4032  159.4402 H   0  0  0  0  0  0  0  0  0  0  0  0  # atno 6908 bound_to 6896
  150.6839  134.3184  159.4819 H   0  0  0  0  0  0  0  0  0  0  0  0  # atno 6909 bound_to 6896
  144.8129  140.5397  143.5630 H   0  0  0  0  0  0  0  0  0  0  0  0  # atno 7974 bound_to 7965
  155.2948  140.3381  155.4250 H   0  0  0  0  0  0  0  0  0  0  0  0  # atno 8008 bound_to 7997
  156.2029  140.1740  156.7901 H   0  0  0  0  0  0  0  0  0  0  0  0  # atno 8009 bound_to 7997
  154.5583  140.0692  156.8762 H   0  0  0  0  0  0  0  0  0  0  0  0  # atno 8010 bound_to 7997
  140.6259  143.2438  151.5365 H   0  0  0  0  0  0  0  0  0  0  0  0  # atno 10167 bound_to 10162
  156.0905  130.4201  150.1028 H   0  0  0  0  0  0  0  0  0  0  0  0  # atno 10718 bound_to 10713
  153.0773  135.4927  154.8432 H   0  0  0  0  0  0  0  0  0  0  0  0  # atno 10763 bound_to 10752
  154.7105  135.3019  154.9207 H   0  0  0  0  0  0  0  0  0  0  0  0  # atno 10764 bound_to 10752
  153.9902  135.6779  153.4807 H   0  0  0  0  0  0  0  0  0  0  0  0  # atno 10765 bound_to 10752
  140.8953  133.7561  156.0473 H   0  0  0  0  0  0  0  0  0  0  0  0  # atno 11005 bound_to 11000
  145.5282  139.1475  143.3514 LP  0  0  0  0  0  0  0  0  0  0  0  0  # atno 17320 bound_to 7965
  146.2430  140.5422  142.8926 LP  0  0  0  0  0  0  0  0  0  0  0  0  # atno 17321 bound_to 7965
  139.5479  144.2472  152.1477 LP  0  0  0  0  0  0  0  0  0  0  0  0  # atno 17342 bound_to 10162
  140.1703  144.4942  150.6583 LP  0  0  0  0  0  0  0  0  0  0  0  0  # atno 17343 bound_to 10162
  156.9039  130.9629  151.3572 LP  0  0  0  0  0  0  0  0  0  0  0  0  # atno 17370 bound_to 10713
  157.6053  130.8543  149.8866 LP  0  0  0  0  0  0  0  0  0  0  0  0  # atno 17371 bound_to 10713
  140.8297  134.3192  157.5353 LP  0  0  0  0  0  0  0  0  0  0  0  0  # atno 17394 bound_to 11000
  139.8735  134.9356  156.3639 LP  0  0  0  0  0  0  0  0  0  0  0  0  # atno 17395 bound_to 11000

$$$$
