AV-unprocessed.smi:104|AV-procd|sdf|1001|dock5
  -GOLD-   2262017593D 1   1.00000     0.00000
 Structure written by MMmdl.
 47 49  0  0  0  0  0  0  0  0  1 V2000
  151.1280  141.8336  156.5997 C   0  0  0  0  0  0  0  0  0  0  0  0
  150.8951  140.5544  155.8071 C   0  0  0  0  0  0  0  0  0  0  0  0
  151.8294  139.9354  155.2980 O   0  0  0  0  0  0  0  0  0  0  0  0
  149.5937  140.2224  155.7432 O   0  0  0  0  0  0  0  0  0  0  0  0
  149.1828  138.9863  155.1687 C   0  0  0  0  0  0  0  0  0  0  0  0
  148.3731  138.1035  156.1430 C   0  0  2  0  0  0  0  0  0  0  0  0
  147.2493  138.8007  156.6607 O   0  0  0  0  0  0  0  0  0  0  0  0
  146.8845  138.2639  157.8900 C   0  0  1  0  0  0  0  0  0  0  0  0
  145.7677  137.2668  157.6704 N   0  0  0  0  0  0  0  0  0  0  0  0
  144.4749  137.3508  158.1444 C   0  0  0  0  0  0  0  0  0  0  0  0
  143.8671  138.7947  159.2291 Br  0  0  0  0  0  0  0  0  0  0  0  0
  143.6509  136.3942  157.8264 N   0  0  0  0  0  0  0  0  0  0  0  0
  144.4339  135.5682  157.0354 C   0  0  0  0  0  0  0  0  0  0  0  0
  144.1870  134.3521  156.3497 C   0  0  0  0  0  0  0  0  0  0  0  0
  142.9991  133.7314  156.3666 N   0  0  0  0  0  0  0  0  0  0  0  0
  145.1943  133.7898  155.6440 N   0  0  0  0  0  0  0  0  0  0  0  0
  146.3864  134.3907  155.6096 C   0  0  0  0  0  0  0  0  0  0  0  0
  146.7641  135.5275  156.1986 N   0  0  0  0  0  0  0  0  0  0  0  0
  145.7528  136.1007  156.9163 C   0  0  0  0  0  0  0  0  0  0  0  0
  148.1653  137.6970  158.5339 C   0  0  1  0  0  0  0  0  0  0  0  0
  147.9558  136.4880  159.2547 O   0  0  0  0  0  0  0  0  0  0  0  0
  147.2403  136.4918  160.3912 C   0  0  0  0  0  0  0  0  0  0  0  0
  147.4995  135.2558  161.2412 C   0  0  0  0  0  0  0  0  0  0  0  0
  146.4431  137.3614  160.7425 O   0  0  0  0  0  0  0  0  0  0  0  0
  149.1142  137.4893  157.3516 C   0  0  2  0  0  0  0  0  0  0  0  0
  150.3628  138.1172  157.6216 O   0  0  0  0  0  0  0  0  0  0  0  0
  151.1347  137.6958  158.6385 C   0  0  0  0  0  0  0  0  0  0  0  0
  152.3627  138.5747  158.8356 C   0  0  0  0  0  0  0  0  0  0  0  0
  150.9166  136.7234  159.3610 O   0  0  0  0  0  0  0  0  0  0  0  0
  150.4569  141.8813  157.4578 H   0  0  0  0  0  0  0  0  0  0  0  0
  150.9465  142.7039  155.9689 H   0  0  0  0  0  0  0  0  0  0  0  0
  152.1551  141.8768  156.9625 H   0  0  0  0  0  0  0  0  0  0  0  0
  148.6130  139.1606  154.2548 H   0  0  0  0  0  0  0  0  0  0  0  0
  150.0810  138.4482  154.8656 H   0  0  0  0  0  0  0  0  0  0  0  0
  147.9721  137.2843  155.5487 H   0  0  0  0  0  0  0  0  0  0  0  0
  146.4386  139.0356  158.5144 H   0  0  0  0  0  0  0  0  0  0  0  0
  142.2298  134.1304  156.8854 H   0  0  0  0  0  0  0  0  0  0  0  0
  142.8752  132.8655  155.8621 H   0  0  0  0  0  0  0  0  0  0  0  0
  147.1463  133.8899  155.0280 H   0  0  0  0  0  0  0  0  0  0  0  0
  148.5745  138.4713  159.1851 H   0  0  0  0  0  0  0  0  0  0  0  0
  148.5675  135.1409  161.4288 H   0  0  0  0  0  0  0  0  0  0  0  0
  147.1398  134.3639  160.7275 H   0  0  0  0  0  0  0  0  0  0  0  0
  146.9858  135.3344  162.1997 H   0  0  0  0  0  0  0  0  0  0  0  0
  149.2732  136.4278  157.1551 H   0  0  0  0  0  0  0  0  0  0  0  0
  152.8361  138.7891  157.8773 H   0  0  0  0  0  0  0  0  0  0  0  0
  153.0909  138.0763  159.4761 H   0  0  0  0  0  0  0  0  0  0  0  0
  152.0800  139.5186  159.3018 H   0  0  0  0  0  0  0  0  0  0  0  0
  1  2  1  0  0  0  0
  1 30  1  0  0  0  0
  1 31  1  0  0  0  0
  1 32  1  0  0  0  0
  2  3  2  0  0  0  0
  2  4  1  0  0  0  0
  4  5  1  0  0  0  0
  5  6  1  0  0  0  0
  5 33  1  0  0  0  0
  5 34  1  0  0  0  0
  6 25  1  0  0  0  0
  6  7  1  0  0  0  0
  6 35  1  0  0  0  0
  7  8  1  0  0  0  0
  8  9  1  0  0  0  0
  8 20  1  0  0  0  0
  8 36  1  0  0  0  0
  9 19  1  0  0  0  0
  9 10  1  0  0  0  0
 10 11  1  0  0  0  0
 10 12  2  0  0  0  0
 12 13  1  0  0  0  0
 13 19  2  0  0  0  0
 13 14  1  0  0  0  0
 14 15  1  0  0  0  0
 14 16  2  0  0  0  0
 15 37  1  0  0  0  0
 15 38  1  0  0  0  0
 16 17  1  0  0  0  0
 17 18  2  0  0  0  0
 17 39  1  0  0  0  0
 18 19  1  0  0  0  0
 20 21  1  0  0  0  0
 20 25  1  0  0  0  0
 20 40  1  0  0  0  0
 21 22  1  0  0  0  0
 22 23  1  0  0  0  0
 22 24  2  0  0  0  0
 23 41  1  0  0  0  0
 23 42  1  0  0  0  0
 23 43  1  0  0  0  0
 25 26  1  0  0  0  0
 25 44  1  0  0  0  0
 26 27  1  0  0  0  0
 27 28  1  0  0  0  0
 27 29  2  0  0  0  0
 28 45  1  0  0  0  0
 28 46  1  0  0  0  0
 28 47  1  0  0  0  0
M  END
> <s_m_source_file>
AV-unprocessed.smi

> <i_m_source_file_index>
104

> <i_lp_mmshare_version>
43012

> <i_f3d_flags>
0

> <s_epik_input>
W0NIM11DKD1PKU9bQ0gyXVtDQEBIXTFPW0NASF0oW0NAQEhdKE9DKD1PKVtDSDNdKVtDQEhdMU9DKD1PKVtDSDNdKW4oYyhCciluMiljKGMyMyluW2NIXW5jM1tOSDJd

> <s_epik_cmdline>
J2VwaWtfcHl0aG9uJywgJy1waCcsICc3LjAnLCAnLXRuJywgJzgnLCAnLW1hJywgJzIwMCcsICctbWV0YWxfYmluZGluZycsICctaW1hZScsICc8aW5maWxlLm1hZT4nLCAnLW9tYWUnLCAnPG91dGZpbGUubWFlPic=

> <r_lp_tautomer_probability>
1

> <r_epik_Ionization_Penalty>
7.36622e-05

> <r_epik_Ionization_Penalty_Charging>
0

> <r_epik_Ionization_Penalty_Neutral>
7.36622e-05

> <r_epik_State_Penalty>
-0

> <r_epik_Charging_Adjusted_Penalty>
0

> <i_epik_Tot_Q>
0

> <i_epik_Tot_abs_Q>
0

> <r_epik_Metal_State_Penalty>
-0

> <b_epik_Metal_Only>
0

> <s_epik_Chemistry_Notes>
This compound has an ester and may undergo hydrolysis at high or low pH. This compound contains an acetal/aminal-like group ( X-CH(R)-Y where X, Y are N, S, or O) that may be acid/base labile, releasing an aldehyde.

> <s_lp_Force_Field>
OPLS_2005

> <r_lp_Energy>
20.7491

> <b_lp_Chiralities_Consistent>
1

> <s_lp_Variant>
AV-unprocessed.smi:104-9

> <Gold.Version>
5.8.1

> <Gold.Id.Protein>
6NUR|6NUR_protein|mol2

> <Gold.PLP.Fitness>
35.9648

> <Gold.PLP.PLP>
-23.5996

> <Gold.PLP.part.hbond>
-5.0000

> <Gold.PLP.part.metal>
0.0000

> <Gold.PLP.part.buried>
-5.9395

> <Gold.PLP.part.nonpolar>
-13.1065

> <Gold.PLP.part.repulsive>
0.1638

> <Gold.PLP.ligand.clash>
0.0000

> <Gold.PLP.ligand.torsion>
0.7788

> <Gold.PLP.Chemscore.Hbond>
4.5625

> <Gold.PLP.Chemscore.CHOScore>
0.0000

> <Gold.PLP.Chemscore.Metal>
0.0000

> <Gold.Chemscore.Hbonds>
donor molecule, donor type, donor heavy atom, donor atom, acceptor molecule, acceptor atom, score
      L1  H    15    37       P1 11000  0.70
      L1  H    15    38       P1 10957  0.98
      P1  H  6896  6908       L1    29  1.00
      P1  H  6934  6947       L1    24  1.00
      P1  H  7989  7998       L1     3  0.65

> <Gold.PLP.Chemscore.Internal.Correction>
0.2351

> <Gold.Rescore>
     Score         DG    S(hbond)    S(metal)    S(lipo)     H(rot)  DE(clash)    DE(int)     intcor
     10.21     -12.85       4.53        0.00      27.83       4.31       0.03       2.61       ----

> <Gold.Chemscore.Fitness>
10.2116

> <Gold.Chemscore.DG>
-12.8501

> <Gold.Chemscore.ZeroCoef>
-5.4800

> <Gold.Chemscore.Hbond>
4.5329

> <Gold.Chemscore.Metal>
0.0000

> <Gold.Chemscore.Lipo>
27.8311

> <Gold.Chemscore.Internal_Hbond>
0.0000

> <Gold.Chemscore.DEClash>
0.0263

> <Gold.Chemscore.DEInternal>
2.6123

> <Gold.Chemscore.Rot>
4.3070

> <Gold.Chemscore.Internal.Correction>
   9.000000E+99

> <Gold.Chemscore.Hbonds>
donor molecule, donor type, donor heavy atom, donor atom, acceptor molecule, acceptor atom, score
      L1  H    15    37       P1 11000  0.60
      L1  H    15    38       P1 10957  0.92
      P1  H  6896  6908       L1    29  0.99
      P1  H  6934  6947       L1    24  0.91
      P1  H  7989  7998       L1     3  0.06

> <Gold.Chemscore.Hbond.Weighted>
-15.1397

> <Gold.Chemscore.Metal.Weighted>
-0.0000

> <Gold.Chemscore.Lipo.Weighted>
-3.2562

> <Gold.Chemscore.Internal_Hbond.Weighted>
0.0000

> <Gold.Chemscore.DEClash.Weighted>
0.0263

> <Gold.Chemscore.DEInternal.Weighted>
2.6123

> <Gold.Chemscore.Rot.Weighted>
11.0259

> <Gold.Chemscore.Internal.Correction.Weighted>
   9.000000E+99

> <Gold.Protein.RotatedTorsions>
[ 6907 6896 6895 6894 ] final -130.02 input  -60.11 | X-H torsion
[ 7974 7965 7964 7962 ] final   -3.17 input  175.53 | X-H torsion
[ 8008 7997 7996 7995 ] final -134.53 input   59.86 | X-H torsion
[ 10167 10162 10161 10158 ] final -135.84 input  -65.29 | X-H torsion
[ 10718 10713 10712 10709 ] final  175.92 input   66.30 | X-H torsion
[ 10763 10752 10751 10750 ] final  165.13 input  -60.55 | X-H torsion
[ 11005 11000 10999 10996 ] final   63.98 input  -57.11 | X-H torsion

> <Gold.Protein.ActiveResidues>
 VAL166  LYS551  ARG553  GLY616  TRP617  ASP618  TYR619  PRO620  LYS621  CYS622 
 ASP623  PHE694  ASN695  SER759  ASP760  ASP761  ALA762  ILE779  LEU786  VAL792 
 PHE793  MET794  SER795  GLU796  ALA797  LYS798  CYS799  TRP800  GLU811  SER814 

> <Gold.Protein.RotatedAtoms>
  150.9351  133.6721  159.2802 H   0  0  0  0  0  0  0  0  0  0  0  0  # atno 6907 bound_to 6896
  151.4129  135.0986  159.9600 H   0  0  0  0  0  0  0  0  0  0  0  0  # atno 6908 bound_to 6896
  152.5044  133.8820  159.7406 H   0  0  0  0  0  0  0  0  0  0  0  0  # atno 6909 bound_to 6896
  146.2394  140.1680  142.8332 H   0  0  0  0  0  0  0  0  0  0  0  0  # atno 7974 bound_to 7965
  155.3637  140.0484  157.3046 H   0  0  0  0  0  0  0  0  0  0  0  0  # atno 8008 bound_to 7997
  154.5165  140.2210  155.9019 H   0  0  0  0  0  0  0  0  0  0  0  0  # atno 8009 bound_to 7997
  156.1642  140.3110  155.8865 H   0  0  0  0  0  0  0  0  0  0  0  0  # atno 8010 bound_to 7997
  139.8738  143.6924  152.2636 H   0  0  0  0  0  0  0  0  0  0  0  0  # atno 10167 bound_to 10162
  156.9277  130.9961  151.2993 H   0  0  0  0  0  0  0  0  0  0  0  0  # atno 10718 bound_to 10713
  154.3193  135.2756  155.2527 H   0  0  0  0  0  0  0  0  0  0  0  0  # atno 10763 bound_to 10752
  154.4888  135.5839  153.6447 H   0  0  0  0  0  0  0  0  0  0  0  0  # atno 10764 bound_to 10752
  152.9878  135.6129  154.3376 H   0  0  0  0  0  0  0  0  0  0  0  0  # atno 10765 bound_to 10752
  139.9988  134.6474  155.9964 H   0  0  0  0  0  0  0  0  0  0  0  0  # atno 11005 bound_to 11000
  145.0035  140.8652  143.5267 LP  0  0  0  0  0  0  0  0  0  0  0  0  # atno 17320 bound_to 7965
  145.1703  139.2408  143.5345 LP  0  0  0  0  0  0  0  0  0  0  0  0  # atno 17321 bound_to 7965
  139.7259  144.7593  151.0879 LP  0  0  0  0  0  0  0  0  0  0  0  0  # atno 17342 bound_to 10162
  140.7756  143.5148  150.9608 LP  0  0  0  0  0  0  0  0  0  0  0  0  # atno 17343 bound_to 10162
  157.5867  130.8414  149.8600 LP  0  0  0  0  0  0  0  0  0  0  0  0  # atno 17370 bound_to 10713
  156.0461  130.3727  150.1313 LP  0  0  0  0  0  0  0  0  0  0  0  0  # atno 17371 bound_to 10713
  141.1626  133.6538  156.4370 LP  0  0  0  0  0  0  0  0  0  0  0  0  # atno 17394 bound_to 11000
  140.4766  134.6703  157.5153 LP  0  0  0  0  0  0  0  0  0  0  0  0  # atno 17395 bound_to 11000

$$$$
