AV-unprocessed.smi:508|AV-procd|sdf|2758|dock1
  -GOLD-   2262023223D 1   1.00000     0.00000
 Structure written by MMmdl.
 49 51  0  0  0  0  0  0  0  0  1 V2000
  150.1783  137.5613  158.6727 C   0  0  0  0  0  0  0  0  0  0  0  0
  151.6607  137.5037  159.0483 C   0  0  0  0  0  0  0  0  0  0  0  0
  152.3573  138.5004  158.3200 O   0  0  0  0  0  0  0  0  0  0  0  0
  152.3028  138.2966  156.9184 C   0  0  0  0  0  0  0  0  0  0  0  0
  152.5448  139.6455  156.2219 C   0  0  0  0  0  0  0  0  0  0  0  0
  151.3086  140.3830  155.9798 N   0  0  0  0  0  0  0  0  0  0  0  0
  150.8562  141.5467  156.5390 C   0  0  0  0  0  0  0  0  0  0  0  0
  151.5726  142.3027  157.4842 N   0  0  0  0  0  0  0  0  0  0  0  0
  152.6125  141.8306  158.4003 C   0  0  0  0  0  0  0  0  0  0  0  0
  152.3017  142.0545  159.8953 C   0  0  0  0  0  0  0  0  0  0  0  0
  152.4978  143.5107  160.3417 C   0  0  0  0  0  0  0  0  0  0  0  0
  151.3074  144.4419  160.0514 C   0  0  0  0  0  0  0  0  0  0  0  0
  150.5838  144.2257  158.7095 C   0  0  0  0  0  0  0  0  0  0  0  0
  151.4813  143.7638  157.5497 C   0  0  0  0  0  0  0  0  0  0  0  0
  149.6344  141.9023  156.1250 N   0  0  0  0  0  0  0  0  0  0  0  0
  149.2854  140.9090  155.2276 C   0  0  0  0  0  0  0  0  0  0  0  0
  150.2726  139.9857  155.1294 C   0  0  0  0  0  0  0  0  0  0  0  0
  150.1545  138.8023  154.2639 C   0  0  0  0  0  0  0  0  0  0  0  0
  151.0235  137.9382  154.1711 O   0  0  0  0  0  0  0  0  0  0  0  0
  148.9871  138.7582  153.5770 N   0  0  0  0  0  0  0  0  0  0  0  0
  147.9596  139.6595  153.6252 C   0  0  0  0  0  0  0  0  0  0  0  0
  146.9565  139.4870  152.9329 O   0  0  0  0  0  0  0  0  0  0  0  0
  148.0974  140.7371  154.4617 N   0  0  0  0  0  0  0  0  0  0  0  0
  147.0262  141.7305  154.5613 C   0  0  0  0  0  0  0  0  0  0  0  0
  148.8602  137.9685  152.9610 H   0  0  0  0  0  0  0  0  0  0  0  0
  149.6091  136.8067  159.2154 H   0  0  0  0  0  0  0  0  0  0  0  0
  150.0381  137.3838  157.6061 H   0  0  0  0  0  0  0  0  0  0  0  0
  149.7522  138.5365  158.9099 H   0  0  0  0  0  0  0  0  0  0  0  0
  151.7786  137.6690  160.1202 H   0  0  0  0  0  0  0  0  0  0  0  0
  152.0659  136.5173  158.8183 H   0  0  0  0  0  0  0  0  0  0  0  0
  153.0497  137.5615  156.6193 H   0  0  0  0  0  0  0  0  0  0  0  0
  151.3309  137.8886  156.6401 H   0  0  0  0  0  0  0  0  0  0  0  0
  153.2074  140.2636  156.8274 H   0  0  0  0  0  0  0  0  0  0  0  0
  153.0787  139.5079  155.2872 H   0  0  0  0  0  0  0  0  0  0  0  0
  152.7941  140.7750  158.2265 H   0  0  0  0  0  0  0  0  0  0  0  0
  153.5571  142.3120  158.1439 H   0  0  0  0  0  0  0  0  0  0  0  0
  151.3042  141.7054  160.1608 H   0  0  0  0  0  0  0  0  0  0  0  0
  152.9944  141.4366  160.4671 H   0  0  0  0  0  0  0  0  0  0  0  0
  152.6908  143.5326  161.4147 H   0  0  0  0  0  0  0  0  0  0  0  0
  153.4001  143.9114  159.8779 H   0  0  0  0  0  0  0  0  0  0  0  0
  150.5732  144.3475  160.8524 H   0  0  0  0  0  0  0  0  0  0  0  0
  151.6641  145.4713  160.1037 H   0  0  0  0  0  0  0  0  0  0  0  0
  149.7656  143.5155  158.8394 H   0  0  0  0  0  0  0  0  0  0  0  0
  150.1045  145.1654  158.4334 H   0  0  0  0  0  0  0  0  0  0  0  0
  152.4697  144.2208  157.6140 H   0  0  0  0  0  0  0  0  0  0  0  0
  151.0559  144.1399  156.6196 H   0  0  0  0  0  0  0  0  0  0  0  0
  146.9390  142.2863  153.6272 H   0  0  0  0  0  0  0  0  0  0  0  0
  147.1981  142.4523  155.3599 H   0  0  0  0  0  0  0  0  0  0  0  0
  146.0674  141.2510  154.7641 H   0  0  0  0  0  0  0  0  0  0  0  0
  1  2  1  0  0  0  0
  1 26  1  0  0  0  0
  1 27  1  0  0  0  0
  1 28  1  0  0  0  0
  2  3  1  0  0  0  0
  2 29  1  0  0  0  0
  2 30  1  0  0  0  0
  3  4  1  0  0  0  0
  4  5  1  0  0  0  0
  4 31  1  0  0  0  0
  4 32  1  0  0  0  0
  5  6  1  0  0  0  0
  5 33  1  0  0  0  0
  5 34  1  0  0  0  0
  6 17  1  0  0  0  0
  6  7  1  0  0  0  0
  7  8  1  0  0  0  0
  7 15  2  0  0  0  0
  8 14  1  0  0  0  0
  8  9  1  0  0  0  0
  9 10  1  0  0  0  0
  9 35  1  0  0  0  0
  9 36  1  0  0  0  0
 10 11  1  0  0  0  0
 10 37  1  0  0  0  0
 10 38  1  0  0  0  0
 11 12  1  0  0  0  0
 11 39  1  0  0  0  0
 11 40  1  0  0  0  0
 12 13  1  0  0  0  0
 12 41  1  0  0  0  0
 12 42  1  0  0  0  0
 13 14  1  0  0  0  0
 13 43  1  0  0  0  0
 13 44  1  0  0  0  0
 14 45  1  0  0  0  0
 14 46  1  0  0  0  0
 15 16  1  0  0  0  0
 16 23  1  0  0  0  0
 16 17  2  0  0  0  0
 17 18  1  0  0  0  0
 18 19  2  0  0  0  0
 18 20  1  0  0  0  0
 20 25  1  0  0  0  0
 20 21  1  0  0  0  0
 21 22  2  0  0  0  0
 21 23  1  0  0  0  0
 23 24  1  0  0  0  0
 24 47  1  0  0  0  0
 24 48  1  0  0  0  0
 24 49  1  0  0  0  0
M  END
> <s_m_source_file>
AV-unprocessed.smi

> <i_m_source_file_index>
508

> <i_lp_mmshare_version>
43012

> <i_f3d_flags>
0

> <s_epik_input>
W0NIM11uMWMoPU8pW25IXWMoPU8pYyhjMTIpbihbQ0gyXVtDSDJdT1tDSDJdW0NIM10pYyhuMilOM1tDSDJdW0NIMl1bQ0gyXVtDSDJdW0NIMl1bQ0gyXTM=

> <s_epik_cmdline>
J2VwaWtfcHl0aG9uJywgJy1waCcsICc3LjAnLCAnLXRuJywgJzgnLCAnLW1hJywgJzIwMCcsICctbWV0YWxfYmluZGluZycsICctaW1hZScsICc8aW5maWxlLm1hZT4nLCAnLW9tYWUnLCAnPG91dGZpbGUubWFlPic=

> <r_lp_tautomer_probability>
1

> <r_epik_Ionization_Penalty>
0.000193589

> <r_epik_Ionization_Penalty_Charging>
2.00901e-05

> <r_epik_Ionization_Penalty_Neutral>
0.000173499

> <r_epik_State_Penalty>
-0

> <r_epik_Charging_Adjusted_Penalty>
2.00901e-05

> <i_epik_Tot_Q>
0

> <i_epik_Tot_abs_Q>
0

> <r_epik_Metal_State_Penalty>
0.0191145

> <b_epik_Metal_Only>
0

> <s_lp_Force_Field>
OPLS_2005

> <r_lp_Energy>
44.1417

> <b_lp_Chiralities_Consistent>
1

> <s_lp_Variant>
AV-unprocessed.smi:508-1

> <Gold.Version>
5.8.1

> <Gold.Id.Protein>
6NUR|6NUR_protein|mol2

> <Gold.PLP.Fitness>
46.2902

> <Gold.PLP.PLP>
-44.6246

> <Gold.PLP.part.hbond>
-1.9972

> <Gold.PLP.part.metal>
0.0000

> <Gold.PLP.part.buried>
-4.1428

> <Gold.PLP.part.nonpolar>
-41.2701

> <Gold.PLP.part.repulsive>
3.3120

> <Gold.PLP.ligand.clash>
0.0000

> <Gold.PLP.ligand.torsion>
0.7234

> <Gold.PLP.Chemscore.Hbond>
0.9913

> <Gold.PLP.Chemscore.CHOScore>
0.0000

> <Gold.PLP.Chemscore.Metal>
0.0000

> <Gold.Chemscore.Hbonds>
donor molecule, donor type, donor heavy atom, donor atom, acceptor molecule, acceptor atom, score
      L1  H    20    25       P1  7948  0.99

> <Gold.PLP.Chemscore.Internal.Correction>
0.1386

> <Gold.Rescore>
     Score         DG    S(hbond)    S(metal)    S(lipo)     H(rot)  DE(clash)    DE(int)     intcor
     13.82     -15.33       1.00        0.00      90.34       1.58       0.04       1.47       ----

> <Gold.Chemscore.Fitness>
13.8215

> <Gold.Chemscore.DG>
-15.3286

> <Gold.Chemscore.ZeroCoef>
-5.4800

> <Gold.Chemscore.Hbond>
0.9955

> <Gold.Chemscore.Metal>
0.0000

> <Gold.Chemscore.Lipo>
90.3417

> <Gold.Chemscore.Internal_Hbond>
0.0000

> <Gold.Chemscore.DEClash>
0.0414

> <Gold.Chemscore.DEInternal>
1.4657

> <Gold.Chemscore.Rot>
1.5806

> <Gold.Chemscore.Internal.Correction>
   9.000000E+99

> <Gold.Chemscore.Hbonds>
donor molecule, donor type, donor heavy atom, donor atom, acceptor molecule, acceptor atom, score
      L1  H    20    25       P1  7948  0.92

> <Gold.Chemscore.Hbond.Weighted>
-3.3249

> <Gold.Chemscore.Metal.Weighted>
-0.0000

> <Gold.Chemscore.Lipo.Weighted>
-10.5700

> <Gold.Chemscore.Internal_Hbond.Weighted>
0.0000

> <Gold.Chemscore.DEClash.Weighted>
0.0414

> <Gold.Chemscore.DEInternal.Weighted>
1.4657

> <Gold.Chemscore.Rot.Weighted>
4.0463

> <Gold.Chemscore.Internal.Correction.Weighted>
   9.000000E+99

> <Gold.Protein.RotatedTorsions>
[ 6907 6896 6895 6894 ] final  -27.13 input  -60.11 | X-H torsion
[ 7974 7965 7964 7962 ] final  132.51 input  175.53 | X-H torsion
[ 8008 7997 7996 7995 ] final  -30.64 input   59.86 | X-H torsion
[ 10167 10162 10161 10158 ] final -152.37 input  -65.29 | X-H torsion
[ 10718 10713 10712 10709 ] final  156.78 input   66.30 | X-H torsion
[ 10763 10752 10751 10750 ] final   14.55 input  -60.55 | X-H torsion
[ 11005 11000 10999 10996 ] final   11.88 input  -57.11 | X-H torsion

> <Gold.Protein.ActiveResidues>
 VAL166  LYS551  ARG553  GLY616  TRP617  ASP618  TYR619  PRO620  LYS621  CYS622 
 ASP623  PHE694  ASN695  SER759  ASP760  ASP761  ALA762  ILE779  LEU786  VAL792 
 PHE793  MET794  SER795  GLU796  ALA797  LYS798  CYS799  TRP800  GLU811  SER814 

> <Gold.Protein.RotatedAtoms>
  151.1512  135.0228  159.8668 H   0  0  0  0  0  0  0  0  0  0  0  0  # atno 6907 bound_to 6896
  152.5452  134.1387  159.8480 H   0  0  0  0  0  0  0  0  0  0  0  0  # atno 6908 bound_to 6896
  151.1472  133.4886  159.2628 H   0  0  0  0  0  0  0  0  0  0  0  0  # atno 6909 bound_to 6896
  144.9961  139.4358  143.5315 H   0  0  0  0  0  0  0  0  0  0  0  0  # atno 7974 bound_to 7965
  154.4243  140.1786  156.1439 H   0  0  0  0  0  0  0  0  0  0  0  0  # atno 8008 bound_to 7997
  155.9970  140.3363  155.6783 H   0  0  0  0  0  0  0  0  0  0  0  0  # atno 8009 bound_to 7997
  155.6295  140.0668  157.2644 H   0  0  0  0  0  0  0  0  0  0  0  0  # atno 8010 bound_to 7997
  139.7187  143.8991  152.2495 H   0  0  0  0  0  0  0  0  0  0  0  0  # atno 10167 bound_to 10162
  157.2004  131.0675  151.2028 H   0  0  0  0  0  0  0  0  0  0  0  0  # atno 10718 bound_to 10713
  153.1611  135.6796  153.8741 H   0  0  0  0  0  0  0  0  0  0  0  0  # atno 10763 bound_to 10752
  153.8136  135.3139  155.3404 H   0  0  0  0  0  0  0  0  0  0  0  0  # atno 10764 bound_to 10752
  154.7933  135.4822  154.0192 H   0  0  0  0  0  0  0  0  0  0  0  0  # atno 10765 bound_to 10752
  140.4983  134.0771  155.7787 H   0  0  0  0  0  0  0  0  0  0  0  0  # atno 11005 bound_to 11000
  146.3442  139.9321  142.8752 LP  0  0  0  0  0  0  0  0  0  0  0  0  # atno 17320 bound_to 7965
  145.2218  140.9938  143.4041 LP  0  0  0  0  0  0  0  0  0  0  0  0  # atno 17321 bound_to 7965
  139.8881  144.6981  150.8801 LP  0  0  0  0  0  0  0  0  0  0  0  0  # atno 17342 bound_to 10162
  140.7749  143.3608  151.1832 LP  0  0  0  0  0  0  0  0  0  0  0  0  # atno 17343 bound_to 10162
  157.3773  130.7212  149.6605 LP  0  0  0  0  0  0  0  0  0  0  0  0  # atno 17370 bound_to 10713
  155.9701  130.4182  150.4317 LP  0  0  0  0  0  0  0  0  0  0  0  0  # atno 17371 bound_to 10713
  141.1449  133.9073  157.2240 LP  0  0  0  0  0  0  0  0  0  0  0  0  # atno 17394 bound_to 11000
  139.9728  135.0123  156.9556 LP  0  0  0  0  0  0  0  0  0  0  0  0  # atno 17395 bound_to 11000

$$$$
