AV-unprocessed.smi:3025|AV-procd|sdf|11508|dock5
  -GOLD-   2272016443D 1   1.00000     0.00000
 Structure written by MMmdl.
 42 43  0  0  0  0  0  0  0  0  2 V2000
  152.4268  144.4370  158.3444 C   0  0  0  0  0  0  0  0  0  0  0  0
  151.6156  143.5689  157.3764 C   0  0  0  0  0  0  0  0  0  0  0  0
  150.7549  142.5235  158.1058 C   0  0  0  0  0  0  0  0  0  0  0  0
  149.9197  141.6253  157.1699 C   0  0  2  0  0  0  0  0  0  0  0  0
  150.3552  141.7387  155.6929 C   0  0  0  0  0  0  0  0  0  0  0  0
  149.4918  140.8587  154.7723 C   0  0  0  0  0  0  0  0  0  0  0  0
  147.9860  141.1698  154.9058 C   0  0  2  0  0  0  0  0  0  0  0  0
  147.6322  142.4975  154.3514 N   0  3  0  0  0  0  0  0  0  0  0  0
  146.2437  142.9400  154.5951 C   0  0  0  0  0  0  0  0  0  0  0  0
  145.7478  143.8379  153.4541 C   0  0  0  0  0  0  0  0  0  0  0  0
  144.6734  144.7722  153.9023 C   0  0  0  0  0  0  0  0  0  0  0  0
  144.1885  144.7208  155.1439 N   0  0  0  0  0  0  0  0  0  0  0  0
  143.2943  145.7332  155.1397 N   0  0  0  0  0  0  0  0  0  0  0  0
  143.3118  146.3158  153.9417 C   0  0  0  0  0  0  0  0  0  0  0  0
  144.1761  145.7629  153.1005 N   0  0  0  0  0  0  0  0  0  0  0  0
  147.5529  141.0733  156.3805 C   0  0  0  0  0  0  0  0  0  0  0  0
  148.4183  141.9510  157.3020 C   0  0  0  0  0  0  0  0  0  0  0  0
  153.0287  145.1662  157.8016 H   0  0  0  0  0  0  0  0  0  0  0  0
  153.1039  143.8300  158.9459 H   0  0  0  0  0  0  0  0  0  0  0  0
  151.7735  144.9850  159.0240 H   0  0  0  0  0  0  0  0  0  0  0  0
  150.9860  144.2188  156.7694 H   0  0  0  0  0  0  0  0  0  0  0  0
  152.2979  143.0674  156.6892 H   0  0  0  0  0  0  0  0  0  0  0  0
  151.4185  141.8913  158.6974 H   0  0  0  0  0  0  0  0  0  0  0  0
  150.0991  143.0217  158.8213 H   0  0  0  0  0  0  0  0  0  0  0  0
  150.0601  140.5906  157.4866 H   0  0  0  0  0  0  0  0  0  0  0  0
  150.2986  142.7783  155.3678 H   0  0  0  0  0  0  0  0  0  0  0  0
  151.3972  141.4402  155.5808 H   0  0  0  0  0  0  0  0  0  0  0  0
  149.8261  140.9567  153.7398 H   0  0  0  0  0  0  0  0  0  0  0  0
  149.6586  139.8130  155.0341 H   0  0  0  0  0  0  0  0  0  0  0  0
  147.4215  140.4223  154.3465 H   0  0  0  0  0  0  0  0  0  0  0  0
  148.2419  143.1780  154.7817 H   0  0  0  0  0  0  0  0  0  0  0  0
  145.5887  142.0741  154.6887 H   0  0  0  0  0  0  0  0  0  0  0  0
  146.1988  143.4842  155.5396 H   0  0  0  0  0  0  0  0  0  0  0  0
  146.5764  144.4214  153.0500 H   0  0  0  0  0  0  0  0  0  0  0  0
  145.3696  143.2275  152.6324 H   0  0  0  0  0  0  0  0  0  0  0  0
  142.6877  147.1584  153.6824 H   0  0  0  0  0  0  0  0  0  0  0  0
  146.5018  141.3448  156.4845 H   0  0  0  0  0  0  0  0  0  0  0  0
  147.6294  140.0355  156.7079 H   0  0  0  0  0  0  0  0  0  0  0  0
  148.0976  141.8094  158.3348 H   0  0  0  0  0  0  0  0  0  0  0  0
  148.2479  143.0037  157.0734 H   0  0  0  0  0  0  0  0  0  0  0  0
  147.8112  142.4924  153.3574 H   0  0  0  0  0  0  0  0  0  0  0  0
  142.7283  145.9787  155.9398 H   0  0  0  0  0  0  0  0  0  0  0  0
  1  2  1  0  0  0  0
  1 18  1  0  0  0  0
  1 19  1  0  0  0  0
  1 20  1  0  0  0  0
  2  3  1  0  0  0  0
  2 21  1  0  0  0  0
  2 22  1  0  0  0  0
  3  4  1  0  0  0  0
  3 23  1  0  0  0  0
  3 24  1  0  0  0  0
  4 17  1  0  0  0  0
  4  5  1  0  0  0  0
  4 25  1  0  0  0  0
  5  6  1  0  0  0  0
  5 26  1  0  0  0  0
  5 27  1  0  0  0  0
  6  7  1  0  0  0  0
  6 28  1  0  0  0  0
  6 29  1  0  0  0  0
  7  8  1  0  0  0  0
  7 16  1  0  0  0  0
  7 30  1  0  0  0  0
  8  9  1  0  0  0  0
  8 31  1  0  0  0  0
  8 41  1  0  0  0  0
  9 10  1  0  0  0  0
  9 32  1  0  0  0  0
  9 33  1  0  0  0  0
 10 34  1  0  0  0  0
 10 35  1  0  0  0  0
 10 11  1  0  0  0  0
 11 15  1  0  0  0  0
 11 12  2  0  0  0  0
 12 13  1  0  0  0  0
 13 14  1  0  0  0  0
 13 42  1  0  0  0  0
 14 15  2  0  0  0  0
 14 36  1  0  0  0  0
 16 17  1  0  0  0  0
 16 37  1  0  0  0  0
 16 38  1  0  0  0  0
 17 39  1  0  0  0  0
 17 40  1  0  0  0  0
M  CHG  1   8   1
M  END
> <s_m_source_file>
AV-unprocessed.smi

> <i_m_source_file_index>
3025

> <i_lp_mmshare_version>
43012

> <i_f3d_flags>
0

> <s_epik_input>
W0NIM11bQ0gyXVtDSDJdW0NAQEhdMVtDSDJdW0NIMl1bQ0BIXShbQ0gyXVtDSDJdMSlbTkhdW0NIMl1bQ0gyXWMybm5bY0hdW25IXTI=

> <s_epik_cmdline>
J2VwaWtfcHl0aG9uJywgJy1waCcsICc3LjAnLCAnLXRuJywgJzgnLCAnLW1hJywgJzIwMCcsICctbWV0YWxfYmluZGluZycsICctaW1hZScsICc8aW5maWxlLm1hZT4nLCAnLW9tYWUnLCAnPG91dGZpbGUubWFlPic=

> <r_epik_Ionization_Penalty>
0.00995411

> <r_epik_Ionization_Penalty_Charging>
0.000442289

> <r_epik_Ionization_Penalty_Neutral>
0.00951182

> <r_epik_State_Penalty>
0.448541

> <r_epik_Charging_Adjusted_Penalty>
0.448983

> <i_epik_Tot_Q>
1

> <i_epik_Tot_abs_Q>
1

> <r_epik_Metal_State_Penalty>
0.682245

> <b_epik_Metal_Only>
0

> <s_lp_Force_Field>
OPLS_2005

> <r_lp_Energy>
14.0161

> <b_lp_Chiralities_Consistent>
1

> <s_lp_Variant>
AV-unprocessed.smi:3025-4

> <Gold.Version>
5.8.1

> <Gold.Id.Protein>
6NUR|6NUR_protein|mol2

> <Gold.PLP.Fitness>
40.1312

> <Gold.PLP.PLP>
-36.2589

> <Gold.PLP.part.hbond>
-2.2463

> <Gold.PLP.part.metal>
0.0000

> <Gold.PLP.part.buried>
-5.0607

> <Gold.PLP.part.nonpolar>
-28.2467

> <Gold.PLP.part.repulsive>
0.3963

> <Gold.PLP.ligand.clash>
0.0000

> <Gold.PLP.ligand.torsion>
1.0981

> <Gold.PLP.Chemscore.Hbond>
2.0000

> <Gold.PLP.Chemscore.CHOScore>
0.0000

> <Gold.PLP.Chemscore.Metal>
0.0000

> <Gold.Chemscore.Hbonds>
donor molecule, donor type, donor heavy atom, donor atom, acceptor molecule, acceptor atom, score
      L1  H     8    31       P1  8028  2.00

> <Gold.PLP.Chemscore.Internal.Correction>
0.0685

> <Gold.Rescore>
     Score         DG    S(hbond)    S(metal)    S(lipo)     H(rot)  DE(clash)    DE(int)     intcor
     10.07     -11.20       0.92        0.00      78.53       2.56       0.07       1.06       ----

> <Gold.Chemscore.Fitness>
10.0726

> <Gold.Chemscore.DG>
-11.2009

> <Gold.Chemscore.ZeroCoef>
-5.4800

> <Gold.Chemscore.Hbond>
0.9244

> <Gold.Chemscore.Metal>
0.0000

> <Gold.Chemscore.Lipo>
78.5255

> <Gold.Chemscore.Internal_Hbond>
0.0000

> <Gold.Chemscore.DEClash>
0.0682

> <Gold.Chemscore.DEInternal>
1.0602

> <Gold.Chemscore.Rot>
2.5602

> <Gold.Chemscore.Internal.Correction>
   9.000000E+99

> <Gold.Chemscore.Hbonds>
donor molecule, donor type, donor heavy atom, donor atom, acceptor molecule, acceptor atom, score
      L1  H     8    31       P1  8028  0.98

> <Gold.Chemscore.Hbond.Weighted>
-3.0877

> <Gold.Chemscore.Metal.Weighted>
-0.0000

> <Gold.Chemscore.Lipo.Weighted>
-9.1875

> <Gold.Chemscore.Internal_Hbond.Weighted>
0.0000

> <Gold.Chemscore.DEClash.Weighted>
0.0682

> <Gold.Chemscore.DEInternal.Weighted>
1.0602

> <Gold.Chemscore.Rot.Weighted>
6.5542

> <Gold.Chemscore.Internal.Correction.Weighted>
   9.000000E+99

> <Gold.Protein.RotatedTorsions>
[ 6907 6896 6895 6894 ] final   57.35 input  -60.11 | X-H torsion
[ 7974 7965 7964 7962 ] final   85.70 input  175.53 | X-H torsion
[ 8008 7997 7996 7995 ] final  -33.31 input   59.86 | X-H torsion
[ 10167 10162 10161 10158 ] final  127.56 input  -65.29 | X-H torsion
[ 10718 10713 10712 10709 ] final   98.32 input   66.30 | X-H torsion
[ 10763 10752 10751 10750 ] final -168.29 input  -60.55 | X-H torsion
[ 11005 11000 10999 10996 ] final   15.09 input  -57.11 | X-H torsion

> <Gold.Protein.ActiveResidues>
 VAL166  LYS551  ARG553  GLY616  TRP617  ASP618  TYR619  PRO620  LYS621  CYS622 
 ASP623  PHE694  ASN695  SER759  ASP760  ASP761  ALA762  ILE779  LEU786  VAL792 
 PHE793  MET794  SER795  GLU796  ALA797  LYS798  CYS799  TRP800  GLU811  SER814 

> <Gold.Protein.RotatedAtoms>
  152.3723  134.6715  160.0171 H   0  0  0  0  0  0  0  0  0  0  0  0  # atno 6907 bound_to 6896
  151.7005  133.3305  159.3273 H   0  0  0  0  0  0  0  0  0  0  0  0  # atno 6908 bound_to 6896
  150.7683  134.6555  159.6356 H   0  0  0  0  0  0  0  0  0  0  0  0  # atno 6909 bound_to 6896
  145.5821  139.2326  143.2347 H   0  0  0  0  0  0  0  0  0  0  0  0  # atno 7974 bound_to 7965
  154.4153  140.1714  156.1868 H   0  0  0  0  0  0  0  0  0  0  0  0  # atno 8008 bound_to 7997
  155.9636  140.3391  155.6489 H   0  0  0  0  0  0  0  0  0  0  0  0  # atno 8009 bound_to 7997
  155.6716  140.0712  157.2508 H   0  0  0  0  0  0  0  0  0  0  0  0  # atno 8010 bound_to 7997
  139.5572  144.6857  151.4148 H   0  0  0  0  0  0  0  0  0  0  0  0  # atno 10167 bound_to 10162
  157.6897  131.0636  150.4778 H   0  0  0  0  0  0  0  0  0  0  0  0  # atno 10718 bound_to 10713
  154.6644  135.2930  154.9824 H   0  0  0  0  0  0  0  0  0  0  0  0  # atno 10763 bound_to 10752
  154.0873  135.6596  153.4851 H   0  0  0  0  0  0  0  0  0  0  0  0  # atno 10764 bound_to 10752
  153.0449  135.5211  154.7610 H   0  0  0  0  0  0  0  0  0  0  0  0  # atno 10765 bound_to 10752
  140.4622  134.1115  155.7718 H   0  0  0  0  0  0  0  0  0  0  0  0  # atno 11005 bound_to 11000
  146.1709  140.6647  142.9234 LP  0  0  0  0  0  0  0  0  0  0  0  0  # atno 17320 bound_to 7965
  144.7389  140.4887  143.6883 LP  0  0  0  0  0  0  0  0  0  0  0  0  # atno 17321 bound_to 7965
  140.6847  143.8002  150.7169 LP  0  0  0  0  0  0  0  0  0  0  0  0  # atno 17342 bound_to 10162
  140.1466  143.4394  152.2159 LP  0  0  0  0  0  0  0  0  0  0  0  0  # atno 17343 bound_to 10162
  156.5112  130.4140  149.6300 LP  0  0  0  0  0  0  0  0  0  0  0  0  # atno 17370 bound_to 10713
  156.3239  130.7295  151.2212 LP  0  0  0  0  0  0  0  0  0  0  0  0  # atno 17371 bound_to 10713
  141.1616  133.8782  157.1832 LP  0  0  0  0  0  0  0  0  0  0  0  0  # atno 17394 bound_to 11000
  139.9938  135.0054  157.0036 LP  0  0  0  0  0  0  0  0  0  0  0  0  # atno 17395 bound_to 11000

$$$$
