AV-unprocessed.smi:2510|AV-procd|sdf|9885|dock3
  -GOLD-   2272013523D 1   1.00000     0.00000
 Structure written by MMmdl.
 48 49  0  0  0  0  0  0  0  0  1 V2000
  151.9900  143.5177  157.7450 C   0  0  0  0  0  0  0  0  0  0  0  0
  150.8202  142.5798  158.0876 C   0  0  0  0  0  0  0  0  0  0  0  0
  151.0721  141.0798  157.7997 C   0  0  0  0  0  0  0  0  0  0  0  0
  151.9075  140.4888  158.9668 C   0  0  0  0  0  0  0  0  0  0  0  0
  153.1988  141.2527  159.2999 C   0  0  0  0  0  0  0  0  0  0  0  0
  149.7957  140.3074  157.3453 C   0  0  2  0  0  0  0  0  0  0  0  0
  149.8281  138.8815  157.6672 N   0  0  0  0  0  0  0  0  0  0  0  0
  148.7589  138.1415  157.9951 C   0  0  0  0  0  0  0  0  0  0  0  0
  147.6010  138.5549  157.9404 O   0  0  0  0  0  0  0  0  0  0  0  0
  149.0490  136.7292  158.5026 C   0  0  0  0  0  0  0  0  0  0  0  0
  148.1254  136.3883  159.6285 C   0  0  0  0  0  0  0  0  0  0  0  0
  148.1496  135.3689  160.5391 C   0  0  0  0  0  0  0  0  0  0  0  0
  147.0317  135.6259  161.3855 C   0  0  0  0  0  0  0  0  0  0  0  0
  146.5781  134.8458  162.5838 C   0  0  0  0  0  0  0  0  0  0  0  0
  146.3587  136.7071  161.0208 N   0  0  0  0  0  0  0  0  0  0  0  0
  147.0320  137.1611  159.9478 N   0  0  0  0  0  0  0  0  0  0  0  0
  150.1801  140.5723  155.8794 C   0  0  2  0  0  0  0  0  0  0  0  0
  149.8727  139.5549  154.7823 C   0  0  0  0  0  0  0  0  0  0  0  0
  151.6202  140.8045  156.3726 C   0  0  2  0  0  0  0  0  0  0  0  0
  152.4079  139.6191  156.3227 O   0  0  0  0  0  0  0  0  0  0  0  0
  152.8543  139.3007  155.0161 C   0  0  0  0  0  0  0  0  0  0  0  0
  146.7461  137.9972  159.4579 H   0  0  0  0  0  0  0  0  0  0  0  0
  151.7848  144.5280  158.0993 H   0  0  0  0  0  0  0  0  0  0  0  0
  152.1553  143.5852  156.6702 H   0  0  0  0  0  0  0  0  0  0  0  0
  152.9200  143.1896  158.2092 H   0  0  0  0  0  0  0  0  0  0  0  0
  150.5988  142.7193  159.1457 H   0  0  0  0  0  0  0  0  0  0  0  0
  149.9206  142.9267  157.5803 H   0  0  0  0  0  0  0  0  0  0  0  0
  151.3021  140.3848  159.8667 H   0  0  0  0  0  0  0  0  0  0  0  0
  152.2142  139.4703  158.7342 H   0  0  0  0  0  0  0  0  0  0  0  0
  153.7884  140.6993  160.0309 H   0  0  0  0  0  0  0  0  0  0  0  0
  152.9947  142.2332  159.7288 H   0  0  0  0  0  0  0  0  0  0  0  0
  153.8196  141.3902  158.4143 H   0  0  0  0  0  0  0  0  0  0  0  0
  148.8583  140.7961  157.6155 H   0  0  0  0  0  0  0  0  0  0  0  0
  150.7408  138.4560  157.7441 H   0  0  0  0  0  0  0  0  0  0  0  0
  148.9346  136.0127  157.6880 H   0  0  0  0  0  0  0  0  0  0  0  0
  150.0865  136.6689  158.8331 H   0  0  0  0  0  0  0  0  0  0  0  0
  148.8731  134.5699  160.6055 H   0  0  0  0  0  0  0  0  0  0  0  0
  147.0938  133.8878  162.6482 H   0  0  0  0  0  0  0  0  0  0  0  0
  145.5074  134.6437  162.5420 H   0  0  0  0  0  0  0  0  0  0  0  0
  146.7797  135.3936  163.5045 H   0  0  0  0  0  0  0  0  0  0  0  0
  149.7606  141.5380  155.5928 H   0  0  0  0  0  0  0  0  0  0  0  0
  150.3357  138.5875  154.9782 H   0  0  0  0  0  0  0  0  0  0  0  0
  150.2347  139.9006  153.8141 H   0  0  0  0  0  0  0  0  0  0  0  0
  148.7991  139.3912  154.6901 H   0  0  0  0  0  0  0  0  0  0  0  0
  152.1142  141.6729  155.9324 H   0  0  0  0  0  0  0  0  0  0  0  0
  153.4071  138.3619  155.0383 H   0  0  0  0  0  0  0  0  0  0  0  0
  153.5211  140.0744  154.6334 H   0  0  0  0  0  0  0  0  0  0  0  0
  152.0213  139.1854  154.3226 H   0  0  0  0  0  0  0  0  0  0  0  0
  1  2  1  0  0  0  0
  1 23  1  0  0  0  0
  1 24  1  0  0  0  0
  1 25  1  0  0  0  0
  2  3  1  0  0  0  0
  2 26  1  0  0  0  0
  2 27  1  0  0  0  0
  3 19  1  0  0  0  0
  3  4  1  0  0  0  0
  3  6  1  0  0  0  0
  4  5  1  0  0  0  0
  4 28  1  0  0  0  0
  4 29  1  0  0  0  0
  5 30  1  0  0  0  0
  5 31  1  0  0  0  0
  5 32  1  0  0  0  0
  6  7  1  0  0  0  0
  6 17  1  0  0  0  0
  6 33  1  0  0  0  0
  7  8  1  0  0  0  0
  7 34  1  0  0  0  0
  8  9  2  0  0  0  0
  8 10  1  0  0  0  0
 10 35  1  0  0  0  0
 10 36  1  0  0  0  0
 10 11  1  0  0  0  0
 11 16  1  0  0  0  0
 11 12  2  0  0  0  0
 12 13  1  0  0  0  0
 12 37  1  0  0  0  0
 13 14  1  0  0  0  0
 13 15  2  0  0  0  0
 14 38  1  0  0  0  0
 14 39  1  0  0  0  0
 14 40  1  0  0  0  0
 15 16  1  0  0  0  0
 16 22  1  0  0  0  0
 17 18  1  0  0  0  0
 17 19  1  0  0  0  0
 17 41  1  0  0  0  0
 18 42  1  0  0  0  0
 18 43  1  0  0  0  0
 18 44  1  0  0  0  0
 19 20  1  0  0  0  0
 19 45  1  0  0  0  0
 20 21  1  0  0  0  0
 21 46  1  0  0  0  0
 21 47  1  0  0  0  0
 21 48  1  0  0  0  0
M  END
> <s_m_source_file>
AV-unprocessed.smi

> <i_m_source_file_index>
2510

> <i_lp_mmshare_version>
43012

> <i_f3d_flags>
0

> <s_epik_input>
W0NIM11PW0NAQEhdMVtDQEhdKFtDSDNdKVtDQEBIXShDMShbQ0gyXVtDSDNdKVtDSDJdW0NIM10pW05IXUMoPU8pW0NIMl1jMltjSF1jKFtDSDNdKVtuSF1uMg==

> <s_epik_cmdline>
J2VwaWtfcHl0aG9uJywgJy1waCcsICc3LjAnLCAnLXRuJywgJzgnLCAnLW1hJywgJzIwMCcsICctbWV0YWxfYmluZGluZycsICctaW1hZScsICc8aW5maWxlLm1hZT4nLCAnLW9tYWUnLCAnPG91dGZpbGUubWFlPic=

> <r_lp_tautomer_probability>
0.5

> <r_epik_Ionization_Penalty>
0.000134763

> <r_epik_Ionization_Penalty_Charging>
0

> <r_epik_Ionization_Penalty_Neutral>
0.000134763

> <r_epik_State_Penalty>
0.41068

> <r_epik_Charging_Adjusted_Penalty>
0.41068

> <i_epik_Tot_Q>
0

> <i_epik_Tot_abs_Q>
0

> <r_epik_Metal_State_Penalty>
0.410661

> <b_epik_Metal_Only>
0

> <s_lp_Force_Field>
OPLS_2005

> <r_lp_Energy>
25.7229

> <b_lp_Chiralities_Consistent>
1

> <s_lp_Variant>
AV-unprocessed.smi:2510-16

> <Gold.Version>
5.8.1

> <Gold.Id.Protein>
6NUR|6NUR_protein|mol2

> <Gold.PLP.Fitness>
32.1012

> <Gold.PLP.PLP>
-32.8387

> <Gold.PLP.part.hbond>
-1.2263

> <Gold.PLP.part.metal>
0.0000

> <Gold.PLP.part.buried>
-3.9244

> <Gold.PLP.part.nonpolar>
-27.8196

> <Gold.PLP.part.repulsive>
1.3527

> <Gold.PLP.ligand.clash>
0.0000

> <Gold.PLP.ligand.torsion>
1.1376

> <Gold.PLP.Chemscore.Hbond>
0.3007

> <Gold.PLP.Chemscore.CHOScore>
0.0000

> <Gold.PLP.Chemscore.Metal>
0.0000

> <Gold.Chemscore.Hbonds>
donor molecule, donor type, donor heavy atom, donor atom, acceptor molecule, acceptor atom, score
      P1  H  7997  8008       L1    20  0.24

> <Gold.PLP.Chemscore.Internal.Correction>
0.6357

> <Gold.Rescore>
     Score         DG    S(hbond)    S(metal)    S(lipo)     H(rot)  DE(clash)    DE(int)     intcor
      9.81     -12.64       0.00        0.00     100.82       1.81       0.58       2.25       ----

> <Gold.Chemscore.Fitness>
9.8120

> <Gold.Chemscore.DG>
-12.6436

> <Gold.Chemscore.ZeroCoef>
-5.4800

> <Gold.Chemscore.Hbond>
0.0006

> <Gold.Chemscore.Metal>
0.0000

> <Gold.Chemscore.Lipo>
100.8169

> <Gold.Chemscore.Internal_Hbond>
0.0000

> <Gold.Chemscore.DEClash>
0.5812

> <Gold.Chemscore.DEInternal>
2.2504

> <Gold.Chemscore.Rot>
1.8102

> <Gold.Chemscore.Internal.Correction>
   9.000000E+99

> <Gold.Chemscore.Hbond.Weighted>
-0.0021

> <Gold.Chemscore.Metal.Weighted>
-0.0000

> <Gold.Chemscore.Lipo.Weighted>
-11.7956

> <Gold.Chemscore.Internal_Hbond.Weighted>
0.0000

> <Gold.Chemscore.DEClash.Weighted>
0.5812

> <Gold.Chemscore.DEInternal.Weighted>
2.2504

> <Gold.Chemscore.Rot.Weighted>
4.6341

> <Gold.Chemscore.Internal.Correction.Weighted>
   9.000000E+99

> <Gold.Protein.RotatedTorsions>
[ 6907 6896 6895 6894 ] final   65.10 input  -60.11 | X-H torsion
[ 7974 7965 7964 7962 ] final   46.54 input  175.53 | X-H torsion
[ 8008 7997 7996 7995 ] final  -67.37 input   59.86 | X-H torsion
[ 10167 10162 10161 10158 ] final  121.21 input  -65.29 | X-H torsion
[ 10718 10713 10712 10709 ] final   81.69 input   66.30 | X-H torsion
[ 10763 10752 10751 10750 ] final   72.13 input  -60.55 | X-H torsion
[ 11005 11000 10999 10996 ] final -177.14 input  -57.11 | X-H torsion

> <Gold.Protein.ActiveResidues>
 VAL166  LYS551  ARG553  GLY616  TRP617  ASP618  TYR619  PRO620  LYS621  CYS622 
 ASP623  PHE694  ASN695  SER759  ASP760  ASP761  ALA762  ILE779  LEU786  VAL792 
 PHE793  MET794  SER795  GLU796  ALA797  LYS798  CYS799  TRP800  GLU811  SER814 

> <Gold.Protein.RotatedAtoms>
  152.4382  134.5644  159.9903 H   0  0  0  0  0  0  0  0  0  0  0  0  # atno 6907 bound_to 6896
  151.5749  133.3379  159.3005 H   0  0  0  0  0  0  0  0  0  0  0  0  # atno 6908 bound_to 6896
  150.8284  134.7559  159.6896 H   0  0  0  0  0  0  0  0  0  0  0  0  # atno 6909 bound_to 6896
  146.0380  139.4845  142.9796 H   0  0  0  0  0  0  0  0  0  0  0  0  # atno 7974 bound_to 7965
  154.4795  140.0894  156.7344 H   0  0  0  0  0  0  0  0  0  0  0  0  # atno 8008 bound_to 7997
  155.4507  140.3457  155.4282 H   0  0  0  0  0  0  0  0  0  0  0  0  # atno 8009 bound_to 7997
  156.1170  140.1463  156.9247 H   0  0  0  0  0  0  0  0  0  0  0  0  # atno 8010 bound_to 7997
  139.5934  144.7033  151.3236 H   0  0  0  0  0  0  0  0  0  0  0  0  # atno 10167 bound_to 10162
  157.6839  131.0015  150.2264 H   0  0  0  0  0  0  0  0  0  0  0  0  # atno 10718 bound_to 10713
  153.0440  135.5111  154.7698 H   0  0  0  0  0  0  0  0  0  0  0  0  # atno 10763 bound_to 10752
  154.6613  135.2939  154.9865 H   0  0  0  0  0  0  0  0  0  0  0  0  # atno 10764 bound_to 10752
  154.0715  135.6677  153.4877 H   0  0  0  0  0  0  0  0  0  0  0  0  # atno 10765 bound_to 10752
  140.4442  134.6403  157.4772 H   0  0  0  0  0  0  0  0  0  0  0  0  # atno 11005 bound_to 11000
  145.6931  141.0158  143.1545 LP  0  0  0  0  0  0  0  0  0  0  0  0  # atno 17320 bound_to 7965
  144.7061  139.8556  143.7429 LP  0  0  0  0  0  0  0  0  0  0  0  0  # atno 17321 bound_to 7965
  140.7192  143.7184  150.7715 LP  0  0  0  0  0  0  0  0  0  0  0  0  # atno 17342 bound_to 10162
  140.0744  143.5029  152.2563 LP  0  0  0  0  0  0  0  0  0  0  0  0  # atno 17343 bound_to 10162
  156.2905  130.3745  149.7846 LP  0  0  0  0  0  0  0  0  0  0  0  0  # atno 17370 bound_to 10713
  156.5507  130.8340  151.3298 LP  0  0  0  0  0  0  0  0  0  0  0  0  # atno 17371 bound_to 10713
  140.0049  134.6779  155.9471 LP  0  0  0  0  0  0  0  0  0  0  0  0  # atno 17394 bound_to 11000
  141.1692  133.6537  156.4590 LP  0  0  0  0  0  0  0  0  0  0  0  0  # atno 17395 bound_to 11000

$$$$
