AV-unprocessed.smi:33|AV-procd|sdf|205|dock10
  -GOLD-   2262015493D 1   1.00000     0.00000
 Structure written by MMmdl.
 67 72  0  0  0  0  0  0  0  0  1 V2000
  148.8139  141.5304  157.8876 O   0  0  0  0  0  0  0  0  0  0  0  0
  149.9516  141.9587  157.6838 C   0  0  0  0  0  0  0  0  0  0  0  0
  150.8030  141.4193  156.7904 O   0  0  0  0  0  0  0  0  0  0  0  0
  150.4193  140.2806  156.0365 C   0  0  0  0  0  0  0  0  0  0  0  0
  151.6597  139.4226  155.7426 C   0  0  2  0  0  0  0  0  0  0  0  0
  151.2466  138.3218  154.9332 O   0  0  0  0  0  0  0  0  0  0  0  0
  151.5875  137.1071  155.5325 C   0  0  2  0  0  0  0  0  0  0  0  0
  150.5569  136.0671  155.2003 N   0  0  0  0  0  0  0  0  0  0  0  0
  149.2223  136.2575  154.9052 C   0  0  0  0  0  0  0  0  0  0  0  0
  148.5271  135.1703  154.7084 N   0  0  0  0  0  0  0  0  0  0  0  0
  149.4415  134.1476  154.9172 C   0  0  0  0  0  0  0  0  0  0  0  0
  149.3587  132.7291  154.8904 C   0  0  0  0  0  0  0  0  0  0  0  0
  148.2132  132.0628  154.6125 N   0  0  0  0  0  0  0  0  0  0  0  0
  147.1297  132.1458  155.6036 C   0  0  0  0  0  0  0  0  0  0  0  0
  146.2914  131.2442  155.6633 O   0  0  0  0  0  0  0  0  0  0  0  0
  147.0704  133.2881  156.5780 C   0  0  0  0  0  0  0  0  0  0  0  0
  148.1065  133.4652  157.5211 C   0  0  0  0  0  0  0  0  0  0  0  0
  148.0501  134.5240  158.4479 C   0  0  0  0  0  0  0  0  0  0  0  0
  146.9490  135.4015  158.4498 C   0  0  0  0  0  0  0  0  0  0  0  0
  145.8992  135.2141  157.5307 C   0  0  0  0  0  0  0  0  0  0  0  0
  145.9547  134.1554  156.6038 C   0  0  0  0  0  0  0  0  0  0  0  0
  148.1621  131.3129  153.3491 C   0  0  0  0  0  0  0  0  0  0  0  0
  149.2094  130.9249  152.8283 O   0  0  0  0  0  0  0  0  0  0  0  0
  146.8411  130.9788  152.7162 C   0  0  0  0  0  0  0  0  0  0  0  0
  146.6135  129.6873  152.1925 C   0  0  0  0  0  0  0  0  0  0  0  0
  145.3795  129.3728  151.5905 C   0  0  0  0  0  0  0  0  0  0  0  0
  144.3742  130.3533  151.4894 C   0  0  0  0  0  0  0  0  0  0  0  0
  144.6060  131.6516  151.9821 C   0  0  0  0  0  0  0  0  0  0  0  0
  145.8381  131.9660  152.5869 C   0  0  0  0  0  0  0  0  0  0  0  0
  150.4812  132.0186  155.1723 N   0  0  0  0  0  0  0  0  0  0  0  0
  151.6150  132.6602  155.4671 C   0  0  0  0  0  0  0  0  0  0  0  0
  151.8377  133.9747  155.5313 N   0  0  0  0  0  0  0  0  0  0  0  0
  150.7143  134.6948  155.2403 C   0  0  0  0  0  0  0  0  0  0  0  0
  151.7085  137.3966  157.0346 C   0  0  2  0  0  0  0  0  0  0  0  0
  150.4598  137.3865  157.7061 O   0  0  0  0  0  0  0  0  0  0  0  0
  152.3127  138.7864  156.9774 C   0  0  2  0  0  0  0  0  0  0  0  0
  152.1802  139.4735  158.1136 F   0  0  0  0  0  0  0  0  0  0  0  0
  150.5317  143.1297  158.4027 C   0  0  0  0  0  0  0  0  0  0  0  0
  151.7707  143.6614  157.9753 C   0  0  0  0  0  0  0  0  0  0  0  0
  152.3428  144.7666  158.6351 C   0  0  0  0  0  0  0  0  0  0  0  0
  151.6834  145.3530  159.7308 C   0  0  0  0  0  0  0  0  0  0  0  0
  150.4505  144.8331  160.1660 C   0  0  0  0  0  0  0  0  0  0  0  0
  149.8764  143.7285  159.5070 C   0  0  0  0  0  0  0  0  0  0  0  0
  149.6610  139.7000  156.5629 H   0  0  0  0  0  0  0  0  0  0  0  0
  149.9754  140.6212  155.1002 H   0  0  0  0  0  0  0  0  0  0  0  0
  152.3893  140.0120  155.1859 H   0  0  0  0  0  0  0  0  0  0  0  0
  152.5141  136.7287  155.0984 H   0  0  0  0  0  0  0  0  0  0  0  0
  148.7742  137.2382  154.8366 H   0  0  0  0  0  0  0  0  0  0  0  0
  148.9562  132.7976  157.5290 H   0  0  0  0  0  0  0  0  0  0  0  0
  148.8518  134.6619  159.1583 H   0  0  0  0  0  0  0  0  0  0  0  0
  146.9065  136.2133  159.1608 H   0  0  0  0  0  0  0  0  0  0  0  0
  145.0502  135.8817  157.5370 H   0  0  0  0  0  0  0  0  0  0  0  0
  145.1404  134.0188  155.9067 H   0  0  0  0  0  0  0  0  0  0  0  0
  147.3777  128.9268  152.2659 H   0  0  0  0  0  0  0  0  0  0  0  0
  145.2043  128.3790  151.2057 H   0  0  0  0  0  0  0  0  0  0  0  0
  143.4281  130.1115  151.0279 H   0  0  0  0  0  0  0  0  0  0  0  0
  143.8393  132.4073  151.8954 H   0  0  0  0  0  0  0  0  0  0  0  0
  146.0069  132.9669  152.9580 H   0  0  0  0  0  0  0  0  0  0  0  0
  152.4652  132.0311  155.6850 H   0  0  0  0  0  0  0  0  0  0  0  0
  152.3745  136.6739  157.5068 H   0  0  0  0  0  0  0  0  0  0  0  0
  150.6068  137.1494  158.6091 H   0  0  0  0  0  0  0  0  0  0  0  0
  153.3854  138.6969  156.8005 H   0  0  0  0  0  0  0  0  0  0  0  0
  152.2960  143.2282  157.1362 H   0  0  0  0  0  0  0  0  0  0  0  0
  153.2891  145.1642  158.2990 H   0  0  0  0  0  0  0  0  0  0  0  0
  152.1224  146.2002  160.2368 H   0  0  0  0  0  0  0  0  0  0  0  0
  149.9434  145.2821  161.0073 H   0  0  0  0  0  0  0  0  0  0  0  0
  148.9292  143.3546  159.8671 H   0  0  0  0  0  0  0  0  0  0  0  0
  1  2  2  0  0  0  0
  2  3  1  0  0  0  0
  2 38  1  0  0  0  0
  3  4  1  0  0  0  0
  4  5  1  0  0  0  0
  4 44  1  0  0  0  0
  4 45  1  0  0  0  0
  5 36  1  0  0  0  0
  5  6  1  0  0  0  0
  5 46  1  0  0  0  0
  6  7  1  0  0  0  0
  7  8  1  0  0  0  0
  7 34  1  0  0  0  0
  7 47  1  0  0  0  0
  8 33  1  0  0  0  0
  8  9  1  0  0  0  0
  9 10  2  0  0  0  0
  9 48  1  0  0  0  0
 10 11  1  0  0  0  0
 11 33  2  0  0  0  0
 11 12  1  0  0  0  0
 12 13  1  0  0  0  0
 12 30  2  0  0  0  0
 13 14  1  0  0  0  0
 13 22  1  0  0  0  0
 14 15  2  0  0  0  0
 14 16  1  0  0  0  0
 16 21  1  0  0  0  0
 16 17  2  0  0  0  0
 17 18  1  0  0  0  0
 17 49  1  0  0  0  0
 18 19  2  0  0  0  0
 18 50  1  0  0  0  0
 19 20  1  0  0  0  0
 19 51  1  0  0  0  0
 20 21  2  0  0  0  0
 20 52  1  0  0  0  0
 21 53  1  0  0  0  0
 22 23  2  0  0  0  0
 22 24  1  0  0  0  0
 24 29  1  0  0  0  0
 24 25  2  0  0  0  0
 25 26  1  0  0  0  0
 25 54  1  0  0  0  0
 26 27  2  0  0  0  0
 26 55  1  0  0  0  0
 27 28  1  0  0  0  0
 27 56  1  0  0  0  0
 28 29  2  0  0  0  0
 28 57  1  0  0  0  0
 29 58  1  0  0  0  0
 30 31  1  0  0  0  0
 31 32  2  0  0  0  0
 31 59  1  0  0  0  0
 32 33  1  0  0  0  0
 34 35  1  0  0  0  0
 34 36  1  0  0  0  0
 34 60  1  0  0  0  0
 35 61  1  0  0  0  0
 36 37  1  0  0  0  0
 36 62  1  0  0  0  0
 38 43  1  0  0  0  0
 38 39  2  0  0  0  0
 39 40  1  0  0  0  0
 39 63  1  0  0  0  0
 40 41  2  0  0  0  0
 40 64  1  0  0  0  0
 41 42  1  0  0  0  0
 41 65  1  0  0  0  0
 42 43  2  0  0  0  0
 42 66  1  0  0  0  0
 43 67  1  0  0  0  0
M  END
> <s_m_source_file>
AV-unprocessed.smi

> <i_m_source_file_index>
33

> <i_lp_mmshare_version>
43012

> <i_f3d_flags>
0

> <s_epik_input>
W2NIXTFbY0hdW2NIXVtjSF1bY0hdYzFDKD1PKU9bQ0gyXVtDQEBIXTJPW0NASF0oW0NAQEhdKFtPSF0pW0NAQEhdMkYpbihbY0hdbjMpYyhjMzQpbltjSF1uYzROKEMoPU8pYzVbY0hdW2NIXVtjSF1bY0hdW2NIXTUpQyg9TyljNltjSF1bY0hdW2NIXVtjSF1bY0hdNg==

> <s_epik_cmdline>
J2VwaWtfcHl0aG9uJywgJy1waCcsICc3LjAnLCAnLXRuJywgJzgnLCAnLW1hJywgJzIwMCcsICctbWV0YWxfYmluZGluZycsICctaW1hZScsICc8aW5maWxlLm1hZT4nLCAnLW9tYWUnLCAnPG91dGZpbGUubWFlPic=

> <r_lp_tautomer_probability>
1

> <r_epik_Ionization_Penalty>
0.00067664

> <r_epik_Ionization_Penalty_Charging>
0

> <r_epik_Ionization_Penalty_Neutral>
0.00067664

> <r_epik_State_Penalty>
0.000428095

> <r_epik_Charging_Adjusted_Penalty>
0.000428095

> <i_epik_Tot_Q>
0

> <i_epik_Tot_abs_Q>
0

> <r_epik_Metal_State_Penalty>
-0

> <b_epik_Metal_Only>
0

> <s_epik_Chemistry_Notes>
This compound has an ester and may undergo hydrolysis at high or low pH. This compound contains an acetal/aminal-like group ( X-CH(R)-Y where X, Y are N, S, or O) that may be acid/base labile, releasing an aldehyde.

> <s_lp_Force_Field>
OPLS_2005

> <r_lp_Energy>
85.1188

> <b_lp_Chiralities_Consistent>
1

> <s_lp_Variant>
AV-unprocessed.smi:33-7

> <Gold.Version>
5.8.1

> <Gold.Id.Protein>
6NUR|6NUR_protein|mol2

> <Gold.PLP.Fitness>
51.5554

> <Gold.PLP.PLP>
-56.7977

> <Gold.PLP.part.hbond>
-0.6664

> <Gold.PLP.part.metal>
0.0000

> <Gold.PLP.part.buried>
-8.5995

> <Gold.PLP.part.nonpolar>
-48.4557

> <Gold.PLP.part.repulsive>
0.5105

> <Gold.PLP.ligand.clash>
0.0000

> <Gold.PLP.ligand.torsion>
4.6413

> <Gold.PLP.Chemscore.Hbond>
0.0000

> <Gold.PLP.Chemscore.CHOScore>
0.0000

> <Gold.PLP.Chemscore.Metal>
0.0000

> <Gold.PLP.Chemscore.Internal.Correction>
4.0403

> <Gold.Rescore>
     Score         DG    S(hbond)    S(metal)    S(lipo)     H(rot)  DE(clash)    DE(int)     intcor
      4.90     -15.40       0.00        0.00     140.01       2.52       0.09      10.41       ----

> <Gold.Chemscore.Fitness>
4.9023

> <Gold.Chemscore.DG>
-15.3980

> <Gold.Chemscore.ZeroCoef>
-5.4800

> <Gold.Chemscore.Hbond>
0.0000

> <Gold.Chemscore.Metal>
0.0000

> <Gold.Chemscore.Lipo>
140.0109

> <Gold.Chemscore.Internal_Hbond>
0.0000

> <Gold.Chemscore.DEClash>
0.0899

> <Gold.Chemscore.DEInternal>
10.4058

> <Gold.Chemscore.Rot>
2.5247

> <Gold.Chemscore.Internal.Correction>
   9.000000E+99

> <Gold.Chemscore.Hbond.Weighted>
-0.0000

> <Gold.Chemscore.Metal.Weighted>
-0.0000

> <Gold.Chemscore.Lipo.Weighted>
-16.3813

> <Gold.Chemscore.Internal_Hbond.Weighted>
0.0000

> <Gold.Chemscore.DEClash.Weighted>
0.0899

> <Gold.Chemscore.DEInternal.Weighted>
10.4058

> <Gold.Chemscore.Rot.Weighted>
6.4633

> <Gold.Chemscore.Internal.Correction.Weighted>
   9.000000E+99

> <Gold.Protein.RotatedTorsions>
[ 6907 6896 6895 6894 ] final  -74.26 input  -60.11 | X-H torsion
[ 7974 7965 7964 7962 ] final    7.88 input  175.53 | X-H torsion
[ 8008 7997 7996 7995 ] final  -14.30 input   59.86 | X-H torsion
[ 10167 10162 10161 10158 ] final  156.13 input  -65.29 | X-H torsion
[ 10718 10713 10712 10709 ] final    9.35 input   66.30 | X-H torsion
[ 10763 10752 10751 10750 ] final  163.24 input  -60.55 | X-H torsion
[ 11005 11000 10999 10996 ] final -169.99 input  -57.11 | X-H torsion

> <Gold.Protein.ActiveResidues>
 VAL166  LYS551  ARG553  GLY616  TRP617  ASP618  TYR619  PRO620  LYS621  CYS622 
 ASP623  PHE694  ASN695  SER759  ASP760  ASP761  ALA762  ILE779  LEU786  VAL792 
 PHE793  MET794  SER795  GLU796  ALA797  LYS798  CYS799  TRP800  GLU811  SER814 

> <Gold.Protein.RotatedAtoms>
  150.7099  134.4895  159.5508 H   0  0  0  0  0  0  0  0  0  0  0  0  # atno 6907 bound_to 6896
  152.2516  134.8124  160.0454 H   0  0  0  0  0  0  0  0  0  0  0  0  # atno 6908 bound_to 6896
  151.8870  133.3472  159.3822 H   0  0  0  0  0  0  0  0  0  0  0  0  # atno 6909 bound_to 6896
  146.2422  140.0017  142.8415 H   0  0  0  0  0  0  0  0  0  0  0  0  # atno 7974 bound_to 7965
  154.5221  140.2226  155.8956 H   0  0  0  0  0  0  0  0  0  0  0  0  # atno 8008 bound_to 7997
  156.1674  140.3129  155.8877 H   0  0  0  0  0  0  0  0  0  0  0  0  # atno 8009 bound_to 7997
  155.3629  140.0462  157.3037 H   0  0  0  0  0  0  0  0  0  0  0  0  # atno 8010 bound_to 7997
  139.4821  144.5036  151.8131 H   0  0  0  0  0  0  0  0  0  0  0  0  # atno 10167 bound_to 10162
  156.9650  130.5947  149.5664 H   0  0  0  0  0  0  0  0  0  0  0  0  # atno 10718 bound_to 10713
  154.2906  135.2761  155.2656 H   0  0  0  0  0  0  0  0  0  0  0  0  # atno 10763 bound_to 10752
  154.5137  135.5775  153.6628 H   0  0  0  0  0  0  0  0  0  0  0  0  # atno 10764 bound_to 10752
  152.9915  135.6187  154.3071 H   0  0  0  0  0  0  0  0  0  0  0  0  # atno 10765 bound_to 10752
  140.5245  134.5676  157.5057 H   0  0  0  0  0  0  0  0  0  0  0  0  # atno 11005 bound_to 11000
  145.1409  140.9571  143.4489 LP  0  0  0  0  0  0  0  0  0  0  0  0  # atno 17320 bound_to 7965
  145.0296  139.3352  143.6031 LP  0  0  0  0  0  0  0  0  0  0  0  0  # atno 17321 bound_to 7965
  140.4532  144.1826  150.5899 LP  0  0  0  0  0  0  0  0  0  0  0  0  # atno 17342 bound_to 10162
  140.4563  143.2466  151.9280 LP  0  0  0  0  0  0  0  0  0  0  0  0  # atno 17343 bound_to 10162
  156.0306  130.5398  150.8525 LP  0  0  0  0  0  0  0  0  0  0  0  0  # atno 17370 bound_to 10713
  157.5632  131.0946  150.9528 LP  0  0  0  0  0  0  0  0  0  0  0  0  # atno 17371 bound_to 10713
  139.9587  134.7489  156.0283 LP  0  0  0  0  0  0  0  0  0  0  0  0  # atno 17394 bound_to 11000
  141.1316  133.6585  156.3479 LP  0  0  0  0  0  0  0  0  0  0  0  0  # atno 17395 bound_to 11000

$$$$
