AV-unprocessed.smi:2862|AV-procd|sdf|11010|dock10
  -GOLD-   2272015473D 1   1.00000     0.00000
 Structure written by MMmdl.
 52 54  0  0  0  0  0  0  0  0  1 V2000
  150.7479  133.0980  155.6671 C   0  0  0  0  0  0  0  0  0  0  0  0
  149.8583  133.4500  154.4646 C   0  0  2  0  0  0  0  0  0  0  0  0
  149.4444  134.8449  154.5394 N   0  0  0  0  0  0  0  0  0  0  0  0
  149.0803  135.5122  155.6481 C   0  0  0  0  0  0  0  0  0  0  0  0
  148.9939  134.9769  156.7523 O   0  0  0  0  0  0  0  0  0  0  0  0
  148.7763  137.0164  155.5153 C   0  0  0  0  0  0  0  0  0  0  0  0
  149.9639  137.8881  155.6018 N   0  0  0  0  0  0  0  0  0  0  0  0
  150.7935  137.9464  154.4637 C   0  0  0  0  0  0  0  0  0  0  0  0
  151.9322  138.6560  154.4456 C   0  0  0  0  0  0  0  0  0  0  0  0
  152.3124  139.3701  155.6395 C   0  0  0  0  0  0  0  0  0  0  0  0
  151.5325  139.3081  156.7421 C   0  0  0  0  0  0  0  0  0  0  0  0
  151.8568  140.0401  157.9710 C   0  0  0  0  0  0  0  0  0  0  0  0
  152.3287  139.4849  158.9648 O   0  0  0  0  0  0  0  0  0  0  0  0
  151.5791  141.3761  157.9535 N   0  0  0  0  0  0  0  0  0  0  0  0
  151.4014  142.1481  156.7111 C   0  0  0  0  0  0  0  0  0  0  0  0
  151.5960  142.2137  159.1732 C   0  0  1  0  0  0  0  0  0  0  0  0
  152.9917  142.2490  159.8277 C   0  0  0  0  0  0  0  0  0  0  0  0
  151.0376  143.6181  158.9850 C   0  0  0  0  0  0  0  0  0  0  0  0
  151.8335  144.6815  158.2672 C   0  0  0  0  0  0  0  0  0  0  0  0
  151.5940  144.7897  159.7569 C   0  0  0  0  0  0  0  0  0  0  0  0
  150.2537  138.5643  156.7581 C   0  0  0  0  0  0  0  0  0  0  0  0
  149.5002  138.5036  157.7339 O   0  0  0  0  0  0  0  0  0  0  0  0
  148.6670  132.5149  154.3786 C   0  0  0  0  0  0  0  0  0  0  0  0
  148.7251  131.2403  153.5723 C   0  0  0  0  0  0  0  0  0  0  0  0
  147.8633  132.3940  153.1069 C   0  0  0  0  0  0  0  0  0  0  0  0
  151.0851  132.0624  155.6136 H   0  0  0  0  0  0  0  0  0  0  0  0
  150.2114  133.2242  156.6079 H   0  0  0  0  0  0  0  0  0  0  0  0
  151.6363  133.7293  155.7028 H   0  0  0  0  0  0  0  0  0  0  0  0
  150.4459  133.3139  153.5546 H   0  0  0  0  0  0  0  0  0  0  0  0
  149.4790  135.3663  153.6756 H   0  0  0  0  0  0  0  0  0  0  0  0
  148.2574  137.1719  154.5685 H   0  0  0  0  0  0  0  0  0  0  0  0
  148.0499  137.2940  156.2812 H   0  0  0  0  0  0  0  0  0  0  0  0
  150.4502  137.3740  153.6140 H   0  0  0  0  0  0  0  0  0  0  0  0
  152.5541  138.6829  153.5629 H   0  0  0  0  0  0  0  0  0  0  0  0
  153.2227  139.9527  155.6402 H   0  0  0  0  0  0  0  0  0  0  0  0
  151.9475  141.7217  155.8683 H   0  0  0  0  0  0  0  0  0  0  0  0
  151.7724  143.1691  156.8077 H   0  0  0  0  0  0  0  0  0  0  0  0
  150.3453  142.2041  156.4465 H   0  0  0  0  0  0  0  0  0  0  0  0
  150.9626  141.7313  159.9195 H   0  0  0  0  0  0  0  0  0  0  0  0
  152.9447  142.7223  160.8088 H   0  0  0  0  0  0  0  0  0  0  0  0
  153.7156  142.8098  159.2369 H   0  0  0  0  0  0  0  0  0  0  0  0
  153.3840  141.2417  159.9710 H   0  0  0  0  0  0  0  0  0  0  0  0
  149.9663  143.6461  158.7973 H   0  0  0  0  0  0  0  0  0  0  0  0
  152.8395  144.4289  157.9379 H   0  0  0  0  0  0  0  0  0  0  0  0
  151.2878  145.3637  157.6185 H   0  0  0  0  0  0  0  0  0  0  0  0
  150.8873  145.5417  160.1018 H   0  0  0  0  0  0  0  0  0  0  0  0
  152.4410  144.6092  160.4155 H   0  0  0  0  0  0  0  0  0  0  0  0
  148.0921  132.4608  155.3016 H   0  0  0  0  0  0  0  0  0  0  0  0
  149.6339  131.0349  153.0098 H   0  0  0  0  0  0  0  0  0  0  0  0
  148.2201  130.3662  153.9785 H   0  0  0  0  0  0  0  0  0  0  0  0
  146.7844  132.2923  153.2055 H   0  0  0  0  0  0  0  0  0  0  0  0
  148.2015  132.9561  152.2385 H   0  0  0  0  0  0  0  0  0  0  0  0
  1  2  1  0  0  0  0
  1 26  1  0  0  0  0
  1 27  1  0  0  0  0
  1 28  1  0  0  0  0
  2  3  1  0  0  0  0
  2 23  1  0  0  0  0
  2 29  1  0  0  0  0
  3  4  1  0  0  0  0
  3 30  1  0  0  0  0
  4  5  2  0  0  0  0
  4  6  1  0  0  0  0
  6  7  1  0  0  0  0
  6 31  1  0  0  0  0
  6 32  1  0  0  0  0
  7 21  1  0  0  0  0
  7  8  1  0  0  0  0
  8  9  2  0  0  0  0
  8 33  1  0  0  0  0
  9 10  1  0  0  0  0
  9 34  1  0  0  0  0
 10 11  2  0  0  0  0
 10 35  1  0  0  0  0
 11 12  1  0  0  0  0
 11 21  1  0  0  0  0
 12 13  2  0  0  0  0
 12 14  1  0  0  0  0
 14 15  1  0  0  0  0
 14 16  1  0  0  0  0
 15 36  1  0  0  0  0
 15 37  1  0  0  0  0
 15 38  1  0  0  0  0
 16 17  1  0  0  0  0
 16 18  1  0  0  0  0
 16 39  1  0  0  0  0
 17 40  1  0  0  0  0
 17 41  1  0  0  0  0
 17 42  1  0  0  0  0
 18 20  1  0  0  0  0
 18 19  1  0  0  0  0
 18 43  1  0  0  0  0
 19 20  1  0  0  0  0
 19 44  1  0  0  0  0
 19 45  1  0  0  0  0
 20 46  1  0  0  0  0
 20 47  1  0  0  0  0
 21 22  2  0  0  0  0
 23 25  1  0  0  0  0
 23 24  1  0  0  0  0
 23 48  1  0  0  0  0
 24 25  1  0  0  0  0
 24 49  1  0  0  0  0
 24 50  1  0  0  0  0
 25 51  1  0  0  0  0
 25 52  1  0  0  0  0
M  END
> <s_m_source_file>
AV-unprocessed.smi

> <i_m_source_file_index>
2862

> <i_lp_mmshare_version>
43012

> <i_f3d_flags>
0

> <s_epik_input>
W0NIMl0xW0NIMl1bQ0hdMVtDQEhdKFtDSDNdKVtOSF1DKD1PKVtDSDJdbjJbY0hdW2NIXVtjSF1jKGMyPU8pQyg9TylOKFtDSDNdKVtDQEhdKFtDSDNdKVtDSF0zW0NIMl1bQ0gyXTM=

> <s_epik_cmdline>
J2VwaWtfcHl0aG9uJywgJy1waCcsICc3LjAnLCAnLXRuJywgJzgnLCAnLW1hJywgJzIwMCcsICctbWV0YWxfYmluZGluZycsICctaW1hZScsICc8aW5maWxlLm1hZT4nLCAnLW9tYWUnLCAnPG91dGZpbGUubWFlPic=

> <r_lp_tautomer_probability>
1

> <r_epik_Ionization_Penalty>
4.00841e-08

> <r_epik_Ionization_Penalty_Charging>
2.07773e-08

> <r_epik_Ionization_Penalty_Neutral>
1.93069e-08

> <r_epik_State_Penalty>
-0

> <r_epik_Charging_Adjusted_Penalty>
2.07773e-08

> <i_epik_Tot_Q>
0

> <i_epik_Tot_abs_Q>
0

> <r_epik_Metal_State_Penalty>
-0

> <b_epik_Metal_Only>
0

> <s_lp_Force_Field>
OPLS_2005

> <r_lp_Energy>
59.7867

> <b_lp_Chiralities_Consistent>
1

> <s_lp_Variant>
AV-unprocessed.smi:2862-3

> <Gold.Version>
5.8.1

> <Gold.Id.Protein>
6NUR|6NUR_protein|mol2

> <Gold.PLP.Fitness>
49.2379

> <Gold.PLP.PLP>
-46.7298

> <Gold.PLP.part.hbond>
-1.0000

> <Gold.PLP.part.metal>
0.0000

> <Gold.PLP.part.buried>
-6.2398

> <Gold.PLP.part.nonpolar>
-38.7878

> <Gold.PLP.part.repulsive>
0.0267

> <Gold.PLP.ligand.clash>
0.6537

> <Gold.PLP.ligand.torsion>
3.7706

> <Gold.PLP.Chemscore.Hbond>
1.0000

> <Gold.PLP.Chemscore.CHOScore>
1.1206

> <Gold.PLP.Chemscore.Metal>
0.0000

> <Gold.Chemscore.Hbonds>
donor molecule, donor type, donor heavy atom, donor atom, acceptor molecule, acceptor atom, score
      L1  H     3    30       P1  7948  0.88
      L1  C     8    33       P1  7948  0.76
      L1  C     8    33       P1  7949  0.37

> <Gold.PLP.Chemscore.Internal.Correction>
4.3415

> <Gold.Rescore>
     Score         DG    S(hbond)    S(metal)    S(lipo)     H(rot)  DE(clash)    DE(int)     intcor
     10.76     -17.86       0.96        0.00     116.48       1.73       0.09       7.02       ----

> <Gold.Chemscore.Fitness>
10.7555

> <Gold.Chemscore.DG>
-17.8618

> <Gold.Chemscore.ZeroCoef>
-5.4800

> <Gold.Chemscore.Hbond>
0.9564

> <Gold.Chemscore.Metal>
0.0000

> <Gold.Chemscore.Lipo>
116.4839

> <Gold.Chemscore.Internal_Hbond>
0.0000

> <Gold.Chemscore.DEClash>
0.0859

> <Gold.Chemscore.DEInternal>
7.0204

> <Gold.Chemscore.Rot>
1.7348

> <Gold.Chemscore.Internal.Correction>
   9.000000E+99

> <Gold.Chemscore.Hbonds>
donor molecule, donor type, donor heavy atom, donor atom, acceptor molecule, acceptor atom, score
      L1  H     3    30       P1  7948  0.17

> <Gold.Chemscore.Hbond.Weighted>
-3.1943

> <Gold.Chemscore.Metal.Weighted>
-0.0000

> <Gold.Chemscore.Lipo.Weighted>
-13.6286

> <Gold.Chemscore.Internal_Hbond.Weighted>
0.0000

> <Gold.Chemscore.DEClash.Weighted>
0.0859

> <Gold.Chemscore.DEInternal.Weighted>
7.0204

> <Gold.Chemscore.Rot.Weighted>
4.4412

> <Gold.Chemscore.Internal.Correction.Weighted>
   9.000000E+99

> <Gold.Protein.RotatedTorsions>
[ 6907 6896 6895 6894 ] final  -21.92 input  -60.11 | X-H torsion
[ 7974 7965 7964 7962 ] final  100.24 input  175.53 | X-H torsion
[ 8008 7997 7996 7995 ] final  118.03 input   59.86 | X-H torsion
[ 10167 10162 10161 10158 ] final   46.02 input  -65.29 | X-H torsion
[ 10718 10713 10712 10709 ] final   47.99 input   66.30 | X-H torsion
[ 10763 10752 10751 10750 ] final  168.70 input  -60.55 | X-H torsion
[ 11005 11000 10999 10996 ] final -179.43 input  -57.11 | X-H torsion

> <Gold.Protein.ActiveResidues>
 VAL166  LYS551  ARG553  GLY616  TRP617  ASP618  TYR619  PRO620  LYS621  CYS622 
 ASP623  PHE694  ASN695  SER759  ASP760  ASP761  ALA762  ILE779  LEU786  VAL792 
 PHE793  MET794  SER795  GLU796  ALA797  LYS798  CYS799  TRP800  GLU811  SER814 

> <Gold.Protein.RotatedAtoms>
  151.2261  135.0537  159.8968 H   0  0  0  0  0  0  0  0  0  0  0  0  # atno 6907 bound_to 6896
  152.5410  134.0587  159.8152 H   0  0  0  0  0  0  0  0  0  0  0  0  # atno 6908 bound_to 6896
  151.0760  133.5379  159.2655 H   0  0  0  0  0  0  0  0  0  0  0  0  # atno 6909 bound_to 6896
  145.3882  139.2367  143.3366 H   0  0  0  0  0  0  0  0  0  0  0  0  # atno 7974 bound_to 7965
  156.2525  140.2883  156.0771 H   0  0  0  0  0  0  0  0  0  0  0  0  # atno 8008 bound_to 7997
  155.1607  140.0399  157.2859 H   0  0  0  0  0  0  0  0  0  0  0  0  # atno 8009 bound_to 7997
  154.6395  140.2519  155.7346 H   0  0  0  0  0  0  0  0  0  0  0  0  # atno 8010 bound_to 7997
  140.3181  144.2738  150.6187 H   0  0  0  0  0  0  0  0  0  0  0  0  # atno 10167 bound_to 10162
  157.4641  130.8215  149.7918 H   0  0  0  0  0  0  0  0  0  0  0  0  # atno 10718 bound_to 10713
  154.3724  135.2753  155.2258 H   0  0  0  0  0  0  0  0  0  0  0  0  # atno 10763 bound_to 10752
  154.4400  135.5956  153.6126 H   0  0  0  0  0  0  0  0  0  0  0  0  # atno 10764 bound_to 10752
  152.9838  135.6016  154.3957 H   0  0  0  0  0  0  0  0  0  0  0  0  # atno 10765 bound_to 10752
  140.4188  134.6625  157.4653 H   0  0  0  0  0  0  0  0  0  0  0  0  # atno 11005 bound_to 11000
  146.2810  140.4561  142.8776 LP  0  0  0  0  0  0  0  0  0  0  0  0  # atno 17320 bound_to 7965
  144.8459  140.6928  143.6199 LP  0  0  0  0  0  0  0  0  0  0  0  0  # atno 17321 bound_to 7965
  140.5508  143.2207  151.7930 LP  0  0  0  0  0  0  0  0  0  0  0  0  # atno 17342 bound_to 10162
  139.4880  144.4479  151.9688 LP  0  0  0  0  0  0  0  0  0  0  0  0  # atno 17343 bound_to 10162
  156.0042  130.3864  150.2491 LP  0  0  0  0  0  0  0  0  0  0  0  0  # atno 17370 bound_to 10713
  157.0671  131.0106  151.3203 LP  0  0  0  0  0  0  0  0  0  0  0  0  # atno 17371 bound_to 10713
  140.0215  134.6540  155.9233 LP  0  0  0  0  0  0  0  0  0  0  0  0  # atno 17394 bound_to 11000
  141.1792  133.6544  156.4952 LP  0  0  0  0  0  0  0  0  0  0  0  0  # atno 17395 bound_to 11000

$$$$
