AV-unprocessed.smi:2801|AV-procd|sdf|10800|dock6
  -GOLD-   2272015233D 1   1.00000     0.00000
 Structure written by MMmdl.
 32 32  0  0  0  0  0  0  0  0  1 V2000
  151.3880  144.9016  159.4998 C   0  0  0  0  0  0  0  0  0  0  0  0
  151.2834  143.7825  160.5381 C   0  0  0  0  0  0  0  0  0  0  0  0
  151.3747  142.5307  159.8687 O   0  0  0  0  0  0  0  0  0  0  0  0
  152.5496  142.3413  159.0829 C   0  0  1  0  0  0  0  0  0  0  0  0
  153.7432  142.1915  160.0453 C   0  0  0  0  0  0  0  0  0  0  0  0
  153.3190  141.7672  161.4568 C   0  0  0  0  0  0  0  0  0  0  0  0
  152.3945  141.0970  158.1927 C   0  0  0  0  0  0  0  0  0  0  0  0
  153.1809  140.1591  158.3203 O   0  0  0  0  0  0  0  0  0  0  0  0
  151.3555  141.1194  157.3373 N   0  0  0  0  0  0  0  0  0  0  0  0
  150.9431  140.1418  156.3880 C   0  0  0  0  0  0  0  0  0  0  0  0
  151.4999  138.8427  156.2957 C   0  0  0  0  0  0  0  0  0  0  0  0
  151.0198  137.9689  155.3002 C   0  0  0  0  0  0  0  0  0  0  0  0
  150.0566  138.3038  154.4168 N   0  0  0  0  0  0  0  0  0  0  0  0
  149.5362  139.5456  154.4970 C   0  0  0  0  0  0  0  0  0  0  0  0
  149.9428  140.4984  155.4538 C   0  0  0  0  0  0  0  0  0  0  0  0
  149.3685  141.7387  155.4640 O   0  0  0  0  0  0  0  0  0  0  0  0
  151.3177  145.8806  159.9740 H   0  0  0  0  0  0  0  0  0  0  0  0
  150.5881  144.8276  158.7627 H   0  0  0  0  0  0  0  0  0  0  0  0
  152.3390  144.8551  158.9689 H   0  0  0  0  0  0  0  0  0  0  0  0
  152.0788  143.8952  161.2754 H   0  0  0  0  0  0  0  0  0  0  0  0
  150.3313  143.8557  161.0657 H   0  0  0  0  0  0  0  0  0  0  0  0
  152.7165  143.2204  158.4570 H   0  0  0  0  0  0  0  0  0  0  0  0
  154.4540  141.4648  159.6494 H   0  0  0  0  0  0  0  0  0  0  0  0
  154.2806  143.1384  160.1154 H   0  0  0  0  0  0  0  0  0  0  0  0
  154.1849  141.6826  162.1135 H   0  0  0  0  0  0  0  0  0  0  0  0
  152.8164  140.7997  161.4444 H   0  0  0  0  0  0  0  0  0  0  0  0
  152.6368  142.4939  161.8987 H   0  0  0  0  0  0  0  0  0  0  0  0
  150.7509  141.9254  157.4048 H   0  0  0  0  0  0  0  0  0  0  0  0
  152.2860  138.5015  156.9502 H   0  0  0  0  0  0  0  0  0  0  0  0
  151.4269  136.9730  155.2074 H   0  0  0  0  0  0  0  0  0  0  0  0
  148.7727  139.7881  153.7726 H   0  0  0  0  0  0  0  0  0  0  0  0
  149.2866  142.1141  154.6003 H   0  0  0  0  0  0  0  0  0  0  0  0
  1  2  1  0  0  0  0
  1 17  1  0  0  0  0
  1 18  1  0  0  0  0
  1 19  1  0  0  0  0
  2  3  1  0  0  0  0
  2 20  1  0  0  0  0
  2 21  1  0  0  0  0
  3  4  1  0  0  0  0
  4  5  1  0  0  0  0
  4  7  1  0  0  0  0
  4 22  1  0  0  0  0
  5  6  1  0  0  0  0
  5 23  1  0  0  0  0
  5 24  1  0  0  0  0
  6 25  1  0  0  0  0
  6 26  1  0  0  0  0
  6 27  1  0  0  0  0
  7  8  2  0  0  0  0
  7  9  1  0  0  0  0
  9 10  1  0  0  0  0
  9 28  1  0  0  0  0
 10 15  1  0  0  0  0
 10 11  2  0  0  0  0
 11 12  1  0  0  0  0
 11 29  1  0  0  0  0
 12 13  2  0  0  0  0
 12 30  1  0  0  0  0
 13 14  1  0  0  0  0
 14 15  2  0  0  0  0
 14 31  1  0  0  0  0
 15 16  1  0  0  0  0
 16 32  1  0  0  0  0
M  END
> <s_m_source_file>
AV-unprocessed.smi

> <i_m_source_file_index>
2801

> <i_lp_mmshare_version>
43012

> <i_f3d_flags>
0

> <s_epik_input>
W0NIM11bQ0gyXU9bQ0BIXShbQ0gyXVtDSDNdKUMoPU8pW05IXWMxW2NIXVtjSF1uW2NIXWMxW09IXQ==

> <s_epik_cmdline>
J2VwaWtfcHl0aG9uJywgJy1waCcsICc3LjAnLCAnLXRuJywgJzgnLCAnLW1hJywgJzIwMCcsICctbWV0YWxfYmluZGluZycsICctaW1hZScsICc8aW5maWxlLm1hZT4nLCAnLW9tYWUnLCAnPG91dGZpbGUubWFlPic=

> <r_lp_tautomer_probability>
0.43658

> <r_epik_Ionization_Penalty>
0.0250035

> <r_epik_Ionization_Penalty_Charging>
0

> <r_epik_Ionization_Penalty_Neutral>
0.0250035

> <r_epik_State_Penalty>
0.520524

> <r_epik_Charging_Adjusted_Penalty>
0.520524

> <i_epik_Tot_Q>
0

> <i_epik_Tot_abs_Q>
0

> <r_epik_Metal_State_Penalty>
0.772586

> <b_epik_Metal_Only>
0

> <s_lp_Force_Field>
OPLS_2005

> <r_lp_Energy>
11.8743

> <b_lp_Chiralities_Consistent>
1

> <s_lp_Variant>
AV-unprocessed.smi:2801-4

> <Gold.Version>
5.8.1

> <Gold.Id.Protein>
6NUR|6NUR_protein|mol2

> <Gold.PLP.Fitness>
37.5858

> <Gold.PLP.PLP>
-33.2109

> <Gold.PLP.part.hbond>
-2.2630

> <Gold.PLP.part.metal>
0.0000

> <Gold.PLP.part.buried>
-2.7887

> <Gold.PLP.part.nonpolar>
-26.9693

> <Gold.PLP.part.repulsive>
0.2930

> <Gold.PLP.ligand.clash>
0.0000

> <Gold.PLP.ligand.torsion>
0.6315

> <Gold.PLP.Chemscore.Hbond>
1.0000

> <Gold.PLP.Chemscore.CHOScore>
0.8737

> <Gold.PLP.Chemscore.Metal>
0.0000

> <Gold.Chemscore.Hbonds>
donor molecule, donor type, donor heavy atom, donor atom, acceptor molecule, acceptor atom, score
      P1  H  7997  8008       L1     8  0.99
      L1  C    14    31       P1  7957  0.32

> <Gold.PLP.Chemscore.Internal.Correction>
0.0168

> <Gold.Rescore>
     Score         DG    S(hbond)    S(metal)    S(lipo)     H(rot)  DE(clash)    DE(int)     intcor
     11.46     -13.08       0.86        0.00      86.69       2.11       0.02       1.59       ----

> <Gold.Chemscore.Fitness>
11.4638

> <Gold.Chemscore.DG>
-13.0760

> <Gold.Chemscore.ZeroCoef>
-5.4800

> <Gold.Chemscore.Hbond>
0.8568

> <Gold.Chemscore.Metal>
0.0000

> <Gold.Chemscore.Lipo>
86.6948

> <Gold.Chemscore.Internal_Hbond>
0.0000

> <Gold.Chemscore.DEClash>
0.0234

> <Gold.Chemscore.DEInternal>
1.5888

> <Gold.Chemscore.Rot>
2.1129

> <Gold.Chemscore.Internal.Correction>
   9.000000E+99

> <Gold.Chemscore.Hbonds>
donor molecule, donor type, donor heavy atom, donor atom, acceptor molecule, acceptor atom, score
      P1  H  7997  8008       L1     8  0.86

> <Gold.Chemscore.Hbond.Weighted>
-2.8616

> <Gold.Chemscore.Metal.Weighted>
-0.0000

> <Gold.Chemscore.Lipo.Weighted>
-10.1433

> <Gold.Chemscore.Internal_Hbond.Weighted>
0.0000

> <Gold.Chemscore.DEClash.Weighted>
0.0234

> <Gold.Chemscore.DEInternal.Weighted>
1.5888

> <Gold.Chemscore.Rot.Weighted>
5.4089

> <Gold.Chemscore.Internal.Correction.Weighted>
   9.000000E+99

> <Gold.Protein.RotatedTorsions>
[ 6907 6896 6895 6894 ] final  157.54 input  -60.11 | X-H torsion
[ 7974 7965 7964 7962 ] final  164.37 input  175.53 | X-H torsion
[ 8008 7997 7996 7995 ] final  -85.20 input   59.86 | X-H torsion
[ 10167 10162 10161 10158 ] final   91.77 input  -65.29 | X-H torsion
[ 10718 10713 10712 10709 ] final   96.80 input   66.30 | X-H torsion
[ 10763 10752 10751 10750 ] final  -30.56 input  -60.55 | X-H torsion
[ 11005 11000 10999 10996 ] final   -4.10 input  -57.11 | X-H torsion

> <Gold.Protein.ActiveResidues>
 VAL166  LYS551  ARG553  GLY616  TRP617  ASP618  TYR619  PRO620  LYS621  CYS622 
 ASP623  PHE694  ASN695  SER759  ASP760  ASP761  ALA762  ILE779  LEU786  VAL792 
 PHE793  MET794  SER795  GLU796  ALA797  LYS798  CYS799  TRP800  GLU811  SER814 

> <Gold.Protein.RotatedAtoms>
  152.0136  133.3871  159.4229 H   0  0  0  0  0  0  0  0  0  0  0  0  # atno 6907 bound_to 6896
  150.6897  134.3703  159.4998 H   0  0  0  0  0  0  0  0  0  0  0  0  # atno 6908 bound_to 6896
  152.1467  134.9020  160.0601 H   0  0  0  0  0  0  0  0  0  0  0  0  # atno 6909 bound_to 6896
  144.7548  139.8317  143.6354 H   0  0  0  0  0  0  0  0  0  0  0  0  # atno 7974 bound_to 7965
  154.6381  140.0594  156.9813 H   0  0  0  0  0  0  0  0  0  0  0  0  # atno 8008 bound_to 7997
  155.1560  140.3278  155.4403 H   0  0  0  0  0  0  0  0  0  0  0  0  # atno 8009 bound_to 7997
  156.2517  140.1939  156.6669 H   0  0  0  0  0  0  0  0  0  0  0  0  # atno 8010 bound_to 7997
  139.8341  144.6673  150.9363 H   0  0  0  0  0  0  0  0  0  0  0  0  # atno 10167 bound_to 10162
  157.6922  131.0589  150.4546 H   0  0  0  0  0  0  0  0  0  0  0  0  # atno 10718 bound_to 10713
  153.7830  135.6903  153.4885 H   0  0  0  0  0  0  0  0  0  0  0  0  # atno 10763 bound_to 10752
  153.1799  135.4510  155.0013 H   0  0  0  0  0  0  0  0  0  0  0  0  # atno 10764 bound_to 10752
  154.8074  135.3363  154.7332 H   0  0  0  0  0  0  0  0  0  0  0  0  # atno 10765 bound_to 10752
  140.6766  133.9190  155.8528 H   0  0  0  0  0  0  0  0  0  0  0  0  # atno 11005 bound_to 11000
  146.1544  139.4637  143.0028 LP  0  0  0  0  0  0  0  0  0  0  0  0  # atno 17320 bound_to 7965
  145.6818  141.0189  143.1602 LP  0  0  0  0  0  0  0  0  0  0  0  0  # atno 17321 bound_to 7965
  140.7804  143.3973  151.1208 LP  0  0  0  0  0  0  0  0  0  0  0  0  # atno 17342 bound_to 10162
  139.7624  143.8615  152.3103 LP  0  0  0  0  0  0  0  0  0  0  0  0  # atno 17343 bound_to 10162
  156.4895  130.4092  149.6415 LP  0  0  0  0  0  0  0  0  0  0  0  0  # atno 17370 bound_to 10713
  156.3430  130.7392  151.2340 LP  0  0  0  0  0  0  0  0  0  0  0  0  # atno 17371 bound_to 10713
  141.0351  134.0701  157.3969 LP  0  0  0  0  0  0  0  0  0  0  0  0  # atno 17394 bound_to 11000
  139.8965  135.0146  156.7053 LP  0  0  0  0  0  0  0  0  0  0  0  0  # atno 17395 bound_to 11000

$$$$
