AV-unprocessed.smi:522|AV-procd|sdf|2801|dock3
  -GOLD-   2262023273D 1   1.00000     0.00000
 Structure written by MMmdl.
 41 42  0  0  0  0  0  0  0  0  1 V2000
  151.8999  139.4545  156.6533 C   0  0  0  0  0  0  0  0  0  0  0  0
  153.0963  139.5879  157.4003 O   0  0  0  0  0  0  0  0  0  0  0  0
  152.8680  139.4950  158.7974 C   0  0  0  0  0  0  0  0  0  0  0  0
  154.1427  139.8635  159.5684 C   0  0  0  0  0  0  0  0  0  0  0  0
  153.8958  140.8857  160.5749 N   0  0  0  0  0  0  0  0  0  0  0  0
  154.3352  140.9276  161.8573 C   0  0  0  0  0  0  0  0  0  0  0  0
  155.3515  139.6490  162.5342 S   0  0  0  0  0  0  0  0  0  0  0  0
  154.2089  138.2382  162.4127 C   0  0  0  0  0  0  0  0  0  0  0  0
  154.5538  137.1488  163.4308 C   0  0  0  0  0  0  0  0  0  0  0  0
  154.8155  137.5057  164.5802 O   0  0  0  0  0  0  0  0  0  0  0  0
  154.5503  135.7363  162.9595 C   0  0  0  0  0  0  0  0  0  0  0  0
  154.4578  135.4250  161.5682 C   0  0  0  0  0  0  0  0  0  0  0  0
  154.4004  135.1742  160.4392 N   0  0  0  0  0  0  0  0  0  0  0  0
  154.6381  134.6851  163.8179 C   0  0  0  0  0  0  0  0  0  0  0  0
  154.6333  133.2438  163.3312 C   0  0  0  0  0  0  0  0  0  0  0  0
  154.7398  134.7737  165.1966 N   0  0  0  0  0  0  0  0  0  0  0  0
  153.9589  141.9995  162.5574 N   0  0  0  0  0  0  0  0  0  0  0  0
  153.1904  142.7049  161.6535 C   0  0  0  0  0  0  0  0  0  0  0  0
  152.4968  143.9282  161.7938 C   0  0  0  0  0  0  0  0  0  0  0  0
  151.7655  144.4616  160.7124 C   0  0  0  0  0  0  0  0  0  0  0  0
  151.7186  143.7820  159.4779 C   0  0  0  0  0  0  0  0  0  0  0  0
  152.4036  142.5622  159.3172 C   0  0  0  0  0  0  0  0  0  0  0  0
  153.1310  142.0340  160.4005 C   0  0  0  0  0  0  0  0  0  0  0  0
  152.1151  139.5467  155.5901 H   0  0  0  0  0  0  0  0  0  0  0  0
  151.1811  140.2310  156.9167 H   0  0  0  0  0  0  0  0  0  0  0  0
  151.4395  138.4794  156.8182 H   0  0  0  0  0  0  0  0  0  0  0  0
  152.0578  140.1656  159.0873 H   0  0  0  0  0  0  0  0  0  0  0  0
  152.5586  138.4812  159.0570 H   0  0  0  0  0  0  0  0  0  0  0  0
  154.5745  138.9793  160.0364 H   0  0  0  0  0  0  0  0  0  0  0  0
  154.8978  140.2377  158.8765 H   0  0  0  0  0  0  0  0  0  0  0  0
  153.1936  138.5905  162.5948 H   0  0  0  0  0  0  0  0  0  0  0  0
  154.2216  137.8288  161.4027 H   0  0  0  0  0  0  0  0  0  0  0  0
  153.7101  133.0275  162.7925 H   0  0  0  0  0  0  0  0  0  0  0  0
  154.7110  132.5326  164.1551 H   0  0  0  0  0  0  0  0  0  0  0  0
  155.4731  133.0660  162.6584 H   0  0  0  0  0  0  0  0  0  0  0  0
  154.7564  135.6620  165.6771 H   0  0  0  0  0  0  0  0  0  0  0  0
  154.8146  133.9489  165.7764 H   0  0  0  0  0  0  0  0  0  0  0  0
  152.5271  144.4567  162.7351 H   0  0  0  0  0  0  0  0  0  0  0  0
  151.2381  145.3968  160.8307 H   0  0  0  0  0  0  0  0  0  0  0  0
  151.1561  144.1977  158.6547 H   0  0  0  0  0  0  0  0  0  0  0  0
  152.3695  142.0385  158.3733 H   0  0  0  0  0  0  0  0  0  0  0  0
  1  2  1  0  0  0  0
  1 24  1  0  0  0  0
  1 25  1  0  0  0  0
  1 26  1  0  0  0  0
  2  3  1  0  0  0  0
  3  4  1  0  0  0  0
  3 27  1  0  0  0  0
  3 28  1  0  0  0  0
  4  5  1  0  0  0  0
  4 29  1  0  0  0  0
  4 30  1  0  0  0  0
  5 23  1  0  0  0  0
  5  6  1  0  0  0  0
  6  7  1  0  0  0  0
  6 17  2  0  0  0  0
  7  8  1  0  0  0  0
  8  9  1  0  0  0  0
  8 31  1  0  0  0  0
  8 32  1  0  0  0  0
  9 10  2  0  0  0  0
  9 11  1  0  0  0  0
 11 12  1  0  0  0  0
 11 14  2  0  0  0  0
 12 13  3  0  0  0  0
 14 15  1  0  0  0  0
 14 16  1  0  0  0  0
 15 33  1  0  0  0  0
 15 34  1  0  0  0  0
 15 35  1  0  0  0  0
 16 36  1  0  0  0  0
 16 37  1  0  0  0  0
 17 18  1  0  0  0  0
 18 23  2  0  0  0  0
 18 19  1  0  0  0  0
 19 20  2  0  0  0  0
 19 38  1  0  0  0  0
 20 21  1  0  0  0  0
 20 39  1  0  0  0  0
 21 22  2  0  0  0  0
 21 40  1  0  0  0  0
 22 23  1  0  0  0  0
 22 41  1  0  0  0  0
M  END
> <s_m_source_file>
AV-unprocessed.smi

> <i_m_source_file_index>
522

> <i_lp_mmshare_version>
43012

> <i_f3d_flags>
0

> <s_epik_input>
W2NIXTFbY0hdW2NIXVtjSF1jKGMxMiluKFtDSDJdW0NIMl1PW0NIM10pYyhuMilTW0NIMl1DKD1PKS9DKEMjTik9QygvW0NIM10pW05IMl0=

> <s_epik_cmdline>
J2VwaWtfcHl0aG9uJywgJy1waCcsICc3LjAnLCAnLXRuJywgJzgnLCAnLW1hJywgJzIwMCcsICctbWV0YWxfYmluZGluZycsICctaW1hZScsICc8aW5maWxlLm1hZT4nLCAnLW9tYWUnLCAnPG91dGZpbGUubWFlPic=

> <r_lp_tautomer_probability>
0.5

> <r_epik_Ionization_Penalty>
0.0129021

> <r_epik_Ionization_Penalty_Charging>
0

> <r_epik_Ionization_Penalty_Neutral>
0.0129021

> <r_epik_State_Penalty>
0.42069

> <r_epik_Charging_Adjusted_Penalty>
0.42069

> <i_epik_Tot_Q>
0

> <i_epik_Tot_abs_Q>
0

> <r_epik_Metal_State_Penalty>
0.41068

> <b_epik_Metal_Only>
0

> <s_lp_Force_Field>
OPLS_2005

> <r_lp_Energy>
14.5632

> <b_lp_Chiralities_Consistent>
1

> <s_lp_Variant>
AV-unprocessed.smi:522-1

> <Gold.Version>
5.8.1

> <Gold.Id.Protein>
6NUR|6NUR_protein|mol2

> <Gold.PLP.Fitness>
55.0629

> <Gold.PLP.PLP>
-50.8386

> <Gold.PLP.part.hbond>
-3.9080

> <Gold.PLP.part.metal>
0.0000

> <Gold.PLP.part.buried>
-5.9212

> <Gold.PLP.part.nonpolar>
-41.0891

> <Gold.PLP.part.repulsive>
0.1525

> <Gold.PLP.ligand.clash>
0.0000

> <Gold.PLP.ligand.torsion>
0.9726

> <Gold.PLP.Chemscore.Hbond>
1.9913

> <Gold.PLP.Chemscore.CHOScore>
0.0000

> <Gold.PLP.Chemscore.Metal>
0.0000

> <Gold.Chemscore.Hbonds>
donor molecule, donor type, donor heavy atom, donor atom, acceptor molecule, acceptor atom, score
      P1  H  6896  6907       L1    13  0.99
      P1  H  7997  8008       L1     2  1.00

> <Gold.PLP.Chemscore.Internal.Correction>
0.1956

> <Gold.Rescore>
     Score         DG    S(hbond)    S(metal)    S(lipo)     H(rot)  DE(clash)    DE(int)     intcor
     18.33     -19.27       1.95        0.00     113.15       2.33       0.03       0.90       ----

> <Gold.Chemscore.Fitness>
18.3278

> <Gold.Chemscore.DG>
-19.2657

> <Gold.Chemscore.ZeroCoef>
-5.4800

> <Gold.Chemscore.Hbond>
1.9480

> <Gold.Chemscore.Metal>
0.0000

> <Gold.Chemscore.Lipo>
113.1539

> <Gold.Chemscore.Internal_Hbond>
0.0000

> <Gold.Chemscore.DEClash>
0.0341

> <Gold.Chemscore.DEInternal>
0.9038

> <Gold.Chemscore.Rot>
2.3280

> <Gold.Chemscore.Internal.Correction>
   9.000000E+99

> <Gold.Chemscore.Hbonds>
donor molecule, donor type, donor heavy atom, donor atom, acceptor molecule, acceptor atom, score
      P1  H  6896  6907       L1    13  0.60
      P1  H  7997  8008       L1     2  0.87

> <Gold.Chemscore.Hbond.Weighted>
-6.5065

> <Gold.Chemscore.Metal.Weighted>
-0.0000

> <Gold.Chemscore.Lipo.Weighted>
-13.2390

> <Gold.Chemscore.Internal_Hbond.Weighted>
0.0000

> <Gold.Chemscore.DEClash.Weighted>
0.0341

> <Gold.Chemscore.DEInternal.Weighted>
0.9038

> <Gold.Chemscore.Rot.Weighted>
5.9598

> <Gold.Chemscore.Internal.Correction.Weighted>
   9.000000E+99

> <Gold.Protein.RotatedTorsions>
[ 6907 6896 6895 6894 ] final   64.86 input  -60.11 | X-H torsion
[ 7974 7965 7964 7962 ] final   94.52 input  175.53 | X-H torsion
[ 8008 7997 7996 7995 ] final  -53.49 input   59.86 | X-H torsion
[ 10167 10162 10161 10158 ] final -124.97 input  -65.29 | X-H torsion
[ 10718 10713 10712 10709 ] final -147.02 input   66.30 | X-H torsion
[ 10763 10752 10751 10750 ] final  122.40 input  -60.55 | X-H torsion
[ 11005 11000 10999 10996 ] final -108.83 input  -57.11 | X-H torsion

> <Gold.Protein.ActiveResidues>
 VAL166  LYS551  ARG553  GLY616  TRP617  ASP618  TYR619  PRO620  LYS621  CYS622 
 ASP623  PHE694  ASN695  SER759  ASP760  ASP761  ALA762  ILE779  LEU786  VAL792 
 PHE793  MET794  SER795  GLU796  ALA797  LYS798  CYS799  TRP800  GLU811  SER814 

> <Gold.Protein.RotatedAtoms>
  152.4364  134.5678  159.9912 H   0  0  0  0  0  0  0  0  0  0  0  0  # atno 6907 bound_to 6896
  151.5787  133.3375  159.3012 H   0  0  0  0  0  0  0  0  0  0  0  0  # atno 6908 bound_to 6896
  150.8263  134.7530  159.6880 H   0  0  0  0  0  0  0  0  0  0  0  0  # atno 6909 bound_to 6896
  145.4644  139.2285  143.2969 H   0  0  0  0  0  0  0  0  0  0  0  0  # atno 7974 bound_to 7965
  154.4135  140.1199  156.5162 H   0  0  0  0  0  0  0  0  0  0  0  0  # atno 8008 bound_to 7997
  155.6749  140.3496  155.4813 H   0  0  0  0  0  0  0  0  0  0  0  0  # atno 8009 bound_to 7997
  155.9601  140.1121  157.0892 H   0  0  0  0  0  0  0  0  0  0  0  0  # atno 8010 bound_to 7997
  139.9871  143.5680  152.2356 H   0  0  0  0  0  0  0  0  0  0  0  0  # atno 10167 bound_to 10162
  156.4023  130.7940  151.2151 H   0  0  0  0  0  0  0  0  0  0  0  0  # atno 10718 bound_to 10713
  153.6292  135.3399  155.3036 H   0  0  0  0  0  0  0  0  0  0  0  0  # atno 10763 bound_to 10752
  154.8584  135.4291  154.2124 H   0  0  0  0  0  0  0  0  0  0  0  0  # atno 10764 bound_to 10752
  153.3015  135.7025  153.7272 H   0  0  0  0  0  0  0  0  0  0  0  0  # atno 10765 bound_to 10752
  141.0880  133.9104  157.2141 H   0  0  0  0  0  0  0  0  0  0  0  0  # atno 11005 bound_to 11000
  146.2432  140.5416  142.8925 LP  0  0  0  0  0  0  0  0  0  0  0  0  # atno 17320 bound_to 7965
  144.7983  140.6165  143.6495 LP  0  0  0  0  0  0  0  0  0  0  0  0  # atno 17321 bound_to 7965
  139.6367  144.7650  151.2423 LP  0  0  0  0  0  0  0  0  0  0  0  0  # atno 17342 bound_to 10162
  140.7468  143.6387  150.8355 LP  0  0  0  0  0  0  0  0  0  0  0  0  # atno 17343 bound_to 10162
  157.7504  131.0283  150.4043 LP  0  0  0  0  0  0  0  0  0  0  0  0  # atno 17370 bound_to 10713
  156.4325  130.3975  149.6751 LP  0  0  0  0  0  0  0  0  0  0  0  0  # atno 17371 bound_to 10713
  139.9701  135.0130  156.9491 LP  0  0  0  0  0  0  0  0  0  0  0  0  # atno 17394 bound_to 11000
  140.5318  134.0806  155.7317 LP  0  0  0  0  0  0  0  0  0  0  0  0  # atno 17395 bound_to 11000

$$$$
