AV-unprocessed.smi:767|AV-procd|sdf|3657|dock2
  -GOLD-   22720 1 63D 1   1.00000     0.00000
 Structure written by MMmdl.
 47 49  0  0  0  0  0  0  0  0  1 V2000
  153.1830  141.9872  159.4855 C   0  0  0  0  0  0  0  0  0  0  0  0
  152.4263  141.3755  158.3248 C   0  0  0  0  0  0  0  0  0  0  0  0
  151.4220  142.1041  157.6531 C   0  0  0  0  0  0  0  0  0  0  0  0
  150.7510  141.4876  156.5793 C   0  0  0  0  0  0  0  0  0  0  0  0
  151.1100  140.1729  156.2179 C   0  0  0  0  0  0  0  0  0  0  0  0
  150.4230  139.4670  155.0659 C   0  0  0  0  0  0  0  0  0  0  0  0
  151.2469  138.2798  154.5425 C   0  0  0  0  0  0  0  0  0  0  0  0
  150.3999  137.1338  154.2354 N   0  0  0  0  0  0  0  0  0  0  0  0
  150.1341  136.1272  155.0789 C   0  0  0  0  0  0  0  0  0  0  0  0
  150.5812  136.0479  156.2234 O   0  0  0  0  0  0  0  0  0  0  0  0
  149.3166  135.2207  154.5286 N   0  0  0  0  0  0  0  0  0  0  0  0
  148.8315  134.0285  155.2132 C   0  0  2  0  0  0  0  0  0  0  0  0
  149.7438  132.8202  155.0011 C   0  0  1  0  0  0  0  0  0  0  0  0
  150.6177  132.0026  155.8840 C   0  0  0  0  0  0  0  0  0  0  0  0
  150.1614  130.6018  155.3945 C   0  0  0  0  0  0  0  0  0  0  0  0
  148.9887  130.8296  154.5747 O   0  0  0  0  0  0  0  0  0  0  0  0
  148.4509  132.0325  155.0846 C   0  0  2  0  0  0  0  0  0  0  0  0
  147.7577  133.2219  154.3899 C   0  0  0  0  0  0  0  0  0  0  0  0
  146.3048  133.4610  154.8017 C   0  0  0  0  0  0  0  0  0  0  0  0
  147.7833  133.2673  152.8486 C   0  0  0  0  0  0  0  0  0  0  0  0
  152.1309  139.5333  156.9524 C   0  0  0  0  0  0  0  0  0  0  0  0
  152.7786  140.1161  157.9842 N   0  0  0  0  0  0  0  0  0  0  0  0
  152.6515  142.8489  159.8901 H   0  0  0  0  0  0  0  0  0  0  0  0
  154.1703  142.3154  159.1599 H   0  0  0  0  0  0  0  0  0  0  0  0
  153.3095  141.2608  160.2891 H   0  0  0  0  0  0  0  0  0  0  0  0
  151.1698  143.1112  157.9513 H   0  0  0  0  0  0  0  0  0  0  0  0
  149.9769  142.0173  156.0434 H   0  0  0  0  0  0  0  0  0  0  0  0
  149.4405  139.1294  155.3981 H   0  0  0  0  0  0  0  0  0  0  0  0
  150.2465  140.1838  154.2628 H   0  0  0  0  0  0  0  0  0  0  0  0
  151.7703  138.5651  153.6294 H   0  0  0  0  0  0  0  0  0  0  0  0
  152.0137  137.9954  155.2653 H   0  0  0  0  0  0  0  0  0  0  0  0
  149.9831  137.1086  153.3163 H   0  0  0  0  0  0  0  0  0  0  0  0
  148.9988  135.3698  153.5820 H   0  0  0  0  0  0  0  0  0  0  0  0
  148.5680  134.1881  156.2629 H   0  0  0  0  0  0  0  0  0  0  0  0
  150.1697  132.8382  153.9949 H   0  0  0  0  0  0  0  0  0  0  0  0
  151.6798  132.1805  155.7138 H   0  0  0  0  0  0  0  0  0  0  0  0
  150.3934  132.1612  156.9399 H   0  0  0  0  0  0  0  0  0  0  0  0
  150.9306  130.1081  154.8002 H   0  0  0  0  0  0  0  0  0  0  0  0
  149.9175  129.9554  156.2385 H   0  0  0  0  0  0  0  0  0  0  0  0
  148.0858  131.8882  156.1081 H   0  0  0  0  0  0  0  0  0  0  0  0
  145.6455  132.6838  154.4140 H   0  0  0  0  0  0  0  0  0  0  0  0
  145.9371  134.4202  154.4357 H   0  0  0  0  0  0  0  0  0  0  0  0
  146.1918  133.4682  155.8861 H   0  0  0  0  0  0  0  0  0  0  0  0
  147.1629  132.4778  152.4236 H   0  0  0  0  0  0  0  0  0  0  0  0
  148.7771  133.1444  152.4219 H   0  0  0  0  0  0  0  0  0  0  0  0
  147.3985  134.2163  152.4738 H   0  0  0  0  0  0  0  0  0  0  0  0
  152.4388  138.5282  156.7044 H   0  0  0  0  0  0  0  0  0  0  0  0
  1  2  1  0  0  0  0
  1 23  1  0  0  0  0
  1 24  1  0  0  0  0
  1 25  1  0  0  0  0
  2 22  1  0  0  0  0
  2  3  2  0  0  0  0
  3  4  1  0  0  0  0
  3 26  1  0  0  0  0
  4  5  2  0  0  0  0
  4 27  1  0  0  0  0
  5  6  1  0  0  0  0
  5 21  1  0  0  0  0
  6  7  1  0  0  0  0
  6 28  1  0  0  0  0
  6 29  1  0  0  0  0
  7  8  1  0  0  0  0
  7 30  1  0  0  0  0
  7 31  1  0  0  0  0
  8  9  1  0  0  0  0
  8 32  1  0  0  0  0
  9 10  2  0  0  0  0
  9 11  1  0  0  0  0
 11 12  1  0  0  0  0
 11 33  1  0  0  0  0
 12 18  1  0  0  0  0
 12 13  1  0  0  0  0
 12 34  1  0  0  0  0
 13 17  1  0  0  0  0
 13 14  1  0  0  0  0
 13 35  1  0  0  0  0
 14 15  1  0  0  0  0
 14 36  1  0  0  0  0
 14 37  1  0  0  0  0
 15 16  1  0  0  0  0
 15 38  1  0  0  0  0
 15 39  1  0  0  0  0
 16 17  1  0  0  0  0
 17 18  1  0  0  0  0
 17 40  1  0  0  0  0
 18 19  1  0  0  0  0
 18 20  1  0  0  0  0
 19 41  1  0  0  0  0
 19 42  1  0  0  0  0
 19 43  1  0  0  0  0
 20 44  1  0  0  0  0
 20 45  1  0  0  0  0
 20 46  1  0  0  0  0
 21 22  2  0  0  0  0
 21 47  1  0  0  0  0
M  END
> <s_m_source_file>
AV-unprocessed.smi

> <i_m_source_file_index>
767

> <i_lp_mmshare_version>
43012

> <i_f3d_flags>
0

> <s_epik_input>
W0NIM11jMVtjSF1bY0hdYyhbY0hdbjEpW0NIMl1bQ0gyXVtOSF1DKD1PKVtOSF1bQ0BIXTJDKFtDSDNdKShbQ0gzXSlbQ0BIXShbQ0BASF0yMylPW0NIMl1bQ0gyXTM=

> <s_epik_cmdline>
J2VwaWtfcHl0aG9uJywgJy1waCcsICc3LjAnLCAnLXRuJywgJzgnLCAnLW1hJywgJzIwMCcsICctbWV0YWxfYmluZGluZycsICctaW1hZScsICc8aW5maWxlLm1hZT4nLCAnLW9tYWUnLCAnPG91dGZpbGUubWFlPic=

> <r_epik_Ionization_Penalty>
0.0567523

> <r_epik_Ionization_Penalty_Charging>
0

> <r_epik_Ionization_Penalty_Neutral>
0.0567523

> <r_epik_State_Penalty>
0.0489186

> <r_epik_Charging_Adjusted_Penalty>
0.0489186

> <i_epik_Tot_Q>
0

> <i_epik_Tot_abs_Q>
0

> <r_epik_Metal_State_Penalty>
0.044622

> <b_epik_Metal_Only>
0

> <s_lp_Force_Field>
OPLS_2005

> <r_lp_Energy>
54.5337

> <b_lp_Chiralities_Consistent>
1

> <s_lp_Variant>
AV-unprocessed.smi:767-1

> <Gold.Version>
5.8.1

> <Gold.Id.Protein>
6NUR|6NUR_protein|mol2

> <Gold.PLP.Fitness>
45.1595

> <Gold.PLP.PLP>
-38.9682

> <Gold.PLP.part.hbond>
-4.0000

> <Gold.PLP.part.metal>
0.0000

> <Gold.PLP.part.buried>
-4.1529

> <Gold.PLP.part.nonpolar>
-31.2759

> <Gold.PLP.part.repulsive>
0.1910

> <Gold.PLP.ligand.clash>
0.0000

> <Gold.PLP.ligand.torsion>
0.9412

> <Gold.PLP.Chemscore.Hbond>
2.6000

> <Gold.PLP.Chemscore.CHOScore>
0.0000

> <Gold.PLP.Chemscore.Metal>
0.0000

> <Gold.Chemscore.Hbonds>
donor molecule, donor type, donor heavy atom, donor atom, acceptor molecule, acceptor atom, score
      L1  H     8    32       P1  7948  1.00
      L1  H    11    33       P1  7948  1.00
      P1  H  7997  8008       L1    22  0.40

> <Gold.PLP.Chemscore.Internal.Correction>
0.2737

> <Gold.Rescore>
     Score         DG    S(hbond)    S(metal)    S(lipo)     H(rot)  DE(clash)    DE(int)     intcor
     17.84     -18.82       1.59        0.00     100.36       1.45       0.06       0.91       ----

> <Gold.Chemscore.Fitness>
17.8436

> <Gold.Chemscore.DG>
-18.8218

> <Gold.Chemscore.ZeroCoef>
-5.4800

> <Gold.Chemscore.Hbond>
1.5901

> <Gold.Chemscore.Metal>
0.0000

> <Gold.Chemscore.Lipo>
100.3584

> <Gold.Chemscore.Internal_Hbond>
0.0000

> <Gold.Chemscore.DEClash>
0.0643

> <Gold.Chemscore.DEInternal>
0.9139

> <Gold.Chemscore.Rot>
1.4497

> <Gold.Chemscore.Internal.Correction>
   9.000000E+99

> <Gold.Chemscore.Hbonds>
donor molecule, donor type, donor heavy atom, donor atom, acceptor molecule, acceptor atom, score
      L1  H     8    32       P1  7948  0.25
      L1  H    11    33       P1  7948  0.64
      P1  H  7997  8008       L1    22  0.01

> <Gold.Chemscore.Hbond.Weighted>
-5.3111

> <Gold.Chemscore.Metal.Weighted>
-0.0000

> <Gold.Chemscore.Lipo.Weighted>
-11.7419

> <Gold.Chemscore.Internal_Hbond.Weighted>
0.0000

> <Gold.Chemscore.DEClash.Weighted>
0.0643

> <Gold.Chemscore.DEInternal.Weighted>
0.9139

> <Gold.Chemscore.Rot.Weighted>
3.7112

> <Gold.Chemscore.Internal.Correction.Weighted>
   9.000000E+99

> <Gold.Protein.RotatedTorsions>
[ 6907 6896 6895 6894 ] final  -59.35 input  -60.11 | X-H torsion
[ 7974 7965 7964 7962 ] final  -12.33 input  175.53 | X-H torsion
[ 8008 7997 7996 7995 ] final  -73.53 input   59.86 | X-H torsion
[ 10167 10162 10161 10158 ] final   -2.16 input  -65.29 | X-H torsion
[ 10718 10713 10712 10709 ] final  -60.63 input   66.30 | X-H torsion
[ 10763 10752 10751 10750 ] final  -63.44 input  -60.55 | X-H torsion
[ 11005 11000 10999 10996 ] final   64.64 input  -57.11 | X-H torsion

> <Gold.Protein.ActiveResidues>
 VAL166  LYS551  ARG553  GLY616  TRP617  ASP618  TYR619  PRO620  LYS621  CYS622 
 ASP623  PHE694  ASN695  SER759  ASP760  ASP761  ALA762  ILE779  LEU786  VAL792 
 PHE793  MET794  SER795  GLU796  ALA797  LYS798  CYS799  TRP800  GLU811  SER814 

> <Gold.Protein.RotatedAtoms>
  150.7937  134.6980  159.6533 H   0  0  0  0  0  0  0  0  0  0  0  0  # atno 6907 bound_to 6896
  152.4046  134.6225  160.0064 H   0  0  0  0  0  0  0  0  0  0  0  0  # atno 6908 bound_to 6896
  151.6485  133.3285  159.3182 H   0  0  0  0  0  0  0  0  0  0  0  0  # atno 6909 bound_to 6896
  146.2156  140.3041  142.8377 H   0  0  0  0  0  0  0  0  0  0  0  0  # atno 7974 bound_to 7965
  154.5255  140.0777  156.8250 H   0  0  0  0  0  0  0  0  0  0  0  0  # atno 8008 bound_to 7997
  155.3485  140.3411  155.4221 H   0  0  0  0  0  0  0  0  0  0  0  0  # atno 8009 bound_to 7997
  156.1727  140.1625  156.8406 H   0  0  0  0  0  0  0  0  0  0  0  0  # atno 8010 bound_to 7997
  140.6840  143.6690  150.8201 H   0  0  0  0  0  0  0  0  0  0  0  0  # atno 10167 bound_to 10162
  156.0977  130.4190  150.0881 H   0  0  0  0  0  0  0  0  0  0  0  0  # atno 10718 bound_to 10713
  154.3151  135.6207  153.5483 H   0  0  0  0  0  0  0  0  0  0  0  0  # atno 10763 bound_to 10752
  152.9825  135.5710  154.5133 H   0  0  0  0  0  0  0  0  0  0  0  0  # atno 10764 bound_to 10752
  154.4791  135.2862  155.1561 H   0  0  0  0  0  0  0  0  0  0  0  0  # atno 10765 bound_to 10752
  139.9945  134.6538  156.0033 H   0  0  0  0  0  0  0  0  0  0  0  0  # atno 11005 bound_to 11000
  144.9036  140.7672  143.5852 LP  0  0  0  0  0  0  0  0  0  0  0  0  # atno 17320 bound_to 7965
  145.2968  139.1864  143.4711 LP  0  0  0  0  0  0  0  0  0  0  0  0  # atno 17321 bound_to 7965
  140.0394  143.5361  152.2724 LP  0  0  0  0  0  0  0  0  0  0  0  0  # atno 17342 bound_to 10162
  139.6183  144.7624  151.2796 LP  0  0  0  0  0  0  0  0  0  0  0  0  # atno 17343 bound_to 10162
  156.8876  130.9577  151.3592 LP  0  0  0  0  0  0  0  0  0  0  0  0  # atno 17370 bound_to 10713
  157.6141  130.8605  149.9000 LP  0  0  0  0  0  0  0  0  0  0  0  0  # atno 17371 bound_to 10713
  141.1593  133.6540  156.4266 LP  0  0  0  0  0  0  0  0  0  0  0  0  # atno 17394 bound_to 11000
  140.4844  134.6634  157.5184 LP  0  0  0  0  0  0  0  0  0  0  0  0  # atno 17395 bound_to 11000

$$$$
