AV-unprocessed.smi:2749|AV-procd|sdf|10585|dock6
  -GOLD-   2272015 33D 1   1.00000     0.00000
 Structure written by MMmdl.
 32 34  0  0  0  0  0  0  0  0  1 V2000
  151.4340  140.8066  157.7738 O   0  0  0  0  0  0  0  0  0  0  0  0
  151.0108  141.9332  157.5203 C   0  0  0  0  0  0  0  0  0  0  0  0
  151.1447  142.9400  158.4107 N   0  0  0  0  0  0  0  0  0  0  0  0
  151.7321  142.9855  159.7098 C   0  0  0  0  0  0  0  0  0  0  0  0
  152.6940  141.9778  159.9517 C   0  0  0  0  0  0  0  0  0  0  0  0
  153.3474  141.9223  161.1983 C   0  0  0  0  0  0  0  0  0  0  0  0
  153.0223  142.8807  162.1743 C   0  0  0  0  0  0  0  0  0  0  0  0
  153.6237  142.8686  163.3874 F   0  0  0  0  0  0  0  0  0  0  0  0
  152.0565  143.8527  161.8569 C   0  0  0  0  0  0  0  0  0  0  0  0
  151.4300  143.9053  160.6622 N   0  0  0  0  0  0  0  0  0  0  0  0
  150.3942  142.2379  156.3671 N   0  0  0  0  0  0  0  0  0  0  0  0
  150.1359  141.3244  155.2580 C   0  0  2  0  0  0  0  0  0  0  0  0
  148.9057  141.7454  154.4474 C   0  0  0  0  0  0  0  0  0  0  0  0
  148.0004  140.5138  154.5855 C   0  0  1  0  0  0  0  0  0  0  0  0
  148.5449  139.3053  153.8096 C   0  0  0  0  0  0  0  0  0  0  0  0
  149.7369  138.8887  154.6718 C   0  0  0  0  0  0  0  0  0  0  0  0
  149.7003  139.9460  155.7831 C   0  0  2  0  0  0  0  0  0  0  0  0
  148.2997  140.1270  155.9143 O   0  0  0  0  0  0  0  0  0  0  0  0
  150.7412  143.8147  158.1085 H   0  0  0  0  0  0  0  0  0  0  0  0
  152.9329  141.2492  159.1902 H   0  0  0  0  0  0  0  0  0  0  0  0
  154.0843  141.1590  161.4001 H   0  0  0  0  0  0  0  0  0  0  0  0
  151.7793  144.6075  162.5780 H   0  0  0  0  0  0  0  0  0  0  0  0
  150.0785  143.1904  156.2471 H   0  0  0  0  0  0  0  0  0  0  0  0
  151.0128  141.2239  154.6160 H   0  0  0  0  0  0  0  0  0  0  0  0
  148.4204  142.6223  154.8788 H   0  0  0  0  0  0  0  0  0  0  0  0
  149.1438  141.9706  153.4073 H   0  0  0  0  0  0  0  0  0  0  0  0
  146.9450  140.7180  154.4035 H   0  0  0  0  0  0  0  0  0  0  0  0
  147.8057  138.5047  153.7676 H   0  0  0  0  0  0  0  0  0  0  0  0
  148.8291  139.5625  152.7887 H   0  0  0  0  0  0  0  0  0  0  0  0
  149.5804  137.8906  155.0824 H   0  0  0  0  0  0  0  0  0  0  0  0
  150.6797  138.8885  154.1238 H   0  0  0  0  0  0  0  0  0  0  0  0
  150.2030  139.6331  156.6993 H   0  0  0  0  0  0  0  0  0  0  0  0
  1  2  2  0  0  0  0
  2  3  1  0  0  0  0
  2 11  1  0  0  0  0
  3  4  1  0  0  0  0
  3 19  1  0  0  0  0
  4 10  1  0  0  0  0
  4  5  2  0  0  0  0
  5  6  1  0  0  0  0
  5 20  1  0  0  0  0
  6  7  2  0  0  0  0
  6 21  1  0  0  0  0
  7  8  1  0  0  0  0
  7  9  1  0  0  0  0
  9 10  2  0  0  0  0
  9 22  1  0  0  0  0
 11 12  1  0  0  0  0
 11 23  1  0  0  0  0
 12 17  1  0  0  0  0
 12 13  1  0  0  0  0
 12 24  1  0  0  0  0
 13 14  1  0  0  0  0
 13 25  1  0  0  0  0
 13 26  1  0  0  0  0
 14 18  1  0  0  0  0
 14 15  1  0  0  0  0
 14 27  1  0  0  0  0
 15 16  1  0  0  0  0
 15 28  1  0  0  0  0
 15 29  1  0  0  0  0
 16 17  1  0  0  0  0
 16 30  1  0  0  0  0
 16 31  1  0  0  0  0
 17 18  1  0  0  0  0
 17 32  1  0  0  0  0
M  END
> <s_m_source_file>
AV-unprocessed.smi

> <i_m_source_file_index>
2749

> <i_lp_mmshare_version>
43012

> <i_f3d_flags>
0

> <s_epik_input>
W0NIMl0xW0NIMl1bQ0BIXShPMilbQ0BASF0oW0NIMl1bQ0BASF0xMilbTkhdQyg9TylbTkhdYzNbY0hdW2NIXWMoRilbY0hdbjM=

> <s_epik_cmdline>
J2VwaWtfcHl0aG9uJywgJy1waCcsICc3LjAnLCAnLXRuJywgJzgnLCAnLW1hJywgJzIwMCcsICctbWV0YWxfYmluZGluZycsICctaW1hZScsICc8aW5maWxlLm1hZT4nLCAnLW9tYWUnLCAnPG91dGZpbGUubWFlPic=

> <r_lp_tautomer_probability>
1

> <r_epik_Ionization_Penalty>
3.37159e-05

> <r_epik_Ionization_Penalty_Charging>
0

> <r_epik_Ionization_Penalty_Neutral>
3.37159e-05

> <r_epik_State_Penalty>
-0

> <r_epik_Charging_Adjusted_Penalty>
0

> <i_epik_Tot_Q>
0

> <i_epik_Tot_abs_Q>
0

> <r_epik_Metal_State_Penalty>
-0

> <b_epik_Metal_Only>
0

> <s_lp_Force_Field>
OPLS_2005

> <r_lp_Energy>
42.1362

> <b_lp_Chiralities_Consistent>
1

> <s_lp_Variant>
AV-unprocessed.smi:2749-1

> <Gold.Version>
5.8.1

> <Gold.Id.Protein>
6NUR|6NUR_protein|mol2

> <Gold.PLP.Fitness>
39.6342

> <Gold.PLP.PLP>
-37.4734

> <Gold.PLP.part.hbond>
-1.0132

> <Gold.PLP.part.metal>
0.0000

> <Gold.PLP.part.buried>
-1.0237

> <Gold.PLP.part.nonpolar>
-34.2427

> <Gold.PLP.part.repulsive>
0.2592

> <Gold.PLP.ligand.clash>
0.0000

> <Gold.PLP.ligand.torsion>
0.4346

> <Gold.PLP.Chemscore.Hbond>
1.0000

> <Gold.PLP.Chemscore.CHOScore>
0.0000

> <Gold.PLP.Chemscore.Metal>
0.0000

> <Gold.Chemscore.Hbonds>
donor molecule, donor type, donor heavy atom, donor atom, acceptor molecule, acceptor atom, score
      L1  H    11    23       P1  8028  1.00

> <Gold.PLP.Chemscore.Internal.Correction>
0.0299

> <Gold.Rescore>
     Score         DG    S(hbond)    S(metal)    S(lipo)     H(rot)  DE(clash)    DE(int)     intcor
     12.56     -15.74       1.00        0.00      81.10       1.00       0.06       3.12       ----

> <Gold.Chemscore.Fitness>
12.5641

> <Gold.Chemscore.DG>
-15.7382

> <Gold.Chemscore.ZeroCoef>
-5.4800

> <Gold.Chemscore.Hbond>
0.9968

> <Gold.Chemscore.Metal>
0.0000

> <Gold.Chemscore.Lipo>
81.1018

> <Gold.Chemscore.Internal_Hbond>
0.0000

> <Gold.Chemscore.DEClash>
0.0577

> <Gold.Chemscore.DEInternal>
3.1165

> <Gold.Chemscore.Rot>
1.0000

> <Gold.Chemscore.Internal.Correction>
   9.000000E+99

> <Gold.Chemscore.Hbonds>
donor molecule, donor type, donor heavy atom, donor atom, acceptor molecule, acceptor atom, score
      L1  H    11    23       P1  8028  0.93

> <Gold.Chemscore.Hbond.Weighted>
-3.3293

> <Gold.Chemscore.Metal.Weighted>
-0.0000

> <Gold.Chemscore.Lipo.Weighted>
-9.4889

> <Gold.Chemscore.Internal_Hbond.Weighted>
0.0000

> <Gold.Chemscore.DEClash.Weighted>
0.0577

> <Gold.Chemscore.DEInternal.Weighted>
3.1165

> <Gold.Chemscore.Rot.Weighted>
2.5600

> <Gold.Chemscore.Internal.Correction.Weighted>
   9.000000E+99

> <Gold.Protein.RotatedTorsions>
[ 6907 6896 6895 6894 ] final  -58.96 input  -60.11 | X-H torsion
[ 7974 7965 7964 7962 ] final -159.38 input  175.53 | X-H torsion
[ 8008 7997 7996 7995 ] final  -75.45 input   59.86 | X-H torsion
[ 10167 10162 10161 10158 ] final -170.56 input  -65.29 | X-H torsion
[ 10718 10713 10712 10709 ] final    3.71 input   66.30 | X-H torsion
[ 10763 10752 10751 10750 ] final  104.84 input  -60.55 | X-H torsion
[ 11005 11000 10999 10996 ] final   94.26 input  -57.11 | X-H torsion

> <Gold.Protein.ActiveResidues>
 VAL166  LYS551  ARG553  GLY616  TRP617  ASP618  TYR619  PRO620  LYS621  CYS622 
 ASP623  PHE694  ASN695  SER759  ASP760  ASP761  ALA762  ILE779  LEU786  VAL792 
 PHE793  MET794  SER795  GLU796  ALA797  LYS798  CYS799  TRP800  GLU811  SER814 

> <Gold.Protein.RotatedAtoms>
  150.7966  134.7030  159.6560 H   0  0  0  0  0  0  0  0  0  0  0  0  # atno 6907 bound_to 6896
  152.4079  134.6172  160.0051 H   0  0  0  0  0  0  0  0  0  0  0  0  # atno 6908 bound_to 6896
  151.6423  133.3288  159.3169 H   0  0  0  0  0  0  0  0  0  0  0  0  # atno 6909 bound_to 6896
  144.7467  140.3693  143.6079 H   0  0  0  0  0  0  0  0  0  0  0  0  # atno 7974 bound_to 7965
  154.5418  140.0744  156.8522 H   0  0  0  0  0  0  0  0  0  0  0  0  # atno 8008 bound_to 7997
  155.3166  140.3393  155.4224 H   0  0  0  0  0  0  0  0  0  0  0  0  # atno 8009 bound_to 7997
  156.1881  140.1676  156.8132 H   0  0  0  0  0  0  0  0  0  0  0  0  # atno 8010 bound_to 7997
  139.5854  144.1329  152.1569 H   0  0  0  0  0  0  0  0  0  0  0  0  # atno 10167 bound_to 10162
  156.8819  130.5656  149.5653 H   0  0  0  0  0  0  0  0  0  0  0  0  # atno 10718 bound_to 10713
  153.3713  135.3930  155.1790 H   0  0  0  0  0  0  0  0  0  0  0  0  # atno 10763 bound_to 10752
  154.8694  135.3703  154.4974 H   0  0  0  0  0  0  0  0  0  0  0  0  # atno 10764 bound_to 10752
  153.5442  135.7084  153.5683 H   0  0  0  0  0  0  0  0  0  0  0  0  # atno 10765 bound_to 10752
  139.8800  134.8836  156.3839 H   0  0  0  0  0  0  0  0  0  0  0  0  # atno 11005 bound_to 11000
  145.7095  139.1681  143.2547 LP  0  0  0  0  0  0  0  0  0  0  0  0  # atno 17320 bound_to 7965
  146.1357  140.7126  142.9391 LP  0  0  0  0  0  0  0  0  0  0  0  0  # atno 17321 bound_to 7965
  140.0892  144.5635  150.7067 LP  0  0  0  0  0  0  0  0  0  0  0  0  # atno 17342 bound_to 10162
  140.7127  143.2518  151.4532 LP  0  0  0  0  0  0  0  0  0  0  0  0  # atno 17343 bound_to 10162
  156.0673  130.5713  150.9313 LP  0  0  0  0  0  0  0  0  0  0  0  0  # atno 17370 bound_to 10713
  157.6135  131.0935  150.8752 LP  0  0  0  0  0  0  0  0  0  0  0  0  # atno 17371 bound_to 10713
  140.9380  133.7534  156.0109 LP  0  0  0  0  0  0  0  0  0  0  0  0  # atno 17394 bound_to 11000
  140.8253  134.3241  157.5368 LP  0  0  0  0  0  0  0  0  0  0  0  0  # atno 17395 bound_to 11000

$$$$
