AV-unprocessed.smi:2173|AV-procd|sdf|8841|dock9
  -GOLD-   2272012 33D 1   1.00000     0.00000
 Structure written by MMmdl.
 36 37  0  0  0  0  0  0  0  0  2 V2000
  152.8335  139.7963  156.6224 O   0  0  0  0  0  0  0  0  0  0  0  0
  151.7129  139.9096  157.1193 C   0  0  0  0  0  0  0  0  0  0  0  0
  151.4940  139.9143  158.4430 N   0  0  0  0  0  0  0  0  0  0  0  0
  152.5274  139.8135  159.4697 C   0  0  0  0  0  0  0  0  0  0  0  0
  153.5330  140.9851  159.4530 C   0  0  0  0  0  0  0  0  0  0  0  0
  152.9247  142.3277  159.8232 C   0  0  0  0  0  0  0  0  0  0  0  0
  152.5901  142.6583  161.1541 C   0  0  0  0  0  0  0  0  0  0  0  0
  152.0098  143.9148  161.4265 C   0  0  0  0  0  0  0  0  0  0  0  0
  151.7746  144.8125  160.3643 C   0  0  0  0  0  0  0  0  0  0  0  0
  152.1288  144.4314  159.0542 C   0  0  0  0  0  0  0  0  0  0  0  0
  152.6837  143.2197  158.8344 N   0  3  0  0  0  0  0  0  0  0  0  0
  150.4808  140.0845  156.2225 C   0  0  1  0  0  0  0  0  0  0  0  0
  150.4824  141.4756  155.5478 C   0  0  0  0  0  0  0  0  0  0  0  0
  149.4209  141.5895  154.4682 C   0  0  0  0  0  0  0  0  0  0  0  0
  148.7988  140.5271  153.9289 C   0  0  0  0  0  0  0  0  0  0  0  0
  149.0905  139.0929  154.3340 C   0  0  0  0  0  0  0  0  0  0  0  0
  150.3844  138.9701  155.1614 C   0  0  0  0  0  0  0  0  0  0  0  0
  150.5406  140.0042  158.7639 H   0  0  0  0  0  0  0  0  0  0  0  0
  152.0182  139.7942  160.4336 H   0  0  0  0  0  0  0  0  0  0  0  0
  153.0523  138.8613  159.3810 H   0  0  0  0  0  0  0  0  0  0  0  0
  154.3563  140.7682  160.1347 H   0  0  0  0  0  0  0  0  0  0  0  0
  153.9828  141.0687  158.4627 H   0  0  0  0  0  0  0  0  0  0  0  0
  152.7713  141.9576  161.9564 H   0  0  0  0  0  0  0  0  0  0  0  0
  151.7456  144.1858  162.4383 H   0  0  0  0  0  0  0  0  0  0  0  0
  151.3286  145.7784  160.5517 H   0  0  0  0  0  0  0  0  0  0  0  0
  151.9841  145.0522  158.1821 H   0  0  0  0  0  0  0  0  0  0  0  0
  149.5908  140.0153  156.8513 H   0  0  0  0  0  0  0  0  0  0  0  0
  150.2998  142.2484  156.2952 H   0  0  0  0  0  0  0  0  0  0  0  0
  151.4493  141.6955  155.0927 H   0  0  0  0  0  0  0  0  0  0  0  0
  149.1795  142.5848  154.1246 H   0  0  0  0  0  0  0  0  0  0  0  0
  148.0414  140.6752  153.1731 H   0  0  0  0  0  0  0  0  0  0  0  0
  148.2397  138.7254  154.9083 H   0  0  0  0  0  0  0  0  0  0  0  0
  149.1616  138.4737  153.4395 H   0  0  0  0  0  0  0  0  0  0  0  0
  151.2425  139.0303  154.4899 H   0  0  0  0  0  0  0  0  0  0  0  0
  150.4281  137.9849  155.6281 H   0  0  0  0  0  0  0  0  0  0  0  0
  152.9288  142.9621  157.8779 H   0  0  0  0  0  0  0  0  0  0  0  0
  1  2  2  0  0  0  0
  2  3  1  0  0  0  0
  2 12  1  0  0  0  0
  3  4  1  0  0  0  0
  3 18  1  0  0  0  0
  4  5  1  0  0  0  0
  4 19  1  0  0  0  0
  4 20  1  0  0  0  0
  5  6  1  0  0  0  0
  5 21  1  0  0  0  0
  5 22  1  0  0  0  0
  6 11  1  0  0  0  0
  6  7  2  0  0  0  0
  7  8  1  0  0  0  0
  7 23  1  0  0  0  0
  8  9  2  0  0  0  0
  8 24  1  0  0  0  0
  9 10  1  0  0  0  0
  9 25  1  0  0  0  0
 10 11  2  0  0  0  0
 10 26  1  0  0  0  0
 11 36  1  0  0  0  0
 12 17  1  0  0  0  0
 12 13  1  0  0  0  0
 12 27  1  0  0  0  0
 13 14  1  0  0  0  0
 13 28  1  0  0  0  0
 13 29  1  0  0  0  0
 14 15  2  0  0  0  0
 14 30  1  0  0  0  0
 15 16  1  0  0  0  0
 15 31  1  0  0  0  0
 16 17  1  0  0  0  0
 16 32  1  0  0  0  0
 16 33  1  0  0  0  0
 17 34  1  0  0  0  0
 17 35  1  0  0  0  0
M  CHG  1  11   1
M  END
> <s_m_source_file>
AV-unprocessed.smi

> <i_m_source_file_index>
2173

> <i_lp_mmshare_version>
43012

> <i_f3d_flags>
0

> <s_epik_input>
W0NIMl0xW0NIMl1bQ0hdPVtDSF1bQ0gyXVtDQEhdMUMoPU8pW05IXVtDSDJdW0NIMl1jMltjSF1bY0hdW2NIXVtjSF1uMg==

> <s_epik_cmdline>
J2VwaWtfcHl0aG9uJywgJy1waCcsICc3LjAnLCAnLXRuJywgJzgnLCAnLW1hJywgJzIwMCcsICctbWV0YWxfYmluZGluZycsICctaW1hZScsICc8aW5maWxlLm1hZT4nLCAnLW9tYWUnLCAnPG91dGZpbGUubWFlPic=

> <r_epik_Ionization_Penalty>
1.84586

> <r_epik_Ionization_Penalty_Charging>
1.84586

> <r_epik_Ionization_Penalty_Neutral>
1.53635e-08

> <r_epik_State_Penalty>
1.96297

> <r_epik_Charging_Adjusted_Penalty>
3.80883

> <i_epik_Tot_Q>
1

> <i_epik_Tot_abs_Q>
1

> <r_epik_Metal_State_Penalty>
1.98887

> <b_epik_Metal_Only>
0

> <s_lp_Force_Field>
OPLS_2005

> <r_lp_Energy>
13.9489

> <b_lp_Chiralities_Consistent>
1

> <s_lp_Variant>
AV-unprocessed.smi:2173-4

> <Gold.Version>
5.8.1

> <Gold.Id.Protein>
6NUR|6NUR_protein|mol2

> <Gold.PLP.Fitness>
43.6498

> <Gold.PLP.PLP>
-41.3429

> <Gold.PLP.part.hbond>
-1.0000

> <Gold.PLP.part.metal>
0.0000

> <Gold.PLP.part.buried>
-2.0372

> <Gold.PLP.part.nonpolar>
-36.6417

> <Gold.PLP.part.repulsive>
0.1579

> <Gold.PLP.ligand.clash>
0.0000

> <Gold.PLP.ligand.torsion>
0.3580

> <Gold.PLP.Chemscore.Hbond>
1.0000

> <Gold.PLP.Chemscore.CHOScore>
0.0000

> <Gold.PLP.Chemscore.Metal>
0.0000

> <Gold.Chemscore.Hbonds>
donor molecule, donor type, donor heavy atom, donor atom, acceptor molecule, acceptor atom, score
      P1  H  7997  8010       L1     1  1.00

> <Gold.PLP.Chemscore.Internal.Correction>
0.0229

> <Gold.Rescore>
     Score         DG    S(hbond)    S(metal)    S(lipo)     H(rot)  DE(clash)    DE(int)     intcor
     18.23     -18.44       0.99        0.00     114.94       1.48       0.04       0.17       ----

> <Gold.Chemscore.Fitness>
18.2291

> <Gold.Chemscore.DG>
-18.4424

> <Gold.Chemscore.ZeroCoef>
-5.4800

> <Gold.Chemscore.Hbond>
0.9893

> <Gold.Chemscore.Metal>
0.0000

> <Gold.Chemscore.Lipo>
114.9352

> <Gold.Chemscore.Internal_Hbond>
0.0000

> <Gold.Chemscore.DEClash>
0.0422

> <Gold.Chemscore.DEInternal>
0.1711

> <Gold.Chemscore.Rot>
1.4801

> <Gold.Chemscore.Internal.Correction>
   9.000000E+99

> <Gold.Chemscore.Hbonds>
donor molecule, donor type, donor heavy atom, donor atom, acceptor molecule, acceptor atom, score
      P1  H  7997  8010       L1     1  0.95

> <Gold.Chemscore.Hbond.Weighted>
-3.3041

> <Gold.Chemscore.Metal.Weighted>
-0.0000

> <Gold.Chemscore.Lipo.Weighted>
-13.4474

> <Gold.Chemscore.Internal_Hbond.Weighted>
0.0000

> <Gold.Chemscore.DEClash.Weighted>
0.0422

> <Gold.Chemscore.DEInternal.Weighted>
0.1711

> <Gold.Chemscore.Rot.Weighted>
3.7892

> <Gold.Chemscore.Internal.Correction.Weighted>
   9.000000E+99

> <Gold.Protein.RotatedTorsions>
[ 6907 6896 6895 6894 ] final   49.50 input  -60.11 | X-H torsion
[ 7974 7965 7964 7962 ] final  -24.31 input  175.53 | X-H torsion
[ 8008 7997 7996 7995 ] final   85.62 input   59.86 | X-H torsion
[ 10167 10162 10161 10158 ] final   54.38 input  -65.29 | X-H torsion
[ 10718 10713 10712 10709 ] final  -75.74 input   66.30 | X-H torsion
[ 10763 10752 10751 10750 ] final  -26.45 input  -60.55 | X-H torsion
[ 11005 11000 10999 10996 ] final   63.12 input  -57.11 | X-H torsion

> <Gold.Protein.ActiveResidues>
 VAL166  LYS551  ARG553  GLY616  TRP617  ASP618  TYR619  PRO620  LYS621  CYS622 
 ASP623  PHE694  ASN695  SER759  ASP760  ASP761  ALA762  ILE779  LEU786  VAL792 
 PHE793  MET794  SER795  GLU796  ALA797  LYS798  CYS799  TRP800  GLU811  SER814 

> <Gold.Protein.RotatedAtoms>
  152.2914  134.7717  160.0376 H   0  0  0  0  0  0  0  0  0  0  0  0  # atno 6907 bound_to 6896
  151.8262  133.3396  159.3607 H   0  0  0  0  0  0  0  0  0  0  0  0  # atno 6908 bound_to 6896
  150.7232  134.5456  159.5813 H   0  0  0  0  0  0  0  0  0  0  0  0  # atno 6909 bound_to 6896
  146.1562  140.4734  142.8590 H   0  0  0  0  0  0  0  0  0  0  0  0  # atno 7974 bound_to 7965
  155.9524  140.3400  155.6419 H   0  0  0  0  0  0  0  0  0  0  0  0  # atno 8008 bound_to 7997
  155.6903  140.0748  157.2469 H   0  0  0  0  0  0  0  0  0  0  0  0  # atno 8009 bound_to 7997
  154.4125  140.1658  156.2067 H   0  0  0  0  0  0  0  0  0  0  0  0  # atno 8010 bound_to 7997
  140.2307  144.3690  150.6415 H   0  0  0  0  0  0  0  0  0  0  0  0  # atno 10167 bound_to 10162
  156.0197  130.4448  150.3088 H   0  0  0  0  0  0  0  0  0  0  0  0  # atno 10718 bound_to 10713
  153.7162  135.6947  153.5024 H   0  0  0  0  0  0  0  0  0  0  0  0  # atno 10763 bound_to 10752
  153.2237  135.4361  155.0517 H   0  0  0  0  0  0  0  0  0  0  0  0  # atno 10764 bound_to 10752
  154.8299  135.3467  154.6697 H   0  0  0  0  0  0  0  0  0  0  0  0  # atno 10765 bound_to 10752
  140.0046  134.6389  155.9876 H   0  0  0  0  0  0  0  0  0  0  0  0  # atno 11005 bound_to 11000
  144.7967  140.6136  143.6505 LP  0  0  0  0  0  0  0  0  0  0  0  0  # atno 17320 bound_to 7965
  145.4701  139.1504  143.3819 LP  0  0  0  0  0  0  0  0  0  0  0  0  # atno 17321 bound_to 7965
  140.6187  143.2174  151.6738 LP  0  0  0  0  0  0  0  0  0  0  0  0  # atno 17342 bound_to 10162
  139.5111  144.3520  152.0643 LP  0  0  0  0  0  0  0  0  0  0  0  0  # atno 17343 bound_to 10162
  157.1190  131.0241  151.3017 LP  0  0  0  0  0  0  0  0  0  0  0  0  # atno 17370 bound_to 10713
  157.4643  130.7671  149.7265 LP  0  0  0  0  0  0  0  0  0  0  0  0  # atno 17371 bound_to 10713
  141.1667  133.6537  156.4505 LP  0  0  0  0  0  0  0  0  0  0  0  0  # atno 17394 bound_to 11000
  140.4665  134.6793  157.5109 LP  0  0  0  0  0  0  0  0  0  0  0  0  # atno 17395 bound_to 11000

$$$$
