AV-unprocessed.smi:1401|AV-procd|sdf|5690|dock1
  -GOLD-   22720 5313D 1   1.00000     0.00000
 Structure written by MMmdl.
 48 50  0  0  0  0  0  0  0  0  1 V2000
  148.8187  139.4770  153.9045 C   0  0  0  0  0  0  0  0  0  0  0  0
  149.8043  138.6317  154.6653 C   0  0  0  0  0  0  0  0  0  0  0  0
  149.7043  137.3512  154.5203 N   0  0  0  0  0  0  0  0  0  0  0  0
  150.5543  136.4841  155.1792 N   0  0  0  0  0  0  0  0  0  0  0  0
  150.2846  135.0632  154.9147 C   0  0  0  0  0  0  0  0  0  0  0  0
  148.8186  134.6702  155.1467 C   0  0  0  0  0  0  0  0  0  0  0  0
  148.4229  134.3420  156.2662 O   0  0  0  0  0  0  0  0  0  0  0  0
  148.0182  134.7298  154.0714 N   0  0  0  0  0  0  0  0  0  0  0  0
  146.5878  134.4307  154.0588 C   0  0  2  0  0  0  0  0  0  0  0  0
  146.3807  132.9357  154.3634 C   0  0  0  0  0  0  0  0  0  0  0  0
  145.9767  134.8410  152.6967 C   0  0  1  0  0  0  0  0  0  0  0  0
  146.4601  133.9691  151.5119 C   0  0  0  0  0  0  0  0  0  0  0  0
  145.1492  133.4870  150.8660 C   0  0  2  0  0  0  0  0  0  0  0  0
  144.4386  134.6741  150.1911 C   0  0  0  0  0  0  0  0  0  0  0  0
  143.9214  135.4852  151.3937 C   0  0  0  0  0  0  0  0  0  0  0  0
  144.4374  134.6745  152.5982 C   0  0  1  0  0  0  0  0  0  0  0  0
  144.2767  133.2453  152.0903 C   0  0  0  0  0  0  0  0  0  0  0  0
  151.5576  136.8686  156.0197 C   0  0  0  0  0  0  0  0  0  0  0  0
  152.2914  136.0592  156.5891 O   0  0  0  0  0  0  0  0  0  0  0  0
  151.6692  138.3208  156.1743 C   0  0  0  0  0  0  0  0  0  0  0  0
  152.7092  138.7670  157.0441 C   0  0  0  0  0  0  0  0  0  0  0  0
  153.5660  139.1284  157.7334 N   0  0  0  0  0  0  0  0  0  0  0  0
  150.8394  139.1824  155.5342 C   0  0  0  0  0  0  0  0  0  0  0  0
  150.9122  140.6978  155.6620 C   0  0  0  0  0  0  0  0  0  0  0  0
  149.3319  140.1132  153.1829 H   0  0  0  0  0  0  0  0  0  0  0  0
  148.2542  140.1184  154.5815 H   0  0  0  0  0  0  0  0  0  0  0  0
  148.0992  138.8681  153.3549 H   0  0  0  0  0  0  0  0  0  0  0  0
  150.5387  134.8177  153.8818 H   0  0  0  0  0  0  0  0  0  0  0  0
  150.9340  134.4377  155.5305 H   0  0  0  0  0  0  0  0  0  0  0  0
  148.4288  135.0119  153.1932 H   0  0  0  0  0  0  0  0  0  0  0  0
  146.1007  135.0128  154.8433 H   0  0  0  0  0  0  0  0  0  0  0  0
  145.3231  132.6756  154.4016 H   0  0  0  0  0  0  0  0  0  0  0  0
  146.8121  132.6659  155.3278 H   0  0  0  0  0  0  0  0  0  0  0  0
  146.8486  132.3079  153.6043 H   0  0  0  0  0  0  0  0  0  0  0  0
  146.2368  135.8850  152.5136 H   0  0  0  0  0  0  0  0  0  0  0  0
  147.0866  134.5272  150.8152 H   0  0  0  0  0  0  0  0  0  0  0  0
  147.0362  133.1092  151.8559 H   0  0  0  0  0  0  0  0  0  0  0  0
  145.2755  132.6233  150.2126 H   0  0  0  0  0  0  0  0  0  0  0  0
  145.1123  135.2520  149.5572 H   0  0  0  0  0  0  0  0  0  0  0  0
  143.6073  134.3318  149.5733 H   0  0  0  0  0  0  0  0  0  0  0  0
  144.2857  136.5131  151.3927 H   0  0  0  0  0  0  0  0  0  0  0  0
  142.8311  135.5195  151.3898 H   0  0  0  0  0  0  0  0  0  0  0  0
  143.8935  134.8943  153.5168 H   0  0  0  0  0  0  0  0  0  0  0  0
  143.2455  132.9874  151.8426 H   0  0  0  0  0  0  0  0  0  0  0  0
  144.6789  132.4918  152.7695 H   0  0  0  0  0  0  0  0  0  0  0  0
  151.7298  141.0197  156.3065 H   0  0  0  0  0  0  0  0  0  0  0  0
  149.9873  141.0902  156.0854 H   0  0  0  0  0  0  0  0  0  0  0  0
  151.0659  141.1580  154.6856 H   0  0  0  0  0  0  0  0  0  0  0  0
  1  2  1  0  0  0  0
  1 25  1  0  0  0  0
  1 26  1  0  0  0  0
  1 27  1  0  0  0  0
  2 23  1  0  0  0  0
  2  3  2  0  0  0  0
  3  4  1  0  0  0  0
  4  5  1  0  0  0  0
  4 18  1  0  0  0  0
  5  6  1  0  0  0  0
  5 28  1  0  0  0  0
  5 29  1  0  0  0  0
  6  7  2  0  0  0  0
  6  8  1  0  0  0  0
  8  9  1  0  0  0  0
  8 30  1  0  0  0  0
  9 10  1  0  0  0  0
  9 11  1  0  0  0  0
  9 31  1  0  0  0  0
 10 32  1  0  0  0  0
 10 33  1  0  0  0  0
 10 34  1  0  0  0  0
 11 16  1  0  0  0  0
 11 12  1  0  0  0  0
 11 35  1  0  0  0  0
 12 13  1  0  0  0  0
 12 36  1  0  0  0  0
 12 37  1  0  0  0  0
 13 17  1  0  0  0  0
 13 14  1  0  0  0  0
 13 38  1  0  0  0  0
 14 15  1  0  0  0  0
 14 39  1  0  0  0  0
 14 40  1  0  0  0  0
 15 16  1  0  0  0  0
 15 41  1  0  0  0  0
 15 42  1  0  0  0  0
 16 17  1  0  0  0  0
 16 43  1  0  0  0  0
 17 44  1  0  0  0  0
 17 45  1  0  0  0  0
 18 19  2  0  0  0  0
 18 20  1  0  0  0  0
 20 21  1  0  0  0  0
 20 23  2  0  0  0  0
 21 22  3  0  0  0  0
 23 24  1  0  0  0  0
 24 46  1  0  0  0  0
 24 47  1  0  0  0  0
 24 48  1  0  0  0  0
M  END
> <s_m_source_file>
AV-unprocessed.smi

> <i_m_source_file_index>
1401

> <i_lp_mmshare_version>
43012

> <i_f3d_flags>
0

> <s_epik_input>
TiNDYyhjMVtDSDNdKWMoPU8pbihuYzFbQ0gzXSlbQ0gyXUMoPU8pW05IXVtDQEhdKFtDSDNdKVtDQEhdKFtDSDJdW0NASF0yMylbQ0BIXShbQ0gyXTMpW0NIMl1bQ0gyXTI=

> <s_epik_cmdline>
J2VwaWtfcHl0aG9uJywgJy1waCcsICc3LjAnLCAnLXRuJywgJzgnLCAnLW1hJywgJzIwMCcsICctbWV0YWxfYmluZGluZycsICctaW1hZScsICc8aW5maWxlLm1hZT4nLCAnLW9tYWUnLCAnPG91dGZpbGUubWFlPic=

> <r_lp_tautomer_probability>
1

> <r_epik_Ionization_Penalty>
2.16501e-08

> <r_epik_Ionization_Penalty_Charging>
2.29436e-11

> <r_epik_Ionization_Penalty_Neutral>
2.16271e-08

> <r_epik_State_Penalty>
-0

> <r_epik_Charging_Adjusted_Penalty>
2.29436e-11

> <i_epik_Tot_Q>
0

> <i_epik_Tot_abs_Q>
0

> <r_epik_Metal_State_Penalty>
-0

> <b_epik_Metal_Only>
0

> <s_lp_Force_Field>
OPLS_2005

> <r_lp_Energy>
65.9265

> <b_lp_Chiralities_Consistent>
1

> <s_lp_Variant>
AV-unprocessed.smi:1401-3

> <Gold.Version>
5.8.1

> <Gold.Id.Protein>
6NUR|6NUR_protein|mol2

> <Gold.PLP.Fitness>
39.8127

> <Gold.PLP.PLP>
-31.7870

> <Gold.PLP.part.hbond>
-3.0000

> <Gold.PLP.part.metal>
0.0000

> <Gold.PLP.part.buried>
-1.6537

> <Gold.PLP.part.nonpolar>
-27.2460

> <Gold.PLP.part.repulsive>
0.8341

> <Gold.PLP.ligand.clash>
0.0000

> <Gold.PLP.ligand.torsion>
0.5183

> <Gold.PLP.Chemscore.Hbond>
3.0000

> <Gold.PLP.Chemscore.CHOScore>
0.0000

> <Gold.PLP.Chemscore.Metal>
0.0000

> <Gold.Chemscore.Hbonds>
donor molecule, donor type, donor heavy atom, donor atom, acceptor molecule, acceptor atom, score
      L1  H     8    30       P1  7948  1.00
      P1  H  7997  8009       L1    22  1.00
      P1  H 10752 10763       L1    19  0.90

> <Gold.PLP.Chemscore.Internal.Correction>
0.0622

> <Gold.Rescore>
     Score         DG    S(hbond)    S(metal)    S(lipo)     H(rot)  DE(clash)    DE(int)     intcor
     17.51     -19.39       2.81        0.00      74.36       1.63       0.15       1.73       ----

> <Gold.Chemscore.Fitness>
17.5100

> <Gold.Chemscore.DG>
-19.3890

> <Gold.Chemscore.ZeroCoef>
-5.4800

> <Gold.Chemscore.Hbond>
2.8075

> <Gold.Chemscore.Metal>
0.0000

> <Gold.Chemscore.Lipo>
74.3574

> <Gold.Chemscore.Internal_Hbond>
0.0000

> <Gold.Chemscore.DEClash>
0.1520

> <Gold.Chemscore.DEInternal>
1.7270

> <Gold.Chemscore.Rot>
1.6281

> <Gold.Chemscore.Internal.Correction>
   9.000000E+99

> <Gold.Chemscore.Hbonds>
donor molecule, donor type, donor heavy atom, donor atom, acceptor molecule, acceptor atom, score
      L1  H     8    30       P1  7948  0.81
      P1  H  7997  8009       L1    22  0.94
      P1  H 10752 10763       L1    19  0.18

> <Gold.Chemscore.Hbond.Weighted>
-9.3771

> <Gold.Chemscore.Metal.Weighted>
-0.0000

> <Gold.Chemscore.Lipo.Weighted>
-8.6998

> <Gold.Chemscore.Internal_Hbond.Weighted>
0.0000

> <Gold.Chemscore.DEClash.Weighted>
0.1520

> <Gold.Chemscore.DEInternal.Weighted>
1.7270

> <Gold.Chemscore.Rot.Weighted>
4.1678

> <Gold.Chemscore.Internal.Correction.Weighted>
   9.000000E+99

> <Gold.Protein.RotatedTorsions>
[ 6907 6896 6895 6894 ] final  161.68 input  -60.11 | X-H torsion
[ 7974 7965 7964 7962 ] final  105.22 input  175.53 | X-H torsion
[ 8008 7997 7996 7995 ] final  138.70 input   59.86 | X-H torsion
[ 10167 10162 10161 10158 ] final  103.26 input  -65.29 | X-H torsion
[ 10718 10713 10712 10709 ] final  109.23 input   66.30 | X-H torsion
[ 10763 10752 10751 10750 ] final   92.64 input  -60.55 | X-H torsion
[ 11005 11000 10999 10996 ] final   67.55 input  -57.11 | X-H torsion

> <Gold.Protein.ActiveResidues>
 VAL166  LYS551  ARG553  GLY616  TRP617  ASP618  TYR619  PRO620  LYS621  CYS622 
 ASP623  PHE694  ASN695  SER759  ASP760  ASP761  ALA762  ILE779  LEU786  VAL792 
 PHE793  MET794  SER795  GLU796  ALA797  LYS798  CYS799  TRP800  GLU811  SER814 

> <Gold.Protein.RotatedAtoms>
  151.9520  133.3669  159.4003 H   0  0  0  0  0  0  0  0  0  0  0  0  # atno 6907 bound_to 6896
  150.6979  134.4330  159.5266 H   0  0  0  0  0  0  0  0  0  0  0  0  # atno 6908 bound_to 6896
  152.2005  134.8592  160.0559 H   0  0  0  0  0  0  0  0  0  0  0  0  # atno 6909 bound_to 6896
  145.3225  139.2508  143.3704 H   0  0  0  0  0  0  0  0  0  0  0  0  # atno 7974 bound_to 7965
  156.2995  140.2387  156.4116 H   0  0  0  0  0  0  0  0  0  0  0  0  # atno 8008 bound_to 7997
  154.8436  140.0427  157.1578 H   0  0  0  0  0  0  0  0  0  0  0  0  # atno 8009 bound_to 7997
  154.9076  140.2986  155.5287 H   0  0  0  0  0  0  0  0  0  0  0  0  # atno 8010 bound_to 7997
  139.7278  144.7043  151.0770 H   0  0  0  0  0  0  0  0  0  0  0  0  # atno 10167 bound_to 10162
  157.6551  131.0909  150.6422 H   0  0  0  0  0  0  0  0  0  0  0  0  # atno 10718 bound_to 10713
  153.2214  135.4354  155.0493 H   0  0  0  0  0  0  0  0  0  0  0  0  # atno 10763 bound_to 10752
  154.8252  135.3357  154.6921 H   0  0  0  0  0  0  0  0  0  0  0  0  # atno 10764 bound_to 10752
  153.7353  135.7008  153.5035 H   0  0  0  0  0  0  0  0  0  0  0  0  # atno 10765 bound_to 10752
  139.9764  134.6815  156.0346 H   0  0  0  0  0  0  0  0  0  0  0  0  # atno 11005 bound_to 11000
  146.3077  140.3786  142.8681 LP  0  0  0  0  0  0  0  0  0  0  0  0  # atno 17320 bound_to 7965
  144.8928  140.7545  143.5916 LP  0  0  0  0  0  0  0  0  0  0  0  0  # atno 17321 bound_to 7965
  140.7766  143.5082  150.9685 LP  0  0  0  0  0  0  0  0  0  0  0  0  # atno 17342 bound_to 10162
  139.8770  143.7120  152.3161 LP  0  0  0  0  0  0  0  0  0  0  0  0  # atno 17343 bound_to 10162
  156.6730  130.4545  149.5651 LP  0  0  0  0  0  0  0  0  0  0  0  0  # atno 17370 bound_to 10713
  156.1984  130.6604  151.1140 LP  0  0  0  0  0  0  0  0  0  0  0  0  # atno 17371 bound_to 10713
  141.1440  133.6559  156.3814 LP  0  0  0  0  0  0  0  0  0  0  0  0  # atno 17394 bound_to 11000
  140.5186  134.6326  157.5310 LP  0  0  0  0  0  0  0  0  0  0  0  0  # atno 17395 bound_to 11000

$$$$
