AV-unprocessed.smi:2894|AV-procd|sdf|11127|dock3
  -GOLD-   2272016 03D 1   1.00000     0.00000
 Structure written by MMmdl.
 35 36  0  0  0  0  0  0  0  0  1 V2000
  153.6960  141.9948  161.9213 C   0  0  0  0  0  0  0  0  0  0  0  0
  152.7886  142.5982  160.8903 C   0  0  0  0  0  0  0  0  0  0  0  0
  152.1217  141.9412  159.8156 C   0  0  0  0  0  0  0  0  0  0  0  0
  151.4439  142.9645  159.2114 C   0  0  0  0  0  0  0  0  0  0  0  0
  150.6340  142.9275  158.1200 N   0  0  0  0  0  0  0  0  0  0  0  0
  150.0120  141.8696  157.5708 C   0  0  0  0  0  0  0  0  0  0  0  0
  150.0726  140.7112  157.9839 O   0  0  0  0  0  0  0  0  0  0  0  0
  149.2985  142.2342  156.4958 N   0  0  0  0  0  0  0  0  0  0  0  0
  148.5224  141.3325  155.6465 C   0  0  1  0  0  0  0  0  0  0  0  0
  147.1846  141.9765  155.2352 C   0  0  0  0  0  0  0  0  0  0  0  0
  146.4761  141.1101  154.1906 C   0  0  0  0  0  0  0  0  0  0  0  0
  147.3736  140.9104  152.9585 C   0  0  0  0  0  0  0  0  0  0  0  0
  148.7551  140.5676  153.2993 N   0  0  0  0  0  0  0  0  0  0  0  0
  149.3660  140.7987  154.4749 C   0  0  0  0  0  0  0  0  0  0  0  0
  150.5614  140.5551  154.6330 O   0  0  0  0  0  0  0  0  0  0  0  0
  151.7038  144.1334  159.8919 N   0  0  0  0  0  0  0  0  0  0  0  0
  151.2216  145.4762  159.6334 C   0  0  0  0  0  0  0  0  0  0  0  0
  152.5360  143.9018  160.9300 N   0  0  0  0  0  0  0  0  0  0  0  0
  153.8501  140.9315  161.7367 H   0  0  0  0  0  0  0  0  0  0  0  0
  153.2769  142.1002  162.9222 H   0  0  0  0  0  0  0  0  0  0  0  0
  154.6735  142.4774  161.9151 H   0  0  0  0  0  0  0  0  0  0  0  0
  152.1511  140.8950  159.5511 H   0  0  0  0  0  0  0  0  0  0  0  0
  150.4819  143.8167  157.6677 H   0  0  0  0  0  0  0  0  0  0  0  0
  149.3103  143.2066  156.2247 H   0  0  0  0  0  0  0  0  0  0  0  0
  148.2863  140.4417  156.2319 H   0  0  0  0  0  0  0  0  0  0  0  0
  146.5421  142.1060  156.1068 H   0  0  0  0  0  0  0  0  0  0  0  0
  147.3582  142.9725  154.8248 H   0  0  0  0  0  0  0  0  0  0  0  0
  146.2331  140.1410  154.6286 H   0  0  0  0  0  0  0  0  0  0  0  0
  145.5293  141.5645  153.8969 H   0  0  0  0  0  0  0  0  0  0  0  0
  146.9610  140.1346  152.3134 H   0  0  0  0  0  0  0  0  0  0  0  0
  147.3955  141.8280  152.3697 H   0  0  0  0  0  0  0  0  0  0  0  0
  149.3167  140.1782  152.5558 H   0  0  0  0  0  0  0  0  0  0  0  0
  150.1331  145.4698  159.5727 H   0  0  0  0  0  0  0  0  0  0  0  0
  151.6299  145.8349  158.6882 H   0  0  0  0  0  0  0  0  0  0  0  0
  151.5263  146.1545  160.4316 H   0  0  0  0  0  0  0  0  0  0  0  0
  1  2  1  0  0  0  0
  1 19  1  0  0  0  0
  1 20  1  0  0  0  0
  1 21  1  0  0  0  0
  2 18  2  0  0  0  0
  2  3  1  0  0  0  0
  3  4  2  0  0  0  0
  3 22  1  0  0  0  0
  4  5  1  0  0  0  0
  4 16  1  0  0  0  0
  5  6  1  0  0  0  0
  5 23  1  0  0  0  0
  6  7  2  0  0  0  0
  6  8  1  0  0  0  0
  8  9  1  0  0  0  0
  8 24  1  0  0  0  0
  9 14  1  0  0  0  0
  9 10  1  0  0  0  0
  9 25  1  0  0  0  0
 10 11  1  0  0  0  0
 10 26  1  0  0  0  0
 10 27  1  0  0  0  0
 11 12  1  0  0  0  0
 11 28  1  0  0  0  0
 11 29  1  0  0  0  0
 12 13  1  0  0  0  0
 12 30  1  0  0  0  0
 12 31  1  0  0  0  0
 13 14  1  0  0  0  0
 13 32  1  0  0  0  0
 14 15  2  0  0  0  0
 16 17  1  0  0  0  0
 16 18  1  0  0  0  0
 17 33  1  0  0  0  0
 17 34  1  0  0  0  0
 17 35  1  0  0  0  0
M  END
> <s_m_source_file>
AV-unprocessed.smi

> <i_m_source_file_index>
2894

> <i_lp_mmshare_version>
43012

> <i_f3d_flags>
0

> <s_epik_input>
W0NIM11jMVtjSF1jKG4objEpW0NIM10pW05IXUMoPU8pW05IXVtDQEBIXTJbQ0gyXVtDSDJdW0NIMl1bTkhdQzI9Tw==

> <s_epik_cmdline>
J2VwaWtfcHl0aG9uJywgJy1waCcsICc3LjAnLCAnLXRuJywgJzgnLCAnLW1hJywgJzIwMCcsICctbWV0YWxfYmluZGluZycsICctaW1hZScsICc8aW5maWxlLm1hZT4nLCAnLW9tYWUnLCAnPG91dGZpbGUubWFlPic=

> <r_lp_tautomer_probability>
1

> <r_epik_Ionization_Penalty>
8.17286e-05

> <r_epik_Ionization_Penalty_Charging>
0

> <r_epik_Ionization_Penalty_Neutral>
8.17286e-05

> <r_epik_State_Penalty>
-0

> <r_epik_Charging_Adjusted_Penalty>
0

> <i_epik_Tot_Q>
0

> <i_epik_Tot_abs_Q>
0

> <r_epik_Metal_State_Penalty>
-0

> <b_epik_Metal_Only>
0

> <s_lp_Force_Field>
OPLS_2005

> <r_lp_Energy>
10.37

> <b_lp_Chiralities_Consistent>
1

> <s_lp_Variant>
AV-unprocessed.smi:2894-2

> <Gold.Version>
5.8.1

> <Gold.Id.Protein>
6NUR|6NUR_protein|mol2

> <Gold.PLP.Fitness>
43.5864

> <Gold.PLP.PLP>
-35.3631

> <Gold.PLP.part.hbond>
-2.9189

> <Gold.PLP.part.metal>
0.0000

> <Gold.PLP.part.buried>
-4.0257

> <Gold.PLP.part.nonpolar>
-28.4777

> <Gold.PLP.part.repulsive>
0.4190

> <Gold.PLP.ligand.clash>
0.0000

> <Gold.PLP.ligand.torsion>
0.4095

> <Gold.PLP.Chemscore.Hbond>
3.0000

> <Gold.PLP.Chemscore.CHOScore>
0.0000

> <Gold.PLP.Chemscore.Metal>
0.0000

> <Gold.Chemscore.Hbonds>
donor molecule, donor type, donor heavy atom, donor atom, acceptor molecule, acceptor atom, score
      L1  H     8    24       P1  8028  1.00
      L1  H    13    32       P1  7957  0.75
      P1  H  7989  7998       L1    15  0.99

> <Gold.PLP.Chemscore.Internal.Correction>
0.0423

> <Gold.Rescore>
     Score         DG    S(hbond)    S(metal)    S(lipo)     H(rot)  DE(clash)    DE(int)     intcor
     18.80     -20.24       2.91        0.00      64.96       1.00       0.01       1.43       ----

> <Gold.Chemscore.Fitness>
18.7992

> <Gold.Chemscore.DG>
-20.2377

> <Gold.Chemscore.ZeroCoef>
-5.4800

> <Gold.Chemscore.Hbond>
2.9094

> <Gold.Chemscore.Metal>
0.0000

> <Gold.Chemscore.Lipo>
64.9608

> <Gold.Chemscore.Internal_Hbond>
0.0000

> <Gold.Chemscore.DEClash>
0.0111

> <Gold.Chemscore.DEInternal>
1.4274

> <Gold.Chemscore.Rot>
1.0000

> <Gold.Chemscore.Internal.Correction>
   9.000000E+99

> <Gold.Chemscore.Hbonds>
donor molecule, donor type, donor heavy atom, donor atom, acceptor molecule, acceptor atom, score
      L1  H     8    24       P1  8028  1.00
      L1  H    13    32       P1  7957  0.71
      P1  H  7989  7998       L1    15  0.91

> <Gold.Chemscore.Hbond.Weighted>
-9.7173

> <Gold.Chemscore.Metal.Weighted>
-0.0000

> <Gold.Chemscore.Lipo.Weighted>
-7.6004

> <Gold.Chemscore.Internal_Hbond.Weighted>
0.0000

> <Gold.Chemscore.DEClash.Weighted>
0.0111

> <Gold.Chemscore.DEInternal.Weighted>
1.4274

> <Gold.Chemscore.Rot.Weighted>
2.5600

> <Gold.Chemscore.Internal.Correction.Weighted>
   9.000000E+99

> <Gold.Protein.RotatedTorsions>
[ 6907 6896 6895 6894 ] final   28.59 input  -60.11 | X-H torsion
[ 7974 7965 7964 7962 ] final   24.21 input  175.53 | X-H torsion
[ 8008 7997 7996 7995 ] final  158.27 input   59.86 | X-H torsion
[ 10167 10162 10161 10158 ] final -105.23 input  -65.29 | X-H torsion
[ 10718 10713 10712 10709 ] final -112.31 input   66.30 | X-H torsion
[ 10763 10752 10751 10750 ] final  -90.16 input  -60.55 | X-H torsion
[ 11005 11000 10999 10996 ] final -166.72 input  -57.11 | X-H torsion

> <Gold.Protein.ActiveResidues>
 VAL166  LYS551  ARG553  GLY616  TRP617  ASP618  TYR619  PRO620  LYS621  CYS622 
 ASP623  PHE694  ASN695  SER759  ASP760  ASP761  ALA762  ILE779  LEU786  VAL792 
 PHE793  MET794  SER795  GLU796  ALA797  LYS798  CYS799  TRP800  GLU811  SER814 

> <Gold.Protein.RotatedAtoms>
  152.0192  134.9832  160.0569 H   0  0  0  0  0  0  0  0  0  0  0  0  # atno 6907 bound_to 6896
  152.1353  133.4427  159.4749 H   0  0  0  0  0  0  0  0  0  0  0  0  # atno 6908 bound_to 6896
  150.6860  134.2289  159.4469 H   0  0  0  0  0  0  0  0  0  0  0  0  # atno 6909 bound_to 6896
  146.1948  139.7636  142.8805 H   0  0  0  0  0  0  0  0  0  0  0  0  # atno 7974 bound_to 7965
  156.2313  140.1862  156.7236 H   0  0  0  0  0  0  0  0  0  0  0  0  # atno 8008 bound_to 7997
  154.6027  140.0633  156.9417 H   0  0  0  0  0  0  0  0  0  0  0  0  # atno 8009 bound_to 7997
  155.2147  140.3302  155.4326 H   0  0  0  0  0  0  0  0  0  0  0  0  # atno 8010 bound_to 7997
  140.2008  143.3820  152.1131 H   0  0  0  0  0  0  0  0  0  0  0  0  # atno 10167 bound_to 10162
  156.0698  130.5913  150.8491 H   0  0  0  0  0  0  0  0  0  0  0  0  # atno 10718 bound_to 10713
  154.6629  135.5314  153.8040 H   0  0  0  0  0  0  0  0  0  0  0  0  # atno 10763 bound_to 10752
  153.0453  135.6510  154.0844 H   0  0  0  0  0  0  0  0  0  0  0  0  # atno 10764 bound_to 10752
  154.0751  135.2951  155.3281 H   0  0  0  0  0  0  0  0  0  0  0  0  # atno 10765 bound_to 10752
  140.5613  134.5331  157.5143 H   0  0  0  0  0  0  0  0  0  0  0  0  # atno 11005 bound_to 11000
  145.3678  141.0337  143.3248 LP  0  0  0  0  0  0  0  0  0  0  0  0  # atno 17320 bound_to 7965
  144.8558  139.5251  143.6835 LP  0  0  0  0  0  0  0  0  0  0  0  0  # atno 17321 bound_to 7965
  139.5218  144.7051  151.5379 LP  0  0  0  0  0  0  0  0  0  0  0  0  # atno 17342 bound_to 10162
  140.6392  143.8923  150.6675 LP  0  0  0  0  0  0  0  0  0  0  0  0  # atno 17343 bound_to 10162
  157.5762  131.0946  150.9342 LP  0  0  0  0  0  0  0  0  0  0  0  0  # atno 17370 bound_to 10713
  156.9547  130.5433  149.5283 LP  0  0  0  0  0  0  0  0  0  0  0  0  # atno 17371 bound_to 10713
  139.9406  134.7793  156.0687 LP  0  0  0  0  0  0  0  0  0  0  0  0  # atno 17394 bound_to 11000
  141.1113  133.6642  156.2985 LP  0  0  0  0  0  0  0  0  0  0  0  0  # atno 17395 bound_to 11000

$$$$
