AV-unprocessed.smi:1586|AV-procd|sdf|6376|dock3
  -GOLD-   22720 7 03D 1   1.00000     0.00000
 Structure written by MMmdl.
 47 48  0  0  0  0  0  0  0  0  2 V2000
  143.6979  132.1875  149.9644 C   0  0  0  0  0  0  0  0  0  0  0  0
  144.4059  132.2702  151.3246 C   0  0  0  0  0  0  0  0  0  0  0  0
  145.8153  132.6457  151.1881 N   0  0  0  0  0  0  0  0  0  0  0  0
  146.0742  133.7910  150.3145 C   0  0  0  0  0  0  0  0  0  0  0  0
  145.5516  135.1156  150.9080 C   0  0  0  0  0  0  0  0  0  0  0  0
  146.1430  135.3914  152.2484 N   0  3  0  0  0  0  0  0  0  0  0  0
  145.6872  136.6828  152.8654 C   0  0  1  0  0  0  0  0  0  0  0  0
  146.1202  136.7859  154.3492 C   0  0  0  0  0  0  0  0  0  0  0  0
  146.1849  137.9243  152.0770 C   0  0  0  0  0  0  0  0  0  0  0  0
  147.5339  138.3241  152.4661 N   0  0  0  0  0  0  0  0  0  0  0  0
  147.8286  139.1060  153.5138 C   0  0  0  0  0  0  0  0  0  0  0  0
  146.9795  139.5656  154.2779 O   0  0  0  0  0  0  0  0  0  0  0  0
  149.1528  139.3135  153.6098 N   0  0  0  0  0  0  0  0  0  0  0  0
  149.8370  140.1072  154.5653 C   0  0  0  0  0  0  0  0  0  0  0  0
  149.1402  141.0645  155.3494 C   0  0  0  0  0  0  0  0  0  0  0  0
  150.1262  141.5996  156.1294 C   0  0  0  0  0  0  0  0  0  0  0  0
  150.1253  142.6513  157.1856 C   0  0  0  0  0  0  0  0  0  0  0  0
  151.3233  141.0177  155.8455 O   0  0  0  0  0  0  0  0  0  0  0  0
  151.1314  140.0619  154.8406 N   0  0  0  0  0  0  0  0  0  0  0  0
  145.9370  134.2069  153.1302 C   0  0  0  0  0  0  0  0  0  0  0  0
  146.4535  132.9084  152.4764 C   0  0  0  0  0  0  0  0  0  0  0  0
  142.6932  131.7817  150.0832 H   0  0  0  0  0  0  0  0  0  0  0  0
  144.2367  131.5355  149.2760 H   0  0  0  0  0  0  0  0  0  0  0  0
  143.5950  133.1660  149.4963 H   0  0  0  0  0  0  0  0  0  0  0  0
  143.8687  132.9486  151.9862 H   0  0  0  0  0  0  0  0  0  0  0  0
  144.3580  131.2844  151.7891 H   0  0  0  0  0  0  0  0  0  0  0  0
  147.1511  133.8668  150.1572 H   0  0  0  0  0  0  0  0  0  0  0  0
  145.6434  133.6224  149.3281 H   0  0  0  0  0  0  0  0  0  0  0  0
  145.8318  135.8933  150.2003 H   0  0  0  0  0  0  0  0  0  0  0  0
  144.4627  135.1203  150.9676 H   0  0  0  0  0  0  0  0  0  0  0  0
  144.5961  136.6911  152.8358 H   0  0  0  0  0  0  0  0  0  0  0  0
  145.8655  137.7494  154.7892 H   0  0  0  0  0  0  0  0  0  0  0  0
  147.1977  136.6552  154.4559 H   0  0  0  0  0  0  0  0  0  0  0  0
  145.6245  136.0486  154.9790 H   0  0  0  0  0  0  0  0  0  0  0  0
  146.1403  137.7198  151.0056 H   0  0  0  0  0  0  0  0  0  0  0  0
  145.5612  138.7967  152.2671 H   0  0  0  0  0  0  0  0  0  0  0  0
  148.2946  137.9869  151.8942 H   0  0  0  0  0  0  0  0  0  0  0  0
  149.7349  138.8652  152.9180 H   0  0  0  0  0  0  0  0  0  0  0  0
  148.0905  141.3185  155.3445 H   0  0  0  0  0  0  0  0  0  0  0  0
  149.2134  143.2470  157.1406 H   0  0  0  0  0  0  0  0  0  0  0  0
  150.9743  143.3242  157.0645 H   0  0  0  0  0  0  0  0  0  0  0  0
  150.1872  142.2022  158.1769 H   0  0  0  0  0  0  0  0  0  0  0  0
  146.4888  134.3219  154.0609 H   0  0  0  0  0  0  0  0  0  0  0  0
  144.8839  134.1189  153.3998 H   0  0  0  0  0  0  0  0  0  0  0  0
  146.2941  132.0602  153.1433 H   0  0  0  0  0  0  0  0  0  0  0  0
  147.5319  132.9783  152.3260 H   0  0  0  0  0  0  0  0  0  0  0  0
  147.1397  135.4735  152.1063 H   0  0  0  0  0  0  0  0  0  0  0  0
  1  2  1  0  0  0  0
  1 22  1  0  0  0  0
  1 23  1  0  0  0  0
  1 24  1  0  0  0  0
  2  3  1  0  0  0  0
  2 25  1  0  0  0  0
  2 26  1  0  0  0  0
  3 21  1  0  0  0  0
  3  4  1  0  0  0  0
  4  5  1  0  0  0  0
  4 27  1  0  0  0  0
  4 28  1  0  0  0  0
  5  6  1  0  0  0  0
  5 29  1  0  0  0  0
  5 30  1  0  0  0  0
  6  7  1  0  0  0  0
  6 20  1  0  0  0  0
  6 47  1  0  0  0  0
  7  8  1  0  0  0  0
  7  9  1  0  0  0  0
  7 31  1  0  0  0  0
  8 32  1  0  0  0  0
  8 33  1  0  0  0  0
  8 34  1  0  0  0  0
  9 10  1  0  0  0  0
  9 35  1  0  0  0  0
  9 36  1  0  0  0  0
 10 11  1  0  0  0  0
 10 37  1  0  0  0  0
 11 12  2  0  0  0  0
 11 13  1  0  0  0  0
 13 14  1  0  0  0  0
 13 38  1  0  0  0  0
 14 19  2  0  0  0  0
 14 15  1  0  0  0  0
 15 16  2  0  0  0  0
 15 39  1  0  0  0  0
 16 17  1  0  0  0  0
 16 18  1  0  0  0  0
 17 40  1  0  0  0  0
 17 41  1  0  0  0  0
 17 42  1  0  0  0  0
 18 19  1  0  0  0  0
 20 21  1  0  0  0  0
 20 43  1  0  0  0  0
 20 44  1  0  0  0  0
 21 45  1  0  0  0  0
 21 46  1  0  0  0  0
M  CHG  1   6   1
M  END
> <s_m_source_file>
AV-unprocessed.smi

> <i_m_source_file_index>
1586

> <i_lp_mmshare_version>
43012

> <i_f3d_flags>
0

> <s_epik_input>
W0NIM11bQ0gyXU4xW0NIMl1bQ0gyXU4oW0NIMl1bQ0gyXTEpW0NASF0oW0NIM10pW0NIMl1bTkhdQyg9TylbTkhdYzJbY0hdYyhbQ0gzXSlvbjI=

> <s_epik_cmdline>
J2VwaWtfcHl0aG9uJywgJy1waCcsICc3LjAnLCAnLXRuJywgJzgnLCAnLW1hJywgJzIwMCcsICctbWV0YWxfYmluZGluZycsICctaW1hZScsICc8aW5maWxlLm1hZT4nLCAnLW9tYWUnLCAnPG91dGZpbGUubWFlPic=

> <r_epik_Ionization_Penalty>
0.153363

> <r_epik_Ionization_Penalty_Charging>
0.151842

> <r_epik_Ionization_Penalty_Neutral>
0.00152029

> <r_epik_State_Penalty>
0.985235

> <r_epik_Charging_Adjusted_Penalty>
1.13708

> <i_epik_Tot_Q>
1

> <i_epik_Tot_abs_Q>
1

> <r_epik_Metal_State_Penalty>
0.996168

> <b_epik_Metal_Only>
0

> <s_lp_Force_Field>
OPLS_2005

> <r_lp_Energy>
21.483

> <b_lp_Chiralities_Consistent>
1

> <s_lp_Variant>
AV-unprocessed.smi:1586-4

> <Gold.Version>
5.8.1

> <Gold.Id.Protein>
6NUR|6NUR_protein|mol2

> <Gold.PLP.Fitness>
41.9389

> <Gold.PLP.PLP>
-31.8538

> <Gold.PLP.part.hbond>
-5.6175

> <Gold.PLP.part.metal>
0.0000

> <Gold.PLP.part.buried>
-2.3219

> <Gold.PLP.part.nonpolar>
-25.2407

> <Gold.PLP.part.repulsive>
0.4683

> <Gold.PLP.ligand.clash>
0.0023

> <Gold.PLP.ligand.torsion>
0.6558

> <Gold.PLP.Chemscore.Hbond>
3.7768

> <Gold.PLP.Chemscore.CHOScore>
0.0000

> <Gold.PLP.Chemscore.Metal>
0.0000

> <Gold.Chemscore.Hbonds>
donor molecule, donor type, donor heavy atom, donor atom, acceptor molecule, acceptor atom, score
      L1  H     6    47       P1  7948  2.00
      L1  H    10    37       P1  7948  0.56
      L1  H    13    38       P1  7957  0.13
      P1  H  7989  7998       L1    19  0.85

> <Gold.PLP.Chemscore.Internal.Correction>
0.0686

> <Gold.Rescore>
     Score         DG    S(hbond)    S(metal)    S(lipo)     H(rot)  DE(clash)    DE(int)     intcor
     12.82     -17.29       2.67        0.00      63.40       1.76       0.11       4.35       ----

> <Gold.Chemscore.Fitness>
12.8181

> <Gold.Chemscore.DG>
-17.2853

> <Gold.Chemscore.ZeroCoef>
-5.4800

> <Gold.Chemscore.Hbond>
2.6655

> <Gold.Chemscore.Metal>
0.0000

> <Gold.Chemscore.Lipo>
63.3987

> <Gold.Chemscore.Internal_Hbond>
0.0000

> <Gold.Chemscore.DEClash>
0.1128

> <Gold.Chemscore.DEInternal>
4.3544

> <Gold.Chemscore.Rot>
1.7637

> <Gold.Chemscore.Internal.Correction>
   9.000000E+99

> <Gold.Chemscore.Hbonds>
donor molecule, donor type, donor heavy atom, donor atom, acceptor molecule, acceptor atom, score
      L1  H     6    47       P1  7948  0.99
      L1  H    10    37       P1  7948  0.56
      L1  H    13    38       P1  7957  0.12
      P1  H  7989  7998       L1    19  0.05

> <Gold.Chemscore.Hbond.Weighted>
-8.9027

> <Gold.Chemscore.Metal.Weighted>
-0.0000

> <Gold.Chemscore.Lipo.Weighted>
-7.4176

> <Gold.Chemscore.Internal_Hbond.Weighted>
0.0000

> <Gold.Chemscore.DEClash.Weighted>
0.1128

> <Gold.Chemscore.DEInternal.Weighted>
4.3544

> <Gold.Chemscore.Rot.Weighted>
4.5150

> <Gold.Chemscore.Internal.Correction.Weighted>
   9.000000E+99

> <Gold.Protein.RotatedTorsions>
[ 6907 6896 6895 6894 ] final  163.83 input  -60.11 | X-H torsion
[ 7974 7965 7964 7962 ] final  172.37 input  175.53 | X-H torsion
[ 8008 7997 7996 7995 ] final   91.74 input   59.86 | X-H torsion
[ 10167 10162 10161 10158 ] final   -3.78 input  -65.29 | X-H torsion
[ 10718 10713 10712 10709 ] final -150.22 input   66.30 | X-H torsion
[ 10763 10752 10751 10750 ] final   37.52 input  -60.55 | X-H torsion
[ 11005 11000 10999 10996 ] final   43.31 input  -57.11 | X-H torsion

> <Gold.Protein.ActiveResidues>
 VAL166  LYS551  ARG553  GLY616  TRP617  ASP618  TYR619  PRO620  LYS621  CYS622 
 ASP623  PHE694  ASN695  SER759  ASP760  ASP761  ALA762  ILE779  LEU786  VAL792 
 PHE793  MET794  SER795  GLU796  ALA797  LYS798  CYS799  TRP800  GLU811  SER814 

> <Gold.Protein.RotatedAtoms>
  151.9192  133.3581  159.3890 H   0  0  0  0  0  0  0  0  0  0  0  0  # atno 6907 bound_to 6896
  150.7041  134.4652  159.5409 H   0  0  0  0  0  0  0  0  0  0  0  0  # atno 6908 bound_to 6896
  152.2273  134.8356  160.0529 H   0  0  0  0  0  0  0  0  0  0  0  0  # atno 6909 bound_to 6896
  144.7270  139.9489  143.6431 H   0  0  0  0  0  0  0  0  0  0  0  0  # atno 7974 bound_to 7965
  156.0273  140.3334  155.7102 H   0  0  0  0  0  0  0  0  0  0  0  0  # atno 8008 bound_to 7997
  155.5936  140.0648  157.2770 H   0  0  0  0  0  0  0  0  0  0  0  0  # atno 8009 bound_to 7997
  154.4339  140.1823  156.1088 H   0  0  0  0  0  0  0  0  0  0  0  0  # atno 8010 bound_to 7997
  140.6903  143.6500  150.8359 H   0  0  0  0  0  0  0  0  0  0  0  0  # atno 10167 bound_to 10162
  156.4432  130.8132  151.2362 H   0  0  0  0  0  0  0  0  0  0  0  0  # atno 10718 bound_to 10713
  153.0035  135.6275  154.2157 H   0  0  0  0  0  0  0  0  0  0  0  0  # atno 10763 bound_to 10752
  154.1900  135.2809  155.3026 H   0  0  0  0  0  0  0  0  0  0  0  0  # atno 10764 bound_to 10752
  154.5767  135.5660  153.7205 H   0  0  0  0  0  0  0  0  0  0  0  0  # atno 10765 bound_to 10752
  140.1657  134.4285  155.8289 H   0  0  0  0  0  0  0  0  0  0  0  0  # atno 11005 bound_to 11000
  146.0727  139.3715  143.0513 LP  0  0  0  0  0  0  0  0  0  0  0  0  # atno 17320 bound_to 7965
  145.7947  140.9798  143.1030 LP  0  0  0  0  0  0  0  0  0  0  0  0  # atno 17321 bound_to 7965
  140.0212  143.5540  152.2799 LP  0  0  0  0  0  0  0  0  0  0  0  0  # atno 17342 bound_to 10162
  139.6299  144.7643  151.2558 LP  0  0  0  0  0  0  0  0  0  0  0  0  # atno 17343 bound_to 10162
  157.7505  131.0161  150.3532 LP  0  0  0  0  0  0  0  0  0  0  0  0  # atno 17370 bound_to 10713
  156.3895  130.3895  149.7041 LP  0  0  0  0  0  0  0  0  0  0  0  0  # atno 17371 bound_to 10713
  141.2213  133.6933  156.7674 LP  0  0  0  0  0  0  0  0  0  0  0  0  # atno 17394 bound_to 11000
  140.2437  134.8594  157.3598 LP  0  0  0  0  0  0  0  0  0  0  0  0  # atno 17395 bound_to 11000

$$$$
