AV-unprocessed.smi:1048|AV-procd|sdf|4604|dock2
  -GOLD-   22720 3 93D 1   1.00000     0.00000
 Structure written by MMmdl.
 46 47  0  0  0  0  0  0  0  0  2 V2000
  144.7399  133.6960  152.1219 C   0  0  0  0  0  0  0  0  0  0  0  0
  144.8938  135.2185  152.0001 C   0  0  2  0  0  0  0  0  0  0  0  0
  145.8135  135.6072  150.8300 C   0  0  0  0  0  0  0  0  0  0  0  0
  145.9858  137.1327  150.7371 C   0  0  0  0  0  0  0  0  0  0  0  0
  146.5028  137.6928  152.0138 N   0  3  1  0  0  0  0  0  0  0  0  0
  146.8121  139.1438  151.9357 C   0  0  0  0  0  0  0  0  0  0  0  0
  147.3102  139.7124  153.2802 C   0  0  2  0  0  0  0  0  0  0  0  0
  146.3229  140.6180  153.7331 O   0  0  0  0  0  0  0  0  0  0  0  0
  148.6382  140.4795  153.1136 C   0  0  0  0  0  0  0  0  0  0  0  0
  148.9242  141.3347  154.2611 N   0  0  0  0  0  0  0  0  0  0  0  0
  150.0194  141.2517  155.0293 C   0  0  0  0  0  0  0  0  0  0  0  0
  150.9266  140.4449  154.8291 O   0  0  0  0  0  0  0  0  0  0  0  0
  149.9977  142.1704  156.0096 N   0  0  0  0  0  0  0  0  0  0  0  0
  150.9491  142.3793  157.0445 C   0  0  0  0  0  0  0  0  0  0  0  0
  151.6940  141.2692  157.4931 C   0  0  0  0  0  0  0  0  0  0  0  0
  152.6587  141.4521  158.5020 C   0  0  0  0  0  0  0  0  0  0  0  0
  152.8489  142.7480  159.0193 C   0  0  0  0  0  0  0  0  0  0  0  0
  152.1558  143.8243  158.5918 N   0  0  0  0  0  0  0  0  0  0  0  0
  151.2302  143.6412  157.6255 C   0  0  0  0  0  0  0  0  0  0  0  0
  145.6108  137.3633  153.1546 C   0  0  0  0  0  0  0  0  0  0  0  0
  145.4342  135.8422  153.2979 C   0  0  0  0  0  0  0  0  0  0  0  0
  145.6981  133.2134  152.3171 H   0  0  0  0  0  0  0  0  0  0  0  0
  144.3326  133.2686  151.2052 H   0  0  0  0  0  0  0  0  0  0  0  0
  144.0637  133.4339  152.9361 H   0  0  0  0  0  0  0  0  0  0  0  0
  143.9045  135.6370  151.8085 H   0  0  0  0  0  0  0  0  0  0  0  0
  146.7905  135.1376  150.9537 H   0  0  0  0  0  0  0  0  0  0  0  0
  145.4051  135.2272  149.8928 H   0  0  0  0  0  0  0  0  0  0  0  0
  146.6670  137.3629  149.9187 H   0  0  0  0  0  0  0  0  0  0  0  0
  145.0313  137.6017  150.4929 H   0  0  0  0  0  0  0  0  0  0  0  0
  147.5485  139.3107  151.1481 H   0  0  0  0  0  0  0  0  0  0  0  0
  145.9215  139.6992  151.6361 H   0  0  0  0  0  0  0  0  0  0  0  0
  147.4359  138.9138  154.0115 H   0  0  0  0  0  0  0  0  0  0  0  0
  145.4735  140.2916  153.4732 H   0  0  0  0  0  0  0  0  0  0  0  0
  149.4633  139.7687  153.0612 H   0  0  0  0  0  0  0  0  0  0  0  0
  148.6664  141.0408  152.1775 H   0  0  0  0  0  0  0  0  0  0  0  0
  148.2307  142.0299  154.4959 H   0  0  0  0  0  0  0  0  0  0  0  0
  149.2289  142.8243  155.9908 H   0  0  0  0  0  0  0  0  0  0  0  0
  151.5280  140.2874  157.0744 H   0  0  0  0  0  0  0  0  0  0  0  0
  153.2401  140.6195  158.8695 H   0  0  0  0  0  0  0  0  0  0  0  0
  153.5819  142.9256  159.7922 H   0  0  0  0  0  0  0  0  0  0  0  0
  150.7291  144.5418  157.3070 H   0  0  0  0  0  0  0  0  0  0  0  0
  146.0324  137.7603  154.0789 H   0  0  0  0  0  0  0  0  0  0  0  0
  144.6425  137.8457  153.0132 H   0  0  0  0  0  0  0  0  0  0  0  0
  144.7573  135.6284  154.1257 H   0  0  0  0  0  0  0  0  0  0  0  0
  146.3918  135.3880  153.5575 H   0  0  0  0  0  0  0  0  0  0  0  0
  147.3812  137.2320  152.2064 H   0  0  0  0  0  0  0  0  0  0  0  0
  1  2  1  0  0  0  0
  1 22  1  0  0  0  0
  1 23  1  0  0  0  0
  1 24  1  0  0  0  0
  2 21  1  0  0  0  0
  2  3  1  0  0  0  0
  2 25  1  0  0  0  0
  3  4  1  0  0  0  0
  3 26  1  0  0  0  0
  3 27  1  0  0  0  0
  4  5  1  0  0  0  0
  4 28  1  0  0  0  0
  4 29  1  0  0  0  0
  5  6  1  0  0  0  0
  5 20  1  0  0  0  0
  5 46  1  0  0  0  0
  6  7  1  0  0  0  0
  6 30  1  0  0  0  0
  6 31  1  0  0  0  0
  7  8  1  0  0  0  0
  7  9  1  0  0  0  0
  7 32  1  0  0  0  0
  8 33  1  0  0  0  0
  9 10  1  0  0  0  0
  9 34  1  0  0  0  0
  9 35  1  0  0  0  0
 10 11  1  0  0  0  0
 10 36  1  0  0  0  0
 11 12  2  0  0  0  0
 11 13  1  0  0  0  0
 13 14  1  0  0  0  0
 13 37  1  0  0  0  0
 14 19  1  0  0  0  0
 14 15  2  0  0  0  0
 15 16  1  0  0  0  0
 15 38  1  0  0  0  0
 16 17  2  0  0  0  0
 16 39  1  0  0  0  0
 17 18  1  0  0  0  0
 17 40  1  0  0  0  0
 18 19  2  0  0  0  0
 19 41  1  0  0  0  0
 20 21  1  0  0  0  0
 20 42  1  0  0  0  0
 20 43  1  0  0  0  0
 21 44  1  0  0  0  0
 21 45  1  0  0  0  0
M  CHG  1   5   1
M  END
> <s_m_source_file>
AV-unprocessed.smi

> <i_m_source_file_index>
1048

> <i_lp_mmshare_version>
43012

> <i_f3d_flags>
0

> <s_epik_input>
W0NIM11bQ0hdMVtDSDJdW0NIMl1OKFtDSDJdW0NIMl0xKVtDSDJdW0NASF0oW09IXSlbQ0gyXVtOSF1DKD1PKVtOSF1jMltjSF1bY0hdW2NIXW5bY0hdMg==

> <s_epik_cmdline>
J2VwaWtfcHl0aG9uJywgJy1waCcsICc3LjAnLCAnLXRuJywgJzgnLCAnLW1hJywgJzIwMCcsICctbWV0YWxfYmluZGluZycsICctaW1hZScsICc8aW5maWxlLm1hZT4nLCAnLW9tYWUnLCAnPG91dGZpbGUubWFlPic=

> <r_lp_tautomer_probability>
1

> <r_epik_Ionization_Penalty>
0.00581049

> <r_epik_Ionization_Penalty_Charging>
0.00147689

> <r_epik_Ionization_Penalty_Neutral>
0.0043336

> <r_epik_State_Penalty>
-0

> <r_epik_Charging_Adjusted_Penalty>
0.00147689

> <i_epik_Tot_Q>
1

> <i_epik_Tot_abs_Q>
1

> <r_epik_Metal_State_Penalty>
-0

> <b_epik_Metal_Only>
0

> <s_lp_Force_Field>
OPLS_2005

> <r_lp_Energy>
22.5683

> <b_lp_Chiralities_Consistent>
1

> <s_lp_Variant>
AV-unprocessed.smi:1048-1

> <Gold.Version>
5.8.1

> <Gold.Id.Protein>
6NUR|6NUR_protein|mol2

> <Gold.PLP.Fitness>
51.1864

> <Gold.PLP.PLP>
-35.5906

> <Gold.PLP.part.hbond>
-4.0000

> <Gold.PLP.part.metal>
0.0000

> <Gold.PLP.part.buried>
4.9897

> <Gold.PLP.part.nonpolar>
-36.4464

> <Gold.PLP.part.repulsive>
0.4491

> <Gold.PLP.ligand.clash>
0.0000

> <Gold.PLP.ligand.torsion>
1.0454

> <Gold.PLP.Chemscore.Hbond>
4.9120

> <Gold.PLP.Chemscore.CHOScore>
0.9659

> <Gold.PLP.Chemscore.Metal>
0.0000

> <Gold.Chemscore.Hbonds>
donor molecule, donor type, donor heavy atom, donor atom, acceptor molecule, acceptor atom, score
      L1  H     5    46       P1  7948  2.00
      L1  H     8    33       P1 10175  0.93
      L1  H    13    37       P1  8028  0.80
      P1  H  7989  7998       L1    12  1.00
      L1  C    19    41       P1  8028  0.97

> <Gold.PLP.Chemscore.Internal.Correction>
0.0528

> <Gold.Rescore>
     Score         DG    S(hbond)    S(metal)    S(lipo)     H(rot)  DE(clash)    DE(int)     intcor
     16.91     -23.30       3.41        0.00     104.90       2.29       4.00       2.40       ----

> <Gold.Chemscore.Fitness>
16.9051

> <Gold.Chemscore.DG>
-23.3031

> <Gold.Chemscore.ZeroCoef>
-5.4800

> <Gold.Chemscore.Hbond>
3.4143

> <Gold.Chemscore.Metal>
0.0000

> <Gold.Chemscore.Lipo>
104.8972

> <Gold.Chemscore.Internal_Hbond>
0.0000

> <Gold.Chemscore.DEClash>
4.0004

> <Gold.Chemscore.DEInternal>
2.3977

> <Gold.Chemscore.Rot>
2.2865

> <Gold.Chemscore.Internal.Correction>
   9.000000E+99

> <Gold.Chemscore.Hbonds>
donor molecule, donor type, donor heavy atom, donor atom, acceptor molecule, acceptor atom, score
      L1  H     5    46       P1  7948  0.99
      L1  H     8    33       P1 10175  0.85
      L1  H    13    37       P1  8028  0.79
      P1  H  7989  7998       L1    12  0.57

> <Gold.Chemscore.Hbond.Weighted>
-11.4037

> <Gold.Chemscore.Metal.Weighted>
-0.0000

> <Gold.Chemscore.Lipo.Weighted>
-12.2730

> <Gold.Chemscore.Internal_Hbond.Weighted>
0.0000

> <Gold.Chemscore.DEClash.Weighted>
4.0004

> <Gold.Chemscore.DEInternal.Weighted>
2.3977

> <Gold.Chemscore.Rot.Weighted>
5.8536

> <Gold.Chemscore.Internal.Correction.Weighted>
   9.000000E+99

> <Gold.Protein.RotatedTorsions>
[ 6907 6896 6895 6894 ] final -137.60 input  -60.11 | X-H torsion
[ 7974 7965 7964 7962 ] final  -51.83 input  175.53 | X-H torsion
[ 8008 7997 7996 7995 ] final  165.28 input   59.86 | X-H torsion
[ 10167 10162 10161 10158 ] final  -85.80 input  -65.29 | X-H torsion
[ 10718 10713 10712 10709 ] final  -81.26 input   66.30 | X-H torsion
[ 10763 10752 10751 10750 ] final -173.71 input  -60.55 | X-H torsion
[ 11005 11000 10999 10996 ] final -122.19 input  -57.11 | X-H torsion

> <Gold.Protein.ActiveResidues>
 VAL166  LYS551  ARG553  GLY616  TRP617  ASP618  TYR619  PRO620  LYS621  CYS622 
 ASP623  PHE694  ASN695  SER759  ASP760  ASP761  ALA762  ILE779  LEU786  VAL792 
 PHE793  MET794  SER795  GLU796  ALA797  LYS798  CYS799  TRP800  GLU811  SER814 

> <Gold.Protein.RotatedAtoms>
  151.0245  133.5846  159.2667 H   0  0  0  0  0  0  0  0  0  0  0  0  # atno 6907 bound_to 6896
  151.2950  135.0752  159.9228 H   0  0  0  0  0  0  0  0  0  0  0  0  # atno 6908 bound_to 6896
  152.5331  133.9937  159.7917 H   0  0  0  0  0  0  0  0  0  0  0  0  # atno 6909 bound_to 6896
  145.9146  140.7886  142.9678 H   0  0  0  0  0  0  0  0  0  0  0  0  # atno 7974 bound_to 7965
  156.1813  140.1674  156.8268 H   0  0  0  0  0  0  0  0  0  0  0  0  # atno 8008 bound_to 7997
  154.5363  140.0746  156.8467 H   0  0  0  0  0  0  0  0  0  0  0  0  # atno 8009 bound_to 7997
  155.3304  140.3378  155.4242 H   0  0  0  0  0  0  0  0  0  0  0  0  # atno 8010 bound_to 7997
  140.4002  143.2666  151.9152 H   0  0  0  0  0  0  0  0  0  0  0  0  # atno 10167 bound_to 10162
  156.0054  130.4598  150.3925 H   0  0  0  0  0  0  0  0  0  0  0  0  # atno 10718 bound_to 10713
  154.6047  135.2858  155.0498 H   0  0  0  0  0  0  0  0  0  0  0  0  # atno 10763 bound_to 10752
  154.1750  135.6466  153.5023 H   0  0  0  0  0  0  0  0  0  0  0  0  # atno 10764 bound_to 10752
  153.0170  135.5410  154.6778 H   0  0  0  0  0  0  0  0  0  0  0  0  # atno 10765 bound_to 10752
  141.0014  134.0397  157.3533 H   0  0  0  0  0  0  0  0  0  0  0  0  # atno 11005 bound_to 11000
  144.6746  140.1880  143.7399 LP  0  0  0  0  0  0  0  0  0  0  0  0  # atno 17320 bound_to 7965
  145.8627  139.2231  143.1707 LP  0  0  0  0  0  0  0  0  0  0  0  0  # atno 17321 bound_to 7965
  139.4785  144.5641  151.8193 LP  0  0  0  0  0  0  0  0  0  0  0  0  # atno 17342 bound_to 10162
  140.4748  144.1535  150.5923 LP  0  0  0  0  0  0  0  0  0  0  0  0  # atno 17343 bound_to 10162
  157.1998  131.0435  151.2656 LP  0  0  0  0  0  0  0  0  0  0  0  0  # atno 17370 bound_to 10713
  157.3985  130.7320  149.6750 LP  0  0  0  0  0  0  0  0  0  0  0  0  # atno 17371 bound_to 10713
  139.9040  135.0174  156.7403 LP  0  0  0  0  0  0  0  0  0  0  0  0  # atno 17394 bound_to 11000
  140.6883  133.9413  155.7951 LP  0  0  0  0  0  0  0  0  0  0  0  0  # atno 17395 bound_to 11000

$$$$
