AV-unprocessed.smi:2583|AV-procd|sdf|10135|dock3
  -GOLD-   2272014143D 1   1.00000     0.00000
 Structure written by MMmdl.
 55 57  0  0  0  0  0  0  0  0  3 V2000
  152.7678  141.3289  160.2361 C   0  0  0  0  0  0  0  0  0  0  0  0
  152.2193  142.2275  159.1476 C   0  0  0  0  0  0  0  0  0  0  0  0
  152.5595  143.5950  159.0932 C   0  0  0  0  0  0  0  0  0  0  0  0
  152.0842  144.4389  158.1536 N   0  0  0  0  0  0  0  0  0  0  0  0
  151.2462  143.9392  157.2207 C   0  0  0  0  0  0  0  0  0  0  0  0
  150.8502  142.5860  157.1687 C   0  0  0  0  0  0  0  0  0  0  0  0
  149.9438  142.1930  156.1477 N   0  0  0  0  0  0  0  0  0  0  0  0
  149.6340  140.9499  155.7422 C   0  0  0  0  0  0  0  0  0  0  0  0
  150.1642  139.9160  156.1488 O   0  0  0  0  0  0  0  0  0  0  0  0
  148.6745  140.9700  154.8057 N   0  0  0  0  0  0  0  0  0  0  0  0
  148.1040  139.7906  154.1616 C   0  0  2  0  0  0  0  0  0  0  0  0
  147.6303  140.1222  152.7388 C   0  0  0  0  0  0  0  0  0  0  0  0
  146.9526  138.9051  152.0895 C   0  0  0  0  0  0  0  0  0  0  0  0
  145.8022  138.4100  152.8998 N   0  3  1  0  0  0  0  0  0  0  0  0
  145.0308  137.3427  152.1816 C   0  0  2  0  0  0  0  0  0  0  0  0
  144.0011  136.6882  153.1316 C   0  0  0  0  0  0  0  0  0  0  0  0
  143.1790  135.5942  152.4285 C   0  0  0  0  0  0  0  0  0  0  0  0
  144.0598  134.5514  151.8504 N   0  3  1  0  0  0  0  0  0  0  0  0
  143.2956  133.4305  151.2617 C   0  0  0  0  0  0  0  0  0  0  0  0
  145.0394  135.1286  150.8997 C   0  0  0  0  0  0  0  0  0  0  0  0
  145.8988  136.2112  151.5756 C   0  0  0  0  0  0  0  0  0  0  0  0
  146.2406  138.0717  154.2855 C   0  0  0  0  0  0  0  0  0  0  0  0
  146.9141  139.2696  154.9774 C   0  0  0  0  0  0  0  0  0  0  0  0
  151.3458  141.7142  158.1680 C   0  0  0  0  0  0  0  0  0  0  0  0
  153.5245  141.8422  160.8303 H   0  0  0  0  0  0  0  0  0  0  0  0
  153.2227  140.4391  159.8001 H   0  0  0  0  0  0  0  0  0  0  0  0
  151.9654  141.0132  160.9032 H   0  0  0  0  0  0  0  0  0  0  0  0
  153.2245  144.0275  159.8264 H   0  0  0  0  0  0  0  0  0  0  0  0
  150.8820  144.6447  156.4883 H   0  0  0  0  0  0  0  0  0  0  0  0
  149.5016  142.9503  155.6476 H   0  0  0  0  0  0  0  0  0  0  0  0
  148.3065  141.8673  154.5253 H   0  0  0  0  0  0  0  0  0  0  0  0
  148.8556  138.9999  154.1132 H   0  0  0  0  0  0  0  0  0  0  0  0
  146.9319  140.9605  152.7615 H   0  0  0  0  0  0  0  0  0  0  0  0
  148.4758  140.4406  152.1272 H   0  0  0  0  0  0  0  0  0  0  0  0
  146.6285  139.1862  151.0888 H   0  0  0  0  0  0  0  0  0  0  0  0
  147.6806  138.1019  151.9648 H   0  0  0  0  0  0  0  0  0  0  0  0
  144.4987  137.8153  151.3536 H   0  0  0  0  0  0  0  0  0  0  0  0
  144.5180  136.2554  153.9897 H   0  0  0  0  0  0  0  0  0  0  0  0
  143.3112  137.4278  153.5355 H   0  0  0  0  0  0  0  0  0  0  0  0
  142.4958  135.1364  153.1452 H   0  0  0  0  0  0  0  0  0  0  0  0
  142.5645  136.0339  151.6410 H   0  0  0  0  0  0  0  0  0  0  0  0
  142.6844  133.7694  150.4242 H   0  0  0  0  0  0  0  0  0  0  0  0
  142.6375  132.9804  152.0058 H   0  0  0  0  0  0  0  0  0  0  0  0
  143.9689  132.6523  150.9009 H   0  0  0  0  0  0  0  0  0  0  0  0
  145.6864  134.3374  150.5185 H   0  0  0  0  0  0  0  0  0  0  0  0
  144.5128  135.5479  150.0406 H   0  0  0  0  0  0  0  0  0  0  0  0
  146.5816  136.6078  150.8237 H   0  0  0  0  0  0  0  0  0  0  0  0
  146.5116  135.7509  152.3521 H   0  0  0  0  0  0  0  0  0  0  0  0
  145.3894  137.7903  154.9041 H   0  0  0  0  0  0  0  0  0  0  0  0
  146.9199  137.2180  154.2586 H   0  0  0  0  0  0  0  0  0  0  0  0
  147.2450  138.9782  155.9751 H   0  0  0  0  0  0  0  0  0  0  0  0
  146.1809  140.0659  155.1158 H   0  0  0  0  0  0  0  0  0  0  0  0
  151.0600  140.6745  158.2110 H   0  0  0  0  0  0  0  0  0  0  0  0
  145.1662  139.1878  153.0047 H   0  0  0  0  0  0  0  0  0  0  0  0
  144.5918  134.1612  152.6156 H   0  0  0  0  0  0  0  0  0  0  0  0
  1  2  1  0  0  0  0
  1 25  1  0  0  0  0
  1 26  1  0  0  0  0
  1 27  1  0  0  0  0
  2 24  1  0  0  0  0
  2  3  2  0  0  0  0
  3  4  1  0  0  0  0
  3 28  1  0  0  0  0
  4  5  2  0  0  0  0
  5  6  1  0  0  0  0
  5 29  1  0  0  0  0
  6  7  1  0  0  0  0
  6 24  2  0  0  0  0
  7  8  1  0  0  0  0
  7 30  1  0  0  0  0
  8  9  2  0  0  0  0
  8 10  1  0  0  0  0
 10 11  1  0  0  0  0
 10 31  1  0  0  0  0
 11 23  1  0  0  0  0
 11 12  1  0  0  0  0
 11 32  1  0  0  0  0
 12 13  1  0  0  0  0
 12 33  1  0  0  0  0
 12 34  1  0  0  0  0
 13 14  1  0  0  0  0
 13 35  1  0  0  0  0
 13 36  1  0  0  0  0
 14 15  1  0  0  0  0
 14 22  1  0  0  0  0
 14 54  1  0  0  0  0
 15 21  1  0  0  0  0
 15 16  1  0  0  0  0
 15 37  1  0  0  0  0
 16 17  1  0  0  0  0
 16 38  1  0  0  0  0
 16 39  1  0  0  0  0
 17 18  1  0  0  0  0
 17 40  1  0  0  0  0
 17 41  1  0  0  0  0
 18 19  1  0  0  0  0
 18 20  1  0  0  0  0
 18 55  1  0  0  0  0
 19 42  1  0  0  0  0
 19 43  1  0  0  0  0
 19 44  1  0  0  0  0
 20 21  1  0  0  0  0
 20 45  1  0  0  0  0
 20 46  1  0  0  0  0
 21 47  1  0  0  0  0
 21 48  1  0  0  0  0
 22 23  1  0  0  0  0
 22 49  1  0  0  0  0
 22 50  1  0  0  0  0
 23 51  1  0  0  0  0
 23 52  1  0  0  0  0
 24 53  1  0  0  0  0
M  CHG  1  14   1
M  CHG  1  18   1
M  END
> <s_m_source_file>
AV-unprocessed.smi

> <i_m_source_file_index>
2583

> <i_lp_mmshare_version>
43012

> <i_f3d_flags>
0

> <s_epik_input>
W0NIM11jMVtjSF1uW2NIXWMoW2NIXTEpW05IXUMoPU8pW05IXVtDSF0yW0NIMl1bQ0gyXU4oW0NIMl1bQ0gyXTIpW0NIXTNbQ0gyXVtDSDJdTihbQ0gzXSlbQ0gyXVtDSDJdMw==

> <s_epik_cmdline>
J2VwaWtfcHl0aG9uJywgJy1waCcsICc3LjAnLCAnLXRuJywgJzgnLCAnLW1hJywgJzIwMCcsICctbWV0YWxfYmluZGluZycsICctaW1hZScsICc8aW5maWxlLm1hZT4nLCAnLW9tYWUnLCAnPG91dGZpbGUubWFlPic=

> <r_epik_Ionization_Penalty>
0.188357

> <r_epik_Ionization_Penalty_Charging>
0.180787

> <r_epik_Ionization_Penalty_Neutral>
0.00756971

> <r_epik_State_Penalty>
0.157948

> <r_epik_Charging_Adjusted_Penalty>
0.338735

> <i_epik_Tot_Q>
2

> <i_epik_Tot_abs_Q>
2

> <r_epik_Metal_State_Penalty>
0.153874

> <b_epik_Metal_Only>
0

> <s_lp_Force_Field>
OPLS_2005

> <r_lp_Energy>
43.8925

> <b_lp_Chiralities_Consistent>
1

> <s_lp_Variant>
AV-unprocessed.smi:2583-1

> <Gold.Version>
5.8.1

> <Gold.Id.Protein>
6NUR|6NUR_protein|mol2

> <Gold.PLP.Fitness>
49.7656

> <Gold.PLP.PLP>
-39.2169

> <Gold.PLP.part.hbond>
-2.0000

> <Gold.PLP.part.metal>
0.0000

> <Gold.PLP.part.buried>
3.7036

> <Gold.PLP.part.nonpolar>
-41.0373

> <Gold.PLP.part.repulsive>
0.3113

> <Gold.PLP.ligand.clash>
0.0000

> <Gold.PLP.ligand.torsion>
0.6465

> <Gold.PLP.Chemscore.Hbond>
2.9349

> <Gold.PLP.Chemscore.CHOScore>
1.0000

> <Gold.PLP.Chemscore.Metal>
0.0000

> <Gold.Chemscore.Hbonds>
donor molecule, donor type, donor heavy atom, donor atom, acceptor molecule, acceptor atom, score
      L1  H     7    30       P1  8028  0.98
      L1  H    14    54       P1 10175  1.98
      L1  C     5    29       P1  8028  0.96

> <Gold.PLP.Chemscore.Internal.Correction>
0.0369

> <Gold.Rescore>
     Score         DG    S(hbond)    S(metal)    S(lipo)     H(rot)  DE(clash)    DE(int)     intcor
     17.65     -22.43       1.75        0.00     121.32       1.21       2.95       1.84       ----

> <Gold.Chemscore.Fitness>
17.6470

> <Gold.Chemscore.DG>
-22.4344

> <Gold.Chemscore.ZeroCoef>
-5.4800

> <Gold.Chemscore.Hbond>
1.7531

> <Gold.Chemscore.Metal>
0.0000

> <Gold.Chemscore.Lipo>
121.3216

> <Gold.Chemscore.Internal_Hbond>
0.0000

> <Gold.Chemscore.DEClash>
2.9477

> <Gold.Chemscore.DEInternal>
1.8397

> <Gold.Chemscore.Rot>
1.2092

> <Gold.Chemscore.Internal.Correction>
   9.000000E+99

> <Gold.Chemscore.Hbonds>
donor molecule, donor type, donor heavy atom, donor atom, acceptor molecule, acceptor atom, score
      L1  H     7    30       P1  8028  0.93
      L1  H    14    54       P1 10175  0.91

> <Gold.Chemscore.Hbond.Weighted>
-5.8552

> <Gold.Chemscore.Metal.Weighted>
-0.0000

> <Gold.Chemscore.Lipo.Weighted>
-14.1946

> <Gold.Chemscore.Internal_Hbond.Weighted>
0.0000

> <Gold.Chemscore.DEClash.Weighted>
2.9477

> <Gold.Chemscore.DEInternal.Weighted>
1.8397

> <Gold.Chemscore.Rot.Weighted>
3.0955

> <Gold.Chemscore.Internal.Correction.Weighted>
   9.000000E+99

> <Gold.Protein.RotatedTorsions>
[ 6907 6896 6895 6894 ] final  -15.50 input  -60.11 | X-H torsion
[ 7974 7965 7964 7962 ] final   32.35 input  175.53 | X-H torsion
[ 8008 7997 7996 7995 ] final  114.69 input   59.86 | X-H torsion
[ 10167 10162 10161 10158 ] final   81.50 input  -65.29 | X-H torsion
[ 10718 10713 10712 10709 ] final   94.88 input   66.30 | X-H torsion
[ 10763 10752 10751 10750 ] final   57.64 input  -60.55 | X-H torsion
[ 11005 11000 10999 10996 ] final   -7.12 input  -57.11 | X-H torsion

> <Gold.Protein.ActiveResidues>
 VAL166  LYS551  ARG553  GLY616  TRP617  ASP618  TYR619  PRO620  LYS621  CYS622 
 ASP623  PHE694  ASN695  SER759  ASP760  ASP761  ALA762  ILE779  LEU786  VAL792 
 PHE793  MET794  SER795  GLU796  ALA797  LYS798  CYS799  TRP800  GLU811  SER814 

> <Gold.Protein.RotatedAtoms>
  151.3230  135.0823  159.9311 H   0  0  0  0  0  0  0  0  0  0  0  0  # atno 6907 bound_to 6896
  152.5252  133.9620  159.7732 H   0  0  0  0  0  0  0  0  0  0  0  0  # atno 6908 bound_to 6896
  150.9944  133.6065  159.2734 H   0  0  0  0  0  0  0  0  0  0  0  0  # atno 6909 bound_to 6896
  146.1492  139.6537  142.9110 H   0  0  0  0  0  0  0  0  0  0  0  0  # atno 7974 bound_to 7965
  156.2337  140.2954  156.0254 H   0  0  0  0  0  0  0  0  0  0  0  0  # atno 8008 bound_to 7997
  155.2154  140.0414  157.2957 H   0  0  0  0  0  0  0  0  0  0  0  0  # atno 8009 bound_to 7997
  154.6040  140.2434  155.7763 H   0  0  0  0  0  0  0  0  0  0  0  0  # atno 8010 bound_to 7997
  139.9386  144.6105  150.8274 H   0  0  0  0  0  0  0  0  0  0  0  0  # atno 10167 bound_to 10162
  157.6944  131.0527  150.4253 H   0  0  0  0  0  0  0  0  0  0  0  0  # atno 10718 bound_to 10713
  152.9854  135.5634  154.5424 H   0  0  0  0  0  0  0  0  0  0  0  0  # atno 10763 bound_to 10752
  154.4876  135.2791  155.1524 H   0  0  0  0  0  0  0  0  0  0  0  0  # atno 10764 bound_to 10752
  154.3007  135.6308  153.5476 H   0  0  0  0  0  0  0  0  0  0  0  0  # atno 10765 bound_to 10752
  140.7094  133.8922  155.8739 H   0  0  0  0  0  0  0  0  0  0  0  0  # atno 11005 bound_to 11000
  145.4865  141.0438  143.2617 LP  0  0  0  0  0  0  0  0  0  0  0  0  # atno 17320 bound_to 7965
  144.7883  139.6381  143.7124 LP  0  0  0  0  0  0  0  0  0  0  0  0  # atno 17321 bound_to 7965
  140.7617  143.3181  151.2685 LP  0  0  0  0  0  0  0  0  0  0  0  0  # atno 17342 bound_to 10162
  139.6723  143.9998  152.2760 LP  0  0  0  0  0  0  0  0  0  0  0  0  # atno 17343 bound_to 10162
  156.4625  130.4035  149.6568 LP  0  0  0  0  0  0  0  0  0  0  0  0  # atno 17370 bound_to 10713
  156.3678  130.7514  151.2494 LP  0  0  0  0  0  0  0  0  0  0  0  0  # atno 17371 bound_to 10713
  141.0097  134.1037  157.4234 LP  0  0  0  0  0  0  0  0  0  0  0  0  # atno 17394 bound_to 11000
  139.8876  135.0091  156.6568 LP  0  0  0  0  0  0  0  0  0  0  0  0  # atno 17395 bound_to 11000

$$$$
