AV-unprocessed.smi:1154|AV-procd|sdf|4902|dock7
  -GOLD-   22720 3473D 1   1.00000     0.00000
 Structure written by MMmdl.
 42 43  0  0  0  0  0  0  0  0  2 V2000
  144.8598  132.5215  149.2200 C   0  0  0  0  0  0  0  0  0  0  0  0
  145.0314  133.1240  150.6216 C   0  0  2  0  0  0  0  0  0  0  0  0
  143.8846  134.0939  150.9571 C   0  0  0  0  0  0  0  0  0  0  0  0
  144.0875  134.7315  152.3427 C   0  0  2  0  0  0  0  0  0  0  0  0
  142.9626  135.7223  152.6738 C   0  0  0  0  0  0  0  0  0  0  0  0
  145.4723  135.4086  152.4159 C   0  0  0  0  0  0  0  0  0  0  0  0
  146.5759  134.4633  152.1020 N   0  3  1  0  0  0  0  0  0  0  0  0
  146.8731  133.5134  153.2079 C   0  0  0  0  0  0  0  0  0  0  0  0
  148.2012  132.7669  153.0034 C   0  0  0  0  0  0  0  0  0  0  0  0
  147.9714  131.4952  152.3322 N   0  0  0  0  0  0  0  0  0  0  0  0
  147.3130  130.4604  152.8758 C   0  0  0  0  0  0  0  0  0  0  0  0
  146.8445  130.4820  154.0133 O   0  0  0  0  0  0  0  0  0  0  0  0
  147.1646  129.2070  152.0110 C   0  0  0  0  0  0  0  0  0  0  0  0
  147.2976  127.9980  152.8027 N   0  0  0  0  0  0  0  0  0  0  0  0
  146.5752  127.5357  153.8252 C   0  0  0  0  0  0  0  0  0  0  0  0
  147.0489  126.3853  154.2781 N   0  0  0  0  0  0  0  0  0  0  0  0
  148.1361  126.1463  153.4541 N   0  0  0  0  0  0  0  0  0  0  0  0
  148.2884  127.0997  152.5763 N   0  0  0  0  0  0  0  0  0  0  0  0
  146.3954  133.8350  150.7642 C   0  0  0  0  0  0  0  0  0  0  0  0
  144.8761  133.2939  148.4502 H   0  0  0  0  0  0  0  0  0  0  0  0
  143.9121  131.9889  149.1358 H   0  0  0  0  0  0  0  0  0  0  0  0
  145.6564  131.8115  148.9962 H   0  0  0  0  0  0  0  0  0  0  0  0
  144.9930  132.2956  151.3294 H   0  0  0  0  0  0  0  0  0  0  0  0
  143.8298  134.8755  150.1975 H   0  0  0  0  0  0  0  0  0  0  0  0
  142.9307  133.5655  150.9262 H   0  0  0  0  0  0  0  0  0  0  0  0
  144.0491  133.9388  153.0911 H   0  0  0  0  0  0  0  0  0  0  0  0
  142.9380  136.5486  151.9625 H   0  0  0  0  0  0  0  0  0  0  0  0
  143.0919  136.1449  153.6708 H   0  0  0  0  0  0  0  0  0  0  0  0
  141.9885  135.2329  152.6486 H   0  0  0  0  0  0  0  0  0  0  0  0
  145.5147  136.2317  151.7009 H   0  0  0  0  0  0  0  0  0  0  0  0
  145.6315  135.8557  153.3981 H   0  0  0  0  0  0  0  0  0  0  0  0
  146.9467  134.0729  154.1417 H   0  0  0  0  0  0  0  0  0  0  0  0
  146.0538  132.8075  153.3425 H   0  0  0  0  0  0  0  0  0  0  0  0
  148.8947  133.3488  152.3966 H   0  0  0  0  0  0  0  0  0  0  0  0
  148.6809  132.5948  153.9686 H   0  0  0  0  0  0  0  0  0  0  0  0
  148.3314  131.3947  151.3940 H   0  0  0  0  0  0  0  0  0  0  0  0
  146.1883  129.2075  151.5248 H   0  0  0  0  0  0  0  0  0  0  0  0
  147.9184  129.2006  151.2221 H   0  0  0  0  0  0  0  0  0  0  0  0
  145.7137  128.0399  154.2379 H   0  0  0  0  0  0  0  0  0  0  0  0
  147.2100  133.1447  150.5493 H   0  0  0  0  0  0  0  0  0  0  0  0
  146.4705  134.6231  150.0135 H   0  0  0  0  0  0  0  0  0  0  0  0
  147.4031  135.0386  152.0294 H   0  0  0  0  0  0  0  0  0  0  0  0
  1  2  1  0  0  0  0
  1 20  1  0  0  0  0
  1 21  1  0  0  0  0
  1 22  1  0  0  0  0
  2 19  1  0  0  0  0
  2  3  1  0  0  0  0
  2 23  1  0  0  0  0
  3  4  1  0  0  0  0
  3 24  1  0  0  0  0
  3 25  1  0  0  0  0
  4  5  1  0  0  0  0
  4  6  1  0  0  0  0
  4 26  1  0  0  0  0
  5 27  1  0  0  0  0
  5 28  1  0  0  0  0
  5 29  1  0  0  0  0
  6  7  1  0  0  0  0
  6 30  1  0  0  0  0
  6 31  1  0  0  0  0
  7  8  1  0  0  0  0
  7 19  1  0  0  0  0
  7 42  1  0  0  0  0
  8  9  1  0  0  0  0
  8 32  1  0  0  0  0
  8 33  1  0  0  0  0
  9 10  1  0  0  0  0
  9 34  1  0  0  0  0
  9 35  1  0  0  0  0
 10 11  1  0  0  0  0
 10 36  1  0  0  0  0
 11 12  2  0  0  0  0
 11 13  1  0  0  0  0
 13 14  1  0  0  0  0
 13 37  1  0  0  0  0
 13 38  1  0  0  0  0
 14 18  1  0  0  0  0
 14 15  1  0  0  0  0
 15 16  2  0  0  0  0
 15 39  1  0  0  0  0
 16 17  1  0  0  0  0
 17 18  2  0  0  0  0
 19 40  1  0  0  0  0
 19 41  1  0  0  0  0
M  CHG  1   7   1
M  END
> <s_m_source_file>
AV-unprocessed.smi

> <i_m_source_file_index>
1154

> <i_lp_mmshare_version>
43012

> <i_f3d_flags>
0

> <s_epik_input>
W0NIM11bQ0BASF0xW0NIMl1bQ0BASF0oW0NIM10pW0NIMl1OKFtDSDJdMSlbQ0gyXVtDSDJdW05IXUMoPU8pW0NIMl1uMltjSF1ubm4y

> <s_epik_cmdline>
J2VwaWtfcHl0aG9uJywgJy1waCcsICc3LjAnLCAnLXRuJywgJzgnLCAnLW1hJywgJzIwMCcsICctbWV0YWxfYmluZGluZycsICctaW1hZScsICc8aW5maWxlLm1hZT4nLCAnLW9tYWUnLCAnPG91dGZpbGUubWFlPic=

> <r_lp_tautomer_probability>
1

> <r_epik_Ionization_Penalty>
0.00217773

> <r_epik_Ionization_Penalty_Charging>
0.00217329

> <r_epik_Ionization_Penalty_Neutral>
4.43997e-06

> <r_epik_State_Penalty>
0.00149294

> <r_epik_Charging_Adjusted_Penalty>
0.00366623

> <i_epik_Tot_Q>
1

> <i_epik_Tot_abs_Q>
1

> <r_epik_Metal_State_Penalty>
-0

> <b_epik_Metal_Only>
0

> <s_lp_Force_Field>
OPLS_2005

> <r_lp_Energy>
22.2263

> <b_lp_Chiralities_Consistent>
1

> <s_lp_Variant>
AV-unprocessed.smi:1154-3

> <Gold.Version>
5.8.1

> <Gold.Id.Protein>
6NUR|6NUR_protein|mol2

> <Gold.PLP.Fitness>
42.7590

> <Gold.PLP.PLP>
-31.9084

> <Gold.PLP.part.hbond>
-3.7845

> <Gold.PLP.part.metal>
0.0000

> <Gold.PLP.part.buried>
-5.2990

> <Gold.PLP.part.nonpolar>
-23.3282

> <Gold.PLP.part.repulsive>
0.2391

> <Gold.PLP.ligand.clash>
0.0000

> <Gold.PLP.ligand.torsion>
0.6048

> <Gold.PLP.Chemscore.Hbond>
3.0000

> <Gold.PLP.Chemscore.CHOScore>
1.0000

> <Gold.PLP.Chemscore.Metal>
0.0000

> <Gold.Chemscore.Hbonds>
donor molecule, donor type, donor heavy atom, donor atom, acceptor molecule, acceptor atom, score
      L1  H     7    42       P1  7948  2.00
      L1  H    10    36       P1 10747  0.65
      L1  C    15    39       P1 10956  0.05

> <Gold.PLP.Chemscore.Internal.Correction>
0.0602

> <Gold.Rescore>
     Score         DG    S(hbond)    S(metal)    S(lipo)     H(rot)  DE(clash)    DE(int)     intcor
     11.21     -12.86       1.95        0.00      65.66       2.67       0.07       1.58       ----

> <Gold.Chemscore.Fitness>
11.2086

> <Gold.Chemscore.DG>
-12.8614

> <Gold.Chemscore.ZeroCoef>
-5.4800

> <Gold.Chemscore.Hbond>
1.9543

> <Gold.Chemscore.Metal>
0.0000

> <Gold.Chemscore.Lipo>
65.6636

> <Gold.Chemscore.Internal_Hbond>
0.0000

> <Gold.Chemscore.DEClash>
0.0750

> <Gold.Chemscore.DEInternal>
1.5778

> <Gold.Chemscore.Rot>
2.6674

> <Gold.Chemscore.Internal.Correction>
   9.000000E+99

> <Gold.Chemscore.Hbonds>
donor molecule, donor type, donor heavy atom, donor atom, acceptor molecule, acceptor atom, score
      L1  H     7    42       P1  7948  0.94
      L1  H    10    36       P1 10747  0.64

> <Gold.Chemscore.Hbond.Weighted>
-6.5273

> <Gold.Chemscore.Metal.Weighted>
-0.0000

> <Gold.Chemscore.Lipo.Weighted>
-7.6826

> <Gold.Chemscore.Internal_Hbond.Weighted>
0.0000

> <Gold.Chemscore.DEClash.Weighted>
0.0750

> <Gold.Chemscore.DEInternal.Weighted>
1.5778

> <Gold.Chemscore.Rot.Weighted>
6.8286

> <Gold.Chemscore.Internal.Correction.Weighted>
   9.000000E+99

> <Gold.Protein.RotatedTorsions>
[ 6907 6896 6895 6894 ] final   31.59 input  -60.11 | X-H torsion
[ 7974 7965 7964 7962 ] final    1.09 input  175.53 | X-H torsion
[ 8008 7997 7996 7995 ] final  -96.78 input   59.86 | X-H torsion
[ 10167 10162 10161 10158 ] final   73.00 input  -65.29 | X-H torsion
[ 10718 10713 10712 10709 ] final -108.06 input   66.30 | X-H torsion
[ 10763 10752 10751 10750 ] final   50.91 input  -60.55 | X-H torsion
[ 11005 11000 10999 10996 ] final  -64.66 input  -57.11 | X-H torsion

> <Gold.Protein.ActiveResidues>
 VAL166  LYS551  ARG553  GLY616  TRP617  ASP618  TYR619  PRO620  LYS621  CYS622 
 ASP623  PHE694  ASN695  SER759  ASP760  ASP761  ALA762  ILE779  LEU786  VAL792 
 PHE793  MET794  SER795  GLU796  ALA797  LYS798  CYS799  TRP800  GLU811  SER814 

> <Gold.Protein.RotatedAtoms>
  152.0625  134.9585  160.0574 H   0  0  0  0  0  0  0  0  0  0  0  0  # atno 6907 bound_to 6896
  152.0943  133.4212  159.4566 H   0  0  0  0  0  0  0  0  0  0  0  0  # atno 6908 bound_to 6896
  150.6837  134.2754  159.4649 H   0  0  0  0  0  0  0  0  0  0  0  0  # atno 6909 bound_to 6896
  146.2438  140.1039  142.8346 H   0  0  0  0  0  0  0  0  0  0  0  0  # atno 7974 bound_to 7965
  154.7790  140.0468  157.1112 H   0  0  0  0  0  0  0  0  0  0  0  0  # atno 8008 bound_to 7997
  154.9728  140.3091  155.4961 H   0  0  0  0  0  0  0  0  0  0  0  0  # atno 8009 bound_to 7997
  156.2933  140.2250  156.4822 H   0  0  0  0  0  0  0  0  0  0  0  0  # atno 8010 bound_to 7997
  140.0292  144.5479  150.7520 H   0  0  0  0  0  0  0  0  0  0  0  0  # atno 10167 bound_to 10162
  156.0467  130.5694  150.7908 H   0  0  0  0  0  0  0  0  0  0  0  0  # atno 10718 bound_to 10713
  152.9784  135.5863  154.4329 H   0  0  0  0  0  0  0  0  0  0  0  0  # atno 10763 bound_to 10752
  154.3940  135.2768  155.2139 H   0  0  0  0  0  0  0  0  0  0  0  0  # atno 10764 bound_to 10752
  154.3999  135.6106  153.5946 H   0  0  0  0  0  0  0  0  0  0  0  0  # atno 10765 bound_to 10752
  141.1431  133.6669  156.5867 H   0  0  0  0  0  0  0  0  0  0  0  0  # atno 11005 bound_to 11000
  145.0544  140.9042  143.4976 LP  0  0  0  0  0  0  0  0  0  0  0  0  # atno 17320 bound_to 7965
  145.1143  139.2736  143.5621 LP  0  0  0  0  0  0  0  0  0  0  0  0  # atno 17321 bound_to 7965
  140.7309  143.2689  151.3954 LP  0  0  0  0  0  0  0  0  0  0  0  0  # atno 17342 bound_to 10162
  139.6088  144.1142  152.2277 LP  0  0  0  0  0  0  0  0  0  0  0  0  # atno 17343 bound_to 10162
  157.5349  131.0938  150.9905 LP  0  0  0  0  0  0  0  0  0  0  0  0  # atno 17370 bound_to 10713
  157.0202  130.5671  149.5330 LP  0  0  0  0  0  0  0  0  0  0  0  0  # atno 17371 bound_to 10713
  140.3795  134.7535  157.4652 LP  0  0  0  0  0  0  0  0  0  0  0  0  # atno 17394 bound_to 11000
  140.0648  134.5945  155.8707 LP  0  0  0  0  0  0  0  0  0  0  0  0  # atno 17395 bound_to 11000

$$$$
