AV-unprocessed.smi:1818|AV-procd|sdf|7381|dock4
  -GOLD-   22720 9 53D 1   1.00000     0.00000
 Structure written by MMmdl.
 37 38  0  0  0  0  0  0  0  0  2 V2000
  152.4285  136.8742  156.1389 N   0  0  0  0  0  0  0  0  0  0  0  0
  151.3691  136.5349  155.8206 C   0  0  0  0  0  0  0  0  0  0  0  0
  150.0175  136.1009  155.4147 C   0  0  0  0  0  0  0  0  0  0  0  0
  149.4375  137.0573  154.4664 N   0  0  0  0  0  0  0  0  0  0  0  0
  148.9608  138.2839  154.7383 C   0  0  0  0  0  0  0  0  0  0  0  0
  148.9679  138.7886  155.8597 O   0  0  0  0  0  0  0  0  0  0  0  0
  148.3617  139.0547  153.5625 C   0  0  0  0  0  0  0  0  0  0  0  0
  148.0030  140.4196  153.9588 N   0  0  0  0  0  0  0  0  0  0  0  0
  146.7509  140.9801  153.9768 C   0  0  0  0  0  0  0  0  0  0  0  0
  146.9050  142.2665  154.4262 C   0  0  0  0  0  0  0  0  0  0  0  0
  148.2427  142.4365  154.6647 N   0  3  0  0  0  0  0  0  0  0  0  0
  148.9087  141.3128  154.3799 C   0  0  0  0  0  0  0  0  0  0  0  0
  150.1748  134.7514  154.6717 C   0  0  0  0  0  0  0  0  0  0  0  0
  148.9089  133.8812  154.5753 C   0  0  0  0  0  0  0  0  0  0  0  0
  148.7575  132.9277  155.7743 C   0  0  0  0  0  0  0  0  0  0  0  0
  148.3624  133.6045  157.0963 C   0  0  0  0  0  0  0  0  0  0  0  0
  149.2814  134.7581  157.5362 C   0  0  0  0  0  0  0  0  0  0  0  0
  149.1024  136.0127  156.6649 C   0  0  0  0  0  0  0  0  0  0  0  0
  149.3862  136.7462  153.5074 H   0  0  0  0  0  0  0  0  0  0  0  0
  149.0752  139.1074  152.7385 H   0  0  0  0  0  0  0  0  0  0  0  0
  147.4664  138.5551  153.1893 H   0  0  0  0  0  0  0  0  0  0  0  0
  145.8663  140.4367  153.6775 H   0  0  0  0  0  0  0  0  0  0  0  0
  146.1822  143.0524  154.5910 H   0  0  0  0  0  0  0  0  0  0  0  0
  149.9686  141.1556  154.4755 H   0  0  0  0  0  0  0  0  0  0  0  0
  150.5451  134.9466  153.6639 H   0  0  0  0  0  0  0  0  0  0  0  0
  150.9666  134.1642  155.1398 H   0  0  0  0  0  0  0  0  0  0  0  0
  148.0160  134.4920  154.4382 H   0  0  0  0  0  0  0  0  0  0  0  0
  148.9902  133.2682  153.6770 H   0  0  0  0  0  0  0  0  0  0  0  0
  147.9986  132.1824  155.5340 H   0  0  0  0  0  0  0  0  0  0  0  0
  149.6823  132.3666  155.9146 H   0  0  0  0  0  0  0  0  0  0  0  0
  147.3342  133.9621  157.0289 H   0  0  0  0  0  0  0  0  0  0  0  0
  148.3567  132.8452  157.8790 H   0  0  0  0  0  0  0  0  0  0  0  0
  149.0153  135.0180  158.5615 H   0  0  0  0  0  0  0  0  0  0  0  0
  150.3251  134.4443  157.5702 H   0  0  0  0  0  0  0  0  0  0  0  0
  149.2923  136.8862  157.2902 H   0  0  0  0  0  0  0  0  0  0  0  0
  148.0535  136.0993  156.3770 H   0  0  0  0  0  0  0  0  0  0  0  0
  148.6689  143.2884  155.0077 H   0  0  0  0  0  0  0  0  0  0  0  0
  1  2  3  0  0  0  0
  2  3  1  0  0  0  0
  3 18  1  0  0  0  0
  3  4  1  0  0  0  0
  3 13  1  0  0  0  0
  4  5  1  0  0  0  0
  4 19  1  0  0  0  0
  5  6  2  0  0  0  0
  5  7  1  0  0  0  0
  7  8  1  0  0  0  0
  7 20  1  0  0  0  0
  7 21  1  0  0  0  0
  8 12  1  0  0  0  0
  8  9  1  0  0  0  0
  9 10  2  0  0  0  0
  9 22  1  0  0  0  0
 10 11  1  0  0  0  0
 10 23  1  0  0  0  0
 11 12  2  0  0  0  0
 11 37  1  0  0  0  0
 12 24  1  0  0  0  0
 13 14  1  0  0  0  0
 13 25  1  0  0  0  0
 13 26  1  0  0  0  0
 14 15  1  0  0  0  0
 14 27  1  0  0  0  0
 14 28  1  0  0  0  0
 15 16  1  0  0  0  0
 15 29  1  0  0  0  0
 15 30  1  0  0  0  0
 16 17  1  0  0  0  0
 16 31  1  0  0  0  0
 16 32  1  0  0  0  0
 17 18  1  0  0  0  0
 17 33  1  0  0  0  0
 17 34  1  0  0  0  0
 18 35  1  0  0  0  0
 18 36  1  0  0  0  0
M  CHG  1  11   1
M  END
> <s_m_source_file>
AV-unprocessed.smi

> <i_m_source_file_index>
1818

> <i_lp_mmshare_version>
43012

> <i_f3d_flags>
0

> <s_epik_input>
W0NIMl0xW0NIMl1bQ0gyXVtDSDJdW0NIMl1bQ0gyXUMxKEMjTilbTkhdQyg9TylbQ0gyXW4yW2NIXVtjSF1uW2NIXTI=

> <s_epik_cmdline>
J2VwaWtfcHl0aG9uJywgJy1waCcsICc3LjAnLCAnLXRuJywgJzgnLCAnLW1hJywgJzIwMCcsICctbWV0YWxfYmluZGluZycsICctaW1hZScsICc8aW5maWxlLm1hZT4nLCAnLW9tYWUnLCAnPG91dGZpbGUubWFlPic=

> <r_lp_tautomer_probability>
1

> <r_epik_Ionization_Penalty>
0.70502

> <r_epik_Ionization_Penalty_Charging>
0

> <r_epik_Ionization_Penalty_Neutral>
0.70502

> <r_epik_State_Penalty>
0.72808

> <r_epik_Charging_Adjusted_Penalty>
0.72808

> <i_epik_Tot_Q>
1

> <i_epik_Tot_abs_Q>
1

> <r_epik_Metal_State_Penalty>
0.891186

> <b_epik_Metal_Only>
0

> <s_lp_Force_Field>
OPLS_2005

> <r_lp_Energy>
19.4839

> <b_lp_Chiralities_Consistent>
1

> <s_lp_Variant>
AV-unprocessed.smi:1818-2

> <Gold.Version>
5.8.1

> <Gold.Id.Protein>
6NUR|6NUR_protein|mol2

> <Gold.PLP.Fitness>
37.5840

> <Gold.PLP.PLP>
-23.1962

> <Gold.PLP.part.hbond>
-2.9866

> <Gold.PLP.part.metal>
0.0000

> <Gold.PLP.part.buried>
-0.7643

> <Gold.PLP.part.nonpolar>
-20.5919

> <Gold.PLP.part.repulsive>
0.2310

> <Gold.PLP.ligand.clash>
0.0000

> <Gold.PLP.ligand.torsion>
0.2534

> <Gold.PLP.Chemscore.Hbond>
3.9600

> <Gold.PLP.Chemscore.CHOScore>
1.0000

> <Gold.PLP.Chemscore.Metal>
0.0000

> <Gold.Chemscore.Hbonds>
donor molecule, donor type, donor heavy atom, donor atom, acceptor molecule, acceptor atom, score
      L1  H     4    19       P1  7948  1.00
      L1  H    11    37       P1  8028  2.00
      P1  H 10752 10764       L1     1  0.65
      L1  C     9    22       P1 10175  1.00

> <Gold.PLP.Chemscore.Internal.Correction>
0.0147

> <Gold.Rescore>
     Score         DG    S(hbond)    S(metal)    S(lipo)     H(rot)  DE(clash)    DE(int)     intcor
     13.18     -14.85       2.74        0.00      39.05       1.69       0.03       1.65       ----

> <Gold.Chemscore.Fitness>
13.1791

> <Gold.Chemscore.DG>
-14.8550

> <Gold.Chemscore.ZeroCoef>
-5.4800

> <Gold.Chemscore.Hbond>
2.7380

> <Gold.Chemscore.Metal>
0.0000

> <Gold.Chemscore.Lipo>
39.0490

> <Gold.Chemscore.Internal_Hbond>
0.0000

> <Gold.Chemscore.DEClash>
0.0270

> <Gold.Chemscore.DEInternal>
1.6489

> <Gold.Chemscore.Rot>
1.6947

> <Gold.Chemscore.Internal.Correction>
   9.000000E+99

> <Gold.Chemscore.Hbonds>
donor molecule, donor type, donor heavy atom, donor atom, acceptor molecule, acceptor atom, score
      L1  H     4    19       P1  7948  0.91
      L1  H    11    37       P1  8028  0.97
      P1  H 10752 10764       L1     1  0.08

> <Gold.Chemscore.Hbond.Weighted>
-9.1448

> <Gold.Chemscore.Metal.Weighted>
-0.0000

> <Gold.Chemscore.Lipo.Weighted>
-4.5687

> <Gold.Chemscore.Internal_Hbond.Weighted>
0.0000

> <Gold.Chemscore.DEClash.Weighted>
0.0270

> <Gold.Chemscore.DEInternal.Weighted>
1.6489

> <Gold.Chemscore.Rot.Weighted>
4.3386

> <Gold.Chemscore.Internal.Correction.Weighted>
   9.000000E+99

> <Gold.Protein.RotatedTorsions>
[ 6907 6896 6895 6894 ] final   81.71 input  -60.11 | X-H torsion
[ 7974 7965 7964 7962 ] final   -1.41 input  175.53 | X-H torsion
[ 8008 7997 7996 7995 ] final   -1.67 input   59.86 | X-H torsion
[ 10167 10162 10161 10158 ] final   31.94 input  -65.29 | X-H torsion
[ 10718 10713 10712 10709 ] final  -34.14 input   66.30 | X-H torsion
[ 10763 10752 10751 10750 ] final  -12.86 input  -60.55 | X-H torsion
[ 11005 11000 10999 10996 ] final   76.48 input  -57.11 | X-H torsion

> <Gold.Protein.ActiveResidues>
 VAL166  LYS551  ARG553  GLY616  TRP617  ASP618  TYR619  PRO620  LYS621  CYS622 
 ASP623  PHE694  ASN695  SER759  ASP760  ASP761  ALA762  ILE779  LEU786  VAL792 
 PHE793  MET794  SER795  GLU796  ALA797  LYS798  CYS799  TRP800  GLU811  SER814 

> <Gold.Protein.RotatedAtoms>
  152.5277  134.3162  159.9131 H   0  0  0  0  0  0  0  0  0  0  0  0  # atno 6907 bound_to 6896
  151.3112  133.4073  159.2654 H   0  0  0  0  0  0  0  0  0  0  0  0  # atno 6908 bound_to 6896
  151.0037  134.9359  159.8025 H   0  0  0  0  0  0  0  0  0  0  0  0  # atno 6909 bound_to 6896
  146.2417  140.1416  142.8335 H   0  0  0  0  0  0  0  0  0  0  0  0  # atno 7974 bound_to 7965
  154.6442  140.2553  155.7287 H   0  0  0  0  0  0  0  0  0  0  0  0  # atno 8008 bound_to 7997
  156.2544  140.2881  156.0769 H   0  0  0  0  0  0  0  0  0  0  0  0  # atno 8009 bound_to 7997
  155.1549  140.0383  157.2820 H   0  0  0  0  0  0  0  0  0  0  0  0  # atno 8010 bound_to 7997
  140.4543  144.1001  150.6198 H   0  0  0  0  0  0  0  0  0  0  0  0  # atno 10167 bound_to 10162
  156.3542  130.4313  149.7678 H   0  0  0  0  0  0  0  0  0  0  0  0  # atno 10718 bound_to 10713
  153.5047  135.7017  153.5813 H   0  0  0  0  0  0  0  0  0  0  0  0  # atno 10763 bound_to 10752
  153.3929  135.3891  155.1935 H   0  0  0  0  0  0  0  0  0  0  0  0  # atno 10764 bound_to 10752
  154.8708  135.3863  154.4521 H   0  0  0  0  0  0  0  0  0  0  0  0  # atno 10765 bound_to 10752
  139.9296  134.7604  156.1401 H   0  0  0  0  0  0  0  0  0  0  0  0  # atno 11005 bound_to 11000
  145.0242  140.8818  143.5148 LP  0  0  0  0  0  0  0  0  0  0  0  0  # atno 17320 bound_to 7965
  145.1469  139.2538  143.5461 LP  0  0  0  0  0  0  0  0  0  0  0  0  # atno 17321 bound_to 7965
  140.4169  143.2630  151.9763 LP  0  0  0  0  0  0  0  0  0  0  0  0  # atno 17342 bound_to 10162
  139.4799  144.5865  151.7844 LP  0  0  0  0  0  0  0  0  0  0  0  0  # atno 17343 bound_to 10162
  156.4867  130.8066  151.3078 LP  0  0  0  0  0  0  0  0  0  0  0  0  # atno 17370 bound_to 10713
  157.7465  130.9988  150.2867 LP  0  0  0  0  0  0  0  0  0  0  0  0  # atno 17371 bound_to 10713
  141.0877  133.6727  156.2472 LP  0  0  0  0  0  0  0  0  0  0  0  0  # atno 17394 bound_to 11000
  140.6238  134.5334  157.5551 LP  0  0  0  0  0  0  0  0  0  0  0  0  # atno 17395 bound_to 11000

$$$$
