AV-unprocessed.smi:2153|AV-procd|sdf|8766|dock2
  -GOLD-   2272011543D 1   1.00000     0.00000
 Structure written by MMmdl.
 48 49  0  0  0  0  0  0  0  0  1 V2000
  150.4182  141.2969  157.2247 C   0  0  0  0  0  0  0  0  0  0  0  0
  151.7533  141.4156  157.9777 C   0  0  2  0  0  0  0  0  0  0  0  0
  151.9821  140.1818  158.8743 C   0  0  0  0  0  0  0  0  0  0  0  0
  153.3071  140.2752  159.6456 C   0  0  0  0  0  0  0  0  0  0  0  0
  153.3696  141.5637  160.4768 C   0  0  0  0  0  0  0  0  0  0  0  0
  153.1555  142.8002  159.5920 C   0  0  0  0  0  0  0  0  0  0  0  0
  151.8279  142.7168  158.8088 C   0  0  1  0  0  0  0  0  0  0  0  0
  151.7430  143.8161  157.9104 O   0  0  0  0  0  0  0  0  0  0  0  0
  151.9916  145.0820  158.5049 C   0  0  0  0  0  0  0  0  0  0  0  0
  150.9263  145.3476  159.5736 C   0  0  0  0  0  0  0  0  0  0  0  0
  149.6146  144.9190  159.1080 N   0  0  0  0  0  0  0  0  0  0  0  0
  148.6326  144.4797  159.9067 C   0  0  0  0  0  0  0  0  0  0  0  0
  148.7487  144.3950  161.1302 O   0  0  0  0  0  0  0  0  0  0  0  0
  147.3339  144.0619  159.2023 C   0  0  0  0  0  0  0  0  0  0  0  0
  146.1299  144.6641  159.7906 N   0  0  0  0  0  0  0  0  0  0  0  0
  145.4424  145.6371  159.0879 C   0  0  0  0  0  0  0  0  0  0  0  0
  144.3232  146.2380  159.5471 C   0  0  0  0  0  0  0  0  0  0  0  0
  143.7641  145.8814  160.8447 C   0  0  0  0  0  0  0  0  0  0  0  0
  142.7519  146.4041  161.3137 O   0  0  0  0  0  0  0  0  0  0  0  0
  144.4801  144.8803  161.5400 N   0  0  0  0  0  0  0  0  0  0  0  0
  143.9584  144.4998  162.8363 C   0  0  0  0  0  0  0  0  0  0  0  0
  145.6547  144.2569  161.0568 C   0  0  0  0  0  0  0  0  0  0  0  0
  146.2563  143.3918  161.6973 O   0  0  0  0  0  0  0  0  0  0  0  0
  149.5742  141.2813  157.9148 H   0  0  0  0  0  0  0  0  0  0  0  0
  150.3815  140.3813  156.6337 H   0  0  0  0  0  0  0  0  0  0  0  0
  150.2717  142.1323  156.5397 H   0  0  0  0  0  0  0  0  0  0  0  0
  152.5517  141.4415  157.2346 H   0  0  0  0  0  0  0  0  0  0  0  0
  151.1582  140.0827  159.5825 H   0  0  0  0  0  0  0  0  0  0  0  0
  151.9777  139.2745  158.2693 H   0  0  0  0  0  0  0  0  0  0  0  0
  153.4218  139.4073  160.2957 H   0  0  0  0  0  0  0  0  0  0  0  0
  154.1422  140.2493  158.9443 H   0  0  0  0  0  0  0  0  0  0  0  0
  152.6078  141.5348  161.2568 H   0  0  0  0  0  0  0  0  0  0  0  0
  154.3318  141.6320  160.9850 H   0  0  0  0  0  0  0  0  0  0  0  0
  153.1794  143.6941  160.2146 H   0  0  0  0  0  0  0  0  0  0  0  0
  153.9866  142.8917  158.8915 H   0  0  0  0  0  0  0  0  0  0  0  0
  150.9873  142.7301  159.5060 H   0  0  0  0  0  0  0  0  0  0  0  0
  152.9793  145.0774  158.9680 H   0  0  0  0  0  0  0  0  0  0  0  0
  151.9841  145.8794  157.7613 H   0  0  0  0  0  0  0  0  0  0  0  0
  151.1825  144.8277  160.4980 H   0  0  0  0  0  0  0  0  0  0  0  0
  150.8924  146.4139  159.8015 H   0  0  0  0  0  0  0  0  0  0  0  0
  149.4471  144.9517  158.1127 H   0  0  0  0  0  0  0  0  0  0  0  0
  147.4020  144.3096  158.1415 H   0  0  0  0  0  0  0  0  0  0  0  0
  147.2581  142.9744  159.2439 H   0  0  0  0  0  0  0  0  0  0  0  0
  145.8169  145.9326  158.1184 H   0  0  0  0  0  0  0  0  0  0  0  0
  143.8353  146.9916  158.9466 H   0  0  0  0  0  0  0  0  0  0  0  0
  144.5053  143.6548  163.2529 H   0  0  0  0  0  0  0  0  0  0  0  0
  142.9128  144.2182  162.6994 H   0  0  0  0  0  0  0  0  0  0  0  0
  144.0540  145.3703  163.4875 H   0  0  0  0  0  0  0  0  0  0  0  0
  1  2  1  0  0  0  0
  1 24  1  0  0  0  0
  1 25  1  0  0  0  0
  1 26  1  0  0  0  0
  2  7  1  0  0  0  0
  2  3  1  0  0  0  0
  2 27  1  0  0  0  0
  3  4  1  0  0  0  0
  3 28  1  0  0  0  0
  3 29  1  0  0  0  0
  4  5  1  0  0  0  0
  4 30  1  0  0  0  0
  4 31  1  0  0  0  0
  5  6  1  0  0  0  0
  5 32  1  0  0  0  0
  5 33  1  0  0  0  0
  6  7  1  0  0  0  0
  6 34  1  0  0  0  0
  6 35  1  0  0  0  0
  7  8  1  0  0  0  0
  7 36  1  0  0  0  0
  8  9  1  0  0  0  0
  9 10  1  0  0  0  0
  9 37  1  0  0  0  0
  9 38  1  0  0  0  0
 10 11  1  0  0  0  0
 10 39  1  0  0  0  0
 10 40  1  0  0  0  0
 11 12  1  0  0  0  0
 11 41  1  0  0  0  0
 12 13  2  0  0  0  0
 12 14  1  0  0  0  0
 14 15  1  0  0  0  0
 14 42  1  0  0  0  0
 14 43  1  0  0  0  0
 15 22  1  0  0  0  0
 15 16  1  0  0  0  0
 16 17  2  0  0  0  0
 16 44  1  0  0  0  0
 17 18  1  0  0  0  0
 17 45  1  0  0  0  0
 18 19  2  0  0  0  0
 18 20  1  0  0  0  0
 20 21  1  0  0  0  0
 20 22  1  0  0  0  0
 21 46  1  0  0  0  0
 21 47  1  0  0  0  0
 21 48  1  0  0  0  0
 22 23  2  0  0  0  0
M  END
> <s_m_source_file>
AV-unprocessed.smi

> <i_m_source_file_index>
2153

> <i_lp_mmshare_version>
43012

> <i_f3d_flags>
0

> <s_epik_input>
W0NIM11bQ0BASF0xW0NIMl1bQ0gyXVtDSDJdW0NIMl1bQ0BIXTFPW0NIMl1bQ0gyXVtOSF1DKD1PKVtDSDJdbjJbY0hdW2NIXWMoPU8pbihbQ0gzXSljMj1P

> <s_epik_cmdline>
J2VwaWtfcHl0aG9uJywgJy1waCcsICc3LjAnLCAnLXRuJywgJzgnLCAnLW1hJywgJzIwMCcsICctbWV0YWxfYmluZGluZycsICctaW1hZScsICc8aW5maWxlLm1hZT4nLCAnLW9tYWUnLCAnPG91dGZpbGUubWFlPic=

> <r_lp_tautomer_probability>
1

> <r_epik_Ionization_Penalty>
4.02205e-08

> <r_epik_Ionization_Penalty_Charging>
1.23606e-08

> <r_epik_Ionization_Penalty_Neutral>
2.78599e-08

> <r_epik_State_Penalty>
-0

> <r_epik_Charging_Adjusted_Penalty>
1.23606e-08

> <i_epik_Tot_Q>
0

> <i_epik_Tot_abs_Q>
0

> <r_epik_Metal_State_Penalty>
-0

> <b_epik_Metal_Only>
0

> <s_lp_Force_Field>
OPLS_2005

> <r_lp_Energy>
20.2875

> <b_lp_Chiralities_Consistent>
1

> <s_lp_Variant>
AV-unprocessed.smi:2153-1

> <Gold.Version>
5.8.1

> <Gold.Id.Protein>
6NUR|6NUR_protein|mol2

> <Gold.PLP.Fitness>
52.6363

> <Gold.PLP.PLP>
-45.8136

> <Gold.PLP.part.hbond>
-3.8501

> <Gold.PLP.part.metal>
0.0000

> <Gold.PLP.part.buried>
-6.5729

> <Gold.PLP.part.nonpolar>
-35.9463

> <Gold.PLP.part.repulsive>
0.5338

> <Gold.PLP.ligand.clash>
0.0000

> <Gold.PLP.ligand.torsion>
0.5156

> <Gold.PLP.Chemscore.Hbond>
1.5959

> <Gold.PLP.Chemscore.CHOScore>
1.0000

> <Gold.PLP.Chemscore.Metal>
0.0000

> <Gold.Chemscore.Hbonds>
donor molecule, donor type, donor heavy atom, donor atom, acceptor molecule, acceptor atom, score
      L1  H    11    41       P1  8029  0.48
      P1  H  6933  6944       L1    13  0.72
      L1  C    16    44       P1  8029  1.00

> <Gold.PLP.Chemscore.Internal.Correction>
0.0662

> <Gold.Rescore>
     Score         DG    S(hbond)    S(metal)    S(lipo)     H(rot)  DE(clash)    DE(int)     intcor
     16.21     -18.26       1.89        0.00     103.28       2.20       0.24       1.81       ----

> <Gold.Chemscore.Fitness>
16.2107

> <Gold.Chemscore.DG>
-18.2587

> <Gold.Chemscore.ZeroCoef>
-5.4800

> <Gold.Chemscore.Hbond>
1.8919

> <Gold.Chemscore.Metal>
0.0000

> <Gold.Chemscore.Lipo>
103.2773

> <Gold.Chemscore.Internal_Hbond>
0.0000

> <Gold.Chemscore.DEClash>
0.2409

> <Gold.Chemscore.DEInternal>
1.8071

> <Gold.Chemscore.Rot>
2.1968

> <Gold.Chemscore.Internal.Correction>
   9.000000E+99

> <Gold.Chemscore.Hbonds>
donor molecule, donor type, donor heavy atom, donor atom, acceptor molecule, acceptor atom, score
      L1  H    11    41       P1  8029  0.12
      P1  H  6933  6944       L1    13  0.27

> <Gold.Chemscore.Hbond.Weighted>
-6.3190

> <Gold.Chemscore.Metal.Weighted>
-0.0000

> <Gold.Chemscore.Lipo.Weighted>
-12.0834

> <Gold.Chemscore.Internal_Hbond.Weighted>
0.0000

> <Gold.Chemscore.DEClash.Weighted>
0.2409

> <Gold.Chemscore.DEInternal.Weighted>
1.8071

> <Gold.Chemscore.Rot.Weighted>
5.6238

> <Gold.Chemscore.Internal.Correction.Weighted>
   9.000000E+99

> <Gold.Protein.RotatedTorsions>
[ 6907 6896 6895 6894 ] final   39.88 input  -60.11 | X-H torsion
[ 7974 7965 7964 7962 ] final   77.87 input  175.53 | X-H torsion
[ 8008 7997 7996 7995 ] final  178.26 input   59.86 | X-H torsion
[ 10167 10162 10161 10158 ] final   36.09 input  -65.29 | X-H torsion
[ 10718 10713 10712 10709 ] final -111.35 input   66.30 | X-H torsion
[ 10763 10752 10751 10750 ] final  132.65 input  -60.55 | X-H torsion
[ 11005 11000 10999 10996 ] final  137.12 input  -57.11 | X-H torsion

> <Gold.Protein.ActiveResidues>
 VAL166  LYS551  ARG553  GLY616  TRP617  ASP618  TYR619  PRO620  LYS621  CYS622 
 ASP623  PHE694  ASN695  SER759  ASP760  ASP761  ALA762  ILE779  LEU786  VAL792 
 PHE793  MET794  SER795  GLU796  ALA797  LYS798  CYS799  TRP800  GLU811  SER814 

> <Gold.Protein.RotatedAtoms>
  152.1753  134.8800  160.0530 H   0  0  0  0  0  0  0  0  0  0  0  0  # atno 6907 bound_to 6896
  151.9744  133.3731  159.4091 H   0  0  0  0  0  0  0  0  0  0  0  0  # atno 6908 bound_to 6896
  150.6908  134.4028  159.5171 H   0  0  0  0  0  0  0  0  0  0  0  0  # atno 6909 bound_to 6896
  145.6845  139.2533  143.1795 H   0  0  0  0  0  0  0  0  0  0  0  0  # atno 7974 bound_to 7965
  156.0565  140.1338  156.9990 H   0  0  0  0  0  0  0  0  0  0  0  0  # atno 8008 bound_to 7997
  154.4460  140.1000  156.6525 H   0  0  0  0  0  0  0  0  0  0  0  0  # atno 8009 bound_to 7997
  155.5443  140.3461  155.4456 H   0  0  0  0  0  0  0  0  0  0  0  0  # atno 8010 bound_to 7997
  140.4160  144.1526  150.6143 H   0  0  0  0  0  0  0  0  0  0  0  0  # atno 10167 bound_to 10162
  156.0642  130.5862  150.8361 H   0  0  0  0  0  0  0  0  0  0  0  0  # atno 10718 bound_to 10713
  153.7942  135.3151  155.3382 H   0  0  0  0  0  0  0  0  0  0  0  0  # atno 10763 bound_to 10752
  154.8114  135.4664  154.0530 H   0  0  0  0  0  0  0  0  0  0  0  0  # atno 10764 bound_to 10752
  153.1857  135.6900  153.8505 H   0  0  0  0  0  0  0  0  0  0  0  0  # atno 10765 bound_to 10752
  140.0092  134.9446  157.0242 H   0  0  0  0  0  0  0  0  0  0  0  0  # atno 11005 bound_to 11000
  146.0935  140.7627  142.9583 LP  0  0  0  0  0  0  0  0  0  0  0  0  # atno 17320 bound_to 7965
  144.7015  140.3675  143.7152 LP  0  0  0  0  0  0  0  0  0  0  0  0  # atno 17321 bound_to 7965
  140.4585  143.2458  151.9251 LP  0  0  0  0  0  0  0  0  0  0  0  0  # atno 17342 bound_to 10162
  139.4782  144.5491  151.8413 LP  0  0  0  0  0  0  0  0  0  0  0  0  # atno 17343 bound_to 10162
  157.5672  131.0946  150.9472 LP  0  0  0  0  0  0  0  0  0  0  0  0  # atno 17370 bound_to 10713
  156.9696  130.5486  149.5290 LP  0  0  0  0  0  0  0  0  0  0  0  0  # atno 17371 bound_to 10713
  140.4585  134.1509  155.7188 LP  0  0  0  0  0  0  0  0  0  0  0  0  # atno 17394 bound_to 11000
  141.1699  133.8629  157.1602 LP  0  0  0  0  0  0  0  0  0  0  0  0  # atno 17395 bound_to 11000

$$$$
