AV-unprocessed.smi:2735|AV-procd|sdf|10543|dock9
  -GOLD-   2272014593D 1   1.00000     0.00000
 Structure written by MMmdl.
 42 42  0  0  0  0  0  0  0  0  2 V2000
  146.7218  131.2439  153.8039 C   0  0  0  0  0  0  0  0  0  0  0  0
  147.5219  132.3076  154.4957 C   0  0  0  0  0  0  0  0  0  0  0  0
  148.9354  132.4480  154.5577 C   0  0  0  0  0  0  0  0  0  0  0  0
  149.1304  133.5822  155.2941 C   0  0  0  0  0  0  0  0  0  0  0  0
  150.4037  134.2608  155.6820 C   0  0  0  0  0  0  0  0  0  0  0  0
  147.8775  134.0567  155.6500 N   0  0  0  0  0  0  0  0  0  0  0  0
  147.5285  135.2751  156.3832 C   0  0  2  0  0  0  0  0  0  0  0  0
  147.9906  136.5477  155.6429 C   0  0  0  0  0  0  0  0  0  0  0  0
  148.0516  135.1934  157.8282 C   0  0  0  0  0  0  0  0  0  0  0  0
  149.2467  135.0088  158.0622 O   0  0  0  0  0  0  0  0  0  0  0  0
  147.1259  135.3245  158.7910 N   0  0  0  0  0  0  0  0  0  0  0  0
  147.3545  135.2164  160.2291 C   0  0  2  0  0  0  0  0  0  0  0  0
  146.2198  134.3636  160.8474 C   0  0  0  0  0  0  0  0  0  0  0  0
  146.2580  134.2302  162.3889 C   0  0  0  0  0  0  0  0  0  0  0  0
  147.6771  133.8861  162.8655 C   0  0  0  0  0  0  0  0  0  0  0  0
  145.2459  133.2019  162.9206 C   0  0  0  0  0  0  0  0  0  0  0  0
  147.3136  136.6149  160.8656 C   0  0  0  0  0  0  0  0  0  0  0  0
  146.3005  137.3108  160.6367 O   0  0  0  0  0  0  0  0  0  0  0  0
  148.2923  136.9704  161.5614 O   0  5  0  0  0  0  0  0  0  0  0  0
  146.8956  133.2725  155.1463 N   0  0  0  0  0  0  0  0  0  0  0  0
  148.3234  134.7571  160.4319 H   0  0  0  0  0  0  0  0  0  0  0  0
  147.3555  130.6253  153.1680 H   0  0  0  0  0  0  0  0  0  0  0  0
  145.9473  131.6813  153.1731 H   0  0  0  0  0  0  0  0  0  0  0  0
  146.2346  130.5885  154.5263 H   0  0  0  0  0  0  0  0  0  0  0  0
  149.6930  131.8168  154.1175 H   0  0  0  0  0  0  0  0  0  0  0  0
  151.2666  133.7238  155.2881 H   0  0  0  0  0  0  0  0  0  0  0  0
  150.5056  134.3066  156.7663 H   0  0  0  0  0  0  0  0  0  0  0  0
  150.4387  135.2781  155.2927 H   0  0  0  0  0  0  0  0  0  0  0  0
  146.4416  135.3255  156.4490 H   0  0  0  0  0  0  0  0  0  0  0  0
  147.6480  137.4472  156.1560 H   0  0  0  0  0  0  0  0  0  0  0  0
  147.5856  136.5767  154.6311 H   0  0  0  0  0  0  0  0  0  0  0  0
  149.0772  136.6053  155.5658 H   0  0  0  0  0  0  0  0  0  0  0  0
  146.1732  135.4944  158.5046 H   0  0  0  0  0  0  0  0  0  0  0  0
  145.2570  134.7851  160.5534 H   0  0  0  0  0  0  0  0  0  0  0  0
  146.2469  133.3600  160.4185 H   0  0  0  0  0  0  0  0  0  0  0  0
  146.0067  135.1960  162.8288 H   0  0  0  0  0  0  0  0  0  0  0  0
  148.0034  132.9220  162.4741 H   0  0  0  0  0  0  0  0  0  0  0  0
  147.7263  133.8384  163.9537 H   0  0  0  0  0  0  0  0  0  0  0  0
  148.3950  134.6389  162.5386 H   0  0  0  0  0  0  0  0  0  0  0  0
  145.4080  132.2192  162.4770 H   0  0  0  0  0  0  0  0  0  0  0  0
  144.2203  133.5023  162.7058 H   0  0  0  0  0  0  0  0  0  0  0  0
  145.3267  133.0968  164.0028 H   0  0  0  0  0  0  0  0  0  0  0  0
  1  2  1  0  0  0  0
  1 22  1  0  0  0  0
  1 23  1  0  0  0  0
  1 24  1  0  0  0  0
  2 20  2  0  0  0  0
  2  3  1  0  0  0  0
  3  4  2  0  0  0  0
  3 25  1  0  0  0  0
  4  5  1  0  0  0  0
  4  6  1  0  0  0  0
  5 26  1  0  0  0  0
  5 27  1  0  0  0  0
  5 28  1  0  0  0  0
  6  7  1  0  0  0  0
  6 20  1  0  0  0  0
  7  8  1  0  0  0  0
  7  9  1  0  0  0  0
  7 29  1  0  0  0  0
  8 30  1  0  0  0  0
  8 31  1  0  0  0  0
  8 32  1  0  0  0  0
  9 10  2  0  0  0  0
  9 11  1  0  0  0  0
 11 12  1  0  0  0  0
 11 33  1  0  0  0  0
 12 21  1  0  0  0  0
 12 13  1  0  0  0  0
 12 17  1  0  0  0  0
 13 14  1  0  0  0  0
 13 34  1  0  0  0  0
 13 35  1  0  0  0  0
 14 15  1  0  0  0  0
 14 16  1  0  0  0  0
 14 36  1  0  0  0  0
 15 37  1  0  0  0  0
 15 38  1  0  0  0  0
 15 39  1  0  0  0  0
 16 40  1  0  0  0  0
 16 41  1  0  0  0  0
 16 42  1  0  0  0  0
 17 18  2  0  0  0  0
 17 19  1  0  0  0  0
M  CHG  1  19  -1
M  END
> <s_m_source_file>
AV-unprocessed.smi

> <i_m_source_file_index>
2735

> <i_lp_mmshare_version>
43012

> <i_f3d_flags>
0

> <s_epik_input>
W0NIM11jMVtjSF1jKFtDSDNdKW4objEpW0NASF0oW0NIM10pQyg9TylbTkhdW0NASF0oQyg9TylbT0hdKVtDSDJdW0NIXShbQ0gzXSlbQ0gzXQ==

> <s_epik_cmdline>
J2VwaWtfcHl0aG9uJywgJy1waCcsICc3LjAnLCAnLXRuJywgJzgnLCAnLW1hJywgJzIwMCcsICctbWV0YWxfYmluZGluZycsICctaW1hZScsICc8aW5maWxlLm1hZT4nLCAnLW9tYWUnLCAnPG91dGZpbGUubWFlPic=

> <r_lp_tautomer_probability>
1

> <r_epik_Ionization_Penalty>
0.0012303

> <r_epik_Ionization_Penalty_Charging>
0.000186407

> <r_epik_Ionization_Penalty_Neutral>
0.0010439

> <r_epik_State_Penalty>
-0

> <r_epik_Charging_Adjusted_Penalty>
0.000186407

> <i_epik_Tot_Q>
-1

> <i_epik_Tot_abs_Q>
1

> <r_epik_Metal_State_Penalty>
-0

> <b_epik_Metal_Only>
0

> <s_lp_Force_Field>
OPLS_2005

> <r_lp_Energy>
6.45659

> <b_lp_Chiralities_Consistent>
1

> <s_lp_Variant>
AV-unprocessed.smi:2735-3

> <Gold.Version>
5.8.1

> <Gold.Id.Protein>
6NUR|6NUR_protein|mol2

> <Gold.PLP.Fitness>
41.4390

> <Gold.PLP.PLP>
-27.1277

> <Gold.PLP.part.hbond>
-3.2238

> <Gold.PLP.part.metal>
0.0000

> <Gold.PLP.part.buried>
-3.0111

> <Gold.PLP.part.nonpolar>
-20.9984

> <Gold.PLP.part.repulsive>
0.0993

> <Gold.PLP.ligand.clash>
0.0000

> <Gold.PLP.ligand.torsion>
0.4448

> <Gold.PLP.Chemscore.Hbond>
5.0000

> <Gold.PLP.Chemscore.CHOScore>
0.0000

> <Gold.PLP.Chemscore.Metal>
0.0000

> <Gold.Chemscore.Hbonds>
donor molecule, donor type, donor heavy atom, donor atom, acceptor molecule, acceptor atom, score
      P1  H  6896  6909       L1    10  0.91
      P1  H  6931  6943       L1    19  1.92
      P1  H  6934  6947       L1    18  1.60

> <Gold.PLP.Chemscore.Internal.Correction>
0.2008

> <Gold.Rescore>
     Score         DG    S(hbond)    S(metal)    S(lipo)     H(rot)  DE(clash)    DE(int)     intcor
     14.71     -16.09       2.78        0.00      60.32       2.24       0.01       1.36       ----

> <Gold.Chemscore.Fitness>
14.7118

> <Gold.Chemscore.DG>
-16.0854

> <Gold.Chemscore.ZeroCoef>
-5.4800

> <Gold.Chemscore.Hbond>
2.7783

> <Gold.Chemscore.Metal>
0.0000

> <Gold.Chemscore.Lipo>
60.3182

> <Gold.Chemscore.Internal_Hbond>
0.0000

> <Gold.Chemscore.DEClash>
0.0089

> <Gold.Chemscore.DEInternal>
1.3648

> <Gold.Chemscore.Rot>
2.2388

> <Gold.Chemscore.Internal.Correction>
   9.000000E+99

> <Gold.Chemscore.Hbonds>
donor molecule, donor type, donor heavy atom, donor atom, acceptor molecule, acceptor atom, score
      P1  H  6896  6909       L1    10  0.87
      P1  H  6931  6943       L1    19  0.91
      P1  H  6934  6947       L1    18  0.12

> <Gold.Chemscore.Hbond.Weighted>
-9.2795

> <Gold.Chemscore.Metal.Weighted>
-0.0000

> <Gold.Chemscore.Lipo.Weighted>
-7.0572

> <Gold.Chemscore.Internal_Hbond.Weighted>
0.0000

> <Gold.Chemscore.DEClash.Weighted>
0.0089

> <Gold.Chemscore.DEInternal.Weighted>
1.3648

> <Gold.Chemscore.Rot.Weighted>
5.7314

> <Gold.Chemscore.Internal.Correction.Weighted>
   9.000000E+99

> <Gold.Protein.RotatedTorsions>
[ 6907 6896 6895 6894 ] final   39.74 input  -60.11 | X-H torsion
[ 7974 7965 7964 7962 ] final   94.45 input  175.53 | X-H torsion
[ 8008 7997 7996 7995 ] final  178.96 input   59.86 | X-H torsion
[ 10167 10162 10161 10158 ] final -169.95 input  -65.29 | X-H torsion
[ 10718 10713 10712 10709 ] final  -65.24 input   66.30 | X-H torsion
[ 10763 10752 10751 10750 ] final   73.18 input  -60.55 | X-H torsion
[ 11005 11000 10999 10996 ] final    3.02 input  -57.11 | X-H torsion

> <Gold.Protein.ActiveResidues>
 VAL166  LYS551  ARG553  GLY616  TRP617  ASP618  TYR619  PRO620  LYS621  CYS622 
 ASP623  PHE694  ASN695  SER759  ASP760  ASP761  ALA762  ILE779  LEU786  VAL792 
 PHE793  MET794  SER795  GLU796  ALA797  LYS798  CYS799  TRP800  GLU811  SER814 

> <Gold.Protein.RotatedAtoms>
  152.1734  134.8815  160.0532 H   0  0  0  0  0  0  0  0  0  0  0  0  # atno 6907 bound_to 6896
  151.9766  133.3738  159.4099 H   0  0  0  0  0  0  0  0  0  0  0  0  # atno 6908 bound_to 6896
  150.6905  134.4006  159.5161 H   0  0  0  0  0  0  0  0  0  0  0  0  # atno 6909 bound_to 6896
  145.4654  139.2284  143.2964 H   0  0  0  0  0  0  0  0  0  0  0  0  # atno 7974 bound_to 7965
  156.0488  140.1320  157.0073 H   0  0  0  0  0  0  0  0  0  0  0  0  # atno 8008 bound_to 7997
  154.4425  140.1015  156.6416 H   0  0  0  0  0  0  0  0  0  0  0  0  # atno 8009 bound_to 7997
  155.5555  140.3464  155.4481 H   0  0  0  0  0  0  0  0  0  0  0  0  # atno 8010 bound_to 7997
  139.5891  144.1252  152.1612 H   0  0  0  0  0  0  0  0  0  0  0  0  # atno 10167 bound_to 10162
  156.0681  130.4244  150.1536 H   0  0  0  0  0  0  0  0  0  0  0  0  # atno 10718 bound_to 10713
  153.0505  135.5072  154.7855 H   0  0  0  0  0  0  0  0  0  0  0  0  # atno 10763 bound_to 10752
  154.6721  135.2954  154.9730 H   0  0  0  0  0  0  0  0  0  0  0  0  # atno 10764 bound_to 10752
  154.0545  135.6699  153.4857 H   0  0  0  0  0  0  0  0  0  0  0  0  # atno 10765 bound_to 10752
  140.5978  133.9864  155.8118 H   0  0  0  0  0  0  0  0  0  0  0  0  # atno 11005 bound_to 11000
  146.2427  140.5427  142.8927 LP  0  0  0  0  0  0  0  0  0  0  0  0  # atno 17320 bound_to 7965
  144.7977  140.6154  143.6499 LP  0  0  0  0  0  0  0  0  0  0  0  0  # atno 17321 bound_to 7965
  140.0822  144.5691  150.7114 LP  0  0  0  0  0  0  0  0  0  0  0  0  # atno 17342 bound_to 10162
  140.7158  143.2543  151.4439 LP  0  0  0  0  0  0  0  0  0  0  0  0  # atno 17343 bound_to 10162
  156.9592  130.9799  151.3482 LP  0  0  0  0  0  0  0  0  0  0  0  0  # atno 17370 bound_to 10713
  157.5735  130.8327  149.8424 LP  0  0  0  0  0  0  0  0  0  0  0  0  # atno 17371 bound_to 10713
  141.0892  133.9942  157.3264 LP  0  0  0  0  0  0  0  0  0  0  0  0  # atno 17394 bound_to 11000
  139.9246  135.0201  156.8187 LP  0  0  0  0  0  0  0  0  0  0  0  0  # atno 17395 bound_to 11000

$$$$
