AV-unprocessed.smi:3049|AV-procd|sdf|11630|dock2
  -GOLD-   2272017 13D 1   1.00000     0.00000
 Structure written by MMmdl.
 52 53  0  0  0  0  0  0  0  0  2 V2000
  152.0711  139.5770  157.5244 C   0  0  0  0  0  0  0  0  0  0  0  0
  152.0405  140.9898  158.1301 C   0  0  0  0  0  0  0  0  0  0  0  0
  150.9495  141.9128  157.5301 C   0  0  0  0  0  0  0  0  0  0  0  0
  150.9968  143.3319  158.1411 C   0  0  0  0  0  0  0  0  0  0  0  0
  152.3977  143.9597  158.1475 C   0  0  0  0  0  0  0  0  0  0  0  0
  149.5290  141.3252  157.7058 C   0  0  0  0  0  0  0  0  0  0  0  0
  149.1054  141.1647  158.8517 O   0  0  0  0  0  0  0  0  0  0  0  0
  148.7981  140.9715  156.6186 N   0  0  0  0  0  0  0  0  0  0  0  0
  149.1636  141.1910  155.2144 C   0  0  0  0  0  0  0  0  0  0  0  0
  149.5692  139.8390  154.6028 C   0  0  0  0  0  0  0  0  0  0  0  0
  148.4250  138.8089  154.7364 C   0  0  0  0  0  0  0  0  0  0  0  0
  148.9027  137.4897  154.3340 N   0  0  0  0  0  0  0  0  0  0  0  0
  149.7382  136.7185  155.0444 C   0  0  0  0  0  0  0  0  0  0  0  0
  150.1890  137.0458  156.1418 O   0  0  0  0  0  0  0  0  0  0  0  0
  150.0147  135.5792  154.3848 N   0  0  0  0  0  0  0  0  0  0  0  0
  150.8081  134.4986  154.7935 C   0  0  0  0  0  0  0  0  0  0  0  0
  151.6150  134.4232  155.9207 C   0  0  0  0  0  0  0  0  0  0  0  0
  152.3695  133.3842  156.3428 N   0  5  0  0  0  0  0  0  0  0  0  0
  152.3687  132.2389  155.6023 C   0  0  0  0  0  0  0  0  0  0  0  0
  153.0326  131.2557  155.9286 O   0  0  0  0  0  0  0  0  0  0  0  0
  151.5463  132.1849  154.3776 C   0  0  0  0  0  0  0  0  0  0  0  0
  151.5461  130.9097  153.5519 C   0  0  0  0  0  0  0  0  0  0  0  0
  150.8155  133.2682  154.0166 C   0  0  0  0  0  0  0  0  0  0  0  0
  147.8606  138.7631  156.1771 C   0  0  0  0  0  0  0  0  0  0  0  0
  147.5696  140.1749  156.7190 C   0  0  0  0  0  0  0  0  0  0  0  0
  152.8925  138.9961  157.9440 H   0  0  0  0  0  0  0  0  0  0  0  0
  152.2121  139.6163  156.4439 H   0  0  0  0  0  0  0  0  0  0  0  0
  151.1497  139.0290  157.7222 H   0  0  0  0  0  0  0  0  0  0  0  0
  151.9265  140.9194  159.2127 H   0  0  0  0  0  0  0  0  0  0  0  0
  153.0211  141.4369  157.9701 H   0  0  0  0  0  0  0  0  0  0  0  0
  151.1832  141.9783  156.4691 H   0  0  0  0  0  0  0  0  0  0  0  0
  150.3387  143.9993  157.5820 H   0  0  0  0  0  0  0  0  0  0  0  0
  150.6039  143.3110  159.1586 H   0  0  0  0  0  0  0  0  0  0  0  0
  152.3598  144.9788  158.5326 H   0  0  0  0  0  0  0  0  0  0  0  0
  152.8146  144.0028  157.1410 H   0  0  0  0  0  0  0  0  0  0  0  0
  153.0904  143.4000  158.7753 H   0  0  0  0  0  0  0  0  0  0  0  0
  148.3010  141.5902  154.6785 H   0  0  0  0  0  0  0  0  0  0  0  0
  149.9423  141.9383  155.0723 H   0  0  0  0  0  0  0  0  0  0  0  0
  149.8353  139.9686  153.5532 H   0  0  0  0  0  0  0  0  0  0  0  0
  150.4646  139.4717  155.1072 H   0  0  0  0  0  0  0  0  0  0  0  0
  147.6233  139.1217  154.0645 H   0  0  0  0  0  0  0  0  0  0  0  0
  148.5844  137.1433  153.4411 H   0  0  0  0  0  0  0  0  0  0  0  0
  149.6082  135.4820  153.4660 H   0  0  0  0  0  0  0  0  0  0  0  0
  151.6499  135.2941  156.6050 H   0  0  0  0  0  0  0  0  0  0  0  0
  150.8928  130.9988  152.6835 H   0  0  0  0  0  0  0  0  0  0  0  0
  151.1982  130.0676  154.1505 H   0  0  0  0  0  0  0  0  0  0  0  0
  152.5522  130.6874  153.1953 H   0  0  0  0  0  0  0  0  0  0  0  0
  150.2177  133.2209  153.1180 H   0  0  0  0  0  0  0  0  0  0  0  0
  146.9519  138.1606  156.2066 H   0  0  0  0  0  0  0  0  0  0  0  0
  148.5771  138.2713  156.8371 H   0  0  0  0  0  0  0  0  0  0  0  0
  147.1865  140.1069  157.7380 H   0  0  0  0  0  0  0  0  0  0  0  0
  146.7764  140.6458  156.1367 H   0  0  0  0  0  0  0  0  0  0  0  0
  1  2  1  0  0  0  0
  1 26  1  0  0  0  0
  1 27  1  0  0  0  0
  1 28  1  0  0  0  0
  2  3  1  0  0  0  0
  2 29  1  0  0  0  0
  2 30  1  0  0  0  0
  3  4  1  0  0  0  0
  3  6  1  0  0  0  0
  3 31  1  0  0  0  0
  4  5  1  0  0  0  0
  4 32  1  0  0  0  0
  4 33  1  0  0  0  0
  5 34  1  0  0  0  0
  5 35  1  0  0  0  0
  5 36  1  0  0  0  0
  6  7  2  0  0  0  0
  6  8  1  0  0  0  0
  8 25  1  0  0  0  0
  8  9  1  0  0  0  0
  9 10  1  0  0  0  0
  9 37  1  0  0  0  0
  9 38  1  0  0  0  0
 10 11  1  0  0  0  0
 10 39  1  0  0  0  0
 10 40  1  0  0  0  0
 11 12  1  0  0  0  0
 11 24  1  0  0  0  0
 11 41  1  0  0  0  0
 12 13  1  0  0  0  0
 12 42  1  0  0  0  0
 13 14  2  0  0  0  0
 13 15  1  0  0  0  0
 15 16  1  0  0  0  0
 15 43  1  0  0  0  0
 16 23  1  0  0  0  0
 16 17  2  0  0  0  0
 17 18  1  0  0  0  0
 17 44  1  0  0  0  0
 18 19  1  0  0  0  0
 19 20  2  0  0  0  0
 19 21  1  0  0  0  0
 21 22  1  0  0  0  0
 21 23  2  0  0  0  0
 22 45  1  0  0  0  0
 22 46  1  0  0  0  0
 22 47  1  0  0  0  0
 23 48  1  0  0  0  0
 24 25  1  0  0  0  0
 24 49  1  0  0  0  0
 24 50  1  0  0  0  0
 25 51  1  0  0  0  0
 25 52  1  0  0  0  0
M  CHG  1  18  -1
M  END
> <s_m_source_file>
AV-unprocessed.smi

> <i_m_source_file_index>
3049

> <i_lp_mmshare_version>
43012

> <i_f3d_flags>
0

> <s_epik_input>
W0NIM11bQ0gyXVtDSF0oW0NIMl1bQ0gzXSlDKD1PKU4xW0NIMl1bQ0gyXVtDSF0oW0NIMl1bQ0gyXTEpW05IXUMoPU8pW05IXWMyW2NIXVtuSF1jKD1PKWMoW0NIM10pW2NIXTI=

> <s_epik_cmdline>
J2VwaWtfcHl0aG9uJywgJy1waCcsICc3LjAnLCAnLXRuJywgJzgnLCAnLW1hJywgJzIwMCcsICctbWV0YWxfYmluZGluZycsICctaW1hZScsICc8aW5maWxlLm1hZT4nLCAnLW9tYWUnLCAnPG91dGZpbGUubWFlPic=

> <r_lp_tautomer_probability>
1

> <r_epik_Ionization_Penalty>
7.58311

> <r_epik_Ionization_Penalty_Charging>
1.51652

> <r_epik_Ionization_Penalty_Neutral>
6.06659

> <r_epik_State_Penalty>
6.06654

> <r_epik_Charging_Adjusted_Penalty>
7.58305

> <i_epik_Tot_Q>
-1

> <i_epik_Tot_abs_Q>
1

> <r_epik_Metal_State_Penalty>
2.01464

> <b_epik_Metal_Only>
1

> <s_lp_Force_Field>
OPLS_2005

> <r_lp_Energy>
39.554

> <b_lp_Chiralities_Consistent>
1

> <s_lp_Variant>
AV-unprocessed.smi:3049-2

> <Gold.Version>
5.8.1

> <Gold.Id.Protein>
6NUR|6NUR_protein|mol2

> <Gold.PLP.Fitness>
50.3676

> <Gold.PLP.PLP>
-39.1267

> <Gold.PLP.part.hbond>
-3.0000

> <Gold.PLP.part.metal>
0.0000

> <Gold.PLP.part.buried>
-4.4476

> <Gold.PLP.part.nonpolar>
-31.2572

> <Gold.PLP.part.repulsive>
0.1340

> <Gold.PLP.ligand.clash>
0.0000

> <Gold.PLP.ligand.torsion>
0.2194

> <Gold.PLP.Chemscore.Hbond>
3.8240

> <Gold.PLP.Chemscore.CHOScore>
0.0000

> <Gold.PLP.Chemscore.Metal>
0.0000

> <Gold.Chemscore.Hbonds>
donor molecule, donor type, donor heavy atom, donor atom, acceptor molecule, acceptor atom, score
      L1  H    12    42       P1  7948  0.96
      L1  H    15    43       P1  7948  0.70

> <Gold.PLP.Chemscore.Internal.Correction>
0.2077

> <Gold.Rescore>
     Score         DG    S(hbond)    S(metal)    S(lipo)     H(rot)  DE(clash)    DE(int)     intcor
     18.62     -21.07       2.64        0.00      91.55       1.54       0.02       2.43       ----

> <Gold.Chemscore.Fitness>
18.6228

> <Gold.Chemscore.DG>
-21.0739

> <Gold.Chemscore.ZeroCoef>
-5.4800

> <Gold.Chemscore.Hbond>
2.6398

> <Gold.Chemscore.Metal>
0.0000

> <Gold.Chemscore.Lipo>
91.5470

> <Gold.Chemscore.Internal_Hbond>
0.0000

> <Gold.Chemscore.DEClash>
0.0239

> <Gold.Chemscore.DEInternal>
2.4273

> <Gold.Chemscore.Rot>
1.5367

> <Gold.Chemscore.Internal.Correction>
   9.000000E+99

> <Gold.Chemscore.Hbonds>
donor molecule, donor type, donor heavy atom, donor atom, acceptor molecule, acceptor atom, score
      L1  H    12    42       P1  7948  0.92
      L1  H    15    43       P1  7948  0.07

> <Gold.Chemscore.Hbond.Weighted>
-8.8169

> <Gold.Chemscore.Metal.Weighted>
-0.0000

> <Gold.Chemscore.Lipo.Weighted>
-10.7110

> <Gold.Chemscore.Internal_Hbond.Weighted>
0.0000

> <Gold.Chemscore.DEClash.Weighted>
0.0239

> <Gold.Chemscore.DEInternal.Weighted>
2.4273

> <Gold.Chemscore.Rot.Weighted>
3.9340

> <Gold.Chemscore.Internal.Correction.Weighted>
   9.000000E+99

> <Gold.Protein.RotatedTorsions>
[ 6907 6896 6895 6894 ] final   96.90 input  -60.11 | X-H torsion
[ 7974 7965 7964 7962 ] final   69.41 input  175.53 | X-H torsion
[ 8008 7997 7996 7995 ] final -141.58 input   59.86 | X-H torsion
[ 10167 10162 10161 10158 ] final  -83.61 input  -65.29 | X-H torsion
[ 10718 10713 10712 10709 ] final   20.12 input   66.30 | X-H torsion
[ 10763 10752 10751 10750 ] final   53.39 input  -60.55 | X-H torsion
[ 11005 11000 10999 10996 ] final  -54.98 input  -57.11 | X-H torsion

> <Gold.Protein.ActiveResidues>
 VAL166  LYS551  ARG553  GLY616  TRP617  ASP618  TYR619  PRO620  LYS621  CYS622 
 ASP623  PHE694  ASN695  SER759  ASP760  ASP761  ALA762  ILE779  LEU786  VAL792 
 PHE793  MET794  SER795  GLU796  ALA797  LYS798  CYS799  TRP800  GLU811  SER814 

> <Gold.Protein.RotatedAtoms>
  152.5430  134.0816  159.8237 H   0  0  0  0  0  0  0  0  0  0  0  0  # atno 6907 bound_to 6896
  151.0917  133.5303  159.2622 H   0  0  0  0  0  0  0  0  0  0  0  0  # atno 6908 bound_to 6896
  151.2092  135.0483  159.8958 H   0  0  0  0  0  0  0  0  0  0  0  0  # atno 6909 bound_to 6896
  145.7908  139.2933  143.1211 H   0  0  0  0  0  0  0  0  0  0  0  0  # atno 7974 bound_to 7965
  155.4802  140.0559  157.2968 H   0  0  0  0  0  0  0  0  0  0  0  0  # atno 8008 bound_to 7997
  154.4663  140.2020  156.0062 H   0  0  0  0  0  0  0  0  0  0  0  0  # atno 8009 bound_to 7997
  156.0980  140.3223  155.7908 H   0  0  0  0  0  0  0  0  0  0  0  0  # atno 8010 bound_to 7997
  140.4210  143.2584  151.8889 H   0  0  0  0  0  0  0  0  0  0  0  0  # atno 10167 bound_to 10162
  157.1200  130.6546  149.5921 H   0  0  0  0  0  0  0  0  0  0  0  0  # atno 10718 bound_to 10713
  152.9795  135.5780  154.4733 H   0  0  0  0  0  0  0  0  0  0  0  0  # atno 10763 bound_to 10752
  154.4293  135.2773  155.1925 H   0  0  0  0  0  0  0  0  0  0  0  0  # atno 10764 bound_to 10752
  154.3641  135.6182  153.5759 H   0  0  0  0  0  0  0  0  0  0  0  0  # atno 10765 bound_to 10752
  141.1052  133.6614  156.4402 H   0  0  0  0  0  0  0  0  0  0  0  0  # atno 11005 bound_to 11000
  145.9979  140.8546  143.0033 LP  0  0  0  0  0  0  0  0  0  0  0  0  # atno 17320 bound_to 7965
  144.6782  140.2310  143.7355 LP  0  0  0  0  0  0  0  0  0  0  0  0  # atno 17321 bound_to 7965
  139.4782  144.5437  151.8490 LP  0  0  0  0  0  0  0  0  0  0  0  0  # atno 17342 bound_to 10162
  140.4533  144.1824  150.5899 LP  0  0  0  0  0  0  0  0  0  0  0  0  # atno 17343 bound_to 10162
  155.9830  130.4848  150.6913 LP  0  0  0  0  0  0  0  0  0  0  0  0  # atno 17370 bound_to 10713
  157.4484  131.0869  151.0871 LP  0  0  0  0  0  0  0  0  0  0  0  0  # atno 17371 bound_to 10713
  140.4920  134.6566  157.5214 LP  0  0  0  0  0  0  0  0  0  0  0  0  # atno 17394 bound_to 11000
  139.9919  134.6971  155.9675 LP  0  0  0  0  0  0  0  0  0  0  0  0  # atno 17395 bound_to 11000

$$$$
