AV-unprocessed.smi:2476|AV-procd|sdf|9758|dock6
  -GOLD-   2272013403D 1   1.00000     0.00000
 Structure written by MMmdl.
 34 35  0  0  0  0  0  0  0  0  1 V2000
  146.8162  139.0060  151.9664 C   0  0  0  0  0  0  0  0  0  0  0  0
  146.9924  139.6719  153.3271 C   0  0  0  0  0  0  0  0  0  0  0  0
  146.2439  139.3739  154.2571 O   0  0  0  0  0  0  0  0  0  0  0  0
  147.9827  140.5709  153.4312 N   0  0  0  0  0  0  0  0  0  0  0  0
  148.3205  141.3100  154.6433 C   0  0  0  0  0  0  0  0  0  0  0  0
  149.7977  141.1418  155.0444 C   0  0  1  0  0  0  0  0  0  0  0  0
  150.1084  141.6961  156.4515 C   0  0  0  0  0  0  0  0  0  0  0  0
  151.4935  141.4153  156.8076 N   0  0  0  0  0  0  0  0  0  0  0  0
  151.8907  141.9965  158.0210 C   0  0  0  0  0  0  0  0  0  0  0  0
  152.1956  141.1751  159.0555 N   0  0  0  0  0  0  0  0  0  0  0  0
  152.5813  141.7322  160.2237 C   0  0  0  0  0  0  0  0  0  0  0  0
  152.6817  143.1233  160.4212 C   0  0  0  0  0  0  0  0  0  0  0  0
  152.3635  143.9752  159.3464 C   0  0  0  0  0  0  0  0  0  0  0  0
  151.9606  143.4036  158.1237 C   0  0  0  0  0  0  0  0  0  0  0  0
  151.6480  144.1956  157.0697 F   0  0  0  0  0  0  0  0  0  0  0  0
  151.8195  139.9990  156.7052 C   0  0  0  0  0  0  0  0  0  0  0  0
  151.4711  139.4827  155.2996 C   0  0  0  0  0  0  0  0  0  0  0  0
  150.0989  139.7479  155.0220 O   0  0  0  0  0  0  0  0  0  0  0  0
  147.7232  139.0823  151.3655 H   0  0  0  0  0  0  0  0  0  0  0  0
  145.9997  139.4778  151.4196 H   0  0  0  0  0  0  0  0  0  0  0  0
  146.5799  137.9489  152.0902 H   0  0  0  0  0  0  0  0  0  0  0  0
  148.5446  140.7553  152.6127 H   0  0  0  0  0  0  0  0  0  0  0  0
  148.1018  142.3640  154.4692 H   0  0  0  0  0  0  0  0  0  0  0  0
  147.6702  140.9932  155.4605 H   0  0  0  0  0  0  0  0  0  0  0  0
  150.4253  141.6453  154.3065 H   0  0  0  0  0  0  0  0  0  0  0  0
  149.9399  142.7732  156.4812 H   0  0  0  0  0  0  0  0  0  0  0  0
  149.4402  141.2433  157.1855 H   0  0  0  0  0  0  0  0  0  0  0  0
  152.8178  141.0483  161.0256 H   0  0  0  0  0  0  0  0  0  0  0  0
  152.9950  143.5261  161.3730 H   0  0  0  0  0  0  0  0  0  0  0  0
  152.4278  145.0475  159.4575 H   0  0  0  0  0  0  0  0  0  0  0  0
  152.8802  139.8472  156.9089 H   0  0  0  0  0  0  0  0  0  0  0  0
  151.2614  139.4361  157.4549 H   0  0  0  0  0  0  0  0  0  0  0  0
  152.1044  139.9508  154.5442 H   0  0  0  0  0  0  0  0  0  0  0  0
  151.6444  138.4083  155.2403 H   0  0  0  0  0  0  0  0  0  0  0  0
  1  2  1  0  0  0  0
  1 19  1  0  0  0  0
  1 20  1  0  0  0  0
  1 21  1  0  0  0  0
  2  3  2  0  0  0  0
  2  4  1  0  0  0  0
  4  5  1  0  0  0  0
  4 22  1  0  0  0  0
  5  6  1  0  0  0  0
  5 23  1  0  0  0  0
  5 24  1  0  0  0  0
  6 18  1  0  0  0  0
  6  7  1  0  0  0  0
  6 25  1  0  0  0  0
  7  8  1  0  0  0  0
  7 26  1  0  0  0  0
  7 27  1  0  0  0  0
  8  9  1  0  0  0  0
  8 16  1  0  0  0  0
  9 14  1  0  0  0  0
  9 10  2  0  0  0  0
 10 11  1  0  0  0  0
 11 12  2  0  0  0  0
 11 28  1  0  0  0  0
 12 13  1  0  0  0  0
 12 29  1  0  0  0  0
 13 14  2  0  0  0  0
 13 30  1  0  0  0  0
 14 15  1  0  0  0  0
 16 17  1  0  0  0  0
 16 31  1  0  0  0  0
 16 32  1  0  0  0  0
 17 18  1  0  0  0  0
 17 33  1  0  0  0  0
 17 34  1  0  0  0  0
M  END
> <s_m_source_file>
AV-unprocessed.smi

> <i_m_source_file_index>
2476

> <i_lp_mmshare_version>
43012

> <i_f3d_flags>
0

> <s_epik_input>
W0NIM11DKD1PKVtOSF1bQ0gyXVtDQEBIXTFbQ0gyXU4oW0NIMl1bQ0gyXU8xKWMybltjSF1bY0hdW2NIXWMyRg==

> <s_epik_cmdline>
J2VwaWtfcHl0aG9uJywgJy1waCcsICc3LjAnLCAnLXRuJywgJzgnLCAnLW1hJywgJzIwMCcsICctbWV0YWxfYmluZGluZycsICctaW1hZScsICc8aW5maWxlLm1hZT4nLCAnLW9tYWUnLCAnPG91dGZpbGUubWFlPic=

> <r_lp_tautomer_probability>
1

> <r_epik_Ionization_Penalty>
1.69306e-05

> <r_epik_Ionization_Penalty_Charging>
0

> <r_epik_Ionization_Penalty_Neutral>
1.69306e-05

> <r_epik_State_Penalty>
-0

> <r_epik_Charging_Adjusted_Penalty>
0

> <i_epik_Tot_Q>
0

> <i_epik_Tot_abs_Q>
0

> <r_epik_Metal_State_Penalty>
-0

> <b_epik_Metal_Only>
0

> <s_lp_Force_Field>
OPLS_2005

> <r_lp_Energy>
19.3351

> <b_lp_Chiralities_Consistent>
1

> <s_lp_Variant>
AV-unprocessed.smi:2476-2

> <Gold.Version>
5.8.1

> <Gold.Id.Protein>
6NUR|6NUR_protein|mol2

> <Gold.PLP.Fitness>
41.0430

> <Gold.PLP.PLP>
-38.6587

> <Gold.PLP.part.hbond>
-1.0000

> <Gold.PLP.part.metal>
0.0000

> <Gold.PLP.part.buried>
-0.8450

> <Gold.PLP.part.nonpolar>
-36.1565

> <Gold.PLP.part.repulsive>
0.3198

> <Gold.PLP.ligand.clash>
0.0000

> <Gold.PLP.ligand.torsion>
0.3253

> <Gold.PLP.Chemscore.Hbond>
0.9760

> <Gold.PLP.Chemscore.CHOScore>
0.0000

> <Gold.PLP.Chemscore.Metal>
0.0000

> <Gold.Chemscore.Hbonds>
donor molecule, donor type, donor heavy atom, donor atom, acceptor molecule, acceptor atom, score
      L1  H     4    22       P1  7957  0.98

> <Gold.PLP.Chemscore.Internal.Correction>
0.1068

> <Gold.Rescore>
     Score         DG    S(hbond)    S(metal)    S(lipo)     H(rot)  DE(clash)    DE(int)     intcor
     14.30     -15.28       0.97        0.00      91.29       1.61       0.49       0.50       ----

> <Gold.Chemscore.Fitness>
14.2951

> <Gold.Chemscore.DG>
-15.2803

> <Gold.Chemscore.ZeroCoef>
-5.4800

> <Gold.Chemscore.Hbond>
0.9685

> <Gold.Chemscore.Metal>
0.0000

> <Gold.Chemscore.Lipo>
91.2935

> <Gold.Chemscore.Internal_Hbond>
0.0000

> <Gold.Chemscore.DEClash>
0.4877

> <Gold.Chemscore.DEInternal>
0.4974

> <Gold.Chemscore.Rot>
1.6078

> <Gold.Chemscore.Internal.Correction>
   9.000000E+99

> <Gold.Chemscore.Hbonds>
donor molecule, donor type, donor heavy atom, donor atom, acceptor molecule, acceptor atom, score
      L1  H     4    22       P1  7957  0.93

> <Gold.Chemscore.Hbond.Weighted>
-3.2349

> <Gold.Chemscore.Metal.Weighted>
-0.0000

> <Gold.Chemscore.Lipo.Weighted>
-10.6813

> <Gold.Chemscore.Internal_Hbond.Weighted>
0.0000

> <Gold.Chemscore.DEClash.Weighted>
0.4877

> <Gold.Chemscore.DEInternal.Weighted>
0.4974

> <Gold.Chemscore.Rot.Weighted>
4.1159

> <Gold.Chemscore.Internal.Correction.Weighted>
   9.000000E+99

> <Gold.Protein.RotatedTorsions>
[ 6907 6896 6895 6894 ] final   49.65 input  -60.11 | X-H torsion
[ 7974 7965 7964 7962 ] final -138.89 input  175.53 | X-H torsion
[ 8008 7997 7996 7995 ] final -172.18 input   59.86 | X-H torsion
[ 10167 10162 10161 10158 ] final   20.54 input  -65.29 | X-H torsion
[ 10718 10713 10712 10709 ] final -141.76 input   66.30 | X-H torsion
[ 10763 10752 10751 10750 ] final -132.39 input  -60.55 | X-H torsion
[ 11005 11000 10999 10996 ] final -165.00 input  -57.11 | X-H torsion

> <Gold.Protein.ActiveResidues>
 VAL166  LYS551  ARG553  GLY616  TRP617  ASP618  TYR619  PRO620  LYS621  CYS622 
 ASP623  PHE694  ASN695  SER759  ASP760  ASP761  ALA762  ILE779  LEU786  VAL792 
 PHE793  MET794  SER795  GLU796  ALA797  LYS798  CYS799  TRP800  GLU811  SER814 

> <Gold.Protein.RotatedAtoms>
  152.2932  134.7698  160.0373 H   0  0  0  0  0  0  0  0  0  0  0  0  # atno 6907 bound_to 6896
  151.8237  133.3393  159.3600 H   0  0  0  0  0  0  0  0  0  0  0  0  # atno 6908 bound_to 6896
  150.7239  134.5478  159.5824 H   0  0  0  0  0  0  0  0  0  0  0  0  # atno 6909 bound_to 6896
  144.8721  140.6383  143.5260 H   0  0  0  0  0  0  0  0  0  0  0  0  # atno 7974 bound_to 7965
  155.9412  140.1109  157.1054 H   0  0  0  0  0  0  0  0  0  0  0  0  # atno 8008 bound_to 7997
  154.4090  140.1218  156.4996 H   0  0  0  0  0  0  0  0  0  0  0  0  # atno 8009 bound_to 7997
  155.6959  140.3472  155.4915 H   0  0  0  0  0  0  0  0  0  0  0  0  # atno 8010 bound_to 7997
  140.5496  143.9533  150.6569 H   0  0  0  0  0  0  0  0  0  0  0  0  # atno 10167 bound_to 10162
  156.3379  130.7621  151.1752 H   0  0  0  0  0  0  0  0  0  0  0  0  # atno 10718 bound_to 10713
  154.8743  135.3799  154.4402 H   0  0  0  0  0  0  0  0  0  0  0  0  # atno 10763 bound_to 10752
  153.5088  135.7030  153.5797 H   0  0  0  0  0  0  0  0  0  0  0  0  # atno 10764 bound_to 10752
  153.4096  135.3928  155.2008 H   0  0  0  0  0  0  0  0  0  0  0  0  # atno 10765 bound_to 10752
  140.5806  134.5145  157.5177 H   0  0  0  0  0  0  0  0  0  0  0  0  # atno 11005 bound_to 11000
  145.4110  139.1580  143.4125 LP  0  0  0  0  0  0  0  0  0  0  0  0  # atno 17320 bound_to 7965
  146.2938  140.4214  142.8729 LP  0  0  0  0  0  0  0  0  0  0  0  0  # atno 17321 bound_to 7965
  140.2956  143.3295  152.1021 LP  0  0  0  0  0  0  0  0  0  0  0  0  # atno 17342 bound_to 10162
  139.5021  144.6729  151.6200 LP  0  0  0  0  0  0  0  0  0  0  0  0  # atno 17343 bound_to 10162
  157.7442  131.0463  150.4885 LP  0  0  0  0  0  0  0  0  0  0  0  0  # atno 17370 bound_to 10713
  156.5061  130.4128  149.6326 LP  0  0  0  0  0  0  0  0  0  0  0  0  # atno 17371 bound_to 10713
  139.9319  134.7948  156.0908 LP  0  0  0  0  0  0  0  0  0  0  0  0  # atno 17394 bound_to 11000
  141.0998  133.6681  156.2729 LP  0  0  0  0  0  0  0  0  0  0  0  0  # atno 17395 bound_to 11000

$$$$
