AV-unprocessed.smi:1099|AV-procd|sdf|4756|dock7
  -GOLD-   22720 3293D 1   1.00000     0.00000
 Structure written by MMmdl.
 41 43  0  0  0  0  0  0  0  0  1 V2000
  147.3269  134.4360  162.8123 C   0  0  0  0  0  0  0  0  0  0  0  0
  147.4130  135.9086  162.3983 C   0  0  0  0  0  0  0  0  0  0  0  0
  147.8715  136.0820  160.9888 C   0  0  0  0  0  0  0  0  0  0  0  0
  148.1316  137.2714  160.4393 N   0  0  0  0  0  0  0  0  0  0  0  0
  148.5748  137.1684  159.1169 C   0  0  0  0  0  0  0  0  0  0  0  0
  148.8965  138.4062  158.3363 C   0  0  0  0  0  0  0  0  0  0  0  0
  150.4119  138.6416  158.2226 C   0  0  0  0  0  0  0  0  0  0  0  0
  150.7265  140.0534  158.0381 N   0  0  0  0  0  0  0  0  0  0  0  0
  151.7591  140.6934  158.6079 C   0  0  0  0  0  0  0  0  0  0  0  0
  152.5507  140.1396  159.3720 O   0  0  0  0  0  0  0  0  0  0  0  0
  151.8930  142.1899  158.2752 C   0  0  1  0  0  0  0  0  0  0  0  0
  150.7067  143.0671  158.7470 C   0  0  0  0  0  0  0  0  0  0  0  0
  151.3994  144.1772  159.5597 C   0  0  1  0  0  0  0  0  0  0  0  0
  151.8999  143.6006  160.8974 C   0  0  0  0  0  0  0  0  0  0  0  0
  153.1204  142.7645  160.4706 C   0  0  0  0  0  0  0  0  0  0  0  0
  153.1055  142.9022  158.9320 C   0  0  2  0  0  0  0  0  0  0  0  0
  152.6999  144.3661  158.7870 C   0  0  0  0  0  0  0  0  0  0  0  0
  148.6604  135.8721  158.6739 C   0  0  0  0  0  0  0  0  0  0  0  0
  148.1894  134.7325  159.9044 S   0  0  0  0  0  0  0  0  0  0  0  0
  146.9852  134.3417  163.8432 H   0  0  0  0  0  0  0  0  0  0  0  0
  148.2993  133.9486  162.7369 H   0  0  0  0  0  0  0  0  0  0  0  0
  146.6280  133.8899  162.1783 H   0  0  0  0  0  0  0  0  0  0  0  0
  146.4376  136.3833  162.5086 H   0  0  0  0  0  0  0  0  0  0  0  0
  148.0964  136.4420  163.0601 H   0  0  0  0  0  0  0  0  0  0  0  0
  148.4625  138.3379  157.3379 H   0  0  0  0  0  0  0  0  0  0  0  0
  148.4245  139.2696  158.8068 H   0  0  0  0  0  0  0  0  0  0  0  0
  150.9255  138.2572  159.1055 H   0  0  0  0  0  0  0  0  0  0  0  0
  150.8110  138.0929  157.3690 H   0  0  0  0  0  0  0  0  0  0  0  0
  150.1185  140.5809  157.4282 H   0  0  0  0  0  0  0  0  0  0  0  0
  151.9784  142.2902  157.1914 H   0  0  0  0  0  0  0  0  0  0  0  0
  150.1894  143.4923  157.8858 H   0  0  0  0  0  0  0  0  0  0  0  0
  149.9598  142.5366  159.3395 H   0  0  0  0  0  0  0  0  0  0  0  0
  150.7937  145.0770  159.6719 H   0  0  0  0  0  0  0  0  0  0  0  0
  152.1997  144.3964  161.5803 H   0  0  0  0  0  0  0  0  0  0  0  0
  151.1390  142.9992  161.3961 H   0  0  0  0  0  0  0  0  0  0  0  0
  154.0336  143.2012  160.8777 H   0  0  0  0  0  0  0  0  0  0  0  0
  153.0775  141.7355  160.8254 H   0  0  0  0  0  0  0  0  0  0  0  0
  154.0586  142.6549  158.4633 H   0  0  0  0  0  0  0  0  0  0  0  0
  152.5483  144.6753  157.7512 H   0  0  0  0  0  0  0  0  0  0  0  0
  153.3925  145.0594  159.2677 H   0  0  0  0  0  0  0  0  0  0  0  0
  148.9725  135.5201  157.7016 H   0  0  0  0  0  0  0  0  0  0  0  0
  1  2  1  0  0  0  0
  1 20  1  0  0  0  0
  1 21  1  0  0  0  0
  1 22  1  0  0  0  0
  2  3  1  0  0  0  0
  2 23  1  0  0  0  0
  2 24  1  0  0  0  0
  3 19  1  0  0  0  0
  3  4  2  0  0  0  0
  4  5  1  0  0  0  0
  5  6  1  0  0  0  0
  5 18  2  0  0  0  0
  6  7  1  0  0  0  0
  6 25  1  0  0  0  0
  6 26  1  0  0  0  0
  7  8  1  0  0  0  0
  7 27  1  0  0  0  0
  7 28  1  0  0  0  0
  8  9  1  0  0  0  0
  8 29  1  0  0  0  0
  9 10  2  0  0  0  0
  9 11  1  0  0  0  0
 11 16  1  0  0  0  0
 11 12  1  0  0  0  0
 11 30  1  0  0  0  0
 12 13  1  0  0  0  0
 12 31  1  0  0  0  0
 12 32  1  0  0  0  0
 13 17  1  0  0  0  0
 13 14  1  0  0  0  0
 13 33  1  0  0  0  0
 14 15  1  0  0  0  0
 14 34  1  0  0  0  0
 14 35  1  0  0  0  0
 15 16  1  0  0  0  0
 15 36  1  0  0  0  0
 15 37  1  0  0  0  0
 16 17  1  0  0  0  0
 16 38  1  0  0  0  0
 17 39  1  0  0  0  0
 17 40  1  0  0  0  0
 18 19  1  0  0  0  0
 18 41  1  0  0  0  0
M  END
> <s_m_source_file>
AV-unprocessed.smi

> <i_m_source_file_index>
1099

> <i_lp_mmshare_version>
43012

> <i_f3d_flags>
0

> <s_epik_input>
W0NIM11bQ0gyXWMxbmMoW2NIXXMxKVtDSDJdW0NIMl1bTkhdQyg9TylbQ0BIXShbQ0gyXVtDQEBIXTIzKVtDQEBIXShbQ0gyXTMpW0NIMl1bQ0gyXTI=

> <s_epik_cmdline>
J2VwaWtfcHl0aG9uJywgJy1waCcsICc3LjAnLCAnLXRuJywgJzgnLCAnLW1hJywgJzIwMCcsICctbWV0YWxfYmluZGluZycsICctaW1hZScsICc8aW5maWxlLm1hZT4nLCAnLW9tYWUnLCAnPG91dGZpbGUubWFlPic=

> <r_epik_Ionization_Penalty>
0.00110131

> <r_epik_Ionization_Penalty_Charging>
0

> <r_epik_Ionization_Penalty_Neutral>
0.00110131

> <r_epik_State_Penalty>
0.00072257

> <r_epik_Charging_Adjusted_Penalty>
0.00072257

> <i_epik_Tot_Q>
0

> <i_epik_Tot_abs_Q>
0

> <r_epik_Metal_State_Penalty>
-0

> <b_epik_Metal_Only>
0

> <s_lp_Force_Field>
OPLS_2005

> <r_lp_Energy>
38.0082

> <b_lp_Chiralities_Consistent>
1

> <s_lp_Variant>
AV-unprocessed.smi:1099-2

> <Gold.Version>
5.8.1

> <Gold.Id.Protein>
6NUR|6NUR_protein|mol2

> <Gold.PLP.Fitness>
45.7513

> <Gold.PLP.PLP>
-42.7501

> <Gold.PLP.part.hbond>
-2.0000

> <Gold.PLP.part.metal>
0.0000

> <Gold.PLP.part.buried>
-5.3841

> <Gold.PLP.part.nonpolar>
-35.5772

> <Gold.PLP.part.repulsive>
0.1138

> <Gold.PLP.ligand.clash>
0.0000

> <Gold.PLP.ligand.torsion>
0.5557

> <Gold.PLP.Chemscore.Hbond>
1.3636

> <Gold.PLP.Chemscore.CHOScore>
0.0000

> <Gold.PLP.Chemscore.Metal>
0.0000

> <Gold.Chemscore.Hbonds>
donor molecule, donor type, donor heavy atom, donor atom, acceptor molecule, acceptor atom, score
      P1  H  6931  6943       L1     4  0.70
      P1  H  6934  6947       L1     4  0.66

> <Gold.PLP.Chemscore.Internal.Correction>
0.0217

> <Gold.Rescore>
     Score         DG    S(hbond)    S(metal)    S(lipo)     H(rot)  DE(clash)    DE(int)     intcor
     18.14     -19.91       1.06        0.00     123.99       1.42       0.03       1.74       ----

> <Gold.Chemscore.Fitness>
18.1447

> <Gold.Chemscore.DG>
-19.9134

> <Gold.Chemscore.ZeroCoef>
-5.4800

> <Gold.Chemscore.Hbond>
1.0638

> <Gold.Chemscore.Metal>
0.0000

> <Gold.Chemscore.Lipo>
123.9878

> <Gold.Chemscore.Internal_Hbond>
0.0000

> <Gold.Chemscore.DEClash>
0.0330

> <Gold.Chemscore.DEInternal>
1.7357

> <Gold.Chemscore.Rot>
1.4165

> <Gold.Chemscore.Internal.Correction>
   9.000000E+99

> <Gold.Chemscore.Hbonds>
donor molecule, donor type, donor heavy atom, donor atom, acceptor molecule, acceptor atom, score
      P1  H  6931  6943       L1     4  0.31
      P1  H  6934  6947       L1     4  0.56

> <Gold.Chemscore.Hbond.Weighted>
-3.5530

> <Gold.Chemscore.Metal.Weighted>
-0.0000

> <Gold.Chemscore.Lipo.Weighted>
-14.5066

> <Gold.Chemscore.Internal_Hbond.Weighted>
0.0000

> <Gold.Chemscore.DEClash.Weighted>
0.0330

> <Gold.Chemscore.DEInternal.Weighted>
1.7357

> <Gold.Chemscore.Rot.Weighted>
3.6262

> <Gold.Chemscore.Internal.Correction.Weighted>
   9.000000E+99

> <Gold.Protein.RotatedTorsions>
[ 6907 6896 6895 6894 ] final -162.58 input  -60.11 | X-H torsion
[ 7974 7965 7964 7962 ] final  -91.47 input  175.53 | X-H torsion
[ 8008 7997 7996 7995 ] final  -48.84 input   59.86 | X-H torsion
[ 10167 10162 10161 10158 ] final   -0.49 input  -65.29 | X-H torsion
[ 10718 10713 10712 10709 ] final -172.72 input   66.30 | X-H torsion
[ 10763 10752 10751 10750 ] final   30.42 input  -60.55 | X-H torsion
[ 11005 11000 10999 10996 ] final  126.94 input  -57.11 | X-H torsion

> <Gold.Protein.ActiveResidues>
 VAL166  LYS551  ARG553  GLY616  TRP617  ASP618  TYR619  PRO620  LYS621  CYS622 
 ASP623  PHE694  ASN695  SER759  ASP760  ASP761  ALA762  ILE779  LEU786  VAL792 
 PHE793  MET794  SER795  GLU796  ALA797  LYS798  CYS799  TRP800  GLU811  SER814 

> <Gold.Protein.RotatedAtoms>
  151.3826  133.3816  159.2711 H   0  0  0  0  0  0  0  0  0  0  0  0  # atno 6907 bound_to 6896
  150.9566  134.8960  159.7715 H   0  0  0  0  0  0  0  0  0  0  0  0  # atno 6908 bound_to 6896
  152.5133  134.3784  159.9394 H   0  0  0  0  0  0  0  0  0  0  0  0  # atno 6909 bound_to 6896
  145.4126  140.9546  143.2225 H   0  0  0  0  0  0  0  0  0  0  0  0  # atno 7974 bound_to 7965
  154.4035  140.1311  156.4405 H   0  0  0  0  0  0  0  0  0  0  0  0  # atno 8008 bound_to 7997
  155.7464  140.3489  155.5109 H   0  0  0  0  0  0  0  0  0  0  0  0  # atno 8009 bound_to 7997
  155.8991  140.1016  157.1353 H   0  0  0  0  0  0  0  0  0  0  0  0  # atno 8010 bound_to 7997
  140.6769  143.6888  150.8044 H   0  0  0  0  0  0  0  0  0  0  0  0  # atno 10167 bound_to 10162
  156.7597  130.9409  151.3117 H   0  0  0  0  0  0  0  0  0  0  0  0  # atno 10718 bound_to 10713
  153.0372  135.6464  154.1042 H   0  0  0  0  0  0  0  0  0  0  0  0  # atno 10763 bound_to 10752
  154.0755  135.2877  155.3302 H   0  0  0  0  0  0  0  0  0  0  0  0  # atno 10764 bound_to 10752
  154.6565  135.5407  153.8030 H   0  0  0  0  0  0  0  0  0  0  0  0  # atno 10765 bound_to 10752
  139.9482  134.9626  156.8782 H   0  0  0  0  0  0  0  0  0  0  0  0  # atno 11005 bound_to 11000
  144.8298  139.5647  143.6949 LP  0  0  0  0  0  0  0  0  0  0  0  0  # atno 17320 bound_to 7965
  146.2697  139.6605  142.9305 LP  0  0  0  0  0  0  0  0  0  0  0  0  # atno 17321 bound_to 7965
  140.0583  143.5180  152.2640 LP  0  0  0  0  0  0  0  0  0  0  0  0  # atno 17342 bound_to 10162
  139.6067  144.7598  151.3045 LP  0  0  0  0  0  0  0  0  0  0  0  0  # atno 17343 bound_to 10162
  157.6740  130.9077  150.0107 LP  0  0  0  0  0  0  0  0  0  0  0  0  # atno 17370 bound_to 10713
  156.1347  130.3643  149.9675 LP  0  0  0  0  0  0  0  0  0  0  0  0  # atno 17371 bound_to 10713
  140.5783  134.0377  155.7455 LP  0  0  0  0  0  0  0  0  0  0  0  0  # atno 17394 bound_to 11000
  141.1138  133.9573  157.2861 LP  0  0  0  0  0  0  0  0  0  0  0  0  # atno 17395 bound_to 11000

$$$$
