AV-unprocessed.smi:534|AV-procd|sdf|2857|dock3
  -GOLD-   2262023343D 1   1.00000     0.00000
 Structure written by MMmdl.
 39 40  0  0  0  0  0  0  0  0  2 V2000
  152.5834  143.2860  162.3688 C   0  0  0  0  0  0  0  0  0  0  0  0
  152.9379  143.1232  161.0072 O   0  0  0  0  0  0  0  0  0  0  0  0
  152.1865  143.9629  160.1458 C   0  0  0  0  0  0  0  0  0  0  0  0
  152.5378  143.6287  158.6912 C   0  0  0  0  0  0  0  0  0  0  0  0
  152.1138  142.2874  158.3392 N   0  0  0  0  0  0  0  0  0  0  0  0
  152.3844  141.0497  158.9098 C   0  0  0  0  0  0  0  0  0  0  0  0
  153.1758  140.8615  159.9668 N   0  0  0  0  0  0  0  0  0  0  0  0
  153.1505  139.4820  160.1217 C   0  0  0  0  0  0  0  0  0  0  0  0
  152.3703  138.8929  159.1751 C   0  0  0  0  0  0  0  0  0  0  0  0
  152.1685  137.4326  159.0631 C   0  0  0  0  0  0  0  0  0  0  0  0
  151.4654  136.9560  158.1741 O   0  0  0  0  0  0  0  0  0  0  0  0
  152.8471  136.7424  160.0338 N   0  5  0  0  0  0  0  0  0  0  0  0
  153.6444  137.2952  161.0135 C   0  0  0  0  0  0  0  0  0  0  0  0
  154.2255  136.5995  161.8476 O   0  0  0  0  0  0  0  0  0  0  0  0
  153.8065  138.6549  161.0739 N   0  0  0  0  0  0  0  0  0  0  0  0
  154.6510  139.2701  162.1021 C   0  0  0  0  0  0  0  0  0  0  0  0
  151.8549  139.9195  158.3804 N   0  0  0  0  0  0  0  0  0  0  0  0
  150.9712  139.8106  157.2231 C   0  0  0  0  0  0  0  0  0  0  0  0
  151.6907  140.1797  155.9176 C   0  0  0  0  0  0  0  0  0  0  0  0
  150.7806  140.0956  154.8320 O   0  0  0  0  0  0  0  0  0  0  0  0
  150.5868  138.7667  154.3836 C   0  0  0  0  0  0  0  0  0  0  0  0
  153.2007  142.6353  162.9878 H   0  0  0  0  0  0  0  0  0  0  0  0
  151.5394  143.0185  162.5371 H   0  0  0  0  0  0  0  0  0  0  0  0
  152.7399  144.3138  162.6983 H   0  0  0  0  0  0  0  0  0  0  0  0
  151.1154  143.8427  160.3188 H   0  0  0  0  0  0  0  0  0  0  0  0
  152.4347  145.0048  160.3525 H   0  0  0  0  0  0  0  0  0  0  0  0
  152.0435  144.3314  158.0199 H   0  0  0  0  0  0  0  0  0  0  0  0
  153.6103  143.7267  158.5228 H   0  0  0  0  0  0  0  0  0  0  0  0
  151.6414  142.2374  157.4482 H   0  0  0  0  0  0  0  0  0  0  0  0
  154.3207  138.9746  163.0987 H   0  0  0  0  0  0  0  0  0  0  0  0
  154.6304  140.3590  162.0661 H   0  0  0  0  0  0  0  0  0  0  0  0
  155.6883  138.9569  161.9788 H   0  0  0  0  0  0  0  0  0  0  0  0
  150.5710  138.7991  157.1697 H   0  0  0  0  0  0  0  0  0  0  0  0
  150.1048  140.4563  157.3669 H   0  0  0  0  0  0  0  0  0  0  0  0
  152.0968  141.1899  155.9883 H   0  0  0  0  0  0  0  0  0  0  0  0
  152.5293  139.5020  155.7525 H   0  0  0  0  0  0  0  0  0  0  0  0
  149.8772  138.7600  153.5565 H   0  0  0  0  0  0  0  0  0  0  0  0
  150.1854  138.1366  155.1782 H   0  0  0  0  0  0  0  0  0  0  0  0
  151.5215  138.3310  154.0280 H   0  0  0  0  0  0  0  0  0  0  0  0
  1  2  1  0  0  0  0
  1 22  1  0  0  0  0
  1 23  1  0  0  0  0
  1 24  1  0  0  0  0
  2  3  1  0  0  0  0
  3  4  1  0  0  0  0
  3 25  1  0  0  0  0
  3 26  1  0  0  0  0
  4  5  1  0  0  0  0
  4 27  1  0  0  0  0
  4 28  1  0  0  0  0
  5  6  1  0  0  0  0
  5 29  1  0  0  0  0
  6 17  1  0  0  0  0
  6  7  2  0  0  0  0
  7  8  1  0  0  0  0
  8 15  1  0  0  0  0
  8  9  2  0  0  0  0
  9 10  1  0  0  0  0
  9 17  1  0  0  0  0
 10 11  2  0  0  0  0
 10 12  1  0  0  0  0
 12 13  1  0  0  0  0
 13 14  2  0  0  0  0
 13 15  1  0  0  0  0
 15 16  1  0  0  0  0
 16 30  1  0  0  0  0
 16 31  1  0  0  0  0
 16 32  1  0  0  0  0
 17 18  1  0  0  0  0
 18 19  1  0  0  0  0
 18 33  1  0  0  0  0
 18 34  1  0  0  0  0
 19 20  1  0  0  0  0
 19 35  1  0  0  0  0
 19 36  1  0  0  0  0
 20 21  1  0  0  0  0
 21 37  1  0  0  0  0
 21 38  1  0  0  0  0
 21 39  1  0  0  0  0
M  CHG  1  12  -1
M  END
> <s_m_source_file>
AV-unprocessed.smi

> <i_m_source_file_index>
534

> <i_lp_mmshare_version>
43012

> <i_f3d_flags>
0

> <s_epik_input>
W0NIM11PW0NIMl1bQ0gyXVtOSF1jKG4xKW4oW0NIMl1bQ0gyXU9bQ0gzXSljKGMxMiljKD1PKVtuSF1jKD1PKW4yW0NIM10=

> <s_epik_cmdline>
J2VwaWtfcHl0aG9uJywgJy1waCcsICc3LjAnLCAnLXRuJywgJzgnLCAnLW1hJywgJzIwMCcsICctbWV0YWxfYmluZGluZycsICctaW1hZScsICc8aW5maWxlLm1hZT4nLCAnLW9tYWUnLCAnPG91dGZpbGUubWFlPic=

> <r_lp_tautomer_probability>
1

> <r_epik_Ionization_Penalty>
5.88862

> <r_epik_Ionization_Penalty_Charging>
1.42184e-08

> <r_epik_Ionization_Penalty_Neutral>
5.88862

> <r_epik_State_Penalty>
5.88846

> <r_epik_Charging_Adjusted_Penalty>
5.88846

> <i_epik_Tot_Q>
-1

> <i_epik_Tot_abs_Q>
1

> <r_epik_Metal_State_Penalty>
1.85033

> <b_epik_Metal_Only>
1

> <s_lp_Force_Field>
OPLS_2005

> <r_lp_Energy>
24.5539

> <b_lp_Chiralities_Consistent>
1

> <s_lp_Variant>
AV-unprocessed.smi:534-2

> <Gold.Version>
5.8.1

> <Gold.Id.Protein>
6NUR|6NUR_protein|mol2

> <Gold.PLP.Fitness>
46.1196

> <Gold.PLP.PLP>
-37.4607

> <Gold.PLP.part.hbond>
-2.0759

> <Gold.PLP.part.metal>
0.0000

> <Gold.PLP.part.buried>
-5.9523

> <Gold.PLP.part.nonpolar>
-29.5851

> <Gold.PLP.part.repulsive>
0.1586

> <Gold.PLP.ligand.clash>
0.0000

> <Gold.PLP.ligand.torsion>
0.1922

> <Gold.PLP.Chemscore.Hbond>
3.0000

> <Gold.PLP.Chemscore.CHOScore>
0.0000

> <Gold.PLP.Chemscore.Metal>
0.0000

> <Gold.Chemscore.Hbonds>
donor molecule, donor type, donor heavy atom, donor atom, acceptor molecule, acceptor atom, score
      P1  H  6896  6907       L1    12  2.00
      P1  H  7989  7998       L1    20  1.00

> <Gold.PLP.Chemscore.Internal.Correction>
0.0434

> <Gold.Rescore>
     Score         DG    S(hbond)    S(metal)    S(lipo)     H(rot)  DE(clash)    DE(int)     intcor
     11.24     -13.31       1.74        0.00      69.64       2.40       0.07       1.99       ----

> <Gold.Chemscore.Fitness>
11.2434

> <Gold.Chemscore.DG>
-13.3057

> <Gold.Chemscore.ZeroCoef>
-5.4800

> <Gold.Chemscore.Hbond>
1.7441

> <Gold.Chemscore.Metal>
0.0000

> <Gold.Chemscore.Lipo>
69.6442

> <Gold.Chemscore.Internal_Hbond>
0.0000

> <Gold.Chemscore.DEClash>
0.0749

> <Gold.Chemscore.DEInternal>
1.9875

> <Gold.Chemscore.Rot>
2.4016

> <Gold.Chemscore.Internal.Correction>
   9.000000E+99

> <Gold.Chemscore.Hbonds>
donor molecule, donor type, donor heavy atom, donor atom, acceptor molecule, acceptor atom, score
      P1  H  6896  6907       L1    12  0.55
      P1  H  7989  7998       L1    20  0.20

> <Gold.Chemscore.Hbond.Weighted>
-5.8254

> <Gold.Chemscore.Metal.Weighted>
-0.0000

> <Gold.Chemscore.Lipo.Weighted>
-8.1484

> <Gold.Chemscore.Internal_Hbond.Weighted>
0.0000

> <Gold.Chemscore.DEClash.Weighted>
0.0749

> <Gold.Chemscore.DEInternal.Weighted>
1.9875

> <Gold.Chemscore.Rot.Weighted>
6.1481

> <Gold.Chemscore.Internal.Correction.Weighted>
   9.000000E+99

> <Gold.Protein.RotatedTorsions>
[ 6907 6896 6895 6894 ] final   33.61 input  -60.11 | X-H torsion
[ 7974 7965 7964 7962 ] final   -5.46 input  175.53 | X-H torsion
[ 8008 7997 7996 7995 ] final  161.11 input   59.86 | X-H torsion
[ 10167 10162 10161 10158 ] final  112.38 input  -65.29 | X-H torsion
[ 10718 10713 10712 10709 ] final   50.97 input   66.30 | X-H torsion
[ 10763 10752 10751 10750 ] final -104.92 input  -60.55 | X-H torsion
[ 11005 11000 10999 10996 ] final  179.74 input  -57.11 | X-H torsion

> <Gold.Protein.ActiveResidues>
 VAL166  LYS551  ARG553  GLY616  TRP617  ASP618  TYR619  PRO620  LYS621  CYS622 
 ASP623  PHE694  ASN695  SER759  ASP760  ASP761  ALA762  ILE779  LEU786  VAL792 
 PHE793  MET794  SER795  GLU796  ALA797  LYS798  CYS799  TRP800  GLU811  SER814 

> <Gold.Protein.RotatedAtoms>
  152.0909  134.9408  160.0571 H   0  0  0  0  0  0  0  0  0  0  0  0  # atno 6907 bound_to 6896
  152.0660  133.4079  159.4446 H   0  0  0  0  0  0  0  0  0  0  0  0  # atno 6908 bound_to 6896
  150.6837  134.3066  159.4772 H   0  0  0  0  0  0  0  0  0  0  0  0  # atno 6909 bound_to 6896
  146.2352  140.2024  142.8334 H   0  0  0  0  0  0  0  0  0  0  0  0  # atno 7974 bound_to 7965
  156.2126  140.1786  156.7661 H   0  0  0  0  0  0  0  0  0  0  0  0  # atno 8008 bound_to 7997
  154.5744  140.0677  156.9042 H   0  0  0  0  0  0  0  0  0  0  0  0  # atno 8009 bound_to 7997
  155.2614  140.3336  155.4275 H   0  0  0  0  0  0  0  0  0  0  0  0  # atno 8010 bound_to 7997
  139.6540  144.7129  151.1992 H   0  0  0  0  0  0  0  0  0  0  0  0  # atno 10167 bound_to 10162
  157.4935  130.8391  149.8231 H   0  0  0  0  0  0  0  0  0  0  0  0  # atno 10718 bound_to 10713
  154.7912  135.4768  154.0056 H   0  0  0  0  0  0  0  0  0  0  0  0  # atno 10763 bound_to 10752
  153.1633  135.6812  153.8718 H   0  0  0  0  0  0  0  0  0  0  0  0  # atno 10764 bound_to 10752
  153.8324  135.3190  155.3398 H   0  0  0  0  0  0  0  0  0  0  0  0  # atno 10765 bound_to 10752
  140.4095  134.6704  157.4606 H   0  0  0  0  0  0  0  0  0  0  0  0  # atno 11005 bound_to 11000
  144.9771  140.8424  143.5420 LP  0  0  0  0  0  0  0  0  0  0  0  0  # atno 17320 bound_to 7965
  145.2013  139.2251  143.5191 LP  0  0  0  0  0  0  0  0  0  0  0  0  # atno 17321 bound_to 7965
  140.7551  143.6102  150.8613 LP  0  0  0  0  0  0  0  0  0  0  0  0  # atno 17342 bound_to 10162
  139.9753  143.6011  152.2960 LP  0  0  0  0  0  0  0  0  0  0  0  0  # atno 17343 bound_to 10162
  156.0187  130.3803  150.2029 LP  0  0  0  0  0  0  0  0  0  0  0  0  # atno 17370 bound_to 10713
  157.0218  130.9981  151.3337 LP  0  0  0  0  0  0  0  0  0  0  0  0  # atno 17371 bound_to 10713
  140.0277  134.6452  155.9149 LP  0  0  0  0  0  0  0  0  0  0  0  0  # atno 17394 bound_to 11000
  141.1826  133.6549  156.5084 LP  0  0  0  0  0  0  0  0  0  0  0  0  # atno 17395 bound_to 11000

$$$$
