AV-unprocessed.smi:702|AV-procd|sdf|3425|dock5
  -GOLD-   22720 0413D 1   1.00000     0.00000
 Structure written by MMmdl.
 50 52  0  0  0  0  0  0  0  0  4 V2000
  149.0428  130.7807  154.6812 C   0  0  0  0  0  0  0  0  0  0  0  0
  149.5348  132.2388  154.5709 C   0  0  1  0  0  0  0  0  0  0  0  0
  148.9325  132.8232  153.3667 N   0  5  0  0  0  0  0  0  0  0  0  0
  147.6188  132.7344  153.0240 C   0  0  0  0  0  0  0  0  0  0  0  0
  146.8259  131.8302  153.3078 O   0  0  0  0  0  0  0  0  0  0  0  0
  147.2105  133.7973  152.3083 N   0  0  0  0  0  0  0  0  0  0  0  0
  145.9406  134.0490  151.7222 C   0  0  0  0  0  0  0  0  0  0  0  0
  145.1033  132.9398  151.4711 C   0  0  0  0  0  0  0  0  0  0  0  0
  143.8257  133.1460  150.9121 C   0  0  0  0  0  0  0  0  0  0  0  0
  143.4083  134.3995  150.6329 N   0  3  0  0  0  0  0  0  0  0  0  0
  144.1656  135.4917  150.8720 C   0  0  0  0  0  0  0  0  0  0  0  0
  145.4518  135.3478  151.4304 C   0  0  0  0  0  0  0  0  0  0  0  0
  149.2668  133.1695  155.8339 C   0  0  0  0  0  0  0  0  0  0  0  0
  150.0686  134.4682  155.8271 N   0  3  0  0  0  0  0  0  0  0  0  0
  151.4637  134.4367  156.3658 C   0  0  0  0  0  0  0  0  0  0  0  0
  151.9593  135.8633  156.6427 C   0  0  0  0  0  0  0  0  0  0  0  0
  151.9095  136.6215  155.4420 O   0  0  0  0  0  0  0  0  0  0  0  0
  150.5834  136.7343  154.9438 C   0  0  0  0  0  0  0  0  0  0  0  0
  150.0200  135.3415  154.6162 C   0  0  0  0  0  0  0  0  0  0  0  0
  147.7527  133.4441  156.0807 C   0  0  0  0  0  0  0  0  0  0  0  0
  147.6426  133.9305  157.5309 C   0  0  0  0  0  0  0  0  0  0  0  0
  148.8220  133.2781  158.2609 C   0  0  0  0  0  0  0  0  0  0  0  0
  149.5699  132.4687  157.1908 C   0  0  0  0  0  0  0  0  0  0  0  0
  149.5164  130.2467  155.5031 H   0  0  0  0  0  0  0  0  0  0  0  0
  149.2906  130.2247  153.7760 H   0  0  0  0  0  0  0  0  0  0  0  0
  147.9628  130.7127  154.8074 H   0  0  0  0  0  0  0  0  0  0  0  0
  150.6187  132.1657  154.4742 H   0  0  0  0  0  0  0  0  0  0  0  0
  147.8864  134.5419  152.2203 H   0  0  0  0  0  0  0  0  0  0  0  0
  145.4376  131.9378  151.6982 H   0  0  0  0  0  0  0  0  0  0  0  0
  143.1300  132.3519  150.6842 H   0  0  0  0  0  0  0  0  0  0  0  0
  143.7209  136.4426  150.6176 H   0  0  0  0  0  0  0  0  0  0  0  0
  146.0342  136.2329  151.6365 H   0  0  0  0  0  0  0  0  0  0  0  0
  151.5293  133.8569  157.2843 H   0  0  0  0  0  0  0  0  0  0  0  0
  152.1373  133.9666  155.6481 H   0  0  0  0  0  0  0  0  0  0  0  0
  151.3608  136.3417  157.4198 H   0  0  0  0  0  0  0  0  0  0  0  0
  152.9886  135.8401  157.0012 H   0  0  0  0  0  0  0  0  0  0  0  0
  149.9518  137.2470  155.6711 H   0  0  0  0  0  0  0  0  0  0  0  0
  150.5978  137.3523  154.0455 H   0  0  0  0  0  0  0  0  0  0  0  0
  150.5974  134.9069  153.8019 H   0  0  0  0  0  0  0  0  0  0  0  0
  149.0075  135.4876  154.2503 H   0  0  0  0  0  0  0  0  0  0  0  0
  147.2751  134.1130  155.3661 H   0  0  0  0  0  0  0  0  0  0  0  0
  147.1699  132.5231  156.0293 H   0  0  0  0  0  0  0  0  0  0  0  0
  147.7295  135.0167  157.5762 H   0  0  0  0  0  0  0  0  0  0  0  0
  146.6837  133.6589  157.9735 H   0  0  0  0  0  0  0  0  0  0  0  0
  149.4715  134.0470  158.6811 H   0  0  0  0  0  0  0  0  0  0  0  0
  148.4930  132.6421  159.0834 H   0  0  0  0  0  0  0  0  0  0  0  0
  149.1566  131.4603  157.2337 H   0  0  0  0  0  0  0  0  0  0  0  0
  150.6276  132.3646  157.4282 H   0  0  0  0  0  0  0  0  0  0  0  0
  149.5657  135.0152  156.5102 H   0  0  0  0  0  0  0  0  0  0  0  0
  142.4798  134.5275  150.2299 H   0  0  0  0  0  0  0  0  0  0  0  0
  1  2  1  0  0  0  0
  1 24  1  0  0  0  0
  1 25  1  0  0  0  0
  1 26  1  0  0  0  0
  2  3  1  0  0  0  0
  2 13  1  0  0  0  0
  2 27  1  0  0  0  0
  3  4  1  0  0  0  0
  4  5  2  0  0  0  0
  4  6  1  0  0  0  0
  6  7  1  0  0  0  0
  6 28  1  0  0  0  0
  7 12  1  0  0  0  0
  7  8  2  0  0  0  0
  8  9  1  0  0  0  0
  8 29  1  0  0  0  0
  9 10  2  0  0  0  0
  9 30  1  0  0  0  0
 10 11  1  0  0  0  0
 10 50  1  0  0  0  0
 11 12  2  0  0  0  0
 11 31  1  0  0  0  0
 12 32  1  0  0  0  0
 13 23  1  0  0  0  0
 13 14  1  0  0  0  0
 13 20  1  0  0  0  0
 14 19  1  0  0  0  0
 14 15  1  0  0  0  0
 14 49  1  0  0  0  0
 15 16  1  0  0  0  0
 15 33  1  0  0  0  0
 15 34  1  0  0  0  0
 16 17  1  0  0  0  0
 16 35  1  0  0  0  0
 16 36  1  0  0  0  0
 17 18  1  0  0  0  0
 18 19  1  0  0  0  0
 18 37  1  0  0  0  0
 18 38  1  0  0  0  0
 19 39  1  0  0  0  0
 19 40  1  0  0  0  0
 20 21  1  0  0  0  0
 20 41  1  0  0  0  0
 20 42  1  0  0  0  0
 21 22  1  0  0  0  0
 21 43  1  0  0  0  0
 21 44  1  0  0  0  0
 22 23  1  0  0  0  0
 22 45  1  0  0  0  0
 22 46  1  0  0  0  0
 23 47  1  0  0  0  0
 23 48  1  0  0  0  0
M  CHG  1   3  -1
M  CHG  1  10   1
M  CHG  1  14   1
M  END
> <s_m_source_file>
AV-unprocessed.smi

> <i_m_source_file_index>
702

> <i_lp_mmshare_version>
43012

> <i_f3d_flags>
0

> <s_epik_input>
W0NIMl0xW0NIMl1PW0NIMl1bQ0gyXU4xQzIoW0NIMl1bQ0gyXVtDSDJdW0NIMl0yKVtDQEhdKFtDSDNdKVtOSF1DKD1PKVtOSF1jM1tjSF1bY0hdbltjSF1bY0hdMw==

> <s_epik_cmdline>
J2VwaWtfcHl0aG9uJywgJy1waCcsICc3LjAnLCAnLXRuJywgJzgnLCAnLW1hJywgJzIwMCcsICctbWV0YWxfYmluZGluZycsICctaW1hZScsICc8aW5maWxlLm1hZT4nLCAnLW9tYWUnLCAnPG91dGZpbGUubWFlPic=

> <r_epik_Ionization_Penalty>
8.33674

> <r_epik_Ionization_Penalty_Charging>
8.33674

> <r_epik_Ionization_Penalty_Neutral>
3.60854e-06

> <r_epik_State_Penalty>
8.24268

> <r_epik_Charging_Adjusted_Penalty>
16.5794

> <i_epik_Tot_Q>
1

> <i_epik_Tot_abs_Q>
3

> <r_epik_Metal_State_Penalty>
4.24853

> <b_epik_Metal_Only>
1

> <s_lp_Force_Field>
OPLS_2005

> <r_lp_Energy>
61.2868

> <b_lp_Chiralities_Consistent>
1

> <s_lp_Variant>
AV-unprocessed.smi:702-10

> <Gold.Version>
5.8.1

> <Gold.Id.Protein>
6NUR|6NUR_protein|mol2

> <Gold.PLP.Fitness>
40.9517

> <Gold.PLP.PLP>
-31.3167

> <Gold.PLP.part.hbond>
-3.0000

> <Gold.PLP.part.metal>
0.0000

> <Gold.PLP.part.buried>
-4.5081

> <Gold.PLP.part.nonpolar>
-25.0069

> <Gold.PLP.part.repulsive>
0.4765

> <Gold.PLP.ligand.clash>
0.0000

> <Gold.PLP.ligand.torsion>
1.2615

> <Gold.PLP.Chemscore.Hbond>
3.9000

> <Gold.PLP.Chemscore.CHOScore>
0.0000

> <Gold.PLP.Chemscore.Metal>
0.0000

> <Gold.Chemscore.Hbonds>
donor molecule, donor type, donor heavy atom, donor atom, acceptor molecule, acceptor atom, score
      L1  H     6    28       P1  7948  1.00
      L1  H    10    50       P1 10186  2.00
      P1  H 10752 10764       L1    17  0.60

> <Gold.PLP.Chemscore.Internal.Correction>
0.4580

> <Gold.Rescore>
     Score         DG    S(hbond)    S(metal)    S(lipo)     H(rot)  DE(clash)    DE(int)     intcor
     12.18     -16.09       1.84        0.00      69.90       1.45       0.06       3.85       ----

> <Gold.Chemscore.Fitness>
12.1841

> <Gold.Chemscore.DG>
-16.0947

> <Gold.Chemscore.ZeroCoef>
-5.4800

> <Gold.Chemscore.Hbond>
1.8413

> <Gold.Chemscore.Metal>
0.0000

> <Gold.Chemscore.Lipo>
69.8951

> <Gold.Chemscore.Internal_Hbond>
0.0000

> <Gold.Chemscore.DEClash>
0.0588

> <Gold.Chemscore.DEInternal>
3.8518

> <Gold.Chemscore.Rot>
1.4504

> <Gold.Chemscore.Internal.Correction>
   9.000000E+99

> <Gold.Chemscore.Hbonds>
donor molecule, donor type, donor heavy atom, donor atom, acceptor molecule, acceptor atom, score
      L1  H     6    28       P1  7948  0.39
      L1  H    10    50       P1 10186  0.55
      P1  H 10752 10764       L1    17  0.04

> <Gold.Chemscore.Hbond.Weighted>
-6.1499

> <Gold.Chemscore.Metal.Weighted>
-0.0000

> <Gold.Chemscore.Lipo.Weighted>
-8.1777

> <Gold.Chemscore.Internal_Hbond.Weighted>
0.0000

> <Gold.Chemscore.DEClash.Weighted>
0.0588

> <Gold.Chemscore.DEInternal.Weighted>
3.8518

> <Gold.Chemscore.Rot.Weighted>
3.7129

> <Gold.Chemscore.Internal.Correction.Weighted>
   9.000000E+99

> <Gold.Protein.RotatedTorsions>
[ 6907 6896 6895 6894 ] final -120.04 input  -60.11 | X-H torsion
[ 7974 7965 7964 7962 ] final   25.09 input  175.53 | X-H torsion
[ 8008 7997 7996 7995 ] final  125.22 input   59.86 | X-H torsion
[ 10167 10162 10161 10158 ] final -138.08 input  -65.29 | X-H torsion
[ 10718 10713 10712 10709 ] final -164.90 input   66.30 | X-H torsion
[ 10763 10752 10751 10750 ] final  -55.36 input  -60.55 | X-H torsion
[ 11005 11000 10999 10996 ] final  107.41 input  -57.11 | X-H torsion

> <Gold.Protein.ActiveResidues>
 VAL166  LYS551  ARG553  GLY616  TRP617  ASP618  TYR619  PRO620  LYS621  CYS622 
 ASP623  PHE694  ASN695  SER759  ASP760  ASP761  ALA762  ILE779  LEU786  VAL792 
 PHE793  MET794  SER795  GLU796  ALA797  LYS798  CYS799  TRP800  GLU811  SER814 

> <Gold.Protein.RotatedAtoms>
  150.8358  133.8016  159.3079 H   0  0  0  0  0  0  0  0  0  0  0  0  # atno 6907 bound_to 6896
  151.5732  135.1060  160.0009 H   0  0  0  0  0  0  0  0  0  0  0  0  # atno 6908 bound_to 6896
  152.4431  133.7443  159.6714 H   0  0  0  0  0  0  0  0  0  0  0  0  # atno 6909 bound_to 6896
  146.1906  139.7514  142.8835 H   0  0  0  0  0  0  0  0  0  0  0  0  # atno 7974 bound_to 7965
  156.2827  140.2721  156.1914 H   0  0  0  0  0  0  0  0  0  0  0  0  # atno 8008 bound_to 7997
  155.0454  140.0386  157.2542 H   0  0  0  0  0  0  0  0  0  0  0  0  # atno 8009 bound_to 7997
  154.7239  140.2693  155.6522 H   0  0  0  0  0  0  0  0  0  0  0  0  # atno 8010 bound_to 7997
  139.8514  143.7194  152.2657 H   0  0  0  0  0  0  0  0  0  0  0  0  # atno 10167 bound_to 10162
  156.6457  130.8987  151.3004 H   0  0  0  0  0  0  0  0  0  0  0  0  # atno 10718 bound_to 10713
  154.1896  135.6429  153.5056 H   0  0  0  0  0  0  0  0  0  0  0  0  # atno 10763 bound_to 10752
  153.0038  135.5425  154.6429 H   0  0  0  0  0  0  0  0  0  0  0  0  # atno 10764 bound_to 10752
  154.5814  135.2925  155.0701 H   0  0  0  0  0  0  0  0  0  0  0  0  # atno 10765 bound_to 10752
  139.8828  134.9400  156.5815 H   0  0  0  0  0  0  0  0  0  0  0  0  # atno 11005 bound_to 11000
  145.3805  141.0357  143.3180 LP  0  0  0  0  0  0  0  0  0  0  0  0  # atno 17320 bound_to 7965
  144.8479  139.5368  143.6870 LP  0  0  0  0  0  0  0  0  0  0  0  0  # atno 17321 bound_to 7965
  139.7462  144.7546  151.0576 LP  0  0  0  0  0  0  0  0  0  0  0  0  # atno 17342 bound_to 10162
  140.7787  143.4914  150.9888 LP  0  0  0  0  0  0  0  0  0  0  0  0  # atno 17343 bound_to 10162
  157.7157  130.9494  150.1246 LP  0  0  0  0  0  0  0  0  0  0  0  0  # atno 17370 bound_to 10713
  156.2124  130.3667  149.8655 LP  0  0  0  0  0  0  0  0  0  0  0  0  # atno 17371 bound_to 10713
  140.8024  133.8495  155.8738 LP  0  0  0  0  0  0  0  0  0  0  0  0  # atno 17394 bound_to 11000
  140.9581  134.1692  157.4676 LP  0  0  0  0  0  0  0  0  0  0  0  0  # atno 17395 bound_to 11000

$$$$
