AV-unprocessed.smi:3036|AV-procd|sdf|11583|dock10
  -GOLD-   2272016553D 1   1.00000     0.00000
 Structure written by MMmdl.
 42 43  0  0  0  0  0  0  0  0  2 V2000
  145.6406  133.6170  154.2164 C   0  0  0  0  0  0  0  0  0  0  0  0
  146.6559  134.2222  153.2378 C   0  0  1  0  0  0  0  0  0  0  0  0
  146.0442  134.3843  151.8332 C   0  0  0  0  0  0  0  0  0  0  0  0
  145.4335  133.1581  151.3533 N   0  0  0  0  0  0  0  0  0  0  0  0
  146.0104  131.9154  151.1971 C   0  0  0  0  0  0  0  0  0  0  0  0
  145.0492  131.0814  150.7026 C   0  0  0  0  0  0  0  0  0  0  0  0
  143.9008  131.9148  150.5950 C   0  0  0  0  0  0  0  0  0  0  0  0
  144.1344  133.1568  150.9875 N   0  0  0  0  0  0  0  0  0  0  0  0
  147.1347  135.5229  153.7595 N   0  3  0  0  0  0  0  0  0  0  0  0
  147.5264  135.5104  155.1862 C   0  0  0  0  0  0  0  0  0  0  0  0
  148.3476  136.7557  155.5792 C   0  0  0  0  0  0  0  0  0  0  0  0
  149.8408  136.6978  155.2046 C   0  0  0  0  0  0  0  0  0  0  0  0
  150.4684  135.6603  155.4171 O   0  0  0  0  0  0  0  0  0  0  0  0
  150.4234  137.7903  154.6548 N   0  0  0  0  0  0  0  0  0  0  0  0
  149.7125  139.0536  154.4345 C   0  0  0  0  0  0  0  0  0  0  0  0
  150.3618  140.1383  155.3126 C   0  0  0  0  0  0  0  0  0  0  0  0
  151.7472  140.2464  154.9952 O   0  0  0  0  0  0  0  0  0  0  0  0
  152.4599  139.0253  155.1759 C   0  0  0  0  0  0  0  0  0  0  0  0
  151.8384  137.9272  154.2942 C   0  0  0  0  0  0  0  0  0  0  0  0
  145.2927  132.6438  153.8685 H   0  0  0  0  0  0  0  0  0  0  0  0
  144.7669  134.2597  154.3317 H   0  0  0  0  0  0  0  0  0  0  0  0
  146.0823  133.4735  155.2032 H   0  0  0  0  0  0  0  0  0  0  0  0
  147.4950  133.5276  153.1663 H   0  0  0  0  0  0  0  0  0  0  0  0
  145.2740  135.1566  151.8468 H   0  0  0  0  0  0  0  0  0  0  0  0
  146.8009  134.7135  151.1188 H   0  0  0  0  0  0  0  0  0  0  0  0
  147.0459  131.7311  151.4434 H   0  0  0  0  0  0  0  0  0  0  0  0
  145.1502  130.0346  150.4567 H   0  0  0  0  0  0  0  0  0  0  0  0
  142.9120  131.6568  150.2451 H   0  0  0  0  0  0  0  0  0  0  0  0
  147.9348  135.8103  153.2125 H   0  0  0  0  0  0  0  0  0  0  0  0
  146.6215  135.4778  155.7944 H   0  0  0  0  0  0  0  0  0  0  0  0
  148.0835  134.5977  155.4043 H   0  0  0  0  0  0  0  0  0  0  0  0
  147.8962  137.6379  155.1234 H   0  0  0  0  0  0  0  0  0  0  0  0
  148.2780  136.8841  156.6601 H   0  0  0  0  0  0  0  0  0  0  0  0
  149.7838  139.3294  153.3814 H   0  0  0  0  0  0  0  0  0  0  0  0
  148.6469  138.9897  154.6584 H   0  0  0  0  0  0  0  0  0  0  0  0
  149.8838  141.1024  155.1379 H   0  0  0  0  0  0  0  0  0  0  0  0
  150.2387  139.9070  156.3718 H   0  0  0  0  0  0  0  0  0  0  0  0
  153.5034  139.1833  154.9036 H   0  0  0  0  0  0  0  0  0  0  0  0
  152.4439  138.7359  156.2278 H   0  0  0  0  0  0  0  0  0  0  0  0
  152.4125  137.0080  154.3970 H   0  0  0  0  0  0  0  0  0  0  0  0
  151.9131  138.2065  153.2424 H   0  0  0  0  0  0  0  0  0  0  0  0
  146.3996  136.2043  153.6356 H   0  0  0  0  0  0  0  0  0  0  0  0
  1  2  1  0  0  0  0
  1 20  1  0  0  0  0
  1 21  1  0  0  0  0
  1 22  1  0  0  0  0
  2  3  1  0  0  0  0
  2  9  1  0  0  0  0
  2 23  1  0  0  0  0
  3  4  1  0  0  0  0
  3 24  1  0  0  0  0
  3 25  1  0  0  0  0
  4  8  1  0  0  0  0
  4  5  1  0  0  0  0
  5  6  2  0  0  0  0
  5 26  1  0  0  0  0
  6  7  1  0  0  0  0
  6 27  1  0  0  0  0
  7  8  2  0  0  0  0
  7 28  1  0  0  0  0
  9 10  1  0  0  0  0
  9 29  1  0  0  0  0
  9 42  1  0  0  0  0
 10 11  1  0  0  0  0
 10 30  1  0  0  0  0
 10 31  1  0  0  0  0
 11 12  1  0  0  0  0
 11 32  1  0  0  0  0
 11 33  1  0  0  0  0
 12 13  2  0  0  0  0
 12 14  1  0  0  0  0
 14 19  1  0  0  0  0
 14 15  1  0  0  0  0
 15 16  1  0  0  0  0
 15 34  1  0  0  0  0
 15 35  1  0  0  0  0
 16 17  1  0  0  0  0
 16 36  1  0  0  0  0
 16 37  1  0  0  0  0
 17 18  1  0  0  0  0
 18 19  1  0  0  0  0
 18 38  1  0  0  0  0
 18 39  1  0  0  0  0
 19 40  1  0  0  0  0
 19 41  1  0  0  0  0
M  CHG  1   9   1
M  END
> <s_m_source_file>
AV-unprocessed.smi

> <i_m_source_file_index>
3036

> <i_lp_mmshare_version>
43012

> <i_f3d_flags>
0

> <s_epik_input>
bjFbY0hdW2NIXVtjSF1uMVtDSDJdW0NAQEhdKFtDSDNdKVtOSF1bQ0gyXVtDSDJdQyg9TylOMltDSDJdW0NIMl1PW0NIMl1bQ0gyXTI=

> <s_epik_cmdline>
J2VwaWtfcHl0aG9uJywgJy1waCcsICc3LjAnLCAnLXRuJywgJzgnLCAnLW1hJywgJzIwMCcsICctbWV0YWxfYmluZGluZycsICctaW1hZScsICc8aW5maWxlLm1hZT4nLCAnLW9tYWUnLCAnPG91dGZpbGUubWFlPic=

> <r_lp_tautomer_probability>
1

> <r_epik_Ionization_Penalty>
0.00797109

> <r_epik_Ionization_Penalty_Charging>
0.0079672

> <r_epik_Ionization_Penalty_Neutral>
3.88864e-06

> <r_epik_State_Penalty>
0.00597998

> <r_epik_Charging_Adjusted_Penalty>
0.0139472

> <i_epik_Tot_Q>
1

> <i_epik_Tot_abs_Q>
1

> <r_epik_Metal_State_Penalty>
0.00598029

> <b_epik_Metal_Only>
0

> <s_lp_Force_Field>
OPLS_2005

> <r_lp_Energy>
23.754

> <b_lp_Chiralities_Consistent>
1

> <s_lp_Variant>
AV-unprocessed.smi:3036-2

> <Gold.Version>
5.8.1

> <Gold.Id.Protein>
6NUR|6NUR_protein|mol2

> <Gold.PLP.Fitness>
45.9669

> <Gold.PLP.PLP>
-32.1128

> <Gold.PLP.part.hbond>
-1.9641

> <Gold.PLP.part.metal>
0.0000

> <Gold.PLP.part.buried>
-6.0331

> <Gold.PLP.part.nonpolar>
-25.7708

> <Gold.PLP.part.repulsive>
0.3291

> <Gold.PLP.ligand.clash>
0.0000

> <Gold.PLP.ligand.torsion>
0.4663

> <Gold.PLP.Chemscore.Hbond>
2.8960

> <Gold.PLP.Chemscore.CHOScore>
2.0000

> <Gold.PLP.Chemscore.Metal>
0.0000

> <Gold.Chemscore.Hbonds>
donor molecule, donor type, donor heavy atom, donor atom, acceptor molecule, acceptor atom, score
      L1  H     9    29       P1  7948  2.00
      P1  H  7989  7998       L1    17  0.90
      L1  C     5    26       P1 10747  1.00
      L1  C     7    28       P1 10952  0.93

> <Gold.PLP.Chemscore.Internal.Correction>
0.0986

> <Gold.Rescore>
     Score         DG    S(hbond)    S(metal)    S(lipo)     H(rot)  DE(clash)    DE(int)     intcor
     14.03     -14.43       1.74        0.00      71.95       2.07       0.07       0.33       ----

> <Gold.Chemscore.Fitness>
14.0268

> <Gold.Chemscore.DG>
-14.4283

> <Gold.Chemscore.ZeroCoef>
-5.4800

> <Gold.Chemscore.Hbond>
1.7438

> <Gold.Chemscore.Metal>
0.0000

> <Gold.Chemscore.Lipo>
71.9484

> <Gold.Chemscore.Internal_Hbond>
0.0000

> <Gold.Chemscore.DEClash>
0.0691

> <Gold.Chemscore.DEInternal>
0.3324

> <Gold.Chemscore.Rot>
2.0680

> <Gold.Chemscore.Internal.Correction>
   9.000000E+99

> <Gold.Chemscore.Hbonds>
donor molecule, donor type, donor heavy atom, donor atom, acceptor molecule, acceptor atom, score
      L1  H     9    29       P1  7948  1.00
      P1  H  7989  7998       L1    17  0.25

> <Gold.Chemscore.Hbond.Weighted>
-5.8244

> <Gold.Chemscore.Metal.Weighted>
-0.0000

> <Gold.Chemscore.Lipo.Weighted>
-8.4180

> <Gold.Chemscore.Internal_Hbond.Weighted>
0.0000

> <Gold.Chemscore.DEClash.Weighted>
0.0691

> <Gold.Chemscore.DEInternal.Weighted>
0.3324

> <Gold.Chemscore.Rot.Weighted>
5.2941

> <Gold.Chemscore.Internal.Correction.Weighted>
   9.000000E+99

> <Gold.Protein.RotatedTorsions>
[ 6907 6896 6895 6894 ] final  -67.75 input  -60.11 | X-H torsion
[ 7974 7965 7964 7962 ] final  100.55 input  175.53 | X-H torsion
[ 8008 7997 7996 7995 ] final  167.36 input   59.86 | X-H torsion
[ 10167 10162 10161 10158 ] final   66.92 input  -65.29 | X-H torsion
[ 10718 10713 10712 10709 ] final   72.87 input   66.30 | X-H torsion
[ 10763 10752 10751 10750 ] final -102.73 input  -60.55 | X-H torsion
[ 11005 11000 10999 10996 ] final  -70.09 input  -57.11 | X-H torsion

> <Gold.Protein.ActiveResidues>
 VAL166  LYS551  ARG553  GLY616  TRP617  ASP618  TYR619  PRO620  LYS621  CYS622 
 ASP623  PHE694  ASN695  SER759  ASP760  ASP761  ALA762  ILE779  LEU786  VAL792 
 PHE793  MET794  SER795  GLU796  ALA797  LYS798  CYS799  TRP800  GLU811  SER814 

> <Gold.Protein.RotatedAtoms>
  150.7392  134.5836  159.5951 H   0  0  0  0  0  0  0  0  0  0  0  0  # atno 6907 bound_to 6896
  152.3243  134.7337  160.0315 H   0  0  0  0  0  0  0  0  0  0  0  0  # atno 6908 bound_to 6896
  151.7843  133.3317  159.3517 H   0  0  0  0  0  0  0  0  0  0  0  0  # atno 6909 bound_to 6896
  145.3841  139.2374  143.3387 H   0  0  0  0  0  0  0  0  0  0  0  0  # atno 7974 bound_to 7965
  156.1641  140.1619  156.8562 H   0  0  0  0  0  0  0  0  0  0  0  0  # atno 8008 bound_to 7997
  154.5189  140.0783  156.8170 H   0  0  0  0  0  0  0  0  0  0  0  0  # atno 8009 bound_to 7997
  155.3648  140.3397  155.4244 H   0  0  0  0  0  0  0  0  0  0  0  0  # atno 8010 bound_to 7997
  140.0952  144.4953  150.7073 H   0  0  0  0  0  0  0  0  0  0  0  0  # atno 10167 bound_to 10162
  157.6521  130.9600  150.0989 H   0  0  0  0  0  0  0  0  0  0  0  0  # atno 10718 bound_to 10713
  154.7755  135.4850  153.9736 H   0  0  0  0  0  0  0  0  0  0  0  0  # atno 10763 bound_to 10752
  153.1423  135.6775  153.9015 H   0  0  0  0  0  0  0  0  0  0  0  0  # atno 10764 bound_to 10752
  153.8685  135.3146  155.3419 H   0  0  0  0  0  0  0  0  0  0  0  0  # atno 10765 bound_to 10752
  141.1567  133.6781  156.6699 H   0  0  0  0  0  0  0  0  0  0  0  0  # atno 11005 bound_to 11000
  146.2828  140.4513  142.8769 LP  0  0  0  0  0  0  0  0  0  0  0  0  # atno 17320 bound_to 7965
  144.8487  140.6968  143.6182 LP  0  0  0  0  0  0  0  0  0  0  0  0  # atno 17321 bound_to 7965
  140.7007  143.2433  151.4871 LP  0  0  0  0  0  0  0  0  0  0  0  0  # atno 17342 bound_to 10162
  139.5702  144.1946  152.1825 LP  0  0  0  0  0  0  0  0  0  0  0  0  # atno 17343 bound_to 10162
  156.1917  130.3655  149.8901 LP  0  0  0  0  0  0  0  0  0  0  0  0  # atno 17370 bound_to 10713
  156.6828  130.8865  151.3578 LP  0  0  0  0  0  0  0  0  0  0  0  0  # atno 17371 bound_to 10713
  140.3182  134.8029  157.4231 LP  0  0  0  0  0  0  0  0  0  0  0  0  # atno 17394 bound_to 11000
  140.1119  134.5334  155.8258 LP  0  0  0  0  0  0  0  0  0  0  0  0  # atno 17395 bound_to 11000

$$$$
