AV-unprocessed.smi:110|AV-procd|sdf|1070|dock8
  -GOLD-   2262018153D 1   1.00000     0.00000
 Structure written by MMmdl.
 46 50  0  0  0  0  0  0  0  0  1 V2000
  144.2036  141.8853  154.9797 O   0  0  0  0  0  0  0  0  0  0  0  0
  145.5073  142.4250  155.0269 C   0  0  0  0  0  0  0  0  0  0  0  0
  146.5482  141.3109  154.8190 C   0  0  2  0  0  0  0  0  0  0  0  0
  147.1831  140.9738  156.0429 O   0  0  0  0  0  0  0  0  0  0  0  0
  148.3519  140.2761  155.7583 C   0  0  2  0  0  0  0  0  0  0  0  0
  149.3492  140.5850  156.8265 N   0  0  0  0  0  0  0  0  0  0  0  0
  149.1775  141.3922  157.9274 C   0  0  0  0  0  0  0  0  0  0  0  0
  150.2141  141.4901  158.7146 N   0  0  0  0  0  0  0  0  0  0  0  0
  151.1841  140.6999  158.1074 C   0  0  0  0  0  0  0  0  0  0  0  0
  152.5311  140.3538  158.4221 C   0  0  0  0  0  0  0  0  0  0  0  0
  153.1959  140.8241  159.5094 N   0  0  0  0  0  0  0  0  0  0  0  0
  154.1570  139.9495  160.1995 C   0  0  0  0  0  0  0  0  0  0  0  0
  154.3461  140.4861  161.6293 C   0  0  0  0  0  0  0  0  0  0  0  0
  153.5273  141.7328  161.5743 C   0  0  0  0  0  0  0  0  0  0  0  0
  153.3752  142.6923  162.5903 C   0  0  0  0  0  0  0  0  0  0  0  0
  152.5619  143.8149  162.3287 C   0  0  0  0  0  0  0  0  0  0  0  0
  151.9294  143.9601  161.0726 C   0  0  0  0  0  0  0  0  0  0  0  0
  152.0974  142.9832  160.0665 C   0  0  0  0  0  0  0  0  0  0  0  0
  152.8999  141.8535  160.3374 C   0  0  0  0  0  0  0  0  0  0  0  0
  153.1768  139.5277  157.5586 N   0  0  0  0  0  0  0  0  0  0  0  0
  152.5559  139.0643  156.4713 C   0  0  0  0  0  0  0  0  0  0  0  0
  151.3095  139.2990  156.0610 N   0  0  0  0  0  0  0  0  0  0  0  0
  150.6483  140.1288  156.9174 C   0  0  0  0  0  0  0  0  0  0  0  0
  148.8480  140.7359  154.3752 C   0  0  1  0  0  0  0  0  0  0  0  0
  148.9593  139.6416  153.4868 O   0  0  0  0  0  0  0  0  0  0  0  0
  147.7284  141.6612  153.8985 C   0  0  2  0  0  0  0  0  0  0  0  0
  148.1132  143.0166  154.0343 O   0  0  0  0  0  0  0  0  0  0  0  0
  146.0655  140.4149  154.4233 H   0  0  0  0  0  0  0  0  0  0  0  0
  148.1795  139.2010  155.8284 H   0  0  0  0  0  0  0  0  0  0  0  0
  149.8104  141.2462  154.4445 H   0  0  0  0  0  0  0  0  0  0  0  0
  147.4703  141.5021  152.8503 H   0  0  0  0  0  0  0  0  0  0  0  0
  144.0835  141.4613  154.1439 H   0  0  0  0  0  0  0  0  0  0  0  0
  145.5813  143.1635  154.2282 H   0  0  0  0  0  0  0  0  0  0  0  0
  145.6667  142.9469  155.9713 H   0  0  0  0  0  0  0  0  0  0  0  0
  148.2503  141.9066  158.1337 H   0  0  0  0  0  0  0  0  0  0  0  0
  153.8071  138.9165  160.2150 H   0  0  0  0  0  0  0  0  0  0  0  0
  155.1076  139.9727  159.6661 H   0  0  0  0  0  0  0  0  0  0  0  0
  153.9472  139.8024  162.3790 H   0  0  0  0  0  0  0  0  0  0  0  0
  155.3897  140.7063  161.8554 H   0  0  0  0  0  0  0  0  0  0  0  0
  153.8696  142.5758  163.5435 H   0  0  0  0  0  0  0  0  0  0  0  0
  152.4271  144.5697  163.0894 H   0  0  0  0  0  0  0  0  0  0  0  0
  151.3165  144.8278  160.8783 H   0  0  0  0  0  0  0  0  0  0  0  0
  151.6212  143.1164  159.1068 H   0  0  0  0  0  0  0  0  0  0  0  0
  153.1416  138.4136  155.8389 H   0  0  0  0  0  0  0  0  0  0  0  0
  149.2180  139.9695  152.6392 H   0  0  0  0  0  0  0  0  0  0  0  0
  148.0231  143.2661  154.9410 H   0  0  0  0  0  0  0  0  0  0  0  0
  1  2  1  0  0  0  0
  1 32  1  0  0  0  0
  2  3  1  0  0  0  0
  2 33  1  0  0  0  0
  2 34  1  0  0  0  0
  3 28  1  0  0  0  0
  3 26  1  0  0  0  0
  3  4  1  0  0  0  0
  4  5  1  0  0  0  0
  5 29  1  0  0  0  0
  5  6  1  0  0  0  0
  5 24  1  0  0  0  0
  6 23  1  0  0  0  0
  6  7  1  0  0  0  0
  7  8  2  0  0  0  0
  7 35  1  0  0  0  0
  8  9  1  0  0  0  0
  9 23  2  0  0  0  0
  9 10  1  0  0  0  0
 10 11  1  0  0  0  0
 10 20  2  0  0  0  0
 11 19  1  0  0  0  0
 11 12  1  0  0  0  0
 12 13  1  0  0  0  0
 12 36  1  0  0  0  0
 12 37  1  0  0  0  0
 13 14  1  0  0  0  0
 13 38  1  0  0  0  0
 13 39  1  0  0  0  0
 14 19  2  0  0  0  0
 14 15  1  0  0  0  0
 15 16  2  0  0  0  0
 15 40  1  0  0  0  0
 16 17  1  0  0  0  0
 16 41  1  0  0  0  0
 17 18  2  0  0  0  0
 17 42  1  0  0  0  0
 18 19  1  0  0  0  0
 18 43  1  0  0  0  0
 20 21  1  0  0  0  0
 21 22  2  0  0  0  0
 21 44  1  0  0  0  0
 22 23  1  0  0  0  0
 24 30  1  0  0  0  0
 24 25  1  0  0  0  0
 24 26  1  0  0  0  0
 25 45  1  0  0  0  0
 26 31  1  0  0  0  0
 26 27  1  0  0  0  0
 27 46  1  0  0  0  0
M  END
> <s_m_source_file>
AV-unprocessed.smi

> <i_m_source_file_index>
110

> <i_lp_mmshare_version>
43012

> <i_f3d_flags>
0

> <s_epik_input>
W09IXVtDSDJdW0NASF0xT1tDQEhdKFtDQEhdKFtPSF0pW0NAQEhdMVtPSF0pbihbY0hdbjIpYyhjMjMpbltjSF1uYzNOKFtDSDJdW0NIMl00KWMoYzQ1KVtjSF1bY0hdW2NIXVtjSF01

> <s_epik_cmdline>
J2VwaWtfcHl0aG9uJywgJy1waCcsICc3LjAnLCAnLXRuJywgJzgnLCAnLW1hJywgJzIwMCcsICctbWV0YWxfYmluZGluZycsICctaW1hZScsICc8aW5maWxlLm1hZT4nLCAnLW9tYWUnLCAnPG91dGZpbGUubWFlPic=

> <r_lp_tautomer_probability>
1

> <r_epik_Ionization_Penalty>
0.00068475

> <r_epik_Ionization_Penalty_Charging>
0

> <r_epik_Ionization_Penalty_Neutral>
0.00068475

> <r_epik_State_Penalty>
0.000417442

> <r_epik_Charging_Adjusted_Penalty>
0.000417442

> <i_epik_Tot_Q>
0

> <i_epik_Tot_abs_Q>
0

> <r_epik_Metal_State_Penalty>
-0

> <b_epik_Metal_Only>
0

> <s_epik_Chemistry_Notes>
This compound contains an acetal/aminal-like group ( X-CH(R)-Y where X, Y are N, S, or O) that may be acid/base labile, releasing an aldehyde.

> <s_lp_Force_Field>
OPLS_2005

> <r_lp_Energy>
57.5739

> <b_lp_Chiralities_Consistent>
1

> <s_lp_Variant>
AV-unprocessed.smi:110-8

> <Gold.Version>
5.8.1

> <Gold.Id.Protein>
6NUR|6NUR_protein|mol2

> <Gold.PLP.Fitness>
63.5295

> <Gold.PLP.PLP>
-53.3132

> <Gold.PLP.part.hbond>
-5.9371

> <Gold.PLP.part.metal>
0.0000

> <Gold.PLP.part.buried>
-4.1674

> <Gold.PLP.part.nonpolar>
-42.6809

> <Gold.PLP.part.repulsive>
0.0613

> <Gold.PLP.ligand.clash>
0.0000

> <Gold.PLP.ligand.torsion>
0.9323

> <Gold.PLP.Chemscore.Hbond>
3.9928

> <Gold.PLP.Chemscore.CHOScore>
0.0000

> <Gold.PLP.Chemscore.Metal>
0.0000

> <Gold.Chemscore.Hbonds>
donor molecule, donor type, donor heavy atom, donor atom, acceptor molecule, acceptor atom, score
      L1  H     1    32       P1 10175  1.00
      L1  H    25    45       P1  7957  1.00
      L1  H    27    46       P1  8028  0.45
      P1  H  7997  8008       L1    20  1.00
      P1  H  8022  8030       L1    27  0.46

> <Gold.PLP.Chemscore.Internal.Correction>
0.1025

> <Gold.Rescore>
     Score         DG    S(hbond)    S(metal)    S(lipo)     H(rot)  DE(clash)    DE(int)     intcor
     13.49     -17.40       2.24        0.00     111.93       3.38       1.22       2.69       ----

> <Gold.Chemscore.Fitness>
13.4875

> <Gold.Chemscore.DG>
-17.3962

> <Gold.Chemscore.ZeroCoef>
-5.4800

> <Gold.Chemscore.Hbond>
2.2402

> <Gold.Chemscore.Metal>
0.0000

> <Gold.Chemscore.Lipo>
111.9323

> <Gold.Chemscore.Internal_Hbond>
0.0000

> <Gold.Chemscore.DEClash>
1.2176

> <Gold.Chemscore.DEInternal>
2.6911

> <Gold.Chemscore.Rot>
3.3837

> <Gold.Chemscore.Internal.Correction>
   9.000000E+99

> <Gold.Chemscore.Hbonds>
donor molecule, donor type, donor heavy atom, donor atom, acceptor molecule, acceptor atom, score
      L1  H     1    32       P1 10175  0.25
      L1  H    25    45       P1  7957  0.93
      L1  H    27    46       P1  8028  0.38
      P1  H  7997  8008       L1    20  0.45
      P1  H  8022  8030       L1    27  0.02

> <Gold.Chemscore.Hbond.Weighted>
-7.4823

> <Gold.Chemscore.Metal.Weighted>
-0.0000

> <Gold.Chemscore.Lipo.Weighted>
-13.0961

> <Gold.Chemscore.Internal_Hbond.Weighted>
0.0000

> <Gold.Chemscore.DEClash.Weighted>
1.2176

> <Gold.Chemscore.DEInternal.Weighted>
2.6911

> <Gold.Chemscore.Rot.Weighted>
8.6622

> <Gold.Chemscore.Internal.Correction.Weighted>
   9.000000E+99

> <Gold.Protein.RotatedTorsions>
[ 6907 6896 6895 6894 ] final -146.48 input  -60.11 | X-H torsion
[ 7974 7965 7964 7962 ] final -168.60 input  175.53 | X-H torsion
[ 8008 7997 7996 7995 ] final  -87.57 input   59.86 | X-H torsion
[ 10167 10162 10161 10158 ] final  -19.80 input  -65.29 | X-H torsion
[ 10718 10713 10712 10709 ] final  152.83 input   66.30 | X-H torsion
[ 10763 10752 10751 10750 ] final  -88.94 input  -60.55 | X-H torsion
[ 11005 11000 10999 10996 ] final -128.76 input  -57.11 | X-H torsion

> <Gold.Protein.ActiveResidues>
 VAL166  LYS551  ARG553  GLY616  TRP617  ASP618  TYR619  PRO620  LYS621  CYS622 
 ASP623  PHE694  ASN695  SER759  ASP760  ASP761  ALA762  ILE779  LEU786  VAL792 
 PHE793  MET794  SER795  GLU796  ALA797  LYS798  CYS799  TRP800  GLU811  SER814 

> <Gold.Protein.RotatedAtoms>
  151.1422  133.4964  159.2596 H   0  0  0  0  0  0  0  0  0  0  0  0  # atno 6907 bound_to 6896
  151.1643  135.0288  159.8734 H   0  0  0  0  0  0  0  0  0  0  0  0  # atno 6908 bound_to 6896
  152.5462  134.1292  159.8485 H   0  0  0  0  0  0  0  0  0  0  0  0  # atno 6909 bound_to 6896
  144.7200  140.2345  143.6299 H   0  0  0  0  0  0  0  0  0  0  0  0  # atno 7974 bound_to 7965
  154.6648  140.0564  157.0101 H   0  0  0  0  0  0  0  0  0  0  0  0  # atno 8008 bound_to 7997
  155.1176  140.3244  155.4487 H   0  0  0  0  0  0  0  0  0  0  0  0  # atno 8009 bound_to 7997
  156.2633  140.2003  156.6298 H   0  0  0  0  0  0  0  0  0  0  0  0  # atno 8010 bound_to 7997
  140.7271  143.4783  151.0152 H   0  0  0  0  0  0  0  0  0  0  0  0  # atno 10167 bound_to 10162
  157.2527  131.0782  151.1719 H   0  0  0  0  0  0  0  0  0  0  0  0  # atno 10718 bound_to 10713
  154.6499  135.5359  153.7889 H   0  0  0  0  0  0  0  0  0  0  0  0  # atno 10763 bound_to 10752
  153.0380  135.6480  154.1033 H   0  0  0  0  0  0  0  0  0  0  0  0  # atno 10764 bound_to 10752
  154.0951  135.2937  155.3243 H   0  0  0  0  0  0  0  0  0  0  0  0  # atno 10765 bound_to 10752
  140.9489  134.1093  157.4081 H   0  0  0  0  0  0  0  0  0  0  0  0  # atno 11005 bound_to 11000
  145.8378  139.2116  143.1845 LP  0  0  0  0  0  0  0  0  0  0  0  0  # atno 17320 bound_to 7965
  146.0373  140.8199  142.9846 LP  0  0  0  0  0  0  0  0  0  0  0  0  # atno 17321 bound_to 7965
  139.8480  143.7476  152.3179 LP  0  0  0  0  0  0  0  0  0  0  0  0  # atno 17342 bound_to 10162
  139.7648  144.7495  151.0311 LP  0  0  0  0  0  0  0  0  0  0  0  0  # atno 17343 bound_to 10162
  157.3261  130.6961  149.6297 LP  0  0  0  0  0  0  0  0  0  0  0  0  # atno 17370 bound_to 10713
  155.9666  130.4321  150.4949 LP  0  0  0  0  0  0  0  0  0  0  0  0  # atno 17371 bound_to 10713
  139.8841  135.0060  156.6349 LP  0  0  0  0  0  0  0  0  0  0  0  0  # atno 17394 bound_to 11000
  140.7631  133.8801  155.8433 LP  0  0  0  0  0  0  0  0  0  0  0  0  # atno 17395 bound_to 11000

$$$$
