AV-unprocessed.smi:157|AV-procd|sdf|1299|dock8
  -GOLD-   2262018583D 1   1.00000     0.00000
 Structure written by MMmdl.
 35 37  0  0  0  0  0  0  0  0  1 V2000
  151.3141  136.5451  154.1216 O   0  0  0  0  0  0  0  0  0  0  0  0
  150.6491  137.7150  154.5486 C   0  0  0  0  0  0  0  0  0  0  0  0
  151.6410  138.8980  154.5892 C   0  0  1  0  0  0  0  0  0  0  0  0
  150.8734  140.1045  154.6482 O   0  0  0  0  0  0  0  0  0  0  0  0
  150.9522  140.6895  155.9161 C   0  0  1  0  0  0  0  0  0  0  0  0
  149.5710  141.0100  156.3972 N   0  0  0  0  0  0  0  0  0  0  0  0
  149.1799  141.1639  157.6697 C   0  0  0  0  0  0  0  0  0  0  0  0
  147.8999  141.4595  157.8189 N   0  0  0  0  0  0  0  0  0  0  0  0
  147.4088  141.4957  156.5151 C   0  0  0  0  0  0  0  0  0  0  0  0
  148.4292  141.2156  155.6177 C   0  0  0  0  0  0  0  0  0  0  0  0
  148.5492  141.1213  154.2442 N   0  0  0  0  0  0  0  0  0  0  0  0
  147.4674  140.9590  153.5494 C   0  0  0  0  0  0  0  0  0  0  0  0
  146.1385  140.9539  153.9489 N   0  0  0  0  0  0  0  0  0  0  0  0
  145.5605  141.9753  154.8054 C   0  0  0  0  0  0  0  0  0  0  0  0
  145.9672  141.8414  156.2780 C   0  0  1  0  0  0  0  0  0  0  0  0
  145.1944  140.8250  156.8829 O   0  0  0  0  0  0  0  0  0  0  0  0
  151.6132  139.6693  156.8366 C   0  0  0  0  0  0  0  0  0  0  0  0
  152.5199  138.9691  155.8510 C   0  0  1  0  0  0  0  0  0  0  0  0
  152.9653  137.7188  156.3368 O   0  0  0  0  0  0  0  0  0  0  0  0
  152.2711  138.8868  153.6985 H   0  0  0  0  0  0  0  0  0  0  0  0
  151.4805  141.6420  155.8577 H   0  0  0  0  0  0  0  0  0  0  0  0
  145.7208  142.7721  156.7900 H   0  0  0  0  0  0  0  0  0  0  0  0
  153.3893  139.5979  155.6529 H   0  0  0  0  0  0  0  0  0  0  0  0
  151.0949  136.3883  153.2160 H   0  0  0  0  0  0  0  0  0  0  0  0
  149.7962  137.9221  153.9024 H   0  0  0  0  0  0  0  0  0  0  0  0
  150.2544  137.5017  155.5417 H   0  0  0  0  0  0  0  0  0  0  0  0
  149.8484  141.0610  158.5115 H   0  0  0  0  0  0  0  0  0  0  0  0
  147.5612  140.8051  152.4734 H   0  0  0  0  0  0  0  0  0  0  0  0
  145.4478  140.5713  153.3194 H   0  0  0  0  0  0  0  0  0  0  0  0
  145.9034  142.9416  154.4325 H   0  0  0  0  0  0  0  0  0  0  0  0
  144.4752  141.9769  154.7013 H   0  0  0  0  0  0  0  0  0  0  0  0
  145.3642  140.0149  156.4263 H   0  0  0  0  0  0  0  0  0  0  0  0
  152.1372  140.1559  157.6598 H   0  0  0  0  0  0  0  0  0  0  0  0
  150.8619  138.9867  157.2381 H   0  0  0  0  0  0  0  0  0  0  0  0
  152.5196  137.5369  157.1502 H   0  0  0  0  0  0  0  0  0  0  0  0
  1  2  1  0  0  0  0
  1 24  1  0  0  0  0
  2  3  1  0  0  0  0
  2 25  1  0  0  0  0
  2 26  1  0  0  0  0
  3 20  1  0  0  0  0
  3 18  1  0  0  0  0
  3  4  1  0  0  0  0
  4  5  1  0  0  0  0
  5 21  1  0  0  0  0
  5  6  1  0  0  0  0
  5 17  1  0  0  0  0
  6 10  1  0  0  0  0
  6  7  1  0  0  0  0
  7  8  2  0  0  0  0
  7 27  1  0  0  0  0
  8  9  1  0  0  0  0
  9 15  1  0  0  0  0
  9 10  2  0  0  0  0
 10 11  1  0  0  0  0
 11 12  2  0  0  0  0
 12 13  1  0  0  0  0
 12 28  1  0  0  0  0
 13 14  1  0  0  0  0
 13 29  1  0  0  0  0
 14 15  1  0  0  0  0
 14 30  1  0  0  0  0
 14 31  1  0  0  0  0
 15 22  1  0  0  0  0
 15 16  1  0  0  0  0
 16 32  1  0  0  0  0
 17 18  1  0  0  0  0
 17 33  1  0  0  0  0
 17 34  1  0  0  0  0
 18 23  1  0  0  0  0
 18 19  1  0  0  0  0
 19 35  1  0  0  0  0
M  END
> <s_m_source_file>
AV-unprocessed.smi

> <i_m_source_file_index>
157

> <i_lp_mmshare_version>
43012

> <i_f3d_flags>
0

> <s_epik_input>
W09IXVtDSDJdW0NASF0xT1tDQEhdKFtDSDJdW0NAQEhdMVtPSF0pbihbY0hdbjIpYyhjMjMpTj1bQ0hdW05IXVtDSDJdW0NASF0zW09IXQ==

> <s_epik_cmdline>
J2VwaWtfcHl0aG9uJywgJy1waCcsICc3LjAnLCAnLXRuJywgJzgnLCAnLW1hJywgJzIwMCcsICctbWV0YWxfYmluZGluZycsICctaW1hZScsICc8aW5maWxlLm1hZT4nLCAnLW9tYWUnLCAnPG91dGZpbGUubWFlPic=

> <r_lp_tautomer_probability>
1

> <r_epik_Ionization_Penalty>
0.0357149

> <r_epik_Ionization_Penalty_Charging>
0.0355056

> <r_epik_Ionization_Penalty_Neutral>
0.000209255

> <r_epik_State_Penalty>
0.0296046

> <r_epik_Charging_Adjusted_Penalty>
0.0651102

> <i_epik_Tot_Q>
0

> <i_epik_Tot_abs_Q>
0

> <r_epik_Metal_State_Penalty>
3.03559e-05

> <b_epik_Metal_Only>
0

> <s_epik_Chemistry_Notes>
This compound has an imine and may undergo hydrolysis. This compound contains an acetal/aminal-like group ( X-CH(R)-Y where X, Y are N, S, or O) that may be acid/base labile, releasing an aldehyde.

> <s_lp_Force_Field>
OPLS_2005

> <r_lp_Energy>
47.2619

> <b_lp_Chiralities_Consistent>
1

> <s_lp_Variant>
AV-unprocessed.smi:157-9

> <Gold.Version>
5.8.1

> <Gold.Id.Protein>
6NUR|6NUR_protein|mol2

> <Gold.PLP.Fitness>
43.3382

> <Gold.PLP.PLP>
-29.9354

> <Gold.PLP.part.hbond>
-4.8181

> <Gold.PLP.part.metal>
0.0000

> <Gold.PLP.part.buried>
-4.8223

> <Gold.PLP.part.nonpolar>
-21.0194

> <Gold.PLP.part.repulsive>
0.3415

> <Gold.PLP.ligand.clash>
0.0000

> <Gold.PLP.ligand.torsion>
0.7927

> <Gold.PLP.Chemscore.Hbond>
3.9913

> <Gold.PLP.Chemscore.CHOScore>
1.0000

> <Gold.PLP.Chemscore.Metal>
0.0000

> <Gold.Chemscore.Hbonds>
donor molecule, donor type, donor heavy atom, donor atom, acceptor molecule, acceptor atom, score
      L1  H     1    24       P1  7949  1.00
      L1  H    13    29       P1 10175  1.00
      P1  H  7989  7998       L1     4  0.85
      P1  H 10752 10765       L1     1  1.00
      L1  C    12    28       P1  7957  0.99

> <Gold.PLP.Chemscore.Internal.Correction>
0.0144

> <Gold.Rescore>
     Score         DG    S(hbond)    S(metal)    S(lipo)     H(rot)  DE(clash)    DE(int)     intcor
      5.52      -8.13       2.26        0.00      37.59       3.64       0.18       2.43       ----

> <Gold.Chemscore.Fitness>
5.5179

> <Gold.Chemscore.DG>
-8.1335

> <Gold.Chemscore.ZeroCoef>
-5.4800

> <Gold.Chemscore.Hbond>
2.2648

> <Gold.Chemscore.Metal>
0.0000

> <Gold.Chemscore.Lipo>
37.5873

> <Gold.Chemscore.Internal_Hbond>
0.0000

> <Gold.Chemscore.DEClash>
0.1812

> <Gold.Chemscore.DEInternal>
2.4344

> <Gold.Chemscore.Rot>
3.6362

> <Gold.Chemscore.Internal.Correction>
   9.000000E+99

> <Gold.Chemscore.Hbonds>
donor molecule, donor type, donor heavy atom, donor atom, acceptor molecule, acceptor atom, score
      L1  H     1    24       P1  7949  0.35
      L1  H    13    29       P1 10175  0.89
      P1  H  7989  7998       L1     4  0.13
      P1  H 10752 10765       L1     1  0.26

> <Gold.Chemscore.Hbond.Weighted>
-7.5645

> <Gold.Chemscore.Metal.Weighted>
-0.0000

> <Gold.Chemscore.Lipo.Weighted>
-4.3977

> <Gold.Chemscore.Internal_Hbond.Weighted>
0.0000

> <Gold.Chemscore.DEClash.Weighted>
0.1812

> <Gold.Chemscore.DEInternal.Weighted>
2.4344

> <Gold.Chemscore.Rot.Weighted>
9.3087

> <Gold.Chemscore.Internal.Correction.Weighted>
   9.000000E+99

> <Gold.Protein.RotatedTorsions>
[ 6907 6896 6895 6894 ] final  -43.14 input  -60.11 | X-H torsion
[ 7974 7965 7964 7962 ] final  -67.55 input  175.53 | X-H torsion
[ 8008 7997 7996 7995 ] final  174.16 input   59.86 | X-H torsion
[ 10167 10162 10161 10158 ] final  101.05 input  -65.29 | X-H torsion
[ 10718 10713 10712 10709 ] final  -66.23 input   66.30 | X-H torsion
[ 10763 10752 10751 10750 ] final  157.92 input  -60.55 | X-H torsion
[ 11005 11000 10999 10996 ] final   99.56 input  -57.11 | X-H torsion

> <Gold.Protein.ActiveResidues>
 VAL166  LYS551  ARG553  GLY616  TRP617  ASP618  TYR619  PRO620  LYS621  CYS622 
 ASP623  PHE694  ASN695  SER759  ASP760  ASP761  ALA762  ILE779  LEU786  VAL792 
 PHE793  MET794  SER795  GLU796  ALA797  LYS798  CYS799  TRP800  GLU811  SER814 

> <Gold.Protein.RotatedAtoms>
  150.9472  134.8876  159.7649 H   0  0  0  0  0  0  0  0  0  0  0  0  # atno 6907 bound_to 6896
  152.5105  134.3857  159.9376 H   0  0  0  0  0  0  0  0  0  0  0  0  # atno 6908 bound_to 6896
  151.3875  133.3760  159.2752 H   0  0  0  0  0  0  0  0  0  0  0  0  # atno 6909 bound_to 6896
  145.7277  140.9010  143.0596 H   0  0  0  0  0  0  0  0  0  0  0  0  # atno 7974 bound_to 7965
  156.1002  140.1441  156.9477 H   0  0  0  0  0  0  0  0  0  0  0  0  # atno 8008 bound_to 7997
  154.4697  140.0914  156.7159 H   0  0  0  0  0  0  0  0  0  0  0  0  # atno 8009 bound_to 7997
  155.4773  140.3444  155.4336 H   0  0  0  0  0  0  0  0  0  0  0  0  # atno 8010 bound_to 7997
  139.7472  144.6994  151.0486 H   0  0  0  0  0  0  0  0  0  0  0  0  # atno 10167 bound_to 10162
  156.0624  130.4259  150.1678 H   0  0  0  0  0  0  0  0  0  0  0  0  # atno 10718 bound_to 10713
  154.2079  135.2787  155.2968 H   0  0  0  0  0  0  0  0  0  0  0  0  # atno 10763 bound_to 10752
  154.5802  135.5591  153.7181 H   0  0  0  0  0  0  0  0  0  0  0  0  # atno 10764 bound_to 10752
  153.0071  135.6343  154.2217 H   0  0  0  0  0  0  0  0  0  0  0  0  # atno 10765 bound_to 10752
  139.8771  134.9101  156.4624 H   0  0  0  0  0  0  0  0  0  0  0  0  # atno 11005 bound_to 11000
  144.6900  139.9289  143.7471 LP  0  0  0  0  0  0  0  0  0  0  0  0  # atno 17320 bound_to 7965
  146.0566  139.3563  143.0607 LP  0  0  0  0  0  0  0  0  0  0  0  0  # atno 17321 bound_to 7965
  140.7793  143.4852  150.9965 LP  0  0  0  0  0  0  0  0  0  0  0  0  # atno 17342 bound_to 10162
  139.8540  143.7400  152.3177 LP  0  0  0  0  0  0  0  0  0  0  0  0  # atno 17343 bound_to 10162
  156.9744  130.9845  151.3451 LP  0  0  0  0  0  0  0  0  0  0  0  0  # atno 17370 bound_to 10713
  157.5642  130.8266  149.8306 LP  0  0  0  0  0  0  0  0  0  0  0  0  # atno 17371 bound_to 10713
  140.8855  133.7887  155.9513 LP  0  0  0  0  0  0  0  0  0  0  0  0  # atno 17394 bound_to 11000
  140.8809  134.2612  157.5144 LP  0  0  0  0  0  0  0  0  0  0  0  0  # atno 17395 bound_to 11000

$$$$
