AV-unprocessed.smi:2965|AV-procd|sdf|11323|dock10
  -GOLD-   2272016233D 1   1.00000     0.00000
 Structure written by MMmdl.
 36 37  0  0  0  0  0  0  0  0  1 V2000
  148.1317  139.1304  157.8385 O   0  0  0  0  0  0  0  0  0  0  0  0
  148.9069  138.5136  158.5705 C   0  0  0  0  0  0  0  0  0  0  0  0
  150.3607  138.9763  158.7401 C   0  0  0  0  0  0  0  0  0  0  0  0
  150.6301  140.2774  158.1054 N   0  0  0  0  0  0  0  0  0  0  0  0
  151.1882  141.2843  158.9172 C   0  0  0  0  0  0  0  0  0  0  0  0
  151.4742  142.5189  158.4612 C   0  0  0  0  0  0  0  0  0  0  0  0
  152.1336  143.5635  159.3485 C   0  0  0  0  0  0  0  0  0  0  0  0
  153.2868  143.1158  159.8456 F   0  0  0  0  0  0  0  0  0  0  0  0
  152.3853  144.6643  158.6416 F   0  0  0  0  0  0  0  0  0  0  0  0
  151.3400  143.8980  160.3667 F   0  0  0  0  0  0  0  0  0  0  0  0
  151.2057  142.7666  157.0581 C   0  0  0  0  0  0  0  0  0  0  0  0
  150.6850  141.8101  156.2645 C   0  0  0  0  0  0  0  0  0  0  0  0
  150.3643  140.4771  156.7795 C   0  0  0  0  0  0  0  0  0  0  0  0
  149.8884  139.5948  156.0643 O   0  0  0  0  0  0  0  0  0  0  0  0
  148.5574  137.4123  159.2522 N   0  0  0  0  0  0  0  0  0  0  0  0
  147.2269  136.8135  159.2690 C   0  0  0  0  0  0  0  0  0  0  0  0
  146.9010  136.1932  160.6385 C   0  0  1  0  0  0  0  0  0  0  0  0
  147.7317  134.9656  161.0125 C   0  0  0  0  0  0  0  0  0  0  0  0
  147.6059  134.9658  162.5185 C   0  0  0  0  0  0  0  0  0  0  0  0
  147.6437  136.4579  162.8406 C   0  0  0  0  0  0  0  0  0  0  0  0
  147.1595  137.1303  161.6797 O   0  0  0  0  0  0  0  0  0  0  0  0
  150.6081  139.0227  159.8026 H   0  0  0  0  0  0  0  0  0  0  0  0
  151.0131  138.2045  158.3294 H   0  0  0  0  0  0  0  0  0  0  0  0
  151.3810  140.9843  159.9370 H   0  0  0  0  0  0  0  0  0  0  0  0
  151.4231  143.7364  156.6355 H   0  0  0  0  0  0  0  0  0  0  0  0
  150.4976  142.0303  155.2237 H   0  0  0  0  0  0  0  0  0  0  0  0
  149.2617  136.9658  159.8216 H   0  0  0  0  0  0  0  0  0  0  0  0
  146.4636  137.5401  158.9855 H   0  0  0  0  0  0  0  0  0  0  0  0
  147.2050  136.0359  158.5052 H   0  0  0  0  0  0  0  0  0  0  0  0
  145.8414  135.9361  160.6873 H   0  0  0  0  0  0  0  0  0  0  0  0
  147.3672  134.0464  160.5527 H   0  0  0  0  0  0  0  0  0  0  0  0
  148.7750  135.1036  160.7252 H   0  0  0  0  0  0  0  0  0  0  0  0
  146.6440  134.5419  162.8109 H   0  0  0  0  0  0  0  0  0  0  0  0
  148.3944  134.4012  163.0164 H   0  0  0  0  0  0  0  0  0  0  0  0
  147.0464  136.7041  163.7190 H   0  0  0  0  0  0  0  0  0  0  0  0
  148.6676  136.7841  163.0258 H   0  0  0  0  0  0  0  0  0  0  0  0
  1  2  2  0  0  0  0
  2  3  1  0  0  0  0
  2 15  1  0  0  0  0
  3  4  1  0  0  0  0
  3 22  1  0  0  0  0
  3 23  1  0  0  0  0
  4 13  1  0  0  0  0
  4  5  1  0  0  0  0
  5  6  2  0  0  0  0
  5 24  1  0  0  0  0
  6  7  1  0  0  0  0
  6 11  1  0  0  0  0
  7  8  1  0  0  0  0
  7  9  1  0  0  0  0
  7 10  1  0  0  0  0
 11 12  2  0  0  0  0
 11 25  1  0  0  0  0
 12 13  1  0  0  0  0
 12 26  1  0  0  0  0
 13 14  2  0  0  0  0
 15 16  1  0  0  0  0
 15 27  1  0  0  0  0
 16 17  1  0  0  0  0
 16 28  1  0  0  0  0
 16 29  1  0  0  0  0
 17 21  1  0  0  0  0
 17 18  1  0  0  0  0
 17 30  1  0  0  0  0
 18 19  1  0  0  0  0
 18 31  1  0  0  0  0
 18 32  1  0  0  0  0
 19 20  1  0  0  0  0
 19 33  1  0  0  0  0
 19 34  1  0  0  0  0
 20 21  1  0  0  0  0
 20 35  1  0  0  0  0
 20 36  1  0  0  0  0
M  END
> <s_m_source_file>
AV-unprocessed.smi

> <i_m_source_file_index>
2965

> <i_lp_mmshare_version>
43012

> <i_f3d_flags>
0

> <s_epik_input>
TzFbQ0gyXVtDSDJdW0NIMl1bQ0BIXTFbQ0gyXVtOSF1DKD1PKVtDSDJdbjJbY0hdYyhDKEYpKEYpRilbY0hdW2NIXWMyPU8=

> <s_epik_cmdline>
J2VwaWtfcHl0aG9uJywgJy1waCcsICc3LjAnLCAnLXRuJywgJzgnLCAnLW1hJywgJzIwMCcsICctbWV0YWxfYmluZGluZycsICctaW1hZScsICc8aW5maWxlLm1hZT4nLCAnLW9tYWUnLCAnPG91dGZpbGUubWFlPic=

> <r_lp_tautomer_probability>
1

> <r_epik_Ionization_Penalty>
4.53327e-08

> <r_epik_Ionization_Penalty_Charging>
1.84737e-08

> <r_epik_Ionization_Penalty_Neutral>
2.6859e-08

> <r_epik_State_Penalty>
-0

> <r_epik_Charging_Adjusted_Penalty>
1.84737e-08

> <i_epik_Tot_Q>
0

> <i_epik_Tot_abs_Q>
0

> <r_epik_Metal_State_Penalty>
-0

> <b_epik_Metal_Only>
0

> <s_lp_Force_Field>
OPLS_2005

> <r_lp_Energy>
29.2256

> <b_lp_Chiralities_Consistent>
1

> <s_lp_Variant>
AV-unprocessed.smi:2965-2

> <Gold.Version>
5.8.1

> <Gold.Id.Protein>
6NUR|6NUR_protein|mol2

> <Gold.PLP.Fitness>
44.8438

> <Gold.PLP.PLP>
-42.9835

> <Gold.PLP.part.hbond>
-2.0000

> <Gold.PLP.part.metal>
0.0000

> <Gold.PLP.part.buried>
-5.5963

> <Gold.PLP.part.nonpolar>
-36.2712

> <Gold.PLP.part.repulsive>
0.2100

> <Gold.PLP.ligand.clash>
0.4134

> <Gold.PLP.ligand.torsion>
0.3207

> <Gold.PLP.Chemscore.Hbond>
0.9464

> <Gold.PLP.Chemscore.CHOScore>
0.0000

> <Gold.PLP.Chemscore.Metal>
0.0000

> <Gold.Chemscore.Hbonds>
donor molecule, donor type, donor heavy atom, donor atom, acceptor molecule, acceptor atom, score
      P1  H  6931  6943       L1    21  0.05
      P1  H  6934  6947       L1    21  0.93

> <Gold.PLP.Chemscore.Internal.Correction>
0.0758

> <Gold.Rescore>
     Score         DG    S(hbond)    S(metal)    S(lipo)     H(rot)  DE(clash)    DE(int)     intcor
     10.56     -13.23       0.97        0.00      79.48       1.87       0.31       2.36       ----

> <Gold.Chemscore.Fitness>
10.5599

> <Gold.Chemscore.DG>
-13.2303

> <Gold.Chemscore.ZeroCoef>
-5.4800

> <Gold.Chemscore.Hbond>
0.9682

> <Gold.Chemscore.Metal>
0.0000

> <Gold.Chemscore.Lipo>
79.4755

> <Gold.Chemscore.Internal_Hbond>
0.0000

> <Gold.Chemscore.DEClash>
0.3067

> <Gold.Chemscore.DEInternal>
2.3637

> <Gold.Chemscore.Rot>
1.8681

> <Gold.Chemscore.Internal.Correction>
   9.000000E+99

> <Gold.Chemscore.Hbonds>
donor molecule, donor type, donor heavy atom, donor atom, acceptor molecule, acceptor atom, score
      P1  H  6934  6947       L1    21  0.66

> <Gold.Chemscore.Hbond.Weighted>
-3.2339

> <Gold.Chemscore.Metal.Weighted>
-0.0000

> <Gold.Chemscore.Lipo.Weighted>
-9.2986

> <Gold.Chemscore.Internal_Hbond.Weighted>
0.0000

> <Gold.Chemscore.DEClash.Weighted>
0.3067

> <Gold.Chemscore.DEInternal.Weighted>
2.3637

> <Gold.Chemscore.Rot.Weighted>
4.7822

> <Gold.Chemscore.Internal.Correction.Weighted>
   9.000000E+99

> <Gold.Protein.RotatedTorsions>
[ 6907 6896 6895 6894 ] final  154.40 input  -60.11 | X-H torsion
[ 7974 7965 7964 7962 ] final  121.23 input  175.53 | X-H torsion
[ 8008 7997 7996 7995 ] final  -43.73 input   59.86 | X-H torsion
[ 10167 10162 10161 10158 ] final  -92.11 input  -65.29 | X-H torsion
[ 10718 10713 10712 10709 ] final   24.17 input   66.30 | X-H torsion
[ 10763 10752 10751 10750 ] final   99.44 input  -60.55 | X-H torsion
[ 11005 11000 10999 10996 ] final  116.80 input  -57.11 | X-H torsion

> <Gold.Protein.ActiveResidues>
 VAL166  LYS551  ARG553  GLY616  TRP617  ASP618  TYR619  PRO620  LYS621  CYS622 
 ASP623  PHE694  ASN695  SER759  ASP760  ASP761  ALA762  ILE779  LEU786  VAL792 
 PHE793  MET794  SER795  GLU796  ALA797  LYS798  CYS799  TRP800  GLU811  SER814 

> <Gold.Protein.RotatedAtoms>
  152.0590  133.4053  159.4409 H   0  0  0  0  0  0  0  0  0  0  0  0  # atno 6907 bound_to 6896
  150.6867  134.3221  159.4800 H   0  0  0  0  0  0  0  0  0  0  0  0  # atno 6908 bound_to 6896
  152.1040  134.9321  160.0619 H   0  0  0  0  0  0  0  0  0  0  0  0  # atno 6909 bound_to 6896
  145.1217  139.3385  143.4711 H   0  0  0  0  0  0  0  0  0  0  0  0  # atno 7974 bound_to 7965
  154.3997  140.1440  156.3566 H   0  0  0  0  0  0  0  0  0  0  0  0  # atno 8008 bound_to 7997
  155.8220  140.3469  155.5499 H   0  0  0  0  0  0  0  0  0  0  0  0  # atno 8009 bound_to 7997
  155.8278  140.0907  157.1801 H   0  0  0  0  0  0  0  0  0  0  0  0  # atno 8010 bound_to 7997
  140.3381  143.2957  151.9866 H   0  0  0  0  0  0  0  0  0  0  0  0  # atno 10167 bound_to 10162
  157.1761  130.6781  149.6095 H   0  0  0  0  0  0  0  0  0  0  0  0  # atno 10718 bound_to 10713
  153.3015  135.4113  155.1256 H   0  0  0  0  0  0  0  0  0  0  0  0  # atno 10763 bound_to 10752
  154.8550  135.3542  154.5846 H   0  0  0  0  0  0  0  0  0  0  0  0  # atno 10764 bound_to 10752
  153.6271  135.7062  153.5347 H   0  0  0  0  0  0  0  0  0  0  0  0  # atno 10765 bound_to 10752
  139.9053  134.9602  156.7254 H   0  0  0  0  0  0  0  0  0  0  0  0  # atno 11005 bound_to 11000
  146.3520  140.1179  142.8601 LP  0  0  0  0  0  0  0  0  0  0  0  0  # atno 17320 bound_to 7965
  145.0733  140.9170  143.4869 LP  0  0  0  0  0  0  0  0  0  0  0  0  # atno 17321 bound_to 7965
  139.4845  144.6179  151.7310 LP  0  0  0  0  0  0  0  0  0  0  0  0  # atno 17342 bound_to 10162
  140.5334  144.0693  150.6062 LP  0  0  0  0  0  0  0  0  0  0  0  0  # atno 17343 bound_to 10162
  155.9731  130.4662  150.6283 LP  0  0  0  0  0  0  0  0  0  0  0  0  # atno 17370 bound_to 10713
  157.3997  131.0808  151.1319 LP  0  0  0  0  0  0  0  0  0  0  0  0  # atno 17371 bound_to 10713
  140.6968  133.9342  155.7999 LP  0  0  0  0  0  0  0  0  0  0  0  0  # atno 17394 bound_to 11000
  141.0401  134.0633  157.3912 LP  0  0  0  0  0  0  0  0  0  0  0  0  # atno 17395 bound_to 11000

$$$$
