AV-unprocessed.smi:1944|AV-procd|sdf|7855|dock1
  -GOLD-   2272010 03D 1   1.00000     0.00000
 Structure written by MMmdl.
 46 47  0  0  0  0  0  0  0  0  2 V2000
  151.7735  138.3339  154.4789 C   0  0  0  0  0  0  0  0  0  0  0  0
  150.4637  138.3653  153.9216 O   0  0  0  0  0  0  0  0  0  0  0  0
  149.6591  139.4565  154.1894 C   0  0  0  0  0  0  0  0  0  0  0  0
  150.2029  140.5137  154.8434 N   0  0  0  0  0  0  0  0  0  0  0  0
  149.4205  141.5814  155.1022 C   0  0  0  0  0  0  0  0  0  0  0  0
  148.0685  141.6557  154.7208 C   0  0  0  0  0  0  0  0  0  0  0  0
  147.5020  140.5607  154.0426 C   0  0  0  0  0  0  0  0  0  0  0  0
  148.3062  139.4258  153.7769 C   0  0  0  0  0  0  0  0  0  0  0  0
  147.8401  138.2755  153.0816 N   0  0  0  0  0  0  0  0  0  0  0  0
  146.5909  137.7848  153.0183 C   0  0  0  0  0  0  0  0  0  0  0  0
  145.6084  138.2574  153.5896 O   0  0  0  0  0  0  0  0  0  0  0  0
  146.5399  136.6793  152.2617 N   0  0  0  0  0  0  0  0  0  0  0  0
  145.3326  135.9038  152.0008 C   0  0  0  0  0  0  0  0  0  0  0  0
  145.1899  135.5685  150.5027 C   0  0  0  0  0  0  0  0  0  0  0  0
  144.9893  134.1183  150.2361 N   0  3  2  0  0  0  0  0  0  0  0  0
  143.8855  133.5506  151.0576 C   0  0  0  0  0  0  0  0  0  0  0  0
  143.5391  132.1180  150.6223 C   0  0  0  0  0  0  0  0  0  0  0  0
  144.7752  131.2139  150.6708 C   0  0  0  0  0  0  0  0  0  0  0  0
  145.9020  131.8282  149.8294 C   0  0  0  0  0  0  0  0  0  0  0  0
  146.2272  133.2759  150.2561 C   0  0  2  0  0  0  0  0  0  0  0  0
  146.9920  133.3306  151.5962 C   0  0  0  0  0  0  0  0  0  0  0  0
  152.2688  137.4091  154.1838 H   0  0  0  0  0  0  0  0  0  0  0  0
  151.7444  138.3597  155.5693 H   0  0  0  0  0  0  0  0  0  0  0  0
  152.3808  139.1647  154.1168 H   0  0  0  0  0  0  0  0  0  0  0  0
  149.8881  142.4040  155.6227 H   0  0  0  0  0  0  0  0  0  0  0  0
  147.4803  142.5351  154.9384 H   0  0  0  0  0  0  0  0  0  0  0  0
  146.4715  140.6206  153.7286 H   0  0  0  0  0  0  0  0  0  0  0  0
  148.5584  137.7269  152.6313 H   0  0  0  0  0  0  0  0  0  0  0  0
  147.3942  136.3566  151.8305 H   0  0  0  0  0  0  0  0  0  0  0  0
  145.3358  134.9926  152.6017 H   0  0  0  0  0  0  0  0  0  0  0  0
  144.4920  136.5053  152.3454 H   0  0  0  0  0  0  0  0  0  0  0  0
  144.3871  136.1524  150.0521 H   0  0  0  0  0  0  0  0  0  0  0  0
  146.1038  135.8782  149.9940 H   0  0  0  0  0  0  0  0  0  0  0  0
  144.1551  133.5728  152.1140 H   0  0  0  0  0  0  0  0  0  0  0  0
  142.9951  134.1718  150.9529 H   0  0  0  0  0  0  0  0  0  0  0  0
  142.7555  131.7130  151.2635 H   0  0  0  0  0  0  0  0  0  0  0  0
  143.1341  132.1308  149.6094 H   0  0  0  0  0  0  0  0  0  0  0  0
  145.1025  131.0849  151.7029 H   0  0  0  0  0  0  0  0  0  0  0  0
  144.5278  130.2196  150.2978 H   0  0  0  0  0  0  0  0  0  0  0  0
  146.7951  131.2049  149.8884 H   0  0  0  0  0  0  0  0  0  0  0  0
  145.6016  131.8240  148.7805 H   0  0  0  0  0  0  0  0  0  0  0  0
  146.9016  133.6597  149.4916 H   0  0  0  0  0  0  0  0  0  0  0  0
  147.8689  132.6832  151.5645 H   0  0  0  0  0  0  0  0  0  0  0  0
  146.3806  133.0053  152.4371 H   0  0  0  0  0  0  0  0  0  0  0  0
  147.3537  134.3348  151.8154 H   0  0  0  0  0  0  0  0  0  0  0  0
  144.6534  134.0715  149.2844 H   0  0  0  0  0  0  0  0  0  0  0  0
  1  2  1  0  0  0  0
  1 22  1  0  0  0  0
  1 23  1  0  0  0  0
  1 24  1  0  0  0  0
  2  3  1  0  0  0  0
  3  8  1  0  0  0  0
  3  4  2  0  0  0  0
  4  5  1  0  0  0  0
  5  6  2  0  0  0  0
  5 25  1  0  0  0  0
  6  7  1  0  0  0  0
  6 26  1  0  0  0  0
  7  8  2  0  0  0  0
  7 27  1  0  0  0  0
  8  9  1  0  0  0  0
  9 10  1  0  0  0  0
  9 28  1  0  0  0  0
 10 11  2  0  0  0  0
 10 12  1  0  0  0  0
 12 13  1  0  0  0  0
 12 29  1  0  0  0  0
 13 14  1  0  0  0  0
 13 30  1  0  0  0  0
 13 31  1  0  0  0  0
 14 15  1  0  0  0  0
 14 32  1  0  0  0  0
 14 33  1  0  0  0  0
 15 20  1  0  0  0  0
 15 16  1  0  0  0  0
 15 46  1  0  0  0  0
 16 17  1  0  0  0  0
 16 34  1  0  0  0  0
 16 35  1  0  0  0  0
 17 18  1  0  0  0  0
 17 36  1  0  0  0  0
 17 37  1  0  0  0  0
 18 19  1  0  0  0  0
 18 38  1  0  0  0  0
 18 39  1  0  0  0  0
 19 20  1  0  0  0  0
 19 40  1  0  0  0  0
 19 41  1  0  0  0  0
 20 21  1  0  0  0  0
 20 42  1  0  0  0  0
 21 43  1  0  0  0  0
 21 44  1  0  0  0  0
 21 45  1  0  0  0  0
M  CHG  1  15   1
M  END
> <s_m_source_file>
AV-unprocessed.smi

> <i_m_source_file_index>
1944

> <i_lp_mmshare_version>
43012

> <i_f3d_flags>
0

> <s_epik_input>
W0NIM11PYzFuW2NIXVtjSF1bY0hdYzFbTkhdQyg9TylbTkhdW0NIMl1bQ0gyXU4yW0NIMl1bQ0gyXVtDSDJdW0NIMl1bQ0BIXTJbQ0gzXQ==

> <s_epik_cmdline>
J2VwaWtfcHl0aG9uJywgJy1waCcsICc3LjAnLCAnLXRuJywgJzgnLCAnLW1hJywgJzIwMCcsICctbWV0YWxfYmluZGluZycsICctaW1hZScsICc8aW5maWxlLm1hZT4nLCAnLW9tYWUnLCAnPG91dGZpbGUubWFlPic=

> <r_lp_tautomer_probability>
1

> <r_epik_Ionization_Penalty>
0.00219525

> <r_epik_Ionization_Penalty_Charging>
0.00211816

> <r_epik_Ionization_Penalty_Neutral>
7.7088e-05

> <r_epik_State_Penalty>
0.00145254

> <r_epik_Charging_Adjusted_Penalty>
0.0035707

> <i_epik_Tot_Q>
1

> <i_epik_Tot_abs_Q>
1

> <r_epik_Metal_State_Penalty>
-0

> <b_epik_Metal_Only>
0

> <s_lp_Force_Field>
OPLS_2005

> <r_lp_Energy>
23.2027

> <b_lp_Chiralities_Consistent>
1

> <s_lp_Variant>
AV-unprocessed.smi:1944-3

> <Gold.Version>
5.8.1

> <Gold.Id.Protein>
6NUR|6NUR_protein|mol2

> <Gold.PLP.Fitness>
50.2177

> <Gold.PLP.PLP>
-40.5589

> <Gold.PLP.part.hbond>
-4.6261

> <Gold.PLP.part.metal>
0.0000

> <Gold.PLP.part.buried>
-0.0702

> <Gold.PLP.part.nonpolar>
-37.6124

> <Gold.PLP.part.repulsive>
1.2945

> <Gold.PLP.ligand.clash>
0.0000

> <Gold.PLP.ligand.torsion>
0.7694

> <Gold.PLP.Chemscore.Hbond>
2.8027

> <Gold.PLP.Chemscore.CHOScore>
0.8861

> <Gold.PLP.Chemscore.Metal>
0.0000

> <Gold.Chemscore.Hbonds>
donor molecule, donor type, donor heavy atom, donor atom, acceptor molecule, acceptor atom, score
      L1  H     9    28       P1  7948  0.96
      L1  H    12    29       P1  7948  1.00
      L1  H    15    46       P1  7921  0.08
      P1  H  7989  7998       L1     4  0.76
      L1  C     5    25       P1  8028  0.84

> <Gold.PLP.Chemscore.Internal.Correction>
0.1312

> <Gold.Rescore>
     Score         DG    S(hbond)    S(metal)    S(lipo)     H(rot)  DE(clash)    DE(int)     intcor
     16.78     -19.28       2.15        0.00      93.89       1.71       0.66       1.84       ----

> <Gold.Chemscore.Fitness>
16.7815

> <Gold.Chemscore.DG>
-19.2827

> <Gold.Chemscore.ZeroCoef>
-5.4800

> <Gold.Chemscore.Hbond>
2.1547

> <Gold.Chemscore.Metal>
0.0000

> <Gold.Chemscore.Lipo>
93.8926

> <Gold.Chemscore.Internal_Hbond>
0.0000

> <Gold.Chemscore.DEClash>
0.6588

> <Gold.Chemscore.DEInternal>
1.8423

> <Gold.Chemscore.Rot>
1.7107

> <Gold.Chemscore.Internal.Correction>
   9.000000E+99

> <Gold.Chemscore.Hbonds>
donor molecule, donor type, donor heavy atom, donor atom, acceptor molecule, acceptor atom, score
      L1  H     9    28       P1  7948  0.92
      L1  H    12    29       P1  7948  0.90
      L1  H    15    46       P1  7921  0.08
      P1  H  7989  7998       L1     4  0.09

> <Gold.Chemscore.Hbond.Weighted>
-7.1967

> <Gold.Chemscore.Metal.Weighted>
-0.0000

> <Gold.Chemscore.Lipo.Weighted>
-10.9854

> <Gold.Chemscore.Internal_Hbond.Weighted>
0.0000

> <Gold.Chemscore.DEClash.Weighted>
0.6588

> <Gold.Chemscore.DEInternal.Weighted>
1.8423

> <Gold.Chemscore.Rot.Weighted>
4.3794

> <Gold.Chemscore.Internal.Correction.Weighted>
   9.000000E+99

> <Gold.Protein.RotatedTorsions>
[ 6907 6896 6895 6894 ] final -124.38 input  -60.11 | X-H torsion
[ 7974 7965 7964 7962 ] final -174.18 input  175.53 | X-H torsion
[ 8008 7997 7996 7995 ] final  122.34 input   59.86 | X-H torsion
[ 10167 10162 10161 10158 ] final -151.28 input  -65.29 | X-H torsion
[ 10718 10713 10712 10709 ] final  179.37 input   66.30 | X-H torsion
[ 10763 10752 10751 10750 ] final -155.63 input  -60.55 | X-H torsion
[ 11005 11000 10999 10996 ] final -148.78 input  -57.11 | X-H torsion

> <Gold.Protein.ActiveResidues>
 VAL166  LYS551  ARG553  GLY616  TRP617  ASP618  TYR619  PRO620  LYS621  CYS622 
 ASP623  PHE694  ASN695  SER759  ASP760  ASP761  ALA762  ILE779  LEU786  VAL792 
 PHE793  MET794  SER795  GLU796  ALA797  LYS798  CYS799  TRP800  GLU811  SER814 

> <Gold.Protein.RotatedAtoms>
  150.8762  133.7435  159.2945 H   0  0  0  0  0  0  0  0  0  0  0  0  # atno 6907 bound_to 6896
  151.5031  135.1061  159.9844 H   0  0  0  0  0  0  0  0  0  0  0  0  # atno 6908 bound_to 6896
  152.4729  133.8026  159.7016 H   0  0  0  0  0  0  0  0  0  0  0  0  # atno 6909 bound_to 6896
  144.7133  140.1510  143.6384 H   0  0  0  0  0  0  0  0  0  0  0  0  # atno 7974 bound_to 7965
  156.2723  140.2788  156.1452 H   0  0  0  0  0  0  0  0  0  0  0  0  # atno 8008 bound_to 7997
  155.0911  140.0388  157.2686 H   0  0  0  0  0  0  0  0  0  0  0  0  # atno 8009 bound_to 7997
  154.6888  140.2624  155.6839 H   0  0  0  0  0  0  0  0  0  0  0  0  # atno 8010 bound_to 7997
  139.7281  143.8851  152.2526 H   0  0  0  0  0  0  0  0  0  0  0  0  # atno 10167 bound_to 10162
  156.8767  130.9802  151.3067 H   0  0  0  0  0  0  0  0  0  0  0  0  # atno 10718 bound_to 10713
  154.7773  135.3163  154.8066 H   0  0  0  0  0  0  0  0  0  0  0  0  # atno 10763 bound_to 10752
  153.8786  135.6837  153.4773 H   0  0  0  0  0  0  0  0  0  0  0  0  # atno 10764 bound_to 10752
  153.1399  135.4743  154.9417 H   0  0  0  0  0  0  0  0  0  0  0  0  # atno 10765 bound_to 10752
  140.7577  134.3334  157.5110 H   0  0  0  0  0  0  0  0  0  0  0  0  # atno 11005 bound_to 11000
  145.9116  139.2490  143.1434 LP  0  0  0  0  0  0  0  0  0  0  0  0  # atno 17320 bound_to 7965
  145.9710  140.8760  143.0162 LP  0  0  0  0  0  0  0  0  0  0  0  0  # atno 17321 bound_to 7965
  139.8766  144.7040  150.8925 LP  0  0  0  0  0  0  0  0  0  0  0  0  # atno 17342 bound_to 10162
  140.7766  143.3695  151.1677 LP  0  0  0  0  0  0  0  0  0  0  0  0  # atno 17343 bound_to 10162
  157.6164  130.8621  149.9035 LP  0  0  0  0  0  0  0  0  0  0  0  0  # atno 17370 bound_to 10713
  156.0698  130.3687  150.0800 LP  0  0  0  0  0  0  0  0  0  0  0  0  # atno 17371 bound_to 10713
  139.8776  134.9182  156.3197 LP  0  0  0  0  0  0  0  0  0  0  0  0  # atno 17394 bound_to 11000
  140.9692  133.7338  156.0511 LP  0  0  0  0  0  0  0  0  0  0  0  0  # atno 17395 bound_to 11000

$$$$
