AV-unprocessed.smi:2173|AV-procd|sdf|8840|dock5
  -GOLD-   2272012 33D 1   1.00000     0.00000
 Structure written by MMmdl.
 36 37  0  0  0  0  0  0  0  0  2 V2000
  153.2216  139.4403  157.5814 O   0  0  0  0  0  0  0  0  0  0  0  0
  152.2780  140.2283  157.5105 C   0  0  0  0  0  0  0  0  0  0  0  0
  151.4474  140.2892  156.4570 N   0  0  0  0  0  0  0  0  0  0  0  0
  151.5432  139.4668  155.2530 C   0  0  0  0  0  0  0  0  0  0  0  0
  150.2609  138.6550  154.9758 C   0  0  0  0  0  0  0  0  0  0  0  0
  149.1955  139.4235  154.2122 C   0  0  0  0  0  0  0  0  0  0  0  0
  148.8640  140.7581  154.5306 C   0  0  0  0  0  0  0  0  0  0  0  0
  147.8357  141.4029  153.8122 C   0  0  0  0  0  0  0  0  0  0  0  0
  147.1609  140.7008  152.7920 C   0  0  0  0  0  0  0  0  0  0  0  0
  147.5329  139.3698  152.5144 C   0  0  0  0  0  0  0  0  0  0  0  0
  148.5240  138.7875  153.2240 N   0  3  0  0  0  0  0  0  0  0  0  0
  152.0202  141.2278  158.6442 C   0  0  2  0  0  0  0  0  0  0  0  0
  151.8064  142.6531  158.0846 C   0  0  0  0  0  0  0  0  0  0  0  0
  151.7973  143.7025  159.1823 C   0  0  0  0  0  0  0  0  0  0  0  0
  152.2566  143.4754  160.4249 C   0  0  0  0  0  0  0  0  0  0  0  0
  152.8423  142.1468  160.8699 C   0  0  0  0  0  0  0  0  0  0  0  0
  153.1625  141.2228  159.6796 C   0  0  0  0  0  0  0  0  0  0  0  0
  150.6941  140.9612  156.4895 H   0  0  0  0  0  0  0  0  0  0  0  0
  151.7889  140.0850  154.3880 H   0  0  0  0  0  0  0  0  0  0  0  0
  152.3825  138.7829  155.3809 H   0  0  0  0  0  0  0  0  0  0  0  0
  150.5149  137.7572  154.4114 H   0  0  0  0  0  0  0  0  0  0  0  0
  149.8377  138.3065  155.9192 H   0  0  0  0  0  0  0  0  0  0  0  0
  149.3816  141.2782  155.3236 H   0  0  0  0  0  0  0  0  0  0  0  0
  147.5644  142.4222  154.0445 H   0  0  0  0  0  0  0  0  0  0  0  0
  146.3679  141.1759  152.2332 H   0  0  0  0  0  0  0  0  0  0  0  0
  147.0684  138.7560  151.7565 H   0  0  0  0  0  0  0  0  0  0  0  0
  151.1074  140.9265  159.1621 H   0  0  0  0  0  0  0  0  0  0  0  0
  152.5868  142.9205  157.3704 H   0  0  0  0  0  0  0  0  0  0  0  0
  150.8571  142.7018  157.5502 H   0  0  0  0  0  0  0  0  0  0  0  0
  151.4078  144.6762  158.9234 H   0  0  0  0  0  0  0  0  0  0  0  0
  152.2089  144.2595  161.1665 H   0  0  0  0  0  0  0  0  0  0  0  0
  153.7455  142.3278  161.4533 H   0  0  0  0  0  0  0  0  0  0  0  0
  152.1240  141.6670  161.5354 H   0  0  0  0  0  0  0  0  0  0  0  0
  153.3555  140.2117  160.0409 H   0  0  0  0  0  0  0  0  0  0  0  0
  154.0858  141.5608  159.2060 H   0  0  0  0  0  0  0  0  0  0  0  0
  148.7701  137.8203  153.0128 H   0  0  0  0  0  0  0  0  0  0  0  0
  1  2  2  0  0  0  0
  2  3  1  0  0  0  0
  2 12  1  0  0  0  0
  3  4  1  0  0  0  0
  3 18  1  0  0  0  0
  4  5  1  0  0  0  0
  4 19  1  0  0  0  0
  4 20  1  0  0  0  0
  5  6  1  0  0  0  0
  5 21  1  0  0  0  0
  5 22  1  0  0  0  0
  6 11  1  0  0  0  0
  6  7  2  0  0  0  0
  7  8  1  0  0  0  0
  7 23  1  0  0  0  0
  8  9  2  0  0  0  0
  8 24  1  0  0  0  0
  9 10  1  0  0  0  0
  9 25  1  0  0  0  0
 10 11  2  0  0  0  0
 10 26  1  0  0  0  0
 11 36  1  0  0  0  0
 12 17  1  0  0  0  0
 12 13  1  0  0  0  0
 12 27  1  0  0  0  0
 13 14  1  0  0  0  0
 13 28  1  0  0  0  0
 13 29  1  0  0  0  0
 14 15  2  0  0  0  0
 14 30  1  0  0  0  0
 15 16  1  0  0  0  0
 15 31  1  0  0  0  0
 16 17  1  0  0  0  0
 16 32  1  0  0  0  0
 16 33  1  0  0  0  0
 17 34  1  0  0  0  0
 17 35  1  0  0  0  0
M  CHG  1  11   1
M  END
> <s_m_source_file>
AV-unprocessed.smi

> <i_m_source_file_index>
2173

> <i_lp_mmshare_version>
43012

> <i_f3d_flags>
0

> <s_epik_input>
W0NIMl0xW0NIMl1bQ0hdPVtDSF1bQ0gyXVtDQEhdMUMoPU8pW05IXVtDSDJdW0NIMl1jMltjSF1bY0hdW2NIXVtjSF1uMg==

> <s_epik_cmdline>
J2VwaWtfcHl0aG9uJywgJy1waCcsICc3LjAnLCAnLXRuJywgJzgnLCAnLW1hJywgJzIwMCcsICctbWV0YWxfYmluZGluZycsICctaW1hZScsICc8aW5maWxlLm1hZT4nLCAnLW9tYWUnLCAnPG91dGZpbGUubWFlPic=

> <r_epik_Ionization_Penalty>
1.84586

> <r_epik_Ionization_Penalty_Charging>
1.84586

> <r_epik_Ionization_Penalty_Neutral>
1.53635e-08

> <r_epik_State_Penalty>
1.96297

> <r_epik_Charging_Adjusted_Penalty>
3.80883

> <i_epik_Tot_Q>
1

> <i_epik_Tot_abs_Q>
1

> <r_epik_Metal_State_Penalty>
1.98887

> <b_epik_Metal_Only>
0

> <s_lp_Force_Field>
OPLS_2005

> <r_lp_Energy>
13.6363

> <b_lp_Chiralities_Consistent>
1

> <s_lp_Variant>
AV-unprocessed.smi:2173-3

> <Gold.Version>
5.8.1

> <Gold.Id.Protein>
6NUR|6NUR_protein|mol2

> <Gold.PLP.Fitness>
46.1148

> <Gold.PLP.PLP>
-38.2398

> <Gold.PLP.part.hbond>
-3.0000

> <Gold.PLP.part.metal>
0.0000

> <Gold.PLP.part.buried>
-0.5696

> <Gold.PLP.part.nonpolar>
-34.8468

> <Gold.PLP.part.repulsive>
0.1664

> <Gold.PLP.ligand.clash>
0.0000

> <Gold.PLP.ligand.torsion>
0.5736

> <Gold.PLP.Chemscore.Hbond>
3.0000

> <Gold.PLP.Chemscore.CHOScore>
0.0000

> <Gold.PLP.Chemscore.Metal>
0.0000

> <Gold.Chemscore.Hbonds>
donor molecule, donor type, donor heavy atom, donor atom, acceptor molecule, acceptor atom, score
      L1  H    11    36       P1  7948  2.00
      P1  H  7997  8008       L1     1  1.00

> <Gold.PLP.Chemscore.Internal.Correction>
0.0223

> <Gold.Rescore>
     Score         DG    S(hbond)    S(metal)    S(lipo)     H(rot)  DE(clash)    DE(int)     intcor
     19.46     -21.20       1.96        0.00     110.81       1.48       1.23       0.50       ----

> <Gold.Chemscore.Fitness>
19.4615

> <Gold.Chemscore.DG>
-21.1952

> <Gold.Chemscore.ZeroCoef>
-5.4800

> <Gold.Chemscore.Hbond>
1.9581

> <Gold.Chemscore.Metal>
0.0000

> <Gold.Chemscore.Lipo>
110.8070

> <Gold.Chemscore.Internal_Hbond>
0.0000

> <Gold.Chemscore.DEClash>
1.2309

> <Gold.Chemscore.DEInternal>
0.5028

> <Gold.Chemscore.Rot>
1.4801

> <Gold.Chemscore.Internal.Correction>
   9.000000E+99

> <Gold.Chemscore.Hbonds>
donor molecule, donor type, donor heavy atom, donor atom, acceptor molecule, acceptor atom, score
      L1  H    11    36       P1  7948  0.97
      P1  H  7997  8008       L1     1  0.64

> <Gold.Chemscore.Hbond.Weighted>
-6.5400

> <Gold.Chemscore.Metal.Weighted>
-0.0000

> <Gold.Chemscore.Lipo.Weighted>
-12.9644

> <Gold.Chemscore.Internal_Hbond.Weighted>
0.0000

> <Gold.Chemscore.DEClash.Weighted>
1.2309

> <Gold.Chemscore.DEInternal.Weighted>
0.5028

> <Gold.Chemscore.Rot.Weighted>
3.7892

> <Gold.Chemscore.Internal.Correction.Weighted>
   9.000000E+99

> <Gold.Protein.RotatedTorsions>
[ 6907 6896 6895 6894 ] final -128.82 input  -60.11 | X-H torsion
[ 7974 7965 7964 7962 ] final   92.95 input  175.53 | X-H torsion
[ 8008 7997 7996 7995 ] final  -69.61 input   59.86 | X-H torsion
[ 10167 10162 10161 10158 ] final  124.93 input  -65.29 | X-H torsion
[ 10718 10713 10712 10709 ] final  -25.59 input   66.30 | X-H torsion
[ 10763 10752 10751 10750 ] final  168.39 input  -60.55 | X-H torsion
[ 11005 11000 10999 10996 ] final   98.39 input  -57.11 | X-H torsion

> <Gold.Protein.ActiveResidues>
 VAL166  LYS551  ARG553  GLY616  TRP617  ASP618  TYR619  PRO620  LYS621  CYS622 
 ASP623  PHE694  ASN695  SER759  ASP760  ASP761  ALA762  ILE779  LEU786  VAL792 
 PHE793  MET794  SER795  GLU796  ALA797  LYS798  CYS799  TRP800  GLU811  SER814 

> <Gold.Protein.RotatedAtoms>
  150.9220  133.6869  159.2829 H   0  0  0  0  0  0  0  0  0  0  0  0  # atno 6907 bound_to 6896
  151.4320  135.1009  159.9655 H   0  0  0  0  0  0  0  0  0  0  0  0  # atno 6908 bound_to 6896
  152.4984  133.8648  159.7323 H   0  0  0  0  0  0  0  0  0  0  0  0  # atno 6909 bound_to 6896
  145.4855  139.2277  143.2859 H   0  0  0  0  0  0  0  0  0  0  0  0  # atno 7974 bound_to 7965
  154.4951  140.0850  156.7680 H   0  0  0  0  0  0  0  0  0  0  0  0  # atno 8008 bound_to 7997
  155.4135  140.3442  155.4247 H   0  0  0  0  0  0  0  0  0  0  0  0  # atno 8009 bound_to 7997
  156.1383  140.1522  156.8948 H   0  0  0  0  0  0  0  0  0  0  0  0  # atno 8010 bound_to 7997
  139.5714  144.6941  151.3769 H   0  0  0  0  0  0  0  0  0  0  0  0  # atno 10167 bound_to 10162
  156.4624  130.4506  149.6920 H   0  0  0  0  0  0  0  0  0  0  0  0  # atno 10718 bound_to 10713
  154.3678  135.2753  155.2283 H   0  0  0  0  0  0  0  0  0  0  0  0  # atno 10763 bound_to 10752
  154.4444  135.5946  153.6154 H   0  0  0  0  0  0  0  0  0  0  0  0  # atno 10764 bound_to 10752
  152.9840  135.6026  154.3906 H   0  0  0  0  0  0  0  0  0  0  0  0  # atno 10765 bound_to 10752
  139.8772  134.9047  156.4449 H   0  0  0  0  0  0  0  0  0  0  0  0  # atno 11005 bound_to 11000
  146.2315  140.5645  142.8973 LP  0  0  0  0  0  0  0  0  0  0  0  0  # atno 17320 bound_to 7965
  144.7864  140.5945  143.6571 LP  0  0  0  0  0  0  0  0  0  0  0  0  # atno 17321 bound_to 7965
  140.6998  143.7659  150.7385 LP  0  0  0  0  0  0  0  0  0  0  0  0  # atno 17342 bound_to 10162
  140.1167  143.4650  152.2338 LP  0  0  0  0  0  0  0  0  0  0  0  0  # atno 17343 bound_to 10162
  156.3703  130.7527  151.2509 LP  0  0  0  0  0  0  0  0  0  0  0  0  # atno 17370 bound_to 10713
  157.7497  131.0325  150.4229 LP  0  0  0  0  0  0  0  0  0  0  0  0  # atno 17371 bound_to 10713
  140.8973  133.7805  155.9639 LP  0  0  0  0  0  0  0  0  0  0  0  0  # atno 17394 bound_to 11000
  140.8689  134.2750  157.5200 LP  0  0  0  0  0  0  0  0  0  0  0  0  # atno 17395 bound_to 11000

$$$$
