AV-unprocessed.smi:798|AV-procd|sdf|3778|dock7
  -GOLD-   22720 1213D 1   1.00000     0.00000
 Structure written by MMmdl.
 33 35  0  0  0  0  0  0  0  0  2 V2000
  147.7332  137.6715  158.4376 O   0  0  0  0  0  0  0  0  0  0  0  0
  148.7952  137.0510  158.5247 C   0  0  0  0  0  0  0  0  0  0  0  0
  149.0163  135.9408  159.2646 N   0  5  0  0  0  0  0  0  0  0  0  0
  148.3812  135.7778  160.4367 C   0  0  0  0  0  0  0  0  0  0  0  0
  148.0728  136.8116  161.2362 N   0  0  0  0  0  0  0  0  0  0  0  0
  147.4147  136.4271  162.3966 N   0  0  0  0  0  0  0  0  0  0  0  0
  147.2350  135.1071  162.4383 C   0  0  0  0  0  0  0  0  0  0  0  0
  147.8509  134.2145  161.0638 S   0  0  0  0  0  0  0  0  0  0  0  0
  149.8699  137.4613  157.8361 N   0  0  0  0  0  0  0  0  0  0  0  0
  149.9380  138.6260  156.9512 C   0  0  1  0  0  0  0  0  0  0  0  0
  150.9164  139.6734  157.5255 C   0  0  2  0  0  0  0  0  0  0  0  0
  150.6852  141.0204  156.8170 C   0  0  0  0  0  0  0  0  0  0  0  0
  151.2584  140.7599  155.4108 C   0  0  0  0  0  0  0  0  0  0  0  0
  151.7454  139.2996  155.5029 C   0  0  1  0  0  0  0  0  0  0  0  0
  152.2538  139.2403  156.9375 C   0  0  0  0  0  0  0  0  0  0  0  0
  150.5224  138.3495  155.5318 C   0  0  1  0  0  0  0  0  0  0  0  0
  150.8831  136.8796  155.2161 C   0  0  0  0  0  0  0  0  0  0  0  0
  151.6680  136.8017  154.0444 O   0  0  0  0  0  0  0  0  0  0  0  0
  146.7338  134.6568  163.2821 H   0  0  0  0  0  0  0  0  0  0  0  0
  150.7157  136.9202  157.9384 H   0  0  0  0  0  0  0  0  0  0  0  0
  148.9423  139.0666  156.8725 H   0  0  0  0  0  0  0  0  0  0  0  0
  150.8944  139.7520  158.6133 H   0  0  0  0  0  0  0  0  0  0  0  0
  149.6329  141.3057  156.7943 H   0  0  0  0  0  0  0  0  0  0  0  0
  151.2372  141.8195  157.3132 H   0  0  0  0  0  0  0  0  0  0  0  0
  150.5163  140.9020  154.6243 H   0  0  0  0  0  0  0  0  0  0  0  0
  152.0918  141.4335  155.2075 H   0  0  0  0  0  0  0  0  0  0  0  0
  152.4876  139.0499  154.7444 H   0  0  0  0  0  0  0  0  0  0  0  0
  153.0634  139.9438  157.1395 H   0  0  0  0  0  0  0  0  0  0  0  0
  152.5644  138.2428  157.2514 H   0  0  0  0  0  0  0  0  0  0  0  0
  149.7945  138.6697  154.7847 H   0  0  0  0  0  0  0  0  0  0  0  0
  151.4229  136.4124  156.0399 H   0  0  0  0  0  0  0  0  0  0  0  0
  149.9805  136.2930  155.0447 H   0  0  0  0  0  0  0  0  0  0  0  0
  151.1143  136.5161  153.3341 H   0  0  0  0  0  0  0  0  0  0  0  0
  1  2  2  0  0  0  0
  2  3  1  0  0  0  0
  2  9  1  0  0  0  0
  3  4  1  0  0  0  0
  4  8  1  0  0  0  0
  4  5  2  0  0  0  0
  5  6  1  0  0  0  0
  6  7  2  0  0  0  0
  7  8  1  0  0  0  0
  7 19  1  0  0  0  0
  9 10  1  0  0  0  0
  9 20  1  0  0  0  0
 10 16  1  0  0  0  0
 10 11  1  0  0  0  0
 10 21  1  0  0  0  0
 11 15  1  0  0  0  0
 11 12  1  0  0  0  0
 11 22  1  0  0  0  0
 12 13  1  0  0  0  0
 12 23  1  0  0  0  0
 12 24  1  0  0  0  0
 13 14  1  0  0  0  0
 13 25  1  0  0  0  0
 13 26  1  0  0  0  0
 14 15  1  0  0  0  0
 14 16  1  0  0  0  0
 14 27  1  0  0  0  0
 15 28  1  0  0  0  0
 15 29  1  0  0  0  0
 16 17  1  0  0  0  0
 16 30  1  0  0  0  0
 17 18  1  0  0  0  0
 17 31  1  0  0  0  0
 17 32  1  0  0  0  0
 18 33  1  0  0  0  0
M  CHG  1   3  -1
M  END
> <s_m_source_file>
AV-unprocessed.smi

> <i_m_source_file_index>
798

> <i_lp_mmshare_version>
43012

> <i_f3d_flags>
0

> <s_epik_input>
W0NIMl0xW0NIMl1bQ0BASF0oW0NIMl0yKVtDQEBIXShbQ0gyXVtPSF0pW0NAQEhdKFtDQEhdMTIpW05IXUMoPU8pW05IXWMzbm5bY0hdczM=

> <s_epik_cmdline>
J2VwaWtfcHl0aG9uJywgJy1waCcsICc3LjAnLCAnLXRuJywgJzgnLCAnLW1hJywgJzIwMCcsICctbWV0YWxfYmluZGluZycsICctaW1hZScsICc8aW5maWxlLm1hZT4nLCAnLW9tYWUnLCAnPG91dGZpbGUubWFlPic=

> <r_lp_tautomer_probability>
1

> <r_epik_Ionization_Penalty>
4.53732

> <r_epik_Ionization_Penalty_Charging>
4.48632

> <r_epik_Ionization_Penalty_Neutral>
0.0510007

> <r_epik_State_Penalty>
4.48602

> <r_epik_Charging_Adjusted_Penalty>
8.97234

> <i_epik_Tot_Q>
-1

> <i_epik_Tot_abs_Q>
1

> <r_epik_Metal_State_Penalty>
0.812492

> <b_epik_Metal_Only>
1

> <s_lp_Force_Field>
OPLS_2005

> <r_lp_Energy>
47.4454

> <b_lp_Chiralities_Consistent>
1

> <s_lp_Variant>
AV-unprocessed.smi:798-10

> <Gold.Version>
5.8.1

> <Gold.Id.Protein>
6NUR|6NUR_protein|mol2

> <Gold.PLP.Fitness>
39.3095

> <Gold.PLP.PLP>
-25.6817

> <Gold.PLP.part.hbond>
-4.3969

> <Gold.PLP.part.metal>
0.0000

> <Gold.PLP.part.buried>
-3.0846

> <Gold.PLP.part.nonpolar>
-17.3134

> <Gold.PLP.part.repulsive>
0.0855

> <Gold.PLP.ligand.clash>
0.0000

> <Gold.PLP.ligand.torsion>
0.5841

> <Gold.PLP.Chemscore.Hbond>
4.9237

> <Gold.PLP.Chemscore.CHOScore>
0.0000

> <Gold.PLP.Chemscore.Metal>
0.0000

> <Gold.Chemscore.Hbonds>
donor molecule, donor type, donor heavy atom, donor atom, acceptor molecule, acceptor atom, score
      L1  H    18    33       P1  7949  0.85
      P1  H  6896  6907       L1     3  1.42
      P1  H  6931  6943       L1     5  0.95
      P1  H  6934  6947       L1     5  0.06
      P1  H 10752 10763       L1    18  1.00

> <Gold.PLP.Chemscore.Internal.Correction>
0.0248

> <Gold.Rescore>
     Score         DG    S(hbond)    S(metal)    S(lipo)     H(rot)  DE(clash)    DE(int)     intcor
     12.71     -14.52       2.31        0.00      53.41       1.92       0.07       1.74       ----

> <Gold.Chemscore.Fitness>
12.7094

> <Gold.Chemscore.DG>
-14.5163

> <Gold.Chemscore.ZeroCoef>
-5.4800

> <Gold.Chemscore.Hbond>
2.3067

> <Gold.Chemscore.Metal>
0.0000

> <Gold.Chemscore.Lipo>
53.4079

> <Gold.Chemscore.Internal_Hbond>
0.0000

> <Gold.Chemscore.DEClash>
0.0674

> <Gold.Chemscore.DEInternal>
1.7395

> <Gold.Chemscore.Rot>
1.9207

> <Gold.Chemscore.Internal.Correction>
   9.000000E+99

> <Gold.Chemscore.Hbonds>
donor molecule, donor type, donor heavy atom, donor atom, acceptor molecule, acceptor atom, score
      L1  H    18    33       P1  7949  0.33
      P1  H  6896  6907       L1     3  0.16
      P1  H  6931  6943       L1     5  0.21
      P1  H  6934  6947       L1     5  0.02
      P1  H 10752 10763       L1    18  0.37

> <Gold.Chemscore.Hbond.Weighted>
-7.7045

> <Gold.Chemscore.Metal.Weighted>
-0.0000

> <Gold.Chemscore.Lipo.Weighted>
-6.2487

> <Gold.Chemscore.Internal_Hbond.Weighted>
0.0000

> <Gold.Chemscore.DEClash.Weighted>
0.0674

> <Gold.Chemscore.DEInternal.Weighted>
1.7395

> <Gold.Chemscore.Rot.Weighted>
4.9169

> <Gold.Chemscore.Internal.Correction.Weighted>
   9.000000E+99

> <Gold.Protein.RotatedTorsions>
[ 6907 6896 6895 6894 ] final  -57.22 input  -60.11 | X-H torsion
[ 7974 7965 7964 7962 ] final -101.06 input  175.53 | X-H torsion
[ 8008 7997 7996 7995 ] final  108.07 input   59.86 | X-H torsion
[ 10167 10162 10161 10158 ] final -150.90 input  -65.29 | X-H torsion
[ 10718 10713 10712 10709 ] final -175.89 input   66.30 | X-H torsion
[ 10763 10752 10751 10750 ] final   52.25 input  -60.55 | X-H torsion
[ 11005 11000 10999 10996 ] final  -11.95 input  -57.11 | X-H torsion

> <Gold.Protein.ActiveResidues>
 VAL166  LYS551  ARG553  GLY616  TRP617  ASP618  TYR619  PRO620  LYS621  CYS622 
 ASP623  PHE694  ASN695  SER759  ASP760  ASP761  ALA762  ILE779  LEU786  VAL792 
 PHE793  MET794  SER795  GLU796  ALA797  LYS798  CYS799  TRP800  GLU811  SER814 

> <Gold.Protein.RotatedAtoms>
  150.8103  134.7254  159.6681 H   0  0  0  0  0  0  0  0  0  0  0  0  # atno 6907 bound_to 6896
  152.4223  134.5929  159.9989 H   0  0  0  0  0  0  0  0  0  0  0  0  # atno 6908 bound_to 6896
  151.6140  133.3307  159.3109 H   0  0  0  0  0  0  0  0  0  0  0  0  # atno 6909 bound_to 6896
  145.2865  140.9341  143.2902 H   0  0  0  0  0  0  0  0  0  0  0  0  # atno 7974 bound_to 7965
  156.1874  140.3083  155.9266 H   0  0  0  0  0  0  0  0  0  0  0  0  # atno 8008 bound_to 7997
  155.3249  140.0458  157.3057 H   0  0  0  0  0  0  0  0  0  0  0  0  # atno 8009 bound_to 7997
  154.5412  140.2262  155.8647 H   0  0  0  0  0  0  0  0  0  0  0  0  # atno 8010 bound_to 7997
  139.7314  143.8802  152.2536 H   0  0  0  0  0  0  0  0  0  0  0  0  # atno 10167 bound_to 10162
  156.8066  130.9571  151.3117 H   0  0  0  0  0  0  0  0  0  0  0  0  # atno 10718 bound_to 10713
  152.9788  135.5818  154.4549 H   0  0  0  0  0  0  0  0  0  0  0  0  # atno 10763 bound_to 10752
  154.4133  135.2770  155.2025 H   0  0  0  0  0  0  0  0  0  0  0  0  # atno 10764 bound_to 10752
  154.3806  135.6147  153.5842 H   0  0  0  0  0  0  0  0  0  0  0  0  # atno 10765 bound_to 10752
  140.7606  133.8518  155.9121 H   0  0  0  0  0  0  0  0  0  0  0  0  # atno 11005 bound_to 11000
  144.9209  139.4413  143.6542 LP  0  0  0  0  0  0  0  0  0  0  0  0  # atno 17320 bound_to 7965
  146.3199  139.8068  142.8954 LP  0  0  0  0  0  0  0  0  0  0  0  0  # atno 17321 bound_to 7965
  139.8727  144.7060  150.8969 LP  0  0  0  0  0  0  0  0  0  0  0  0  # atno 17342 bound_to 10162
  140.7772  143.3725  151.1623 LP  0  0  0  0  0  0  0  0  0  0  0  0  # atno 17343 bound_to 10162
  157.6527  130.8898  149.9665 LP  0  0  0  0  0  0  0  0  0  0  0  0  # atno 17370 bound_to 10713
  156.1069  130.3652  150.0117 LP  0  0  0  0  0  0  0  0  0  0  0  0  # atno 17371 bound_to 10713
  140.9666  134.1585  157.4610 LP  0  0  0  0  0  0  0  0  0  0  0  0  # atno 17394 bound_to 11000
  139.8771  134.9964  156.5792 LP  0  0  0  0  0  0  0  0  0  0  0  0  # atno 17395 bound_to 11000

$$$$
