AV-unprocessed.smi:461|AV-procd|sdf|2630|dock5
  -GOLD-   2262023 33D 1   1.00000     0.00000
 Structure written by MMmdl.
 33 34  0  0  0  0  0  0  0  0  1 V2000
  154.0276  137.1302  162.5916 C   0  0  0  0  0  0  0  0  0  0  0  0
  153.8835  137.5744  161.2045 N   0  0  0  0  0  0  0  0  0  0  0  0
  153.6161  138.9280  161.0801 N   0  0  0  0  0  0  0  0  0  0  0  0
  153.4613  139.3922  159.8747 C   0  0  0  0  0  0  0  0  0  0  0  0
  153.1830  140.7108  159.5393 N   0  0  0  0  0  0  0  0  0  0  0  0
  153.0170  141.8013  160.4893 C   0  0  0  0  0  0  0  0  0  0  0  0
  152.0620  142.8917  159.9734 C   0  0  2  0  0  0  0  0  0  0  0  0
  152.5677  143.6026  158.7217 C   0  0  0  0  0  0  0  0  0  0  0  0
  151.7864  144.9040  158.7346 C   0  0  0  0  0  0  0  0  0  0  0  0
  151.4222  145.0955  160.2102 C   0  0  0  0  0  0  0  0  0  0  0  0
  151.9600  143.9686  160.8921 O   0  0  0  0  0  0  0  0  0  0  0  0
  153.5820  138.4799  158.6642 C   0  0  0  0  0  0  0  0  0  0  0  0
  153.4296  138.9296  157.5245 O   0  0  0  0  0  0  0  0  0  0  0  0
  153.8605  137.1730  158.9272 N   0  0  0  0  0  0  0  0  0  0  0  0
  153.9852  136.2734  157.7658 C   0  0  0  0  0  0  0  0  0  0  0  0
  154.0137  136.6719  160.1881 C   0  0  0  0  0  0  0  0  0  0  0  0
  154.2529  135.4824  160.4106 O   0  0  0  0  0  0  0  0  0  0  0  0
  155.0149  136.6971  162.7573 H   0  0  0  0  0  0  0  0  0  0  0  0
  153.2775  136.3762  162.8342 H   0  0  0  0  0  0  0  0  0  0  0  0
  153.9082  137.9504  163.3020 H   0  0  0  0  0  0  0  0  0  0  0  0
  154.0043  142.2343  160.6517 H   0  0  0  0  0  0  0  0  0  0  0  0
  152.6857  141.4202  161.4566 H   0  0  0  0  0  0  0  0  0  0  0  0
  151.0690  142.4786  159.7852 H   0  0  0  0  0  0  0  0  0  0  0  0
  153.6342  143.8132  158.8135 H   0  0  0  0  0  0  0  0  0  0  0  0
  152.4141  143.0225  157.8114 H   0  0  0  0  0  0  0  0  0  0  0  0
  152.3716  145.7341  158.3381 H   0  0  0  0  0  0  0  0  0  0  0  0
  150.8805  144.8135  158.1340 H   0  0  0  0  0  0  0  0  0  0  0  0
  151.8361  146.0164  160.6216 H   0  0  0  0  0  0  0  0  0  0  0  0
  150.3397  145.1215  160.3401 H   0  0  0  0  0  0  0  0  0  0  0  0
  154.3003  135.2576  158.0069 H   0  0  0  0  0  0  0  0  0  0  0  0
  154.7194  136.6597  157.0565 H   0  0  0  0  0  0  0  0  0  0  0  0
  153.0287  136.1934  157.2468 H   0  0  0  0  0  0  0  0  0  0  0  0
  153.0075  140.9681  158.5784 H   0  0  0  0  0  0  0  0  0  0  0  0
  1 18  1  0  0  0  0
  1 19  1  0  0  0  0
  1 20  1  0  0  0  0
  1  2  1  0  0  0  0
  2 16  1  0  0  0  0
  2  3  1  0  0  0  0
  3  4  2  0  0  0  0
  4 12  1  0  0  0  0
  4  5  1  0  0  0  0
  5  6  1  0  0  0  0
  5 33  1  0  0  0  0
  6  7  1  0  0  0  0
  6 21  1  0  0  0  0
  6 22  1  0  0  0  0
  7 11  1  0  0  0  0
  7  8  1  0  0  0  0
  7 23  1  0  0  0  0
  8  9  1  0  0  0  0
  8 24  1  0  0  0  0
  8 25  1  0  0  0  0
  9 10  1  0  0  0  0
  9 26  1  0  0  0  0
  9 27  1  0  0  0  0
 10 11  1  0  0  0  0
 10 28  1  0  0  0  0
 10 29  1  0  0  0  0
 12 13  2  0  0  0  0
 12 14  1  0  0  0  0
 14 15  1  0  0  0  0
 14 16  1  0  0  0  0
 15 30  1  0  0  0  0
 15 31  1  0  0  0  0
 15 32  1  0  0  0  0
 16 17  2  0  0  0  0
M  END
> <s_m_source_file>
AV-unprocessed.smi

> <i_m_source_file_index>
461

> <i_lp_mmshare_version>
43012

> <i_f3d_flags>
0

> <s_epik_input>
Tz1jMW4oW0NIM10pYyg9TyljKG5uMVtDSDNdKVtOSF1bQ0gyXVtDQEBIXTJbQ0gyXVtDSDJdW0NIMl1PMg==

> <s_epik_cmdline>
J2VwaWtfcHl0aG9uJywgJy1waCcsICc3LjAnLCAnLXRuJywgJzgnLCAnLW1hJywgJzIwMCcsICctbWV0YWxfYmluZGluZycsICctaW1hZScsICc8aW5maWxlLm1hZT4nLCAnLW9tYWUnLCAnPG91dGZpbGUubWFlPic=

> <r_lp_tautomer_probability>
1

> <r_epik_Ionization_Penalty>
0.000103292

> <r_epik_Ionization_Penalty_Charging>
5.59445e-09

> <r_epik_Ionization_Penalty_Neutral>
0.000103287

> <r_epik_State_Penalty>
-0

> <r_epik_Charging_Adjusted_Penalty>
5.59445e-09

> <i_epik_Tot_Q>
0

> <i_epik_Tot_abs_Q>
0

> <r_epik_Metal_State_Penalty>
-0

> <b_epik_Metal_Only>
0

> <s_lp_Force_Field>
OPLS_2005

> <r_lp_Energy>
41.4084

> <b_lp_Chiralities_Consistent>
1

> <s_lp_Variant>
AV-unprocessed.smi:461-1

> <Gold.Version>
5.8.1

> <Gold.Id.Protein>
6NUR|6NUR_protein|mol2

> <Gold.PLP.Fitness>
40.4289

> <Gold.PLP.PLP>
-34.8039

> <Gold.PLP.part.hbond>
-2.0000

> <Gold.PLP.part.metal>
0.0000

> <Gold.PLP.part.buried>
-4.6077

> <Gold.PLP.part.nonpolar>
-28.3079

> <Gold.PLP.part.repulsive>
0.1814

> <Gold.PLP.ligand.clash>
0.0000

> <Gold.PLP.ligand.torsion>
0.1921

> <Gold.PLP.Chemscore.Hbond>
2.0000

> <Gold.PLP.Chemscore.CHOScore>
0.0000

> <Gold.PLP.Chemscore.Metal>
0.0000

> <Gold.Chemscore.Hbonds>
donor molecule, donor type, donor heavy atom, donor atom, acceptor molecule, acceptor atom, score
      P1  H  6896  6908       L1    17  0.95
      P1  H  7997  8009       L1    13  1.00

> <Gold.PLP.Chemscore.Internal.Correction>
0.0092

> <Gold.Rescore>
     Score         DG    S(hbond)    S(metal)    S(lipo)     H(rot)  DE(clash)    DE(int)     intcor
     16.82     -17.25       1.95        0.00      73.17       1.30       0.24       0.18       ----

> <Gold.Chemscore.Fitness>
16.8242

> <Gold.Chemscore.DG>
-17.2471

> <Gold.Chemscore.ZeroCoef>
-5.4800

> <Gold.Chemscore.Hbond>
1.9528

> <Gold.Chemscore.Metal>
0.0000

> <Gold.Chemscore.Lipo>
73.1712

> <Gold.Chemscore.Internal_Hbond>
0.0000

> <Gold.Chemscore.DEClash>
0.2431

> <Gold.Chemscore.DEInternal>
0.1798

> <Gold.Chemscore.Rot>
1.2954

> <Gold.Chemscore.Internal.Correction>
   9.000000E+99

> <Gold.Chemscore.Hbonds>
donor molecule, donor type, donor heavy atom, donor atom, acceptor molecule, acceptor atom, score
      P1  H  6896  6908       L1    17  0.20
      P1  H  7997  8009       L1    13  0.94

> <Gold.Chemscore.Hbond.Weighted>
-6.5224

> <Gold.Chemscore.Metal.Weighted>
-0.0000

> <Gold.Chemscore.Lipo.Weighted>
-8.5610

> <Gold.Chemscore.Internal_Hbond.Weighted>
0.0000

> <Gold.Chemscore.DEClash.Weighted>
0.2431

> <Gold.Chemscore.DEInternal.Weighted>
0.1798

> <Gold.Chemscore.Rot.Weighted>
3.3163

> <Gold.Chemscore.Internal.Correction.Weighted>
   9.000000E+99

> <Gold.Protein.RotatedTorsions>
[ 6907 6896 6895 6894 ] final  -64.07 input  -60.11 | X-H torsion
[ 7974 7965 7964 7962 ] final   42.15 input  175.53 | X-H torsion
[ 8008 7997 7996 7995 ] final -179.40 input   59.86 | X-H torsion
[ 10167 10162 10161 10158 ] final   20.87 input  -65.29 | X-H torsion
[ 10718 10713 10712 10709 ] final  124.14 input   66.30 | X-H torsion
[ 10763 10752 10751 10750 ] final  -23.34 input  -60.55 | X-H torsion
[ 11005 11000 10999 10996 ] final -170.10 input  -57.11 | X-H torsion

> <Gold.Protein.ActiveResidues>
 VAL166  LYS551  ARG553  GLY616  TRP617  ASP618  TYR619  PRO620  LYS621  CYS622 
 ASP623  PHE694  ASN695  SER759  ASP760  ASP761  ALA762  ILE779  LEU786  VAL792 
 PHE793  MET794  SER795  GLU796  ALA797  LYS798  CYS799  TRP800  GLU811  SER814 

> <Gold.Protein.RotatedAtoms>
  150.7609  134.6349  159.6205 H   0  0  0  0  0  0  0  0  0  0  0  0  # atno 6907 bound_to 6896
  152.3615  134.6862  160.0214 H   0  0  0  0  0  0  0  0  0  0  0  0  # atno 6908 bound_to 6896
  151.7250  133.3279  159.3362 H   0  0  0  0  0  0  0  0  0  0  0  0  # atno 6909 bound_to 6896
  146.0764  139.5333  142.9565 H   0  0  0  0  0  0  0  0  0  0  0  0  # atno 7974 bound_to 7965
  156.0301  140.1280  157.0267 H   0  0  0  0  0  0  0  0  0  0  0  0  # atno 8008 bound_to 7997
  154.4346  140.1051  156.6157 H   0  0  0  0  0  0  0  0  0  0  0  0  # atno 8009 bound_to 7997
  155.5819  140.3468  155.4545 H   0  0  0  0  0  0  0  0  0  0  0  0  # atno 8010 bound_to 7997
  140.5470  143.9576  150.6554 H   0  0  0  0  0  0  0  0  0  0  0  0  # atno 10167 bound_to 10162
  157.5609  131.1089  150.8541 H   0  0  0  0  0  0  0  0  0  0  0  0  # atno 10718 bound_to 10713
  153.6662  135.6974  153.5161 H   0  0  0  0  0  0  0  0  0  0  0  0  # atno 10763 bound_to 10752
  153.2593  135.4250  155.0877 H   0  0  0  0  0  0  0  0  0  0  0  0  # atno 10764 bound_to 10752
  154.8439  135.3551  154.6207 H   0  0  0  0  0  0  0  0  0  0  0  0  # atno 10765 bound_to 10752
  140.5233  134.5688  157.5054 H   0  0  0  0  0  0  0  0  0  0  0  0  # atno 11005 bound_to 11000
  145.6298  141.0306  143.1869 LP  0  0  0  0  0  0  0  0  0  0  0  0  # atno 17320 bound_to 7965
  144.7264  139.7861  143.7363 LP  0  0  0  0  0  0  0  0  0  0  0  0  # atno 17321 bound_to 7965
  140.2992  143.3272  152.0988 LP  0  0  0  0  0  0  0  0  0  0  0  0  # atno 17342 bound_to 10162
  139.5011  144.6707  151.6249 LP  0  0  0  0  0  0  0  0  0  0  0  0  # atno 17343 bound_to 10162
  156.9039  130.5256  149.5282 LP  0  0  0  0  0  0  0  0  0  0  0  0  # atno 17370 bound_to 10713
  156.0661  130.5704  150.9292 LP  0  0  0  0  0  0  0  0  0  0  0  0  # atno 17371 bound_to 10713
  139.9594  134.7479  156.0270 LP  0  0  0  0  0  0  0  0  0  0  0  0  # atno 17394 bound_to 11000
  141.1322  133.6583  156.3496 LP  0  0  0  0  0  0  0  0  0  0  0  0  # atno 17395 bound_to 11000

$$$$
