AV-unprocessed.smi:1292|AV-procd|sdf|5396|dock9
  -GOLD-   22720 4553D 1   1.00000     0.00000
 Structure written by MMmdl.
 40 41  0  0  0  0  0  0  0  0  1 V2000
  148.2999  141.2062  153.8772 C   0  0  0  0  0  0  0  0  0  0  0  0
  148.9488  140.1598  154.7933 C   0  0  1  0  0  0  0  0  0  0  0  0
  147.9077  139.1735  155.3456 C   0  0  0  0  0  0  0  0  0  0  0  0
  148.5792  138.1537  156.2738 C   0  0  0  0  0  0  0  0  0  0  0  0
  149.7516  137.4341  155.5847 C   0  0  0  0  0  0  0  0  0  0  0  0
  150.6861  138.3791  154.9384 N   0  0  0  0  0  0  0  0  0  0  0  0
  152.3086  138.6084  155.5225 S   0  0  0  0  0  0  0  0  0  0  0  0
  153.0979  137.3929  155.2694 O   0  0  0  0  0  0  0  0  0  0  0  0
  152.7704  139.9249  155.0572 O   0  0  0  0  0  0  0  0  0  0  0  0
  152.0137  138.7405  157.2184 N   0  0  0  0  0  0  0  0  0  0  0  0
  152.5183  139.8555  158.0214 C   0  0  0  0  0  0  0  0  0  0  0  0
  151.3552  140.6741  158.6028 C   0  0  0  0  0  0  0  0  0  0  0  0
  151.6917  142.1483  158.7485 C   0  0  0  0  0  0  0  0  0  0  0  0
  152.4534  142.6103  159.8433 C   0  0  0  0  0  0  0  0  0  0  0  0
  152.7591  143.9829  159.9166 C   0  0  0  0  0  0  0  0  0  0  0  0
  152.2940  144.8366  158.8979 C   0  0  0  0  0  0  0  0  0  0  0  0
  151.5389  144.2775  157.8478 C   0  0  0  0  0  0  0  0  0  0  0  0
  151.2403  142.9628  157.7678 N   0  0  0  0  0  0  0  0  0  0  0  0
  150.0686  139.3932  154.0633 C   0  0  0  0  0  0  0  0  0  0  0  0
  147.8336  140.7392  153.0092 H   0  0  0  0  0  0  0  0  0  0  0  0
  149.0386  141.9215  153.5146 H   0  0  0  0  0  0  0  0  0  0  0  0
  147.5304  141.7683  154.4071 H   0  0  0  0  0  0  0  0  0  0  0  0
  149.3916  140.6964  155.6326 H   0  0  0  0  0  0  0  0  0  0  0  0
  147.1290  139.7089  155.8897 H   0  0  0  0  0  0  0  0  0  0  0  0
  147.4140  138.6535  154.5235 H   0  0  0  0  0  0  0  0  0  0  0  0
  148.9240  138.6477  157.1788 H   0  0  0  0  0  0  0  0  0  0  0  0
  147.8441  137.4186  156.6019 H   0  0  0  0  0  0  0  0  0  0  0  0
  150.2770  136.8018  156.2993 H   0  0  0  0  0  0  0  0  0  0  0  0
  149.3615  136.7671  154.8154 H   0  0  0  0  0  0  0  0  0  0  0  0
  151.9374  137.8483  157.7064 H   0  0  0  0  0  0  0  0  0  0  0  0
  153.1335  139.4671  158.8301 H   0  0  0  0  0  0  0  0  0  0  0  0
  153.1504  140.4949  157.4054 H   0  0  0  0  0  0  0  0  0  0  0  0
  150.4818  140.5774  157.9565 H   0  0  0  0  0  0  0  0  0  0  0  0
  151.0601  140.2688  159.5717 H   0  0  0  0  0  0  0  0  0  0  0  0
  152.8026  141.9287  160.6051 H   0  0  0  0  0  0  0  0  0  0  0  0
  153.3427  144.3727  160.7375 H   0  0  0  0  0  0  0  0  0  0  0  0
  152.5117  145.8941  158.9202 H   0  0  0  0  0  0  0  0  0  0  0  0
  151.1670  144.9024  157.0495 H   0  0  0  0  0  0  0  0  0  0  0  0
  149.6671  138.8914  153.1821 H   0  0  0  0  0  0  0  0  0  0  0  0
  150.8301  140.0863  153.7053 H   0  0  0  0  0  0  0  0  0  0  0  0
  1  2  1  0  0  0  0
  1 20  1  0  0  0  0
  1 21  1  0  0  0  0
  1 22  1  0  0  0  0
  2 19  1  0  0  0  0
  2  3  1  0  0  0  0
  2 23  1  0  0  0  0
  3  4  1  0  0  0  0
  3 24  1  0  0  0  0
  3 25  1  0  0  0  0
  4  5  1  0  0  0  0
  4 26  1  0  0  0  0
  4 27  1  0  0  0  0
  5  6  1  0  0  0  0
  5 28  1  0  0  0  0
  5 29  1  0  0  0  0
  6  7  1  0  0  0  0
  6 19  1  0  0  0  0
  7  8  2  0  0  0  0
  7  9  2  0  0  0  0
  7 10  1  0  0  0  0
 10 11  1  0  0  0  0
 10 30  1  0  0  0  0
 11 12  1  0  0  0  0
 11 31  1  0  0  0  0
 11 32  1  0  0  0  0
 12 13  1  0  0  0  0
 12 33  1  0  0  0  0
 12 34  1  0  0  0  0
 13 18  1  0  0  0  0
 13 14  2  0  0  0  0
 14 15  1  0  0  0  0
 14 35  1  0  0  0  0
 15 16  2  0  0  0  0
 15 36  1  0  0  0  0
 16 17  1  0  0  0  0
 16 37  1  0  0  0  0
 17 18  2  0  0  0  0
 17 38  1  0  0  0  0
 19 39  1  0  0  0  0
 19 40  1  0  0  0  0
M  END
> <s_m_source_file>
AV-unprocessed.smi

> <i_m_source_file_index>
1292

> <i_lp_mmshare_version>
43012

> <i_f3d_flags>
0

> <s_epik_input>
W0NIM11bQ0BASF0xW0NIMl1bQ0gyXVtDSDJdTihbQ0gyXTEpUyg9TykoPU8pW05IXVtDSDJdW0NIMl1jMltjSF1bY0hdW2NIXVtjSF1uMg==

> <s_epik_cmdline>
J2VwaWtfcHl0aG9uJywgJy1waCcsICc3LjAnLCAnLXRuJywgJzgnLCAnLW1hJywgJzIwMCcsICctbWV0YWxfYmluZGluZycsICctaW1hZScsICc8aW5maWxlLm1hZT4nLCAnLW9tYWUnLCAnPG91dGZpbGUubWFlPic=

> <r_epik_Ionization_Penalty>
0.0252758

> <r_epik_Ionization_Penalty_Charging>
0

> <r_epik_Ionization_Penalty_Neutral>
0.0252758

> <r_epik_State_Penalty>
0.0138562

> <r_epik_Charging_Adjusted_Penalty>
0.0138562

> <i_epik_Tot_Q>
0

> <i_epik_Tot_abs_Q>
0

> <r_epik_Metal_State_Penalty>
0.204365

> <b_epik_Metal_Only>
0

> <s_lp_Force_Field>
OPLS_2005

> <r_lp_Energy>
8.19125

> <b_lp_Chiralities_Consistent>
1

> <s_lp_Variant>
AV-unprocessed.smi:1292-2

> <Gold.Version>
5.8.1

> <Gold.Id.Protein>
6NUR|6NUR_protein|mol2

> <Gold.PLP.Fitness>
43.9182

> <Gold.PLP.PLP>
-36.6359

> <Gold.PLP.part.hbond>
-2.8769

> <Gold.PLP.part.metal>
0.0000

> <Gold.PLP.part.buried>
-2.5138

> <Gold.PLP.part.nonpolar>
-31.2205

> <Gold.PLP.part.repulsive>
0.2192

> <Gold.PLP.ligand.clash>
0.0000

> <Gold.PLP.ligand.torsion>
2.1601

> <Gold.PLP.Chemscore.Hbond>
1.8754

> <Gold.PLP.Chemscore.CHOScore>
0.9962

> <Gold.PLP.Chemscore.Metal>
0.0000

> <Gold.Chemscore.Hbonds>
donor molecule, donor type, donor heavy atom, donor atom, acceptor molecule, acceptor atom, score
      P1  H  7989  7998       L1     9  0.37
      P1  H  7997  8009       L1     9  1.00
      P1  H 10752 10764       L1     8  0.27
      L1  C    17    38       P1  8028  0.74

> <Gold.PLP.Chemscore.Internal.Correction>
2.9878

> <Gold.Rescore>
     Score         DG    S(hbond)    S(metal)    S(lipo)     H(rot)  DE(clash)    DE(int)     intcor
     16.99     -19.31       1.74        0.00      97.15       1.30       0.14       2.17       ----

> <Gold.Chemscore.Fitness>
16.9936

> <Gold.Chemscore.DG>
-19.3061

> <Gold.Chemscore.ZeroCoef>
-5.4800

> <Gold.Chemscore.Hbond>
1.7359

> <Gold.Chemscore.Metal>
0.0000

> <Gold.Chemscore.Lipo>
97.1451

> <Gold.Chemscore.Internal_Hbond>
0.0000

> <Gold.Chemscore.DEClash>
0.1421

> <Gold.Chemscore.DEInternal>
2.1704

> <Gold.Chemscore.Rot>
1.3039

> <Gold.Chemscore.Internal.Correction>
   9.000000E+99

> <Gold.Chemscore.Hbonds>
donor molecule, donor type, donor heavy atom, donor atom, acceptor molecule, acceptor atom, score
      P1  H  7989  7998       L1     9  0.36
      P1  H  7997  8009       L1     9  0.60
      P1  H 10752 10764       L1     8  0.28

> <Gold.Chemscore.Hbond.Weighted>
-5.7980

> <Gold.Chemscore.Metal.Weighted>
-0.0000

> <Gold.Chemscore.Lipo.Weighted>
-11.3660

> <Gold.Chemscore.Internal_Hbond.Weighted>
0.0000

> <Gold.Chemscore.DEClash.Weighted>
0.1421

> <Gold.Chemscore.DEInternal.Weighted>
2.1704

> <Gold.Chemscore.Rot.Weighted>
3.3379

> <Gold.Chemscore.Internal.Correction.Weighted>
   9.000000E+99

> <Gold.Protein.RotatedTorsions>
[ 6907 6896 6895 6894 ] final  -89.20 input  -60.11 | X-H torsion
[ 7974 7965 7964 7962 ] final  -43.58 input  175.53 | X-H torsion
[ 8008 7997 7996 7995 ] final -130.31 input   59.86 | X-H torsion
[ 10167 10162 10161 10158 ] final  -75.91 input  -65.29 | X-H torsion
[ 10718 10713 10712 10709 ] final  118.99 input   66.30 | X-H torsion
[ 10763 10752 10751 10750 ] final  -57.34 input  -60.55 | X-H torsion
[ 11005 11000 10999 10996 ] final -145.32 input  -57.11 | X-H torsion

> <Gold.Protein.ActiveResidues>
 VAL166  LYS551  ARG553  GLY616  TRP617  ASP618  TYR619  PRO620  LYS621  CYS622 
 ASP623  PHE694  ASN695  SER759  ASP760  ASP761  ALA762  ILE779  LEU786  VAL792 
 PHE793  MET794  SER795  GLU796  ALA797  LYS798  CYS799  TRP800  GLU811  SER814 

> <Gold.Protein.RotatedAtoms>
  150.6872  134.2624  159.4554 H   0  0  0  0  0  0  0  0  0  0  0  0  # atno 6907 bound_to 6896
  152.0553  134.9626  160.0584 H   0  0  0  0  0  0  0  0  0  0  0  0  # atno 6908 bound_to 6896
  152.1074  133.4247  159.4652 H   0  0  0  0  0  0  0  0  0  0  0  0  # atno 6909 bound_to 6896
  146.0005  140.7080  142.9273 H   0  0  0  0  0  0  0  0  0  0  0  0  # atno 7974 bound_to 7965
  155.2936  140.0449  157.3025 H   0  0  0  0  0  0  0  0  0  0  0  0  # atno 8008 bound_to 7997
  154.5527  140.2322  155.8427 H   0  0  0  0  0  0  0  0  0  0  0  0  # atno 8009 bound_to 7997
  156.1981  140.3033  155.9475 H   0  0  0  0  0  0  0  0  0  0  0  0  # atno 8010 bound_to 7997
  140.4902  143.2382  151.7919 H   0  0  0  0  0  0  0  0  0  0  0  0  # atno 10167 bound_to 10162
  157.5992  131.1053  150.7833 H   0  0  0  0  0  0  0  0  0  0  0  0  # atno 10718 bound_to 10713
  154.2209  135.6378  153.5144 H   0  0  0  0  0  0  0  0  0  0  0  0  # atno 10763 bound_to 10752
  152.9969  135.5496  154.6115 H   0  0  0  0  0  0  0  0  0  0  0  0  # atno 10764 bound_to 10752
  154.5575  135.2906  155.0925 H   0  0  0  0  0  0  0  0  0  0  0  0  # atno 10765 bound_to 10752
  140.7934  134.2941  157.5005 H   0  0  0  0  0  0  0  0  0  0  0  0  # atno 11005 bound_to 11000
  144.6918  140.3224  143.7230 LP  0  0  0  0  0  0  0  0  0  0  0  0  # atno 17320 bound_to 7965
  145.7495  139.1789  143.2330 LP  0  0  0  0  0  0  0  0  0  0  0  0  # atno 17321 bound_to 7965
  139.4850  144.4659  151.9484 LP  0  0  0  0  0  0  0  0  0  0  0  0  # atno 17342 bound_to 10162
  140.3746  144.2813  150.5915 LP  0  0  0  0  0  0  0  0  0  0  0  0  # atno 17343 bound_to 10162
  156.8236  130.4992  149.5340 LP  0  0  0  0  0  0  0  0  0  0  0  0  # atno 17370 bound_to 10713
  156.1062  130.6006  150.9974 LP  0  0  0  0  0  0  0  0  0  0  0  0  # atno 17371 bound_to 10713
  139.8729  134.9388  156.3724 LP  0  0  0  0  0  0  0  0  0  0  0  0  # atno 17394 bound_to 11000
  140.9367  133.7542  156.0093 LP  0  0  0  0  0  0  0  0  0  0  0  0  # atno 17395 bound_to 11000

$$$$
