AV-unprocessed.smi:1762|AV-procd|sdf|7116|dock6
  -GOLD-   22720 8343D 1   1.00000     0.00000
 Structure written by MMmdl.
 53 54  0  0  0  0  0  0  0  0  2 V2000
  148.4605  132.8787  153.2893 C   0  0  0  0  0  0  0  0  0  0  0  0
  146.9475  132.6562  153.4667 C   0  0  1  0  0  0  0  0  0  0  0  0
  146.1695  133.9502  153.7802 C   0  0  0  0  0  0  0  0  0  0  0  0
  146.0425  134.8212  152.5782 N   0  3  2  0  0  0  0  0  0  0  0  0
  145.3505  136.1364  152.8076 C   0  0  2  0  0  0  0  0  0  0  0  0
  145.9896  136.8979  153.9890 C   0  0  0  0  0  0  0  0  0  0  0  0
  145.3201  137.1667  154.9874 O   0  0  0  0  0  0  0  0  0  0  0  0
  147.2817  137.2349  153.8633 N   0  0  0  0  0  0  0  0  0  0  0  0
  148.0462  137.9489  154.8766 C   0  0  0  0  0  0  0  0  0  0  0  0
  148.8211  139.1158  154.2494 C   0  0  0  0  0  0  0  0  0  0  0  0
  149.4932  139.9860  155.2949 C   0  0  0  0  0  0  0  0  0  0  0  0
  148.7250  140.7269  156.2182 C   0  0  0  0  0  0  0  0  0  0  0  0
  149.3987  141.5123  157.1734 C   0  0  0  0  0  0  0  0  0  0  0  0
  150.8068  141.5268  157.1689 C   0  0  0  0  0  0  0  0  0  0  0  0
  151.4818  140.7511  156.2053 C   0  0  0  0  0  0  0  0  0  0  0  0
  150.8455  139.9941  155.2851 N   0  0  0  0  0  0  0  0  0  0  0  0
  143.7996  136.0244  152.9994 C   0  0  0  0  0  0  0  0  0  0  0  0
  143.0999  137.3937  153.1097 C   0  0  0  0  0  0  0  0  0  0  0  0
  143.3752  135.1172  154.1736 C   0  0  0  0  0  0  0  0  0  0  0  0
  145.4333  134.0264  151.4740 C   0  0  0  0  0  0  0  0  0  0  0  0
  146.2655  132.7687  151.1739 C   0  0  2  0  0  0  0  0  0  0  0  0
  145.6226  131.9021  150.0854 C   0  0  0  0  0  0  0  0  0  0  0  0
  146.3668  131.9810  152.3541 O   0  0  0  0  0  0  0  0  0  0  0  0
  148.9043  133.2626  154.2082 H   0  0  0  0  0  0  0  0  0  0  0  0
  148.6850  133.5953  152.4997 H   0  0  0  0  0  0  0  0  0  0  0  0
  148.9654  131.9432  153.0470 H   0  0  0  0  0  0  0  0  0  0  0  0
  146.8286  131.9850  154.3181 H   0  0  0  0  0  0  0  0  0  0  0  0
  145.1718  133.7032  154.1464 H   0  0  0  0  0  0  0  0  0  0  0  0
  146.6905  134.4506  154.5938 H   0  0  0  0  0  0  0  0  0  0  0  0
  145.5161  136.7278  151.9047 H   0  0  0  0  0  0  0  0  0  0  0  0
  147.7665  136.9825  153.0141 H   0  0  0  0  0  0  0  0  0  0  0  0
  147.3651  138.3189  155.6445 H   0  0  0  0  0  0  0  0  0  0  0  0
  148.7398  137.2610  155.3634 H   0  0  0  0  0  0  0  0  0  0  0  0
  149.5817  138.7353  153.5659 H   0  0  0  0  0  0  0  0  0  0  0  0
  148.1492  139.7311  153.6492 H   0  0  0  0  0  0  0  0  0  0  0  0
  147.6454  140.6941  156.1984 H   0  0  0  0  0  0  0  0  0  0  0  0
  148.8455  142.0927  157.8971 H   0  0  0  0  0  0  0  0  0  0  0  0
  151.3564  142.1169  157.8872 H   0  0  0  0  0  0  0  0  0  0  0  0
  152.5613  140.7378  156.1737 H   0  0  0  0  0  0  0  0  0  0  0  0
  143.3823  135.5955  152.0893 H   0  0  0  0  0  0  0  0  0  0  0  0
  143.3436  137.9070  154.0403 H   0  0  0  0  0  0  0  0  0  0  0  0
  142.0158  137.2789  153.0808 H   0  0  0  0  0  0  0  0  0  0  0  0
  143.3794  138.0473  152.2830 H   0  0  0  0  0  0  0  0  0  0  0  0
  143.6491  135.5490  155.1363 H   0  0  0  0  0  0  0  0  0  0  0  0
  143.8314  134.1292  154.1155 H   0  0  0  0  0  0  0  0  0  0  0  0
  142.2943  134.9734  154.1810 H   0  0  0  0  0  0  0  0  0  0  0  0
  144.4145  133.7474  151.7487 H   0  0  0  0  0  0  0  0  0  0  0  0
  145.3598  134.6083  150.5557 H   0  0  0  0  0  0  0  0  0  0  0  0
  147.2593  133.0579  150.8315 H   0  0  0  0  0  0  0  0  0  0  0  0
  145.5267  132.4534  149.1496 H   0  0  0  0  0  0  0  0  0  0  0  0
  144.6274  131.5691  150.3814 H   0  0  0  0  0  0  0  0  0  0  0  0
  146.2251  131.0152  149.8871 H   0  0  0  0  0  0  0  0  0  0  0  0
  146.9833  135.0498  152.2892 H   0  0  0  0  0  0  0  0  0  0  0  0
  1  2  1  0  0  0  0
  1 24  1  0  0  0  0
  1 25  1  0  0  0  0
  1 26  1  0  0  0  0
  2 23  1  0  0  0  0
  2  3  1  0  0  0  0
  2 27  1  0  0  0  0
  3  4  1  0  0  0  0
  3 28  1  0  0  0  0
  3 29  1  0  0  0  0
  4  5  1  0  0  0  0
  4 20  1  0  0  0  0
  4 53  1  0  0  0  0
  5  6  1  0  0  0  0
  5 17  1  0  0  0  0
  5 30  1  0  0  0  0
  6  7  2  0  0  0  0
  6  8  1  0  0  0  0
  8  9  1  0  0  0  0
  8 31  1  0  0  0  0
  9 10  1  0  0  0  0
  9 32  1  0  0  0  0
  9 33  1  0  0  0  0
 10 11  1  0  0  0  0
 10 34  1  0  0  0  0
 10 35  1  0  0  0  0
 11 16  1  0  0  0  0
 11 12  2  0  0  0  0
 12 13  1  0  0  0  0
 12 36  1  0  0  0  0
 13 14  2  0  0  0  0
 13 37  1  0  0  0  0
 14 15  1  0  0  0  0
 14 38  1  0  0  0  0
 15 16  2  0  0  0  0
 15 39  1  0  0  0  0
 17 18  1  0  0  0  0
 17 19  1  0  0  0  0
 17 40  1  0  0  0  0
 18 41  1  0  0  0  0
 18 42  1  0  0  0  0
 18 43  1  0  0  0  0
 19 44  1  0  0  0  0
 19 45  1  0  0  0  0
 19 46  1  0  0  0  0
 20 21  1  0  0  0  0
 20 47  1  0  0  0  0
 20 48  1  0  0  0  0
 21 22  1  0  0  0  0
 21 23  1  0  0  0  0
 21 49  1  0  0  0  0
 22 50  1  0  0  0  0
 22 51  1  0  0  0  0
 22 52  1  0  0  0  0
M  CHG  1   4   1
M  END
> <s_m_source_file>
AV-unprocessed.smi

> <i_m_source_file_index>
1762

> <i_lp_mmshare_version>
43012

> <i_f3d_flags>
0

> <s_epik_input>
W0NIM11bQ0BASF0xW0NIMl1OKFtDSDJdW0NASF0oTzEpW0NIM10pW0NAQEhdKFtDSF0oW0NIM10pW0NIM10pQyg9TylbTkhdW0NIMl1bQ0gyXWMyW2NIXVtjSF1bY0hdW2NIXW4y

> <s_epik_cmdline>
J2VwaWtfcHl0aG9uJywgJy1waCcsICc3LjAnLCAnLXRuJywgJzgnLCAnLW1hJywgJzIwMCcsICctbWV0YWxfYmluZGluZycsICctaW1hZScsICc8aW5maWxlLm1hZT4nLCAnLW9tYWUnLCAnPG91dGZpbGUubWFlPic=

> <r_epik_Ionization_Penalty>
2.27005

> <r_epik_Ionization_Penalty_Charging>
2.24983

> <r_epik_Ionization_Penalty_Neutral>
0.0202209

> <r_epik_State_Penalty>
2.40228

> <r_epik_Charging_Adjusted_Penalty>
4.65211

> <i_epik_Tot_Q>
1

> <i_epik_Tot_abs_Q>
1

> <r_epik_Metal_State_Penalty>
2.40762

> <b_epik_Metal_Only>
0

> <s_lp_Force_Field>
OPLS_2005

> <r_lp_Energy>
24.3613

> <b_lp_Chiralities_Consistent>
1

> <s_lp_Variant>
AV-unprocessed.smi:1762-18

> <Gold.Version>
5.8.1

> <Gold.Id.Protein>
6NUR|6NUR_protein|mol2

> <Gold.PLP.Fitness>
46.4408

> <Gold.PLP.PLP>
-34.7550

> <Gold.PLP.part.hbond>
-3.0000

> <Gold.PLP.part.metal>
0.0000

> <Gold.PLP.part.buried>
-4.5200

> <Gold.PLP.part.nonpolar>
-28.1247

> <Gold.PLP.part.repulsive>
0.3097

> <Gold.PLP.ligand.clash>
0.0000

> <Gold.PLP.ligand.torsion>
0.2910

> <Gold.PLP.Chemscore.Hbond>
4.0000

> <Gold.PLP.Chemscore.CHOScore>
0.0000

> <Gold.PLP.Chemscore.Metal>
0.0000

> <Gold.Chemscore.Hbonds>
donor molecule, donor type, donor heavy atom, donor atom, acceptor molecule, acceptor atom, score
      L1  H     4    53       P1  7948  0.62
      L1  H     8    31       P1  7948  1.00
      P1  H  7989  7998       L1    16  0.69

> <Gold.PLP.Chemscore.Internal.Correction>
0.2678

> <Gold.Rescore>
     Score         DG    S(hbond)    S(metal)    S(lipo)     H(rot)  DE(clash)    DE(int)     intcor
     16.79     -19.97       2.60        0.00      86.01       1.66       0.42       2.76       ----

> <Gold.Chemscore.Fitness>
16.7930

> <Gold.Chemscore.DG>
-19.9716

> <Gold.Chemscore.ZeroCoef>
-5.4800

> <Gold.Chemscore.Hbond>
2.6011

> <Gold.Chemscore.Metal>
0.0000

> <Gold.Chemscore.Lipo>
86.0052

> <Gold.Chemscore.Internal_Hbond>
0.0000

> <Gold.Chemscore.DEClash>
0.4155

> <Gold.Chemscore.DEInternal>
2.7631

> <Gold.Chemscore.Rot>
1.6635

> <Gold.Chemscore.Internal.Correction>
   9.000000E+99

> <Gold.Chemscore.Hbonds>
donor molecule, donor type, donor heavy atom, donor atom, acceptor molecule, acceptor atom, score
      L1  H     4    53       P1  7948  0.31
      L1  H     8    31       P1  7948  1.00
      P1  H  7989  7998       L1    16  0.13

> <Gold.Chemscore.Hbond.Weighted>
-8.6877

> <Gold.Chemscore.Metal.Weighted>
-0.0000

> <Gold.Chemscore.Lipo.Weighted>
-10.0626

> <Gold.Chemscore.Internal_Hbond.Weighted>
0.0000

> <Gold.Chemscore.DEClash.Weighted>
0.4155

> <Gold.Chemscore.DEInternal.Weighted>
2.7631

> <Gold.Chemscore.Rot.Weighted>
4.2586

> <Gold.Chemscore.Internal.Correction.Weighted>
   9.000000E+99

> <Gold.Protein.RotatedTorsions>
[ 6907 6896 6895 6894 ] final  -22.48 input  -60.11 | X-H torsion
[ 7974 7965 7964 7962 ] final   -3.18 input  175.53 | X-H torsion
[ 8008 7997 7996 7995 ] final -102.46 input   59.86 | X-H torsion
[ 10167 10162 10161 10158 ] final -176.82 input  -65.29 | X-H torsion
[ 10718 10713 10712 10709 ] final  170.85 input   66.30 | X-H torsion
[ 10763 10752 10751 10750 ] final  -31.27 input  -60.55 | X-H torsion
[ 11005 11000 10999 10996 ] final  128.69 input  -57.11 | X-H torsion

> <Gold.Protein.ActiveResidues>
 VAL166  LYS551  ARG553  GLY616  TRP617  ASP618  TYR619  PRO620  LYS621  CYS622 
 ASP623  PHE694  ASN695  SER759  ASP760  ASP761  ALA762  ILE779  LEU786  VAL792 
 PHE793  MET794  SER795  GLU796  ALA797  LYS798  CYS799  TRP800  GLU811  SER814 

> <Gold.Protein.RotatedAtoms>
  151.2180  135.0507  159.8937 H   0  0  0  0  0  0  0  0  0  0  0  0  # atno 6907 bound_to 6896
  152.5418  134.0672  159.8188 H   0  0  0  0  0  0  0  0  0  0  0  0  # atno 6908 bound_to 6896
  151.0834  133.5324  159.2651 H   0  0  0  0  0  0  0  0  0  0  0  0  # atno 6909 bound_to 6896
  146.2393  140.1682  142.8332 H   0  0  0  0  0  0  0  0  0  0  0  0  # atno 7974 bound_to 7965
  154.8570  140.0428  157.1641 H   0  0  0  0  0  0  0  0  0  0  0  0  # atno 8008 bound_to 7997
  154.8881  140.2982  155.5366 H   0  0  0  0  0  0  0  0  0  0  0  0  # atno 8009 bound_to 7997
  156.2997  140.2399  156.3893 H   0  0  0  0  0  0  0  0  0  0  0  0  # atno 8010 bound_to 7997
  139.5511  144.2108  152.1078 H   0  0  0  0  0  0  0  0  0  0  0  0  # atno 10167 bound_to 10162
  157.0021  131.0179  151.2827 H   0  0  0  0  0  0  0  0  0  0  0  0  # atno 10718 bound_to 10713
  153.7946  135.6895  153.4866 H   0  0  0  0  0  0  0  0  0  0  0  0  # atno 10763 bound_to 10752
  153.1727  135.4536  154.9923 H   0  0  0  0  0  0  0  0  0  0  0  0  # atno 10764 bound_to 10752
  154.8031  135.3345  154.7439 H   0  0  0  0  0  0  0  0  0  0  0  0  # atno 10765 bound_to 10752
  139.9574  134.9610  156.9039 H   0  0  0  0  0  0  0  0  0  0  0  0  # atno 11005 bound_to 11000
  145.0033  140.8651  143.5268 LP  0  0  0  0  0  0  0  0  0  0  0  0  # atno 17320 bound_to 7965
  145.1704  139.2407  143.5345 LP  0  0  0  0  0  0  0  0  0  0  0  0  # atno 17321 bound_to 7965
  140.1603  144.5032  150.6636 LP  0  0  0  0  0  0  0  0  0  0  0  0  # atno 17342 bound_to 10162
  140.6773  143.2311  151.5474 LP  0  0  0  0  0  0  0  0  0  0  0  0  # atno 17343 bound_to 10162
  157.5382  130.8103  149.7997 LP  0  0  0  0  0  0  0  0  0  0  0  0  # atno 17370 bound_to 10713
  156.0167  130.3811  150.2089 LP  0  0  0  0  0  0  0  0  0  0  0  0  # atno 17371 bound_to 10713
  140.5577  134.0565  155.7389 LP  0  0  0  0  0  0  0  0  0  0  0  0  # atno 17394 bound_to 11000
  141.1248  133.9402  157.2658 LP  0  0  0  0  0  0  0  0  0  0  0  0  # atno 17395 bound_to 11000

$$$$
