AV-unprocessed.smi:657|AV-procd|sdf|3223|dock1
  -GOLD-   22720 0163D 1   1.00000     0.00000
 Structure written by MMmdl.
 47 48  0  0  0  0  0  0  0  0  2 V2000
  148.6276  133.2982  154.0425 C   0  0  0  0  0  0  0  0  0  0  0  0
  147.5154  134.3231  154.3274 C   0  0  0  0  0  0  0  0  0  0  0  0
  146.4640  133.7609  155.3043 C   0  0  0  0  0  0  0  0  0  0  0  0
  146.9277  134.8702  153.0571 N   0  3  1  0  0  0  0  0  0  0  0  0
  146.3356  133.8125  152.1846 C   0  0  0  0  0  0  0  0  0  0  0  0
  145.9355  134.3592  150.8086 C   0  0  0  0  0  0  0  0  0  0  0  0
  144.9302  135.5000  150.9656 C   0  0  0  0  0  0  0  0  0  0  0  0
  145.5396  136.5887  151.8515 C   0  0  0  0  0  0  0  0  0  0  0  0
  145.9988  136.0408  153.2253 C   0  0  2  0  0  0  0  0  0  0  0  0
  146.6216  137.2163  153.9981 C   0  0  0  0  0  0  0  0  0  0  0  0
  146.0948  137.6276  155.0324 O   0  0  0  0  0  0  0  0  0  0  0  0
  147.7512  137.7327  153.4932 N   0  0  0  0  0  0  0  0  0  0  0  0
  148.4812  138.8463  154.0821 C   0  0  0  0  0  0  0  0  0  0  0  0
  149.9887  138.5619  154.0870 C   0  0  0  0  0  0  0  0  0  0  0  0
  150.7117  139.4390  155.0702 C   0  0  0  0  0  0  0  0  0  0  0  0
  152.0485  139.3049  155.5430 C   0  0  0  0  0  0  0  0  0  0  0  0
  152.3845  140.2461  156.4099 N   0  0  0  0  0  0  0  0  0  0  0  0
  151.2794  141.0117  156.5197 N   0  0  0  0  0  0  0  0  0  0  0  0
  151.2911  142.1587  157.4020 C   0  0  0  0  0  0  0  0  0  0  0  0
  150.2539  140.5480  155.7242 C   0  0  0  0  0  0  0  0  0  0  0  0
  149.1633  133.0479  154.9587 H   0  0  0  0  0  0  0  0  0  0  0  0
  149.3582  133.6957  153.3372 H   0  0  0  0  0  0  0  0  0  0  0  0
  148.2402  132.3641  153.6370 H   0  0  0  0  0  0  0  0  0  0  0  0
  148.0262  135.1256  154.8557 H   0  0  0  0  0  0  0  0  0  0  0  0
  146.9334  133.4725  156.2454 H   0  0  0  0  0  0  0  0  0  0  0  0
  145.9702  132.8727  154.9102 H   0  0  0  0  0  0  0  0  0  0  0  0
  145.6973  134.4978  155.5425 H   0  0  0  0  0  0  0  0  0  0  0  0
  147.0403  132.9964  152.0342 H   0  0  0  0  0  0  0  0  0  0  0  0
  145.4550  133.3844  152.6646 H   0  0  0  0  0  0  0  0  0  0  0  0
  146.8203  134.7091  150.2748 H   0  0  0  0  0  0  0  0  0  0  0  0
  145.5012  133.5630  150.2029 H   0  0  0  0  0  0  0  0  0  0  0  0
  144.6675  135.9097  149.9898 H   0  0  0  0  0  0  0  0  0  0  0  0
  144.0067  135.1284  151.4114 H   0  0  0  0  0  0  0  0  0  0  0  0
  146.3858  137.0357  151.3258 H   0  0  0  0  0  0  0  0  0  0  0  0
  144.8099  137.3884  151.9883 H   0  0  0  0  0  0  0  0  0  0  0  0
  145.1178  135.6941  153.7680 H   0  0  0  0  0  0  0  0  0  0  0  0
  148.1285  137.3329  152.6461 H   0  0  0  0  0  0  0  0  0  0  0  0
  148.2739  139.7544  153.5135 H   0  0  0  0  0  0  0  0  0  0  0  0
  148.1271  139.0141  155.1007 H   0  0  0  0  0  0  0  0  0  0  0  0
  150.1566  137.5102  154.3228 H   0  0  0  0  0  0  0  0  0  0  0  0
  150.3870  138.7073  153.0819 H   0  0  0  0  0  0  0  0  0  0  0  0
  152.7801  138.5539  155.2832 H   0  0  0  0  0  0  0  0  0  0  0  0
  150.3549  142.7101  157.3116 H   0  0  0  0  0  0  0  0  0  0  0  0
  152.1177  142.8195  157.1389 H   0  0  0  0  0  0  0  0  0  0  0  0
  151.4105  141.8283  158.4341 H   0  0  0  0  0  0  0  0  0  0  0  0
  149.2929  141.0403  155.6890 H   0  0  0  0  0  0  0  0  0  0  0  0
  147.7155  135.2412  152.5449 H   0  0  0  0  0  0  0  0  0  0  0  0
  1  2  1  0  0  0  0
  1 21  1  0  0  0  0
  1 22  1  0  0  0  0
  1 23  1  0  0  0  0
  2  3  1  0  0  0  0
  2  4  1  0  0  0  0
  2 24  1  0  0  0  0
  3 25  1  0  0  0  0
  3 26  1  0  0  0  0
  3 27  1  0  0  0  0
  4  9  1  0  0  0  0
  4  5  1  0  0  0  0
  4 47  1  0  0  0  0
  5  6  1  0  0  0  0
  5 28  1  0  0  0  0
  5 29  1  0  0  0  0
  6  7  1  0  0  0  0
  6 30  1  0  0  0  0
  6 31  1  0  0  0  0
  7  8  1  0  0  0  0
  7 32  1  0  0  0  0
  7 33  1  0  0  0  0
  8  9  1  0  0  0  0
  8 34  1  0  0  0  0
  8 35  1  0  0  0  0
  9 10  1  0  0  0  0
  9 36  1  0  0  0  0
 10 11  2  0  0  0  0
 10 12  1  0  0  0  0
 12 13  1  0  0  0  0
 12 37  1  0  0  0  0
 13 14  1  0  0  0  0
 13 38  1  0  0  0  0
 13 39  1  0  0  0  0
 14 15  1  0  0  0  0
 14 40  1  0  0  0  0
 14 41  1  0  0  0  0
 15 20  2  0  0  0  0
 15 16  1  0  0  0  0
 16 17  2  0  0  0  0
 16 42  1  0  0  0  0
 17 18  1  0  0  0  0
 18 19  1  0  0  0  0
 18 20  1  0  0  0  0
 19 43  1  0  0  0  0
 19 44  1  0  0  0  0
 19 45  1  0  0  0  0
 20 46  1  0  0  0  0
M  CHG  1   4   1
M  END
> <s_m_source_file>
AV-unprocessed.smi

> <i_m_source_file_index>
657

> <i_lp_mmshare_version>
43012

> <i_f3d_flags>
0

> <s_epik_input>
W0NIM11bQ0hdKFtDSDNdKU4xW0NIMl1bQ0gyXVtDSDJdW0NIMl1bQ0BIXTFDKD1PKVtOSF1bQ0gyXVtDSDJdYzJbY0hdbm4oW0NIM10pW2NIXTI=

> <s_epik_cmdline>
J2VwaWtfcHl0aG9uJywgJy1waCcsICc3LjAnLCAnLXRuJywgJzgnLCAnLW1hJywgJzIwMCcsICctbWV0YWxfYmluZGluZycsICctaW1hZScsICc8aW5maWxlLm1hZT4nLCAnLW9tYWUnLCAnPG91dGZpbGUubWFlPic=

> <r_lp_tautomer_probability>
1

> <r_epik_Ionization_Penalty>
0.0244317

> <r_epik_Ionization_Penalty_Charging>
0.0240236

> <r_epik_Ionization_Penalty_Neutral>
0.00040815

> <r_epik_State_Penalty>
0.0194773

> <r_epik_Charging_Adjusted_Penalty>
0.0435009

> <i_epik_Tot_Q>
1

> <i_epik_Tot_abs_Q>
1

> <r_epik_Metal_State_Penalty>
0.0361957

> <b_epik_Metal_Only>
0

> <s_lp_Force_Field>
OPLS_2005

> <r_lp_Energy>
18.4932

> <b_lp_Chiralities_Consistent>
1

> <s_lp_Variant>
AV-unprocessed.smi:657-4

> <Gold.Version>
5.8.1

> <Gold.Id.Protein>
6NUR|6NUR_protein|mol2

> <Gold.PLP.Fitness>
44.2131

> <Gold.PLP.PLP>
-32.8785

> <Gold.PLP.part.hbond>
-2.9341

> <Gold.PLP.part.metal>
0.0000

> <Gold.PLP.part.buried>
-2.4543

> <Gold.PLP.part.nonpolar>
-27.9656

> <Gold.PLP.part.repulsive>
0.0685

> <Gold.PLP.ligand.clash>
0.0000

> <Gold.PLP.ligand.torsion>
0.4130

> <Gold.PLP.Chemscore.Hbond>
4.0000

> <Gold.PLP.Chemscore.CHOScore>
0.0000

> <Gold.PLP.Chemscore.Metal>
0.0000

> <Gold.Chemscore.Hbonds>
donor molecule, donor type, donor heavy atom, donor atom, acceptor molecule, acceptor atom, score
      L1  H     4    47       P1  7948  2.00
      L1  H    12    37       P1  7948  1.00
      P1  H  7997  8010       L1    17  1.00

> <Gold.PLP.Chemscore.Internal.Correction>
0.1606

> <Gold.Rescore>
     Score         DG    S(hbond)    S(metal)    S(lipo)     H(rot)  DE(clash)    DE(int)     intcor
     19.36     -19.76       2.89        0.00      75.21       1.63       0.03       0.36       ----

> <Gold.Chemscore.Fitness>
19.3591

> <Gold.Chemscore.DG>
-19.7559

> <Gold.Chemscore.ZeroCoef>
-5.4800

> <Gold.Chemscore.Hbond>
2.8874

> <Gold.Chemscore.Metal>
0.0000

> <Gold.Chemscore.Lipo>
75.2076

> <Gold.Chemscore.Internal_Hbond>
0.0000

> <Gold.Chemscore.DEClash>
0.0336

> <Gold.Chemscore.DEInternal>
0.3632

> <Gold.Chemscore.Rot>
1.6279

> <Gold.Chemscore.Internal.Correction>
   9.000000E+99

> <Gold.Chemscore.Hbonds>
donor molecule, donor type, donor heavy atom, donor atom, acceptor molecule, acceptor atom, score
      L1  H     4    47       P1  7948  1.00
      L1  H    12    37       P1  7948  0.94
      P1  H  7997  8010       L1    17  0.29

> <Gold.Chemscore.Hbond.Weighted>
-9.6440

> <Gold.Chemscore.Metal.Weighted>
-0.0000

> <Gold.Chemscore.Lipo.Weighted>
-8.7993

> <Gold.Chemscore.Internal_Hbond.Weighted>
0.0000

> <Gold.Chemscore.DEClash.Weighted>
0.0336

> <Gold.Chemscore.DEInternal.Weighted>
0.3632

> <Gold.Chemscore.Rot.Weighted>
4.1673

> <Gold.Chemscore.Internal.Correction.Weighted>
   9.000000E+99

> <Gold.Protein.RotatedTorsions>
[ 6907 6896 6895 6894 ] final  111.67 input  -60.11 | X-H torsion
[ 7974 7965 7964 7962 ] final -118.27 input  175.53 | X-H torsion
[ 8008 7997 7996 7995 ] final   77.79 input   59.86 | X-H torsion
[ 10167 10162 10161 10158 ] final   27.07 input  -65.29 | X-H torsion
[ 10718 10713 10712 10709 ] final  130.30 input   66.30 | X-H torsion
[ 10763 10752 10751 10750 ] final   17.78 input  -60.55 | X-H torsion
[ 11005 11000 10999 10996 ] final  -48.97 input  -57.11 | X-H torsion

> <Gold.Protein.ActiveResidues>
 VAL166  LYS551  ARG553  GLY616  TRP617  ASP618  TYR619  PRO620  LYS621  CYS622 
 ASP623  PHE694  ASN695  SER759  ASP760  ASP761  ALA762  ILE779  LEU786  VAL792 
 PHE793  MET794  SER795  GLU796  ALA797  LYS798  CYS799  TRP800  GLU811  SER814 

> <Gold.Protein.RotatedAtoms>
  152.4957  133.8625  159.7257 H   0  0  0  0  0  0  0  0  0  0  0  0  # atno 6907 bound_to 6896
  150.9133  133.6962  159.2856 H   0  0  0  0  0  0  0  0  0  0  0  0  # atno 6908 bound_to 6896
  151.4364  135.1019  159.9709 H   0  0  0  0  0  0  0  0  0  0  0  0  # atno 6909 bound_to 6896
  145.0757  140.8391  143.4069 H   0  0  0  0  0  0  0  0  0  0  0  0  # atno 7974 bound_to 7965
  155.8466  140.3460  155.5666 H   0  0  0  0  0  0  0  0  0  0  0  0  # atno 8008 bound_to 7997
  155.8083  140.0895  157.1938 H   0  0  0  0  0  0  0  0  0  0  0  0  # atno 8009 bound_to 7997
  154.4006  140.1452  156.3344 H   0  0  0  0  0  0  0  0  0  0  0  0  # atno 8010 bound_to 7997
  140.4969  144.0377  150.6318 H   0  0  0  0  0  0  0  0  0  0  0  0  # atno 10167 bound_to 10162
  157.5075  131.1096  150.9341 H   0  0  0  0  0  0  0  0  0  0  0  0  # atno 10718 bound_to 10713
  153.1308  135.6739  153.9182 H   0  0  0  0  0  0  0  0  0  0  0  0  # atno 10763 bound_to 10752
  153.8669  135.3074  155.3441 H   0  0  0  0  0  0  0  0  0  0  0  0  # atno 10764 bound_to 10752
  154.7705  135.4942  153.9721 H   0  0  0  0  0  0  0  0  0  0  0  0  # atno 10765 bound_to 10752
  141.0732  133.6673  156.3518 H   0  0  0  0  0  0  0  0  0  0  0  0  # atno 11005 bound_to 11000
  145.1238  139.2676  143.5574 LP  0  0  0  0  0  0  0  0  0  0  0  0  # atno 17320 bound_to 7965
  146.3530  140.0870  142.8614 LP  0  0  0  0  0  0  0  0  0  0  0  0  # atno 17321 bound_to 7965
  140.3662  143.2880  152.0329 LP  0  0  0  0  0  0  0  0  0  0  0  0  # atno 17342 bound_to 10162
  139.4863  144.6265  151.7154 LP  0  0  0  0  0  0  0  0  0  0  0  0  # atno 17343 bound_to 10162
  156.9992  130.5593  149.5310 LP  0  0  0  0  0  0  0  0  0  0  0  0  # atno 17370 bound_to 10713
  156.0267  130.5361  150.8426 LP  0  0  0  0  0  0  0  0  0  0  0  0  # atno 17371 bound_to 10713
  140.5629  134.5916  157.5438 LP  0  0  0  0  0  0  0  0  0  0  0  0  # atno 17394 bound_to 11000
  139.9545  134.7559  156.0373 LP  0  0  0  0  0  0  0  0  0  0  0  0  # atno 17395 bound_to 11000

$$$$
