AV-unprocessed.smi:725|AV-procd|sdf|3509|dock2
  -GOLD-   22720 0503D 1   1.00000     0.00000
 Structure written by MMmdl.
 47 48  0  0  0  0  0  0  0  0  1 V2000
  149.4733  140.6336  154.8870 C   0  0  0  0  0  0  0  0  0  0  0  0
  150.2875  139.3492  154.6950 C   0  0  0  0  0  0  0  0  0  0  0  0
  149.4281  138.0807  154.8672 C   0  0  0  0  0  0  0  0  0  0  0  0
  150.1624  136.8259  155.4040 C   0  0  2  0  0  0  0  0  0  0  0  0
  150.9410  137.1227  156.7041 C   0  0  0  0  0  0  0  0  0  0  0  0
  151.0847  136.4174  154.4113 O   0  0  0  0  0  0  0  0  0  0  0  0
  149.1336  135.6770  155.5637 C   0  0  0  0  0  0  0  0  0  0  0  0
  148.3108  135.4596  154.3750 N   0  0  0  0  0  0  0  0  0  0  0  0
  147.1515  134.7822  154.3351 C   0  0  0  0  0  0  0  0  0  0  0  0
  146.6318  134.2603  155.3219 O   0  0  0  0  0  0  0  0  0  0  0  0
  146.4955  134.7244  152.9802 C   0  0  0  0  0  0  0  0  0  0  0  0
  146.0008  135.9160  152.4006 C   0  0  0  0  0  0  0  0  0  0  0  0
  145.4291  135.8800  151.1169 C   0  0  0  0  0  0  0  0  0  0  0  0
  145.3789  134.6464  150.4468 C   0  0  0  0  0  0  0  0  0  0  0  0
  145.8479  133.5000  150.9786 N   0  0  0  0  0  0  0  0  0  0  0  0
  146.3984  133.5216  152.2184 C   0  0  0  0  0  0  0  0  0  0  0  0
  146.8318  132.2839  152.7353 N   0  0  0  0  0  0  0  0  0  0  0  0
  148.2115  132.1948  153.2026 C   0  0  0  0  0  0  0  0  0  0  0  0
  148.4248  130.8662  153.9479 C   0  0  0  0  0  0  0  0  0  0  0  0
  148.0643  129.7793  153.0996 O   0  0  0  0  0  0  0  0  0  0  0  0
  146.6949  129.8353  152.7090 C   0  0  0  0  0  0  0  0  0  0  0  0
  146.4310  131.1358  151.9314 C   0  0  0  0  0  0  0  0  0  0  0  0
  150.1032  141.5147  154.7640 H   0  0  0  0  0  0  0  0  0  0  0  0
  149.0333  140.6757  155.8835 H   0  0  0  0  0  0  0  0  0  0  0  0
  148.6639  140.6996  154.1595 H   0  0  0  0  0  0  0  0  0  0  0  0
  150.7413  139.3647  153.7040 H   0  0  0  0  0  0  0  0  0  0  0  0
  151.1073  139.3508  155.4125 H   0  0  0  0  0  0  0  0  0  0  0  0
  148.5959  138.3156  155.5321 H   0  0  0  0  0  0  0  0  0  0  0  0
  148.9756  137.8385  153.9043 H   0  0  0  0  0  0  0  0  0  0  0  0
  150.2662  137.4383  157.5000 H   0  0  0  0  0  0  0  0  0  0  0  0
  151.6819  137.9092  156.5657 H   0  0  0  0  0  0  0  0  0  0  0  0
  151.4878  136.2503  157.0618 H   0  0  0  0  0  0  0  0  0  0  0  0
  151.3216  137.1715  153.8939 H   0  0  0  0  0  0  0  0  0  0  0  0
  149.6526  134.7540  155.8276 H   0  0  0  0  0  0  0  0  0  0  0  0
  148.4652  135.8838  156.4005 H   0  0  0  0  0  0  0  0  0  0  0  0
  148.6477  135.8651  153.5140 H   0  0  0  0  0  0  0  0  0  0  0  0
  146.0647  136.8581  152.9259 H   0  0  0  0  0  0  0  0  0  0  0  0
  145.0457  136.7776  150.6548 H   0  0  0  0  0  0  0  0  0  0  0  0
  144.9507  134.5773  149.4578 H   0  0  0  0  0  0  0  0  0  0  0  0
  148.8940  132.2537  152.3534 H   0  0  0  0  0  0  0  0  0  0  0  0
  148.4356  133.0345  153.8616 H   0  0  0  0  0  0  0  0  0  0  0  0
  149.4705  130.7607  154.2368 H   0  0  0  0  0  0  0  0  0  0  0  0
  147.8348  130.8358  154.8655 H   0  0  0  0  0  0  0  0  0  0  0  0
  146.4674  128.9712  152.0848 H   0  0  0  0  0  0  0  0  0  0  0  0
  146.0520  129.7719  153.5887 H   0  0  0  0  0  0  0  0  0  0  0  0
  145.3766  131.1991  151.6620 H   0  0  0  0  0  0  0  0  0  0  0  0
  146.9988  131.1370  151.0000 H   0  0  0  0  0  0  0  0  0  0  0  0
  1  2  1  0  0  0  0
  1 23  1  0  0  0  0
  1 24  1  0  0  0  0
  1 25  1  0  0  0  0
  2  3  1  0  0  0  0
  2 26  1  0  0  0  0
  2 27  1  0  0  0  0
  3  4  1  0  0  0  0
  3 28  1  0  0  0  0
  3 29  1  0  0  0  0
  4  5  1  0  0  0  0
  4  6  1  0  0  0  0
  4  7  1  0  0  0  0
  5 30  1  0  0  0  0
  5 31  1  0  0  0  0
  5 32  1  0  0  0  0
  6 33  1  0  0  0  0
  7  8  1  0  0  0  0
  7 34  1  0  0  0  0
  7 35  1  0  0  0  0
  8  9  1  0  0  0  0
  8 36  1  0  0  0  0
  9 10  2  0  0  0  0
  9 11  1  0  0  0  0
 11 16  1  0  0  0  0
 11 12  2  0  0  0  0
 12 13  1  0  0  0  0
 12 37  1  0  0  0  0
 13 14  2  0  0  0  0
 13 38  1  0  0  0  0
 14 15  1  0  0  0  0
 14 39  1  0  0  0  0
 15 16  2  0  0  0  0
 16 17  1  0  0  0  0
 17 22  1  0  0  0  0
 17 18  1  0  0  0  0
 18 19  1  0  0  0  0
 18 40  1  0  0  0  0
 18 41  1  0  0  0  0
 19 20  1  0  0  0  0
 19 42  1  0  0  0  0
 19 43  1  0  0  0  0
 20 21  1  0  0  0  0
 21 22  1  0  0  0  0
 21 44  1  0  0  0  0
 21 45  1  0  0  0  0
 22 46  1  0  0  0  0
 22 47  1  0  0  0  0
M  END
> <s_m_source_file>
AV-unprocessed.smi

> <i_m_source_file_index>
725

> <i_lp_mmshare_version>
43012

> <i_f3d_flags>
0

> <s_epik_input>
W0NIM11bQ0gyXVtDSDJdW0NAQF0oW0NIM10pKFtPSF0pW0NIMl1bTkhdQyg9TyljMVtjSF1bY0hdW2NIXW5jMU4yW0NIMl1bQ0gyXU9bQ0gyXVtDSDJdMg==

> <s_epik_cmdline>
J2VwaWtfcHl0aG9uJywgJy1waCcsICc3LjAnLCAnLXRuJywgJzgnLCAnLW1hJywgJzIwMCcsICctbWV0YWxfYmluZGluZycsICctaW1hZScsICc8aW5maWxlLm1hZT4nLCAnLW9tYWUnLCAnPG91dGZpbGUubWFlPic=

> <r_lp_tautomer_probability>
1

> <r_epik_Ionization_Penalty>
1.23446e-05

> <r_epik_Ionization_Penalty_Charging>
0

> <r_epik_Ionization_Penalty_Neutral>
1.23446e-05

> <r_epik_State_Penalty>
-0

> <r_epik_Charging_Adjusted_Penalty>
0

> <i_epik_Tot_Q>
0

> <i_epik_Tot_abs_Q>
0

> <r_epik_Metal_State_Penalty>
-0

> <b_epik_Metal_Only>
0

> <s_lp_Force_Field>
OPLS_2005

> <r_lp_Energy>
29.6434

> <b_lp_Chiralities_Consistent>
1

> <s_lp_Variant>
AV-unprocessed.smi:725-2

> <Gold.Version>
5.8.1

> <Gold.Id.Protein>
6NUR|6NUR_protein|mol2

> <Gold.PLP.Fitness>
36.5376

> <Gold.PLP.PLP>
-31.6012

> <Gold.PLP.part.hbond>
-3.7791

> <Gold.PLP.part.metal>
0.0000

> <Gold.PLP.part.buried>
-0.0915

> <Gold.PLP.part.nonpolar>
-27.2089

> <Gold.PLP.part.repulsive>
0.3813

> <Gold.PLP.ligand.clash>
0.0000

> <Gold.PLP.ligand.torsion>
1.7897

> <Gold.PLP.Chemscore.Hbond>
2.0000

> <Gold.PLP.Chemscore.CHOScore>
0.7034

> <Gold.PLP.Chemscore.Metal>
0.0000

> <Gold.Chemscore.Hbonds>
donor molecule, donor type, donor heavy atom, donor atom, acceptor molecule, acceptor atom, score
      L1  H     8    36       P1  7948  1.00
      P1  H 10752 10764       L1     6  0.80
      L1  C    14    39       P1  7921  0.86

> <Gold.PLP.Chemscore.Internal.Correction>
0.4056

> <Gold.Rescore>
     Score         DG    S(hbond)    S(metal)    S(lipo)     H(rot)  DE(clash)    DE(int)     intcor
     12.72     -14.80       1.94        0.00      72.17       2.19       0.00       2.08       ----

> <Gold.Chemscore.Fitness>
12.7172

> <Gold.Chemscore.DG>
-14.8034

> <Gold.Chemscore.ZeroCoef>
-5.4800

> <Gold.Chemscore.Hbond>
1.9444

> <Gold.Chemscore.Metal>
0.0000

> <Gold.Chemscore.Lipo>
72.1701

> <Gold.Chemscore.Internal_Hbond>
0.0000

> <Gold.Chemscore.DEClash>
0.0038

> <Gold.Chemscore.DEInternal>
2.0825

> <Gold.Chemscore.Rot>
2.1933

> <Gold.Chemscore.Internal.Correction>
   9.000000E+99

> <Gold.Chemscore.Hbonds>
donor molecule, donor type, donor heavy atom, donor atom, acceptor molecule, acceptor atom, score
      L1  H     8    36       P1  7948  1.00
      P1  H 10752 10764       L1     6  0.11

> <Gold.Chemscore.Hbond.Weighted>
-6.4944

> <Gold.Chemscore.Metal.Weighted>
-0.0000

> <Gold.Chemscore.Lipo.Weighted>
-8.4439

> <Gold.Chemscore.Internal_Hbond.Weighted>
0.0000

> <Gold.Chemscore.DEClash.Weighted>
0.0038

> <Gold.Chemscore.DEInternal.Weighted>
2.0825

> <Gold.Chemscore.Rot.Weighted>
5.6149

> <Gold.Chemscore.Internal.Correction.Weighted>
   9.000000E+99

> <Gold.Protein.RotatedTorsions>
[ 6907 6896 6895 6894 ] final  -28.36 input  -60.11 | X-H torsion
[ 7974 7965 7964 7962 ] final -172.45 input  175.53 | X-H torsion
[ 8008 7997 7996 7995 ] final  -69.52 input   59.86 | X-H torsion
[ 10167 10162 10161 10158 ] final -152.23 input  -65.29 | X-H torsion
[ 10718 10713 10712 10709 ] final -126.04 input   66.30 | X-H torsion
[ 10763 10752 10751 10750 ] final  -67.99 input  -60.55 | X-H torsion
[ 11005 11000 10999 10996 ] final  164.72 input  -57.11 | X-H torsion

> <Gold.Protein.ActiveResidues>
 VAL166  LYS551  ARG553  GLY616  TRP617  ASP618  TYR619  PRO620  LYS621  CYS622 
 ASP623  PHE694  ASN695  SER759  ASP760  ASP761  ALA762  ILE779  LEU786  VAL792 
 PHE793  MET794  SER795  GLU796  ALA797  LYS798  CYS799  TRP800  GLU811  SER814 

> <Gold.Protein.RotatedAtoms>
  151.1341  135.0145  159.8595 H   0  0  0  0  0  0  0  0  0  0  0  0  # atno 6907 bound_to 6896
  152.5451  134.1576  159.8554 H   0  0  0  0  0  0  0  0  0  0  0  0  # atno 6908 bound_to 6896
  151.1645  133.4778  159.2627 H   0  0  0  0  0  0  0  0  0  0  0  0  # atno 6909 bound_to 6896
  144.7146  140.1770  143.6362 H   0  0  0  0  0  0  0  0  0  0  0  0  # atno 7974 bound_to 7965
  154.4945  140.0852  156.7666 H   0  0  0  0  0  0  0  0  0  0  0  0  # atno 8008 bound_to 7997
  155.4151  140.3443  155.4248 H   0  0  0  0  0  0  0  0  0  0  0  0  # atno 8009 bound_to 7997
  156.1374  140.1519  156.8960 H   0  0  0  0  0  0  0  0  0  0  0  0  # atno 8010 bound_to 7997
  139.7199  143.8974  152.2499 H   0  0  0  0  0  0  0  0  0  0  0  0  # atno 10167 bound_to 10162
  156.1729  130.6680  151.0204 H   0  0  0  0  0  0  0  0  0  0  0  0  # atno 10718 bound_to 10713
  154.3825  135.6071  153.5799 H   0  0  0  0  0  0  0  0  0  0  0  0  # atno 10763 bound_to 10752
  152.9788  135.5864  154.4393 H   0  0  0  0  0  0  0  0  0  0  0  0  # atno 10764 bound_to 10752
  154.4164  135.2845  155.1981 H   0  0  0  0  0  0  0  0  0  0  0  0  # atno 10765 bound_to 10752
  140.2488  134.7993  157.3482 H   0  0  0  0  0  0  0  0  0  0  0  0  # atno 11005 bound_to 11000
  145.8891  139.2365  143.1560 LP  0  0  0  0  0  0  0  0  0  0  0  0  # atno 17320 bound_to 7965
  145.9921  140.8594  143.0061 LP  0  0  0  0  0  0  0  0  0  0  0  0  # atno 17321 bound_to 7965
  139.8867  144.6988  150.8817 LP  0  0  0  0  0  0  0  0  0  0  0  0  # atno 17342 bound_to 10162
  140.7751  143.3618  151.1813 LP  0  0  0  0  0  0  0  0  0  0  0  0  # atno 17343 bound_to 10162
  157.6815  131.0836  150.7356 LP  0  0  0  0  0  0  0  0  0  0  0  0  # atno 17370 bound_to 10713
  156.7415  130.4740  149.5476 LP  0  0  0  0  0  0  0  0  0  0  0  0  # atno 17371 bound_to 10713
  140.1579  134.4766  155.7915 LP  0  0  0  0  0  0  0  0  0  0  0  0  # atno 17394 bound_to 11000
  141.2203  133.6889  156.7493 LP  0  0  0  0  0  0  0  0  0  0  0  0  # atno 17395 bound_to 11000

$$$$
