AV-unprocessed.smi:1679|AV-procd|sdf|6736|dock7
  -GOLD-   22720 7483D 1   1.00000     0.00000
 Structure written by MMmdl.
 44 45  0  0  0  0  0  0  0  0  2 V2000
  152.5580  142.6890  158.6289 C   0  0  0  0  0  0  0  0  0  0  0  0
  153.1408  142.9002  160.0362 C   0  0  1  0  0  0  0  0  0  0  0  0
  152.2624  143.8738  160.8482 C   0  0  0  0  0  0  0  0  0  0  0  0
  152.8182  144.0988  162.2623 C   0  0  0  0  0  0  0  0  0  0  0  0
  152.9796  142.7674  163.0088 C   0  0  0  0  0  0  0  0  0  0  0  0
  153.8634  141.7941  162.2150 C   0  0  0  0  0  0  0  0  0  0  0  0
  153.3153  141.5624  160.7907 C   0  0  2  0  0  0  0  0  0  0  0  0
  154.2270  140.7638  160.0465 O   0  0  0  0  0  0  0  0  0  0  0  0
  154.6606  139.5833  160.7070 C   0  0  0  0  0  0  0  0  0  0  0  0
  153.6388  138.4709  160.4505 C   0  0  0  0  0  0  0  0  0  0  0  0
  153.6059  138.1253  159.0361 N   0  0  0  0  0  0  0  0  0  0  0  0
  152.6587  137.3749  158.4578 C   0  0  0  0  0  0  0  0  0  0  0  0
  151.6933  136.9187  159.0721 O   0  0  0  0  0  0  0  0  0  0  0  0
  152.8203  137.1317  156.9507 C   0  0  0  0  0  0  0  0  0  0  0  0
  151.8677  137.9027  156.1356 N   0  0  0  0  0  0  0  0  0  0  0  0
  150.4996  137.6108  156.2777 C   0  0  0  0  0  0  0  0  0  0  0  0
  149.5568  138.2626  155.5707 C   0  0  0  0  0  0  0  0  0  0  0  0
  149.9858  139.2969  154.6372 C   0  0  0  0  0  0  0  0  0  0  0  0
  149.1383  139.9062  153.9873 O   0  0  0  0  0  0  0  0  0  0  0  0
  151.3250  139.5402  154.5311 N   0  5  0  0  0  0  0  0  0  0  0  0
  152.2729  138.8669  155.2548 C   0  0  0  0  0  0  0  0  0  0  0  0
  153.4769  139.1003  155.1416 O   0  0  0  0  0  0  0  0  0  0  0  0
  151.5744  142.2202  158.6732 H   0  0  0  0  0  0  0  0  0  0  0  0
  153.2025  142.0522  158.0222 H   0  0  0  0  0  0  0  0  0  0  0  0
  152.4510  143.6377  158.1024 H   0  0  0  0  0  0  0  0  0  0  0  0
  154.1260  143.3554  159.9213 H   0  0  0  0  0  0  0  0  0  0  0  0
  152.1895  144.8307  160.3299 H   0  0  0  0  0  0  0  0  0  0  0  0
  151.2461  143.4832  160.9169 H   0  0  0  0  0  0  0  0  0  0  0  0
  153.7828  144.6047  162.2013 H   0  0  0  0  0  0  0  0  0  0  0  0
  152.1561  144.7608  162.8213 H   0  0  0  0  0  0  0  0  0  0  0  0
  153.4119  142.9434  163.9942 H   0  0  0  0  0  0  0  0  0  0  0  0
  151.9992  142.3193  163.1756 H   0  0  0  0  0  0  0  0  0  0  0  0
  154.8774  142.1917  162.1558 H   0  0  0  0  0  0  0  0  0  0  0  0
  153.9334  140.8519  162.7581 H   0  0  0  0  0  0  0  0  0  0  0  0
  152.3424  141.0701  160.8478 H   0  0  0  0  0  0  0  0  0  0  0  0
  155.6369  139.2760  160.3325 H   0  0  0  0  0  0  0  0  0  0  0  0
  154.7604  139.7565  161.7796 H   0  0  0  0  0  0  0  0  0  0  0  0
  153.8851  137.5864  161.0398 H   0  0  0  0  0  0  0  0  0  0  0  0
  152.6485  138.8037  160.7651 H   0  0  0  0  0  0  0  0  0  0  0  0
  154.3671  138.4602  158.4636 H   0  0  0  0  0  0  0  0  0  0  0  0
  153.8458  137.3821  156.6757 H   0  0  0  0  0  0  0  0  0  0  0  0
  152.7187  136.0658  156.7368 H   0  0  0  0  0  0  0  0  0  0  0  0
  150.2673  136.8282  156.9850 H   0  0  0  0  0  0  0  0  0  0  0  0
  148.5101  138.0243  155.6895 H   0  0  0  0  0  0  0  0  0  0  0  0
  1  2  1  0  0  0  0
  1 23  1  0  0  0  0
  1 24  1  0  0  0  0
  1 25  1  0  0  0  0
  2  7  1  0  0  0  0
  2  3  1  0  0  0  0
  2 26  1  0  0  0  0
  3  4  1  0  0  0  0
  3 27  1  0  0  0  0
  3 28  1  0  0  0  0
  4  5  1  0  0  0  0
  4 29  1  0  0  0  0
  4 30  1  0  0  0  0
  5  6  1  0  0  0  0
  5 31  1  0  0  0  0
  5 32  1  0  0  0  0
  6  7  1  0  0  0  0
  6 33  1  0  0  0  0
  6 34  1  0  0  0  0
  7  8  1  0  0  0  0
  7 35  1  0  0  0  0
  8  9  1  0  0  0  0
  9 10  1  0  0  0  0
  9 36  1  0  0  0  0
  9 37  1  0  0  0  0
 10 11  1  0  0  0  0
 10 38  1  0  0  0  0
 10 39  1  0  0  0  0
 11 12  1  0  0  0  0
 11 40  1  0  0  0  0
 12 13  2  0  0  0  0
 12 14  1  0  0  0  0
 14 15  1  0  0  0  0
 14 41  1  0  0  0  0
 14 42  1  0  0  0  0
 15 21  1  0  0  0  0
 15 16  1  0  0  0  0
 16 17  2  0  0  0  0
 16 43  1  0  0  0  0
 17 18  1  0  0  0  0
 17 44  1  0  0  0  0
 18 19  2  0  0  0  0
 18 20  1  0  0  0  0
 20 21  1  0  0  0  0
 21 22  2  0  0  0  0
M  CHG  1  20  -1
M  END
> <s_m_source_file>
AV-unprocessed.smi

> <i_m_source_file_index>
1679

> <i_lp_mmshare_version>
43012

> <i_f3d_flags>
0

> <s_epik_input>
W0NIM11bQ0BASF0xW0NIMl1bQ0gyXVtDSDJdW0NIMl1bQ0BIXTFPW0NIMl1bQ0gyXVtOSF1DKD1PKVtDSDJdbjJbY0hdW2NIXWMoPU8pW25IXWMyPU8=

> <s_epik_cmdline>
J2VwaWtfcHl0aG9uJywgJy1waCcsICc3LjAnLCAnLXRuJywgJzgnLCAnLW1hJywgJzIwMCcsICctbWV0YWxfYmluZGluZycsICctaW1hZScsICc8aW5maWxlLm1hZT4nLCAnLW9tYWUnLCAnPG91dGZpbGUubWFlPic=

> <r_lp_tautomer_probability>
0.999537

> <r_epik_Ionization_Penalty>
3.07454

> <r_epik_Ionization_Penalty_Charging>
2.80088e-08

> <r_epik_Ionization_Penalty_Neutral>
3.07454

> <r_epik_State_Penalty>
3.07357

> <r_epik_Charging_Adjusted_Penalty>
3.07357

> <i_epik_Tot_Q>
-1

> <i_epik_Tot_abs_Q>
1

> <r_epik_Metal_State_Penalty>
0.45948

> <b_epik_Metal_Only>
1

> <s_lp_Force_Field>
OPLS_2005

> <r_lp_Energy>
20.702

> <b_lp_Chiralities_Consistent>
1

> <s_lp_Variant>
AV-unprocessed.smi:1679-8

> <Gold.Version>
5.8.1

> <Gold.Id.Protein>
6NUR|6NUR_protein|mol2

> <Gold.PLP.Fitness>
48.3318

> <Gold.PLP.PLP>
-40.2436

> <Gold.PLP.part.hbond>
-2.8245

> <Gold.PLP.part.metal>
0.0000

> <Gold.PLP.part.buried>
-5.7984

> <Gold.PLP.part.nonpolar>
-31.3776

> <Gold.PLP.part.repulsive>
1.1165

> <Gold.PLP.ligand.clash>
0.0000

> <Gold.PLP.ligand.torsion>
0.4395

> <Gold.PLP.Chemscore.Hbond>
2.9600

> <Gold.PLP.Chemscore.CHOScore>
0.0000

> <Gold.PLP.Chemscore.Metal>
0.0000

> <Gold.Chemscore.Hbonds>
donor molecule, donor type, donor heavy atom, donor atom, acceptor molecule, acceptor atom, score
      P1  H  6896  6908       L1    13  0.98
      P1  H  7989  7998       L1    20  1.00
      P1  H  7997  8010       L1    22  1.00

> <Gold.PLP.Chemscore.Internal.Correction>
0.0873

> <Gold.Rescore>
     Score         DG    S(hbond)    S(metal)    S(lipo)     H(rot)  DE(clash)    DE(int)     intcor
     20.20     -20.68       2.79        0.00     103.76       2.45       0.09       0.39       ----

> <Gold.Chemscore.Fitness>
20.2028

> <Gold.Chemscore.DG>
-20.6767

> <Gold.Chemscore.ZeroCoef>
-5.4800

> <Gold.Chemscore.Hbond>
2.7923

> <Gold.Chemscore.Metal>
0.0000

> <Gold.Chemscore.Lipo>
103.7583

> <Gold.Chemscore.Internal_Hbond>
0.0000

> <Gold.Chemscore.DEClash>
0.0879

> <Gold.Chemscore.DEInternal>
0.3860

> <Gold.Chemscore.Rot>
2.4490

> <Gold.Chemscore.Internal.Correction>
   9.000000E+99

> <Gold.Chemscore.Hbonds>
donor molecule, donor type, donor heavy atom, donor atom, acceptor molecule, acceptor atom, score
      P1  H  6896  6908       L1    13  0.91
      P1  H  7989  7998       L1    20  0.82
      P1  H  7997  8010       L1    22  0.96

> <Gold.Chemscore.Hbond.Weighted>
-9.3264

> <Gold.Chemscore.Metal.Weighted>
-0.0000

> <Gold.Chemscore.Lipo.Weighted>
-12.1397

> <Gold.Chemscore.Internal_Hbond.Weighted>
0.0000

> <Gold.Chemscore.DEClash.Weighted>
0.0879

> <Gold.Chemscore.DEInternal.Weighted>
0.3860

> <Gold.Chemscore.Rot.Weighted>
6.2694

> <Gold.Chemscore.Internal.Correction.Weighted>
   9.000000E+99

> <Gold.Protein.RotatedTorsions>
[ 6907 6896 6895 6894 ] final -114.96 input  -60.11 | X-H torsion
[ 7974 7965 7964 7962 ] final -115.97 input  175.53 | X-H torsion
[ 8008 7997 7996 7995 ] final   93.03 input   59.86 | X-H torsion
[ 10167 10162 10161 10158 ] final  -27.84 input  -65.29 | X-H torsion
[ 10718 10713 10712 10709 ] final    6.52 input   66.30 | X-H torsion
[ 10763 10752 10751 10750 ] final  171.52 input  -60.55 | X-H torsion
[ 11005 11000 10999 10996 ] final   42.60 input  -57.11 | X-H torsion

> <Gold.Protein.ActiveResidues>
 VAL166  LYS551  ARG553  GLY616  TRP617  ASP618  TYR619  PRO620  LYS621  CYS622 
 ASP623  PHE694  ASN695  SER759  ASP760  ASP761  ALA762  ILE779  LEU786  VAL792 
 PHE793  MET794  SER795  GLU796  ALA797  LYS798  CYS799  TRP800  GLU811  SER814 

> <Gold.Protein.RotatedAtoms>
  150.7942  133.8726  159.3262 H   0  0  0  0  0  0  0  0  0  0  0  0  # atno 6907 bound_to 6896
  151.6556  135.0994  160.0179 H   0  0  0  0  0  0  0  0  0  0  0  0  # atno 6908 bound_to 6896
  152.4021  133.6794  159.6360 H   0  0  0  0  0  0  0  0  0  0  0  0  # atno 6909 bound_to 6896
  145.1021  140.8558  143.3920 H   0  0  0  0  0  0  0  0  0  0  0  0  # atno 7974 bound_to 7965
  156.0421  140.3318  155.7256 H   0  0  0  0  0  0  0  0  0  0  0  0  # atno 8008 bound_to 7997
  155.5728  140.0629  157.2820 H   0  0  0  0  0  0  0  0  0  0  0  0  # atno 8009 bound_to 7997
  154.4398  140.1857  156.0885 H   0  0  0  0  0  0  0  0  0  0  0  0  # atno 8010 bound_to 7997
  140.7274  143.4060  151.1185 H   0  0  0  0  0  0  0  0  0  0  0  0  # atno 10167 bound_to 10162
  156.9234  130.5799  149.5648 H   0  0  0  0  0  0  0  0  0  0  0  0  # atno 10718 bound_to 10713
  154.4130  135.2756  155.2025 H   0  0  0  0  0  0  0  0  0  0  0  0  # atno 10763 bound_to 10752
  154.4002  135.6046  153.5896 H   0  0  0  0  0  0  0  0  0  0  0  0  # atno 10764 bound_to 10752
  152.9831  135.5924  154.4414 H   0  0  0  0  0  0  0  0  0  0  0  0  # atno 10765 bound_to 10752
  140.1724  134.4205  155.8249 H   0  0  0  0  0  0  0  0  0  0  0  0  # atno 11005 bound_to 11000
  145.0943  139.2867  143.5719 LP  0  0  0  0  0  0  0  0  0  0  0  0  # atno 17320 bound_to 7965
  146.3529  140.0490  142.8637 LP  0  0  0  0  0  0  0  0  0  0  0  0  # atno 17321 bound_to 7965
  139.7686  143.8527  152.3116 LP  0  0  0  0  0  0  0  0  0  0  0  0  # atno 17342 bound_to 10162
  139.8438  144.7197  150.9298 LP  0  0  0  0  0  0  0  0  0  0  0  0  # atno 17343 bound_to 10162
  156.0480  130.5554  150.8926 LP  0  0  0  0  0  0  0  0  0  0  0  0  # atno 17370 bound_to 10713
  157.5893  131.0945  150.9145 LP  0  0  0  0  0  0  0  0  0  0  0  0  # atno 17371 bound_to 10713
  141.2218  133.6962  156.7787 LP  0  0  0  0  0  0  0  0  0  0  0  0  # atno 17394 bound_to 11000
  140.2362  134.8648  157.3527 LP  0  0  0  0  0  0  0  0  0  0  0  0  # atno 17395 bound_to 11000

$$$$
