AV-unprocessed.smi:21|AV-procd|sdf|140|dock9
  -GOLD-   2262015343D 1   1.00000     0.00000
 Structure written by MMmdl.
 62 65  0  0  0  0  0  0  0  0  2 V2000
  147.0994  130.2188  153.2447 C   0  0  0  0  0  0  0  0  0  0  0  0
  148.4512  130.2594  153.6722 O   0  0  0  0  0  0  0  0  0  0  0  0
  148.6881  131.1994  154.7092 C   0  0  2  0  0  0  0  0  0  0  0  0
  148.4692  132.6181  154.2036 C   0  0  0  0  0  0  0  0  0  0  0  0
  149.2706  133.4643  155.1973 C   0  0  2  0  0  0  0  0  0  0  0  0
  149.6817  134.8488  154.6575 C   0  0  0  0  0  0  0  0  0  0  0  0
  149.9783  135.8050  155.7282 N   0  0  0  0  0  0  0  0  0  0  0  0
  149.3247  135.6014  157.0155 C   0  0  0  0  0  0  0  0  0  0  0  0
  150.6329  136.9756  155.4669 C   0  0  0  0  0  0  0  0  0  0  0  0
  151.5690  136.9840  154.4795 N   0  0  0  0  0  0  0  0  0  0  0  0
  152.2421  138.0958  154.1744 C   0  0  0  0  0  0  0  0  0  0  0  0
  152.1432  139.3046  154.7247 N   0  0  0  0  0  0  0  0  0  0  0  0
  151.2120  139.3160  155.7194 C   0  0  0  0  0  0  0  0  0  0  0  0
  150.4172  138.2132  156.1526 C   0  0  0  0  0  0  0  0  0  0  0  0
  149.5788  138.6333  157.1822 N   0  0  0  0  0  0  0  0  0  0  0  0
  149.8637  139.8950  157.3484 C   0  0  0  0  0  0  0  0  0  0  0  0
  150.8410  140.3847  156.5152 N   0  0  0  0  0  0  0  0  0  0  0  0
  151.3566  141.7415  156.4772 C   0  0  0  0  0  0  0  0  0  0  0  0
  151.6569  142.3278  157.8844 C   0  0  2  0  0  0  0  0  0  0  0  0
  152.0097  143.8345  157.8400 C   0  0  0  0  0  0  0  0  0  0  0  0
  150.8576  144.6480  157.7602 O   0  0  0  0  0  0  0  0  0  0  0  0
  152.7526  141.5457  158.6571 C   0  0  2  0  0  0  0  0  0  0  0  0
  152.4369  140.1091  159.0322 C   0  0  0  0  0  0  0  0  0  0  0  0
  153.5392  139.8152  160.0445 C   0  0  0  0  0  0  0  0  0  0  0  0
  153.7789  141.0464  160.7211 O   0  0  0  0  0  0  0  0  0  0  0  0
  153.1844  142.1280  160.0068 C   0  0  0  0  0  0  0  0  0  0  0  0
  150.4548  132.6369  155.5301 N   0  3  1  0  0  0  0  0  0  0  0  0
  150.9493  132.8139  156.9131 C   0  0  0  0  0  0  0  0  0  0  0  0
  150.1479  131.2290  155.1805 C   0  0  0  0  0  0  0  0  0  0  0  0
  148.0216  131.0226  155.5558 H   0  0  0  0  0  0  0  0  0  0  0  0
  148.6698  133.5823  156.1013 H   0  0  0  0  0  0  0  0  0  0  0  0
  146.9944  129.4939  152.4375 H   0  0  0  0  0  0  0  0  0  0  0  0
  146.7763  131.1897  152.8668 H   0  0  0  0  0  0  0  0  0  0  0  0
  146.4316  129.9175  154.0523 H   0  0  0  0  0  0  0  0  0  0  0  0
  148.8857  132.7181  153.2000 H   0  0  0  0  0  0  0  0  0  0  0  0
  147.4155  132.8951  154.1601 H   0  0  0  0  0  0  0  0  0  0  0  0
  150.5864  134.7434  154.0583 H   0  0  0  0  0  0  0  0  0  0  0  0
  148.9317  135.2245  153.9615 H   0  0  0  0  0  0  0  0  0  0  0  0
  148.5033  136.3062  157.1472 H   0  0  0  0  0  0  0  0  0  0  0  0
  150.0343  135.7249  157.8340 H   0  0  0  0  0  0  0  0  0  0  0  0
  148.9120  134.5950  157.0901 H   0  0  0  0  0  0  0  0  0  0  0  0
  152.9637  138.0031  153.3760 H   0  0  0  0  0  0  0  0  0  0  0  0
  149.3713  140.5039  158.0927 H   0  0  0  0  0  0  0  0  0  0  0  0
  152.2508  141.7229  155.8568 H   0  0  0  0  0  0  0  0  0  0  0  0
  150.6322  142.3636  155.9514 H   0  0  0  0  0  0  0  0  0  0  0  0
  150.7525  142.2286  158.4870 H   0  0  0  0  0  0  0  0  0  0  0  0
  152.5398  144.1322  158.7449 H   0  0  0  0  0  0  0  0  0  0  0  0
  152.6713  144.0545  157.0013 H   0  0  0  0  0  0  0  0  0  0  0  0
  150.6737  144.8217  156.8497 H   0  0  0  0  0  0  0  0  0  0  0  0
  153.6508  141.5284  158.0369 H   0  0  0  0  0  0  0  0  0  0  0  0
  151.4667  140.0272  159.5216 H   0  0  0  0  0  0  0  0  0  0  0  0
  152.4515  139.4279  158.1809 H   0  0  0  0  0  0  0  0  0  0  0  0
  153.2669  139.0221  160.7413 H   0  0  0  0  0  0  0  0  0  0  0  0
  154.4547  139.5159  159.5325 H   0  0  0  0  0  0  0  0  0  0  0  0
  153.8846  142.9557  159.8925 H   0  0  0  0  0  0  0  0  0  0  0  0
  152.3402  142.4876  160.5924 H   0  0  0  0  0  0  0  0  0  0  0  0
  150.2039  132.4919  157.6417 H   0  0  0  0  0  0  0  0  0  0  0  0
  151.1885  133.8599  157.1066 H   0  0  0  0  0  0  0  0  0  0  0  0
  151.8561  132.2288  157.0700 H   0  0  0  0  0  0  0  0  0  0  0  0
  150.3177  130.5369  156.0066 H   0  0  0  0  0  0  0  0  0  0  0  0
  150.8149  130.9389  154.3678 H   0  0  0  0  0  0  0  0  0  0  0  0
  151.1954  132.9254  154.9066 H   0  0  0  0  0  0  0  0  0  0  0  0
  1  2  1  0  0  0  0
  1 32  1  0  0  0  0
  1 33  1  0  0  0  0
  1 34  1  0  0  0  0
  2  3  1  0  0  0  0
  3 30  1  0  0  0  0
  3 29  1  0  0  0  0
  3  4  1  0  0  0  0
  4  5  1  0  0  0  0
  4 35  1  0  0  0  0
  4 36  1  0  0  0  0
  5 31  1  0  0  0  0
  5  6  1  0  0  0  0
  5 27  1  0  0  0  0
  6  7  1  0  0  0  0
  6 37  1  0  0  0  0
  6 38  1  0  0  0  0
  7  8  1  0  0  0  0
  7  9  1  0  0  0  0
  8 39  1  0  0  0  0
  8 40  1  0  0  0  0
  8 41  1  0  0  0  0
  9 14  1  0  0  0  0
  9 10  2  0  0  0  0
 10 11  1  0  0  0  0
 11 12  2  0  0  0  0
 11 42  1  0  0  0  0
 12 13  1  0  0  0  0
 13 17  1  0  0  0  0
 13 14  2  0  0  0  0
 14 15  1  0  0  0  0
 15 16  2  0  0  0  0
 16 17  1  0  0  0  0
 16 43  1  0  0  0  0
 17 18  1  0  0  0  0
 18 19  1  0  0  0  0
 18 44  1  0  0  0  0
 18 45  1  0  0  0  0
 19 20  1  0  0  0  0
 19 22  1  0  0  0  0
 19 46  1  0  0  0  0
 20 21  1  0  0  0  0
 20 47  1  0  0  0  0
 20 48  1  0  0  0  0
 21 49  1  0  0  0  0
 22 26  1  0  0  0  0
 22 23  1  0  0  0  0
 22 50  1  0  0  0  0
 23 24  1  0  0  0  0
 23 51  1  0  0  0  0
 23 52  1  0  0  0  0
 24 25  1  0  0  0  0
 24 53  1  0  0  0  0
 24 54  1  0  0  0  0
 25 26  1  0  0  0  0
 26 55  1  0  0  0  0
 26 56  1  0  0  0  0
 27 28  1  0  0  0  0
 27 29  1  0  0  0  0
 27 62  1  0  0  0  0
 28 57  1  0  0  0  0
 28 58  1  0  0  0  0
 28 59  1  0  0  0  0
 29 60  1  0  0  0  0
 29 61  1  0  0  0  0
M  CHG  1  27   1
M  END
> <s_m_source_file>
AV-unprocessed.smi

> <i_m_source_file_index>
21

> <i_lp_mmshare_version>
43012

> <i_f3d_flags>
0

> <s_epik_input>
W0NIM11PW0NASF0xW0NIMl1bQ0BIXShOKFtDSDNdKVtDSDJdMSlbQ0gyXU4oW0NIM10pYyhuW2NIXW4yKWMoYzIzKW5bY0hdbjNbQ0gyXVtDQEhdKFtDSDJdW09IXSlbQ0BASF00W0NIMl1bQ0gyXU9bQ0gyXTQ=

> <s_epik_cmdline>
J2VwaWtfcHl0aG9uJywgJy1waCcsICc3LjAnLCAnLXRuJywgJzgnLCAnLW1hJywgJzIwMCcsICctbWV0YWxfYmluZGluZycsICctaW1hZScsICc8aW5maWxlLm1hZT4nLCAnLW9tYWUnLCAnPG91dGZpbGUubWFlPic=

> <r_lp_tautomer_probability>
1

> <r_epik_Ionization_Penalty>
0.0157465

> <r_epik_Ionization_Penalty_Charging>
0.015354

> <r_epik_Ionization_Penalty_Neutral>
0.000392529

> <r_epik_State_Penalty>
0.0120612

> <r_epik_Charging_Adjusted_Penalty>
0.0274152

> <i_epik_Tot_Q>
1

> <i_epik_Tot_abs_Q>
1

> <r_epik_Metal_State_Penalty>
0.0121253

> <b_epik_Metal_Only>
0

> <s_lp_Force_Field>
OPLS_2005

> <r_lp_Energy>
59.0143

> <b_lp_Chiralities_Consistent>
1

> <s_lp_Variant>
AV-unprocessed.smi:21-20

> <Gold.Version>
5.8.1

> <Gold.Id.Protein>
6NUR|6NUR_protein|mol2

> <Gold.PLP.Fitness>
54.0659

> <Gold.PLP.PLP>
-47.3629

> <Gold.PLP.part.hbond>
-4.0000

> <Gold.PLP.part.metal>
0.0000

> <Gold.PLP.part.buried>
-8.3324

> <Gold.PLP.part.nonpolar>
-36.1157

> <Gold.PLP.part.repulsive>
0.3948

> <Gold.PLP.ligand.clash>
0.0000

> <Gold.PLP.ligand.torsion>
1.3889

> <Gold.PLP.Chemscore.Hbond>
2.9440

> <Gold.PLP.Chemscore.CHOScore>
0.0000

> <Gold.PLP.Chemscore.Metal>
0.0000

> <Gold.Chemscore.Hbonds>
donor molecule, donor type, donor heavy atom, donor atom, acceptor molecule, acceptor atom, score
      L1  H    21    49       P1  8028  0.55
      P1  H  7989  7998       L1    12  0.84
      P1  H 10752 10764       L1    10  0.95

> <Gold.PLP.Chemscore.Internal.Correction>
0.6488

> <Gold.Rescore>
     Score         DG    S(hbond)    S(metal)    S(lipo)     H(rot)  DE(clash)    DE(int)     intcor
     13.30     -16.41       1.97        0.00     104.59       3.08       0.16       2.96       ----

> <Gold.Chemscore.Fitness>
13.2984

> <Gold.Chemscore.DG>
-16.4102

> <Gold.Chemscore.ZeroCoef>
-5.4800

> <Gold.Chemscore.Hbond>
1.9664

> <Gold.Chemscore.Metal>
0.0000

> <Gold.Chemscore.Lipo>
104.5858

> <Gold.Chemscore.Internal_Hbond>
0.0000

> <Gold.Chemscore.DEClash>
0.1551

> <Gold.Chemscore.DEInternal>
2.9567

> <Gold.Chemscore.Rot>
3.0758

> <Gold.Chemscore.Internal.Correction>
   9.000000E+99

> <Gold.Chemscore.Hbonds>
donor molecule, donor type, donor heavy atom, donor atom, acceptor molecule, acceptor atom, score
      L1  H    21    49       P1  8028  0.43
      P1  H  7989  7998       L1    12  0.40
      P1  H 10752 10764       L1    10  0.21

> <Gold.Chemscore.Hbond.Weighted>
-6.5679

> <Gold.Chemscore.Metal.Weighted>
-0.0000

> <Gold.Chemscore.Lipo.Weighted>
-12.2365

> <Gold.Chemscore.Internal_Hbond.Weighted>
0.0000

> <Gold.Chemscore.DEClash.Weighted>
0.1551

> <Gold.Chemscore.DEInternal.Weighted>
2.9567

> <Gold.Chemscore.Rot.Weighted>
7.8741

> <Gold.Chemscore.Internal.Correction.Weighted>
   9.000000E+99

> <Gold.Protein.RotatedTorsions>
[ 6907 6896 6895 6894 ] final   52.79 input  -60.11 | X-H torsion
[ 7974 7965 7964 7962 ] final  159.58 input  175.53 | X-H torsion
[ 8008 7997 7996 7995 ] final   32.89 input   59.86 | X-H torsion
[ 10167 10162 10161 10158 ] final -103.34 input  -65.29 | X-H torsion
[ 10718 10713 10712 10709 ] final   25.16 input   66.30 | X-H torsion
[ 10763 10752 10751 10750 ] final  -86.19 input  -60.55 | X-H torsion
[ 11005 11000 10999 10996 ] final   94.05 input  -57.11 | X-H torsion

> <Gold.Protein.ActiveResidues>
 VAL166  LYS551  ARG553  GLY616  TRP617  ASP618  TYR619  PRO620  LYS621  CYS622 
 ASP623  PHE694  ASN695  SER759  ASP760  ASP761  ALA762  ILE779  LEU786  VAL792 
 PHE793  MET794  SER795  GLU796  ALA797  LYS798  CYS799  TRP800  GLU811  SER814 

> <Gold.Protein.RotatedAtoms>
  152.3270  134.7308  160.0299 H   0  0  0  0  0  0  0  0  0  0  0  0  # atno 6907 bound_to 6896
  151.7737  133.3338  159.3460 H   0  0  0  0  0  0  0  0  0  0  0  0  # atno 6908 bound_to 6896
  150.7401  134.5926  159.6040 H   0  0  0  0  0  0  0  0  0  0  0  0  # atno 6909 bound_to 6896
  144.7782  139.7638  143.6270 H   0  0  0  0  0  0  0  0  0  0  0  0  # atno 7974 bound_to 7965
  155.1298  140.3256  155.4477 H   0  0  0  0  0  0  0  0  0  0  0  0  # atno 8008 bound_to 7997
  156.2638  140.2012  156.6366 H   0  0  0  0  0  0  0  0  0  0  0  0  # atno 8009 bound_to 7997
  154.6621  140.0546  157.0060 H   0  0  0  0  0  0  0  0  0  0  0  0  # atno 8010 bound_to 7997
  140.2210  143.3676  152.0969 H   0  0  0  0  0  0  0  0  0  0  0  0  # atno 10167 bound_to 10162
  157.1895  130.6840  149.6144 H   0  0  0  0  0  0  0  0  0  0  0  0  # atno 10718 bound_to 10713
  154.6197  135.5458  153.7562 H   0  0  0  0  0  0  0  0  0  0  0  0  # atno 10763 bound_to 10752
  153.0232  135.6409  154.1458 H   0  0  0  0  0  0  0  0  0  0  0  0  # atno 10764 bound_to 10752
  154.1393  135.2909  155.3145 H   0  0  0  0  0  0  0  0  0  0  0  0  # atno 10765 bound_to 10752
  139.8803  134.8824  156.3807 H   0  0  0  0  0  0  0  0  0  0  0  0  # atno 11005 bound_to 11000
  146.1975  139.5250  142.9765 LP  0  0  0  0  0  0  0  0  0  0  0  0  # atno 17320 bound_to 7965
  145.6124  141.0337  143.1959 LP  0  0  0  0  0  0  0  0  0  0  0  0  # atno 17321 bound_to 7965
  139.5144  144.6947  151.5662 LP  0  0  0  0  0  0  0  0  0  0  0  0  # atno 17342 bound_to 10162
  140.6255  143.9177  150.6561 LP  0  0  0  0  0  0  0  0  0  0  0  0  # atno 17343 bound_to 10162
  155.9713  130.4619  150.6127 LP  0  0  0  0  0  0  0  0  0  0  0  0  # atno 17370 bound_to 10713
  157.3874  131.0790  151.1424 LP  0  0  0  0  0  0  0  0  0  0  0  0  # atno 17371 bound_to 10713
  140.9401  133.7520  156.0135 LP  0  0  0  0  0  0  0  0  0  0  0  0  # atno 17394 bound_to 11000
  140.8230  134.3268  157.5375 LP  0  0  0  0  0  0  0  0  0  0  0  0  # atno 17395 bound_to 11000

$$$$
