AV-unprocessed.smi:2943|AV-procd|sdf|11269|dock3
  -GOLD-   2272016163D 1   1.00000     0.00000
 Structure written by MMmdl.
 36 38  0  0  0  0  0  0  0  0  1 V2000
  150.7141  138.1238  154.1909 C   0  0  0  0  0  0  0  0  0  0  0  0
  150.1053  139.3371  154.8296 C   0  0  0  0  0  0  0  0  0  0  0  0
  150.5618  139.9843  155.9551 C   0  0  0  0  0  0  0  0  0  0  0  0
  151.7512  139.6436  156.8005 C   0  0  0  0  0  0  0  0  0  0  0  0
  149.7409  141.0777  156.2398 N   0  0  0  0  0  0  0  0  0  0  0  0
  149.9074  142.0068  157.3493 C   0  0  0  0  0  0  0  0  0  0  0  0
  151.3185  142.6174  157.3857 C   0  0  1  0  0  0  0  0  0  0  0  0
  151.3387  144.1036  157.7402 C   0  0  0  0  0  0  0  0  0  0  0  0
  152.7216  144.2592  158.3297 C   0  0  0  0  0  0  0  0  0  0  0  0
  152.8712  142.9537  159.1038 C   0  0  0  0  0  0  0  0  0  0  0  0
  152.1352  141.9815  158.3675 O   0  0  0  0  0  0  0  0  0  0  0  0
  148.7290  141.1357  155.2926 C   0  0  0  0  0  0  0  0  0  0  0  0
  147.7191  142.0543  155.2185 N   0  0  0  0  0  0  0  0  0  0  0  0
  146.9058  141.8196  154.1859 C   0  0  0  0  0  0  0  0  0  0  0  0
  146.9735  140.8447  153.2751 N   0  0  0  0  0  0  0  0  0  0  0  0
  147.9768  139.9418  153.3538 C   0  0  0  0  0  0  0  0  0  0  0  0
  148.0088  138.9402  152.3860 N   0  0  0  0  0  0  0  0  0  0  0  0
  148.9330  140.0486  154.3981 C   0  0  0  0  0  0  0  0  0  0  0  0
  151.7921  138.0837  154.3461 H   0  0  0  0  0  0  0  0  0  0  0  0
  150.5509  138.1141  153.1137 H   0  0  0  0  0  0  0  0  0  0  0  0
  150.2850  137.2091  154.5999 H   0  0  0  0  0  0  0  0  0  0  0  0
  152.1013  138.6300  156.6087 H   0  0  0  0  0  0  0  0  0  0  0  0
  151.5149  139.7038  157.8623 H   0  0  0  0  0  0  0  0  0  0  0  0
  152.5760  140.3268  156.5980 H   0  0  0  0  0  0  0  0  0  0  0  0
  149.1535  142.7908  157.2774 H   0  0  0  0  0  0  0  0  0  0  0  0
  149.7035  141.4766  158.2803 H   0  0  0  0  0  0  0  0  0  0  0  0
  151.8117  142.4795  156.4228 H   0  0  0  0  0  0  0  0  0  0  0  0
  151.1639  144.7485  156.8785 H   0  0  0  0  0  0  0  0  0  0  0  0
  150.5863  144.3308  158.4970 H   0  0  0  0  0  0  0  0  0  0  0  0
  153.4654  144.3143  157.5337 H   0  0  0  0  0  0  0  0  0  0  0  0
  152.8251  145.1436  158.9592 H   0  0  0  0  0  0  0  0  0  0  0  0
  153.9131  142.6574  159.2268 H   0  0  0  0  0  0  0  0  0  0  0  0
  152.4251  143.0456  160.0949 H   0  0  0  0  0  0  0  0  0  0  0  0
  146.0835  142.5104  154.0714 H   0  0  0  0  0  0  0  0  0  0  0  0
  147.3127  138.8898  151.6562 H   0  0  0  0  0  0  0  0  0  0  0  0
  148.7312  138.2346  152.3831 H   0  0  0  0  0  0  0  0  0  0  0  0
  1  2  1  0  0  0  0
  1 19  1  0  0  0  0
  1 20  1  0  0  0  0
  1 21  1  0  0  0  0
  2 18  1  0  0  0  0
  2  3  2  0  0  0  0
  3  4  1  0  0  0  0
  3  5  1  0  0  0  0
  4 22  1  0  0  0  0
  4 23  1  0  0  0  0
  4 24  1  0  0  0  0
  5  6  1  0  0  0  0
  5 12  1  0  0  0  0
  6  7  1  0  0  0  0
  6 25  1  0  0  0  0
  6 26  1  0  0  0  0
  7 11  1  0  0  0  0
  7  8  1  0  0  0  0
  7 27  1  0  0  0  0
  8  9  1  0  0  0  0
  8 28  1  0  0  0  0
  8 29  1  0  0  0  0
  9 10  1  0  0  0  0
  9 30  1  0  0  0  0
  9 31  1  0  0  0  0
 10 11  1  0  0  0  0
 10 32  1  0  0  0  0
 10 33  1  0  0  0  0
 12 18  1  0  0  0  0
 12 13  2  0  0  0  0
 13 14  1  0  0  0  0
 14 15  2  0  0  0  0
 14 34  1  0  0  0  0
 15 16  1  0  0  0  0
 16 17  1  0  0  0  0
 16 18  2  0  0  0  0
 17 35  1  0  0  0  0
 17 36  1  0  0  0  0
M  END
> <s_m_source_file>
AV-unprocessed.smi

> <i_m_source_file_index>
2943

> <i_lp_mmshare_version>
43012

> <i_f3d_flags>
0

> <s_epik_input>
bjFbY0hdbmMoW05IMl0pYyhjMTIpYyhbQ0gzXSljKFtDSDNdKW4yW0NIMl1bQ0BASF0zW0NIMl1bQ0gyXVtDSDJdTzM=

> <s_epik_cmdline>
J2VwaWtfcHl0aG9uJywgJy1waCcsICc3LjAnLCAnLXRuJywgJzgnLCAnLW1hJywgJzIwMCcsICctbWV0YWxfYmluZGluZycsICctaW1hZScsICc8aW5maWxlLm1hZT4nLCAnLW9tYWUnLCAnPG91dGZpbGUubWFlPic=

> <r_epik_Ionization_Penalty>
0.0115167

> <r_epik_Ionization_Penalty_Charging>
0

> <r_epik_Ionization_Penalty_Neutral>
0.0115167

> <r_epik_State_Penalty>
0.00863248

> <r_epik_Charging_Adjusted_Penalty>
0.00863248

> <i_epik_Tot_Q>
0

> <i_epik_Tot_abs_Q>
0

> <r_epik_Metal_State_Penalty>
0.00847169

> <b_epik_Metal_Only>
0

> <s_lp_Force_Field>
OPLS_2005

> <r_lp_Energy>
17.4582

> <b_lp_Chiralities_Consistent>
1

> <s_lp_Variant>
AV-unprocessed.smi:2943-2

> <Gold.Version>
5.8.1

> <Gold.Id.Protein>
6NUR|6NUR_protein|mol2

> <Gold.PLP.Fitness>
37.3312

> <Gold.PLP.PLP>
-36.2619

> <Gold.PLP.part.hbond>
-1.2729

> <Gold.PLP.part.metal>
0.0000

> <Gold.PLP.part.buried>
-1.2669

> <Gold.PLP.part.nonpolar>
-35.1859

> <Gold.PLP.part.repulsive>
1.5341

> <Gold.PLP.ligand.clash>
0.0000

> <Gold.PLP.ligand.torsion>
0.6176

> <Gold.PLP.Chemscore.Hbond>
0.7680

> <Gold.PLP.Chemscore.CHOScore>
0.0000

> <Gold.PLP.Chemscore.Metal>
0.0000

> <Gold.Chemscore.Hbonds>
donor molecule, donor type, donor heavy atom, donor atom, acceptor molecule, acceptor atom, score
      L1  H    17    36       P1  7948  0.75

> <Gold.PLP.Chemscore.Internal.Correction>
0.0004

> <Gold.Rescore>
     Score         DG    S(hbond)    S(metal)    S(lipo)     H(rot)  DE(clash)    DE(int)     intcor
     12.12     -14.84       0.77        0.00      85.67       1.26       0.14       2.58       ----

> <Gold.Chemscore.Fitness>
12.1238

> <Gold.Chemscore.DG>
-14.8414

> <Gold.Chemscore.ZeroCoef>
-5.4800

> <Gold.Chemscore.Hbond>
0.7682

> <Gold.Chemscore.Metal>
0.0000

> <Gold.Chemscore.Lipo>
85.6663

> <Gold.Chemscore.Internal_Hbond>
0.0000

> <Gold.Chemscore.DEClash>
0.1364

> <Gold.Chemscore.DEInternal>
2.5811

> <Gold.Chemscore.Rot>
1.2607

> <Gold.Chemscore.Internal.Correction>
   9.000000E+99

> <Gold.Chemscore.Hbonds>
donor molecule, donor type, donor heavy atom, donor atom, acceptor molecule, acceptor atom, score
      L1  H    17    36       P1  7948  0.71

> <Gold.Chemscore.Hbond.Weighted>
-2.5659

> <Gold.Chemscore.Metal.Weighted>
-0.0000

> <Gold.Chemscore.Lipo.Weighted>
-10.0230

> <Gold.Chemscore.Internal_Hbond.Weighted>
0.0000

> <Gold.Chemscore.DEClash.Weighted>
0.1364

> <Gold.Chemscore.DEInternal.Weighted>
2.5811

> <Gold.Chemscore.Rot.Weighted>
3.2274

> <Gold.Chemscore.Internal.Correction.Weighted>
   9.000000E+99

> <Gold.Protein.RotatedTorsions>
[ 6907 6896 6895 6894 ] final -118.80 input  -60.11 | X-H torsion
[ 7974 7965 7964 7962 ] final  170.07 input  175.53 | X-H torsion
[ 8008 7997 7996 7995 ] final  -61.10 input   59.86 | X-H torsion
[ 10167 10162 10161 10158 ] final   93.60 input  -65.29 | X-H torsion
[ 10718 10713 10712 10709 ] final   46.67 input   66.30 | X-H torsion
[ 10763 10752 10751 10750 ] final   -1.51 input  -60.55 | X-H torsion
[ 11005 11000 10999 10996 ] final   -5.97 input  -57.11 | X-H torsion

> <Gold.Protein.ActiveResidues>
 VAL166  LYS551  ARG553  GLY616  TRP617  ASP618  TYR619  PRO620  LYS621  CYS622 
 ASP623  PHE694  ASN695  SER759  ASP760  ASP761  ALA762  ILE779  LEU786  VAL792 
 PHE793  MET794  SER795  GLU796  ALA797  LYS798  CYS799  TRP800  GLU811  SER814 

> <Gold.Protein.RotatedAtoms>
  150.8250  133.8187  159.3122 H   0  0  0  0  0  0  0  0  0  0  0  0  # atno 6907 bound_to 6896
  151.5933  135.1050  160.0053 H   0  0  0  0  0  0  0  0  0  0  0  0  # atno 6908 bound_to 6896
  152.4336  133.7280  159.6628 H   0  0  0  0  0  0  0  0  0  0  0  0  # atno 6909 bound_to 6896
  144.7335  139.9148  143.6417 H   0  0  0  0  0  0  0  0  0  0  0  0  # atno 7974 bound_to 7965
  154.4431  140.1025  156.6378 H   0  0  0  0  0  0  0  0  0  0  0  0  # atno 8008 bound_to 7997
  155.5534  140.3486  155.4455 H   0  0  0  0  0  0  0  0  0  0  0  0  # atno 8009 bound_to 7997
  156.0512  140.1304  157.0037 H   0  0  0  0  0  0  0  0  0  0  0  0  # atno 8010 bound_to 7997
  139.8164  144.6750  150.9574 H   0  0  0  0  0  0  0  0  0  0  0  0  # atno 10167 bound_to 10162
  157.4506  130.8136  149.7784 H   0  0  0  0  0  0  0  0  0  0  0  0  # atno 10718 bound_to 10713
  153.3458  135.6983  153.6829 H   0  0  0  0  0  0  0  0  0  0  0  0  # atno 10763 bound_to 10752
  153.5576  135.3541  155.2786 H   0  0  0  0  0  0  0  0  0  0  0  0  # atno 10764 bound_to 10752
  154.8645  135.4241  154.2681 H   0  0  0  0  0  0  0  0  0  0  0  0  # atno 10765 bound_to 10752
  140.6969  133.9023  155.8656 H   0  0  0  0  0  0  0  0  0  0  0  0  # atno 11005 bound_to 11000
  146.0974  139.3967  143.0368 LP  0  0  0  0  0  0  0  0  0  0  0  0  # atno 17320 bound_to 7965
  145.7627  140.9929  143.1191 LP  0  0  0  0  0  0  0  0  0  0  0  0  # atno 17321 bound_to 7965
  140.7815  143.4134  151.0956 LP  0  0  0  0  0  0  0  0  0  0  0  0  # atno 17342 bound_to 10162
  139.7797  143.8373  152.3135 LP  0  0  0  0  0  0  0  0  0  0  0  0  # atno 17343 bound_to 10162
  155.9985  130.3894  150.2698 LP  0  0  0  0  0  0  0  0  0  0  0  0  # atno 17370 bound_to 10713
  157.0870  131.0159  151.3136 LP  0  0  0  0  0  0  0  0  0  0  0  0  # atno 17371 bound_to 10713
  141.0195  134.0908  157.4135 LP  0  0  0  0  0  0  0  0  0  0  0  0  # atno 17394 bound_to 11000
  139.8907  135.0114  156.6753 LP  0  0  0  0  0  0  0  0  0  0  0  0  # atno 17395 bound_to 11000

$$$$
