AV-unprocessed.smi:153|AV-procd|sdf|1265|dock7
  -GOLD-   2262018523D 1   1.00000     0.00000
 Structure written by MMmdl.
 59 62  0  0  0  0  0  0  0  0  1 V2000
  152.5306  141.7756  159.4808 C   0  0  0  0  0  0  0  0  0  0  0  0
  151.5503  142.9549  159.3731 C   0  0  1  0  0  0  0  0  0  0  0  0
  152.2562  144.0694  159.9234 O   0  0  0  0  0  0  0  0  0  0  0  0
  152.1618  145.1974  159.0681 C   0  0  0  0  0  0  0  0  0  0  0  0
  152.0221  144.5879  157.6809 C   0  0  0  0  0  0  0  0  0  0  0  0
  151.1300  143.3821  157.9386 C   0  0  2  0  0  0  0  0  0  0  0  0
  149.7944  143.8540  157.9978 O   0  0  0  0  0  0  0  0  0  0  0  0
  151.2132  142.3292  156.7986 C   0  0  0  0  0  0  0  0  0  0  0  0
  150.5326  141.0627  157.0520 N   0  0  0  0  0  0  0  0  0  0  0  0
  149.9057  140.6526  158.2086 C   0  0  0  0  0  0  0  0  0  0  0  0
  149.3564  139.4712  158.1562 N   0  0  0  0  0  0  0  0  0  0  0  0
  149.5962  139.0324  156.8596 C   0  0  0  0  0  0  0  0  0  0  0  0
  149.2793  137.8477  156.1285 C   0  0  0  0  0  0  0  0  0  0  0  0
  148.6323  136.7720  156.6588 N   0  0  0  0  0  0  0  0  0  0  0  0
  148.2333  136.8310  158.0633 C   0  0  0  0  0  0  0  0  0  0  0  0
  147.8135  135.9533  155.7641 C   0  0  0  0  0  0  0  0  0  0  0  0
  148.5281  134.6715  155.2781 C   0  0  1  0  0  0  0  0  0  0  0  0
  149.2506  134.0637  156.3308 O   0  0  0  0  0  0  0  0  0  0  0  0
  147.5694  133.6262  154.6640 C   0  0  0  0  0  0  0  0  0  0  0  0
  147.0627  133.9038  153.3161 N   0  0  0  0  0  0  0  0  0  0  0  0
  145.9646  134.8685  153.3034 C   0  0  0  0  0  0  0  0  0  0  0  0
  145.4343  135.1174  151.8805 C   0  0  0  0  0  0  0  0  0  0  0  0
  145.0331  133.8838  151.2943 O   0  0  0  0  0  0  0  0  0  0  0  0
  146.0907  132.9324  151.2441 C   0  0  0  0  0  0  0  0  0  0  0  0
  146.6176  132.6753  152.6662 C   0  0  0  0  0  0  0  0  0  0  0  0
  149.6630  137.8087  154.8236 N   0  0  0  0  0  0  0  0  0  0  0  0
  150.3227  138.8315  154.2749 C   0  0  0  0  0  0  0  0  0  0  0  0
  150.6987  139.9785  154.8397 N   0  0  0  0  0  0  0  0  0  0  0  0
  150.3108  140.0377  156.1457 C   0  0  0  0  0  0  0  0  0  0  0  0
  152.0510  140.8270  159.2498 H   0  0  0  0  0  0  0  0  0  0  0  0
  152.9135  141.6886  160.4977 H   0  0  0  0  0  0  0  0  0  0  0  0
  153.3857  141.9021  158.8163 H   0  0  0  0  0  0  0  0  0  0  0  0
  150.6766  142.7427  159.9916 H   0  0  0  0  0  0  0  0  0  0  0  0
  151.2762  145.7773  159.3314 H   0  0  0  0  0  0  0  0  0  0  0  0
  153.0344  145.8444  159.1596 H   0  0  0  0  0  0  0  0  0  0  0  0
  151.6191  145.2852  156.9452 H   0  0  0  0  0  0  0  0  0  0  0  0
  153.0036  144.2646  157.3313 H   0  0  0  0  0  0  0  0  0  0  0  0
  149.5538  144.1811  157.1446 H   0  0  0  0  0  0  0  0  0  0  0  0
  150.8068  142.7455  155.8761 H   0  0  0  0  0  0  0  0  0  0  0  0
  152.2605  142.1147  156.5850 H   0  0  0  0  0  0  0  0  0  0  0  0
  149.8597  141.2516  159.1053 H   0  0  0  0  0  0  0  0  0  0  0  0
  149.0751  137.1177  158.6948 H   0  0  0  0  0  0  0  0  0  0  0  0
  147.8828  135.8575  158.4064 H   0  0  0  0  0  0  0  0  0  0  0  0
  147.4276  137.5511  158.2095 H   0  0  0  0  0  0  0  0  0  0  0  0
  146.8378  135.7275  156.1885 H   0  0  0  0  0  0  0  0  0  0  0  0
  147.5954  136.5735  154.8940 H   0  0  0  0  0  0  0  0  0  0  0  0
  149.2567  134.9300  154.5089 H   0  0  0  0  0  0  0  0  0  0  0  0
  150.0039  133.6282  155.9623 H   0  0  0  0  0  0  0  0  0  0  0  0
  148.1298  132.6913  154.6197 H   0  0  0  0  0  0  0  0  0  0  0  0
  146.7406  133.4306  155.3464 H   0  0  0  0  0  0  0  0  0  0  0  0
  145.1505  134.5121  153.9363 H   0  0  0  0  0  0  0  0  0  0  0  0
  146.2914  135.8211  153.7175 H   0  0  0  0  0  0  0  0  0  0  0  0
  144.5800  135.7939  151.9067 H   0  0  0  0  0  0  0  0  0  0  0  0
  146.1991  135.5904  151.2622 H   0  0  0  0  0  0  0  0  0  0  0  0
  145.7181  132.0072  150.8048 H   0  0  0  0  0  0  0  0  0  0  0  0
  146.8890  133.2975  150.5959 H   0  0  0  0  0  0  0  0  0  0  0  0
  147.4410  131.9618  152.6186 H   0  0  0  0  0  0  0  0  0  0  0  0
  145.8327  132.2054  153.2609 H   0  0  0  0  0  0  0  0  0  0  0  0
  150.5920  138.7106  153.2360 H   0  0  0  0  0  0  0  0  0  0  0  0
  1  2  1  0  0  0  0
  1 30  1  0  0  0  0
  1 31  1  0  0  0  0
  1 32  1  0  0  0  0
  2  6  1  0  0  0  0
  2  3  1  0  0  0  0
  2 33  1  0  0  0  0
  3  4  1  0  0  0  0
  4  5  1  0  0  0  0
  4 34  1  0  0  0  0
  4 35  1  0  0  0  0
  5  6  1  0  0  0  0
  5 36  1  0  0  0  0
  5 37  1  0  0  0  0
  6  7  1  0  0  0  0
  6  8  1  0  0  0  0
  7 38  1  0  0  0  0
  8  9  1  0  0  0  0
  8 39  1  0  0  0  0
  8 40  1  0  0  0  0
  9 29  1  0  0  0  0
  9 10  1  0  0  0  0
 10 11  2  0  0  0  0
 10 41  1  0  0  0  0
 11 12  1  0  0  0  0
 12 29  2  0  0  0  0
 12 13  1  0  0  0  0
 13 14  1  0  0  0  0
 13 26  2  0  0  0  0
 14 15  1  0  0  0  0
 14 16  1  0  0  0  0
 15 42  1  0  0  0  0
 15 43  1  0  0  0  0
 15 44  1  0  0  0  0
 16 17  1  0  0  0  0
 16 45  1  0  0  0  0
 16 46  1  0  0  0  0
 17 18  1  0  0  0  0
 17 19  1  0  0  0  0
 17 47  1  0  0  0  0
 18 48  1  0  0  0  0
 19 20  1  0  0  0  0
 19 49  1  0  0  0  0
 19 50  1  0  0  0  0
 20 25  1  0  0  0  0
 20 21  1  0  0  0  0
 21 22  1  0  0  0  0
 21 51  1  0  0  0  0
 21 52  1  0  0  0  0
 22 23  1  0  0  0  0
 22 53  1  0  0  0  0
 22 54  1  0  0  0  0
 23 24  1  0  0  0  0
 24 25  1  0  0  0  0
 24 55  1  0  0  0  0
 24 56  1  0  0  0  0
 25 57  1  0  0  0  0
 25 58  1  0  0  0  0
 26 27  1  0  0  0  0
 27 28  2  0  0  0  0
 27 59  1  0  0  0  0
 28 29  1  0  0  0  0
M  END
> <s_m_source_file>
AV-unprocessed.smi

> <i_m_source_file_index>
153

> <i_lp_mmshare_version>
43012

> <i_f3d_flags>
0

> <s_epik_input>
W0NIMl0xW0NIMl1PW0NAQEhdKFtDSDNdKVtDQEBdMShbT0hdKVtDSDJdbihbY0hdbjIpYyhjMjMpbltjSF1uYzNOKFtDSDNdKVtDSDJdW0NASF0oW09IXSlbQ0gyXU40W0NIMl1bQ0gyXU9bQ0gyXVtDSDJdNA==

> <s_epik_cmdline>
J2VwaWtfcHl0aG9uJywgJy1waCcsICc3LjAnLCAnLXRuJywgJzgnLCAnLW1hJywgJzIwMCcsICctbWV0YWxfYmluZGluZycsICctaW1hZScsICc8aW5maWxlLm1hZT4nLCAnLW9tYWUnLCAnPG91dGZpbGUubWFlPic=

> <r_lp_tautomer_probability>
1

> <r_epik_Ionization_Penalty>
0.424123

> <r_epik_Ionization_Penalty_Charging>
0

> <r_epik_Ionization_Penalty_Neutral>
0.424123

> <r_epik_State_Penalty>
0.421495

> <r_epik_Charging_Adjusted_Penalty>
0.421495

> <i_epik_Tot_Q>
0

> <i_epik_Tot_abs_Q>
0

> <r_epik_Metal_State_Penalty>
0.421223

> <b_epik_Metal_Only>
0

> <s_lp_Force_Field>
OPLS_2005

> <r_lp_Energy>
59.9447

> <b_lp_Chiralities_Consistent>
1

> <s_lp_Variant>
AV-unprocessed.smi:153-16

> <Gold.Version>
5.8.1

> <Gold.Id.Protein>
6NUR|6NUR_protein|mol2

> <Gold.PLP.Fitness>
51.3544

> <Gold.PLP.PLP>
-43.5976

> <Gold.PLP.part.hbond>
-2.7546

> <Gold.PLP.part.metal>
0.0000

> <Gold.PLP.part.buried>
-7.7108

> <Gold.PLP.part.nonpolar>
-33.9009

> <Gold.PLP.part.repulsive>
1.8079

> <Gold.PLP.ligand.clash>
0.0000

> <Gold.PLP.ligand.torsion>
0.9647

> <Gold.PLP.Chemscore.Hbond>
2.0000

> <Gold.PLP.Chemscore.CHOScore>
1.0000

> <Gold.PLP.Chemscore.Metal>
0.0000

> <Gold.Chemscore.Hbonds>
donor molecule, donor type, donor heavy atom, donor atom, acceptor molecule, acceptor atom, score
      L1  H     7    38       P1  8028  1.00
      P1  H  7989  7998       L1    28  1.00
      L1  C    27    59       P1  7957  0.72

> <Gold.PLP.Chemscore.Internal.Correction>
0.6861

> <Gold.Rescore>
     Score         DG    S(hbond)    S(metal)    S(lipo)     H(rot)  DE(clash)    DE(int)     intcor
     11.24     -14.69       1.86        0.00     102.65       3.52       1.17       2.28       ----

> <Gold.Chemscore.Fitness>
11.2378

> <Gold.Chemscore.DG>
-14.6858

> <Gold.Chemscore.ZeroCoef>
-5.4800

> <Gold.Chemscore.Hbond>
1.8563

> <Gold.Chemscore.Metal>
0.0000

> <Gold.Chemscore.Lipo>
102.6455

> <Gold.Chemscore.Internal_Hbond>
0.0000

> <Gold.Chemscore.DEClash>
1.1694

> <Gold.Chemscore.DEInternal>
2.2786

> <Gold.Chemscore.Rot>
3.5170

> <Gold.Chemscore.Internal.Correction>
   9.000000E+99

> <Gold.Chemscore.Hbonds>
donor molecule, donor type, donor heavy atom, donor atom, acceptor molecule, acceptor atom, score
      L1  H     7    38       P1  8028  0.40
      P1  H  7989  7998       L1    28  0.45

> <Gold.Chemscore.Hbond.Weighted>
-6.1999

> <Gold.Chemscore.Metal.Weighted>
-0.0000

> <Gold.Chemscore.Lipo.Weighted>
-12.0095

> <Gold.Chemscore.Internal_Hbond.Weighted>
0.0000

> <Gold.Chemscore.DEClash.Weighted>
1.1694

> <Gold.Chemscore.DEInternal.Weighted>
2.2786

> <Gold.Chemscore.Rot.Weighted>
9.0036

> <Gold.Chemscore.Internal.Correction.Weighted>
   9.000000E+99

> <Gold.Protein.RotatedTorsions>
[ 6907 6896 6895 6894 ] final -133.81 input  -60.11 | X-H torsion
[ 7974 7965 7964 7962 ] final  -52.49 input  175.53 | X-H torsion
[ 8008 7997 7996 7995 ] final  -14.07 input   59.86 | X-H torsion
[ 10167 10162 10161 10158 ] final  151.99 input  -65.29 | X-H torsion
[ 10718 10713 10712 10709 ] final  114.70 input   66.30 | X-H torsion
[ 10763 10752 10751 10750 ] final   61.08 input  -60.55 | X-H torsion
[ 11005 11000 10999 10996 ] final   91.59 input  -57.11 | X-H torsion

> <Gold.Protein.ActiveResidues>
 VAL166  LYS551  ARG553  GLY616  TRP617  ASP618  TYR619  PRO620  LYS621  CYS622 
 ASP623  PHE694  ASN695  SER759  ASP760  ASP761  ALA762  ILE779  LEU786  VAL792 
 PHE793  MET794  SER795  GLU796  ALA797  LYS798  CYS799  TRP800  GLU811  SER814 

> <Gold.Protein.RotatedAtoms>
  150.9784  133.6271  159.2726 H   0  0  0  0  0  0  0  0  0  0  0  0  # atno 6907 bound_to 6896
  151.3534  135.0888  159.9420 H   0  0  0  0  0  0  0  0  0  0  0  0  # atno 6908 bound_to 6896
  152.5207  133.9372  159.7663 H   0  0  0  0  0  0  0  0  0  0  0  0  # atno 6909 bound_to 6896
  145.9074  140.7943  142.9712 H   0  0  0  0  0  0  0  0  0  0  0  0  # atno 7974 bound_to 7965
  154.5240  140.2233  155.8923 H   0  0  0  0  0  0  0  0  0  0  0  0  # atno 8008 bound_to 7997
  156.1693  140.3125  155.8910 H   0  0  0  0  0  0  0  0  0  0  0  0  # atno 8009 bound_to 7997
  155.3591  140.0460  157.3037 H   0  0  0  0  0  0  0  0  0  0  0  0  # atno 8010 bound_to 7997
  139.4836  144.5395  151.7588 H   0  0  0  0  0  0  0  0  0  0  0  0  # atno 10167 bound_to 10162
  157.6266  131.1002  150.7223 H   0  0  0  0  0  0  0  0  0  0  0  0  # atno 10718 bound_to 10713
  152.9940  135.5513  154.5976 H   0  0  0  0  0  0  0  0  0  0  0  0  # atno 10763 bound_to 10752
  154.5324  135.2814  155.1170 H   0  0  0  0  0  0  0  0  0  0  0  0  # atno 10764 bound_to 10752
  154.2480  135.6404  153.5283 H   0  0  0  0  0  0  0  0  0  0  0  0  # atno 10765 bound_to 10752
  139.8836  134.8683  156.3449 H   0  0  0  0  0  0  0  0  0  0  0  0  # atno 11005 bound_to 11000
  144.6740  140.1772  143.7409 LP  0  0  0  0  0  0  0  0  0  0  0  0  # atno 17320 bound_to 7965
  145.8714  139.2274  143.1658 LP  0  0  0  0  0  0  0  0  0  0  0  0  # atno 17321 bound_to 7965
  140.4933  144.1278  150.5955 LP  0  0  0  0  0  0  0  0  0  0  0  0  # atno 17342 bound_to 10162
  140.4146  143.2640  151.9790 LP  0  0  0  0  0  0  0  0  0  0  0  0  # atno 17343 bound_to 10162
  156.7570  130.4787  149.5444 LP  0  0  0  0  0  0  0  0  0  0  0  0  # atno 17370 bound_to 10713
  156.1442  130.6265  151.0508 LP  0  0  0  0  0  0  0  0  0  0  0  0  # atno 17371 bound_to 10713
  140.9633  133.7374  156.0432 LP  0  0  0  0  0  0  0  0  0  0  0  0  # atno 17394 bound_to 11000
  140.7962  134.3561  157.5452 LP  0  0  0  0  0  0  0  0  0  0  0  0  # atno 17395 bound_to 11000

$$$$
