AV-unprocessed.smi:937|AV-procd|sdf|4209|dock5
  -GOLD-   22720 2113D 1   1.00000     0.00000
 Structure written by MMmdl.
 45 46  0  0  0  0  0  0  0  0  1 V2000
  152.3366  142.4468  159.8285 C   0  0  0  0  0  0  0  0  0  0  0  0
  151.7682  141.6663  158.6619 C   0  0  0  0  0  0  0  0  0  0  0  0
  151.9825  140.2763  158.5539 C   0  0  0  0  0  0  0  0  0  0  0  0
  151.4358  139.5975  157.4482 C   0  0  0  0  0  0  0  0  0  0  0  0
  150.6991  140.3315  156.4963 C   0  0  0  0  0  0  0  0  0  0  0  0
  150.0956  139.6461  155.2869 C   0  0  0  0  0  0  0  0  0  0  0  0
  150.9414  138.4511  154.8194 C   0  0  0  0  0  0  0  0  0  0  0  0
  150.1273  137.4649  154.1203 N   0  0  0  0  0  0  0  0  0  0  0  0
  149.4180  136.4914  154.7158 C   0  0  0  0  0  0  0  0  0  0  0  0
  149.3946  136.3187  155.9331 O   0  0  0  0  0  0  0  0  0  0  0  0
  148.7207  135.7053  153.8765 N   0  0  0  0  0  0  0  0  0  0  0  0
  147.8546  134.5656  154.1950 C   0  0  2  0  0  0  0  0  0  0  0  0
  148.6596  133.2526  154.3047 C   0  0  0  0  0  0  0  0  0  0  0  0
  149.1951  132.7881  152.9408 C   0  0  0  0  0  0  0  0  0  0  0  0
  148.0612  132.6539  151.9125 C   0  0  0  0  0  0  0  0  0  0  0  0
  147.2703  133.9701  151.7598 C   0  0  1  0  0  0  0  0  0  0  0  0
  146.1388  133.8480  150.7183 C   0  0  0  0  0  0  0  0  0  0  0  0
  146.6314  133.5652  149.5120 F   0  0  0  0  0  0  0  0  0  0  0  0
  145.2929  132.8817  151.0757 F   0  0  0  0  0  0  0  0  0  0  0  0
  145.4571  134.9914  150.6482 F   0  0  0  0  0  0  0  0  0  0  0  0
  146.7411  134.4364  153.1361 C   0  0  0  0  0  0  0  0  0  0  0  0
  150.5451  141.7196  156.6959 C   0  0  0  0  0  0  0  0  0  0  0  0
  151.0665  142.3791  157.7528 N   0  0  0  0  0  0  0  0  0  0  0  0
  152.4791  141.8008  160.6952 H   0  0  0  0  0  0  0  0  0  0  0  0
  151.6671  143.2572  160.1190 H   0  0  0  0  0  0  0  0  0  0  0  0
  153.3013  142.8768  159.5586 H   0  0  0  0  0  0  0  0  0  0  0  0
  152.5525  139.7410  159.2992 H   0  0  0  0  0  0  0  0  0  0  0  0
  151.5820  138.5332  157.3332 H   0  0  0  0  0  0  0  0  0  0  0  0
  149.0846  139.3211  155.5367 H   0  0  0  0  0  0  0  0  0  0  0  0
  149.9939  140.3722  154.4791 H   0  0  0  0  0  0  0  0  0  0  0  0
  151.7234  138.7907  154.1397 H   0  0  0  0  0  0  0  0  0  0  0  0
  151.4471  137.9844  155.6668 H   0  0  0  0  0  0  0  0  0  0  0  0
  150.0915  137.5319  153.1136 H   0  0  0  0  0  0  0  0  0  0  0  0
  148.8140  135.9164  152.8933 H   0  0  0  0  0  0  0  0  0  0  0  0
  147.3677  134.7592  155.1522 H   0  0  0  0  0  0  0  0  0  0  0  0
  149.4838  133.3615  155.0103 H   0  0  0  0  0  0  0  0  0  0  0  0
  148.0156  132.4739  154.7151 H   0  0  0  0  0  0  0  0  0  0  0  0
  149.9406  133.4955  152.5756 H   0  0  0  0  0  0  0  0  0  0  0  0
  149.7083  131.8325  153.0518 H   0  0  0  0  0  0  0  0  0  0  0  0
  148.4802  132.3543  150.9515 H   0  0  0  0  0  0  0  0  0  0  0  0
  147.3883  131.8516  152.2177 H   0  0  0  0  0  0  0  0  0  0  0  0
  147.9623  134.7293  151.3917 H   0  0  0  0  0  0  0  0  0  0  0  0
  145.9971  133.7231  153.4933 H   0  0  0  0  0  0  0  0  0  0  0  0
  146.2187  135.3885  153.0362 H   0  0  0  0  0  0  0  0  0  0  0  0
  149.9913  142.3186  155.9878 H   0  0  0  0  0  0  0  0  0  0  0  0
  1  2  1  0  0  0  0
  1 24  1  0  0  0  0
  1 25  1  0  0  0  0
  1 26  1  0  0  0  0
  2 23  1  0  0  0  0
  2  3  2  0  0  0  0
  3  4  1  0  0  0  0
  3 27  1  0  0  0  0
  4  5  2  0  0  0  0
  4 28  1  0  0  0  0
  5  6  1  0  0  0  0
  5 22  1  0  0  0  0
  6  7  1  0  0  0  0
  6 29  1  0  0  0  0
  6 30  1  0  0  0  0
  7  8  1  0  0  0  0
  7 31  1  0  0  0  0
  7 32  1  0  0  0  0
  8  9  1  0  0  0  0
  8 33  1  0  0  0  0
  9 10  2  0  0  0  0
  9 11  1  0  0  0  0
 11 12  1  0  0  0  0
 11 34  1  0  0  0  0
 12 21  1  0  0  0  0
 12 13  1  0  0  0  0
 12 35  1  0  0  0  0
 13 14  1  0  0  0  0
 13 36  1  0  0  0  0
 13 37  1  0  0  0  0
 14 15  1  0  0  0  0
 14 38  1  0  0  0  0
 14 39  1  0  0  0  0
 15 16  1  0  0  0  0
 15 40  1  0  0  0  0
 15 41  1  0  0  0  0
 16 17  1  0  0  0  0
 16 21  1  0  0  0  0
 16 42  1  0  0  0  0
 17 18  1  0  0  0  0
 17 19  1  0  0  0  0
 17 20  1  0  0  0  0
 21 43  1  0  0  0  0
 21 44  1  0  0  0  0
 22 23  2  0  0  0  0
 22 45  1  0  0  0  0
M  END
> <s_m_source_file>
AV-unprocessed.smi

> <i_m_source_file_index>
937

> <i_lp_mmshare_version>
43012

> <i_f3d_flags>
0

> <s_epik_input>
W0NIM11jMVtjSF1bY0hdYyhbY0hdbjEpW0NIMl1bQ0gyXVtOSF1DKD1PKVtOSF1bQ0BASF0yW0NIMl1bQ0gyXVtDSDJdW0NAQEhdKEMoRikoRilGKVtDSDJdMg==

> <s_epik_cmdline>
J2VwaWtfcHl0aG9uJywgJy1waCcsICc3LjAnLCAnLXRuJywgJzgnLCAnLW1hJywgJzIwMCcsICctbWV0YWxfYmluZGluZycsICctaW1hZScsICc8aW5maWxlLm1hZT4nLCAnLW9tYWUnLCAnPG91dGZpbGUubWFlPic=

> <r_epik_Ionization_Penalty>
0.0563445

> <r_epik_Ionization_Penalty_Charging>
0

> <r_epik_Ionization_Penalty_Neutral>
0.0563445

> <r_epik_State_Penalty>
0.0485409

> <r_epik_Charging_Adjusted_Penalty>
0.0485409

> <i_epik_Tot_Q>
0

> <i_epik_Tot_abs_Q>
0

> <r_epik_Metal_State_Penalty>
0.0443056

> <b_epik_Metal_Only>
0

> <s_lp_Force_Field>
OPLS_2005

> <r_lp_Energy>
16.8022

> <b_lp_Chiralities_Consistent>
1

> <s_lp_Variant>
AV-unprocessed.smi:937-1

> <Gold.Version>
5.8.1

> <Gold.Id.Protein>
6NUR|6NUR_protein|mol2

> <Gold.PLP.Fitness>
45.0436

> <Gold.PLP.PLP>
-39.0245

> <Gold.PLP.part.hbond>
-2.0888

> <Gold.PLP.part.metal>
0.0000

> <Gold.PLP.part.buried>
-2.9019

> <Gold.PLP.part.nonpolar>
-35.1006

> <Gold.PLP.part.repulsive>
0.1811

> <Gold.PLP.ligand.clash>
0.0000

> <Gold.PLP.ligand.torsion>
1.0901

> <Gold.PLP.Chemscore.Hbond>
1.7670

> <Gold.PLP.Chemscore.CHOScore>
0.9430

> <Gold.PLP.Chemscore.Metal>
0.0000

> <Gold.Chemscore.Hbonds>
donor molecule, donor type, donor heavy atom, donor atom, acceptor molecule, acceptor atom, score
      L1  H     8    33       P1  7948  0.40
      L1  C    22    45       P1  8028  0.67

> <Gold.PLP.Chemscore.Internal.Correction>
0.0693

> <Gold.Rescore>
     Score         DG    S(hbond)    S(metal)    S(lipo)     H(rot)  DE(clash)    DE(int)     intcor
     16.74     -17.71       1.76        0.00      88.99       1.58       0.12       0.85       ----

> <Gold.Chemscore.Fitness>
16.7424

> <Gold.Chemscore.DG>
-17.7098

> <Gold.Chemscore.ZeroCoef>
-5.4800

> <Gold.Chemscore.Hbond>
1.7591

> <Gold.Chemscore.Metal>
0.0000

> <Gold.Chemscore.Lipo>
88.9892

> <Gold.Chemscore.Internal_Hbond>
0.0000

> <Gold.Chemscore.DEClash>
0.1185

> <Gold.Chemscore.DEInternal>
0.8488

> <Gold.Chemscore.Rot>
1.5849

> <Gold.Chemscore.Internal.Correction>
   9.000000E+99

> <Gold.Chemscore.Hbonds>
donor molecule, donor type, donor heavy atom, donor atom, acceptor molecule, acceptor atom, score
      L1  H     8    33       P1  7948  0.08
      L1  H    11    34       P1  7948  0.02

> <Gold.Chemscore.Hbond.Weighted>
-5.8754

> <Gold.Chemscore.Metal.Weighted>
-0.0000

> <Gold.Chemscore.Lipo.Weighted>
-10.4117

> <Gold.Chemscore.Internal_Hbond.Weighted>
0.0000

> <Gold.Chemscore.DEClash.Weighted>
0.1185

> <Gold.Chemscore.DEInternal.Weighted>
0.8488

> <Gold.Chemscore.Rot.Weighted>
4.0574

> <Gold.Chemscore.Internal.Correction.Weighted>
   9.000000E+99

> <Gold.Protein.RotatedTorsions>
[ 6907 6896 6895 6894 ] final  -21.42 input  -60.11 | X-H torsion
[ 7974 7965 7964 7962 ] final   22.79 input  175.53 | X-H torsion
[ 8008 7997 7996 7995 ] final -157.81 input   59.86 | X-H torsion
[ 10167 10162 10161 10158 ] final  116.06 input  -65.29 | X-H torsion
[ 10718 10713 10712 10709 ] final   69.11 input   66.30 | X-H torsion
[ 10763 10752 10751 10750 ] final -140.73 input  -60.55 | X-H torsion
[ 11005 11000 10999 10996 ] final   77.59 input  -57.11 | X-H torsion

> <Gold.Protein.ActiveResidues>
 VAL166  LYS551  ARG553  GLY616  TRP617  ASP618  TYR619  PRO620  LYS621  CYS622 
 ASP623  PHE694  ASN695  SER759  ASP760  ASP761  ALA762  ILE779  LEU786  VAL792 
 PHE793  MET794  SER795  GLU796  ALA797  LYS798  CYS799  TRP800  GLU811  SER814 

> <Gold.Protein.RotatedAtoms>
  151.2337  135.0563  159.8997 H   0  0  0  0  0  0  0  0  0  0  0  0  # atno 6907 bound_to 6896
  152.5402  134.0510  159.8120 H   0  0  0  0  0  0  0  0  0  0  0  0  # atno 6908 bound_to 6896
  151.0693  133.5431  159.2660 H   0  0  0  0  0  0  0  0  0  0  0  0  # atno 6909 bound_to 6896
  146.2013  139.7835  142.8759 H   0  0  0  0  0  0  0  0  0  0  0  0  # atno 7974 bound_to 7965
  155.7380  140.0810  157.2258 H   0  0  0  0  0  0  0  0  0  0  0  0  # atno 8008 bound_to 7997
  154.4025  140.1583  156.2639 H   0  0  0  0  0  0  0  0  0  0  0  0  # atno 8009 bound_to 7997
  155.9047  140.3407  155.6055 H   0  0  0  0  0  0  0  0  0  0  0  0  # atno 8010 bound_to 7997
  139.6273  144.7110  151.2506 H   0  0  0  0  0  0  0  0  0  0  0  0  # atno 10167 bound_to 10162
  157.6327  130.9408  150.0468 H   0  0  0  0  0  0  0  0  0  0  0  0  # atno 10718 bound_to 10713
  154.8569  135.3544  154.5755 H   0  0  0  0  0  0  0  0  0  0  0  0  # atno 10763 bound_to 10752
  153.6367  135.7000  153.5261 H   0  0  0  0  0  0  0  0  0  0  0  0  # atno 10764 bound_to 10752
  153.3005  135.4208  155.1207 H   0  0  0  0  0  0  0  0  0  0  0  0  # atno 10765 bound_to 10752
  139.9248  134.7695  156.1541 H   0  0  0  0  0  0  0  0  0  0  0  0  # atno 11005 bound_to 11000
  145.3474  141.0300  143.3358 LP  0  0  0  0  0  0  0  0  0  0  0  0  # atno 17320 bound_to 7965
  144.8690  139.5066  143.6777 LP  0  0  0  0  0  0  0  0  0  0  0  0  # atno 17321 bound_to 7965
  140.7418  143.6544  150.8220 LP  0  0  0  0  0  0  0  0  0  0  0  0  # atno 17342 bound_to 10162
  140.0164  143.5588  152.2818 LP  0  0  0  0  0  0  0  0  0  0  0  0  # atno 17343 bound_to 10162
  156.1543  130.3643  149.9393 LP  0  0  0  0  0  0  0  0  0  0  0  0  # atno 17370 bound_to 10713
  156.7405  130.9078  151.3632 LP  0  0  0  0  0  0  0  0  0  0  0  0  # atno 17371 bound_to 10713
  141.0797  133.6759  156.2311 LP  0  0  0  0  0  0  0  0  0  0  0  0  # atno 17394 bound_to 11000
  140.6368  134.5207  157.5565 LP  0  0  0  0  0  0  0  0  0  0  0  0  # atno 17395 bound_to 11000

$$$$
