AV-unprocessed.smi:76|AV-procd|sdf|768|dock6
  -GOLD-   2262017113D 1   1.00000     0.00000
 Structure written by MMmdl.
 55 58  0  0  0  0  0  0  0  0  1 V2000
  153.0828  139.5241  159.4835 C   0  0  0  0  0  0  0  0  0  0  0  0
  151.9002  140.4843  159.2386 C   0  0  1  0  0  0  0  0  0  0  0  0
  152.3957  141.9453  159.2779 C   0  0  0  0  0  0  0  0  0  0  0  0
  151.2567  142.9492  159.0119 C   0  0  1  0  0  0  0  0  0  0  0  0
  151.7437  144.4115  159.0533 C   0  0  0  0  0  0  0  0  0  0  0  0
  150.7140  145.2537  159.1443 F   0  0  0  0  0  0  0  0  0  0  0  0
  152.5444  144.5943  160.1032 F   0  0  0  0  0  0  0  0  0  0  0  0
  152.4350  144.6933  157.9490 F   0  0  0  0  0  0  0  0  0  0  0  0
  150.5839  142.5965  157.6725 C   0  0  0  0  0  0  0  0  0  0  0  0
  150.1077  141.1372  157.6657 C   0  0  0  0  0  0  0  0  0  0  0  0
  151.2060  140.2223  157.9697 N   0  0  0  0  0  0  0  0  0  0  0  0
  150.8388  138.9393  157.7553 C   0  0  0  0  0  0  0  0  0  0  0  0
  150.3378  138.2548  158.8123 N   0  0  0  0  0  0  0  0  0  0  0  0
  149.9445  136.9868  158.6594 C   0  0  0  0  0  0  0  0  0  0  0  0
  149.9719  136.2313  157.5592 N   0  0  0  0  0  0  0  0  0  0  0  0
  150.4898  136.9139  156.4977 C   0  0  0  0  0  0  0  0  0  0  0  0
  150.9409  138.2633  156.5066 C   0  0  0  0  0  0  0  0  0  0  0  0
  151.3910  138.6218  155.2423 N   0  0  0  0  0  0  0  0  0  0  0  0
  151.2118  137.5463  154.5256 C   0  0  0  0  0  0  0  0  0  0  0  0
  150.6921  136.4654  155.2033 N   0  0  0  0  0  0  0  0  0  0  0  0
  150.3891  135.1527  154.6492 C   0  0  0  0  0  0  0  0  0  0  0  0
  149.0735  134.4970  155.1780 C   0  0  0  0  0  0  0  0  0  0  0  0
  147.9859  135.5722  155.4412 C   0  0  0  0  0  0  0  0  0  0  0  0
  147.5913  136.2382  154.2584 O   0  0  0  0  0  0  0  0  0  0  0  0
  148.5397  133.4676  154.1503 C   0  0  0  0  0  0  0  0  0  0  0  0
  149.4029  132.1939  154.0734 C   0  0  0  0  0  0  0  0  0  0  0  0
  149.5189  131.6007  155.3606 O   0  0  0  0  0  0  0  0  0  0  0  0
  150.1455  132.4540  156.3098 C   0  0  0  0  0  0  0  0  0  0  0  0
  149.2991  133.7244  156.5023 C   0  0  0  0  0  0  0  0  0  0  0  0
  153.6058  139.7777  160.4058 H   0  0  0  0  0  0  0  0  0  0  0  0
  153.8059  139.5714  158.6685 H   0  0  0  0  0  0  0  0  0  0  0  0
  152.7558  138.4886  159.5805 H   0  0  0  0  0  0  0  0  0  0  0  0
  151.1835  140.3556  160.0503 H   0  0  0  0  0  0  0  0  0  0  0  0
  152.8491  142.1506  160.2482 H   0  0  0  0  0  0  0  0  0  0  0  0
  153.1835  142.0837  158.5359 H   0  0  0  0  0  0  0  0  0  0  0  0
  150.5136  142.8273  159.8016 H   0  0  0  0  0  0  0  0  0  0  0  0
  149.7361  143.2567  157.4887 H   0  0  0  0  0  0  0  0  0  0  0  0
  151.2844  142.7545  156.8512 H   0  0  0  0  0  0  0  0  0  0  0  0
  149.3109  141.0083  158.3997 H   0  0  0  0  0  0  0  0  0  0  0  0
  149.6826  140.8968  156.6897 H   0  0  0  0  0  0  0  0  0  0  0  0
  149.5512  136.5096  159.5451 H   0  0  0  0  0  0  0  0  0  0  0  0
  151.4625  137.5106  153.4754 H   0  0  0  0  0  0  0  0  0  0  0  0
  150.3496  135.2472  153.5635 H   0  0  0  0  0  0  0  0  0  0  0  0
  151.2504  134.5157  154.8452 H   0  0  0  0  0  0  0  0  0  0  0  0
  147.0951  135.1164  155.8753 H   0  0  0  0  0  0  0  0  0  0  0  0
  148.3306  136.3132  156.1626 H   0  0  0  0  0  0  0  0  0  0  0  0
  148.2000  136.0119  153.5710 H   0  0  0  0  0  0  0  0  0  0  0  0
  147.5257  133.1725  154.4244 H   0  0  0  0  0  0  0  0  0  0  0  0
  148.4635  133.9181  153.1601 H   0  0  0  0  0  0  0  0  0  0  0  0
  148.9361  131.4730  153.4018 H   0  0  0  0  0  0  0  0  0  0  0  0
  150.3918  132.4017  153.6644 H   0  0  0  0  0  0  0  0  0  0  0  0
  150.2287  131.9188  157.2557 H   0  0  0  0  0  0  0  0  0  0  0  0
  151.1622  132.6895  155.9946 H   0  0  0  0  0  0  0  0  0  0  0  0
  149.7440  134.3640  157.2635 H   0  0  0  0  0  0  0  0  0  0  0  0
  148.3346  133.4191  156.9111 H   0  0  0  0  0  0  0  0  0  0  0  0
  1  2  1  0  0  0  0
  1 30  1  0  0  0  0
  1 31  1  0  0  0  0
  1 32  1  0  0  0  0
  2 11  1  0  0  0  0
  2  3  1  0  0  0  0
  2 33  1  0  0  0  0
  3  4  1  0  0  0  0
  3 34  1  0  0  0  0
  3 35  1  0  0  0  0
  4  5  1  0  0  0  0
  4  9  1  0  0  0  0
  4 36  1  0  0  0  0
  5  6  1  0  0  0  0
  5  7  1  0  0  0  0
  5  8  1  0  0  0  0
  9 10  1  0  0  0  0
  9 37  1  0  0  0  0
  9 38  1  0  0  0  0
 10 11  1  0  0  0  0
 10 39  1  0  0  0  0
 10 40  1  0  0  0  0
 11 12  1  0  0  0  0
 12 17  1  0  0  0  0
 12 13  2  0  0  0  0
 13 14  1  0  0  0  0
 14 15  2  0  0  0  0
 14 41  1  0  0  0  0
 15 16  1  0  0  0  0
 16 20  1  0  0  0  0
 16 17  2  0  0  0  0
 17 18  1  0  0  0  0
 18 19  2  0  0  0  0
 19 20  1  0  0  0  0
 19 42  1  0  0  0  0
 20 21  1  0  0  0  0
 21 22  1  0  0  0  0
 21 43  1  0  0  0  0
 21 44  1  0  0  0  0
 22 29  1  0  0  0  0
 22 23  1  0  0  0  0
 22 25  1  0  0  0  0
 23 24  1  0  0  0  0
 23 45  1  0  0  0  0
 23 46  1  0  0  0  0
 24 47  1  0  0  0  0
 25 26  1  0  0  0  0
 25 48  1  0  0  0  0
 25 49  1  0  0  0  0
 26 27  1  0  0  0  0
 26 50  1  0  0  0  0
 26 51  1  0  0  0  0
 27 28  1  0  0  0  0
 28 29  1  0  0  0  0
 28 52  1  0  0  0  0
 28 53  1  0  0  0  0
 29 54  1  0  0  0  0
 29 55  1  0  0  0  0
M  END
> <s_m_source_file>
AV-unprocessed.smi

> <i_m_source_file_index>
76

> <i_lp_mmshare_version>
43012

> <i_f3d_flags>
0

> <s_epik_input>
W0NIM11bQ0BASF0xW0NIMl1bQ0BASF0oQyhGKShGKUYpW0NIMl1bQ0gyXU4xYyhuW2NIXW4yKWMoYzIzKW5bY0hdbjNbQ0gyXUM0KFtDSDJdW09IXSlbQ0gyXVtDSDJdT1tDSDJdW0NIMl00

> <s_epik_cmdline>
J2VwaWtfcHl0aG9uJywgJy1waCcsICc3LjAnLCAnLXRuJywgJzgnLCAnLW1hJywgJzIwMCcsICctbWV0YWxfYmluZGluZycsICctaW1hZScsICc8aW5maWxlLm1hZT4nLCAnLW9tYWUnLCAnPG91dGZpbGUubWFlPic=

> <r_lp_tautomer_probability>
1

> <r_epik_Ionization_Penalty>
0.00244097

> <r_epik_Ionization_Penalty_Charging>
0

> <r_epik_Ionization_Penalty_Neutral>
0.00244097

> <r_epik_State_Penalty>
0.00151846

> <r_epik_Charging_Adjusted_Penalty>
0.00151846

> <i_epik_Tot_Q>
0

> <i_epik_Tot_abs_Q>
0

> <r_epik_Metal_State_Penalty>
-0

> <b_epik_Metal_Only>
0

> <s_lp_Force_Field>
OPLS_2005

> <r_lp_Energy>
36.6064

> <b_lp_Chiralities_Consistent>
1

> <s_lp_Variant>
AV-unprocessed.smi:76-2

> <Gold.Version>
5.8.1

> <Gold.Id.Protein>
6NUR|6NUR_protein|mol2

> <Gold.PLP.Fitness>
50.2099

> <Gold.PLP.PLP>
-47.2756

> <Gold.PLP.part.hbond>
-1.0000

> <Gold.PLP.part.metal>
0.0000

> <Gold.PLP.part.buried>
-8.6189

> <Gold.PLP.part.nonpolar>
-38.4605

> <Gold.PLP.part.repulsive>
0.0394

> <Gold.PLP.ligand.clash>
0.0000

> <Gold.PLP.ligand.torsion>
1.6398

> <Gold.PLP.Chemscore.Hbond>
1.0000

> <Gold.PLP.Chemscore.CHOScore>
0.9998

> <Gold.PLP.Chemscore.Metal>
0.0000

> <Gold.Chemscore.Hbonds>
donor molecule, donor type, donor heavy atom, donor atom, acceptor molecule, acceptor atom, score
      L1  H    24    47       P1  7948  1.00
      L1  C    19    42       P1  7949  1.00

> <Gold.PLP.Chemscore.Internal.Correction>
0.2146

> <Gold.Rescore>
     Score         DG    S(hbond)    S(metal)    S(lipo)     H(rot)  DE(clash)    DE(int)     intcor
      9.77     -12.71       0.97        0.00      88.07       2.47       0.02       2.92       ----

> <Gold.Chemscore.Fitness>
9.7727

> <Gold.Chemscore.DG>
-12.7076

> <Gold.Chemscore.ZeroCoef>
-5.4800

> <Gold.Chemscore.Hbond>
0.9693

> <Gold.Chemscore.Metal>
0.0000

> <Gold.Chemscore.Lipo>
88.0722

> <Gold.Chemscore.Internal_Hbond>
0.0000

> <Gold.Chemscore.DEClash>
0.0159

> <Gold.Chemscore.DEInternal>
2.9190

> <Gold.Chemscore.Rot>
2.4665

> <Gold.Chemscore.Internal.Correction>
   9.000000E+99

> <Gold.Chemscore.Hbonds>
donor molecule, donor type, donor heavy atom, donor atom, acceptor molecule, acceptor atom, score
      L1  H    24    47       P1  7948  0.98

> <Gold.Chemscore.Hbond.Weighted>
-3.2373

> <Gold.Chemscore.Metal.Weighted>
-0.0000

> <Gold.Chemscore.Lipo.Weighted>
-10.3044

> <Gold.Chemscore.Internal_Hbond.Weighted>
0.0000

> <Gold.Chemscore.DEClash.Weighted>
0.0159

> <Gold.Chemscore.DEInternal.Weighted>
2.9190

> <Gold.Chemscore.Rot.Weighted>
6.3142

> <Gold.Chemscore.Internal.Correction.Weighted>
   9.000000E+99

> <Gold.Protein.RotatedTorsions>
[ 6907 6896 6895 6894 ] final  -38.59 input  -60.11 | X-H torsion
[ 7974 7965 7964 7962 ] final -110.88 input  175.53 | X-H torsion
[ 8008 7997 7996 7995 ] final  -93.86 input   59.86 | X-H torsion
[ 10167 10162 10161 10158 ] final  -79.89 input  -65.29 | X-H torsion
[ 10718 10713 10712 10709 ] final  -33.66 input   66.30 | X-H torsion
[ 10763 10752 10751 10750 ] final  133.90 input  -60.55 | X-H torsion
[ 11005 11000 10999 10996 ] final  -46.67 input  -57.11 | X-H torsion

> <Gold.Protein.ActiveResidues>
 VAL166  LYS551  ARG553  GLY616  TRP617  ASP618  TYR619  PRO620  LYS621  CYS622 
 ASP623  PHE694  ASN695  SER759  ASP760  ASP761  ALA762  ILE779  LEU786  VAL792 
 PHE793  MET794  SER795  GLU796  ALA797  LYS798  CYS799  TRP800  GLU811  SER814 

> <Gold.Protein.RotatedAtoms>
  151.0006  134.9319  159.7951 H   0  0  0  0  0  0  0  0  0  0  0  0  # atno 6907 bound_to 6896
  152.5277  134.3159  159.9141 H   0  0  0  0  0  0  0  0  0  0  0  0  # atno 6908 bound_to 6896
  151.3165  133.4016  159.2685 H   0  0  0  0  0  0  0  0  0  0  0  0  # atno 6909 bound_to 6896
  145.1629  140.8887  143.3580 H   0  0  0  0  0  0  0  0  0  0  0  0  # atno 7974 bound_to 7965
  154.7410  140.0495  157.0811 H   0  0  0  0  0  0  0  0  0  0  0  0  # atno 8008 bound_to 7997
  155.0179  140.3143  155.4785 H   0  0  0  0  0  0  0  0  0  0  0  0  # atno 8009 bound_to 7997
  156.2864  140.2172  156.5296 H   0  0  0  0  0  0  0  0  0  0  0  0  # atno 8010 bound_to 7997
  140.4553  143.2470  151.8429 H   0  0  0  0  0  0  0  0  0  0  0  0  # atno 10167 bound_to 10162
  156.3600  130.4322  149.7632 H   0  0  0  0  0  0  0  0  0  0  0  0  # atno 10718 bound_to 10713
  153.8146  135.3124  155.3404 H   0  0  0  0  0  0  0  0  0  0  0  0  # atno 10763 bound_to 10752
  154.8037  135.4711  154.0342 H   0  0  0  0  0  0  0  0  0  0  0  0  # atno 10764 bound_to 10752
  153.1732  135.6881  153.8669 H   0  0  0  0  0  0  0  0  0  0  0  0  # atno 10765 bound_to 10752
  141.0593  133.6714  156.3187 H   0  0  0  0  0  0  0  0  0  0  0  0  # atno 11005 bound_to 11000
  145.0312  139.3339  143.6023 LP  0  0  0  0  0  0  0  0  0  0  0  0  # atno 17320 bound_to 7965
  146.3480  139.9651  142.8713 LP  0  0  0  0  0  0  0  0  0  0  0  0  # atno 17321 bound_to 7965
  139.4800  144.5072  151.8981 LP  0  0  0  0  0  0  0  0  0  0  0  0  # atno 17342 bound_to 10162
  140.4159  144.2308  150.5888 LP  0  0  0  0  0  0  0  0  0  0  0  0  # atno 17343 bound_to 10162
  156.4799  130.8036  151.3051 LP  0  0  0  0  0  0  0  0  0  0  0  0  # atno 17370 bound_to 10713
  157.7472  131.0009  150.2943 LP  0  0  0  0  0  0  0  0  0  0  0  0  # atno 17371 bound_to 10713
  140.5901  134.5659  157.5497 LP  0  0  0  0  0  0  0  0  0  0  0  0  # atno 17394 bound_to 11000
  139.9418  134.7773  156.0659 LP  0  0  0  0  0  0  0  0  0  0  0  0  # atno 17395 bound_to 11000

$$$$
