AV-unprocessed.smi:1978|AV-procd|sdf|8015|dock1
  -GOLD-   2272010203D 1   1.00000     0.00000
 Structure written by MMmdl.
 44 45  0  0  0  0  0  0  0  0  3 V2000
  147.3964  135.4040  162.5325 C   0  0  0  0  0  0  0  0  0  0  0  0
  147.8164  135.8024  161.1595 C   0  0  0  0  0  0  0  0  0  0  0  0
  147.9580  135.1069  159.9920 C   0  0  0  0  0  0  0  0  0  0  0  0
  148.3970  136.1008  159.0773 C   0  0  0  0  0  0  0  0  0  0  0  0
  148.6702  135.7679  157.7243 N   0  0  0  0  0  0  0  0  0  0  0  0
  149.3140  134.6929  157.2342 C   0  0  0  0  0  0  0  0  0  0  0  0
  149.7863  133.8448  158.0000 O   0  0  0  0  0  0  0  0  0  0  0  0
  149.3512  134.6936  155.8735 N   0  5  0  0  0  0  0  0  0  0  0  0
  148.2628  135.1405  155.0035 C   0  0  0  0  0  0  0  0  0  0  0  0
  147.6104  133.9273  154.2929 C   0  0  1  0  0  0  0  0  0  0  0  0
  146.7081  133.0714  155.2224 C   0  0  0  0  0  0  0  0  0  0  0  0
  146.9179  134.3884  153.0474 N   0  3  2  0  0  0  0  0  0  0  0  0
  145.7760  135.3338  153.2262 C   0  0  0  0  0  0  0  0  0  0  0  0
  145.3752  135.9721  151.8870 C   0  0  0  0  0  0  0  0  0  0  0  0
  145.0472  134.9002  150.8409 C   0  0  0  0  0  0  0  0  0  0  0  0
  146.2285  133.9301  150.6953 C   0  0  0  0  0  0  0  0  0  0  0  0
  146.6449  133.3116  152.0464 C   0  0  2  0  0  0  0  0  0  0  0  0
  145.6387  132.2518  152.5416 C   0  0  0  0  0  0  0  0  0  0  0  0
  148.5087  137.2968  159.6367 N   0  0  0  0  0  0  0  0  0  0  0  0
  148.1369  137.1114  160.9735 O   0  0  0  0  0  0  0  0  0  0  0  0
  147.2583  134.3247  162.6003 H   0  0  0  0  0  0  0  0  0  0  0  0
  146.4552  135.8830  162.8027 H   0  0  0  0  0  0  0  0  0  0  0  0
  148.1486  135.6948  163.2660 H   0  0  0  0  0  0  0  0  0  0  0  0
  147.7799  134.0556  159.8221 H   0  0  0  0  0  0  0  0  0  0  0  0
  148.3165  136.4164  157.0369 H   0  0  0  0  0  0  0  0  0  0  0  0
  147.4985  135.6839  155.5596 H   0  0  0  0  0  0  0  0  0  0  0  0
  148.6103  135.8356  154.2374 H   0  0  0  0  0  0  0  0  0  0  0  0
  148.4361  133.2856  153.9807 H   0  0  0  0  0  0  0  0  0  0  0  0
  147.2769  132.6286  156.0423 H   0  0  0  0  0  0  0  0  0  0  0  0
  146.2577  132.2402  154.6811 H   0  0  0  0  0  0  0  0  0  0  0  0
  145.8944  133.6443  155.6702 H   0  0  0  0  0  0  0  0  0  0  0  0
  144.9188  134.8221  153.6640 H   0  0  0  0  0  0  0  0  0  0  0  0
  146.0559  136.1279  153.9190 H   0  0  0  0  0  0  0  0  0  0  0  0
  144.5168  136.6294  152.0291 H   0  0  0  0  0  0  0  0  0  0  0  0
  146.1893  136.6010  151.5241 H   0  0  0  0  0  0  0  0  0  0  0  0
  144.1482  134.3570  151.1337 H   0  0  0  0  0  0  0  0  0  0  0  0
  144.8270  135.3687  149.8812 H   0  0  0  0  0  0  0  0  0  0  0  0
  145.9841  133.1458  149.9781 H   0  0  0  0  0  0  0  0  0  0  0  0
  147.0780  134.4691  150.2734 H   0  0  0  0  0  0  0  0  0  0  0  0
  147.5883  132.7938  151.8662 H   0  0  0  0  0  0  0  0  0  0  0  0
  145.4690  131.4955  151.7749 H   0  0  0  0  0  0  0  0  0  0  0  0
  144.6702  132.6832  152.7918 H   0  0  0  0  0  0  0  0  0  0  0  0
  146.0080  131.7281  153.4227 H   0  0  0  0  0  0  0  0  0  0  0  0
  147.6291  134.9464  152.5961 H   0  0  0  0  0  0  0  0  0  0  0  0
  1  2  1  0  0  0  0
  1 21  1  0  0  0  0
  1 22  1  0  0  0  0
  1 23  1  0  0  0  0
  2 20  1  0  0  0  0
  2  3  2  0  0  0  0
  3  4  1  0  0  0  0
  3 24  1  0  0  0  0
  4  5  1  0  0  0  0
  4 19  2  0  0  0  0
  5  6  1  0  0  0  0
  5 25  1  0  0  0  0
  6  7  2  0  0  0  0
  6  8  1  0  0  0  0
  8  9  1  0  0  0  0
  9 10  1  0  0  0  0
  9 26  1  0  0  0  0
  9 27  1  0  0  0  0
 10 11  1  0  0  0  0
 10 12  1  0  0  0  0
 10 28  1  0  0  0  0
 11 29  1  0  0  0  0
 11 30  1  0  0  0  0
 11 31  1  0  0  0  0
 12 17  1  0  0  0  0
 12 13  1  0  0  0  0
 12 44  1  0  0  0  0
 13 14  1  0  0  0  0
 13 32  1  0  0  0  0
 13 33  1  0  0  0  0
 14 15  1  0  0  0  0
 14 34  1  0  0  0  0
 14 35  1  0  0  0  0
 15 16  1  0  0  0  0
 15 36  1  0  0  0  0
 15 37  1  0  0  0  0
 16 17  1  0  0  0  0
 16 38  1  0  0  0  0
 16 39  1  0  0  0  0
 17 18  1  0  0  0  0
 17 40  1  0  0  0  0
 18 41  1  0  0  0  0
 18 42  1  0  0  0  0
 18 43  1  0  0  0  0
 19 20  1  0  0  0  0
M  CHG  1   8  -1
M  CHG  1  12   1
M  END
> <s_m_source_file>
AV-unprocessed.smi

> <i_m_source_file_index>
1978

> <i_lp_mmshare_version>
43012

> <i_f3d_flags>
0

> <s_epik_input>
W0NIM11jMVtjSF1jKG5vMSlbTkhdQyg9TylbTkhdW0NIMl1bQ0BIXShbQ0gzXSlOMltDSDJdW0NIMl1bQ0gyXVtDSDJdW0NASF0yW0NIM10=

> <s_epik_cmdline>
J2VwaWtfcHl0aG9uJywgJy1waCcsICc3LjAnLCAnLXRuJywgJzgnLCAnLW1hJywgJzIwMCcsICctbWV0YWxfYmluZGluZycsICctaW1hZScsICc8aW5maWxlLm1hZT4nLCAnLW9tYWUnLCAnPG91dGZpbGUubWFlPic=

> <r_epik_Ionization_Penalty>
6.7666

> <r_epik_Ionization_Penalty_Charging>
6.7666

> <r_epik_Ionization_Penalty_Neutral>
5.77131e-06

> <r_epik_State_Penalty>
6.79217

> <r_epik_Charging_Adjusted_Penalty>
13.5588

> <i_epik_Tot_Q>
0

> <i_epik_Tot_abs_Q>
2

> <r_epik_Metal_State_Penalty>
2.72569

> <b_epik_Metal_Only>
1

> <s_lp_Force_Field>
OPLS_2005

> <r_lp_Energy>
20.871

> <b_lp_Chiralities_Consistent>
1

> <s_lp_Variant>
AV-unprocessed.smi:1978-24

> <Gold.Version>
5.8.1

> <Gold.Id.Protein>
6NUR|6NUR_protein|mol2

> <Gold.PLP.Fitness>
39.9835

> <Gold.PLP.PLP>
-28.7591

> <Gold.PLP.part.hbond>
-5.3349

> <Gold.PLP.part.metal>
0.0000

> <Gold.PLP.part.buried>
-3.6616

> <Gold.PLP.part.nonpolar>
-19.9564

> <Gold.PLP.part.repulsive>
0.0904

> <Gold.PLP.ligand.clash>
0.0000

> <Gold.PLP.ligand.torsion>
0.9778

> <Gold.PLP.Chemscore.Hbond>
4.3031

> <Gold.PLP.Chemscore.CHOScore>
0.0000

> <Gold.PLP.Chemscore.Metal>
0.0000

> <Gold.Chemscore.Hbonds>
donor molecule, donor type, donor heavy atom, donor atom, acceptor molecule, acceptor atom, score
      L1  H    12    44       P1  7948  2.00
      P1  H  6896  6908       L1     7  1.00
      P1  H  6931  6943       L1    20  0.99
      P1  H  6934  6947       L1    20  0.23

> <Gold.PLP.Chemscore.Internal.Correction>
0.2707

> <Gold.Rescore>
     Score         DG    S(hbond)    S(metal)    S(lipo)     H(rot)  DE(clash)    DE(int)     intcor
     15.86     -18.31       2.94        0.00      58.93       1.52       0.33       2.12       ----

> <Gold.Chemscore.Fitness>
15.8575

> <Gold.Chemscore.DG>
-18.3088

> <Gold.Chemscore.ZeroCoef>
-5.4800

> <Gold.Chemscore.Hbond>
2.9408

> <Gold.Chemscore.Metal>
0.0000

> <Gold.Chemscore.Lipo>
58.9320

> <Gold.Chemscore.Internal_Hbond>
0.0000

> <Gold.Chemscore.DEClash>
0.3335

> <Gold.Chemscore.DEInternal>
2.1179

> <Gold.Chemscore.Rot>
1.5190

> <Gold.Chemscore.Internal.Correction>
   9.000000E+99

> <Gold.Chemscore.Hbonds>
donor molecule, donor type, donor heavy atom, donor atom, acceptor molecule, acceptor atom, score
      L1  H    12    44       P1  7948  0.96
      P1  H  6896  6908       L1     7  0.98
      P1  H  6931  6943       L1    20  0.52
      P1  H  6934  6947       L1    20  0.01

> <Gold.Chemscore.Hbond.Weighted>
-9.8224

> <Gold.Chemscore.Metal.Weighted>
-0.0000

> <Gold.Chemscore.Lipo.Weighted>
-6.8950

> <Gold.Chemscore.Internal_Hbond.Weighted>
0.0000

> <Gold.Chemscore.DEClash.Weighted>
0.3335

> <Gold.Chemscore.DEInternal.Weighted>
2.1179

> <Gold.Chemscore.Rot.Weighted>
3.8886

> <Gold.Chemscore.Internal.Correction.Weighted>
   9.000000E+99

> <Gold.Protein.RotatedTorsions>
[ 6907 6896 6895 6894 ] final  136.86 input  -60.11 | X-H torsion
[ 7974 7965 7964 7962 ] final   18.81 input  175.53 | X-H torsion
[ 8008 7997 7996 7995 ] final   71.82 input   59.86 | X-H torsion
[ 10167 10162 10161 10158 ] final   78.49 input  -65.29 | X-H torsion
[ 10718 10713 10712 10709 ] final   35.38 input   66.30 | X-H torsion
[ 10763 10752 10751 10750 ] final  -80.73 input  -60.55 | X-H torsion
[ 11005 11000 10999 10996 ] final  107.93 input  -57.11 | X-H torsion

> <Gold.Protein.ActiveResidues>
 VAL166  LYS551  ARG553  GLY616  TRP617  ASP618  TYR619  PRO620  LYS621  CYS622 
 ASP623  PHE694  ASN695  SER759  ASP760  ASP761  ALA762  ILE779  LEU786  VAL792 
 PHE793  MET794  SER795  GLU796  ALA797  LYS798  CYS799  TRP800  GLU811  SER814 

> <Gold.Protein.RotatedAtoms>
  152.2846  133.5503  159.5519 H   0  0  0  0  0  0  0  0  0  0  0  0  # atno 6907 bound_to 6896
  150.7210  134.0515  159.3809 H   0  0  0  0  0  0  0  0  0  0  0  0  # atno 6908 bound_to 6896
  151.8424  135.0586  160.0500 H   0  0  0  0  0  0  0  0  0  0  0  0  # atno 6909 bound_to 6896
  146.2172  139.8404  142.8642 H   0  0  0  0  0  0  0  0  0  0  0  0  # atno 7974 bound_to 7965
  155.7596  140.3487  155.5191 H   0  0  0  0  0  0  0  0  0  0  0  0  # atno 8008 bound_to 7997
  155.8927  140.1020  157.1428 H   0  0  0  0  0  0  0  0  0  0  0  0  # atno 8009 bound_to 7997
  154.4035  140.1301  156.4323 H   0  0  0  0  0  0  0  0  0  0  0  0  # atno 8010 bound_to 7997
  139.9704  144.5898  150.7990 H   0  0  0  0  0  0  0  0  0  0  0  0  # atno 10167 bound_to 10162
  157.3220  130.7453  149.6791 H   0  0  0  0  0  0  0  0  0  0  0  0  # atno 10718 bound_to 10713
  154.5548  135.5651  153.6954 H   0  0  0  0  0  0  0  0  0  0  0  0  # atno 10763 bound_to 10752
  153.0000  135.6259  154.2325 H   0  0  0  0  0  0  0  0  0  0  0  0  # atno 10764 bound_to 10752
  154.2261  135.2867  155.2887 H   0  0  0  0  0  0  0  0  0  0  0  0  # atno 10765 bound_to 10752
  139.8836  134.9415  156.5895 H   0  0  0  0  0  0  0  0  0  0  0  0  # atno 11005 bound_to 11000
  145.2905  141.0166  143.3666 LP  0  0  0  0  0  0  0  0  0  0  0  0  # atno 17320 bound_to 7965
  144.9081  139.4563  143.6600 LP  0  0  0  0  0  0  0  0  0  0  0  0  # atno 17321 bound_to 7965
  140.7524  143.2989  151.3132 LP  0  0  0  0  0  0  0  0  0  0  0  0  # atno 17342 bound_to 10162
  139.6485  144.0406  152.2609 LP  0  0  0  0  0  0  0  0  0  0  0  0  # atno 17343 bound_to 10162
  155.9687  130.4220  150.4497 LP  0  0  0  0  0  0  0  0  0  0  0  0  # atno 17370 bound_to 10713
  157.2514  131.0547  151.2377 LP  0  0  0  0  0  0  0  0  0  0  0  0  # atno 17371 bound_to 10713
  140.7966  133.8539  155.8691 LP  0  0  0  0  0  0  0  0  0  0  0  0  # atno 17394 bound_to 11000
  140.9630  134.1631  157.4639 LP  0  0  0  0  0  0  0  0  0  0  0  0  # atno 17395 bound_to 11000

$$$$
