AV-unprocessed.smi:1798|AV-procd|sdf|7259|dock3
  -GOLD-   22720 8513D 1   1.00000     0.00000
 Structure written by MMmdl.
 40 41  0  0  0  0  0  0  0  0  3 V2000
  151.6229  145.5931  160.0434 C   0  0  0  0  0  0  0  0  0  0  0  0
  152.1214  144.3181  159.3483 C   0  0  2  0  0  0  0  0  0  0  0  0
  151.0823  143.7795  158.3465 C   0  0  0  0  0  0  0  0  0  0  0  0
  151.5755  142.5007  157.6503 C   0  0  0  0  0  0  0  0  0  0  0  0
  151.9547  141.4117  158.6742 C   0  0  1  0  0  0  0  0  0  0  0  0
  152.4901  140.2332  157.9992 N   0  0  0  0  0  0  0  0  0  0  0  0
  153.1461  139.2274  158.5975 C   0  0  0  0  0  0  0  0  0  0  0  0
  153.3559  139.1851  159.8107 O   0  0  0  0  0  0  0  0  0  0  0  0
  153.6137  138.0904  157.6774 C   0  0  0  0  0  0  0  0  0  0  0  0
  152.6098  137.7054  156.6710 N   0  0  0  0  0  0  0  0  0  0  0  0
  151.7800  136.6094  156.9801 C   0  0  0  0  0  0  0  0  0  0  0  0
  150.8320  136.1670  156.1309 C   0  0  0  0  0  0  0  0  0  0  0  0
  149.9928  135.0365  156.4627 N   0  3  0  0  0  0  0  0  0  0  0  0
  149.3345  134.5108  155.5708 O   0  0  0  0  0  0  0  0  0  0  0  0
  149.9622  134.6376  157.6231 O   0  5  0  0  0  0  0  0  0  0  0  0
  150.6826  136.8612  154.8664 C   0  0  0  0  0  0  0  0  0  0  0  0
  151.4754  137.9079  154.5634 C   0  0  0  0  0  0  0  0  0  0  0  0
  152.5089  138.3853  155.4879 C   0  0  0  0  0  0  0  0  0  0  0  0
  153.2392  139.3380  155.2152 O   0  0  0  0  0  0  0  0  0  0  0  0
  152.9919  141.9483  159.6772 C   0  0  0  0  0  0  0  0  0  0  0  0
  152.4953  143.2277  160.3705 C   0  0  0  0  0  0  0  0  0  0  0  0
  150.7215  145.4006  160.6261 H   0  0  0  0  0  0  0  0  0  0  0  0
  151.3896  146.3712  159.3162 H   0  0  0  0  0  0  0  0  0  0  0  0
  152.3785  145.9921  160.7205 H   0  0  0  0  0  0  0  0  0  0  0  0
  153.0222  144.5792  158.7909 H   0  0  0  0  0  0  0  0  0  0  0  0
  150.1446  143.5713  158.8638 H   0  0  0  0  0  0  0  0  0  0  0  0
  150.8580  144.5389  157.5967 H   0  0  0  0  0  0  0  0  0  0  0  0
  150.8013  142.1325  156.9762 H   0  0  0  0  0  0  0  0  0  0  0  0
  152.4388  142.7387  157.0272 H   0  0  0  0  0  0  0  0  0  0  0  0
  151.0612  141.1259  159.2331 H   0  0  0  0  0  0  0  0  0  0  0  0
  152.3557  140.1823  156.9997 H   0  0  0  0  0  0  0  0  0  0  0  0
  154.5393  138.4051  157.1934 H   0  0  0  0  0  0  0  0  0  0  0  0
  153.8901  137.2248  158.2825 H   0  0  0  0  0  0  0  0  0  0  0  0
  151.9753  136.1562  157.9413 H   0  0  0  0  0  0  0  0  0  0  0  0
  149.9348  136.5468  154.1534 H   0  0  0  0  0  0  0  0  0  0  0  0
  151.3480  138.4097  153.6156 H   0  0  0  0  0  0  0  0  0  0  0  0
  153.2139  141.1884  160.4273 H   0  0  0  0  0  0  0  0  0  0  0  0
  153.9309  142.1587  159.1629 H   0  0  0  0  0  0  0  0  0  0  0  0
  153.2667  143.5980  161.0464 H   0  0  0  0  0  0  0  0  0  0  0  0
  151.6300  142.9910  160.9914 H   0  0  0  0  0  0  0  0  0  0  0  0
  1  2  1  0  0  0  0
  1 22  1  0  0  0  0
  1 23  1  0  0  0  0
  1 24  1  0  0  0  0
  2 21  1  0  0  0  0
  2  3  1  0  0  0  0
  2 25  1  0  0  0  0
  3  4  1  0  0  0  0
  3 26  1  0  0  0  0
  3 27  1  0  0  0  0
  4  5  1  0  0  0  0
  4 28  1  0  0  0  0
  4 29  1  0  0  0  0
  5  6  1  0  0  0  0
  5 20  1  0  0  0  0
  5 30  1  0  0  0  0
  6  7  1  0  0  0  0
  6 31  1  0  0  0  0
  7  8  2  0  0  0  0
  7  9  1  0  0  0  0
  9 10  1  0  0  0  0
  9 32  1  0  0  0  0
  9 33  1  0  0  0  0
 10 18  1  0  0  0  0
 10 11  1  0  0  0  0
 11 12  2  0  0  0  0
 11 34  1  0  0  0  0
 12 13  1  0  0  0  0
 12 16  1  0  0  0  0
 13 14  2  0  0  0  0
 13 15  1  0  0  0  0
 16 17  2  0  0  0  0
 16 35  1  0  0  0  0
 17 18  1  0  0  0  0
 17 36  1  0  0  0  0
 18 19  2  0  0  0  0
 20 21  1  0  0  0  0
 20 37  1  0  0  0  0
 20 38  1  0  0  0  0
 21 39  1  0  0  0  0
 21 40  1  0  0  0  0
M  CHG  1  13   1
M  CHG  1  15  -1
M  END
> <s_m_source_file>
AV-unprocessed.smi

> <i_m_source_file_index>
1798

> <i_lp_mmshare_version>
43012

> <i_f3d_flags>
0

> <s_epik_input>
W0NIM11bQ0BASF0xW0NIMl1bQ0gyXVtDQEhdKFtDSDJdW0NIMl0xKVtOSF1DKD1PKVtDSDJdbjJbY0hdYyhbTitdKD1PKVtPLV0pW2NIXVtjSF1jMj1P

> <s_epik_cmdline>
J2VwaWtfcHl0aG9uJywgJy1waCcsICc3LjAnLCAnLXRuJywgJzgnLCAnLW1hJywgJzIwMCcsICctbWV0YWxfYmluZGluZycsICctaW1hZScsICc8aW5maWxlLm1hZT4nLCAnLW9tYWUnLCAnPG91dGZpbGUubWFlPic=

> <r_lp_tautomer_probability>
1

> <r_epik_Ionization_Penalty>
1.91292e-08

> <r_epik_Ionization_Penalty_Charging>
8.23013e-11

> <r_epik_Ionization_Penalty_Neutral>
1.90469e-08

> <r_epik_State_Penalty>
-0

> <r_epik_Charging_Adjusted_Penalty>
8.23013e-11

> <i_epik_Tot_Q>
0

> <i_epik_Tot_abs_Q>
2

> <r_epik_Metal_State_Penalty>
-0

> <b_epik_Metal_Only>
0

> <s_lp_Force_Field>
OPLS_2005

> <r_lp_Energy>
19.9033

> <b_lp_Chiralities_Consistent>
1

> <s_lp_Variant>
AV-unprocessed.smi:1798-1

> <Gold.Version>
5.8.1

> <Gold.Id.Protein>
6NUR|6NUR_protein|mol2

> <Gold.PLP.Fitness>
44.0701

> <Gold.PLP.PLP>
-40.0702

> <Gold.PLP.part.hbond>
-2.0000

> <Gold.PLP.part.metal>
0.0000

> <Gold.PLP.part.buried>
-6.1973

> <Gold.PLP.part.nonpolar>
-32.3738

> <Gold.PLP.part.repulsive>
0.1686

> <Gold.PLP.ligand.clash>
0.0000

> <Gold.PLP.ligand.torsion>
0.8492

> <Gold.PLP.Chemscore.Hbond>
1.8960

> <Gold.PLP.Chemscore.CHOScore>
0.0000

> <Gold.PLP.Chemscore.Metal>
0.0000

> <Gold.Chemscore.Hbonds>
donor molecule, donor type, donor heavy atom, donor atom, acceptor molecule, acceptor atom, score
      P1  H  6896  6908       L1    15  0.88
      P1  H  7997  8010       L1    19  1.00

> <Gold.PLP.Chemscore.Internal.Correction>
0.0103

> <Gold.Rescore>
     Score         DG    S(hbond)    S(metal)    S(lipo)     H(rot)  DE(clash)    DE(int)     intcor
     17.65     -19.86       1.97        0.00     100.44       1.55       0.00       2.21       ----

> <Gold.Chemscore.Fitness>
17.6471

> <Gold.Chemscore.DG>
-19.8578

> <Gold.Chemscore.ZeroCoef>
-5.4800

> <Gold.Chemscore.Hbond>
1.9748

> <Gold.Chemscore.Metal>
0.0000

> <Gold.Chemscore.Lipo>
100.4356

> <Gold.Chemscore.Internal_Hbond>
0.0000

> <Gold.Chemscore.DEClash>
0.0021

> <Gold.Chemscore.DEInternal>
2.2086

> <Gold.Chemscore.Rot>
1.5505

> <Gold.Chemscore.Internal.Correction>
   9.000000E+99

> <Gold.Chemscore.Hbonds>
donor molecule, donor type, donor heavy atom, donor atom, acceptor molecule, acceptor atom, score
      P1  H  6896  6908       L1    15  0.86
      P1  H  7997  8010       L1    19  0.97

> <Gold.Chemscore.Hbond.Weighted>
-6.5960

> <Gold.Chemscore.Metal.Weighted>
-0.0000

> <Gold.Chemscore.Lipo.Weighted>
-11.7510

> <Gold.Chemscore.Internal_Hbond.Weighted>
0.0000

> <Gold.Chemscore.DEClash.Weighted>
0.0021

> <Gold.Chemscore.DEInternal.Weighted>
2.2086

> <Gold.Chemscore.Rot.Weighted>
3.9692

> <Gold.Chemscore.Internal.Correction.Weighted>
   9.000000E+99

> <Gold.Protein.RotatedTorsions>
[ 6907 6896 6895 6894 ] final  140.56 input  -60.11 | X-H torsion
[ 7974 7965 7964 7962 ] final  -18.34 input  175.53 | X-H torsion
[ 8008 7997 7996 7995 ] final  117.28 input   59.86 | X-H torsion
[ 10167 10162 10161 10158 ] final  -17.74 input  -65.29 | X-H torsion
[ 10718 10713 10712 10709 ] final  176.30 input   66.30 | X-H torsion
[ 10763 10752 10751 10750 ] final  -28.60 input  -60.55 | X-H torsion
[ 11005 11000 10999 10996 ] final  167.45 input  -57.11 | X-H torsion

> <Gold.Protein.ActiveResidues>
 VAL166  LYS551  ARG553  GLY616  TRP617  ASP618  TYR619  PRO620  LYS621  CYS622 
 ASP623  PHE694  ASN695  SER759  ASP760  ASP761  ALA762  ILE779  LEU786  VAL792 
 PHE793  MET794  SER795  GLU796  ALA797  LYS798  CYS799  TRP800  GLU811  SER814 

> <Gold.Protein.RotatedAtoms>
  152.2416  133.5140  159.5272 H   0  0  0  0  0  0  0  0  0  0  0  0  # atno 6907 bound_to 6896
  150.7066  134.1082  159.3999 H   0  0  0  0  0  0  0  0  0  0  0  0  # atno 6908 bound_to 6896
  151.9002  135.0381  160.0556 H   0  0  0  0  0  0  0  0  0  0  0  0  # atno 6909 bound_to 6896
  146.1897  140.3907  142.8463 H   0  0  0  0  0  0  0  0  0  0  0  0  # atno 7974 bound_to 7965
  156.2486  140.2899  156.0655 H   0  0  0  0  0  0  0  0  0  0  0  0  # atno 8008 bound_to 7997
  155.1729  140.0402  157.2884 H   0  0  0  0  0  0  0  0  0  0  0  0  # atno 8009 bound_to 7997
  154.6313  140.2500  155.7437 H   0  0  0  0  0  0  0  0  0  0  0  0  # atno 8010 bound_to 7997
  140.7251  143.4985  150.9900 H   0  0  0  0  0  0  0  0  0  0  0  0  # atno 10167 bound_to 10162
  156.9222  130.9944  151.3002 H   0  0  0  0  0  0  0  0  0  0  0  0  # atno 10718 bound_to 10713
  153.7509  135.6926  153.4946 H   0  0  0  0  0  0  0  0  0  0  0  0  # atno 10763 bound_to 10752
  153.2004  135.4439  155.0258 H   0  0  0  0  0  0  0  0  0  0  0  0  # atno 10764 bound_to 10752
  154.8187  135.3411  154.7030 H   0  0  0  0  0  0  0  0  0  0  0  0  # atno 10765 bound_to 10752
  140.2769  134.7782  157.3724 H   0  0  0  0  0  0  0  0  0  0  0  0  # atno 11005 bound_to 11000
  144.8463  140.6934  143.6197 LP  0  0  0  0  0  0  0  0  0  0  0  0  # atno 17320 bound_to 7965
  145.3831  139.1632  143.4269 LP  0  0  0  0  0  0  0  0  0  0  0  0  # atno 17321 bound_to 7965
  139.8693  143.7213  152.3167 LP  0  0  0  0  0  0  0  0  0  0  0  0  # atno 17342 bound_to 10162
  139.7456  144.7548  151.0585 LP  0  0  0  0  0  0  0  0  0  0  0  0  # atno 17343 bound_to 10162
  157.5900  130.8437  149.8646 LP  0  0  0  0  0  0  0  0  0  0  0  0  # atno 17370 bound_to 10713
  156.0486  130.3722  150.1257 LP  0  0  0  0  0  0  0  0  0  0  0  0  # atno 17371 bound_to 10713
  140.1320  134.5083  155.8098 LP  0  0  0  0  0  0  0  0  0  0  0  0  # atno 17394 bound_to 11000
  141.2169  133.6793  156.7056 LP  0  0  0  0  0  0  0  0  0  0  0  0  # atno 17395 bound_to 11000

$$$$
