AV-unprocessed.smi:1556|AV-procd|sdf|6269|dock4
  -GOLD-   22720 6463D 1   1.00000     0.00000
 Structure written by MMmdl.
 37 38  0  0  0  0  0  0  0  0  1 V2000
  144.1155  132.4027  148.8426 C   0  0  0  0  0  0  0  0  0  0  0  0
  144.6894  132.6565  150.1466 N   0  0  0  0  0  0  0  0  0  0  0  0
  145.9353  132.3073  150.6206 C   0  0  0  0  0  0  0  0  0  0  0  0
  146.0412  132.7945  151.8928 C   0  0  0  0  0  0  0  0  0  0  0  0
  147.2195  132.7245  152.8297 C   0  0  0  0  0  0  0  0  0  0  0  0
  147.0579  133.6480  154.0541 C   0  0  0  0  0  0  0  0  0  0  0  0
  147.9214  134.8222  153.9809 N   0  0  0  0  0  0  0  0  0  0  0  0
  148.6379  135.3218  155.0008 C   0  0  0  0  0  0  0  0  0  0  0  0
  148.5551  134.9061  156.1548 O   0  0  0  0  0  0  0  0  0  0  0  0
  149.4766  136.3174  154.6621 N   0  0  0  0  0  0  0  0  0  0  0  0
  150.3878  137.0680  155.5291 C   0  0  1  0  0  0  0  0  0  0  0  0
  151.3117  136.1125  156.3076 C   0  0  0  0  0  0  0  0  0  0  0  0
  152.4692  136.9212  156.9047 C   0  0  0  0  0  0  0  0  0  0  0  0
  152.7935  138.2856  155.7258 S   0  0  0  0  0  0  0  0  0  0  0  0
  152.7079  139.5676  156.4412 O   0  0  0  0  0  0  0  0  0  0  0  0
  153.9642  137.9558  154.8991 O   0  0  0  0  0  0  0  0  0  0  0  0
  151.2773  138.0385  154.7306 C   0  0  0  0  0  0  0  0  0  0  0  0
  144.7791  133.4154  152.1151 C   0  0  0  0  0  0  0  0  0  0  0  0
  143.9752  133.3355  151.0674 N   0  0  0  0  0  0  0  0  0  0  0  0
  144.7446  131.7072  148.2865 H   0  0  0  0  0  0  0  0  0  0  0  0
  144.0439  133.3378  148.2862 H   0  0  0  0  0  0  0  0  0  0  0  0
  143.1199  131.9712  148.9509 H   0  0  0  0  0  0  0  0  0  0  0  0
  146.6459  131.7666  150.0129 H   0  0  0  0  0  0  0  0  0  0  0  0
  147.3775  131.7023  153.1737 H   0  0  0  0  0  0  0  0  0  0  0  0
  148.1353  132.9972  152.3037 H   0  0  0  0  0  0  0  0  0  0  0  0
  146.0299  134.0081  154.1008 H   0  0  0  0  0  0  0  0  0  0  0  0
  147.2339  133.0969  154.9792 H   0  0  0  0  0  0  0  0  0  0  0  0
  148.0437  135.2378  153.0690 H   0  0  0  0  0  0  0  0  0  0  0  0
  149.4481  136.6151  153.6973 H   0  0  0  0  0  0  0  0  0  0  0  0
  149.8114  137.6380  156.2600 H   0  0  0  0  0  0  0  0  0  0  0  0
  150.7700  135.5619  157.0775 H   0  0  0  0  0  0  0  0  0  0  0  0
  151.7253  135.3734  155.6196 H   0  0  0  0  0  0  0  0  0  0  0  0
  152.1788  137.3631  157.8581 H   0  0  0  0  0  0  0  0  0  0  0  0
  153.3718  136.3289  157.0554 H   0  0  0  0  0  0  0  0  0  0  0  0
  151.5757  137.6093  153.7737 H   0  0  0  0  0  0  0  0  0  0  0  0
  150.7997  139.0006  154.5467 H   0  0  0  0  0  0  0  0  0  0  0  0
  144.4322  133.9332  152.9972 H   0  0  0  0  0  0  0  0  0  0  0  0
  1  2  1  0  0  0  0
  1 20  1  0  0  0  0
  1 21  1  0  0  0  0
  1 22  1  0  0  0  0
  2 19  1  0  0  0  0
  2  3  1  0  0  0  0
  3  4  2  0  0  0  0
  3 23  1  0  0  0  0
  4  5  1  0  0  0  0
  4 18  1  0  0  0  0
  5  6  1  0  0  0  0
  5 24  1  0  0  0  0
  5 25  1  0  0  0  0
  6  7  1  0  0  0  0
  6 26  1  0  0  0  0
  6 27  1  0  0  0  0
  7  8  1  0  0  0  0
  7 28  1  0  0  0  0
  8  9  2  0  0  0  0
  8 10  1  0  0  0  0
 10 11  1  0  0  0  0
 10 29  1  0  0  0  0
 11 17  1  0  0  0  0
 11 12  1  0  0  0  0
 11 30  1  0  0  0  0
 12 13  1  0  0  0  0
 12 31  1  0  0  0  0
 12 32  1  0  0  0  0
 13 14  1  0  0  0  0
 13 33  1  0  0  0  0
 13 34  1  0  0  0  0
 14 15  2  0  0  0  0
 14 16  2  0  0  0  0
 14 17  1  0  0  0  0
 17 35  1  0  0  0  0
 17 36  1  0  0  0  0
 18 19  2  0  0  0  0
 18 37  1  0  0  0  0
M  END
> <s_m_source_file>
AV-unprocessed.smi

> <i_m_source_file_index>
1556

> <i_lp_mmshare_version>
43012

> <i_f3d_flags>
0

> <s_epik_input>
W0NIM11uMVtjSF1jKFtjSF1uMSlbQ0gyXVtDSDJdW05IXUMoPU8pW05IXVtDQEBIXShbQ0gyXTIpW0NIMl1bQ0gyXVMyKD1PKT1P

> <s_epik_cmdline>
J2VwaWtfcHl0aG9uJywgJy1waCcsICc3LjAnLCAnLXRuJywgJzgnLCAnLW1hJywgJzIwMCcsICctbWV0YWxfYmluZGluZycsICctaW1hZScsICc8aW5maWxlLm1hZT4nLCAnLW9tYWUnLCAnPG91dGZpbGUubWFlPic=

> <r_lp_tautomer_probability>
1

> <r_epik_Ionization_Penalty>
0.000530192

> <r_epik_Ionization_Penalty_Charging>
0

> <r_epik_Ionization_Penalty_Neutral>
0.000530192

> <r_epik_State_Penalty>
-0

> <r_epik_Charging_Adjusted_Penalty>
0

> <i_epik_Tot_Q>
0

> <i_epik_Tot_abs_Q>
0

> <r_epik_Metal_State_Penalty>
-0

> <b_epik_Metal_Only>
0

> <s_lp_Force_Field>
OPLS_2005

> <r_lp_Energy>
7.70197

> <b_lp_Chiralities_Consistent>
1

> <s_lp_Variant>
AV-unprocessed.smi:1556-2

> <Gold.Version>
5.8.1

> <Gold.Id.Protein>
6NUR|6NUR_protein|mol2

> <Gold.PLP.Fitness>
40.4015

> <Gold.PLP.PLP>
-29.7121

> <Gold.PLP.part.hbond>
-4.4478

> <Gold.PLP.part.metal>
0.0000

> <Gold.PLP.part.buried>
-5.4463

> <Gold.PLP.part.nonpolar>
-21.2434

> <Gold.PLP.part.repulsive>
0.2293

> <Gold.PLP.ligand.clash>
0.0000

> <Gold.PLP.ligand.torsion>
0.5983

> <Gold.PLP.Chemscore.Hbond>
2.9600

> <Gold.PLP.Chemscore.CHOScore>
1.0000

> <Gold.PLP.Chemscore.Metal>
0.0000

> <Gold.Chemscore.Hbonds>
donor molecule, donor type, donor heavy atom, donor atom, acceptor molecule, acceptor atom, score
      L1  H     7    28       P1  7948  1.00
      L1  H    10    29       P1  7948  0.98
      P1  H  7997  8008       L1    15  1.00
      L1  C     3    23       P1 10747  1.00

> <Gold.PLP.Chemscore.Internal.Correction>
0.0060

> <Gold.Rescore>
     Score         DG    S(hbond)    S(metal)    S(lipo)     H(rot)  DE(clash)    DE(int)     intcor
     15.30     -17.09       2.71        0.00      61.63       1.82       0.05       1.74       ----

> <Gold.Chemscore.Fitness>
15.2994

> <Gold.Chemscore.DG>
-17.0929

> <Gold.Chemscore.ZeroCoef>
-5.4800

> <Gold.Chemscore.Hbond>
2.7145

> <Gold.Chemscore.Metal>
0.0000

> <Gold.Chemscore.Lipo>
61.6291

> <Gold.Chemscore.Internal_Hbond>
0.0000

> <Gold.Chemscore.DEClash>
0.0530

> <Gold.Chemscore.DEInternal>
1.7405

> <Gold.Chemscore.Rot>
1.8220

> <Gold.Chemscore.Internal.Correction>
   9.000000E+99

> <Gold.Chemscore.Hbonds>
donor molecule, donor type, donor heavy atom, donor atom, acceptor molecule, acceptor atom, score
      L1  H     7    28       P1  7948  0.96
      L1  H    10    29       P1  7948  0.79
      P1  H  7997  8008       L1    15  0.30

> <Gold.Chemscore.Hbond.Weighted>
-9.0665

> <Gold.Chemscore.Metal.Weighted>
-0.0000

> <Gold.Chemscore.Lipo.Weighted>
-7.2106

> <Gold.Chemscore.Internal_Hbond.Weighted>
0.0000

> <Gold.Chemscore.DEClash.Weighted>
0.0530

> <Gold.Chemscore.DEInternal.Weighted>
1.7405

> <Gold.Chemscore.Rot.Weighted>
4.6642

> <Gold.Chemscore.Internal.Correction.Weighted>
   9.000000E+99

> <Gold.Protein.RotatedTorsions>
[ 6907 6896 6895 6894 ] final -139.66 input  -60.11 | X-H torsion
[ 7974 7965 7964 7962 ] final -169.97 input  175.53 | X-H torsion
[ 8008 7997 7996 7995 ] final  -38.75 input   59.86 | X-H torsion
[ 10167 10162 10161 10158 ] final   33.14 input  -65.29 | X-H torsion
[ 10718 10713 10712 10709 ] final  -66.65 input   66.30 | X-H torsion
[ 10763 10752 10751 10750 ] final  -18.65 input  -60.55 | X-H torsion
[ 11005 11000 10999 10996 ] final -179.13 input  -57.11 | X-H torsion

> <Gold.Protein.ActiveResidues>
 VAL166  LYS551  ARG553  GLY616  TRP617  ASP618  TYR619  PRO620  LYS621  CYS622 
 ASP623  PHE694  ASN695  SER759  ASP760  ASP761  ALA762  ILE779  LEU786  VAL792 
 PHE793  MET794  SER795  GLU796  ALA797  LYS798  CYS799  TRP800  GLU811  SER814 

> <Gold.Protein.RotatedAtoms>
  151.0506  133.5627  159.2642 H   0  0  0  0  0  0  0  0  0  0  0  0  # atno 6907 bound_to 6896
  151.2639  135.0662  159.9118 H   0  0  0  0  0  0  0  0  0  0  0  0  # atno 6908 bound_to 6896
  152.5381  134.0248  159.8052 H   0  0  0  0  0  0  0  0  0  0  0  0  # atno 6909 bound_to 6896
  144.7177  140.2142  143.6324 H   0  0  0  0  0  0  0  0  0  0  0  0  # atno 7974 bound_to 7965
  154.4032  140.1569  156.2751 H   0  0  0  0  0  0  0  0  0  0  0  0  # atno 8008 bound_to 7997
  155.8919  140.3438  155.5940 H   0  0  0  0  0  0  0  0  0  0  0  0  # atno 8009 bound_to 7997
  155.7548  140.0809  157.2174 H   0  0  0  0  0  0  0  0  0  0  0  0  # atno 8010 bound_to 7997
  140.4435  144.1153  150.6178 H   0  0  0  0  0  0  0  0  0  0  0  0  # atno 10167 bound_to 10162
  156.0600  130.4265  150.1740 H   0  0  0  0  0  0  0  0  0  0  0  0  # atno 10718 bound_to 10713
  153.5926  135.7002  153.5417 H   0  0  0  0  0  0  0  0  0  0  0  0  # atno 10763 bound_to 10752
  153.3165  135.4086  155.1380 H   0  0  0  0  0  0  0  0  0  0  0  0  # atno 10764 bound_to 10752
  154.8597  135.3685  154.5459 H   0  0  0  0  0  0  0  0  0  0  0  0  # atno 10765 bound_to 10752
  140.4221  134.6596  157.4669 H   0  0  0  0  0  0  0  0  0  0  0  0  # atno 11005 bound_to 11000
  145.8562  139.2200  143.1743 LP  0  0  0  0  0  0  0  0  0  0  0  0  # atno 17320 bound_to 7965
  146.0215  140.8343  142.9921 LP  0  0  0  0  0  0  0  0  0  0  0  0  # atno 17321 bound_to 7965
  140.4291  143.2576  151.9618 LP  0  0  0  0  0  0  0  0  0  0  0  0  # atno 17342 bound_to 10162
  139.4791  144.5760  151.8010 LP  0  0  0  0  0  0  0  0  0  0  0  0  # atno 17343 bound_to 10162
  156.9810  130.9864  151.3437 LP  0  0  0  0  0  0  0  0  0  0  0  0  # atno 17370 bound_to 10713
  157.5602  130.8240  149.8256 LP  0  0  0  0  0  0  0  0  0  0  0  0  # atno 17371 bound_to 10713
  140.0193  134.6571  155.9263 LP  0  0  0  0  0  0  0  0  0  0  0  0  # atno 17394 bound_to 11000
  141.1780  133.6542  156.4905 LP  0  0  0  0  0  0  0  0  0  0  0  0  # atno 17395 bound_to 11000

$$$$
