AV-unprocessed.smi:2739|AV-procd|sdf|10553|dock8
  -GOLD-   2272015 03D 1   1.00000     0.00000
 Structure written by MMmdl.
 35 35  0  0  0  0  0  0  0  0  1 V2000
  153.0904  142.8919  160.2596 C   0  0  0  0  0  0  0  0  0  0  0  0
  152.5762  143.0992  158.8276 C   0  0  0  0  0  0  0  0  0  0  0  0
  151.1746  143.7339  158.7593 C   0  0  1  0  0  0  0  0  0  0  0  0
  151.2353  145.2588  158.9428 C   0  0  0  0  0  0  0  0  0  0  0  0
  150.5376  143.4129  157.4848 N   0  0  0  0  0  0  0  0  0  0  0  0
  150.4665  142.1908  156.9329 C   0  0  0  0  0  0  0  0  0  0  0  0
  150.9632  141.1858  157.4405 O   0  0  0  0  0  0  0  0  0  0  0  0
  149.7178  142.0858  155.6030 C   0  0  0  0  0  0  0  0  0  0  0  0
  149.8081  140.7448  155.0526 N   0  0  0  0  0  0  0  0  0  0  0  0
  148.7886  139.9261  154.6162 C   0  0  0  0  0  0  0  0  0  0  0  0
  149.3573  138.7558  154.2031 C   0  0  0  0  0  0  0  0  0  0  0  0
  150.7518  138.9509  154.4247 C   0  0  0  0  0  0  0  0  0  0  0  0
  151.8879  137.9944  154.1715 C   0  0  1  0  0  0  0  0  0  0  0  0
  153.2298  138.5861  154.6243 C   0  0  0  0  0  0  0  0  0  0  0  0
  151.7027  136.7598  154.8328 O   0  0  0  0  0  0  0  0  0  0  0  0
  151.0130  140.1472  154.9316 N   0  0  0  0  0  0  0  0  0  0  0  0
  154.1004  142.4818  160.2515 H   0  0  0  0  0  0  0  0  0  0  0  0
  152.4594  142.1999  160.8177 H   0  0  0  0  0  0  0  0  0  0  0  0
  153.1195  143.8347  160.8065 H   0  0  0  0  0  0  0  0  0  0  0  0
  153.2834  143.7358  158.2945 H   0  0  0  0  0  0  0  0  0  0  0  0
  152.5753  142.1427  158.3029 H   0  0  0  0  0  0  0  0  0  0  0  0
  150.5796  143.3162  159.5736 H   0  0  0  0  0  0  0  0  0  0  0  0
  151.6944  145.5208  159.8963 H   0  0  0  0  0  0  0  0  0  0  0  0
  150.2376  145.6990  158.9287 H   0  0  0  0  0  0  0  0  0  0  0  0
  151.8184  145.7312  158.1514 H   0  0  0  0  0  0  0  0  0  0  0  0
  150.1017  144.1783  156.9916 H   0  0  0  0  0  0  0  0  0  0  0  0
  148.6671  142.3403  155.7487 H   0  0  0  0  0  0  0  0  0  0  0  0
  150.1245  142.7978  154.8829 H   0  0  0  0  0  0  0  0  0  0  0  0
  147.7550  140.2386  154.6414 H   0  0  0  0  0  0  0  0  0  0  0  0
  148.8526  137.8872  153.8066 H   0  0  0  0  0  0  0  0  0  0  0  0
  151.9469  137.7758  153.1044 H   0  0  0  0  0  0  0  0  0  0  0  0
  153.4456  139.5166  154.0980 H   0  0  0  0  0  0  0  0  0  0  0  0
  154.0516  137.8979  154.4245 H   0  0  0  0  0  0  0  0  0  0  0  0
  153.2275  138.8026  155.6933 H   0  0  0  0  0  0  0  0  0  0  0  0
  150.9437  136.3348  154.4636 H   0  0  0  0  0  0  0  0  0  0  0  0
  1  2  1  0  0  0  0
  1 17  1  0  0  0  0
  1 18  1  0  0  0  0
  1 19  1  0  0  0  0
  2  3  1  0  0  0  0
  2 20  1  0  0  0  0
  2 21  1  0  0  0  0
  3  4  1  0  0  0  0
  3  5  1  0  0  0  0
  3 22  1  0  0  0  0
  4 23  1  0  0  0  0
  4 24  1  0  0  0  0
  4 25  1  0  0  0  0
  5  6  1  0  0  0  0
  5 26  1  0  0  0  0
  6  7  2  0  0  0  0
  6  8  1  0  0  0  0
  8  9  1  0  0  0  0
  8 27  1  0  0  0  0
  8 28  1  0  0  0  0
  9 16  1  0  0  0  0
  9 10  1  0  0  0  0
 10 11  2  0  0  0  0
 10 29  1  0  0  0  0
 11 12  1  0  0  0  0
 11 30  1  0  0  0  0
 12 13  1  0  0  0  0
 12 16  2  0  0  0  0
 13 14  1  0  0  0  0
 13 15  1  0  0  0  0
 13 31  1  0  0  0  0
 14 32  1  0  0  0  0
 14 33  1  0  0  0  0
 14 34  1  0  0  0  0
 15 35  1  0  0  0  0
M  END
> <s_m_source_file>
AV-unprocessed.smi

> <i_m_source_file_index>
2739

> <i_lp_mmshare_version>
43012

> <i_f3d_flags>
0

> <s_epik_input>
W0NIM11bQ0gyXVtDQEhdKFtDSDNdKVtOSF1DKD1PKVtDSDJdbjFbY0hdW2NIXWMobjEpW0NASF0oW0NIM10pW09IXQ==

> <s_epik_cmdline>
J2VwaWtfcHl0aG9uJywgJy1waCcsICc3LjAnLCAnLXRuJywgJzgnLCAnLW1hJywgJzIwMCcsICctbWV0YWxfYmluZGluZycsICctaW1hZScsICc8aW5maWxlLm1hZT4nLCAnLW9tYWUnLCAnPG91dGZpbGUubWFlPic=

> <r_lp_tautomer_probability>
1

> <r_epik_Ionization_Penalty>
5.22246e-06

> <r_epik_Ionization_Penalty_Charging>
0

> <r_epik_Ionization_Penalty_Neutral>
5.22246e-06

> <r_epik_State_Penalty>
-0

> <r_epik_Charging_Adjusted_Penalty>
0

> <i_epik_Tot_Q>
0

> <i_epik_Tot_abs_Q>
0

> <r_epik_Metal_State_Penalty>
-0

> <b_epik_Metal_Only>
0

> <s_lp_Force_Field>
OPLS_2005

> <r_lp_Energy>
1.19937

> <b_lp_Chiralities_Consistent>
1

> <s_lp_Variant>
AV-unprocessed.smi:2739-4

> <Gold.Version>
5.8.1

> <Gold.Id.Protein>
6NUR|6NUR_protein|mol2

> <Gold.PLP.Fitness>
45.3668

> <Gold.PLP.PLP>
-37.3268

> <Gold.PLP.part.hbond>
-3.0000

> <Gold.PLP.part.metal>
0.0000

> <Gold.PLP.part.buried>
-2.0082

> <Gold.PLP.part.nonpolar>
-33.1938

> <Gold.PLP.part.repulsive>
0.0848

> <Gold.PLP.ligand.clash>
0.0000

> <Gold.PLP.ligand.torsion>
0.4394

> <Gold.PLP.Chemscore.Hbond>
2.9600

> <Gold.PLP.Chemscore.CHOScore>
0.0000

> <Gold.PLP.Chemscore.Metal>
0.0000

> <Gold.Chemscore.Hbonds>
donor molecule, donor type, donor heavy atom, donor atom, acceptor molecule, acceptor atom, score
      L1  H     5    26       P1  8028  0.98
      P1  H  7989  7998       L1    16  0.90
      P1  H 10752 10765       L1    15  1.00

> <Gold.PLP.Chemscore.Internal.Correction>
0.0387

> <Gold.Rescore>
     Score         DG    S(hbond)    S(metal)    S(lipo)     H(rot)  DE(clash)    DE(int)     intcor
     13.78     -16.88       1.92        0.00      94.06       2.34       1.48       1.62       ----

> <Gold.Chemscore.Fitness>
13.7790

> <Gold.Chemscore.DG>
-16.8821

> <Gold.Chemscore.ZeroCoef>
-5.4800

> <Gold.Chemscore.Hbond>
1.9162

> <Gold.Chemscore.Metal>
0.0000

> <Gold.Chemscore.Lipo>
94.0592

> <Gold.Chemscore.Internal_Hbond>
0.0000

> <Gold.Chemscore.DEClash>
1.4812

> <Gold.Chemscore.DEInternal>
1.6219

> <Gold.Chemscore.Rot>
2.3448

> <Gold.Chemscore.Internal.Correction>
   9.000000E+99

> <Gold.Chemscore.Hbonds>
donor molecule, donor type, donor heavy atom, donor atom, acceptor molecule, acceptor atom, score
      L1  H     5    26       P1  8028  0.85
      P1  H  7989  7998       L1    16  0.06
      P1  H 10752 10765       L1    15  0.15

> <Gold.Chemscore.Hbond.Weighted>
-6.3999

> <Gold.Chemscore.Metal.Weighted>
-0.0000

> <Gold.Chemscore.Lipo.Weighted>
-11.0049

> <Gold.Chemscore.Internal_Hbond.Weighted>
0.0000

> <Gold.Chemscore.DEClash.Weighted>
1.4812

> <Gold.Chemscore.DEInternal.Weighted>
1.6219

> <Gold.Chemscore.Rot.Weighted>
6.0027

> <Gold.Chemscore.Internal.Correction.Weighted>
   9.000000E+99

> <Gold.Protein.RotatedTorsions>
[ 6907 6896 6895 6894 ] final  133.48 input  -60.11 | X-H torsion
[ 7974 7965 7964 7962 ] final -176.22 input  175.53 | X-H torsion
[ 8008 7997 7996 7995 ] final  -81.22 input   59.86 | X-H torsion
[ 10167 10162 10161 10158 ] final  170.25 input  -65.29 | X-H torsion
[ 10718 10713 10712 10709 ] final -125.80 input   66.30 | X-H torsion
[ 10763 10752 10751 10750 ] final  159.73 input  -60.55 | X-H torsion
[ 11005 11000 10999 10996 ] final -145.66 input  -57.11 | X-H torsion

> <Gold.Protein.ActiveResidues>
 VAL166  LYS551  ARG553  GLY616  TRP617  ASP618  TYR619  PRO620  LYS621  CYS622 
 ASP623  PHE694  ASN695  SER759  ASP760  ASP761  ALA762  ILE779  LEU786  VAL792 
 PHE793  MET794  SER795  GLU796  ALA797  LYS798  CYS799  TRP800  GLU811  SER814 

> <Gold.Protein.RotatedAtoms>
  152.3215  133.5859  159.5747 H   0  0  0  0  0  0  0  0  0  0  0  0  # atno 6907 bound_to 6896
  150.7374  134.0004  159.3645 H   0  0  0  0  0  0  0  0  0  0  0  0  # atno 6908 bound_to 6896
  151.7888  135.0742  160.0435 H   0  0  0  0  0  0  0  0  0  0  0  0  # atno 6909 bound_to 6896
  144.7127  140.1203  143.6405 H   0  0  0  0  0  0  0  0  0  0  0  0  # atno 7974 bound_to 7965
  154.5961  140.0651  156.9305 H   0  0  0  0  0  0  0  0  0  0  0  0  # atno 8008 bound_to 7997
  155.2212  140.3330  155.4297 H   0  0  0  0  0  0  0  0  0  0  0  0  # atno 8009 bound_to 7997
  156.2288  140.1831  156.7280 H   0  0  0  0  0  0  0  0  0  0  0  0  # atno 8010 bound_to 7997
  139.5013  144.3617  151.9817 H   0  0  0  0  0  0  0  0  0  0  0  0  # atno 10167 bound_to 10162
  156.1708  130.6666  151.0177 H   0  0  0  0  0  0  0  0  0  0  0  0  # atno 10718 bound_to 10713
  154.2364  135.2776  155.2870 H   0  0  0  0  0  0  0  0  0  0  0  0  # atno 10763 bound_to 10752
  154.5582  135.5655  153.6986 H   0  0  0  0  0  0  0  0  0  0  0  0  # atno 10764 bound_to 10752
  153.0009  135.6291  154.2507 H   0  0  0  0  0  0  0  0  0  0  0  0  # atno 10765 bound_to 10752
  140.7899  134.2980  157.5017 H   0  0  0  0  0  0  0  0  0  0  0  0  # atno 11005 bound_to 11000
  145.9377  139.2648  143.1287 LP  0  0  0  0  0  0  0  0  0  0  0  0  # atno 17320 bound_to 7965
  145.9457  140.8946  143.0285 LP  0  0  0  0  0  0  0  0  0  0  0  0  # atno 17321 bound_to 7965
  140.3054  144.3599  150.6048 LP  0  0  0  0  0  0  0  0  0  0  0  0  # atno 17342 bound_to 10162
  140.5841  143.2171  151.7375 LP  0  0  0  0  0  0  0  0  0  0  0  0  # atno 17343 bound_to 10162
  157.6801  131.0840  150.7392 LP  0  0  0  0  0  0  0  0  0  0  0  0  # atno 17370 bound_to 10713
  156.7451  130.4751  149.5469 LP  0  0  0  0  0  0  0  0  0  0  0  0  # atno 17371 bound_to 10713
  139.8732  134.9368  156.3671 LP  0  0  0  0  0  0  0  0  0  0  0  0  # atno 17394 bound_to 11000
  140.9399  133.7521  156.0133 LP  0  0  0  0  0  0  0  0  0  0  0  0  # atno 17395 bound_to 11000

$$$$
