AV-unprocessed.smi:99|AV-procd|sdf|891|dock3
  -GOLD-   2262017383D 1   1.00000     0.00000
 Structure written by MMmdl.
 52 55  0  0  0  0  0  0  0  0  2 V2000
  153.0593  140.0692  158.6807 O   0  0  0  0  0  0  0  0  0  0  0  0
  152.3735  140.9792  158.2102 C   0  0  0  0  0  0  0  0  0  0  0  0
  151.6615  140.8647  157.0724 O   0  0  0  0  0  0  0  0  0  0  0  0
  151.6835  139.6491  156.3430 C   0  0  0  0  0  0  0  0  0  0  0  0
  150.7498  139.7680  155.1306 C   0  0  2  0  0  0  0  0  0  0  0  0
  149.9759  140.9546  155.1992 O   0  0  0  0  0  0  0  0  0  0  0  0
  148.8957  140.8206  154.3315 C   0  0  2  0  0  0  0  0  0  0  0  0
  147.7533  141.6612  154.8608 N   0  0  0  0  0  0  0  0  0  0  0  0
  147.0221  142.4263  153.9697 C   0  0  0  0  0  0  0  0  0  0  0  0
  146.0126  143.2196  154.3828 C   0  0  0  0  0  0  0  0  0  0  0  0
  145.6870  143.2821  155.8043 C   0  0  0  0  0  0  0  0  0  0  0  0
  144.7547  143.9948  156.1711 O   0  0  0  0  0  0  0  0  0  0  0  0
  146.4404  142.5429  156.6679 N   0  5  0  0  0  0  0  0  0  0  0  0
  147.4700  141.7481  156.2536 C   0  0  0  0  0  0  0  0  0  0  0  0
  148.1696  141.1064  157.0342 O   0  0  0  0  0  0  0  0  0  0  0  0
  148.5643  139.3178  154.2238 C   0  0  1  0  0  0  0  0  0  0  0  0
  148.6015  138.8630  152.8864 O   0  0  0  0  0  0  0  0  0  0  0  0
  149.7022  138.6530  155.0036 C   0  0  2  0  0  0  0  0  0  0  0  0
  149.2624  138.2280  156.2884 O   0  0  0  0  0  0  0  0  0  0  0  0
  148.2707  137.3251  156.4266 C   0  0  0  0  0  0  0  0  0  0  0  0
  147.6039  136.8910  155.4852 O   0  0  0  0  0  0  0  0  0  0  0  0
  148.0665  136.9093  157.8439 C   0  0  0  0  0  0  0  0  0  0  0  0
  146.8805  136.2283  158.2044 C   0  0  0  0  0  0  0  0  0  0  0  0
  146.6603  135.8282  159.5369 C   0  0  0  0  0  0  0  0  0  0  0  0
  147.6225  136.1059  160.5252 C   0  0  0  0  0  0  0  0  0  0  0  0
  148.8058  136.7838  160.1795 C   0  0  0  0  0  0  0  0  0  0  0  0
  149.0286  137.1831  158.8475 C   0  0  0  0  0  0  0  0  0  0  0  0
  152.2422  142.3228  158.8450 C   0  0  0  0  0  0  0  0  0  0  0  0
  151.7978  143.4166  158.0661 C   0  0  0  0  0  0  0  0  0  0  0  0
  151.6737  144.6991  158.6348 C   0  0  0  0  0  0  0  0  0  0  0  0
  151.9919  144.9034  159.9900 C   0  0  0  0  0  0  0  0  0  0  0  0
  152.4331  143.8232  160.7764 C   0  0  0  0  0  0  0  0  0  0  0  0
  152.5584  142.5399  160.2092 C   0  0  0  0  0  0  0  0  0  0  0  0
  152.7025  139.4515  156.0076 H   0  0  0  0  0  0  0  0  0  0  0  0
  151.3778  138.8195  156.9824 H   0  0  0  0  0  0  0  0  0  0  0  0
  151.3382  139.7983  154.2117 H   0  0  0  0  0  0  0  0  0  0  0  0
  149.1681  141.2544  153.3680 H   0  0  0  0  0  0  0  0  0  0  0  0
  147.2557  142.3922  152.9160 H   0  0  0  0  0  0  0  0  0  0  0  0
  145.4522  143.8067  153.6702 H   0  0  0  0  0  0  0  0  0  0  0  0
  147.5824  139.0921  154.6407 H   0  0  0  0  0  0  0  0  0  0  0  0
  148.7775  137.9348  152.8909 H   0  0  0  0  0  0  0  0  0  0  0  0
  150.1290  137.8021  154.4697 H   0  0  0  0  0  0  0  0  0  0  0  0
  146.1267  136.0061  157.4630 H   0  0  0  0  0  0  0  0  0  0  0  0
  145.7507  135.3092  159.8006 H   0  0  0  0  0  0  0  0  0  0  0  0
  147.4527  135.8009  161.5473 H   0  0  0  0  0  0  0  0  0  0  0  0
  149.5444  137.0015  160.9368 H   0  0  0  0  0  0  0  0  0  0  0  0
  149.9462  137.7053  158.6180 H   0  0  0  0  0  0  0  0  0  0  0  0
  151.5495  143.2848  157.0227 H   0  0  0  0  0  0  0  0  0  0  0  0
  151.3357  145.5270  158.0291 H   0  0  0  0  0  0  0  0  0  0  0  0
  151.8984  145.8873  160.4256 H   0  0  0  0  0  0  0  0  0  0  0  0
  152.6784  143.9786  161.8167 H   0  0  0  0  0  0  0  0  0  0  0  0
  152.9033  141.7336  160.8397 H   0  0  0  0  0  0  0  0  0  0  0  0
  1  2  2  0  0  0  0
  2  3  1  0  0  0  0
  2 28  1  0  0  0  0
  3  4  1  0  0  0  0
  4  5  1  0  0  0  0
  4 34  1  0  0  0  0
  4 35  1  0  0  0  0
  5 18  1  0  0  0  0
  5  6  1  0  0  0  0
  5 36  1  0  0  0  0
  6  7  1  0  0  0  0
  7  8  1  0  0  0  0
  7 16  1  0  0  0  0
  7 37  1  0  0  0  0
  8 14  1  0  0  0  0
  8  9  1  0  0  0  0
  9 10  2  0  0  0  0
  9 38  1  0  0  0  0
 10 11  1  0  0  0  0
 10 39  1  0  0  0  0
 11 12  2  0  0  0  0
 11 13  1  0  0  0  0
 13 14  1  0  0  0  0
 14 15  2  0  0  0  0
 16 17  1  0  0  0  0
 16 18  1  0  0  0  0
 16 40  1  0  0  0  0
 17 41  1  0  0  0  0
 18 19  1  0  0  0  0
 18 42  1  0  0  0  0
 19 20  1  0  0  0  0
 20 21  2  0  0  0  0
 20 22  1  0  0  0  0
 22 27  1  0  0  0  0
 22 23  2  0  0  0  0
 23 24  1  0  0  0  0
 23 43  1  0  0  0  0
 24 25  2  0  0  0  0
 24 44  1  0  0  0  0
 25 26  1  0  0  0  0
 25 45  1  0  0  0  0
 26 27  2  0  0  0  0
 26 46  1  0  0  0  0
 27 47  1  0  0  0  0
 28 33  1  0  0  0  0
 28 29  2  0  0  0  0
 29 30  1  0  0  0  0
 29 48  1  0  0  0  0
 30 31  2  0  0  0  0
 30 49  1  0  0  0  0
 31 32  1  0  0  0  0
 31 50  1  0  0  0  0
 32 33  2  0  0  0  0
 32 51  1  0  0  0  0
 33 52  1  0  0  0  0
M  CHG  1  13  -1
M  END
> <s_m_source_file>
AV-unprocessed.smi

> <i_m_source_file_index>
99

> <i_lp_mmshare_version>
43012

> <i_f3d_flags>
0

> <s_epik_input>
W2NIXTFbY0hdW2NIXVtjSF1bY0hdYzFDKD1PKU9bQ0gyXVtDQEBIXTJPW0NAQEhdKG4zW2NIXVtjSF1jKD1PKVtuSF1jMz1PKVtDQEBIXShbT0hdKVtDQEhdMk9DKD1PKWM0W2NIXVtjSF1bY0hdW2NIXVtjSF00

> <s_epik_cmdline>
J2VwaWtfcHl0aG9uJywgJy1waCcsICc3LjAnLCAnLXRuJywgJzgnLCAnLW1hJywgJzIwMCcsICctbWV0YWxfYmluZGluZycsICctaW1hZScsICc8aW5maWxlLm1hZT4nLCAnLW9tYWUnLCAnPG91dGZpbGUubWFlPic=

> <r_lp_tautomer_probability>
1

> <r_epik_Ionization_Penalty>
2.89159

> <r_epik_Ionization_Penalty_Charging>
2.1077e-08

> <r_epik_Ionization_Penalty_Neutral>
2.89159

> <r_epik_State_Penalty>
2.88671

> <r_epik_Charging_Adjusted_Penalty>
2.88671

> <i_epik_Tot_Q>
-1

> <i_epik_Tot_abs_Q>
1

> <r_epik_Metal_State_Penalty>
0.0727308

> <b_epik_Metal_Only>
1

> <s_epik_Chemistry_Notes>
This compound has an ester and may undergo hydrolysis at high or low pH. This compound contains an acetal/aminal-like group ( X-CH(R)-Y where X, Y are N, S, or O) that may be acid/base labile, releasing an aldehyde.

> <s_lp_Force_Field>
OPLS_2005

> <r_lp_Energy>
34.2079

> <b_lp_Chiralities_Consistent>
1

> <s_lp_Variant>
AV-unprocessed.smi:99-27

> <Gold.Version>
5.8.1

> <Gold.Id.Protein>
6NUR|6NUR_protein|mol2

> <Gold.PLP.Fitness>
59.0781

> <Gold.PLP.PLP>
-55.8809

> <Gold.PLP.part.hbond>
-2.7442

> <Gold.PLP.part.metal>
0.0000

> <Gold.PLP.part.buried>
-5.6237

> <Gold.PLP.part.nonpolar>
-46.7835

> <Gold.PLP.part.repulsive>
0.4479

> <Gold.PLP.ligand.clash>
0.0000

> <Gold.PLP.ligand.torsion>
1.5412

> <Gold.PLP.Chemscore.Hbond>
1.9833

> <Gold.PLP.Chemscore.CHOScore>
0.0000

> <Gold.PLP.Chemscore.Metal>
0.0000

> <Gold.Chemscore.Hbonds>
donor molecule, donor type, donor heavy atom, donor atom, acceptor molecule, acceptor atom, score
      L1  H    17    41       P1  7948  0.94
      P1  H  7997  8008       L1     1  0.42

> <Gold.PLP.Chemscore.Internal.Correction>
0.3295

> <Gold.Rescore>
     Score         DG    S(hbond)    S(metal)    S(lipo)     H(rot)  DE(clash)    DE(int)     intcor
     13.07     -17.66       1.78        0.00     121.98       3.13       0.15       4.45       ----

> <Gold.Chemscore.Fitness>
13.0671

> <Gold.Chemscore.DG>
-17.6601

> <Gold.Chemscore.ZeroCoef>
-5.4800

> <Gold.Chemscore.Hbond>
1.7765

> <Gold.Chemscore.Metal>
0.0000

> <Gold.Chemscore.Lipo>
121.9755

> <Gold.Chemscore.Internal_Hbond>
0.0000

> <Gold.Chemscore.DEClash>
0.1474

> <Gold.Chemscore.DEInternal>
4.4456

> <Gold.Chemscore.Rot>
3.1346

> <Gold.Chemscore.Internal.Correction>
   9.000000E+99

> <Gold.Chemscore.Hbonds>
donor molecule, donor type, donor heavy atom, donor atom, acceptor molecule, acceptor atom, score
      L1  H    17    41       P1  7948  0.90
      P1  H  7997  8008       L1     1  0.09

> <Gold.Chemscore.Hbond.Weighted>
-5.9335

> <Gold.Chemscore.Metal.Weighted>
-0.0000

> <Gold.Chemscore.Lipo.Weighted>
-14.2711

> <Gold.Chemscore.Internal_Hbond.Weighted>
0.0000

> <Gold.Chemscore.DEClash.Weighted>
0.1474

> <Gold.Chemscore.DEInternal.Weighted>
4.4456

> <Gold.Chemscore.Rot.Weighted>
8.0246

> <Gold.Chemscore.Internal.Correction.Weighted>
   9.000000E+99

> <Gold.Protein.RotatedTorsions>
[ 6907 6896 6895 6894 ] final   52.26 input  -60.11 | X-H torsion
[ 7974 7965 7964 7962 ] final   80.54 input  175.53 | X-H torsion
[ 8008 7997 7996 7995 ] final  -95.07 input   59.86 | X-H torsion
[ 10167 10162 10161 10158 ] final  -79.95 input  -65.29 | X-H torsion
[ 10718 10713 10712 10709 ] final -158.54 input   66.30 | X-H torsion
[ 10763 10752 10751 10750 ] final  -65.37 input  -60.55 | X-H torsion
[ 11005 11000 10999 10996 ] final   28.17 input  -57.11 | X-H torsion

> <Gold.Protein.ActiveResidues>
 VAL166  LYS551  ARG553  GLY616  TRP617  ASP618  TYR619  PRO620  LYS621  CYS622 
 ASP623  PHE694  ASN695  SER759  ASP760  ASP761  ALA762  ILE779  LEU786  VAL792 
 PHE793  MET794  SER795  GLU796  ALA797  LYS798  CYS799  TRP800  GLU811  SER814 

> <Gold.Protein.RotatedAtoms>
  152.3214  134.7376  160.0312 H   0  0  0  0  0  0  0  0  0  0  0  0  # atno 6907 bound_to 6896
  151.7823  133.3345  159.3483 H   0  0  0  0  0  0  0  0  0  0  0  0  # atno 6908 bound_to 6896
  150.7372  134.5850  159.6003 H   0  0  0  0  0  0  0  0  0  0  0  0  # atno 6909 bound_to 6896
  145.6498  139.2445  143.1983 H   0  0  0  0  0  0  0  0  0  0  0  0  # atno 7974 bound_to 7965
  154.7566  140.0483  157.0938 H   0  0  0  0  0  0  0  0  0  0  0  0  # atno 8008 bound_to 7997
  154.9990  140.3122  155.4856 H   0  0  0  0  0  0  0  0  0  0  0  0  # atno 8009 bound_to 7997
  156.2896  140.2205  156.5099 H   0  0  0  0  0  0  0  0  0  0  0  0  # atno 8010 bound_to 7997
  140.4547  143.2472  151.8437 H   0  0  0  0  0  0  0  0  0  0  0  0  # atno 10167 bound_to 10162
  156.5555  130.8624  151.2793 H   0  0  0  0  0  0  0  0  0  0  0  0  # atno 10718 bound_to 10713
  154.3440  135.6150  153.5610 H   0  0  0  0  0  0  0  0  0  0  0  0  # atno 10763 bound_to 10752
  152.9802  135.5776  154.4820 H   0  0  0  0  0  0  0  0  0  0  0  0  # atno 10764 bound_to 10752
  154.4529  135.2853  155.1745 H   0  0  0  0  0  0  0  0  0  0  0  0  # atno 10765 bound_to 10752
  140.3185  134.2570  155.7721 H   0  0  0  0  0  0  0  0  0  0  0  0  # atno 11005 bound_to 11000
  146.1213  140.7305  142.9456 LP  0  0  0  0  0  0  0  0  0  0  0  0  # atno 17320 bound_to 7965
  144.7127  140.4096  143.7068 LP  0  0  0  0  0  0  0  0  0  0  0  0  # atno 17321 bound_to 7965
  139.4800  144.5078  151.8973 LP  0  0  0  0  0  0  0  0  0  0  0  0  # atno 17342 bound_to 10162
  140.4165  144.2300  150.5887 LP  0  0  0  0  0  0  0  0  0  0  0  0  # atno 17343 bound_to 10162
  157.7379  130.9804  150.2220 LP  0  0  0  0  0  0  0  0  0  0  0  0  # atno 17370 bound_to 10713
  156.2845  130.3737  149.7902 LP  0  0  0  0  0  0  0  0  0  0  0  0  # atno 17371 bound_to 10713
  141.2092  133.7755  157.0011 LP  0  0  0  0  0  0  0  0  0  0  0  0  # atno 17394 bound_to 11000
  140.0963  134.9562  157.1854 LP  0  0  0  0  0  0  0  0  0  0  0  0  # atno 17395 bound_to 11000

$$$$
