AV-unprocessed.smi:2623|AV-procd|sdf|10232|dock2
  -GOLD-   2272014243D 1   1.00000     0.00000
 Structure written by MMmdl.
 41 43  0  0  0  0  0  0  0  0  2 V2000
  150.5412  140.6222  153.4573 O   0  0  0  0  0  0  0  0  0  0  0  0
  149.7350  140.4026  154.5958 C   0  0  0  0  0  0  0  0  0  0  0  0
  150.2873  141.0249  155.8390 C   0  0  0  0  0  0  0  0  0  0  0  0
  149.6997  142.0070  156.5812 N   0  3  0  0  0  0  0  0  0  0  0  0
  150.5152  142.3359  157.6645 C   0  0  0  0  0  0  0  0  0  0  0  0
  150.3452  143.2657  158.6857 C   0  0  0  0  0  0  0  0  0  0  0  0
  151.3789  143.3513  159.6416 C   0  0  0  0  0  0  0  0  0  0  0  0
  152.5243  142.5327  159.5602 C   0  0  0  0  0  0  0  0  0  0  0  0
  152.6851  141.5935  158.5203 C   0  0  0  0  0  0  0  0  0  0  0  0
  151.6583  141.5150  157.5802 C   0  0  0  0  0  0  0  0  0  0  0  0
  151.4730  140.7220  156.4425 N   0  0  0  0  0  0  0  0  0  0  0  0
  152.5094  139.7444  156.0742 C   0  0  0  0  0  0  0  0  0  0  0  0
  152.7328  138.6661  157.1539 C   0  0  1  0  0  0  0  0  0  0  0  0
  151.4823  138.1104  157.5109 O   0  0  0  0  0  0  0  0  0  0  0  0
  153.6497  137.5378  156.6553 C   0  0  0  0  0  0  0  0  0  0  0  0
  153.7873  136.5688  157.6863 O   0  0  0  0  0  0  0  0  0  0  0  0
  154.5198  135.4315  157.4211 C   0  0  0  0  0  0  0  0  0  0  0  0
  154.8844  134.6336  158.5256 C   0  0  0  0  0  0  0  0  0  0  0  0
  155.6331  133.4541  158.3480 C   0  0  0  0  0  0  0  0  0  0  0  0
  156.0270  133.0593  157.0564 C   0  0  0  0  0  0  0  0  0  0  0  0
  155.6713  133.8460  155.9451 C   0  0  0  0  0  0  0  0  0  0  0  0
  154.9218  135.0255  156.1230 C   0  0  0  0  0  0  0  0  0  0  0  0
  150.0473  140.3784  152.6889 H   0  0  0  0  0  0  0  0  0  0  0  0
  148.7396  140.8032  154.4027 H   0  0  0  0  0  0  0  0  0  0  0  0
  149.6282  139.3288  154.7529 H   0  0  0  0  0  0  0  0  0  0  0  0
  149.4690  143.8940  158.7493 H   0  0  0  0  0  0  0  0  0  0  0  0
  151.2915  144.0591  160.4532 H   0  0  0  0  0  0  0  0  0  0  0  0
  153.2957  142.6268  160.3110 H   0  0  0  0  0  0  0  0  0  0  0  0
  153.5659  140.9705  158.4671 H   0  0  0  0  0  0  0  0  0  0  0  0
  152.2115  139.2816  155.1325 H   0  0  0  0  0  0  0  0  0  0  0  0
  153.4329  140.2873  155.8682 H   0  0  0  0  0  0  0  0  0  0  0  0
  153.1746  139.1287  158.0372 H   0  0  0  0  0  0  0  0  0  0  0  0
  150.8853  138.8164  157.7056 H   0  0  0  0  0  0  0  0  0  0  0  0
  153.2595  137.0979  155.7357 H   0  0  0  0  0  0  0  0  0  0  0  0
  154.6373  137.9476  156.4366 H   0  0  0  0  0  0  0  0  0  0  0  0
  154.5858  134.9287  159.5209 H   0  0  0  0  0  0  0  0  0  0  0  0
  155.9048  132.8529  159.2032 H   0  0  0  0  0  0  0  0  0  0  0  0
  156.6011  132.1548  156.9183 H   0  0  0  0  0  0  0  0  0  0  0  0
  155.9735  133.5448  154.9529 H   0  0  0  0  0  0  0  0  0  0  0  0
  154.6685  135.6013  155.2460 H   0  0  0  0  0  0  0  0  0  0  0  0
  148.8030  142.4182  156.3557 H   0  0  0  0  0  0  0  0  0  0  0  0
  1  2  1  0  0  0  0
  1 23  1  0  0  0  0
  2  3  1  0  0  0  0
  2 24  1  0  0  0  0
  2 25  1  0  0  0  0
  3 11  1  0  0  0  0
  3  4  2  0  0  0  0
  4  5  1  0  0  0  0
  4 41  1  0  0  0  0
  5 10  2  0  0  0  0
  5  6  1  0  0  0  0
  6  7  2  0  0  0  0
  6 26  1  0  0  0  0
  7  8  1  0  0  0  0
  7 27  1  0  0  0  0
  8  9  2  0  0  0  0
  8 28  1  0  0  0  0
  9 10  1  0  0  0  0
  9 29  1  0  0  0  0
 10 11  1  0  0  0  0
 11 12  1  0  0  0  0
 12 13  1  0  0  0  0
 12 30  1  0  0  0  0
 12 31  1  0  0  0  0
 13 14  1  0  0  0  0
 13 15  1  0  0  0  0
 13 32  1  0  0  0  0
 14 33  1  0  0  0  0
 15 16  1  0  0  0  0
 15 34  1  0  0  0  0
 15 35  1  0  0  0  0
 16 17  1  0  0  0  0
 17 22  1  0  0  0  0
 17 18  2  0  0  0  0
 18 19  1  0  0  0  0
 18 36  1  0  0  0  0
 19 20  2  0  0  0  0
 19 37  1  0  0  0  0
 20 21  1  0  0  0  0
 20 38  1  0  0  0  0
 21 22  2  0  0  0  0
 21 39  1  0  0  0  0
 22 40  1  0  0  0  0
M  CHG  1   4   1
M  END
> <s_m_source_file>
AV-unprocessed.smi

> <i_m_source_file_index>
2623

> <i_lp_mmshare_version>
43012

> <i_f3d_flags>
0

> <s_epik_input>
W2NIXTFbY0hdW2NIXVtjSF1jKGMxMiluKGMobjIpW0NIMl1bT0hdKVtDSDJdW0NASF0oW09IXSlbQ0gyXU9jM1tjSF1bY0hdW2NIXVtjSF1bY0hdMw==

> <s_epik_cmdline>
J2VwaWtfcHl0aG9uJywgJy1waCcsICc3LjAnLCAnLXRuJywgJzgnLCAnLW1hJywgJzIwMCcsICctbWV0YWxfYmluZGluZycsICctaW1hZScsICc8aW5maWxlLm1hZT4nLCAnLW9tYWUnLCAnPG91dGZpbGUubWFlPic=

> <r_lp_tautomer_probability>
1

> <r_epik_Ionization_Penalty>
1.40416

> <r_epik_Ionization_Penalty_Charging>
1.4033

> <r_epik_Ionization_Penalty_Neutral>
0.000858184

> <r_epik_State_Penalty>
1.48564

> <r_epik_Charging_Adjusted_Penalty>
2.88894

> <i_epik_Tot_Q>
1

> <i_epik_Tot_abs_Q>
1

> <r_epik_Metal_State_Penalty>
5.52809

> <b_epik_Metal_Only>
0

> <s_lp_Force_Field>
OPLS_2005

> <r_lp_Energy>
19.2357

> <b_lp_Chiralities_Consistent>
1

> <s_lp_Variant>
AV-unprocessed.smi:2623-4

> <Gold.Version>
5.8.1

> <Gold.Id.Protein>
6NUR|6NUR_protein|mol2

> <Gold.PLP.Fitness>
55.8617

> <Gold.PLP.PLP>
-46.1841

> <Gold.PLP.part.hbond>
-5.8601

> <Gold.PLP.part.metal>
0.0000

> <Gold.PLP.part.buried>
-3.4561

> <Gold.PLP.part.nonpolar>
-38.0953

> <Gold.PLP.part.repulsive>
0.1229

> <Gold.PLP.ligand.clash>
0.0000

> <Gold.PLP.ligand.torsion>
0.2106

> <Gold.PLP.Chemscore.Hbond>
3.3567

> <Gold.PLP.Chemscore.CHOScore>
0.0000

> <Gold.PLP.Chemscore.Metal>
0.0000

> <Gold.Chemscore.Hbonds>
donor molecule, donor type, donor heavy atom, donor atom, acceptor molecule, acceptor atom, score
      L1  H     1    23       P1  7957  1.00
      L1  H     4    41       P1  8028  0.04

> <Gold.PLP.Chemscore.Internal.Correction>
0.0286

> <Gold.Rescore>
     Score         DG    S(hbond)    S(metal)    S(lipo)     H(rot)  DE(clash)    DE(int)     intcor
     16.69     -17.56       1.89        0.00     117.66       3.13       0.72       0.15       ----

> <Gold.Chemscore.Fitness>
16.6941

> <Gold.Chemscore.DG>
-17.5602

> <Gold.Chemscore.ZeroCoef>
-5.4800

> <Gold.Chemscore.Hbond>
1.8947

> <Gold.Chemscore.Metal>
0.0000

> <Gold.Chemscore.Lipo>
117.6583

> <Gold.Chemscore.Internal_Hbond>
0.0000

> <Gold.Chemscore.DEClash>
0.7206

> <Gold.Chemscore.DEInternal>
0.1455

> <Gold.Chemscore.Rot>
3.1305

> <Gold.Chemscore.Internal.Correction>
   9.000000E+99

> <Gold.Chemscore.Hbonds>
donor molecule, donor type, donor heavy atom, donor atom, acceptor molecule, acceptor atom, score
      L1  H     1    23       P1  7957  0.99
      L1  H     4    41       P1  8028  0.04
      P1  H  7989  7998       L1     1  0.02

> <Gold.Chemscore.Hbond.Weighted>
-6.3283

> <Gold.Chemscore.Metal.Weighted>
-0.0000

> <Gold.Chemscore.Lipo.Weighted>
-13.7660

> <Gold.Chemscore.Internal_Hbond.Weighted>
0.0000

> <Gold.Chemscore.DEClash.Weighted>
0.7206

> <Gold.Chemscore.DEInternal.Weighted>
0.1455

> <Gold.Chemscore.Rot.Weighted>
8.0141

> <Gold.Chemscore.Internal.Correction.Weighted>
   9.000000E+99

> <Gold.Protein.RotatedTorsions>
[ 6907 6896 6895 6894 ] final   99.88 input  -60.11 | X-H torsion
[ 7974 7965 7964 7962 ] final -100.87 input  175.53 | X-H torsion
[ 8008 7997 7996 7995 ] final -179.10 input   59.86 | X-H torsion
[ 10167 10162 10161 10158 ] final -133.84 input  -65.29 | X-H torsion
[ 10718 10713 10712 10709 ] final -162.74 input   66.30 | X-H torsion
[ 10763 10752 10751 10750 ] final  110.51 input  -60.55 | X-H torsion
[ 11005 11000 10999 10996 ] final  155.61 input  -57.11 | X-H torsion

> <Gold.Protein.ActiveResidues>
 VAL166  LYS551  ARG553  GLY616  TRP617  ASP618  TYR619  PRO620  LYS621  CYS622 
 ASP623  PHE694  ASN695  SER759  ASP760  ASP761  ALA762  ILE779  LEU786  VAL792 
 PHE793  MET794  SER795  GLU796  ALA797  LYS798  CYS799  TRP800  GLU811  SER814 

> <Gold.Protein.RotatedAtoms>
  152.5383  134.0362  159.8046 H   0  0  0  0  0  0  0  0  0  0  0  0  # atno 6907 bound_to 6896
  151.0525  133.5604  159.2648 H   0  0  0  0  0  0  0  0  0  0  0  0  # atno 6908 bound_to 6896
  151.2533  135.0637  159.9124 H   0  0  0  0  0  0  0  0  0  0  0  0  # atno 6909 bound_to 6896
  145.2890  140.9347  143.2888 H   0  0  0  0  0  0  0  0  0  0  0  0  # atno 7974 bound_to 7965
  156.0266  140.1273  157.0302 H   0  0  0  0  0  0  0  0  0  0  0  0  # atno 8008 bound_to 7997
  154.4332  140.1058  156.6109 H   0  0  0  0  0  0  0  0  0  0  0  0  # atno 8009 bound_to 7997
  155.5868  140.3469  155.4557 H   0  0  0  0  0  0  0  0  0  0  0  0  # atno 8010 bound_to 7997
  139.8942  143.6686  152.2607 H   0  0  0  0  0  0  0  0  0  0  0  0  # atno 10167 bound_to 10162
  156.6148  130.8865  151.2944 H   0  0  0  0  0  0  0  0  0  0  0  0  # atno 10718 bound_to 10713
  153.4500  135.3746  155.2278 H   0  0  0  0  0  0  0  0  0  0  0  0  # atno 10763 bound_to 10752
  154.8756  135.3883  154.4050 H   0  0  0  0  0  0  0  0  0  0  0  0  # atno 10764 bound_to 10752
  153.4608  135.7086  153.6115 H   0  0  0  0  0  0  0  0  0  0  0  0  # atno 10765 bound_to 10752
  140.1597  134.8618  157.2559 H   0  0  0  0  0  0  0  0  0  0  0  0  # atno 11005 bound_to 11000
  144.9189  139.4436  143.6551 LP  0  0  0  0  0  0  0  0  0  0  0  0  # atno 17320 bound_to 7965
  146.3191  139.8038  142.8960 LP  0  0  0  0  0  0  0  0  0  0  0  0  # atno 17321 bound_to 7965
  139.7083  144.7624  151.1155 LP  0  0  0  0  0  0  0  0  0  0  0  0  # atno 17342 bound_to 10162
  140.7720  143.5365  150.9362 LP  0  0  0  0  0  0  0  0  0  0  0  0  # atno 17343 bound_to 10162
  157.7244  130.9602  150.1573 LP  0  0  0  0  0  0  0  0  0  0  0  0  # atno 17370 bound_to 10713
  156.2360  130.3686  149.8390 LP  0  0  0  0  0  0  0  0  0  0  0  0  # atno 17371 bound_to 10713
  140.2504  134.3690  155.7444 LP  0  0  0  0  0  0  0  0  0  0  0  0  # atno 17394 bound_to 11000
  141.2208  133.7313  156.8927 LP  0  0  0  0  0  0  0  0  0  0  0  0  # atno 17395 bound_to 11000

$$$$
