AV-unprocessed.smi:2013|AV-procd|sdf|8158|dock6
  -GOLD-   2272010403D 1   1.00000     0.00000
 Structure written by MMmdl.
 51 52  0  0  0  0  0  0  0  0  2 V2000
  146.0987  143.2199  153.5381 C   0  0  0  0  0  0  0  0  0  0  0  0
  146.8224  141.9154  153.9137 C   0  0  0  0  0  0  0  0  0  0  0  0
  146.8386  140.9372  152.7262 C   0  0  0  0  0  0  0  0  0  0  0  0
  146.3099  141.2367  155.2168 C   0  0  1  0  0  0  0  0  0  0  0  0
  146.8588  141.8565  156.5310 C   0  0  0  0  0  0  0  0  0  0  0  0
  148.2600  142.2475  156.4314 N   0  0  0  0  0  0  0  0  0  0  0  0
  149.3069  141.4174  156.5515 C   0  0  0  0  0  0  0  0  0  0  0  0
  149.1902  140.2102  156.7597 O   0  0  0  0  0  0  0  0  0  0  0  0
  150.7000  142.0415  156.4187 C   0  0  0  0  0  0  0  0  0  0  0  0
  151.1619  142.6345  157.6803 N   0  0  0  0  0  0  0  0  0  0  0  0
  150.8678  143.9588  157.9511 C   0  0  0  0  0  0  0  0  0  0  0  0
  151.2537  144.5935  159.0792 C   0  0  0  0  0  0  0  0  0  0  0  0
  152.0242  143.8966  160.1009 C   0  0  0  0  0  0  0  0  0  0  0  0
  152.4002  144.4272  161.1470 O   0  0  0  0  0  0  0  0  0  0  0  0
  152.3140  142.5461  159.8012 N   0  0  0  0  0  0  0  0  0  0  0  0
  153.0771  141.8185  160.7943 C   0  0  0  0  0  0  0  0  0  0  0  0
  151.9050  141.8844  158.6195 C   0  0  0  0  0  0  0  0  0  0  0  0
  152.1781  140.7029  158.3952 O   0  0  0  0  0  0  0  0  0  0  0  0
  144.8216  141.0795  155.2056 N   0  3  0  0  0  0  0  0  0  0  0  0
  144.3423  139.9266  156.0067 C   0  0  0  0  0  0  0  0  0  0  0  0
  142.8314  139.7226  155.7982 C   0  0  0  0  0  0  0  0  0  0  0  0
  142.1293  140.9175  156.1193 O   0  0  0  0  0  0  0  0  0  0  0  0
  142.5280  142.0088  155.2989 C   0  0  0  0  0  0  0  0  0  0  0  0
  144.0213  142.2914  155.5248 C   0  0  0  0  0  0  0  0  0  0  0  0
  145.0689  143.0369  153.2331 H   0  0  0  0  0  0  0  0  0  0  0  0
  146.5978  143.7081  152.7006 H   0  0  0  0  0  0  0  0  0  0  0  0
  146.0900  143.9307  154.3638 H   0  0  0  0  0  0  0  0  0  0  0  0
  147.8658  142.1846  154.0810 H   0  0  0  0  0  0  0  0  0  0  0  0
  145.8313  140.6349  152.4388 H   0  0  0  0  0  0  0  0  0  0  0  0
  147.4024  140.0348  152.9644 H   0  0  0  0  0  0  0  0  0  0  0  0
  147.3068  141.3915  151.8524 H   0  0  0  0  0  0  0  0  0  0  0  0
  146.7270  140.2292  155.1765 H   0  0  0  0  0  0  0  0  0  0  0  0
  146.3028  142.7518  156.8071 H   0  0  0  0  0  0  0  0  0  0  0  0
  146.7399  141.1550  157.3587 H   0  0  0  0  0  0  0  0  0  0  0  0
  148.4511  143.2259  156.2656 H   0  0  0  0  0  0  0  0  0  0  0  0
  151.4042  141.2719  156.0988 H   0  0  0  0  0  0  0  0  0  0  0  0
  150.6915  142.7770  155.6126 H   0  0  0  0  0  0  0  0  0  0  0  0
  150.3004  144.5180  157.2213 H   0  0  0  0  0  0  0  0  0  0  0  0
  150.9897  145.6305  159.2275 H   0  0  0  0  0  0  0  0  0  0  0  0
  153.2962  140.8036  160.4648 H   0  0  0  0  0  0  0  0  0  0  0  0
  152.4767  141.7934  161.7054 H   0  0  0  0  0  0  0  0  0  0  0  0
  154.0114  142.3613  160.9491 H   0  0  0  0  0  0  0  0  0  0  0  0
  144.8685  139.0181  155.7108 H   0  0  0  0  0  0  0  0  0  0  0  0
  144.5601  140.0966  157.0622 H   0  0  0  0  0  0  0  0  0  0  0  0
  142.6191  139.4302  154.7686 H   0  0  0  0  0  0  0  0  0  0  0  0
  142.4690  138.9180  156.4385 H   0  0  0  0  0  0  0  0  0  0  0  0
  142.3252  141.7896  154.2493 H   0  0  0  0  0  0  0  0  0  0  0  0
  141.9348  142.8846  155.5638 H   0  0  0  0  0  0  0  0  0  0  0  0
  144.1719  142.5812  156.5656 H   0  0  0  0  0  0  0  0  0  0  0  0
  144.3300  143.1356  154.9107 H   0  0  0  0  0  0  0  0  0  0  0  0
  144.5962  140.8425  154.2500 H   0  0  0  0  0  0  0  0  0  0  0  0
  1  2  1  0  0  0  0
  1 25  1  0  0  0  0
  1 26  1  0  0  0  0
  1 27  1  0  0  0  0
  2  3  1  0  0  0  0
  2  4  1  0  0  0  0
  2 28  1  0  0  0  0
  3 29  1  0  0  0  0
  3 30  1  0  0  0  0
  3 31  1  0  0  0  0
  4  5  1  0  0  0  0
  4 19  1  0  0  0  0
  4 32  1  0  0  0  0
  5  6  1  0  0  0  0
  5 33  1  0  0  0  0
  5 34  1  0  0  0  0
  6  7  1  0  0  0  0
  6 35  1  0  0  0  0
  7  8  2  0  0  0  0
  7  9  1  0  0  0  0
  9 10  1  0  0  0  0
  9 36  1  0  0  0  0
  9 37  1  0  0  0  0
 10 17  1  0  0  0  0
 10 11  1  0  0  0  0
 11 12  2  0  0  0  0
 11 38  1  0  0  0  0
 12 13  1  0  0  0  0
 12 39  1  0  0  0  0
 13 14  2  0  0  0  0
 13 15  1  0  0  0  0
 15 16  1  0  0  0  0
 15 17  1  0  0  0  0
 16 40  1  0  0  0  0
 16 41  1  0  0  0  0
 16 42  1  0  0  0  0
 17 18  2  0  0  0  0
 19 24  1  0  0  0  0
 19 20  1  0  0  0  0
 19 51  1  0  0  0  0
 20 21  1  0  0  0  0
 20 43  1  0  0  0  0
 20 44  1  0  0  0  0
 21 22  1  0  0  0  0
 21 45  1  0  0  0  0
 21 46  1  0  0  0  0
 22 23  1  0  0  0  0
 23 24  1  0  0  0  0
 23 47  1  0  0  0  0
 23 48  1  0  0  0  0
 24 49  1  0  0  0  0
 24 50  1  0  0  0  0
M  CHG  1  19   1
M  END
> <s_m_source_file>
AV-unprocessed.smi

> <i_m_source_file_index>
2013

> <i_lp_mmshare_version>
43012

> <i_f3d_flags>
0

> <s_epik_input>
W0NIMl0xW0NIMl1PW0NIMl1bQ0gyXU4xW0NASF0oW0NIXShbQ0gzXSlbQ0gzXSlbQ0gyXVtOSF1DKD1PKVtDSDJdbjJbY0hdW2NIXWMoPU8pbihbQ0gzXSljMj1P

> <s_epik_cmdline>
J2VwaWtfcHl0aG9uJywgJy1waCcsICc3LjAnLCAnLXRuJywgJzgnLCAnLW1hJywgJzIwMCcsICctbWV0YWxfYmluZGluZycsICctaW1hZScsICc8aW5maWxlLm1hZT4nLCAnLW9tYWUnLCAnPG91dGZpbGUubWFlPic=

> <r_lp_tautomer_probability>
1

> <r_epik_Ionization_Penalty>
0.370738

> <r_epik_Ionization_Penalty_Charging>
0.370738

> <r_epik_Ionization_Penalty_Neutral>
8.1827e-08

> <r_epik_State_Penalty>
0.368162

> <r_epik_Charging_Adjusted_Penalty>
0.7389

> <i_epik_Tot_Q>
1

> <i_epik_Tot_abs_Q>
1

> <r_epik_Metal_State_Penalty>
0.368194

> <b_epik_Metal_Only>
0

> <s_lp_Force_Field>
OPLS_2005

> <r_lp_Energy>
35.5949

> <b_lp_Chiralities_Consistent>
1

> <s_lp_Variant>
AV-unprocessed.smi:2013-2

> <Gold.Version>
5.8.1

> <Gold.Id.Protein>
6NUR|6NUR_protein|mol2

> <Gold.PLP.Fitness>
47.3676

> <Gold.PLP.PLP>
-38.2784

> <Gold.PLP.part.hbond>
-2.0000

> <Gold.PLP.part.metal>
0.0000

> <Gold.PLP.part.buried>
-3.8887

> <Gold.PLP.part.nonpolar>
-32.7638

> <Gold.PLP.part.repulsive>
0.2188

> <Gold.PLP.ligand.clash>
0.0000

> <Gold.PLP.ligand.torsion>
1.6758

> <Gold.PLP.Chemscore.Hbond>
3.0000

> <Gold.PLP.Chemscore.CHOScore>
1.0000

> <Gold.PLP.Chemscore.Metal>
0.0000

> <Gold.Chemscore.Hbonds>
donor molecule, donor type, donor heavy atom, donor atom, acceptor molecule, acceptor atom, score
      L1  H     6    35       P1  8028  1.00
      L1  H    19    51       P1 10175  2.00
      L1  C    11    38       P1  8028  1.00

> <Gold.PLP.Chemscore.Internal.Correction>
0.4409

> <Gold.Rescore>
     Score         DG    S(hbond)    S(metal)    S(lipo)     H(rot)  DE(clash)    DE(int)     intcor
     12.38     -14.78       1.96        0.00      73.45       2.28       0.57       1.82       ----

> <Gold.Chemscore.Fitness>
12.3837

> <Gold.Chemscore.DG>
-14.7803

> <Gold.Chemscore.ZeroCoef>
-5.4800

> <Gold.Chemscore.Hbond>
1.9601

> <Gold.Chemscore.Metal>
0.0000

> <Gold.Chemscore.Lipo>
73.4521

> <Gold.Chemscore.Internal_Hbond>
0.0000

> <Gold.Chemscore.DEClash>
0.5722

> <Gold.Chemscore.DEInternal>
1.8244

> <Gold.Chemscore.Rot>
2.2814

> <Gold.Chemscore.Internal.Correction>
   9.000000E+99

> <Gold.Chemscore.Hbonds>
donor molecule, donor type, donor heavy atom, donor atom, acceptor molecule, acceptor atom, score
      L1  H     6    35       P1  8028  0.82
      L1  H    19    51       P1 10175  0.92

> <Gold.Chemscore.Hbond.Weighted>
-6.5468

> <Gold.Chemscore.Metal.Weighted>
-0.0000

> <Gold.Chemscore.Lipo.Weighted>
-8.5939

> <Gold.Chemscore.Internal_Hbond.Weighted>
0.0000

> <Gold.Chemscore.DEClash.Weighted>
0.5722

> <Gold.Chemscore.DEInternal.Weighted>
1.8244

> <Gold.Chemscore.Rot.Weighted>
5.8404

> <Gold.Chemscore.Internal.Correction.Weighted>
   9.000000E+99

> <Gold.Protein.RotatedTorsions>
[ 6907 6896 6895 6894 ] final   -6.50 input  -60.11 | X-H torsion
[ 7974 7965 7964 7962 ] final -104.65 input  175.53 | X-H torsion
[ 8008 7997 7996 7995 ] final    0.31 input   59.86 | X-H torsion
[ 10167 10162 10161 10158 ] final  152.40 input  -65.29 | X-H torsion
[ 10718 10713 10712 10709 ] final   86.83 input   66.30 | X-H torsion
[ 10763 10752 10751 10750 ] final  -42.75 input  -60.55 | X-H torsion
[ 11005 11000 10999 10996 ] final -140.96 input  -57.11 | X-H torsion

> <Gold.Protein.ActiveResidues>
 VAL166  LYS551  ARG553  GLY616  TRP617  ASP618  TYR619  PRO620  LYS621  CYS622 
 ASP623  PHE694  ASN695  SER759  ASP760  ASP761  ALA762  ILE779  LEU786  VAL792 
 PHE793  MET794  SER795  GLU796  ALA797  LYS798  CYS799  TRP800  GLU811  SER814 

> <Gold.Protein.RotatedAtoms>
  151.4645  135.1041  159.9733 H   0  0  0  0  0  0  0  0  0  0  0  0  # atno 6907 bound_to 6896
  152.4840  133.8322  159.7119 H   0  0  0  0  0  0  0  0  0  0  0  0  # atno 6908 bound_to 6896
  150.8934  133.7152  159.2925 H   0  0  0  0  0  0  0  0  0  0  0  0  # atno 6909 bound_to 6896
  145.2405  140.9203  143.3152 H   0  0  0  0  0  0  0  0  0  0  0  0  # atno 7974 bound_to 7965
  154.6666  140.2602  155.7051 H   0  0  0  0  0  0  0  0  0  0  0  0  # atno 8008 bound_to 7997
  156.2641  140.2838  156.1081 H   0  0  0  0  0  0  0  0  0  0  0  0  # atno 8009 bound_to 7997
  155.1230  140.0377  157.2745 H   0  0  0  0  0  0  0  0  0  0  0  0  # atno 8010 bound_to 7997
  139.4833  144.5361  151.7643 H   0  0  0  0  0  0  0  0  0  0  0  0  # atno 10167 bound_to 10162
  157.6933  131.0231  150.3032 H   0  0  0  0  0  0  0  0  0  0  0  0  # atno 10718 bound_to 10713
  153.9841  135.6713  153.4751 H   0  0  0  0  0  0  0  0  0  0  0  0  # atno 10763 bound_to 10752
  153.0735  135.4961  154.8351 H   0  0  0  0  0  0  0  0  0  0  0  0  # atno 10764 bound_to 10752
  154.7147  135.3104  154.9104 H   0  0  0  0  0  0  0  0  0  0  0  0  # atno 10765 bound_to 10752
  140.8371  134.2446  157.4828 H   0  0  0  0  0  0  0  0  0  0  0  0  # atno 11005 bound_to 11000
  144.9593  139.3997  143.6363 LP  0  0  0  0  0  0  0  0  0  0  0  0  # atno 17320 bound_to 7965
  146.3329  139.8639  142.8851 LP  0  0  0  0  0  0  0  0  0  0  0  0  # atno 17321 bound_to 7965
  140.4893  144.1333  150.5947 LP  0  0  0  0  0  0  0  0  0  0  0  0  # atno 17342 bound_to 10162
  140.4189  143.2621  151.9740 LP  0  0  0  0  0  0  0  0  0  0  0  0  # atno 17343 bound_to 10162
  156.3545  130.3836  149.7302 LP  0  0  0  0  0  0  0  0  0  0  0  0  # atno 17370 bound_to 10713
  156.4769  130.8022  151.3038 LP  0  0  0  0  0  0  0  0  0  0  0  0  # atno 17371 bound_to 10713
  139.8704  134.9616  156.4403 LP  0  0  0  0  0  0  0  0  0  0  0  0  # atno 17394 bound_to 11000
  140.8935  133.7831  155.9599 LP  0  0  0  0  0  0  0  0  0  0  0  0  # atno 17395 bound_to 11000

$$$$
