AV-unprocessed.smi:1207|AV-procd|sdf|5057|dock2
  -GOLD-   22720 4 93D 1   1.00000     0.00000
 Structure written by MMmdl.
 53 55  0  0  0  0  0  0  0  0  3 V2000
  152.4779  144.2404  160.3284 C   0  0  0  0  0  0  0  0  0  0  0  0
  152.1593  143.1979  159.2699 C   0  0  0  0  0  0  0  0  0  0  0  0
  151.2526  143.5375  158.2403 C   0  0  0  0  0  0  0  0  0  0  0  0
  150.9812  142.5633  157.2869 C   0  0  0  0  0  0  0  0  0  0  0  0
  150.1466  142.5844  156.1672 N   0  3  0  0  0  0  0  0  0  0  0  0
  150.2077  141.3816  155.5311 C   0  0  0  0  0  0  0  0  0  0  0  0
  151.0743  140.5945  156.2257 N   0  0  0  0  0  0  0  0  0  0  0  0
  151.4993  139.2098  155.9801 C   0  0  0  0  0  0  0  0  0  0  0  0
  150.6662  138.5099  154.8882 C   0  0  2  0  0  0  0  0  0  0  0  0
  150.9058  139.1415  153.6455 O   0  0  0  0  0  0  0  0  0  0  0  0
  149.1562  138.5752  155.1943 C   0  0  0  0  0  0  0  0  0  0  0  0
  148.8569  138.4306  156.6439 N   0  3  1  0  0  0  0  0  0  0  0  0
  147.6049  139.1219  157.0416 C   0  0  0  0  0  0  0  0  0  0  0  0
  148.8955  137.0125  157.0876 C   0  0  0  0  0  0  0  0  0  0  0  0
  150.3066  136.4907  157.1833 C   0  0  0  0  0  0  0  0  0  0  0  0
  150.9041  135.4155  156.4631 C   0  0  0  0  0  0  0  0  0  0  0  0
  150.2888  134.5223  155.4239 C   0  0  0  0  0  0  0  0  0  0  0  0
  152.1695  135.2382  156.8026 N   0  0  0  0  0  0  0  0  0  0  0  0
  152.4488  136.2108  157.7672 O   0  0  0  0  0  0  0  0  0  0  0  0
  151.3263  136.9442  157.9743 C   0  0  0  0  0  0  0  0  0  0  0  0
  151.4212  138.0465  158.9745 C   0  0  0  0  0  0  0  0  0  0  0  0
  151.5772  141.2881  157.3318 C   0  0  0  0  0  0  0  0  0  0  0  0
  152.4714  140.9359  158.3397 C   0  0  0  0  0  0  0  0  0  0  0  0
  152.7607  141.9133  159.3189 C   0  0  0  0  0  0  0  0  0  0  0  0
  153.7335  141.5593  160.4307 C   0  0  0  0  0  0  0  0  0  0  0  0
  151.9273  145.1656  160.1557 H   0  0  0  0  0  0  0  0  0  0  0  0
  153.5415  144.4799  160.3227 H   0  0  0  0  0  0  0  0  0  0  0  0
  152.2102  143.8746  161.3201 H   0  0  0  0  0  0  0  0  0  0  0  0
  150.7899  144.5128  158.1978 H   0  0  0  0  0  0  0  0  0  0  0  0
  149.6674  141.1037  154.6374 H   0  0  0  0  0  0  0  0  0  0  0  0
  152.5583  139.2180  155.7189 H   0  0  0  0  0  0  0  0  0  0  0  0
  151.4186  138.6704  156.9251 H   0  0  0  0  0  0  0  0  0  0  0  0
  150.9961  137.4752  154.8095 H   0  0  0  0  0  0  0  0  0  0  0  0
  150.0814  139.2349  153.1923 H   0  0  0  0  0  0  0  0  0  0  0  0
  148.7319  139.5134  154.8338 H   0  0  0  0  0  0  0  0  0  0  0  0
  148.6631  137.7848  154.6264 H   0  0  0  0  0  0  0  0  0  0  0  0
  146.7369  138.6493  156.5806 H   0  0  0  0  0  0  0  0  0  0  0  0
  147.6119  140.1704  156.7483 H   0  0  0  0  0  0  0  0  0  0  0  0
  147.4676  139.1023  158.1225 H   0  0  0  0  0  0  0  0  0  0  0  0
  148.3675  136.9189  158.0375 H   0  0  0  0  0  0  0  0  0  0  0  0
  148.3386  136.3991  156.3785 H   0  0  0  0  0  0  0  0  0  0  0  0
  149.2292  134.3590  155.6184 H   0  0  0  0  0  0  0  0  0  0  0  0
  150.7709  133.5445  155.4004 H   0  0  0  0  0  0  0  0  0  0  0  0
  150.3800  134.9613  154.4303 H   0  0  0  0  0  0  0  0  0  0  0  0
  150.4899  138.1472  159.5320 H   0  0  0  0  0  0  0  0  0  0  0  0
  151.6247  138.9968  158.4809 H   0  0  0  0  0  0  0  0  0  0  0  0
  152.2220  137.8583  159.6900 H   0  0  0  0  0  0  0  0  0  0  0  0
  152.9276  139.9580  158.3787 H   0  0  0  0  0  0  0  0  0  0  0  0
  154.0994  140.5368  160.3316 H   0  0  0  0  0  0  0  0  0  0  0  0
  153.2506  141.6465  161.4042 H   0  0  0  0  0  0  0  0  0  0  0  0
  154.5967  142.2252  160.4108 H   0  0  0  0  0  0  0  0  0  0  0  0
  149.6161  138.8903  157.1267 H   0  0  0  0  0  0  0  0  0  0  0  0
  149.5735  143.3599  155.8597 H   0  0  0  0  0  0  0  0  0  0  0  0
  1  2  1  0  0  0  0
  1 26  1  0  0  0  0
  1 27  1  0  0  0  0
  1 28  1  0  0  0  0
  2 24  1  0  0  0  0
  2  3  2  0  0  0  0
  3  4  1  0  0  0  0
  3 29  1  0  0  0  0
  4 22  2  0  0  0  0
  4  5  1  0  0  0  0
  5  6  2  0  0  0  0
  5 53  1  0  0  0  0
  6  7  1  0  0  0  0
  6 30  1  0  0  0  0
  7  8  1  0  0  0  0
  7 22  1  0  0  0  0
  8  9  1  0  0  0  0
  8 31  1  0  0  0  0
  8 32  1  0  0  0  0
  9 10  1  0  0  0  0
  9 11  1  0  0  0  0
  9 33  1  0  0  0  0
 10 34  1  0  0  0  0
 11 12  1  0  0  0  0
 11 35  1  0  0  0  0
 11 36  1  0  0  0  0
 12 13  1  0  0  0  0
 12 14  1  0  0  0  0
 12 52  1  0  0  0  0
 13 37  1  0  0  0  0
 13 38  1  0  0  0  0
 13 39  1  0  0  0  0
 14 15  1  0  0  0  0
 14 40  1  0  0  0  0
 14 41  1  0  0  0  0
 15 20  2  0  0  0  0
 15 16  1  0  0  0  0
 16 17  1  0  0  0  0
 16 18  2  0  0  0  0
 17 42  1  0  0  0  0
 17 43  1  0  0  0  0
 17 44  1  0  0  0  0
 18 19  1  0  0  0  0
 19 20  1  0  0  0  0
 20 21  1  0  0  0  0
 21 45  1  0  0  0  0
 21 46  1  0  0  0  0
 21 47  1  0  0  0  0
 22 23  1  0  0  0  0
 23 24  2  0  0  0  0
 23 48  1  0  0  0  0
 24 25  1  0  0  0  0
 25 49  1  0  0  0  0
 25 50  1  0  0  0  0
 25 51  1  0  0  0  0
M  CHG  1   5   1
M  CHG  1  12   1
M  END
> <s_m_source_file>
AV-unprocessed.smi

> <i_m_source_file_index>
1207

> <i_lp_mmshare_version>
43012

> <i_f3d_flags>
0

> <s_epik_input>
W0NIM11jKFtjSF0xKWMoW0NIM10pW2NIXWMoYzEyKW4oW2NIXW4yKVtDSDJdW0NASF0oW09IXSlbQ0gyXU4oW0NIM10pW0NIMl1jM2MoW0NIM10pbm9jM1tDSDNd

> <s_epik_cmdline>
J2VwaWtfcHl0aG9uJywgJy1waCcsICc3LjAnLCAnLXRuJywgJzgnLCAnLW1hJywgJzIwMCcsICctbWV0YWxfYmluZGluZycsICctaW1hZScsICc8aW5maWxlLm1hZT4nLCAnLW9tYWUnLCAnPG91dGZpbGUubWFlPic=

> <r_epik_Ionization_Penalty>
1.77463

> <r_epik_Ionization_Penalty_Charging>
1.77463

> <r_epik_Ionization_Penalty_Neutral>
3.70885e-06

> <r_epik_State_Penalty>
1.85225

> <r_epik_Charging_Adjusted_Penalty>
3.62688

> <i_epik_Tot_Q>
2

> <i_epik_Tot_abs_Q>
2

> <r_epik_Metal_State_Penalty>
1.92674

> <b_epik_Metal_Only>
0

> <s_lp_Force_Field>
OPLS_2005

> <r_lp_Energy>
17.578

> <b_lp_Chiralities_Consistent>
1

> <s_lp_Variant>
AV-unprocessed.smi:1207-9

> <Gold.Version>
5.8.1

> <Gold.Id.Protein>
6NUR|6NUR_protein|mol2

> <Gold.PLP.Fitness>
53.0751

> <Gold.PLP.PLP>
-41.8691

> <Gold.PLP.part.hbond>
-4.6601

> <Gold.PLP.part.metal>
0.0000

> <Gold.PLP.part.buried>
-2.3462

> <Gold.PLP.part.nonpolar>
-33.5026

> <Gold.PLP.part.repulsive>
0.1192

> <Gold.PLP.ligand.clash>
0.0000

> <Gold.PLP.ligand.torsion>
0.7712

> <Gold.PLP.Chemscore.Hbond>
4.2088

> <Gold.PLP.Chemscore.CHOScore>
0.0000

> <Gold.PLP.Chemscore.Metal>
0.0000

> <Gold.Chemscore.Hbonds>
donor molecule, donor type, donor heavy atom, donor atom, acceptor molecule, acceptor atom, score
      L1  H     5    53       P1  8028  2.00
      L1  H    10    34       P1  7957  0.31
      P1  H  7989  7998       L1    10  0.91
      P1  H 10752 10764       L1    18  1.00

> <Gold.PLP.Chemscore.Internal.Correction>
0.1221

> <Gold.Rescore>
     Score         DG    S(hbond)    S(metal)    S(lipo)     H(rot)  DE(clash)    DE(int)     intcor
     18.51     -21.95       2.82        0.00     115.64       2.54       0.58       2.86       ----

> <Gold.Chemscore.Fitness>
18.5080

> <Gold.Chemscore.DG>
-21.9468

> <Gold.Chemscore.ZeroCoef>
-5.4800

> <Gold.Chemscore.Hbond>
2.8224

> <Gold.Chemscore.Metal>
0.0000

> <Gold.Chemscore.Lipo>
115.6411

> <Gold.Chemscore.Internal_Hbond>
0.0000

> <Gold.Chemscore.DEClash>
0.5768

> <Gold.Chemscore.DEInternal>
2.8621

> <Gold.Chemscore.Rot>
2.5351

> <Gold.Chemscore.Internal.Correction>
   9.000000E+99

> <Gold.Chemscore.Hbonds>
donor molecule, donor type, donor heavy atom, donor atom, acceptor molecule, acceptor atom, score
      L1  H     5    53       P1  8028  0.93
      L1  H    10    34       P1  7957  0.30
      P1  H  7989  7998       L1    10  0.31
      P1  H 10752 10764       L1    18  0.38

> <Gold.Chemscore.Hbond.Weighted>
-9.4268

> <Gold.Chemscore.Metal.Weighted>
-0.0000

> <Gold.Chemscore.Lipo.Weighted>
-13.5300

> <Gold.Chemscore.Internal_Hbond.Weighted>
0.0000

> <Gold.Chemscore.DEClash.Weighted>
0.5768

> <Gold.Chemscore.DEInternal.Weighted>
2.8621

> <Gold.Chemscore.Rot.Weighted>
6.4900

> <Gold.Chemscore.Internal.Correction.Weighted>
   9.000000E+99

> <Gold.Protein.RotatedTorsions>
[ 6907 6896 6895 6894 ] final  179.71 input  -60.11 | X-H torsion
[ 7974 7965 7964 7962 ] final  -85.11 input  175.53 | X-H torsion
[ 8008 7997 7996 7995 ] final -172.11 input   59.86 | X-H torsion
[ 10167 10162 10161 10158 ] final  111.50 input  -65.29 | X-H torsion
[ 10718 10713 10712 10709 ] final -157.82 input   66.30 | X-H torsion
[ 10763 10752 10751 10750 ] final  -28.17 input  -60.55 | X-H torsion
[ 11005 11000 10999 10996 ] final  114.25 input  -57.11 | X-H torsion

> <Gold.Protein.ActiveResidues>
 VAL166  LYS551  ARG553  GLY616  TRP617  ASP618  TYR619  PRO620  LYS621  CYS622 
 ASP623  PHE694  ASN695  SER759  ASP760  ASP761  ALA762  ILE779  LEU786  VAL792 
 PHE793  MET794  SER795  GLU796  ALA797  LYS798  CYS799  TRP800  GLU811  SER814 

> <Gold.Protein.RotatedAtoms>
  151.6673  133.3315  159.3187 H   0  0  0  0  0  0  0  0  0  0  0  0  # atno 6907 bound_to 6896
  150.7884  134.6892  159.6497 H   0  0  0  0  0  0  0  0  0  0  0  0  # atno 6908 bound_to 6896
  152.3959  134.6369  160.0141 H   0  0  0  0  0  0  0  0  0  0  0  0  # atno 6909 bound_to 6896
  145.4976  140.9549  143.1777 H   0  0  0  0  0  0  0  0  0  0  0  0  # atno 7974 bound_to 7965
  155.9403  140.1107  157.1061 H   0  0  0  0  0  0  0  0  0  0  0  0  # atno 8008 bound_to 7997
  154.4088  140.1220  156.4985 H   0  0  0  0  0  0  0  0  0  0  0  0  # atno 8009 bound_to 7997
  155.6970  140.3472  155.4919 H   0  0  0  0  0  0  0  0  0  0  0  0  # atno 8010 bound_to 7997
  139.6606  144.7129  151.1872 H   0  0  0  0  0  0  0  0  0  0  0  0  # atno 10167 bound_to 10162
  156.5456  130.8582  151.2763 H   0  0  0  0  0  0  0  0  0  0  0  0  # atno 10718 bound_to 10713
  153.7439  135.6930  153.4960 H   0  0  0  0  0  0  0  0  0  0  0  0  # atno 10763 bound_to 10752
  153.2050  135.4423  155.0310 H   0  0  0  0  0  0  0  0  0  0  0  0  # atno 10764 bound_to 10752
  154.8211  135.3422  154.6963 H   0  0  0  0  0  0  0  0  0  0  0  0  # atno 10765 bound_to 10752
  139.8975  134.9564  156.6864 H   0  0  0  0  0  0  0  0  0  0  0  0  # atno 11005 bound_to 11000
  144.7798  139.6550  143.7159 LP  0  0  0  0  0  0  0  0  0  0  0  0  # atno 17320 bound_to 7965
  146.2246  139.5698  142.9596 LP  0  0  0  0  0  0  0  0  0  0  0  0  # atno 17321 bound_to 7965
  140.7578  143.6000  150.8709 LP  0  0  0  0  0  0  0  0  0  0  0  0  # atno 17342 bound_to 10162
  139.9657  143.6113  152.2989 LP  0  0  0  0  0  0  0  0  0  0  0  0  # atno 17343 bound_to 10162
  157.7397  130.9837  150.2331 LP  0  0  0  0  0  0  0  0  0  0  0  0  # atno 17370 bound_to 10713
  156.2931  130.3748  149.7822 LP  0  0  0  0  0  0  0  0  0  0  0  0  # atno 17371 bound_to 10713
  140.7259  133.9100  155.8178 LP  0  0  0  0  0  0  0  0  0  0  0  0  # atno 17394 bound_to 11000
  141.0191  134.0914  157.4140 LP  0  0  0  0  0  0  0  0  0  0  0  0  # atno 17395 bound_to 11000

$$$$
