AV-unprocessed.smi:1146|AV-procd|sdf|4886|dock8
  -GOLD-   22720 3463D 1   1.00000     0.00000
 Structure written by MMmdl.
 46 47  0  0  0  0  0  0  0  0  1 V2000
  151.4169  144.8363  159.5052 C   0  0  0  0  0  0  0  0  0  0  0  0
  152.7115  144.0831  159.1747 C   0  0  0  0  0  0  0  0  0  0  0  0
  152.4446  142.6810  158.8637 N   0  0  0  0  0  0  0  0  0  0  0  0
  151.6310  142.2134  157.8885 C   0  0  0  0  0  0  0  0  0  0  0  0
  150.9784  142.8998  157.1025 O   0  0  0  0  0  0  0  0  0  0  0  0
  151.6577  140.8600  157.9289 N   0  0  0  0  0  0  0  0  0  0  0  0
  150.9118  139.9512  157.0540 C   0  0  0  0  0  0  0  0  0  0  0  0
  151.7845  139.2402  155.9859 C   0  0  0  0  0  0  0  0  0  0  0  0
  152.8084  138.2443  156.5647 C   0  0  0  0  0  0  0  0  0  0  0  0
  150.8814  138.5365  154.9586 C   0  0  0  0  0  0  0  0  0  0  0  0
  152.4854  140.2279  155.2561 O   0  0  0  0  0  0  0  0  0  0  0  0
  152.5042  140.4503  158.9718 C   0  0  0  0  0  0  0  0  0  0  0  0
  152.8663  139.1683  159.4220 C   0  0  0  0  0  0  0  0  0  0  0  0
  153.7614  139.1052  160.5161 C   0  0  0  0  0  0  0  0  0  0  0  0
  154.2668  137.5151  161.1576 S   0  0  0  0  0  0  0  0  0  0  0  0
  154.2813  137.5590  162.6285 O   0  0  0  0  0  0  0  0  0  0  0  0
  153.4832  136.4895  160.4517 O   0  0  0  0  0  0  0  0  0  0  0  0
  155.9082  137.4023  160.6139 N   0  0  0  0  0  0  0  0  0  0  0  0
  156.5444  138.6145  160.0879 C   0  0  0  0  0  0  0  0  0  0  0  0
  156.3106  136.1692  159.9306 C   0  0  0  0  0  0  0  0  0  0  0  0
  154.2605  140.2820  161.1323 C   0  0  0  0  0  0  0  0  0  0  0  0
  153.8794  141.5574  160.6548 C   0  0  0  0  0  0  0  0  0  0  0  0
  152.9962  141.5974  159.5612 C   0  0  0  0  0  0  0  0  0  0  0  0
  151.6246  145.8821  159.7319 H   0  0  0  0  0  0  0  0  0  0  0  0
  150.9170  144.4012  160.3712 H   0  0  0  0  0  0  0  0  0  0  0  0
  150.7203  144.8106  158.6667 H   0  0  0  0  0  0  0  0  0  0  0  0
  153.2113  144.5601  158.3303 H   0  0  0  0  0  0  0  0  0  0  0  0
  153.4070  144.1491  160.0116 H   0  0  0  0  0  0  0  0  0  0  0  0
  150.4318  139.2013  157.6825 H   0  0  0  0  0  0  0  0  0  0  0  0
  150.0883  140.4885  156.5799 H   0  0  0  0  0  0  0  0  0  0  0  0
  152.3137  137.4660  157.1461 H   0  0  0  0  0  0  0  0  0  0  0  0
  153.5348  138.7340  157.2139 H   0  0  0  0  0  0  0  0  0  0  0  0
  153.3707  137.7516  155.7708 H   0  0  0  0  0  0  0  0  0  0  0  0
  150.2953  137.7447  155.4266 H   0  0  0  0  0  0  0  0  0  0  0  0
  151.4660  138.0812  154.1581 H   0  0  0  0  0  0  0  0  0  0  0  0
  150.1813  139.2348  154.4976 H   0  0  0  0  0  0  0  0  0  0  0  0
  151.8690  140.8828  154.9648 H   0  0  0  0  0  0  0  0  0  0  0  0
  152.4828  138.2749  158.9530 H   0  0  0  0  0  0  0  0  0  0  0  0
  157.6126  138.4560  159.9375 H   0  0  0  0  0  0  0  0  0  0  0  0
  156.4245  139.4431  160.7857 H   0  0  0  0  0  0  0  0  0  0  0  0
  156.0937  138.8927  159.1347 H   0  0  0  0  0  0  0  0  0  0  0  0
  157.3974  136.0921  159.8840 H   0  0  0  0  0  0  0  0  0  0  0  0
  155.9133  136.1536  158.9153 H   0  0  0  0  0  0  0  0  0  0  0  0
  155.9316  135.2975  160.4642 H   0  0  0  0  0  0  0  0  0  0  0  0
  154.9370  140.2048  161.9708 H   0  0  0  0  0  0  0  0  0  0  0  0
  154.2536  142.4598  161.1150 H   0  0  0  0  0  0  0  0  0  0  0  0
  1  2  1  0  0  0  0
  1 24  1  0  0  0  0
  1 25  1  0  0  0  0
  1 26  1  0  0  0  0
  2  3  1  0  0  0  0
  2 27  1  0  0  0  0
  2 28  1  0  0  0  0
  3 23  1  0  0  0  0
  3  4  1  0  0  0  0
  4  5  2  0  0  0  0
  4  6  1  0  0  0  0
  6  7  1  0  0  0  0
  6 12  1  0  0  0  0
  7  8  1  0  0  0  0
  7 29  1  0  0  0  0
  7 30  1  0  0  0  0
  8  9  1  0  0  0  0
  8 10  1  0  0  0  0
  8 11  1  0  0  0  0
  9 31  1  0  0  0  0
  9 32  1  0  0  0  0
  9 33  1  0  0  0  0
 10 34  1  0  0  0  0
 10 35  1  0  0  0  0
 10 36  1  0  0  0  0
 11 37  1  0  0  0  0
 12 23  2  0  0  0  0
 12 13  1  0  0  0  0
 13 14  2  0  0  0  0
 13 38  1  0  0  0  0
 14 15  1  0  0  0  0
 14 21  1  0  0  0  0
 15 16  2  0  0  0  0
 15 17  2  0  0  0  0
 15 18  1  0  0  0  0
 18 19  1  0  0  0  0
 18 20  1  0  0  0  0
 19 39  1  0  0  0  0
 19 40  1  0  0  0  0
 19 41  1  0  0  0  0
 20 42  1  0  0  0  0
 20 43  1  0  0  0  0
 20 44  1  0  0  0  0
 21 22  2  0  0  0  0
 21 45  1  0  0  0  0
 22 23  1  0  0  0  0
 22 46  1  0  0  0  0
M  END
> <s_m_source_file>
AV-unprocessed.smi

> <i_m_source_file_index>
1146

> <i_lp_mmshare_version>
43012

> <i_f3d_flags>
0

> <s_epik_input>
W0NIM11DKFtDSDNdKShbT0hdKVtDSDJdbjFjKD1PKW4oW0NIMl1bQ0gzXSljKGMxMilbY0hdW2NIXWMoW2NIXTIpUyg9TykoPU8pTihbQ0gzXSlbQ0gzXQ==

> <s_epik_cmdline>
J2VwaWtfcHl0aG9uJywgJy1waCcsICc3LjAnLCAnLXRuJywgJzgnLCAnLW1hJywgJzIwMCcsICctbWV0YWxfYmluZGluZycsICctaW1hZScsICc8aW5maWxlLm1hZT4nLCAnLW9tYWUnLCAnPG91dGZpbGUubWFlPic=

> <r_lp_tautomer_probability>
1

> <r_epik_Ionization_Penalty>
3.29736e-08

> <r_epik_Ionization_Penalty_Charging>
1.95861e-09

> <r_epik_Ionization_Penalty_Neutral>
3.1015e-08

> <r_epik_State_Penalty>
-0

> <r_epik_Charging_Adjusted_Penalty>
1.95861e-09

> <i_epik_Tot_Q>
0

> <i_epik_Tot_abs_Q>
0

> <r_epik_Metal_State_Penalty>
-0

> <b_epik_Metal_Only>
0

> <s_lp_Force_Field>
OPLS_2005

> <r_lp_Energy>
36.7985

> <b_lp_Chiralities_Consistent>
1

> <s_lp_Variant>
AV-unprocessed.smi:1146-1

> <Gold.Version>
5.8.1

> <Gold.Id.Protein>
6NUR|6NUR_protein|mol2

> <Gold.PLP.Fitness>
46.7504

> <Gold.PLP.PLP>
-41.2055

> <Gold.PLP.part.hbond>
-3.0000

> <Gold.PLP.part.metal>
0.0000

> <Gold.PLP.part.buried>
-4.5831

> <Gold.PLP.part.nonpolar>
-34.5793

> <Gold.PLP.part.repulsive>
0.2219

> <Gold.PLP.ligand.clash>
0.0000

> <Gold.PLP.ligand.torsion>
1.6343

> <Gold.PLP.Chemscore.Hbond>
2.0000

> <Gold.PLP.Chemscore.CHOScore>
0.0000

> <Gold.PLP.Chemscore.Metal>
0.0000

> <Gold.Chemscore.Hbonds>
donor molecule, donor type, donor heavy atom, donor atom, acceptor molecule, acceptor atom, score
      P1  H  6896  6908       L1    17  0.98
      P1  H  7997  8009       L1    11  0.96

> <Gold.PLP.Chemscore.Internal.Correction>
2.8134

> <Gold.Rescore>
     Score         DG    S(hbond)    S(metal)    S(lipo)     H(rot)  DE(clash)    DE(int)     intcor
     15.59     -18.53       1.92        0.00     101.28       2.04       0.24       2.70       ----

> <Gold.Chemscore.Fitness>
15.5871

> <Gold.Chemscore.DG>
-18.5266

> <Gold.Chemscore.ZeroCoef>
-5.4800

> <Gold.Chemscore.Hbond>
1.9205

> <Gold.Chemscore.Metal>
0.0000

> <Gold.Chemscore.Lipo>
101.2833

> <Gold.Chemscore.Internal_Hbond>
0.0000

> <Gold.Chemscore.DEClash>
0.2442

> <Gold.Chemscore.DEInternal>
2.6953

> <Gold.Chemscore.Rot>
2.0383

> <Gold.Chemscore.Internal.Correction>
   9.000000E+99

> <Gold.Chemscore.Hbonds>
donor molecule, donor type, donor heavy atom, donor atom, acceptor molecule, acceptor atom, score
      P1  H  6896  6908       L1    17  0.91
      P1  H  7997  8009       L1    11  0.49

> <Gold.Chemscore.Hbond.Weighted>
-6.4146

> <Gold.Chemscore.Metal.Weighted>
-0.0000

> <Gold.Chemscore.Lipo.Weighted>
-11.8501

> <Gold.Chemscore.Internal_Hbond.Weighted>
0.0000

> <Gold.Chemscore.DEClash.Weighted>
0.2442

> <Gold.Chemscore.DEInternal.Weighted>
2.6953

> <Gold.Chemscore.Rot.Weighted>
5.2181

> <Gold.Chemscore.Internal.Correction.Weighted>
   9.000000E+99

> <Gold.Protein.RotatedTorsions>
[ 6907 6896 6895 6894 ] final  -83.02 input  -60.11 | X-H torsion
[ 7974 7965 7964 7962 ] final   87.83 input  175.53 | X-H torsion
[ 8008 7997 7996 7995 ] final -142.11 input   59.86 | X-H torsion
[ 10167 10162 10161 10158 ] final  115.68 input  -65.29 | X-H torsion
[ 10718 10713 10712 10709 ] final   85.50 input   66.30 | X-H torsion
[ 10763 10752 10751 10750 ] final  -28.88 input  -60.55 | X-H torsion
[ 11005 11000 10999 10996 ] final   23.10 input  -57.11 | X-H torsion

> <Gold.Protein.ActiveResidues>
 VAL166  LYS551  ARG553  GLY616  TRP617  ASP618  TYR619  PRO620  LYS621  CYS622 
 ASP623  PHE694  ASN695  SER759  ASP760  ASP761  ALA762  ILE779  LEU786  VAL792 
 PHE793  MET794  SER795  GLU796  ALA797  LYS798  CYS799  TRP800  GLU811  SER814 

> <Gold.Protein.RotatedAtoms>
  150.6890  134.3575  159.4935 H   0  0  0  0  0  0  0  0  0  0  0  0  # atno 6907 bound_to 6896
  152.1408  134.9061  160.0563 H   0  0  0  0  0  0  0  0  0  0  0  0  # atno 6908 bound_to 6896
  152.0195  133.3858  159.4289 H   0  0  0  0  0  0  0  0  0  0  0  0  # atno 6909 bound_to 6896
  145.5538  139.2298  143.2497 H   0  0  0  0  0  0  0  0  0  0  0  0  # atno 7974 bound_to 7965
  155.4888  140.0566  157.2956 H   0  0  0  0  0  0  0  0  0  0  0  0  # atno 8008 bound_to 7997
  154.4631  140.2006  156.0142 H   0  0  0  0  0  0  0  0  0  0  0  0  # atno 8009 bound_to 7997
  156.0926  140.3231  155.7840 H   0  0  0  0  0  0  0  0  0  0  0  0  # atno 8010 bound_to 7997
  139.6300  144.7113  151.2453 H   0  0  0  0  0  0  0  0  0  0  0  0  # atno 10167 bound_to 10162
  157.6915  131.0177  150.2832 H   0  0  0  0  0  0  0  0  0  0  0  0  # atno 10718 bound_to 10713
  153.7556  135.6923  153.4936 H   0  0  0  0  0  0  0  0  0  0  0  0  # atno 10763 bound_to 10752
  153.1973  135.4449  155.0222 H   0  0  0  0  0  0  0  0  0  0  0  0  # atno 10764 bound_to 10752
  154.8171  135.3404  154.7074 H   0  0  0  0  0  0  0  0  0  0  0  0  # atno 10765 bound_to 10752
  140.3733  134.1999  155.7666 H   0  0  0  0  0  0  0  0  0  0  0  0  # atno 11005 bound_to 11000
  146.1898  140.6362  142.9151 LP  0  0  0  0  0  0  0  0  0  0  0  0  # atno 17320 bound_to 7965
  144.7516  140.5205  143.6798 LP  0  0  0  0  0  0  0  0  0  0  0  0  # atno 17321 bound_to 7965
  140.7433  143.6498  150.8259 LP  0  0  0  0  0  0  0  0  0  0  0  0  # atno 17342 bound_to 10162
  140.0122  143.5631  152.2834 LP  0  0  0  0  0  0  0  0  0  0  0  0  # atno 17343 bound_to 10162
  156.3375  130.3810  149.7437 LP  0  0  0  0  0  0  0  0  0  0  0  0  # atno 17370 bound_to 10713
  156.4957  130.8105  151.3112 LP  0  0  0  0  0  0  0  0  0  0  0  0  # atno 17371 bound_to 10713
  141.1947  133.8121  157.0744 LP  0  0  0  0  0  0  0  0  0  0  0  0  # atno 17394 bound_to 11000
  140.0535  134.9793  157.1178 LP  0  0  0  0  0  0  0  0  0  0  0  0  # atno 17395 bound_to 11000

$$$$
