AV-unprocessed.smi:36|AV-procd|sdf|290|dock5
  -GOLD-   2262016 73D 1   1.00000     0.00000
 Structure written by MMmdl.
 64 67  0  0  0  0  0  0  0  0  1 V2000
  150.3491  128.8745  155.0759 C   0  0  0  0  0  0  0  0  0  0  0  0
  151.6994  128.9212  155.8100 C   0  0  0  0  0  0  0  0  0  0  0  0
  151.9393  127.5939  156.5486 C   0  0  0  0  0  0  0  0  0  0  0  0
  152.8348  129.1647  154.8018 C   0  0  0  0  0  0  0  0  0  0  0  0
  151.6830  130.3472  157.0816 Si  0  0  0  0  0  0  0  0  0  0  0  0
  150.4511  129.9962  158.4856 C   0  0  0  0  0  0  0  0  0  0  0  0
  153.4148  130.6461  157.8040 C   0  0  0  0  0  0  0  0  0  0  0  0
  151.1943  131.7530  156.2786 O   0  0  0  0  0  0  0  0  0  0  0  0
  149.9280  131.9040  155.6728 C   0  0  0  0  0  0  0  0  0  0  0  0
  149.4673  133.3586  155.8425 C   0  0  1  0  0  0  0  0  0  0  0  0
  150.5708  134.2620  155.7762 O   0  0  0  0  0  0  0  0  0  0  0  0
  150.1936  135.4442  155.1360 C   0  0  2  0  0  0  0  0  0  0  0  0
  150.5254  136.6022  156.0210 N   0  0  0  0  0  0  0  0  0  0  0  0
  150.9252  136.5309  157.3044 C   0  0  0  0  0  0  0  0  0  0  0  0
  151.1669  137.6987  157.8935 N   0  0  0  0  0  0  0  0  0  0  0  0
  150.8871  138.6124  156.8827 C   0  0  0  0  0  0  0  0  0  0  0  0
  150.9571  140.0897  156.8860 C   0  0  0  0  0  0  0  0  0  0  0  0
  151.3519  140.6717  157.9779 N   0  0  0  0  0  0  0  0  0  0  0  0
  151.4357  142.0567  158.0392 C   0  0  0  0  0  0  0  0  0  0  0  0
  151.1822  142.8865  157.1615 O   0  0  0  0  0  0  0  0  0  0  0  0
  151.9518  142.5587  159.3485 C   0  0  0  0  0  0  0  0  0  0  0  0
  152.6024  141.6762  160.2370 C   0  0  0  0  0  0  0  0  0  0  0  0
  153.0841  142.1473  161.4741 C   0  0  0  0  0  0  0  0  0  0  0  0
  152.9146  143.5002  161.8275 C   0  0  0  0  0  0  0  0  0  0  0  0
  152.2621  144.3825  160.9444 C   0  0  0  0  0  0  0  0  0  0  0  0
  151.7804  143.9130  159.7066 C   0  0  0  0  0  0  0  0  0  0  0  0
  150.5659  140.5871  155.6362 N   0  0  0  0  0  0  0  0  0  0  0  0
  150.1775  139.8173  154.5292 C   0  0  0  0  0  0  0  0  0  0  0  0
  150.1218  138.5125  154.5100 N   0  0  0  0  0  0  0  0  0  0  0  0
  150.4899  137.9657  155.7317 C   0  0  0  0  0  0  0  0  0  0  0  0
  148.6889  135.3686  154.8702 C   0  0  0  0  0  0  0  0  0  0  0  0
  148.4700  133.8720  154.7947 C   0  0  1  0  0  0  0  0  0  0  0  0
  148.7597  133.3853  153.4974 O   0  0  0  0  0  0  0  0  0  0  0  0
  150.3239  128.0660  154.3446 H   0  0  0  0  0  0  0  0  0  0  0  0
  150.1543  129.8053  154.5427 H   0  0  0  0  0  0  0  0  0  0  0  0
  149.5242  128.7143  155.7704 H   0  0  0  0  0  0  0  0  0  0  0  0
  151.1471  127.3906  157.2694 H   0  0  0  0  0  0  0  0  0  0  0  0
  152.8837  127.6097  157.0936 H   0  0  0  0  0  0  0  0  0  0  0  0
  151.9738  126.7540  155.8539 H   0  0  0  0  0  0  0  0  0  0  0  0
  152.8911  128.3618  154.0660 H   0  0  0  0  0  0  0  0  0  0  0  0
  153.8024  129.2224  155.3016 H   0  0  0  0  0  0  0  0  0  0  0  0
  152.6900  130.0982  154.2577 H   0  0  0  0  0  0  0  0  0  0  0  0
  150.6918  129.0709  159.0081 H   0  0  0  0  0  0  0  0  0  0  0  0
  149.4324  129.9032  158.1099 H   0  0  0  0  0  0  0  0  0  0  0  0
  150.4507  130.7948  159.2271 H   0  0  0  0  0  0  0  0  0  0  0  0
  153.7971  129.7598  158.3095 H   0  0  0  0  0  0  0  0  0  0  0  0
  153.4081  131.4570  158.5320 H   0  0  0  0  0  0  0  0  0  0  0  0
  154.1319  130.9137  157.0282 H   0  0  0  0  0  0  0  0  0  0  0  0
  149.9724  131.6264  154.6195 H   0  0  0  0  0  0  0  0  0  0  0  0
  149.2289  131.2264  156.1640 H   0  0  0  0  0  0  0  0  0  0  0  0
  149.0062  133.4736  156.8245 H   0  0  0  0  0  0  0  0  0  0  0  0
  150.7868  135.5839  154.2312 H   0  0  0  0  0  0  0  0  0  0  0  0
  151.0472  135.5913  157.8230 H   0  0  0  0  0  0  0  0  0  0  0  0
  152.7354  140.6365  159.9735 H   0  0  0  0  0  0  0  0  0  0  0  0
  153.5828  141.4706  162.1526 H   0  0  0  0  0  0  0  0  0  0  0  0
  153.2836  143.8605  162.7765 H   0  0  0  0  0  0  0  0  0  0  0  0
  152.1298  145.4192  161.2170 H   0  0  0  0  0  0  0  0  0  0  0  0
  151.2788  144.5953  159.0354 H   0  0  0  0  0  0  0  0  0  0  0  0
  149.9153  140.4063  153.6491 H   0  0  0  0  0  0  0  0  0  0  0  0
  148.1388  135.7839  155.7159 H   0  0  0  0  0  0  0  0  0  0  0  0
  148.4133  135.9144  153.9672 H   0  0  0  0  0  0  0  0  0  0  0  0
  147.4444  133.5984  155.0442 H   0  0  0  0  0  0  0  0  0  0  0  0
  147.9490  133.3192  153.0163 H   0  0  0  0  0  0  0  0  0  0  0  0
  150.5694  141.5905  155.5212 H   0  0  0  0  0  0  0  0  0  0  0  0
  1  2  1  0  0  0  0
  1 34  1  0  0  0  0
  1 35  1  0  0  0  0
  1 36  1  0  0  0  0
  2  3  1  0  0  0  0
  2  4  1  0  0  0  0
  2  5  1  0  0  0  0
  3 37  1  0  0  0  0
  3 38  1  0  0  0  0
  3 39  1  0  0  0  0
  4 40  1  0  0  0  0
  4 41  1  0  0  0  0
  4 42  1  0  0  0  0
  5  6  1  0  0  0  0
  5  7  1  0  0  0  0
  5  8  1  0  0  0  0
  6 43  1  0  0  0  0
  6 44  1  0  0  0  0
  6 45  1  0  0  0  0
  7 46  1  0  0  0  0
  7 47  1  0  0  0  0
  7 48  1  0  0  0  0
  8  9  1  0  0  0  0
  9 10  1  0  0  0  0
  9 49  1  0  0  0  0
  9 50  1  0  0  0  0
 10 32  1  0  0  0  0
 10 11  1  0  0  0  0
 10 51  1  0  0  0  0
 11 12  1  0  0  0  0
 12 13  1  0  0  0  0
 12 31  1  0  0  0  0
 12 52  1  0  0  0  0
 13 30  1  0  0  0  0
 13 14  1  0  0  0  0
 14 15  2  0  0  0  0
 14 53  1  0  0  0  0
 15 16  1  0  0  0  0
 16 30  2  0  0  0  0
 16 17  1  0  0  0  0
 17 18  2  0  0  0  0
 17 27  1  0  0  0  0
 18 19  1  0  0  0  0
 19 20  2  0  0  0  0
 19 21  1  0  0  0  0
 21 26  1  0  0  0  0
 21 22  2  0  0  0  0
 22 23  1  0  0  0  0
 22 54  1  0  0  0  0
 23 24  2  0  0  0  0
 23 55  1  0  0  0  0
 24 25  1  0  0  0  0
 24 56  1  0  0  0  0
 25 26  2  0  0  0  0
 25 57  1  0  0  0  0
 26 58  1  0  0  0  0
 27 28  1  0  0  0  0
 27 64  1  0  0  0  0
 28 29  2  0  0  0  0
 28 59  1  0  0  0  0
 29 30  1  0  0  0  0
 31 32  1  0  0  0  0
 31 60  1  0  0  0  0
 31 61  1  0  0  0  0
 32 33  1  0  0  0  0
 32 62  1  0  0  0  0
 33 63  1  0  0  0  0
M  END
> <s_m_source_file>
AV-unprocessed.smi

> <i_m_source_file_index>
36

> <i_lp_mmshare_version>
43012

> <i_f3d_flags>
0

> <s_epik_input>
W0NIM11DKFtDSDNdKShbQ0gzXSlbU2ldKFtDSDNdKShbQ0gzXSlPW0NIMl1bQ0BASF0xT1tDQEhdKFtDSDJdW0NASF0xW09IXSluKFtjSF1uMiljKGMyMyluW2NIXW5jM1tOSF1DKD1PKWM0W2NIXVtjSF1bY0hdW2NIXVtjSF00

> <s_epik_cmdline>
J2VwaWtfcHl0aG9uJywgJy1waCcsICc3LjAnLCAnLXRuJywgJzgnLCAnLW1hJywgJzIwMCcsICctbWV0YWxfYmluZGluZycsICctaW1hZScsICc8aW5maWxlLm1hZT4nLCAnLW9tYWUnLCAnPG91dGZpbGUubWFlPic=

> <r_epik_Ionization_Penalty>
0.0850405

> <r_epik_Ionization_Penalty_Charging>
0.0850403

> <r_epik_Ionization_Penalty_Neutral>
1.47497e-07

> <r_epik_State_Penalty>
2.6133

> <r_epik_Charging_Adjusted_Penalty>
2.69834

> <i_epik_Tot_Q>
0

> <i_epik_Tot_abs_Q>
0

> <r_epik_Metal_State_Penalty>
2.92945

> <b_epik_Metal_Only>
0

> <s_epik_Chemistry_Notes>
This compound contains an acetal/aminal-like group ( X-CH(R)-Y where X, Y are N, S, or O) that may be acid/base labile, releasing an aldehyde.

> <s_lp_Force_Field>
OPLS_2005

> <r_lp_Energy>
50.4083

> <b_lp_Chiralities_Consistent>
1

> <s_lp_Variant>
AV-unprocessed.smi:36-12

> <Gold.Version>
5.8.1

> <Gold.Id.Protein>
6NUR|6NUR_protein|mol2

> <Gold.PLP.Fitness>
48.9000

> <Gold.PLP.PLP>
-47.7062

> <Gold.PLP.part.hbond>
-0.9322

> <Gold.PLP.part.metal>
0.0000

> <Gold.PLP.part.buried>
-3.8410

> <Gold.PLP.part.nonpolar>
-42.6432

> <Gold.PLP.part.repulsive>
0.4894

> <Gold.PLP.ligand.clash>
0.0000

> <Gold.PLP.ligand.torsion>
1.0153

> <Gold.PLP.Chemscore.Hbond>
0.0000

> <Gold.PLP.Chemscore.CHOScore>
0.9996

> <Gold.PLP.Chemscore.Metal>
0.0000

> <Gold.Chemscore.Hbonds>
donor molecule, donor type, donor heavy atom, donor atom, acceptor molecule, acceptor atom, score
      L1  C    28    59       P1  7957  1.00

> <Gold.PLP.Chemscore.Internal.Correction>
0.2254

> <Gold.Rescore>
     Score         DG    S(hbond)    S(metal)    S(lipo)     H(rot)  DE(clash)    DE(int)     intcor
     10.70     -11.53       0.00        0.00     110.85       2.70       0.02       0.81       ----

> <Gold.Chemscore.Fitness>
10.6962

> <Gold.Chemscore.DG>
-11.5266

> <Gold.Chemscore.ZeroCoef>
-5.4800

> <Gold.Chemscore.Hbond>
0.0000

> <Gold.Chemscore.Metal>
0.0000

> <Gold.Chemscore.Lipo>
110.8472

> <Gold.Chemscore.Internal_Hbond>
0.0000

> <Gold.Chemscore.DEClash>
0.0157

> <Gold.Chemscore.DEInternal>
0.8148

> <Gold.Chemscore.Rot>
2.7041

> <Gold.Chemscore.Internal.Correction>
   9.000000E+99

> <Gold.Chemscore.Hbond.Weighted>
-0.0000

> <Gold.Chemscore.Metal.Weighted>
-0.0000

> <Gold.Chemscore.Lipo.Weighted>
-12.9691

> <Gold.Chemscore.Internal_Hbond.Weighted>
0.0000

> <Gold.Chemscore.DEClash.Weighted>
0.0157

> <Gold.Chemscore.DEInternal.Weighted>
0.8148

> <Gold.Chemscore.Rot.Weighted>
6.9225

> <Gold.Chemscore.Internal.Correction.Weighted>
   9.000000E+99

> <Gold.Protein.RotatedTorsions>
[ 6907 6896 6895 6894 ] final   80.50 input  -60.11 | X-H torsion
[ 7974 7965 7964 7962 ] final  110.10 input  175.53 | X-H torsion
[ 8008 7997 7996 7995 ] final   52.43 input   59.86 | X-H torsion
[ 10167 10162 10161 10158 ] final   96.04 input  -65.29 | X-H torsion
[ 10718 10713 10712 10709 ] final   25.63 input   66.30 | X-H torsion
[ 10763 10752 10751 10750 ] final  151.73 input  -60.55 | X-H torsion
[ 11005 11000 10999 10996 ] final -123.67 input  -57.11 | X-H torsion

> <Gold.Protein.ActiveResidues>
 VAL166  LYS551  ARG553  GLY616  TRP617  ASP618  TYR619  PRO620  LYS621  CYS622 
 ASP623  PHE694  ASN695  SER759  ASP760  ASP761  ALA762  ILE779  LEU786  VAL792 
 PHE793  MET794  SER795  GLU796  ALA797  LYS798  CYS799  TRP800  GLU811  SER814 

> <Gold.Protein.RotatedAtoms>
  152.5237  134.3348  159.9195 H   0  0  0  0  0  0  0  0  0  0  0  0  # atno 6907 bound_to 6896
  151.3298  133.3999  159.2669 H   0  0  0  0  0  0  0  0  0  0  0  0  # atno 6908 bound_to 6896
  150.9890  134.9247  159.7946 H   0  0  0  0  0  0  0  0  0  0  0  0  # atno 6909 bound_to 6896
  145.2593  139.2709  143.4026 H   0  0  0  0  0  0  0  0  0  0  0  0  # atno 7974 bound_to 7965
  155.4516  140.3458  155.4301 H   0  0  0  0  0  0  0  0  0  0  0  0  # atno 8008 bound_to 7997
  156.1217  140.1489  156.9225 H   0  0  0  0  0  0  0  0  0  0  0  0  # atno 8009 bound_to 7997
  154.4828  140.0864  156.7396 H   0  0  0  0  0  0  0  0  0  0  0  0  # atno 8010 bound_to 7997
  139.7931  144.6844  150.9865 H   0  0  0  0  0  0  0  0  0  0  0  0  # atno 10167 bound_to 10162
  157.1960  130.6868  149.6169 H   0  0  0  0  0  0  0  0  0  0  0  0  # atno 10718 bound_to 10713
  154.1086  135.2840  155.3235 H   0  0  0  0  0  0  0  0  0  0  0  0  # atno 10763 bound_to 10752
  154.6505  135.5370  153.7900 H   0  0  0  0  0  0  0  0  0  0  0  0  # atno 10764 bound_to 10752
  153.0353  135.6509  154.1246 H   0  0  0  0  0  0  0  0  0  0  0  0  # atno 10765 bound_to 10752
  140.9901  134.0551  157.3665 H   0  0  0  0  0  0  0  0  0  0  0  0  # atno 11005 bound_to 11000
  146.3280  140.3005  142.8620 LP  0  0  0  0  0  0  0  0  0  0  0  0  # atno 17320 bound_to 7965
  144.9433  140.8101  143.5617 LP  0  0  0  0  0  0  0  0  0  0  0  0  # atno 17321 bound_to 7965
  140.7820  143.4359  151.0623 LP  0  0  0  0  0  0  0  0  0  0  0  0  # atno 17342 bound_to 10162
  139.8035  143.8050  152.3165 LP  0  0  0  0  0  0  0  0  0  0  0  0  # atno 17343 bound_to 10162
  155.9706  130.4599  150.6052 LP  0  0  0  0  0  0  0  0  0  0  0  0  # atno 17370 bound_to 10713
  157.3814  131.0781  151.1473 LP  0  0  0  0  0  0  0  0  0  0  0  0  # atno 17371 bound_to 10713
  139.8988  135.0156  156.7166 LP  0  0  0  0  0  0  0  0  0  0  0  0  # atno 17394 bound_to 11000
  140.7054  133.9270  155.8050 LP  0  0  0  0  0  0  0  0  0  0  0  0  # atno 17395 bound_to 11000

$$$$
