AV-unprocessed.smi:447|AV-procd|sdf|2599|dock1
  -GOLD-   2262022593D 1   1.00000     0.00000
 Structure written by MMmdl.
 45 47  0  0  0  0  0  0  0  0  1 V2000
  150.9037  135.2191  156.5409 C   0  0  0  0  0  0  0  0  0  0  0  0
  151.2121  136.5238  155.8135 C   0  0  0  0  0  0  0  0  0  0  0  0
  151.3477  136.5242  154.5907 O   0  0  0  0  0  0  0  0  0  0  0  0
  151.3170  137.6260  156.5727 N   0  0  0  0  0  0  0  0  0  0  0  0
  151.5855  138.9750  156.0748 C   0  0  2  0  0  0  0  0  0  0  0  0
  152.6674  138.9298  154.9881 C   0  0  0  0  0  0  0  0  0  0  0  0
  151.9864  139.8586  157.2316 C   0  0  0  0  0  0  0  0  0  0  0  0
  153.0419  139.5884  158.0055 N   0  0  0  0  0  0  0  0  0  0  0  0
  153.0399  140.6337  158.9064 C   0  0  0  0  0  0  0  0  0  0  0  0
  153.9032  140.9127  159.9900 C   0  0  0  0  0  0  0  0  0  0  0  0
  153.7035  142.0606  160.7844 C   0  0  0  0  0  0  0  0  0  0  0  0
  152.6400  142.9436  160.5070 C   0  0  0  0  0  0  0  0  0  0  0  0
  151.7693  142.6841  159.4310 C   0  0  0  0  0  0  0  0  0  0  0  0
  151.9730  141.5367  158.6411 C   0  0  0  0  0  0  0  0  0  0  0  0
  151.3176  141.0009  157.5362 N   0  0  0  0  0  0  0  0  0  0  0  0
  150.1577  141.5746  156.8662 C   0  0  0  0  0  0  0  0  0  0  0  0
  148.9551  140.6105  156.8224 C   0  0  1  0  0  0  0  0  0  0  0  0
  148.5811  140.2437  158.1361 O   0  0  0  0  0  0  0  0  0  0  0  0
  147.7976  141.2071  156.0380 C   0  0  0  0  0  0  0  0  0  0  0  0
  147.8970  141.4029  154.6427 C   0  0  0  0  0  0  0  0  0  0  0  0
  146.8157  141.9496  153.9242 C   0  0  0  0  0  0  0  0  0  0  0  0
  145.6289  142.3006  154.5958 C   0  0  0  0  0  0  0  0  0  0  0  0
  145.5230  142.1031  155.9859 C   0  0  0  0  0  0  0  0  0  0  0  0
  146.6037  141.5567  156.7048 C   0  0  0  0  0  0  0  0  0  0  0  0
  150.7249  135.3842  157.6040 H   0  0  0  0  0  0  0  0  0  0  0  0
  151.7381  134.5252  156.4375 H   0  0  0  0  0  0  0  0  0  0  0  0
  150.0155  134.7520  156.1151 H   0  0  0  0  0  0  0  0  0  0  0  0
  151.1796  137.5297  157.5683 H   0  0  0  0  0  0  0  0  0  0  0  0
  150.6701  139.3501  155.6177 H   0  0  0  0  0  0  0  0  0  0  0  0
  152.8566  139.9257  154.5866 H   0  0  0  0  0  0  0  0  0  0  0  0
  152.3638  138.2917  154.1579 H   0  0  0  0  0  0  0  0  0  0  0  0
  153.6095  138.5446  155.3795 H   0  0  0  0  0  0  0  0  0  0  0  0
  154.7200  140.2414  160.2103 H   0  0  0  0  0  0  0  0  0  0  0  0
  154.3689  142.2634  161.6109 H   0  0  0  0  0  0  0  0  0  0  0  0
  152.4918  143.8196  161.1213 H   0  0  0  0  0  0  0  0  0  0  0  0
  150.9511  143.3560  159.2183 H   0  0  0  0  0  0  0  0  0  0  0  0
  149.8823  142.4982  157.3765 H   0  0  0  0  0  0  0  0  0  0  0  0
  150.4487  141.8705  155.8580 H   0  0  0  0  0  0  0  0  0  0  0  0
  149.2555  139.6892  156.3248 H   0  0  0  0  0  0  0  0  0  0  0  0
  149.3174  140.3944  158.7089 H   0  0  0  0  0  0  0  0  0  0  0  0
  148.8023  141.1329  154.1188 H   0  0  0  0  0  0  0  0  0  0  0  0
  146.8966  142.0988  152.8576 H   0  0  0  0  0  0  0  0  0  0  0  0
  144.7998  142.7196  154.0448 H   0  0  0  0  0  0  0  0  0  0  0  0
  144.6120  142.3702  156.5011 H   0  0  0  0  0  0  0  0  0  0  0  0
  146.5126  141.4062  157.7709 H   0  0  0  0  0  0  0  0  0  0  0  0
  1  2  1  0  0  0  0
  1 25  1  0  0  0  0
  1 26  1  0  0  0  0
  1 27  1  0  0  0  0
  2  3  2  0  0  0  0
  2  4  1  0  0  0  0
  4  5  1  0  0  0  0
  4 28  1  0  0  0  0
  5  6  1  0  0  0  0
  5  7  1  0  0  0  0
  5 29  1  0  0  0  0
  6 30  1  0  0  0  0
  6 31  1  0  0  0  0
  6 32  1  0  0  0  0
  7 15  1  0  0  0  0
  7  8  2  0  0  0  0
  8  9  1  0  0  0  0
  9 14  2  0  0  0  0
  9 10  1  0  0  0  0
 10 11  2  0  0  0  0
 10 33  1  0  0  0  0
 11 12  1  0  0  0  0
 11 34  1  0  0  0  0
 12 13  2  0  0  0  0
 12 35  1  0  0  0  0
 13 14  1  0  0  0  0
 13 36  1  0  0  0  0
 14 15  1  0  0  0  0
 15 16  1  0  0  0  0
 16 17  1  0  0  0  0
 16 37  1  0  0  0  0
 16 38  1  0  0  0  0
 17 18  1  0  0  0  0
 17 19  1  0  0  0  0
 17 39  1  0  0  0  0
 18 40  1  0  0  0  0
 19 24  1  0  0  0  0
 19 20  2  0  0  0  0
 20 21  1  0  0  0  0
 20 41  1  0  0  0  0
 21 22  2  0  0  0  0
 21 42  1  0  0  0  0
 22 23  1  0  0  0  0
 22 43  1  0  0  0  0
 23 24  2  0  0  0  0
 23 44  1  0  0  0  0
 24 45  1  0  0  0  0
M  END
> <s_m_source_file>
AV-unprocessed.smi

> <i_m_source_file_index>
447

> <i_lp_mmshare_version>
43012

> <i_f3d_flags>
0

> <s_epik_input>
W0NIM11DKD1PKVtOSF1bQ0BIXShbQ0gzXSljKG4xKW4oYyhjMTIpW2NIXVtjSF1bY0hdW2NIXTIpW0NIMl1bQ0BIXShbT0hdKWMzW2NIXVtjSF1bY0hdW2NIXVtjSF0z

> <s_epik_cmdline>
J2VwaWtfcHl0aG9uJywgJy1waCcsICc3LjAnLCAnLXRuJywgJzgnLCAnLW1hJywgJzIwMCcsICctbWV0YWxfYmluZGluZycsICctaW1hZScsICc8aW5maWxlLm1hZT4nLCAnLW9tYWUnLCAnPG91dGZpbGUubWFlPic=

> <r_epik_Ionization_Penalty>
0.13301

> <r_epik_Ionization_Penalty_Charging>
0

> <r_epik_Ionization_Penalty_Neutral>
0.13301

> <r_epik_State_Penalty>
0.122384

> <r_epik_Charging_Adjusted_Penalty>
0.122384

> <i_epik_Tot_Q>
0

> <i_epik_Tot_abs_Q>
0

> <r_epik_Metal_State_Penalty>
0.0997374

> <b_epik_Metal_Only>
0

> <s_lp_Force_Field>
OPLS_2005

> <r_lp_Energy>
6.23771

> <b_lp_Chiralities_Consistent>
1

> <s_lp_Variant>
AV-unprocessed.smi:447-3

> <Gold.Version>
5.8.1

> <Gold.Id.Protein>
6NUR|6NUR_protein|mol2

> <Gold.PLP.Fitness>
52.0858

> <Gold.PLP.PLP>
-46.8952

> <Gold.PLP.part.hbond>
-2.3742

> <Gold.PLP.part.metal>
0.0000

> <Gold.PLP.part.buried>
-6.8994

> <Gold.PLP.part.nonpolar>
-38.6371

> <Gold.PLP.part.repulsive>
0.5964

> <Gold.PLP.ligand.clash>
0.0000

> <Gold.PLP.ligand.torsion>
0.4288

> <Gold.PLP.Chemscore.Hbond>
2.0000

> <Gold.PLP.Chemscore.CHOScore>
0.0000

> <Gold.PLP.Chemscore.Metal>
0.0000

> <Gold.Chemscore.Hbonds>
donor molecule, donor type, donor heavy atom, donor atom, acceptor molecule, acceptor atom, score
      P1  H  7997  8008       L1     8  1.00
      P1  H 10752 10765       L1     3  1.00

> <Gold.PLP.Chemscore.Internal.Correction>
0.0482

> <Gold.Rescore>
     Score         DG    S(hbond)    S(metal)    S(lipo)     H(rot)  DE(clash)    DE(int)     intcor
     15.97     -18.37       1.44        0.00     120.53       2.35       0.17       2.23       ----

> <Gold.Chemscore.Fitness>
15.9665

> <Gold.Chemscore.DG>
-18.3689

> <Gold.Chemscore.ZeroCoef>
-5.4800

> <Gold.Chemscore.Hbond>
1.4403

> <Gold.Chemscore.Metal>
0.0000

> <Gold.Chemscore.Lipo>
120.5265

> <Gold.Chemscore.Internal_Hbond>
0.0000

> <Gold.Chemscore.DEClash>
0.1703

> <Gold.Chemscore.DEInternal>
2.2321

> <Gold.Chemscore.Rot>
2.3528

> <Gold.Chemscore.Internal.Correction>
   9.000000E+99

> <Gold.Chemscore.Hbonds>
donor molecule, donor type, donor heavy atom, donor atom, acceptor molecule, acceptor atom, score
      P1  H  7997  8008       L1     8  0.13
      P1  H 10752 10765       L1     3  0.45

> <Gold.Chemscore.Hbond.Weighted>
-4.8105

> <Gold.Chemscore.Metal.Weighted>
-0.0000

> <Gold.Chemscore.Lipo.Weighted>
-14.1016

> <Gold.Chemscore.Internal_Hbond.Weighted>
0.0000

> <Gold.Chemscore.DEClash.Weighted>
0.1703

> <Gold.Chemscore.DEInternal.Weighted>
2.2321

> <Gold.Chemscore.Rot.Weighted>
6.0231

> <Gold.Chemscore.Internal.Correction.Weighted>
   9.000000E+99

> <Gold.Protein.RotatedTorsions>
[ 6907 6896 6895 6894 ] final  -40.84 input  -60.11 | X-H torsion
[ 7974 7965 7964 7962 ] final -117.12 input  175.53 | X-H torsion
[ 8008 7997 7996 7995 ] final  -79.26 input   59.86 | X-H torsion
[ 10167 10162 10161 10158 ] final   -2.35 input  -65.29 | X-H torsion
[ 10718 10713 10712 10709 ] final  174.36 input   66.30 | X-H torsion
[ 10763 10752 10751 10750 ] final  163.93 input  -60.55 | X-H torsion
[ 11005 11000 10999 10996 ] final  127.00 input  -57.11 | X-H torsion

> <Gold.Protein.ActiveResidues>
 VAL166  LYS551  ARG553  GLY616  TRP617  ASP618  TYR619  PRO620  LYS621  CYS622 
 ASP623  PHE694  ASN695  SER759  ASP760  ASP761  ALA762  ILE779  LEU786  VAL792 
 PHE793  MET794  SER795  GLU796  ALA797  LYS798  CYS799  TRP800  GLU811  SER814 

> <Gold.Protein.RotatedAtoms>
  150.9737  134.9105  159.7802 H   0  0  0  0  0  0  0  0  0  0  0  0  # atno 6907 bound_to 6896
  152.5199  134.3506  159.9259 H   0  0  0  0  0  0  0  0  0  0  0  0  # atno 6908 bound_to 6896
  151.3514  133.3883  159.2715 H   0  0  0  0  0  0  0  0  0  0  0  0  # atno 6909 bound_to 6896
  145.0889  140.8476  143.3994 H   0  0  0  0  0  0  0  0  0  0  0  0  # atno 7974 bound_to 7965
  154.5768  140.0681  156.9046 H   0  0  0  0  0  0  0  0  0  0  0  0  # atno 8008 bound_to 7997
  155.2534  140.3353  155.4262 H   0  0  0  0  0  0  0  0  0  0  0  0  # atno 8009 bound_to 7997
  156.2160  140.1778  156.7573 H   0  0  0  0  0  0  0  0  0  0  0  0  # atno 8010 bound_to 7997
  140.6847  143.6668  150.8219 H   0  0  0  0  0  0  0  0  0  0  0  0  # atno 10167 bound_to 10162
  156.9508  131.0030  151.2949 H   0  0  0  0  0  0  0  0  0  0  0  0  # atno 10718 bound_to 10713
  154.3012  135.2759  155.2610 H   0  0  0  0  0  0  0  0  0  0  0  0  # atno 10763 bound_to 10752
  154.5046  135.5799  153.6561 H   0  0  0  0  0  0  0  0  0  0  0  0  # atno 10764 bound_to 10752
  152.9900  135.6166  154.3183 H   0  0  0  0  0  0  0  0  0  0  0  0  # atno 10765 bound_to 10752
  139.9485  134.9626  156.8790 H   0  0  0  0  0  0  0  0  0  0  0  0  # atno 11005 bound_to 11000
  145.1090  139.2770  143.5647 LP  0  0  0  0  0  0  0  0  0  0  0  0  # atno 17320 bound_to 7965
  146.3531  140.0680  142.8625 LP  0  0  0  0  0  0  0  0  0  0  0  0  # atno 17321 bound_to 7965
  140.0373  143.5382  152.2734 LP  0  0  0  0  0  0  0  0  0  0  0  0  # atno 17342 bound_to 10162
  139.6196  144.7626  151.2769 LP  0  0  0  0  0  0  0  0  0  0  0  0  # atno 17343 bound_to 10162
  157.5723  130.8319  149.8408 LP  0  0  0  0  0  0  0  0  0  0  0  0  # atno 17370 bound_to 10713
  156.0364  130.3750  150.1550 LP  0  0  0  0  0  0  0  0  0  0  0  0  # atno 17371 bound_to 10713
  140.5776  134.0383  155.7452 LP  0  0  0  0  0  0  0  0  0  0  0  0  # atno 17394 bound_to 11000
  141.1142  133.9567  157.2854 LP  0  0  0  0  0  0  0  0  0  0  0  0  # atno 17395 bound_to 11000

$$$$
