AV-unprocessed.smi:1406|AV-procd|sdf|5711|dock10
  -GOLD-   22720 5343D 1   1.00000     0.00000
 Structure written by MMmdl.
 41 43  0  0  0  0  0  0  0  0  2 V2000
  150.5783  138.6276  154.3884 C   0  0  0  0  0  0  0  0  0  0  0  0
  150.2254  140.0219  154.9456 C   0  0  2  0  0  0  0  0  0  0  0  0
  150.3127  140.0931  156.4778 C   0  0  0  0  0  0  0  0  0  0  0  0
  149.5565  139.4290  157.1873 O   0  0  0  0  0  0  0  0  0  0  0  0
  151.2285  140.9370  156.9783 N   0  0  0  0  0  0  0  0  0  0  0  0
  151.3821  141.2539  158.3947 C   0  0  1  0  0  0  0  0  0  0  0  0
  152.8253  141.1061  158.8959 C   0  0  0  0  0  0  0  0  0  0  0  0
  152.9847  142.1808  159.9867 C   0  0  0  0  0  0  0  0  0  0  0  0
  151.6893  142.8931  160.0560 N   0  3  1  0  0  0  0  0  0  0  0  0
  151.7250  144.2843  160.5756 C   0  0  0  0  0  0  0  0  0  0  0  0
  152.2128  145.2980  159.5271 C   0  0  0  0  0  0  0  0  0  0  0  0
  151.3903  145.1827  158.2396 C   0  0  0  0  0  0  0  0  0  0  0  0
  151.4797  143.7520  157.6989 C   0  0  0  0  0  0  0  0  0  0  0  0
  151.0195  142.7071  158.7497 C   0  0  1  0  0  0  0  0  0  0  0  0
  148.9106  140.4755  154.5070 N   0  0  0  0  0  0  0  0  0  0  0  0
  148.3083  141.6542  154.6804 C   0  0  0  0  0  0  0  0  0  0  0  0
  147.0722  141.7032  154.2050 N   0  0  0  0  0  0  0  0  0  0  0  0
  146.9635  140.4309  153.7204 C   0  0  0  0  0  0  0  0  0  0  0  0
  148.0295  139.6491  153.8898 N   0  0  0  0  0  0  0  0  0  0  0  0
  151.5882  138.3342  154.6764 H   0  0  0  0  0  0  0  0  0  0  0  0
  150.5358  138.6234  153.2989 H   0  0  0  0  0  0  0  0  0  0  0  0
  149.8954  137.8560  154.7469 H   0  0  0  0  0  0  0  0  0  0  0  0
  150.9575  140.7251  154.5451 H   0  0  0  0  0  0  0  0  0  0  0  0
  151.8185  141.4373  156.3292 H   0  0  0  0  0  0  0  0  0  0  0  0
  150.7524  140.5826  158.9827 H   0  0  0  0  0  0  0  0  0  0  0  0
  153.0163  140.1025  159.2771 H   0  0  0  0  0  0  0  0  0  0  0  0
  153.5394  141.2926  158.0924 H   0  0  0  0  0  0  0  0  0  0  0  0
  153.2253  141.7462  160.9573 H   0  0  0  0  0  0  0  0  0  0  0  0
  153.7917  142.8637  159.7190 H   0  0  0  0  0  0  0  0  0  0  0  0
  150.7135  144.5502  160.8846 H   0  0  0  0  0  0  0  0  0  0  0  0
  152.3433  144.3281  161.4729 H   0  0  0  0  0  0  0  0  0  0  0  0
  152.1358  146.3095  159.9272 H   0  0  0  0  0  0  0  0  0  0  0  0
  153.2685  145.1353  159.3072 H   0  0  0  0  0  0  0  0  0  0  0  0
  150.3492  145.4431  158.4351 H   0  0  0  0  0  0  0  0  0  0  0  0
  151.7565  145.8891  157.4941 H   0  0  0  0  0  0  0  0  0  0  0  0
  150.8736  143.6707  156.7960 H   0  0  0  0  0  0  0  0  0  0  0  0
  152.5081  143.5536  157.3943 H   0  0  0  0  0  0  0  0  0  0  0  0
  149.9422  142.8056  158.8914 H   0  0  0  0  0  0  0  0  0  0  0  0
  148.7800  142.4904  155.1752 H   0  0  0  0  0  0  0  0  0  0  0  0
  146.0683  140.0661  153.2385 H   0  0  0  0  0  0  0  0  0  0  0  0
  151.1395  142.3611  160.7158 H   0  0  0  0  0  0  0  0  0  0  0  0
  1  2  1  0  0  0  0
  1 20  1  0  0  0  0
  1 21  1  0  0  0  0
  1 22  1  0  0  0  0
  2  3  1  0  0  0  0
  2 15  1  0  0  0  0
  2 23  1  0  0  0  0
  3  4  2  0  0  0  0
  3  5  1  0  0  0  0
  5  6  1  0  0  0  0
  5 24  1  0  0  0  0
  6 14  1  0  0  0  0
  6  7  1  0  0  0  0
  6 25  1  0  0  0  0
  7  8  1  0  0  0  0
  7 26  1  0  0  0  0
  7 27  1  0  0  0  0
  8  9  1  0  0  0  0
  8 28  1  0  0  0  0
  8 29  1  0  0  0  0
  9 14  1  0  0  0  0
  9 10  1  0  0  0  0
  9 41  1  0  0  0  0
 10 11  1  0  0  0  0
 10 30  1  0  0  0  0
 10 31  1  0  0  0  0
 11 12  1  0  0  0  0
 11 32  1  0  0  0  0
 11 33  1  0  0  0  0
 12 13  1  0  0  0  0
 12 34  1  0  0  0  0
 12 35  1  0  0  0  0
 13 14  1  0  0  0  0
 13 36  1  0  0  0  0
 13 37  1  0  0  0  0
 14 38  1  0  0  0  0
 15 19  1  0  0  0  0
 15 16  1  0  0  0  0
 16 17  2  0  0  0  0
 16 39  1  0  0  0  0
 17 18  1  0  0  0  0
 18 19  2  0  0  0  0
 18 40  1  0  0  0  0
M  CHG  1   9   1
M  END
> <s_m_source_file>
AV-unprocessed.smi

> <i_m_source_file_index>
1406

> <i_lp_mmshare_version>
43012

> <i_f3d_flags>
0

> <s_epik_input>
bjFbY0hdbltjSF1uMVtDQEhdKFtDSDNdKUMoPU8pW05IXVtDQEhdKFtDSDJdW0NIMl0yKVtDQEBIXShOMjMpW0NIMl1bQ0gyXVtDSDJdW0NIMl0z

> <s_epik_cmdline>
J2VwaWtfcHl0aG9uJywgJy1waCcsICc3LjAnLCAnLXRuJywgJzgnLCAnLW1hJywgJzIwMCcsICctbWV0YWxfYmluZGluZycsICctaW1hZScsICc8aW5maWxlLm1hZT4nLCAnLW9tYWUnLCAnPG91dGZpbGUubWFlPic=

> <r_lp_tautomer_probability>
1

> <r_epik_Ionization_Penalty>
0.00197066

> <r_epik_Ionization_Penalty_Charging>
0.00196223

> <r_epik_Ionization_Penalty_Neutral>
8.43107e-06

> <r_epik_State_Penalty>
0.00133866

> <r_epik_Charging_Adjusted_Penalty>
0.00330089

> <i_epik_Tot_Q>
1

> <i_epik_Tot_abs_Q>
1

> <r_epik_Metal_State_Penalty>
-0

> <b_epik_Metal_Only>
0

> <s_lp_Force_Field>
OPLS_2005

> <r_lp_Energy>
41.142

> <b_lp_Chiralities_Consistent>
1

> <s_lp_Variant>
AV-unprocessed.smi:1406-3

> <Gold.Version>
5.8.1

> <Gold.Id.Protein>
6NUR|6NUR_protein|mol2

> <Gold.PLP.Fitness>
44.0332

> <Gold.PLP.PLP>
-38.4159

> <Gold.PLP.part.hbond>
0.0000

> <Gold.PLP.part.metal>
0.0000

> <Gold.PLP.part.buried>
-5.8931

> <Gold.PLP.part.nonpolar>
-32.8773

> <Gold.PLP.part.repulsive>
0.9213

> <Gold.PLP.ligand.clash>
0.0000

> <Gold.PLP.ligand.torsion>
0.1778

> <Gold.PLP.Chemscore.Hbond>
0.0000

> <Gold.PLP.Chemscore.CHOScore>
1.9556

> <Gold.PLP.Chemscore.Metal>
0.0000

> <Gold.Chemscore.Hbonds>
donor molecule, donor type, donor heavy atom, donor atom, acceptor molecule, acceptor atom, score
      L1  C    16    39       P1  8028  1.00
      L1  C    18    40       P1 10175  0.98

> <Gold.PLP.Chemscore.Internal.Correction>
0.1061

> <Gold.Rescore>
     Score         DG    S(hbond)    S(metal)    S(lipo)     H(rot)  DE(clash)    DE(int)     intcor
     12.01     -12.46       0.00        0.00     100.94       1.89       0.39       0.06       ----

> <Gold.Chemscore.Fitness>
12.0089

> <Gold.Chemscore.DG>
-12.4599

> <Gold.Chemscore.ZeroCoef>
-5.4800

> <Gold.Chemscore.Hbond>
0.0000

> <Gold.Chemscore.Metal>
0.0000

> <Gold.Chemscore.Lipo>
100.9352

> <Gold.Chemscore.Internal_Hbond>
0.0000

> <Gold.Chemscore.DEClash>
0.3922

> <Gold.Chemscore.DEInternal>
0.0588

> <Gold.Chemscore.Rot>
1.8865

> <Gold.Chemscore.Internal.Correction>
   9.000000E+99

> <Gold.Chemscore.Hbond.Weighted>
-0.0000

> <Gold.Chemscore.Metal.Weighted>
-0.0000

> <Gold.Chemscore.Lipo.Weighted>
-11.8094

> <Gold.Chemscore.Internal_Hbond.Weighted>
0.0000

> <Gold.Chemscore.DEClash.Weighted>
0.3922

> <Gold.Chemscore.DEInternal.Weighted>
0.0588

> <Gold.Chemscore.Rot.Weighted>
4.8295

> <Gold.Chemscore.Internal.Correction.Weighted>
   9.000000E+99

> <Gold.Protein.RotatedTorsions>
[ 6907 6896 6895 6894 ] final   44.71 input  -60.11 | X-H torsion
[ 7974 7965 7964 7962 ] final -139.31 input  175.53 | X-H torsion
[ 8008 7997 7996 7995 ] final   51.11 input   59.86 | X-H torsion
[ 10167 10162 10161 10158 ] final   35.75 input  -65.29 | X-H torsion
[ 10718 10713 10712 10709 ] final -102.39 input   66.30 | X-H torsion
[ 10763 10752 10751 10750 ] final  176.91 input  -60.55 | X-H torsion
[ 11005 11000 10999 10996 ] final  -31.26 input  -57.11 | X-H torsion

> <Gold.Protein.ActiveResidues>
 VAL166  LYS551  ARG553  GLY616  TRP617  ASP618  TYR619  PRO620  LYS621  CYS622 
 ASP623  PHE694  ASN695  SER759  ASP760  ASP761  ALA762  ILE779  LEU786  VAL792 
 PHE793  MET794  SER795  GLU796  ALA797  LYS798  CYS799  TRP800  GLU811  SER814 

> <Gold.Protein.RotatedAtoms>
  152.2358  134.8277  160.0467 H   0  0  0  0  0  0  0  0  0  0  0  0  # atno 6907 bound_to 6896
  151.9010  133.3533  159.3839 H   0  0  0  0  0  0  0  0  0  0  0  0  # atno 6908 bound_to 6896
  150.7039  134.4754  159.5489 H   0  0  0  0  0  0  0  0  0  0  0  0  # atno 6909 bound_to 6896
  144.8687  140.6333  143.5281 H   0  0  0  0  0  0  0  0  0  0  0  0  # atno 7974 bound_to 7965
  155.4299  140.3450  155.4279 H   0  0  0  0  0  0  0  0  0  0  0  0  # atno 8008 bound_to 7997
  156.1342  140.1523  156.9050 H   0  0  0  0  0  0  0  0  0  0  0  0  # atno 8009 bound_to 7997
  154.4919  140.0839  156.7592 H   0  0  0  0  0  0  0  0  0  0  0  0  # atno 8010 bound_to 7997
  140.4193  144.1483  150.6146 H   0  0  0  0  0  0  0  0  0  0  0  0  # atno 10167 bound_to 10162
  156.0227  130.5418  150.7101 H   0  0  0  0  0  0  0  0  0  0  0  0  # atno 10718 bound_to 10713
  154.4875  135.2777  155.1523 H   0  0  0  0  0  0  0  0  0  0  0  0  # atno 10763 bound_to 10752
  154.3208  135.6210  153.5510 H   0  0  0  0  0  0  0  0  0  0  0  0  # atno 10764 bound_to 10752
  152.9883  135.5742  154.5289 H   0  0  0  0  0  0  0  0  0  0  0  0  # atno 10765 bound_to 10752
  140.9453  133.7254  156.1137 H   0  0  0  0  0  0  0  0  0  0  0  0  # atno 11005 bound_to 11000
  145.4172  139.1570  143.4094 LP  0  0  0  0  0  0  0  0  0  0  0  0  # atno 17320 bound_to 7965
  146.2914  140.4280  142.8738 LP  0  0  0  0  0  0  0  0  0  0  0  0  # atno 17321 bound_to 7965
  140.4552  143.2471  151.9294 LP  0  0  0  0  0  0  0  0  0  0  0  0  # atno 17342 bound_to 10162
  139.4782  144.5523  151.8367 LP  0  0  0  0  0  0  0  0  0  0  0  0  # atno 17343 bound_to 10162
  157.4741  131.0896  151.0609 LP  0  0  0  0  0  0  0  0  0  0  0  0  # atno 17370 bound_to 10713
  157.1061  130.6002  149.5471 LP  0  0  0  0  0  0  0  0  0  0  0  0  # atno 17371 bound_to 10713
  140.7678  134.3867  157.5513 LP  0  0  0  0  0  0  0  0  0  0  0  0  # atno 17394 bound_to 11000
  139.8831  134.9002  156.2784 LP  0  0  0  0  0  0  0  0  0  0  0  0  # atno 17395 bound_to 11000

$$$$
