AV-unprocessed.smi:1005|AV-procd|sdf|4384|dock4
  -GOLD-   22720 2313D 1   1.00000     0.00000
 Structure written by MMmdl.
 58 60  0  0  0  0  0  0  0  0  4 V2000
  152.3056  140.7178  159.0429 C   0  0  0  0  0  0  0  0  0  0  0  0
  151.1293  140.3984  158.1357 C   0  0  0  0  0  0  0  0  0  0  0  0
  150.5881  141.4350  157.3427 C   0  0  0  0  0  0  0  0  0  0  0  0
  149.5100  141.1127  156.5267 C   0  0  0  0  0  0  0  0  0  0  0  0
  148.7653  141.8977  155.6443 N   0  3  0  0  0  0  0  0  0  0  0  0
  147.7972  141.1364  155.0641 C   0  0  0  0  0  0  0  0  0  0  0  0
  147.9085  139.8761  155.5663 N   0  0  0  0  0  0  0  0  0  0  0  0
  147.1120  138.6752  155.2715 C   0  0  0  0  0  0  0  0  0  0  0  0
  147.9786  137.4218  155.0352 C   0  0  2  0  0  0  0  0  0  0  0  0
  148.8440  137.6421  153.9382 O   0  0  0  0  0  0  0  0  0  0  0  0
  147.1143  136.1792  154.7390 C   0  0  0  0  0  0  0  0  0  0  0  0
  146.8654  135.9811  153.2875 N   0  3  2  0  0  0  0  0  0  0  0  0
  145.9047  136.9660  152.7378 C   0  0  0  0  0  0  0  0  0  0  0  0
  145.7401  136.7644  151.2231 C   0  0  0  0  0  0  0  0  0  0  0  0
  145.3226  135.4292  150.9647 O   0  0  0  0  0  0  0  0  0  0  0  0
  146.2773  134.4671  151.4023 C   0  0  2  0  0  0  0  0  0  0  0  0
  145.7594  133.0709  151.0081 C   0  0  0  0  0  0  0  0  0  0  0  0
  145.4900  132.9473  149.5522 N   0  3  0  0  0  0  0  0  0  0  0  0
  146.3090  131.9069  148.8880 C   0  0  0  0  0  0  0  0  0  0  0  0
  144.0497  132.7663  149.2651 C   0  0  0  0  0  0  0  0  0  0  0  0
  146.4491  134.6021  152.9293 C   0  0  0  0  0  0  0  0  0  0  0  0
  148.9689  139.8130  156.4796 C   0  0  0  0  0  0  0  0  0  0  0  0
  149.4929  138.7793  157.2526 C   0  0  0  0  0  0  0  0  0  0  0  0
  150.5894  139.0870  158.0896 C   0  0  0  0  0  0  0  0  0  0  0  0
  151.1799  137.9793  158.9455 C   0  0  0  0  0  0  0  0  0  0  0  0
  152.5696  141.7747  158.9974 H   0  0  0  0  0  0  0  0  0  0  0  0
  153.1828  140.1416  158.7480 H   0  0  0  0  0  0  0  0  0  0  0  0
  152.0669  140.4800  160.0798 H   0  0  0  0  0  0  0  0  0  0  0  0
  150.9946  142.4355  157.3714 H   0  0  0  0  0  0  0  0  0  0  0  0
  147.0725  141.4732  154.3365 H   0  0  0  0  0  0  0  0  0  0  0  0
  146.4538  138.5127  156.1259 H   0  0  0  0  0  0  0  0  0  0  0  0
  146.4602  138.8756  154.4208 H   0  0  0  0  0  0  0  0  0  0  0  0
  148.5903  137.2569  155.9216 H   0  0  0  0  0  0  0  0  0  0  0  0
  148.6824  136.9734  153.2895 H   0  0  0  0  0  0  0  0  0  0  0  0
  147.5778  135.2818  155.1519 H   0  0  0  0  0  0  0  0  0  0  0  0
  146.1599  136.2937  155.2560 H   0  0  0  0  0  0  0  0  0  0  0  0
  144.9409  136.8565  153.2377 H   0  0  0  0  0  0  0  0  0  0  0  0
  146.2557  137.9796  152.9352 H   0  0  0  0  0  0  0  0  0  0  0  0
  144.9901  137.4518  150.8313 H   0  0  0  0  0  0  0  0  0  0  0  0
  146.6724  136.9765  150.6970 H   0  0  0  0  0  0  0  0  0  0  0  0
  147.2375  134.6601  150.9230 H   0  0  0  0  0  0  0  0  0  0  0  0
  146.4678  132.2978  151.3103 H   0  0  0  0  0  0  0  0  0  0  0  0
  144.8416  132.8783  151.5661 H   0  0  0  0  0  0  0  0  0  0  0  0
  146.0985  130.9203  149.3027 H   0  0  0  0  0  0  0  0  0  0  0  0
  147.3747  132.1029  148.9977 H   0  0  0  0  0  0  0  0  0  0  0  0
  146.0957  131.8765  147.8190 H   0  0  0  0  0  0  0  0  0  0  0  0
  143.6797  131.8332  149.6921 H   0  0  0  0  0  0  0  0  0  0  0  0
  143.8698  132.7452  148.1896 H   0  0  0  0  0  0  0  0  0  0  0  0
  143.4647  133.5887  149.6785 H   0  0  0  0  0  0  0  0  0  0  0  0
  147.1917  133.8819  153.2703 H   0  0  0  0  0  0  0  0  0  0  0  0
  145.5139  134.3610  153.4374 H   0  0  0  0  0  0  0  0  0  0  0  0
  149.0820  137.7809  157.2236 H   0  0  0  0  0  0  0  0  0  0  0  0
  150.6977  137.0215  158.7487 H   0  0  0  0  0  0  0  0  0  0  0  0
  151.0523  138.2060  160.0041 H   0  0  0  0  0  0  0  0  0  0  0  0
  152.2445  137.8618  158.7418 H   0  0  0  0  0  0  0  0  0  0  0  0
  145.7442  133.8324  149.1363 H   0  0  0  0  0  0  0  0  0  0  0  0
  147.7463  136.1581  152.8250 H   0  0  0  0  0  0  0  0  0  0  0  0
  148.9070  142.8806  155.4485 H   0  0  0  0  0  0  0  0  0  0  0  0
  1  2  1  0  0  0  0
  1 26  1  0  0  0  0
  1 27  1  0  0  0  0
  1 28  1  0  0  0  0
  2 24  1  0  0  0  0
  2  3  2  0  0  0  0
  3  4  1  0  0  0  0
  3 29  1  0  0  0  0
  4 22  2  0  0  0  0
  4  5  1  0  0  0  0
  5  6  2  0  0  0  0
  5 58  1  0  0  0  0
  6  7  1  0  0  0  0
  6 30  1  0  0  0  0
  7  8  1  0  0  0  0
  7 22  1  0  0  0  0
  8  9  1  0  0  0  0
  8 31  1  0  0  0  0
  8 32  1  0  0  0  0
  9 10  1  0  0  0  0
  9 11  1  0  0  0  0
  9 33  1  0  0  0  0
 10 34  1  0  0  0  0
 11 12  1  0  0  0  0
 11 35  1  0  0  0  0
 11 36  1  0  0  0  0
 12 21  1  0  0  0  0
 12 13  1  0  0  0  0
 12 57  1  0  0  0  0
 13 14  1  0  0  0  0
 13 37  1  0  0  0  0
 13 38  1  0  0  0  0
 14 15  1  0  0  0  0
 14 39  1  0  0  0  0
 14 40  1  0  0  0  0
 15 16  1  0  0  0  0
 16 17  1  0  0  0  0
 16 21  1  0  0  0  0
 16 41  1  0  0  0  0
 17 18  1  0  0  0  0
 17 42  1  0  0  0  0
 17 43  1  0  0  0  0
 18 19  1  0  0  0  0
 18 20  1  0  0  0  0
 18 56  1  0  0  0  0
 19 44  1  0  0  0  0
 19 45  1  0  0  0  0
 19 46  1  0  0  0  0
 20 47  1  0  0  0  0
 20 48  1  0  0  0  0
 20 49  1  0  0  0  0
 21 50  1  0  0  0  0
 21 51  1  0  0  0  0
 22 23  1  0  0  0  0
 23 24  2  0  0  0  0
 23 52  1  0  0  0  0
 24 25  1  0  0  0  0
 25 53  1  0  0  0  0
 25 54  1  0  0  0  0
 25 55  1  0  0  0  0
M  CHG  1   5   1
M  CHG  1  12   1
M  CHG  1  18   1
M  END
> <s_m_source_file>
AV-unprocessed.smi

> <i_m_source_file_index>
1005

> <i_lp_mmshare_version>
43012

> <i_f3d_flags>
0

> <s_epik_input>
W0NIM11jKFtjSF0xKWMoW0NIM10pW2NIXWMoYzEyKW4oW2NIXW4yKVtDSDJdW0NASF0oW09IXSlbQ0gyXU4zW0NIMl1bQ0gyXU9bQ0BIXShbQ0gyXTMpW0NIMl1OKFtDSDNdKVtDSDNd

> <s_epik_cmdline>
J2VwaWtfcHl0aG9uJywgJy1waCcsICc3LjAnLCAnLXRuJywgJzgnLCAnLW1hJywgJzIwMCcsICctbWV0YWxfYmluZGluZycsICctaW1hZScsICc8aW5maWxlLm1hZT4nLCAnLW9tYWUnLCAnPG91dGZpbGUubWFlPic=

> <r_epik_Ionization_Penalty>
2.30802

> <r_epik_Ionization_Penalty_Charging>
2.30798

> <r_epik_Ionization_Penalty_Neutral>
3.4851e-05

> <r_epik_State_Penalty>
2.52618

> <r_epik_Charging_Adjusted_Penalty>
4.83416

> <i_epik_Tot_Q>
3

> <i_epik_Tot_abs_Q>
3

> <r_epik_Metal_State_Penalty>
6.53149

> <b_epik_Metal_Only>
0

> <s_lp_Force_Field>
OPLS_2005

> <r_lp_Energy>
42.4593

> <b_lp_Chiralities_Consistent>
1

> <s_lp_Variant>
AV-unprocessed.smi:1005-23

> <Gold.Version>
5.8.1

> <Gold.Id.Protein>
6NUR|6NUR_protein|mol2

> <Gold.PLP.Fitness>
49.6592

> <Gold.PLP.PLP>
-34.4369

> <Gold.PLP.part.hbond>
-3.7861

> <Gold.PLP.part.metal>
0.0000

> <Gold.PLP.part.buried>
-3.0892

> <Gold.PLP.part.nonpolar>
-27.0716

> <Gold.PLP.part.repulsive>
0.5345

> <Gold.PLP.ligand.clash>
0.0000

> <Gold.PLP.ligand.torsion>
1.4470

> <Gold.PLP.Chemscore.Hbond>
5.9840

> <Gold.PLP.Chemscore.CHOScore>
0.0000

> <Gold.PLP.Chemscore.Metal>
0.0000

> <Gold.Chemscore.Hbonds>
donor molecule, donor type, donor heavy atom, donor atom, acceptor molecule, acceptor atom, score
      L1  H     5    58       P1  8028  2.00
      L1  H    10    34       P1  7948  1.00
      L1  H    12    57       P1  7948  2.00
      L1  H    18    56       P1  7921  0.98

> <Gold.PLP.Chemscore.Internal.Correction>
0.1643

> <Gold.Rescore>
     Score         DG    S(hbond)    S(metal)    S(lipo)     H(rot)  DE(clash)    DE(int)     intcor
     18.27     -20.54       3.36        0.00      88.64       2.56       0.93       1.34       ----

> <Gold.Chemscore.Fitness>
18.2723

> <Gold.Chemscore.DG>
-20.5401

> <Gold.Chemscore.ZeroCoef>
-5.4800

> <Gold.Chemscore.Hbond>
3.3634

> <Gold.Chemscore.Metal>
0.0000

> <Gold.Chemscore.Lipo>
88.6427

> <Gold.Chemscore.Internal_Hbond>
0.0000

> <Gold.Chemscore.DEClash>
0.9251

> <Gold.Chemscore.DEInternal>
1.3426

> <Gold.Chemscore.Rot>
2.5566

> <Gold.Chemscore.Internal.Correction>
   9.000000E+99

> <Gold.Chemscore.Hbonds>
donor molecule, donor type, donor heavy atom, donor atom, acceptor molecule, acceptor atom, score
      L1  H     5    58       P1  8028  1.00
      L1  H    10    34       P1  7948  0.95
      L1  H    12    57       P1  7948  0.94
      L1  H    18    56       P1  7921  0.28

> <Gold.Chemscore.Hbond.Weighted>
-11.2338

> <Gold.Chemscore.Metal.Weighted>
-0.0000

> <Gold.Chemscore.Lipo.Weighted>
-10.3712

> <Gold.Chemscore.Internal_Hbond.Weighted>
0.0000

> <Gold.Chemscore.DEClash.Weighted>
0.9251

> <Gold.Chemscore.DEInternal.Weighted>
1.3426

> <Gold.Chemscore.Rot.Weighted>
6.5450

> <Gold.Chemscore.Internal.Correction.Weighted>
   9.000000E+99

> <Gold.Protein.RotatedTorsions>
[ 6907 6896 6895 6894 ] final  -83.04 input  -60.11 | X-H torsion
[ 7974 7965 7964 7962 ] final  146.54 input  175.53 | X-H torsion
[ 8008 7997 7996 7995 ] final    2.17 input   59.86 | X-H torsion
[ 10167 10162 10161 10158 ] final   98.74 input  -65.29 | X-H torsion
[ 10718 10713 10712 10709 ] final  -10.36 input   66.30 | X-H torsion
[ 10763 10752 10751 10750 ] final -151.47 input  -60.55 | X-H torsion
[ 11005 11000 10999 10996 ] final   32.44 input  -57.11 | X-H torsion

> <Gold.Protein.ActiveResidues>
 VAL166  LYS551  ARG553  GLY616  TRP617  ASP618  TYR619  PRO620  LYS621  CYS622 
 ASP623  PHE694  ASN695  SER759  ASP760  ASP761  ALA762  ILE779  LEU786  VAL792 
 PHE793  MET794  SER795  GLU796  ALA797  LYS798  CYS799  TRP800  GLU811  SER814 

> <Gold.Protein.RotatedAtoms>
  150.6890  134.3573  159.4934 H   0  0  0  0  0  0  0  0  0  0  0  0  # atno 6907 bound_to 6896
  152.1406  134.9062  160.0563 H   0  0  0  0  0  0  0  0  0  0  0  0  # atno 6908 bound_to 6896
  152.0198  133.3859  159.4290 H   0  0  0  0  0  0  0  0  0  0  0  0  # atno 6909 bound_to 6896
  144.8663  139.5918  143.5907 H   0  0  0  0  0  0  0  0  0  0  0  0  # atno 7974 bound_to 7965
  154.6884  140.2648  155.6837 H   0  0  0  0  0  0  0  0  0  0  0  0  # atno 8008 bound_to 7997
  156.2723  140.2796  156.1376 H   0  0  0  0  0  0  0  0  0  0  0  0  # atno 8009 bound_to 7997
  155.0932  140.0373  157.2665 H   0  0  0  0  0  0  0  0  0  0  0  0  # atno 8010 bound_to 7997
  139.7681  144.6932  151.0195 H   0  0  0  0  0  0  0  0  0  0  0  0  # atno 10167 bound_to 10162
  156.6746  130.5019  149.5989 H   0  0  0  0  0  0  0  0  0  0  0  0  # atno 10718 bound_to 10713
  154.8056  135.3259  154.7440 H   0  0  0  0  0  0  0  0  0  0  0  0  # atno 10763 bound_to 10752
  153.8100  135.6896  153.4847 H   0  0  0  0  0  0  0  0  0  0  0  0  # atno 10764 bound_to 10752
  153.1799  135.4591  154.9958 H   0  0  0  0  0  0  0  0  0  0  0  0  # atno 10765 bound_to 10752
  140.2735  134.3055  155.7821 H   0  0  0  0  0  0  0  0  0  0  0  0  # atno 11005 bound_to 11000
  146.2898  139.7106  142.9169 LP  0  0  0  0  0  0  0  0  0  0  0  0  # atno 17320 bound_to 7965
  145.4215  141.0407  143.2961 LP  0  0  0  0  0  0  0  0  0  0  0  0  # atno 17321 bound_to 7965
  140.7812  143.4620  151.0265 LP  0  0  0  0  0  0  0  0  0  0  0  0  # atno 17342 bound_to 10162
  139.8304  143.7699  152.3179 LP  0  0  0  0  0  0  0  0  0  0  0  0  # atno 17343 bound_to 10162
  156.1913  130.6561  151.1064 LP  0  0  0  0  0  0  0  0  0  0  0  0  # atno 17370 bound_to 10713
  157.7065  131.0754  150.6649 LP  0  0  0  0  0  0  0  0  0  0  0  0  # atno 17371 bound_to 10713
  141.2174  133.7481  156.9371 LP  0  0  0  0  0  0  0  0  0  0  0  0  # atno 17394 bound_to 11000
  140.1351  134.9330  157.2390 LP  0  0  0  0  0  0  0  0  0  0  0  0  # atno 17395 bound_to 11000

$$$$
