AV-unprocessed.smi:2252|AV-procd|sdf|9111|dock1
  -GOLD-   2272012313D 1   1.00000     0.00000
 Structure written by MMmdl.
 44 46  0  0  0  0  0  0  0  0  3 V2000
  153.0579  144.6898  157.7207 C   0  0  0  0  0  0  0  0  0  0  0  0
  152.2599  144.3528  158.8843 N   0  0  0  0  0  0  0  0  0  0  0  0
  151.1793  145.0819  159.3635 C   0  0  0  0  0  0  0  0  0  0  0  0
  150.7190  144.4216  160.4760 C   0  0  0  0  0  0  0  0  0  0  0  0
  151.4992  143.2930  160.6960 N   0  0  0  0  0  0  0  0  0  0  0  0
  152.3999  143.2962  159.7131 C   0  0  0  0  0  0  0  0  0  0  0  0
  153.4664  142.2413  159.5456 C   0  0  0  0  0  0  0  0  0  0  0  0
  153.5077  141.1522  160.6453 C   0  0  0  0  0  0  0  0  0  0  0  0
  153.6840  139.8273  160.0551 N   0  5  0  0  0  0  0  0  0  0  0  0
  154.8930  139.2472  159.8127 C   0  0  0  0  0  0  0  0  0  0  0  0
  155.9626  139.7478  159.4521 O   0  0  0  0  0  0  0  0  0  0  0  0
  154.8524  137.7329  160.0924 C   0  0  2  0  0  0  0  0  0  0  0  0
  154.0570  136.9996  158.9861 C   0  0  0  0  0  0  0  0  0  0  0  0
  154.6388  135.8058  158.2601 C   0  0  0  0  0  0  0  0  0  0  0  0
  154.4683  137.1153  157.5343 C   0  0  0  0  0  0  0  0  0  0  0  0
  154.3175  137.4501  161.4551 N   0  3  0  0  0  0  0  0  0  0  0  0
  154.3509  136.0348  161.8838 C   0  0  0  0  0  0  0  0  0  0  0  0
  154.3548  136.0409  163.4190 C   0  0  0  0  0  0  0  0  0  0  0  0
  154.4944  137.5100  163.8255 C   0  0  0  0  0  0  0  0  0  0  0  0
  154.9446  138.2173  162.5510 C   0  0  0  0  0  0  0  0  0  0  0  0
  152.6627  145.5853  157.2402 H   0  0  0  0  0  0  0  0  0  0  0  0
  153.0351  143.8687  157.0039 H   0  0  0  0  0  0  0  0  0  0  0  0
  154.0887  144.8778  158.0216 H   0  0  0  0  0  0  0  0  0  0  0  0
  150.8363  145.9875  158.8854 H   0  0  0  0  0  0  0  0  0  0  0  0
  149.8955  144.6689  161.1297 H   0  0  0  0  0  0  0  0  0  0  0  0
  153.3374  141.7620  158.5752 H   0  0  0  0  0  0  0  0  0  0  0  0
  154.4342  142.7418  159.4916 H   0  0  0  0  0  0  0  0  0  0  0  0
  154.3179  141.3820  161.3376 H   0  0  0  0  0  0  0  0  0  0  0  0
  152.5955  141.2178  161.2397 H   0  0  0  0  0  0  0  0  0  0  0  0
  155.8803  137.3667  160.0621 H   0  0  0  0  0  0  0  0  0  0  0  0
  152.9827  136.9726  159.1616 H   0  0  0  0  0  0  0  0  0  0  0  0
  155.6532  135.5014  158.5101 H   0  0  0  0  0  0  0  0  0  0  0  0
  153.9589  134.9956  158.0050 H   0  0  0  0  0  0  0  0  0  0  0  0
  153.6738  137.1835  156.7940 H   0  0  0  0  0  0  0  0  0  0  0  0
  155.3689  137.6817  157.3053 H   0  0  0  0  0  0  0  0  0  0  0  0
  153.5022  135.4839  161.4771 H   0  0  0  0  0  0  0  0  0  0  0  0
  155.2652  135.5604  161.5246 H   0  0  0  0  0  0  0  0  0  0  0  0
  153.4381  135.6114  163.8246 H   0  0  0  0  0  0  0  0  0  0  0  0
  155.1904  135.4507  163.7969 H   0  0  0  0  0  0  0  0  0  0  0  0
  153.5230  137.8976  164.1349 H   0  0  0  0  0  0  0  0  0  0  0  0
  155.1889  137.6562  164.6532 H   0  0  0  0  0  0  0  0  0  0  0  0
  156.0308  138.1647  162.4616 H   0  0  0  0  0  0  0  0  0  0  0  0
  154.6549  139.2687  162.5401 H   0  0  0  0  0  0  0  0  0  0  0  0
  153.3449  137.7252  161.4404 H   0  0  0  0  0  0  0  0  0  0  0  0
  1  2  1  0  0  0  0
  1 21  1  0  0  0  0
  1 22  1  0  0  0  0
  1 23  1  0  0  0  0
  2  6  1  0  0  0  0
  2  3  1  0  0  0  0
  3  4  2  0  0  0  0
  3 24  1  0  0  0  0
  4  5  1  0  0  0  0
  4 25  1  0  0  0  0
  5  6  2  0  0  0  0
  6  7  1  0  0  0  0
  7  8  1  0  0  0  0
  7 26  1  0  0  0  0
  7 27  1  0  0  0  0
  8  9  1  0  0  0  0
  8 28  1  0  0  0  0
  8 29  1  0  0  0  0
  9 10  1  0  0  0  0
 10 11  2  0  0  0  0
 10 12  1  0  0  0  0
 12 13  1  0  0  0  0
 12 16  1  0  0  0  0
 12 30  1  0  0  0  0
 13 15  1  0  0  0  0
 13 14  1  0  0  0  0
 13 31  1  0  0  0  0
 14 15  1  0  0  0  0
 14 32  1  0  0  0  0
 14 33  1  0  0  0  0
 15 34  1  0  0  0  0
 15 35  1  0  0  0  0
 16 20  1  0  0  0  0
 16 17  1  0  0  0  0
 16 44  1  0  0  0  0
 17 18  1  0  0  0  0
 17 36  1  0  0  0  0
 17 37  1  0  0  0  0
 18 19  1  0  0  0  0
 18 38  1  0  0  0  0
 18 39  1  0  0  0  0
 19 20  1  0  0  0  0
 19 40  1  0  0  0  0
 19 41  1  0  0  0  0
 20 42  1  0  0  0  0
 20 43  1  0  0  0  0
M  CHG  1   9  -1
M  CHG  1  16   1
M  END
> <s_m_source_file>
AV-unprocessed.smi

> <i_m_source_file_index>
2252

> <i_lp_mmshare_version>
43012

> <i_f3d_flags>
0

> <s_epik_input>
W0NIM11uMVtjSF1bY0hdbmMxW0NIMl1bQ0gyXVtOSF1DKD1PKVtDQEhdKFtDSF0yW0NIMl1bQ0gyXTIpTjNbQ0gyXVtDSDJdW0NIMl1bQ0gyXTM=

> <s_epik_cmdline>
J2VwaWtfcHl0aG9uJywgJy1waCcsICc3LjAnLCAnLXRuJywgJzgnLCAnLW1hJywgJzIwMCcsICctbWV0YWxfYmluZGluZycsICctaW1hZScsICc8aW5maWxlLm1hZT4nLCAnLW9tYWUnLCAnPG91dGZpbGUubWFlPic=

> <r_lp_tautomer_probability>
1

> <r_epik_Ionization_Penalty>
7.86289

> <r_epik_Ionization_Penalty_Charging>
7.86289

> <r_epik_Ionization_Penalty_Neutral>
4.79398e-13

> <r_epik_State_Penalty>
7.18546

> <r_epik_Charging_Adjusted_Penalty>
15.0484

> <i_epik_Tot_Q>
0

> <i_epik_Tot_abs_Q>
2

> <r_epik_Metal_State_Penalty>
3.4294

> <b_epik_Metal_Only>
1

> <s_lp_Force_Field>
OPLS_2005

> <r_lp_Energy>
29.989

> <b_lp_Chiralities_Consistent>
1

> <s_lp_Variant>
AV-unprocessed.smi:2252-9

> <Gold.Version>
5.8.1

> <Gold.Id.Protein>
6NUR|6NUR_protein|mol2

> <Gold.PLP.Fitness>
42.7695

> <Gold.PLP.PLP>
-41.7726

> <Gold.PLP.part.hbond>
-1.6053

> <Gold.PLP.part.metal>
0.0000

> <Gold.PLP.part.buried>
-6.0602

> <Gold.PLP.part.nonpolar>
-34.2294

> <Gold.PLP.part.repulsive>
0.1433

> <Gold.PLP.ligand.clash>
0.0000

> <Gold.PLP.ligand.torsion>
1.6862

> <Gold.PLP.Chemscore.Hbond>
1.0000

> <Gold.PLP.Chemscore.CHOScore>
0.0000

> <Gold.PLP.Chemscore.Metal>
0.0000

> <Gold.Chemscore.Hbonds>
donor molecule, donor type, donor heavy atom, donor atom, acceptor molecule, acceptor atom, score
      P1  H  7997  8009       L1    11  0.68

> <Gold.PLP.Chemscore.Internal.Correction>
1.3694

> <Gold.Rescore>
     Score         DG    S(hbond)    S(metal)    S(lipo)     H(rot)  DE(clash)    DE(int)     intcor
     14.05     -15.86       0.99        0.00     101.66       1.88       0.08       1.73       ----

> <Gold.Chemscore.Fitness>
14.0528

> <Gold.Chemscore.DG>
-15.8642

> <Gold.Chemscore.ZeroCoef>
-5.4800

> <Gold.Chemscore.Hbond>
0.9898

> <Gold.Chemscore.Metal>
0.0000

> <Gold.Chemscore.Lipo>
101.6638

> <Gold.Chemscore.Internal_Hbond>
0.0000

> <Gold.Chemscore.DEClash>
0.0827

> <Gold.Chemscore.DEInternal>
1.7287

> <Gold.Chemscore.Rot>
1.8814

> <Gold.Chemscore.Internal.Correction>
   9.000000E+99

> <Gold.Chemscore.Hbonds>
donor molecule, donor type, donor heavy atom, donor atom, acceptor molecule, acceptor atom, score
      P1  H  7997  8009       L1    11  0.21

> <Gold.Chemscore.Hbond.Weighted>
-3.3058

> <Gold.Chemscore.Metal.Weighted>
-0.0000

> <Gold.Chemscore.Lipo.Weighted>
-11.8947

> <Gold.Chemscore.Internal_Hbond.Weighted>
0.0000

> <Gold.Chemscore.DEClash.Weighted>
0.0827

> <Gold.Chemscore.DEInternal.Weighted>
1.7287

> <Gold.Chemscore.Rot.Weighted>
4.8163

> <Gold.Chemscore.Internal.Correction.Weighted>
   9.000000E+99

> <Gold.Protein.RotatedTorsions>
[ 6907 6896 6895 6894 ] final  -34.26 input  -60.11 | X-H torsion
[ 7974 7965 7964 7962 ] final -153.57 input  175.53 | X-H torsion
[ 8008 7997 7996 7995 ] final   93.42 input   59.86 | X-H torsion
[ 10167 10162 10161 10158 ] final -139.15 input  -65.29 | X-H torsion
[ 10718 10713 10712 10709 ] final  110.60 input   66.30 | X-H torsion
[ 10763 10752 10751 10750 ] final   10.26 input  -60.55 | X-H torsion
[ 11005 11000 10999 10996 ] final  170.11 input  -57.11 | X-H torsion

> <Gold.Protein.ActiveResidues>
 VAL166  LYS551  ARG553  GLY616  TRP617  ASP618  TYR619  PRO620  LYS621  CYS622 
 ASP623  PHE694  ASN695  SER759  ASP760  ASP761  ALA762  ILE779  LEU786  VAL792 
 PHE793  MET794  SER795  GLU796  ALA797  LYS798  CYS799  TRP800  GLU811  SER814 

> <Gold.Protein.RotatedAtoms>
  151.0549  134.9697  159.8230 H   0  0  0  0  0  0  0  0  0  0  0  0  # atno 6907 bound_to 6896
  152.5386  134.2491  159.8902 H   0  0  0  0  0  0  0  0  0  0  0  0  # atno 6908 bound_to 6896
  151.2508  133.4308  159.2645 H   0  0  0  0  0  0  0  0  0  0  0  0  # atno 6909 bound_to 6896
  144.7734  140.4507  143.5891 H   0  0  0  0  0  0  0  0  0  0  0  0  # atno 7974 bound_to 7965
  156.0465  140.3313  155.7303 H   0  0  0  0  0  0  0  0  0  0  0  0  # atno 8008 bound_to 7997
  155.5665  140.0624  157.2834 H   0  0  0  0  0  0  0  0  0  0  0  0  # atno 8009 bound_to 7997
  154.4416  140.1868  156.0824 H   0  0  0  0  0  0  0  0  0  0  0  0  # atno 8010 bound_to 7997
  139.8408  143.7325  152.2663 H   0  0  0  0  0  0  0  0  0  0  0  0  # atno 10167 bound_to 10162
  157.6486  131.0935  150.6625 H   0  0  0  0  0  0  0  0  0  0  0  0  # atno 10718 bound_to 10713
  153.2051  135.6861  153.8182 H   0  0  0  0  0  0  0  0  0  0  0  0  # atno 10763 bound_to 10752
  153.7435  135.3234  155.3309 H   0  0  0  0  0  0  0  0  0  0  0  0  # atno 10764 bound_to 10752
  154.8192  135.4664  154.0835 H   0  0  0  0  0  0  0  0  0  0  0  0  # atno 10765 bound_to 10752
  140.3048  134.7565  157.3945 H   0  0  0  0  0  0  0  0  0  0  0  0  # atno 11005 bound_to 11000
  145.6257  139.1530  143.2997 LP  0  0  0  0  0  0  0  0  0  0  0  0  # atno 17320 bound_to 7965
  146.1896  140.6365  142.9151 LP  0  0  0  0  0  0  0  0  0  0  0  0  # atno 17321 bound_to 7965
  139.7561  144.7520  151.0433 LP  0  0  0  0  0  0  0  0  0  0  0  0  # atno 17342 bound_to 10162
  140.7798  143.4804  151.0026 LP  0  0  0  0  0  0  0  0  0  0  0  0  # atno 17343 bound_to 10162
  156.6939  130.4603  149.5592 LP  0  0  0  0  0  0  0  0  0  0  0  0  # atno 17370 bound_to 10713
  156.1842  130.6518  151.0987 LP  0  0  0  0  0  0  0  0  0  0  0  0  # atno 17371 bound_to 10713
  140.1077  134.5388  155.8295 LP  0  0  0  0  0  0  0  0  0  0  0  0  # atno 17394 bound_to 11000
  141.2120  133.6714  156.6629 LP  0  0  0  0  0  0  0  0  0  0  0  0  # atno 17395 bound_to 11000

$$$$
