AV-unprocessed.smi:3071|AV-procd|sdf|11716|dock2
  -GOLD-   2272017113D 1   1.00000     0.00000
 Structure written by MMmdl.
 29 30  0  0  0  0  0  0  0  0  3 V2000
  150.8216  138.2780  155.0295 C   0  0  0  0  0  0  0  0  0  0  0  0
  150.0497  139.5548  154.9334 C   0  0  0  0  0  0  0  0  0  0  0  0
  149.0996  139.8212  154.0297 N   0  3  0  0  0  0  0  0  0  0  0  0
  148.5920  141.0764  154.2267 C   0  0  0  0  0  0  0  0  0  0  0  0
  149.2629  141.6007  155.3002 C   0  0  0  0  0  0  0  0  0  0  0  0
  150.1562  140.6443  155.7136 N   0  0  0  0  0  0  0  0  0  0  0  0
  151.0962  140.7581  156.8381 C   0  0  0  0  0  0  0  0  0  0  0  0
  150.9954  142.1100  157.5707 C   0  0  1  0  0  0  0  0  0  0  0  0
  151.8835  142.2440  158.8117 C   0  0  0  0  0  0  0  0  0  0  0  0
  152.0292  143.7538  158.9600 C   0  0  0  0  0  0  0  0  0  0  0  0
  152.0745  144.2525  157.5132 C   0  0  0  0  0  0  0  0  0  0  0  0
  151.3702  143.2411  156.6982 N   0  3  0  0  0  0  0  0  0  0  0  0
  150.4854  137.5997  154.2445 H   0  0  0  0  0  0  0  0  0  0  0  0
  150.6404  137.8305  156.0070 H   0  0  0  0  0  0  0  0  0  0  0  0
  151.8818  138.4955  154.9013 H   0  0  0  0  0  0  0  0  0  0  0  0
  147.8111  141.4907  153.6053 H   0  0  0  0  0  0  0  0  0  0  0  0
  149.1726  142.5612  155.7868 H   0  0  0  0  0  0  0  0  0  0  0  0
  150.8822  139.9388  157.5259 H   0  0  0  0  0  0  0  0  0  0  0  0
  152.1074  140.5922  156.4646 H   0  0  0  0  0  0  0  0  0  0  0  0
  149.9622  142.2816  157.8757 H   0  0  0  0  0  0  0  0  0  0  0  0
  151.4529  141.7727  159.6959 H   0  0  0  0  0  0  0  0  0  0  0  0
  152.8621  141.7960  158.6314 H   0  0  0  0  0  0  0  0  0  0  0  0
  151.1514  144.1599  159.4651 H   0  0  0  0  0  0  0  0  0  0  0  0
  152.9099  144.0422  159.5351 H   0  0  0  0  0  0  0  0  0  0  0  0
  151.6194  145.2375  157.4034 H   0  0  0  0  0  0  0  0  0  0  0  0
  153.1062  144.3182  157.1655 H   0  0  0  0  0  0  0  0  0  0  0  0
  152.0016  142.9173  155.9790 H   0  0  0  0  0  0  0  0  0  0  0  0
  150.5457  143.6383  156.2702 H   0  0  0  0  0  0  0  0  0  0  0  0
  148.7977  139.1811  153.3054 H   0  0  0  0  0  0  0  0  0  0  0  0
  1  2  1  0  0  0  0
  1 13  1  0  0  0  0
  1 14  1  0  0  0  0
  1 15  1  0  0  0  0
  2  6  1  0  0  0  0
  2  3  2  0  0  0  0
  3  4  1  0  0  0  0
  3 29  1  0  0  0  0
  4  5  2  0  0  0  0
  4 16  1  0  0  0  0
  5  6  1  0  0  0  0
  5 17  1  0  0  0  0
  6  7  1  0  0  0  0
  7  8  1  0  0  0  0
  7 18  1  0  0  0  0
  7 19  1  0  0  0  0
  8 12  1  0  0  0  0
  8  9  1  0  0  0  0
  8 20  1  0  0  0  0
  9 10  1  0  0  0  0
  9 21  1  0  0  0  0
  9 22  1  0  0  0  0
 10 11  1  0  0  0  0
 10 23  1  0  0  0  0
 10 24  1  0  0  0  0
 11 12  1  0  0  0  0
 11 25  1  0  0  0  0
 11 26  1  0  0  0  0
 12 27  1  0  0  0  0
 12 28  1  0  0  0  0
M  CHG  1   3   1
M  CHG  1  12   1
M  END
> <s_m_source_file>
AV-unprocessed.smi

> <i_m_source_file_index>
3071

> <i_lp_mmshare_version>
43012

> <i_f3d_flags>
0

> <s_epik_input>
W0NIM11jMW5bY0hdW2NIXW4xW0NIMl1bQ0BASF0yW0NIMl1bQ0gyXVtDSDJdW05IXTI=

> <s_epik_cmdline>
J2VwaWtfcHl0aG9uJywgJy1waCcsICc3LjAnLCAnLXRuJywgJzgnLCAnLW1hJywgJzIwMCcsICctbWV0YWxfYmluZGluZycsICctaW1hZScsICc8aW5maWxlLm1hZT4nLCAnLW9tYWUnLCAnPG91dGZpbGUubWFlPic=

> <r_lp_tautomer_probability>
1

> <r_epik_Ionization_Penalty>
0.770167

> <r_epik_Ionization_Penalty_Charging>
0.000985251

> <r_epik_Ionization_Penalty_Neutral>
0.769181

> <r_epik_State_Penalty>
0.493256

> <r_epik_Charging_Adjusted_Penalty>
0.494241

> <i_epik_Tot_Q>
2

> <i_epik_Tot_abs_Q>
2

> <r_epik_Metal_State_Penalty>
4.24699

> <b_epik_Metal_Only>
0

> <s_lp_Force_Field>
OPLS_2005

> <r_lp_Energy>
34.2931

> <b_lp_Chiralities_Consistent>
1

> <s_lp_Variant>
AV-unprocessed.smi:3071-4

> <Gold.Version>
5.8.1

> <Gold.Id.Protein>
6NUR|6NUR_protein|mol2

> <Gold.PLP.Fitness>
40.8758

> <Gold.PLP.PLP>
-30.8370

> <Gold.PLP.part.hbond>
-2.0000

> <Gold.PLP.part.metal>
0.0000

> <Gold.PLP.part.buried>
-1.7658

> <Gold.PLP.part.nonpolar>
-27.5714

> <Gold.PLP.part.repulsive>
0.1890

> <Gold.PLP.ligand.clash>
0.0000

> <Gold.PLP.ligand.torsion>
0.0088

> <Gold.PLP.Chemscore.Hbond>
2.3520

> <Gold.PLP.Chemscore.CHOScore>
1.0000

> <Gold.PLP.Chemscore.Metal>
0.0000

> <Gold.Chemscore.Hbonds>
donor molecule, donor type, donor heavy atom, donor atom, acceptor molecule, acceptor atom, score
      L1  H    12    28       P1  8028  1.85
      L1  C     5    17       P1  8028  1.00

> <Gold.PLP.Chemscore.Internal.Correction>
0.0004

> <Gold.Rescore>
     Score         DG    S(hbond)    S(metal)    S(lipo)     H(rot)  DE(clash)    DE(int)     intcor
     14.61     -14.93       1.28        0.00      71.45       1.25       0.27       0.05       ----

> <Gold.Chemscore.Fitness>
14.6125

> <Gold.Chemscore.DG>
-14.9258

> <Gold.Chemscore.ZeroCoef>
-5.4800

> <Gold.Chemscore.Hbond>
1.2816

> <Gold.Chemscore.Metal>
0.0000

> <Gold.Chemscore.Lipo>
71.4469

> <Gold.Chemscore.Internal_Hbond>
0.0000

> <Gold.Chemscore.DEClash>
0.2655

> <Gold.Chemscore.DEInternal>
0.0478

> <Gold.Chemscore.Rot>
1.2477

> <Gold.Chemscore.Internal.Correction>
   9.000000E+99

> <Gold.Chemscore.Hbonds>
donor molecule, donor type, donor heavy atom, donor atom, acceptor molecule, acceptor atom, score
      L1  H     3    29       P1  7957  0.01
      L1  H    12    28       P1  8028  0.89

> <Gold.Chemscore.Hbond.Weighted>
-4.2806

> <Gold.Chemscore.Metal.Weighted>
-0.0000

> <Gold.Chemscore.Lipo.Weighted>
-8.3593

> <Gold.Chemscore.Internal_Hbond.Weighted>
0.0000

> <Gold.Chemscore.DEClash.Weighted>
0.2655

> <Gold.Chemscore.DEInternal.Weighted>
0.0478

> <Gold.Chemscore.Rot.Weighted>
3.1941

> <Gold.Chemscore.Internal.Correction.Weighted>
   9.000000E+99

> <Gold.Protein.RotatedTorsions>
[ 6907 6896 6895 6894 ] final   39.33 input  -60.11 | X-H torsion
[ 7974 7965 7964 7962 ] final   86.19 input  175.53 | X-H torsion
[ 8008 7997 7996 7995 ] final  -11.28 input   59.86 | X-H torsion
[ 10167 10162 10161 10158 ] final   -4.74 input  -65.29 | X-H torsion
[ 10718 10713 10712 10709 ] final  -70.75 input   66.30 | X-H torsion
[ 10763 10752 10751 10750 ] final  134.39 input  -60.55 | X-H torsion
[ 11005 11000 10999 10996 ] final   77.46 input  -57.11 | X-H torsion

> <Gold.Protein.ActiveResidues>
 VAL166  LYS551  ARG553  GLY616  TRP617  ASP618  TYR619  PRO620  LYS621  CYS622 
 ASP623  PHE694  ASN695  SER759  ASP760  ASP761  ALA762  ILE779  LEU786  VAL792 
 PHE793  MET794  SER795  GLU796  ALA797  LYS798  CYS799  TRP800  GLU811  SER814 

> <Gold.Protein.RotatedAtoms>
  152.1681  134.8857  160.0536 H   0  0  0  0  0  0  0  0  0  0  0  0  # atno 6907 bound_to 6896
  151.9827  133.3758  159.4122 H   0  0  0  0  0  0  0  0  0  0  0  0  # atno 6908 bound_to 6896
  150.6897  134.3944  159.5135 H   0  0  0  0  0  0  0  0  0  0  0  0  # atno 6909 bound_to 6896
  145.5756  139.2319  143.2381 H   0  0  0  0  0  0  0  0  0  0  0  0  # atno 7974 bound_to 7965
  154.5479  140.2306  155.8533 H   0  0  0  0  0  0  0  0  0  0  0  0  # atno 8008 bound_to 7997
  156.1920  140.3075  155.9312 H   0  0  0  0  0  0  0  0  0  0  0  0  # atno 8009 bound_to 7997
  155.3128  140.0436  157.3026 H   0  0  0  0  0  0  0  0  0  0  0  0  # atno 8010 bound_to 7997
  140.6938  143.6388  150.8454 H   0  0  0  0  0  0  0  0  0  0  0  0  # atno 10167 bound_to 10162
  156.0393  130.4337  150.2342 H   0  0  0  0  0  0  0  0  0  0  0  0  # atno 10718 bound_to 10713
  153.8227  135.3114  155.3412 H   0  0  0  0  0  0  0  0  0  0  0  0  # atno 10763 bound_to 10752
  154.8006  135.4729  154.0269 H   0  0  0  0  0  0  0  0  0  0  0  0  # atno 10764 bound_to 10752
  153.1683  135.6873  153.8734 H   0  0  0  0  0  0  0  0  0  0  0  0  # atno 10765 bound_to 10752
  139.9254  134.7684  156.1524 H   0  0  0  0  0  0  0  0  0  0  0  0  # atno 11005 bound_to 11000
  146.1753  140.6582  142.9214 LP  0  0  0  0  0  0  0  0  0  0  0  0  # atno 17320 bound_to 7965
  144.7417  140.4961  143.6864 LP  0  0  0  0  0  0  0  0  0  0  0  0  # atno 17321 bound_to 7965
  140.0104  143.5648  152.2841 LP  0  0  0  0  0  0  0  0  0  0  0  0  # atno 17342 bound_to 10162
  139.6370  144.7651  151.2417 LP  0  0  0  0  0  0  0  0  0  0  0  0  # atno 17343 bound_to 10162
  157.0438  131.0043  151.3275 LP  0  0  0  0  0  0  0  0  0  0  0  0  # atno 17370 bound_to 10713
  157.5190  130.7986  149.7788 LP  0  0  0  0  0  0  0  0  0  0  0  0  # atno 17371 bound_to 10713
  141.0807  133.6755  156.2330 LP  0  0  0  0  0  0  0  0  0  0  0  0  # atno 17394 bound_to 11000
  140.6353  134.5222  157.5564 LP  0  0  0  0  0  0  0  0  0  0  0  0  # atno 17395 bound_to 11000

$$$$
