AV-unprocessed.smi:113|AV-procd|sdf|1097|dock2
  -GOLD-   2262018203D 1   1.00000     0.00000
 Structure written by MMmdl.
 52 55  0  0  0  0  0  0  0  0  1 V2000
  152.3416  137.8098  158.6836 C   0  0  0  0  0  0  0  0  0  0  0  0
  152.1514  139.3000  158.4919 C   0  0  0  0  0  0  0  0  0  0  0  0
  151.5694  139.8058  157.3159 C   0  0  0  0  0  0  0  0  0  0  0  0
  151.4114  141.2036  157.1749 C   0  0  0  0  0  0  0  0  0  0  0  0
  150.7805  141.8072  155.9150 C   0  0  0  0  0  0  0  0  0  0  0  0
  149.3654  141.5429  155.6958 N   0  0  0  0  0  0  0  0  0  0  0  0
  148.9790  141.0201  154.4376 C   0  0  0  0  0  0  0  0  0  0  0  0
  149.8044  140.8020  153.5481 O   0  0  0  0  0  0  0  0  0  0  0  0
  147.5479  140.7444  154.2914 C   0  0  0  0  0  0  0  0  0  0  0  0
  147.0596  140.1763  152.9680 C   0  0  0  0  0  0  0  0  0  0  0  0
  146.7063  140.9900  155.3244 C   0  0  0  0  0  0  0  0  0  0  0  0
  147.1092  141.5071  156.5429 N   0  0  0  0  0  0  0  0  0  0  0  0
  146.0966  141.6808  157.6532 C   0  0  2  0  0  0  0  0  0  0  0  0
  144.6644  141.2842  157.2530 C   0  0  0  0  0  0  0  0  0  0  0  0
  143.8272  142.4726  157.7157 C   0  0  2  0  0  0  0  0  0  0  0  0
  143.3294  143.1892  156.6015 O   0  0  0  0  0  0  0  0  0  0  0  0
  144.7988  143.3015  158.5760 C   0  0  2  0  0  0  0  0  0  0  0  0
  144.5556  144.8195  158.6505 C   0  0  0  0  0  0  0  0  0  0  0  0
  145.7334  145.4879  159.0513 O   0  0  0  0  0  0  0  0  0  0  0  0
  146.0756  143.0217  158.0245 O   0  0  0  0  0  0  0  0  0  0  0  0
  148.4774  141.7733  156.7704 C   0  0  0  0  0  0  0  0  0  0  0  0
  148.8773  142.1697  157.8670 O   0  0  0  0  0  0  0  0  0  0  0  0
  151.8531  142.0337  158.2408 C   0  0  0  0  0  0  0  0  0  0  0  0
  151.7282  143.4431  158.1818 C   0  0  0  0  0  0  0  0  0  0  0  0
  152.1730  144.2469  159.2467 C   0  0  0  0  0  0  0  0  0  0  0  0
  152.7465  143.6510  160.3820 C   0  0  0  0  0  0  0  0  0  0  0  0
  152.8737  142.2520  160.4489 C   0  0  0  0  0  0  0  0  0  0  0  0
  152.4341  141.4254  159.3926 C   0  0  0  0  0  0  0  0  0  0  0  0
  152.5745  140.0859  159.5009 N   0  0  0  0  0  0  0  0  0  0  0  0
  151.7029  137.2420  158.0063 H   0  0  0  0  0  0  0  0  0  0  0  0
  152.0945  137.5164  159.7045 H   0  0  0  0  0  0  0  0  0  0  0  0
  153.3781  137.5347  158.4877 H   0  0  0  0  0  0  0  0  0  0  0  0
  151.2530  139.1202  156.5445 H   0  0  0  0  0  0  0  0  0  0  0  0
  150.9148  142.8899  155.9108 H   0  0  0  0  0  0  0  0  0  0  0  0
  151.3127  141.4668  155.0253 H   0  0  0  0  0  0  0  0  0  0  0  0
  145.9794  140.0283  152.9630 H   0  0  0  0  0  0  0  0  0  0  0  0
  147.5296  139.2119  152.7713 H   0  0  0  0  0  0  0  0  0  0  0  0
  147.3069  140.8517  152.1481 H   0  0  0  0  0  0  0  0  0  0  0  0
  145.6578  140.7687  155.1841 H   0  0  0  0  0  0  0  0  0  0  0  0
  146.4570  141.0901  158.4963 H   0  0  0  0  0  0  0  0  0  0  0  0
  144.5736  141.0850  156.1845 H   0  0  0  0  0  0  0  0  0  0  0  0
  144.3947  140.3730  157.7875 H   0  0  0  0  0  0  0  0  0  0  0  0
  142.9715  142.1464  158.3078 H   0  0  0  0  0  0  0  0  0  0  0  0
  143.6432  142.7780  155.8109 H   0  0  0  0  0  0  0  0  0  0  0  0
  144.8025  142.8927  159.5884 H   0  0  0  0  0  0  0  0  0  0  0  0
  144.2725  145.1953  157.6670 H   0  0  0  0  0  0  0  0  0  0  0  0
  143.7376  145.0658  159.3277 H   0  0  0  0  0  0  0  0  0  0  0  0
  146.3935  145.3636  158.3869 H   0  0  0  0  0  0  0  0  0  0  0  0
  151.2915  143.9331  157.3252 H   0  0  0  0  0  0  0  0  0  0  0  0
  152.0733  145.3210  159.1916 H   0  0  0  0  0  0  0  0  0  0  0  0
  153.0883  144.2657  161.2018 H   0  0  0  0  0  0  0  0  0  0  0  0
  153.3161  141.8052  161.3274 H   0  0  0  0  0  0  0  0  0  0  0  0
  1  2  1  0  0  0  0
  1 30  1  0  0  0  0
  1 31  1  0  0  0  0
  1 32  1  0  0  0  0
  2 29  1  0  0  0  0
  2  3  2  0  0  0  0
  3  4  1  0  0  0  0
  3 33  1  0  0  0  0
  4  5  1  0  0  0  0
  4 23  2  0  0  0  0
  5  6  1  0  0  0  0
  5 34  1  0  0  0  0
  5 35  1  0  0  0  0
  6 21  1  0  0  0  0
  6  7  1  0  0  0  0
  7  8  2  0  0  0  0
  7  9  1  0  0  0  0
  9 10  1  0  0  0  0
  9 11  2  0  0  0  0
 10 36  1  0  0  0  0
 10 37  1  0  0  0  0
 10 38  1  0  0  0  0
 11 12  1  0  0  0  0
 11 39  1  0  0  0  0
 12 13  1  0  0  0  0
 12 21  1  0  0  0  0
 13 20  1  0  0  0  0
 13 14  1  0  0  0  0
 13 40  1  0  0  0  0
 14 15  1  0  0  0  0
 14 41  1  0  0  0  0
 14 42  1  0  0  0  0
 15 16  1  0  0  0  0
 15 17  1  0  0  0  0
 15 43  1  0  0  0  0
 16 44  1  0  0  0  0
 17 18  1  0  0  0  0
 17 20  1  0  0  0  0
 17 45  1  0  0  0  0
 18 19  1  0  0  0  0
 18 46  1  0  0  0  0
 18 47  1  0  0  0  0
 19 48  1  0  0  0  0
 21 22  2  0  0  0  0
 23 28  1  0  0  0  0
 23 24  1  0  0  0  0
 24 25  2  0  0  0  0
 24 49  1  0  0  0  0
 25 26  1  0  0  0  0
 25 50  1  0  0  0  0
 26 27  2  0  0  0  0
 26 51  1  0  0  0  0
 27 28  1  0  0  0  0
 27 52  1  0  0  0  0
 28 29  2  0  0  0  0
M  END
> <s_m_source_file>
AV-unprocessed.smi

> <i_m_source_file_index>
113

> <i_lp_mmshare_version>
43012

> <i_f3d_flags>
0

> <s_epik_input>
W2NIXTFbY0hdW2NIXVtjSF1jKGMxMiluYyhbQ0gzXSlbY0hdYzJbQ0gyXW4zYyg9TyljKFtDSDNdKVtjSF1uKGMzPU8pW0NAQEhdNFtDSDJdW0NAQEhdKFtPSF0pW0NASF0oTzQpW0NIMl1bT0hd

> <s_epik_cmdline>
J2VwaWtfcHl0aG9uJywgJy1waCcsICc3LjAnLCAnLXRuJywgJzgnLCAnLW1hJywgJzIwMCcsICctbWV0YWxfYmluZGluZycsICctaW1hZScsICc8aW5maWxlLm1hZT4nLCAnLW9tYWUnLCAnPG91dGZpbGUubWFlPic=

> <r_lp_tautomer_probability>
1

> <r_epik_Ionization_Penalty>
0.214728

> <r_epik_Ionization_Penalty_Charging>
3.04883e-08

> <r_epik_Ionization_Penalty_Neutral>
0.214728

> <r_epik_State_Penalty>
0.204913

> <r_epik_Charging_Adjusted_Penalty>
0.204913

> <i_epik_Tot_Q>
0

> <i_epik_Tot_abs_Q>
0

> <r_epik_Metal_State_Penalty>
0.000244761

> <b_epik_Metal_Only>
0

> <s_epik_Chemistry_Notes>
This compound contains an acetal/aminal-like group ( X-CH(R)-Y where X, Y are N, S, or O) that may be acid/base labile, releasing an aldehyde.

> <s_lp_Force_Field>
OPLS_2005

> <r_lp_Energy>
37.3201

> <b_lp_Chiralities_Consistent>
1

> <s_lp_Variant>
AV-unprocessed.smi:113-7

> <Gold.Version>
5.8.1

> <Gold.Id.Protein>
6NUR|6NUR_protein|mol2

> <Gold.PLP.Fitness>
47.6989

> <Gold.PLP.PLP>
-41.2045

> <Gold.PLP.part.hbond>
-2.7257

> <Gold.PLP.part.metal>
0.0000

> <Gold.PLP.part.buried>
-3.8635

> <Gold.PLP.part.nonpolar>
-36.8351

> <Gold.PLP.part.repulsive>
4.3111

> <Gold.PLP.ligand.clash>
0.0000

> <Gold.PLP.ligand.torsion>
0.3464

> <Gold.PLP.Chemscore.Hbond>
2.3840

> <Gold.PLP.Chemscore.CHOScore>
0.0000

> <Gold.PLP.Chemscore.Metal>
0.0000

> <Gold.Chemscore.Hbonds>
donor molecule, donor type, donor heavy atom, donor atom, acceptor molecule, acceptor atom, score
      L1  H    19    48       P1  8029  1.00
      P1  H  7989  7998       L1     8  0.37
      P1  H  8011  8017       L1     8  1.00

> <Gold.PLP.Chemscore.Internal.Correction>
0.0352

> <Gold.Rescore>
     Score         DG    S(hbond)    S(metal)    S(lipo)     H(rot)  DE(clash)    DE(int)     intcor
     13.19     -18.58       2.03        0.00     118.41       2.95       2.59       2.80       ----

> <Gold.Chemscore.Fitness>
13.1851

> <Gold.Chemscore.DG>
-18.5798

> <Gold.Chemscore.ZeroCoef>
-5.4800

> <Gold.Chemscore.Hbond>
2.0330

> <Gold.Chemscore.Metal>
0.0000

> <Gold.Chemscore.Lipo>
118.4074

> <Gold.Chemscore.Internal_Hbond>
0.0000

> <Gold.Chemscore.DEClash>
2.5939

> <Gold.Chemscore.DEInternal>
2.8009

> <Gold.Chemscore.Rot>
2.9469

> <Gold.Chemscore.Internal.Correction>
   9.000000E+99

> <Gold.Chemscore.Hbonds>
donor molecule, donor type, donor heavy atom, donor atom, acceptor molecule, acceptor atom, score
      L1  H    19    48       P1  8029  0.96
      P1  H  7989  7998       L1     8  0.36
      P1  H  8011  8017       L1     8  0.56

> <Gold.Chemscore.Hbond.Weighted>
-6.7901

> <Gold.Chemscore.Metal.Weighted>
-0.0000

> <Gold.Chemscore.Lipo.Weighted>
-13.8537

> <Gold.Chemscore.Internal_Hbond.Weighted>
0.0000

> <Gold.Chemscore.DEClash.Weighted>
2.5939

> <Gold.Chemscore.DEInternal.Weighted>
2.8009

> <Gold.Chemscore.Rot.Weighted>
7.5439

> <Gold.Chemscore.Internal.Correction.Weighted>
   9.000000E+99

> <Gold.Protein.RotatedTorsions>
[ 6907 6896 6895 6894 ] final -102.32 input  -60.11 | X-H torsion
[ 7974 7965 7964 7962 ] final   13.52 input  175.53 | X-H torsion
[ 8008 7997 7996 7995 ] final  155.40 input   59.86 | X-H torsion
[ 10167 10162 10161 10158 ] final -117.90 input  -65.29 | X-H torsion
[ 10718 10713 10712 10709 ] final  -27.45 input   66.30 | X-H torsion
[ 10763 10752 10751 10750 ] final   72.94 input  -60.55 | X-H torsion
[ 11005 11000 10999 10996 ] final -165.83 input  -57.11 | X-H torsion

> <Gold.Protein.ActiveResidues>
 VAL166  LYS551  ARG553  GLY616  TRP617  ASP618  TYR619  PRO620  LYS621  CYS622 
 ASP623  PHE694  ASN695  SER759  ASP760  ASP761  ALA762  ILE779  LEU786  VAL792 
 PHE793  MET794  SER795  GLU796  ALA797  LYS798  CYS799  TRP800  GLU811  SER814 

> <Gold.Protein.RotatedAtoms>
  150.7191  134.0600  159.3827 H   0  0  0  0  0  0  0  0  0  0  0  0  # atno 6907 bound_to 6896
  151.8579  135.0532  160.0475 H   0  0  0  0  0  0  0  0  0  0  0  0  # atno 6908 bound_to 6896
  152.2740  133.5373  159.5493 H   0  0  0  0  0  0  0  0  0  0  0  0  # atno 6909 bound_to 6896
  146.2327  139.9177  142.8515 H   0  0  0  0  0  0  0  0  0  0  0  0  # atno 7974 bound_to 7965
  156.2480  140.1940  156.6795 H   0  0  0  0  0  0  0  0  0  0  0  0  # atno 8008 bound_to 7997
  154.6332  140.0593  156.9783 H   0  0  0  0  0  0  0  0  0  0  0  0  # atno 8009 bound_to 7997
  155.1678  140.3265  155.4401 H   0  0  0  0  0  0  0  0  0  0  0  0  # atno 8010 bound_to 7997
  140.0633  143.4946  152.2020 H   0  0  0  0  0  0  0  0  0  0  0  0  # atno 10167 bound_to 10162
  156.4381  130.4458  149.7071 H   0  0  0  0  0  0  0  0  0  0  0  0  # atno 10718 bound_to 10713
  153.0490  135.5081  154.7819 H   0  0  0  0  0  0  0  0  0  0  0  0  # atno 10763 bound_to 10752
  154.6696  135.2951  154.9761 H   0  0  0  0  0  0  0  0  0  0  0  0  # atno 10764 bound_to 10752
  154.0584  135.6694  153.4861 H   0  0  0  0  0  0  0  0  0  0  0  0  # atno 10765 bound_to 10752
  140.5713  134.5235  157.5162 H   0  0  0  0  0  0  0  0  0  0  0  0  # atno 11005 bound_to 11000
  145.2168  140.9918  143.4069 LP  0  0  0  0  0  0  0  0  0  0  0  0  # atno 17320 bound_to 7965
  144.9644  139.3945  143.6340 LP  0  0  0  0  0  0  0  0  0  0  0  0  # atno 17321 bound_to 7965
  139.5880  144.7539  151.3471 LP  0  0  0  0  0  0  0  0  0  0  0  0  # atno 17342 bound_to 10162
  140.7161  143.7262  150.7658 LP  0  0  0  0  0  0  0  0  0  0  0  0  # atno 17343 bound_to 10162
  156.3947  130.7645  151.2648 LP  0  0  0  0  0  0  0  0  0  0  0  0  # atno 17370 bound_to 10713
  157.7507  131.0257  150.3932 LP  0  0  0  0  0  0  0  0  0  0  0  0  # atno 17371 bound_to 10713
  139.9360  134.7874  156.0801 LP  0  0  0  0  0  0  0  0  0  0  0  0  # atno 17394 bound_to 11000
  141.1054  133.6662  156.2852 LP  0  0  0  0  0  0  0  0  0  0  0  0  # atno 17395 bound_to 11000

$$$$
