AV-unprocessed.smi:157|AV-procd|sdf|1319|dock6
  -GOLD-   2262019 13D 1   1.00000     0.00000
 Structure written by MMmdl.
 36 38  0  0  0  0  0  0  0  0  2 V2000
  148.7774  140.0446  153.5105 O   0  0  0  0  0  0  0  0  0  0  0  0
  149.0237  138.9134  154.3179 C   0  0  0  0  0  0  0  0  0  0  0  0
  150.4770  138.4302  154.1150 C   0  0  1  0  0  0  0  0  0  0  0  0
  151.3549  139.5314  154.3617 O   0  0  0  0  0  0  0  0  0  0  0  0
  151.9203  139.4525  155.6399 C   0  0  1  0  0  0  0  0  0  0  0  0
  151.5836  140.6951  156.4022 N   0  0  0  0  0  0  0  0  0  0  0  0
  150.7195  141.6656  156.0342 C   0  0  0  0  0  0  0  0  0  0  0  0
  150.6203  142.6630  156.8968 N   0  3  0  0  0  0  0  0  0  0  0  0
  151.4808  142.3706  157.9334 C   0  0  0  0  0  0  0  0  0  0  0  0
  152.0656  141.1436  157.6103 C   0  0  0  0  0  0  0  0  0  0  0  0
  153.0124  140.3852  158.3157 N   0  0  0  0  0  0  0  0  0  0  0  0
  153.2770  140.5801  159.5667 C   0  0  0  0  0  0  0  0  0  0  0  0
  152.8023  141.5660  160.4157 N   0  0  0  0  0  0  0  0  0  0  0  0
  152.7611  142.9708  160.0500 C   0  0  0  0  0  0  0  0  0  0  0  0
  151.6265  143.3239  159.0788 C   0  0  2  0  0  0  0  0  0  0  0  0
  150.4310  143.4708  159.8169 O   0  0  0  0  0  0  0  0  0  0  0  0
  151.3161  138.2280  156.3262 C   0  0  0  0  0  0  0  0  0  0  0  0
  150.9598  137.3792  155.1269 C   0  0  1  0  0  0  0  0  0  0  0  0
  150.0068  136.3860  155.4463 O   0  0  0  0  0  0  0  0  0  0  0  0
  150.6059  138.0571  153.0980 H   0  0  0  0  0  0  0  0  0  0  0  0
  153.0092  139.4354  155.5795 H   0  0  0  0  0  0  0  0  0  0  0  0
  151.8439  144.3081  158.6625 H   0  0  0  0  0  0  0  0  0  0  0  0
  151.8603  136.8944  154.7464 H   0  0  0  0  0  0  0  0  0  0  0  0
  149.0365  139.8436  152.6241 H   0  0  0  0  0  0  0  0  0  0  0  0
  148.8088  139.1432  155.3612 H   0  0  0  0  0  0  0  0  0  0  0  0
  148.3145  138.1467  154.0064 H   0  0  0  0  0  0  0  0  0  0  0  0
  150.1604  141.6310  155.1160 H   0  0  0  0  0  0  0  0  0  0  0  0
  153.9711  139.9059  160.0706 H   0  0  0  0  0  0  0  0  0  0  0  0
  152.9287  141.4477  161.4109 H   0  0  0  0  0  0  0  0  0  0  0  0
  152.7058  143.5836  160.9505 H   0  0  0  0  0  0  0  0  0  0  0  0
  153.7155  143.2118  159.5794 H   0  0  0  0  0  0  0  0  0  0  0  0
  150.2346  144.3914  159.8978 H   0  0  0  0  0  0  0  0  0  0  0  0
  152.0298  137.7595  157.0044 H   0  0  0  0  0  0  0  0  0  0  0  0
  150.4236  138.5141  156.8860 H   0  0  0  0  0  0  0  0  0  0  0  0
  149.7998  136.4524  156.3663 H   0  0  0  0  0  0  0  0  0  0  0  0
  150.0342  143.4828  156.8025 H   0  0  0  0  0  0  0  0  0  0  0  0
  1  2  1  0  0  0  0
  1 24  1  0  0  0  0
  2  3  1  0  0  0  0
  2 25  1  0  0  0  0
  2 26  1  0  0  0  0
  3 20  1  0  0  0  0
  3 18  1  0  0  0  0
  3  4  1  0  0  0  0
  4  5  1  0  0  0  0
  5 21  1  0  0  0  0
  5  6  1  0  0  0  0
  5 17  1  0  0  0  0
  6 10  1  0  0  0  0
  6  7  1  0  0  0  0
  7  8  2  0  0  0  0
  7 27  1  0  0  0  0
  8  9  1  0  0  0  0
  8 36  1  0  0  0  0
  9 15  1  0  0  0  0
  9 10  2  0  0  0  0
 10 11  1  0  0  0  0
 11 12  2  0  0  0  0
 12 13  1  0  0  0  0
 12 28  1  0  0  0  0
 13 14  1  0  0  0  0
 13 29  1  0  0  0  0
 14 15  1  0  0  0  0
 14 30  1  0  0  0  0
 14 31  1  0  0  0  0
 15 22  1  0  0  0  0
 15 16  1  0  0  0  0
 16 32  1  0  0  0  0
 17 18  1  0  0  0  0
 17 33  1  0  0  0  0
 17 34  1  0  0  0  0
 18 23  1  0  0  0  0
 18 19  1  0  0  0  0
 19 35  1  0  0  0  0
M  CHG  1   8   1
M  END
> <s_m_source_file>
AV-unprocessed.smi

> <i_m_source_file_index>
157

> <i_lp_mmshare_version>
43012

> <i_f3d_flags>
0

> <s_epik_input>
W09IXVtDSDJdW0NASF0xT1tDQEhdKFtDSDJdW0NAQEhdMVtPSF0pbihbY0hdbjIpYyhjMjMpTj1bQ0hdW05IXVtDSDJdW0NASF0zW09IXQ==

> <s_epik_cmdline>
J2VwaWtfcHl0aG9uJywgJy1waCcsICc3LjAnLCAnLXRuJywgJzgnLCAnLW1hJywgJzIwMCcsICctbWV0YWxfYmluZGluZycsICctaW1hZScsICc8aW5maWxlLm1hZT4nLCAnLW9tYWUnLCAnPG91dGZpbGUubWFlPic=

> <r_epik_Ionization_Penalty>
1.68594

> <r_epik_Ionization_Penalty_Charging>
0

> <r_epik_Ionization_Penalty_Neutral>
1.68594

> <r_epik_State_Penalty>
1.79006

> <r_epik_Charging_Adjusted_Penalty>
1.79006

> <i_epik_Tot_Q>
1

> <i_epik_Tot_abs_Q>
1

> <r_epik_Metal_State_Penalty>
5.85324

> <b_epik_Metal_Only>
0

> <s_epik_Chemistry_Notes>
This compound has an imine and may undergo hydrolysis. This compound contains an acetal/aminal-like group ( X-CH(R)-Y where X, Y are N, S, or O) that may be acid/base labile, releasing an aldehyde.

> <s_lp_Force_Field>
OPLS_2005

> <r_lp_Energy>
55.1144

> <b_lp_Chiralities_Consistent>
1

> <s_lp_Variant>
AV-unprocessed.smi:157-29

> <Gold.Version>
5.8.1

> <Gold.Id.Protein>
6NUR|6NUR_protein|mol2

> <Gold.PLP.Fitness>
48.1472

> <Gold.PLP.PLP>
-34.0700

> <Gold.PLP.part.hbond>
-4.9456

> <Gold.PLP.part.metal>
0.0000

> <Gold.PLP.part.buried>
-4.6649

> <Gold.PLP.part.nonpolar>
-22.8918

> <Gold.PLP.part.repulsive>
0.2577

> <Gold.PLP.ligand.clash>
0.0000

> <Gold.PLP.ligand.torsion>
0.2539

> <Gold.PLP.Chemscore.Hbond>
4.8564

> <Gold.PLP.Chemscore.CHOScore>
0.0000

> <Gold.PLP.Chemscore.Metal>
0.0000

> <Gold.Chemscore.Hbonds>
donor molecule, donor type, donor heavy atom, donor atom, acceptor molecule, acceptor atom, score
      L1  H     1    24       P1  7957  1.00
      L1  H     8    36       P1  8028  2.00
      P1  H  7989  7998       L1     4  1.00
      P1  H  7997  8008       L1    11  0.82

> <Gold.PLP.Chemscore.Internal.Correction>
0.0157

> <Gold.Rescore>
     Score         DG    S(hbond)    S(metal)    S(lipo)     H(rot)  DE(clash)    DE(int)     intcor
     13.31     -13.97       3.37        0.00      56.52       3.67       0.37       0.29       ----

> <Gold.Chemscore.Fitness>
13.3091

> <Gold.Chemscore.DG>
-13.9678

> <Gold.Chemscore.ZeroCoef>
-5.4800

> <Gold.Chemscore.Hbond>
3.3712

> <Gold.Chemscore.Metal>
0.0000

> <Gold.Chemscore.Lipo>
56.5196

> <Gold.Chemscore.Internal_Hbond>
0.0000

> <Gold.Chemscore.DEClash>
0.3683

> <Gold.Chemscore.DEInternal>
0.2904

> <Gold.Chemscore.Rot>
3.6659

> <Gold.Chemscore.Internal.Correction>
   9.000000E+99

> <Gold.Chemscore.Hbonds>
donor molecule, donor type, donor heavy atom, donor atom, acceptor molecule, acceptor atom, score
      L1  H     1    24       P1  7957  0.97
      L1  H     8    36       P1  8028  0.89
      P1  H  7989  7998       L1     4  0.95
      P1  H  7997  8008       L1    11  0.41

> <Gold.Chemscore.Hbond.Weighted>
-11.2598

> <Gold.Chemscore.Metal.Weighted>
-0.0000

> <Gold.Chemscore.Lipo.Weighted>
-6.6128

> <Gold.Chemscore.Internal_Hbond.Weighted>
0.0000

> <Gold.Chemscore.DEClash.Weighted>
0.3683

> <Gold.Chemscore.DEInternal.Weighted>
0.2904

> <Gold.Chemscore.Rot.Weighted>
9.3848

> <Gold.Chemscore.Internal.Correction.Weighted>
   9.000000E+99

> <Gold.Protein.RotatedTorsions>
[ 6907 6896 6895 6894 ] final   -1.63 input  -60.11 | X-H torsion
[ 7974 7965 7964 7962 ] final  152.00 input  175.53 | X-H torsion
[ 8008 7997 7996 7995 ] final  -82.96 input   59.86 | X-H torsion
[ 10167 10162 10161 10158 ] final  138.69 input  -65.29 | X-H torsion
[ 10718 10713 10712 10709 ] final   43.44 input   66.30 | X-H torsion
[ 10763 10752 10751 10750 ] final  -18.31 input  -60.55 | X-H torsion
[ 11005 11000 10999 10996 ] final -120.94 input  -57.11 | X-H torsion

> <Gold.Protein.ActiveResidues>
 VAL166  LYS551  ARG553  GLY616  TRP617  ASP618  TYR619  PRO620  LYS621  CYS622 
 ASP623  PHE694  ASN695  SER759  ASP760  ASP761  ALA762  ILE779  LEU786  VAL792 
 PHE793  MET794  SER795  GLU796  ALA797  LYS798  CYS799  TRP800  GLU811  SER814 

> <Gold.Protein.RotatedAtoms>
  151.5429  135.1068  159.9930 H   0  0  0  0  0  0  0  0  0  0  0  0  # atno 6907 bound_to 6896
  152.4527  133.7657  159.6782 H   0  0  0  0  0  0  0  0  0  0  0  0  # atno 6908 bound_to 6896
  150.8460  133.7794  159.3067 H   0  0  0  0  0  0  0  0  0  0  0  0  # atno 6909 bound_to 6896
  144.8252  139.6612  143.6083 H   0  0  0  0  0  0  0  0  0  0  0  0  # atno 7974 bound_to 7965
  154.6140  140.0625  156.9531 H   0  0  0  0  0  0  0  0  0  0  0  0  # atno 8008 bound_to 7997
  155.1926  140.3308  155.4338 H   0  0  0  0  0  0  0  0  0  0  0  0  # atno 8009 bound_to 7997
  156.2393  140.1878  156.7015 H   0  0  0  0  0  0  0  0  0  0  0  0  # atno 8010 bound_to 7997
  139.5102  144.6338  151.5748 H   0  0  0  0  0  0  0  0  0  0  0  0  # atno 10167 bound_to 10162
  157.4160  130.7941  149.7472 H   0  0  0  0  0  0  0  0  0  0  0  0  # atno 10718 bound_to 10713
  153.5873  135.7003  153.5438 H   0  0  0  0  0  0  0  0  0  0  0  0  # atno 10763 bound_to 10752
  153.3209  135.4074  155.1415 H   0  0  0  0  0  0  0  0  0  0  0  0  # atno 10764 bound_to 10752
  154.8607  135.3695  154.5403 H   0  0  0  0  0  0  0  0  0  0  0  0  # atno 10765 bound_to 10752
  141.0107  134.0269  157.3417 H   0  0  0  0  0  0  0  0  0  0  0  0  # atno 11005 bound_to 11000
  146.2558  139.6299  142.9396 LP  0  0  0  0  0  0  0  0  0  0  0  0  # atno 17320 bound_to 7965
  145.5015  141.0437  143.2538 LP  0  0  0  0  0  0  0  0  0  0  0  0  # atno 17321 bound_to 7965
  140.6080  143.9488  150.6433 LP  0  0  0  0  0  0  0  0  0  0  0  0  # atno 17342 bound_to 10162
  140.2721  143.3448  152.1228 LP  0  0  0  0  0  0  0  0  0  0  0  0  # atno 17343 bound_to 10162
  155.9865  130.3974  150.3209 LP  0  0  0  0  0  0  0  0  0  0  0  0  # atno 17370 bound_to 10713
  157.1352  131.0282  151.2952 LP  0  0  0  0  0  0  0  0  0  0  0  0  # atno 17371 bound_to 10713
  139.9088  135.0186  156.7603 LP  0  0  0  0  0  0  0  0  0  0  0  0  # atno 17394 bound_to 11000
  140.6738  133.9535  155.7871 LP  0  0  0  0  0  0  0  0  0  0  0  0  # atno 17395 bound_to 11000

$$$$
