AV-unprocessed.smi:1272|AV-procd|sdf|5337|dock7
  -GOLD-   22720 4463D 1   1.00000     0.00000
 Structure written by MMmdl.
 46 48  0  0  0  0  0  0  0  0  2 V2000
  153.8855  141.6478  161.9576 C   0  0  0  0  0  0  0  0  0  0  0  0
  154.1217  141.2798  160.4876 C   0  0  0  0  0  0  0  0  0  0  0  0
  152.9450  141.5725  159.6732 N   0  0  0  0  0  0  0  0  0  0  0  0
  152.3013  140.7140  158.8481 C   0  0  0  0  0  0  0  0  0  0  0  0
  152.6002  139.5363  158.6498 O   0  0  0  0  0  0  0  0  0  0  0  0
  151.2542  141.3689  158.2932 N   0  0  0  0  0  0  0  0  0  0  0  0
  150.2844  140.8127  157.3516 C   0  0  0  0  0  0  0  0  0  0  0  0
  150.4747  141.3883  155.9333 C   0  0  1  0  0  0  0  0  0  0  0  0
  151.6012  140.7611  155.3515 O   0  0  0  0  0  0  0  0  0  0  0  0
  149.2591  141.0964  155.0298 C   0  0  0  0  0  0  0  0  0  0  0  0
  148.0515  141.8657  155.4266 N   0  3  0  0  0  0  0  0  0  0  0  0
  147.0517  141.9557  154.3357 C   0  0  0  0  0  0  0  0  0  0  0  0
  145.8545  142.8171  154.7725 C   0  0  0  0  0  0  0  0  0  0  0  0
  145.2814  142.2735  155.9551 O   0  0  0  0  0  0  0  0  0  0  0  0
  146.2053  142.2596  157.0362 C   0  0  0  0  0  0  0  0  0  0  0  0
  147.4105  141.3759  156.6727 C   0  0  0  0  0  0  0  0  0  0  0  0
  151.2085  142.6752  158.8012 C   0  0  0  0  0  0  0  0  0  0  0  0
  150.3092  143.7298  158.5658 C   0  0  0  0  0  0  0  0  0  0  0  0
  150.5374  144.9413  159.2594 C   0  0  0  0  0  0  0  0  0  0  0  0
  151.6317  145.0726  160.1532 C   0  0  0  0  0  0  0  0  0  0  0  0
  152.5209  143.9947  160.3730 C   0  0  0  0  0  0  0  0  0  0  0  0
  152.2722  142.8029  159.6701 C   0  0  0  0  0  0  0  0  0  0  0  0
  154.7674  141.4264  162.5587 H   0  0  0  0  0  0  0  0  0  0  0  0
  153.0491  141.0867  162.3756 H   0  0  0  0  0  0  0  0  0  0  0  0
  153.6658  142.7101  162.0680 H   0  0  0  0  0  0  0  0  0  0  0  0
  154.9807  141.8266  160.0983 H   0  0  0  0  0  0  0  0  0  0  0  0
  154.3757  140.2219  160.4063 H   0  0  0  0  0  0  0  0  0  0  0  0
  150.3206  139.7226  157.3494 H   0  0  0  0  0  0  0  0  0  0  0  0
  149.2893  141.0677  157.7202 H   0  0  0  0  0  0  0  0  0  0  0  0
  150.6516  142.4619  155.9911 H   0  0  0  0  0  0  0  0  0  0  0  0
  151.6766  139.8874  155.7040 H   0  0  0  0  0  0  0  0  0  0  0  0
  149.5258  141.3367  153.9991 H   0  0  0  0  0  0  0  0  0  0  0  0
  149.0204  140.0317  155.0408 H   0  0  0  0  0  0  0  0  0  0  0  0
  147.5092  142.3911  153.4464 H   0  0  0  0  0  0  0  0  0  0  0  0
  146.7128  140.9541  154.0656 H   0  0  0  0  0  0  0  0  0  0  0  0
  146.1592  143.8508  154.9432 H   0  0  0  0  0  0  0  0  0  0  0  0
  145.0974  142.8337  153.9883 H   0  0  0  0  0  0  0  0  0  0  0  0
  146.5243  143.2761  157.2725 H   0  0  0  0  0  0  0  0  0  0  0  0
  145.7063  141.8687  157.9230 H   0  0  0  0  0  0  0  0  0  0  0  0
  147.0865  140.3426  156.5377 H   0  0  0  0  0  0  0  0  0  0  0  0
  148.1190  141.3820  157.5000 H   0  0  0  0  0  0  0  0  0  0  0  0
  149.4742  143.6242  157.8894 H   0  0  0  0  0  0  0  0  0  0  0  0
  149.8693  145.7763  159.1086 H   0  0  0  0  0  0  0  0  0  0  0  0
  151.7863  146.0061  160.6740 H   0  0  0  0  0  0  0  0  0  0  0  0
  153.3522  144.0873  161.0561 H   0  0  0  0  0  0  0  0  0  0  0  0
  148.3626  142.8103  155.6052 H   0  0  0  0  0  0  0  0  0  0  0  0
  1  2  1  0  0  0  0
  1 23  1  0  0  0  0
  1 24  1  0  0  0  0
  1 25  1  0  0  0  0
  2  3  1  0  0  0  0
  2 26  1  0  0  0  0
  2 27  1  0  0  0  0
  3 22  1  0  0  0  0
  3  4  1  0  0  0  0
  4  5  2  0  0  0  0
  4  6  1  0  0  0  0
  6  7  1  0  0  0  0
  6 17  1  0  0  0  0
  7  8  1  0  0  0  0
  7 28  1  0  0  0  0
  7 29  1  0  0  0  0
  8  9  1  0  0  0  0
  8 10  1  0  0  0  0
  8 30  1  0  0  0  0
  9 31  1  0  0  0  0
 10 11  1  0  0  0  0
 10 32  1  0  0  0  0
 10 33  1  0  0  0  0
 11 16  1  0  0  0  0
 11 12  1  0  0  0  0
 11 46  1  0  0  0  0
 12 13  1  0  0  0  0
 12 34  1  0  0  0  0
 12 35  1  0  0  0  0
 13 14  1  0  0  0  0
 13 36  1  0  0  0  0
 13 37  1  0  0  0  0
 14 15  1  0  0  0  0
 15 16  1  0  0  0  0
 15 38  1  0  0  0  0
 15 39  1  0  0  0  0
 16 40  1  0  0  0  0
 16 41  1  0  0  0  0
 17 22  2  0  0  0  0
 17 18  1  0  0  0  0
 18 19  2  0  0  0  0
 18 42  1  0  0  0  0
 19 20  1  0  0  0  0
 19 43  1  0  0  0  0
 20 21  2  0  0  0  0
 20 44  1  0  0  0  0
 21 22  1  0  0  0  0
 21 45  1  0  0  0  0
M  CHG  1  11   1
M  END
> <s_m_source_file>
AV-unprocessed.smi

> <i_m_source_file_index>
1272

> <i_lp_mmshare_version>
43012

> <i_f3d_flags>
0

> <s_epik_input>
W2NIXTFbY0hdW2NIXVtjSF1jKGMxMiluKFtDSDJdW0NIM10pYyg9TyluMltDSDJdW0NASF0oW09IXSlbQ0gyXU4zW0NIMl1bQ0gyXU9bQ0gyXVtDSDJdMw==

> <s_epik_cmdline>
J2VwaWtfcHl0aG9uJywgJy1waCcsICc3LjAnLCAnLXRuJywgJzgnLCAnLW1hJywgJzIwMCcsICctbWV0YWxfYmluZGluZycsICctaW1hZScsICc8aW5maWxlLm1hZT4nLCAnLW9tYWUnLCAnPG91dGZpbGUubWFlPic=

> <r_epik_Ionization_Penalty>
0.706332

> <r_epik_Ionization_Penalty_Charging>
0.706318

> <r_epik_Ionization_Penalty_Neutral>
1.42224e-05

> <r_epik_State_Penalty>
0.729493

> <r_epik_Charging_Adjusted_Penalty>
1.43581

> <i_epik_Tot_Q>
1

> <i_epik_Tot_abs_Q>
1

> <r_epik_Metal_State_Penalty>
0.729493

> <b_epik_Metal_Only>
0

> <s_lp_Force_Field>
OPLS_2005

> <r_lp_Energy>
52.83

> <b_lp_Chiralities_Consistent>
1

> <s_lp_Variant>
AV-unprocessed.smi:1272-4

> <Gold.Version>
5.8.1

> <Gold.Id.Protein>
6NUR|6NUR_protein|mol2

> <Gold.PLP.Fitness>
58.4150

> <Gold.PLP.PLP>
-50.8911

> <Gold.PLP.part.hbond>
-2.0000

> <Gold.PLP.part.metal>
0.0000

> <Gold.PLP.part.buried>
-7.6041

> <Gold.PLP.part.nonpolar>
-42.1483

> <Gold.PLP.part.repulsive>
0.2773

> <Gold.PLP.ligand.clash>
0.0000

> <Gold.PLP.ligand.torsion>
0.4854

> <Gold.PLP.Chemscore.Hbond>
2.8000

> <Gold.PLP.Chemscore.CHOScore>
0.0000

> <Gold.PLP.Chemscore.Metal>
0.0000

> <Gold.Chemscore.Hbonds>
donor molecule, donor type, donor heavy atom, donor atom, acceptor molecule, acceptor atom, score
      L1  H    11    46       P1  8028  2.00
      P1  H  7989  7998       L1     9  0.67

> <Gold.PLP.Chemscore.Internal.Correction>
0.0947

> <Gold.Rescore>
     Score         DG    S(hbond)    S(metal)    S(lipo)     H(rot)  DE(clash)    DE(int)     intcor
     19.23     -19.93       1.77        0.00     121.63       2.23       0.15       0.55       ----

> <Gold.Chemscore.Fitness>
19.2277

> <Gold.Chemscore.DG>
-19.9257

> <Gold.Chemscore.ZeroCoef>
-5.4800

> <Gold.Chemscore.Hbond>
1.7725

> <Gold.Chemscore.Metal>
0.0000

> <Gold.Chemscore.Lipo>
121.6335

> <Gold.Chemscore.Internal_Hbond>
0.0000

> <Gold.Chemscore.DEClash>
0.1500

> <Gold.Chemscore.DEInternal>
0.5480

> <Gold.Chemscore.Rot>
2.2287

> <Gold.Chemscore.Internal.Correction>
   9.000000E+99

> <Gold.Chemscore.Hbonds>
donor molecule, donor type, donor heavy atom, donor atom, acceptor molecule, acceptor atom, score
      L1  H    11    46       P1  8028  0.97
      P1  H  7989  7998       L1     9  0.56

> <Gold.Chemscore.Hbond.Weighted>
-5.9200

> <Gold.Chemscore.Metal.Weighted>
-0.0000

> <Gold.Chemscore.Lipo.Weighted>
-14.2311

> <Gold.Chemscore.Internal_Hbond.Weighted>
0.0000

> <Gold.Chemscore.DEClash.Weighted>
0.1500

> <Gold.Chemscore.DEInternal.Weighted>
0.5480

> <Gold.Chemscore.Rot.Weighted>
5.7054

> <Gold.Chemscore.Internal.Correction.Weighted>
   9.000000E+99

> <Gold.Protein.RotatedTorsions>
[ 6907 6896 6895 6894 ] final   61.13 input  -60.11 | X-H torsion
[ 7974 7965 7964 7962 ] final  -50.72 input  175.53 | X-H torsion
[ 8008 7997 7996 7995 ] final  148.18 input   59.86 | X-H torsion
[ 10167 10162 10161 10158 ] final -109.22 input  -65.29 | X-H torsion
[ 10718 10713 10712 10709 ] final   10.94 input   66.30 | X-H torsion
[ 10763 10752 10751 10750 ] final   -8.88 input  -60.55 | X-H torsion
[ 11005 11000 10999 10996 ] final   66.05 input  -57.11 | X-H torsion

> <Gold.Protein.ActiveResidues>
 VAL166  LYS551  ARG553  GLY616  TRP617  ASP618  TYR619  PRO620  LYS621  CYS622 
 ASP623  PHE694  ASN695  SER759  ASP760  ASP761  ALA762  ILE779  LEU786  VAL792 
 PHE793  MET794  SER795  GLU796  ALA797  LYS798  CYS799  TRP800  GLU811  SER814 

> <Gold.Protein.RotatedAtoms>
  152.4063  134.6202  160.0048 H   0  0  0  0  0  0  0  0  0  0  0  0  # atno 6907 bound_to 6896
  151.6392  133.3321  159.3134 H   0  0  0  0  0  0  0  0  0  0  0  0  # atno 6908 bound_to 6896
  150.7957  134.7057  159.6620 H   0  0  0  0  0  0  0  0  0  0  0  0  # atno 6909 bound_to 6896
  145.9268  140.7785  142.9620 H   0  0  0  0  0  0  0  0  0  0  0  0  # atno 7974 bound_to 7965
  156.2800  140.2136  156.5656 H   0  0  0  0  0  0  0  0  0  0  0  0  # atno 8008 bound_to 7997
  154.7177  140.0506  157.0633 H   0  0  0  0  0  0  0  0  0  0  0  0  # atno 8009 bound_to 7997
  155.0520  140.3157  155.4692 H   0  0  0  0  0  0  0  0  0  0  0  0  # atno 8010 bound_to 7997
  140.1577  143.4146  152.1448 H   0  0  0  0  0  0  0  0  0  0  0  0  # atno 10167 bound_to 10162
  156.9883  130.6032  149.5683 H   0  0  0  0  0  0  0  0  0  0  0  0  # atno 10718 bound_to 10713
  153.4468  135.7014  153.6134 H   0  0  0  0  0  0  0  0  0  0  0  0  # atno 10763 bound_to 10752
  153.4486  135.3763  155.2270 H   0  0  0  0  0  0  0  0  0  0  0  0  # atno 10764 bound_to 10752
  154.8728  135.3991  154.3874 H   0  0  0  0  0  0  0  0  0  0  0  0  # atno 10765 bound_to 10752
  139.9856  134.6673  156.0182 H   0  0  0  0  0  0  0  0  0  0  0  0  # atno 11005 bound_to 11000
  144.6759  140.2063  143.7382 LP  0  0  0  0  0  0  0  0  0  0  0  0  # atno 17320 bound_to 7965
  145.8478  139.2161  143.1789 LP  0  0  0  0  0  0  0  0  0  0  0  0  # atno 17321 bound_to 7965
  139.5396  144.7243  151.4779 LP  0  0  0  0  0  0  0  0  0  0  0  0  # atno 17342 bound_to 10162
  140.6663  143.8391  150.6945 LP  0  0  0  0  0  0  0  0  0  0  0  0  # atno 17343 bound_to 10162
  156.0217  130.5312  150.8294 LP  0  0  0  0  0  0  0  0  0  0  0  0  # atno 17370 bound_to 10713
  157.5477  131.0943  150.9740 LP  0  0  0  0  0  0  0  0  0  0  0  0  # atno 17371 bound_to 10713
  141.1521  133.6547  156.4047 LP  0  0  0  0  0  0  0  0  0  0  0  0  # atno 17394 bound_to 11000
  140.5009  134.6486  157.5248 LP  0  0  0  0  0  0  0  0  0  0  0  0  # atno 17395 bound_to 11000

$$$$
