AV-unprocessed.smi:27|AV-procd|sdf|187|dock1
  -GOLD-   2262015453D 1   1.00000     0.00000
 Structure written by MMmdl.
 53 56  0  0  0  0  0  0  0  0  1 V2000
  148.0998  138.0530  159.5335 O   0  0  0  0  0  0  0  0  0  0  0  0
  148.7374  137.3995  158.7093 C   0  0  0  0  0  0  0  0  0  0  0  0
  150.1022  137.9191  158.2188 C   0  0  0  0  0  0  0  0  0  0  0  0
  150.0702  139.3019  157.6837 N   0  0  0  0  0  0  0  0  0  0  0  0
  149.1936  139.5949  156.6103 C   0  0  0  0  0  0  0  0  0  0  0  0
  148.4464  138.7351  156.1420 O   0  0  0  0  0  0  0  0  0  0  0  0
  149.2568  140.9599  156.1022 C   0  0  0  0  0  0  0  0  0  0  0  0
  148.4439  141.3335  155.0994 F   0  0  0  0  0  0  0  0  0  0  0  0
  150.1233  141.8564  156.6176 C   0  0  0  0  0  0  0  0  0  0  0  0
  150.9914  141.5527  157.6529 N   0  0  0  0  0  0  0  0  0  0  0  0
  152.0270  142.5254  158.1809 C   0  0  2  0  0  0  0  0  0  0  0  0
  151.9967  142.7775  159.6908 C   0  0  0  0  0  0  0  0  0  0  0  0
  152.7193  144.1035  159.7432 C   0  0  0  0  0  0  0  0  0  0  0  0
  152.1542  144.8078  158.5098 C   0  0  0  0  0  0  0  0  0  0  0  0
  151.7947  143.7722  157.5958 O   0  0  0  0  0  0  0  0  0  0  0  0
  150.9677  140.2580  158.2173 C   0  0  0  0  0  0  0  0  0  0  0  0
  151.7276  139.9611  159.1419 O   0  0  0  0  0  0  0  0  0  0  0  0
  148.3017  136.2358  158.2009 N   0  0  0  0  0  0  0  0  0  0  0  0
  147.0614  135.5388  158.5242 C   0  0  0  0  0  0  0  0  0  0  0  0
  146.8887  135.3879  160.0324 C   0  0  0  0  0  0  0  0  0  0  0  0
  147.5479  134.3610  160.7500 C   0  0  0  0  0  0  0  0  0  0  0  0
  147.3749  134.2414  162.1423 C   0  0  0  0  0  0  0  0  0  0  0  0
  146.5392  135.1421  162.8289 C   0  0  0  0  0  0  0  0  0  0  0  0
  145.8730  136.1604  162.1212 C   0  0  0  0  0  0  0  0  0  0  0  0
  146.0462  136.2815  160.7287 C   0  0  0  0  0  0  0  0  0  0  0  0
  146.9585  134.1864  157.8273 C   0  0  0  0  0  0  0  0  0  0  0  0
  147.9459  133.1916  158.0151 C   0  0  0  0  0  0  0  0  0  0  0  0
  147.8326  131.9464  157.3674 C   0  0  0  0  0  0  0  0  0  0  0  0
  146.7304  131.6838  156.5318 C   0  0  0  0  0  0  0  0  0  0  0  0
  145.7396  132.6666  156.3464 C   0  0  0  0  0  0  0  0  0  0  0  0
  145.8530  133.9127  156.9929 C   0  0  0  0  0  0  0  0  0  0  0  0
  150.8163  137.8283  159.0386 H   0  0  0  0  0  0  0  0  0  0  0  0
  150.4789  137.2251  157.4659 H   0  0  0  0  0  0  0  0  0  0  0  0
  150.1004  142.8452  156.1903 H   0  0  0  0  0  0  0  0  0  0  0  0
  152.9926  142.1286  157.8596 H   0  0  0  0  0  0  0  0  0  0  0  0
  150.9788  142.9299  160.0485 H   0  0  0  0  0  0  0  0  0  0  0  0
  152.4807  141.9748  160.2475 H   0  0  0  0  0  0  0  0  0  0  0  0
  152.5428  144.6548  160.6672 H   0  0  0  0  0  0  0  0  0  0  0  0
  153.7940  143.9509  159.6343 H   0  0  0  0  0  0  0  0  0  0  0  0
  151.2567  145.3712  158.7659 H   0  0  0  0  0  0  0  0  0  0  0  0
  152.8718  145.4975  158.0650 H   0  0  0  0  0  0  0  0  0  0  0  0
  148.9019  135.7766  157.5317 H   0  0  0  0  0  0  0  0  0  0  0  0
  146.2349  136.1601  158.1731 H   0  0  0  0  0  0  0  0  0  0  0  0
  148.1889  133.6548  160.2427 H   0  0  0  0  0  0  0  0  0  0  0  0
  147.8826  133.4565  162.6828 H   0  0  0  0  0  0  0  0  0  0  0  0
  146.4065  135.0502  163.8967 H   0  0  0  0  0  0  0  0  0  0  0  0
  145.2280  136.8493  162.6466 H   0  0  0  0  0  0  0  0  0  0  0  0
  145.5298  137.0659  160.1950 H   0  0  0  0  0  0  0  0  0  0  0  0
  148.7940  133.3756  158.6584 H   0  0  0  0  0  0  0  0  0  0  0  0
  148.5914  131.1918  157.5130 H   0  0  0  0  0  0  0  0  0  0  0  0
  146.6438  130.7285  156.0353 H   0  0  0  0  0  0  0  0  0  0  0  0
  144.8917  132.4645  155.7086 H   0  0  0  0  0  0  0  0  0  0  0  0
  145.0870  134.6600  156.8449 H   0  0  0  0  0  0  0  0  0  0  0  0
  1  2  2  0  0  0  0
  2  3  1  0  0  0  0
  2 18  1  0  0  0  0
  3  4  1  0  0  0  0
  3 32  1  0  0  0  0
  3 33  1  0  0  0  0
  4 16  1  0  0  0  0
  4  5  1  0  0  0  0
  5  6  2  0  0  0  0
  5  7  1  0  0  0  0
  7  8  1  0  0  0  0
  7  9  2  0  0  0  0
  9 10  1  0  0  0  0
  9 34  1  0  0  0  0
 10 11  1  0  0  0  0
 10 16  1  0  0  0  0
 11 15  1  0  0  0  0
 11 12  1  0  0  0  0
 11 35  1  0  0  0  0
 12 13  1  0  0  0  0
 12 36  1  0  0  0  0
 12 37  1  0  0  0  0
 13 14  1  0  0  0  0
 13 38  1  0  0  0  0
 13 39  1  0  0  0  0
 14 15  1  0  0  0  0
 14 40  1  0  0  0  0
 14 41  1  0  0  0  0
 16 17  2  0  0  0  0
 18 19  1  0  0  0  0
 18 42  1  0  0  0  0
 19 20  1  0  0  0  0
 19 26  1  0  0  0  0
 19 43  1  0  0  0  0
 20 25  1  0  0  0  0
 20 21  2  0  0  0  0
 21 22  1  0  0  0  0
 21 44  1  0  0  0  0
 22 23  2  0  0  0  0
 22 45  1  0  0  0  0
 23 24  1  0  0  0  0
 23 46  1  0  0  0  0
 24 25  2  0  0  0  0
 24 47  1  0  0  0  0
 25 48  1  0  0  0  0
 26 31  1  0  0  0  0
 26 27  2  0  0  0  0
 27 28  1  0  0  0  0
 27 49  1  0  0  0  0
 28 29  2  0  0  0  0
 28 50  1  0  0  0  0
 29 30  1  0  0  0  0
 29 51  1  0  0  0  0
 30 31  2  0  0  0  0
 30 52  1  0  0  0  0
 31 53  1  0  0  0  0
M  END
> <s_m_source_file>
AV-unprocessed.smi

> <i_m_source_file_index>
27

> <i_lp_mmshare_version>
43012

> <i_f3d_flags>
0

> <s_epik_input>
W2NIXTFbY0hdW2NIXVtjSF1bY0hdYzFbQ0hdKGMyW2NIXVtjSF1bY0hdW2NIXVtjSF0yKVtOSF1DKD1PKVtDSDJdbjNjKD1PKWMoRilbY0hdbihjMz1PKVtDQEBIXTRbQ0gyXVtDSDJdW0NIMl1PNA==

> <s_epik_cmdline>
J2VwaWtfcHl0aG9uJywgJy1waCcsICc3LjAnLCAnLXRuJywgJzgnLCAnLW1hJywgJzIwMCcsICctbWV0YWxfYmluZGluZycsICctaW1hZScsICc8aW5maWxlLm1hZT4nLCAnLW9tYWUnLCAnPG91dGZpbGUubWFlPic=

> <r_lp_tautomer_probability>
1

> <r_epik_Ionization_Penalty>
5.29953e-08

> <r_epik_Ionization_Penalty_Charging>
3.6115e-09

> <r_epik_Ionization_Penalty_Neutral>
4.93838e-08

> <r_epik_State_Penalty>
-0

> <r_epik_Charging_Adjusted_Penalty>
3.6115e-09

> <i_epik_Tot_Q>
0

> <i_epik_Tot_abs_Q>
0

> <r_epik_Metal_State_Penalty>
-0

> <b_epik_Metal_Only>
0

> <s_epik_Chemistry_Notes>
This compound contains an acetal/aminal-like group ( X-CH(R)-Y where X, Y are N, S, or O) that may be acid/base labile, releasing an aldehyde.

> <s_lp_Force_Field>
OPLS_2005

> <r_lp_Energy>
32.38

> <b_lp_Chiralities_Consistent>
1

> <s_lp_Variant>
AV-unprocessed.smi:27-1

> <Gold.Version>
5.8.1

> <Gold.Id.Protein>
6NUR|6NUR_protein|mol2

> <Gold.PLP.Fitness>
45.0236

> <Gold.PLP.PLP>
-42.3033

> <Gold.PLP.part.hbond>
-2.0000

> <Gold.PLP.part.metal>
0.0000

> <Gold.PLP.part.buried>
-6.8292

> <Gold.PLP.part.nonpolar>
-34.4980

> <Gold.PLP.part.repulsive>
0.1664

> <Gold.PLP.ligand.clash>
0.0000

> <Gold.PLP.ligand.torsion>
0.7448

> <Gold.PLP.Chemscore.Hbond>
0.3146

> <Gold.PLP.Chemscore.CHOScore>
1.0000

> <Gold.PLP.Chemscore.Metal>
0.0000

> <Gold.Chemscore.Hbonds>
donor molecule, donor type, donor heavy atom, donor atom, acceptor molecule, acceptor atom, score
      P1  H  6934  6947       L1     1  0.32
      L1  C     9    34       P1  8028  1.00

> <Gold.PLP.Chemscore.Internal.Correction>
0.2662

> <Gold.Rescore>
     Score         DG    S(hbond)    S(metal)    S(lipo)     H(rot)  DE(clash)    DE(int)     intcor
      8.74     -13.00       0.32        0.00     102.46       2.16       0.14       4.12       ----

> <Gold.Chemscore.Fitness>
8.7433

> <Gold.Chemscore.DG>
-13.0017

> <Gold.Chemscore.ZeroCoef>
-5.4800

> <Gold.Chemscore.Hbond>
0.3218

> <Gold.Chemscore.Metal>
0.0000

> <Gold.Chemscore.Lipo>
102.4565

> <Gold.Chemscore.Internal_Hbond>
0.0000

> <Gold.Chemscore.DEClash>
0.1353

> <Gold.Chemscore.DEInternal>
4.1231

> <Gold.Chemscore.Rot>
2.1642

> <Gold.Chemscore.Internal.Correction>
   9.000000E+99

> <Gold.Chemscore.Hbonds>
donor molecule, donor type, donor heavy atom, donor atom, acceptor molecule, acceptor atom, score
      P1  H  6934  6947       L1     1  0.32

> <Gold.Chemscore.Hbond.Weighted>
-1.0748

> <Gold.Chemscore.Metal.Weighted>
-0.0000

> <Gold.Chemscore.Lipo.Weighted>
-11.9874

> <Gold.Chemscore.Internal_Hbond.Weighted>
0.0000

> <Gold.Chemscore.DEClash.Weighted>
0.1353

> <Gold.Chemscore.DEInternal.Weighted>
4.1231

> <Gold.Chemscore.Rot.Weighted>
5.5404

> <Gold.Chemscore.Internal.Correction.Weighted>
   9.000000E+99

> <Gold.Protein.RotatedTorsions>
[ 6907 6896 6895 6894 ] final   76.90 input  -60.11 | X-H torsion
[ 7974 7965 7964 7962 ] final    2.52 input  175.53 | X-H torsion
[ 8008 7997 7996 7995 ] final -135.92 input   59.86 | X-H torsion
[ 10167 10162 10161 10158 ] final  -56.67 input  -65.29 | X-H torsion
[ 10718 10713 10712 10709 ] final  -61.06 input   66.30 | X-H torsion
[ 10763 10752 10751 10750 ] final  166.69 input  -60.55 | X-H torsion
[ 11005 11000 10999 10996 ] final  109.45 input  -57.11 | X-H torsion

> <Gold.Protein.ActiveResidues>
 VAL166  LYS551  ARG553  GLY616  TRP617  ASP618  TYR619  PRO620  LYS621  CYS622 
 ASP623  PHE694  ASN695  SER759  ASP760  ASP761  ALA762  ILE779  LEU786  VAL792 
 PHE793  MET794  SER795  GLU796  ALA797  LYS798  CYS799  TRP800  GLU811  SER814 

> <Gold.Protein.RotatedAtoms>
  152.5094  134.3899  159.9379 H   0  0  0  0  0  0  0  0  0  0  0  0  # atno 6907 bound_to 6896
  151.3858  133.3799  159.2723 H   0  0  0  0  0  0  0  0  0  0  0  0  # atno 6908 bound_to 6896
  150.9470  134.8894  159.7707 H   0  0  0  0  0  0  0  0  0  0  0  0  # atno 6909 bound_to 6896
  146.2444  140.0823  142.8356 H   0  0  0  0  0  0  0  0  0  0  0  0  # atno 7974 bound_to 7965
  155.3866  140.0497  157.3042 H   0  0  0  0  0  0  0  0  0  0  0  0  # atno 8008 bound_to 7997
  154.5056  140.2173  155.9219 H   0  0  0  0  0  0  0  0  0  0  0  0  # atno 8009 bound_to 7997
  156.1522  140.3133  155.8672 H   0  0  0  0  0  0  0  0  0  0  0  0  # atno 8010 bound_to 7997
  140.6303  143.2456  151.5257 H   0  0  0  0  0  0  0  0  0  0  0  0  # atno 10167 bound_to 10162
  156.0948  130.4194  150.0941 H   0  0  0  0  0  0  0  0  0  0  0  0  # atno 10718 bound_to 10713
  154.3427  135.2754  155.2414 H   0  0  0  0  0  0  0  0  0  0  0  0  # atno 10763 bound_to 10752
  154.4677  135.5891  153.6303 H   0  0  0  0  0  0  0  0  0  0  0  0  # atno 10764 bound_to 10752
  152.9856  135.6080  154.3630 H   0  0  0  0  0  0  0  0  0  0  0  0  # atno 10765 bound_to 10752
  139.8862  134.9458  156.6127 H   0  0  0  0  0  0  0  0  0  0  0  0  # atno 11005 bound_to 11000
  145.0722  140.9163  143.4875 LP  0  0  0  0  0  0  0  0  0  0  0  0  # atno 17320 bound_to 7965
  145.0959  139.2856  143.5711 LP  0  0  0  0  0  0  0  0  0  0  0  0  # atno 17321 bound_to 7965
  139.5518  144.2376  152.1544 LP  0  0  0  0  0  0  0  0  0  0  0  0  # atno 17342 bound_to 10162
  140.1618  144.5019  150.6628 LP  0  0  0  0  0  0  0  0  0  0  0  0  # atno 17343 bound_to 10162
  156.8942  130.9599  151.3584 LP  0  0  0  0  0  0  0  0  0  0  0  0  # atno 17370 bound_to 10713
  157.6106  130.8580  149.8945 LP  0  0  0  0  0  0  0  0  0  0  0  0  # atno 17371 bound_to 10713
  140.7799  133.8668  155.8559 LP  0  0  0  0  0  0  0  0  0  0  0  0  # atno 17394 bound_to 11000
  140.9769  134.1457  157.4528 LP  0  0  0  0  0  0  0  0  0  0  0  0  # atno 17395 bound_to 11000

$$$$
