AV-unprocessed.smi:1389|AV-procd|sdf|5653|dock9
  -GOLD-   22720 5273D 1   1.00000     0.00000
 Structure written by MMmdl.
 53 55  0  0  0  0  0  0  0  0  3 V2000
  149.6933  134.9535  156.7815 C   0  0  0  0  0  0  0  0  0  0  0  0
  150.1280  135.0984  155.3067 C   0  0  1  0  0  0  0  0  0  0  0  0
  149.5404  133.9320  154.4679 C   0  0  0  0  0  0  0  0  0  0  0  0
  148.2815  134.2623  153.7995 N   0  0  0  0  0  0  0  0  0  0  0  0
  147.6362  133.4697  152.9314 C   0  0  0  0  0  0  0  0  0  0  0  0
  148.0076  132.3328  152.6424 O   0  0  0  0  0  0  0  0  0  0  0  0
  146.5602  134.0836  152.4106 N   0  0  0  0  0  0  0  0  0  0  0  0
  145.6813  133.5901  151.4041 C   0  0  0  0  0  0  0  0  0  0  0  0
  146.1597  132.7615  150.3565 C   0  0  0  0  0  0  0  0  0  0  0  0
  145.2760  132.3065  149.3599 C   0  0  0  0  0  0  0  0  0  0  0  0
  143.9239  132.6826  149.4272 C   0  0  0  0  0  0  0  0  0  0  0  0
  143.4949  133.4543  150.4470 N   0  3  0  0  0  0  0  0  0  0  0  0
  144.2929  133.9118  151.4442 C   0  0  0  0  0  0  0  0  0  0  0  0
  143.6982  134.7024  152.4540 N   0  0  0  0  0  0  0  0  0  0  0  0
  143.6539  136.1544  152.3243 C   0  0  0  0  0  0  0  0  0  0  0  0
  142.6555  136.6157  153.3824 C   0  0  0  0  0  0  0  0  0  0  0  0
  141.6316  135.4848  153.3809 C   0  0  0  0  0  0  0  0  0  0  0  0
  142.4698  134.2354  153.0888 C   0  0  0  0  0  0  0  0  0  0  0  0
  149.8036  136.4504  154.7444 N   0  3  0  0  0  0  0  0  0  0  0  0
  148.5144  137.0113  155.2364 C   0  0  0  0  0  0  0  0  0  0  0  0
  148.2326  138.3939  154.6248 C   0  0  0  0  0  0  0  0  0  0  0  0
  149.3083  139.2744  154.9102 O   0  0  0  0  0  0  0  0  0  0  0  0
  150.5215  138.8108  154.3386 C   0  0  0  0  0  0  0  0  0  0  0  0
  150.8915  137.4473  154.9458 C   0  0  0  0  0  0  0  0  0  0  0  0
  149.8139  133.9263  157.1270 H   0  0  0  0  0  0  0  0  0  0  0  0
  148.6472  135.2267  156.9217 H   0  0  0  0  0  0  0  0  0  0  0  0
  150.2963  135.5686  157.4492 H   0  0  0  0  0  0  0  0  0  0  0  0
  151.2136  134.9893  155.2870 H   0  0  0  0  0  0  0  0  0  0  0  0
  150.2503  133.6284  153.6989 H   0  0  0  0  0  0  0  0  0  0  0  0
  149.4209  133.0429  155.0896 H   0  0  0  0  0  0  0  0  0  0  0  0
  147.9071  135.1844  153.9690 H   0  0  0  0  0  0  0  0  0  0  0  0
  146.4340  135.0526  152.6634 H   0  0  0  0  0  0  0  0  0  0  0  0
  147.1962  132.4639  150.3041 H   0  0  0  0  0  0  0  0  0  0  0  0
  145.6320  131.6801  148.5548 H   0  0  0  0  0  0  0  0  0  0  0  0
  143.1750  132.3856  148.7069 H   0  0  0  0  0  0  0  0  0  0  0  0
  144.6381  136.5991  152.4749 H   0  0  0  0  0  0  0  0  0  0  0  0
  143.2947  136.4388  151.3343 H   0  0  0  0  0  0  0  0  0  0  0  0
  143.1430  136.6757  154.3564 H   0  0  0  0  0  0  0  0  0  0  0  0
  142.2188  137.5896  153.1595 H   0  0  0  0  0  0  0  0  0  0  0  0
  141.0743  135.4130  154.3154 H   0  0  0  0  0  0  0  0  0  0  0  0
  140.9143  135.6436  152.5743 H   0  0  0  0  0  0  0  0  0  0  0  0
  141.9240  133.5295  152.4614 H   0  0  0  0  0  0  0  0  0  0  0  0
  142.7274  133.7342  154.0222 H   0  0  0  0  0  0  0  0  0  0  0  0
  147.6808  136.3614  154.9746 H   0  0  0  0  0  0  0  0  0  0  0  0
  148.5398  137.0839  156.3248 H   0  0  0  0  0  0  0  0  0  0  0  0
  148.0802  138.3204  153.5468 H   0  0  0  0  0  0  0  0  0  0  0  0
  147.3173  138.8098  155.0465 H   0  0  0  0  0  0  0  0  0  0  0  0
  150.4277  138.7430  153.2534 H   0  0  0  0  0  0  0  0  0  0  0  0
  151.3074  139.5379  154.5443 H   0  0  0  0  0  0  0  0  0  0  0  0
  151.0916  137.5584  156.0127 H   0  0  0  0  0  0  0  0  0  0  0  0
  151.8171  137.1150  154.4789 H   0  0  0  0  0  0  0  0  0  0  0  0
  149.7002  136.3306  153.7469 H   0  0  0  0  0  0  0  0  0  0  0  0
  142.5057  133.7024  150.4729 H   0  0  0  0  0  0  0  0  0  0  0  0
  1  2  1  0  0  0  0
  1 25  1  0  0  0  0
  1 26  1  0  0  0  0
  1 27  1  0  0  0  0
  2  3  1  0  0  0  0
  2 19  1  0  0  0  0
  2 28  1  0  0  0  0
  3  4  1  0  0  0  0
  3 29  1  0  0  0  0
  3 30  1  0  0  0  0
  4  5  1  0  0  0  0
  4 31  1  0  0  0  0
  5  6  2  0  0  0  0
  5  7  1  0  0  0  0
  7  8  1  0  0  0  0
  7 32  1  0  0  0  0
  8 13  1  0  0  0  0
  8  9  2  0  0  0  0
  9 10  1  0  0  0  0
  9 33  1  0  0  0  0
 10 11  2  0  0  0  0
 10 34  1  0  0  0  0
 11 12  1  0  0  0  0
 11 35  1  0  0  0  0
 12 13  2  0  0  0  0
 12 53  1  0  0  0  0
 13 14  1  0  0  0  0
 14 18  1  0  0  0  0
 14 15  1  0  0  0  0
 15 16  1  0  0  0  0
 15 36  1  0  0  0  0
 15 37  1  0  0  0  0
 16 17  1  0  0  0  0
 16 38  1  0  0  0  0
 16 39  1  0  0  0  0
 17 18  1  0  0  0  0
 17 40  1  0  0  0  0
 17 41  1  0  0  0  0
 18 42  1  0  0  0  0
 18 43  1  0  0  0  0
 19 24  1  0  0  0  0
 19 20  1  0  0  0  0
 19 52  1  0  0  0  0
 20 21  1  0  0  0  0
 20 44  1  0  0  0  0
 20 45  1  0  0  0  0
 21 22  1  0  0  0  0
 21 46  1  0  0  0  0
 21 47  1  0  0  0  0
 22 23  1  0  0  0  0
 23 24  1  0  0  0  0
 23 48  1  0  0  0  0
 23 49  1  0  0  0  0
 24 50  1  0  0  0  0
 24 51  1  0  0  0  0
M  CHG  1  12   1
M  CHG  1  19   1
M  END
> <s_m_source_file>
AV-unprocessed.smi

> <i_m_source_file_index>
1389

> <i_lp_mmshare_version>
43012

> <i_f3d_flags>
0

> <s_epik_input>
W0NIMl0xW0NIMl1PW0NIMl1bQ0gyXU4xW0NASF0oW0NIM10pW0NIMl1bTkhdQyg9TylbTkhdYzJbY0hdW2NIXVtjSF1uYzJOM1tDSDJdW0NIMl1bQ0gyXVtDSDJdMw==

> <s_epik_cmdline>
J2VwaWtfcHl0aG9uJywgJy1waCcsICc3LjAnLCAnLXRuJywgJzgnLCAnLW1hJywgJzIwMCcsICctbWV0YWxfYmluZGluZycsICctaW1hZScsICc8aW5maWxlLm1hZT4nLCAnLW9tYWUnLCAnPG91dGZpbGUubWFlPic=

> <r_lp_tautomer_probability>
0.999994

> <r_epik_Ionization_Penalty>
1.80872

> <r_epik_Ionization_Penalty_Charging>
1.8087

> <r_epik_Ionization_Penalty_Neutral>
2.02981e-05

> <r_epik_State_Penalty>
1.84892

> <r_epik_Charging_Adjusted_Penalty>
3.65762

> <i_epik_Tot_Q>
2

> <i_epik_Tot_abs_Q>
2

> <r_epik_Metal_State_Penalty>
1.9311

> <b_epik_Metal_Only>
0

> <s_lp_Force_Field>
OPLS_2005

> <r_lp_Energy>
68.1678

> <b_lp_Chiralities_Consistent>
1

> <s_lp_Variant>
AV-unprocessed.smi:1389-8

> <Gold.Version>
5.8.1

> <Gold.Id.Protein>
6NUR|6NUR_protein|mol2

> <Gold.PLP.Fitness>
49.9272

> <Gold.PLP.PLP>
-41.2130

> <Gold.PLP.part.hbond>
-3.4231

> <Gold.PLP.part.metal>
0.0000

> <Gold.PLP.part.buried>
-7.9491

> <Gold.PLP.part.nonpolar>
-31.4612

> <Gold.PLP.part.repulsive>
1.2624

> <Gold.PLP.ligand.clash>
0.0000

> <Gold.PLP.ligand.torsion>
1.8668

> <Gold.PLP.Chemscore.Hbond>
4.0000

> <Gold.PLP.Chemscore.CHOScore>
0.0000

> <Gold.PLP.Chemscore.Metal>
0.0000

> <Gold.Chemscore.Hbonds>
donor molecule, donor type, donor heavy atom, donor atom, acceptor molecule, acceptor atom, score
      L1  H    12    53       P1 10186  1.92
      L1  H    19    52       P1  7948  2.00

> <Gold.PLP.Chemscore.Internal.Correction>
0.4478

> <Gold.Rescore>
     Score         DG    S(hbond)    S(metal)    S(lipo)     H(rot)  DE(clash)    DE(int)     intcor
     15.10     -18.25       1.85        0.00      92.85       1.66       0.05       3.10       ----

> <Gold.Chemscore.Fitness>
15.1040

> <Gold.Chemscore.DG>
-18.2524

> <Gold.Chemscore.ZeroCoef>
-5.4800

> <Gold.Chemscore.Hbond>
1.8452

> <Gold.Chemscore.Metal>
0.0000

> <Gold.Chemscore.Lipo>
92.8537

> <Gold.Chemscore.Internal_Hbond>
0.0000

> <Gold.Chemscore.DEClash>
0.0475

> <Gold.Chemscore.DEInternal>
3.1009

> <Gold.Chemscore.Rot>
1.6620

> <Gold.Chemscore.Internal.Correction>
   9.000000E+99

> <Gold.Chemscore.Hbonds>
donor molecule, donor type, donor heavy atom, donor atom, acceptor molecule, acceptor atom, score
      L1  H    12    53       P1 10186  0.89
      L1  H    19    52       P1  7948  0.43

> <Gold.Chemscore.Hbond.Weighted>
-6.1631

> <Gold.Chemscore.Metal.Weighted>
-0.0000

> <Gold.Chemscore.Lipo.Weighted>
-10.8639

> <Gold.Chemscore.Internal_Hbond.Weighted>
0.0000

> <Gold.Chemscore.DEClash.Weighted>
0.0475

> <Gold.Chemscore.DEInternal.Weighted>
3.1009

> <Gold.Chemscore.Rot.Weighted>
4.2547

> <Gold.Chemscore.Internal.Correction.Weighted>
   9.000000E+99

> <Gold.Protein.RotatedTorsions>
[ 6907 6896 6895 6894 ] final  -51.19 input  -60.11 | X-H torsion
[ 7974 7965 7964 7962 ] final  -24.66 input  175.53 | X-H torsion
[ 8008 7997 7996 7995 ] final  176.35 input   59.86 | X-H torsion
[ 10167 10162 10161 10158 ] final   -1.09 input  -65.29 | X-H torsion
[ 10718 10713 10712 10709 ] final  149.25 input   66.30 | X-H torsion
[ 10763 10752 10751 10750 ] final   71.47 input  -60.55 | X-H torsion
[ 11005 11000 10999 10996 ] final  -70.62 input  -57.11 | X-H torsion

> <Gold.Protein.ActiveResidues>
 VAL166  LYS551  ARG553  GLY616  TRP617  ASP618  TYR619  PRO620  LYS621  CYS622 
 ASP623  PHE694  ASN695  SER759  ASP760  ASP761  ALA762  ILE779  LEU786  VAL792 
 PHE793  MET794  SER795  GLU796  ALA797  LYS798  CYS799  TRP800  GLU811  SER814 

> <Gold.Protein.RotatedAtoms>
  150.8635  134.7993  159.7100 H   0  0  0  0  0  0  0  0  0  0  0  0  # atno 6907 bound_to 6896
  152.4664  134.5061  159.9749 H   0  0  0  0  0  0  0  0  0  0  0  0  # atno 6908 bound_to 6896
  151.5161  133.3437  159.2929 H   0  0  0  0  0  0  0  0  0  0  0  0  # atno 6909 bound_to 6896
  146.1540  140.4782  142.8599 H   0  0  0  0  0  0  0  0  0  0  0  0  # atno 7974 bound_to 7965
  156.0774  140.1386  156.9754 H   0  0  0  0  0  0  0  0  0  0  0  0  # atno 8008 bound_to 7997
  154.4565  140.0959  156.6823 H   0  0  0  0  0  0  0  0  0  0  0  0  # atno 8009 bound_to 7997
  155.5130  140.3454  155.4394 H   0  0  0  0  0  0  0  0  0  0  0  0  # atno 8010 bound_to 7997
  140.6795  143.6817  150.8100 H   0  0  0  0  0  0  0  0  0  0  0  0  # atno 10167 bound_to 10162
  157.2985  131.0866  151.1408 H   0  0  0  0  0  0  0  0  0  0  0  0  # atno 10718 bound_to 10713
  153.0401  135.5136  154.7597 H   0  0  0  0  0  0  0  0  0  0  0  0  # atno 10763 bound_to 10752
  154.6542  135.2929  154.9951 H   0  0  0  0  0  0  0  0  0  0  0  0  # atno 10764 bound_to 10752
  154.0824  135.6662  153.4892 H   0  0  0  0  0  0  0  0  0  0  0  0  # atno 10765 bound_to 10752
  141.1577  133.6795  156.6780 H   0  0  0  0  0  0  0  0  0  0  0  0  # atno 11005 bound_to 11000
  144.7940  140.6087  143.6522 LP  0  0  0  0  0  0  0  0  0  0  0  0  # atno 17320 bound_to 7965
  145.4753  139.1500  143.3792 LP  0  0  0  0  0  0  0  0  0  0  0  0  # atno 17321 bound_to 7965
  140.0515  143.5245  152.2671 LP  0  0  0  0  0  0  0  0  0  0  0  0  # atno 17342 bound_to 10162
  139.6109  144.7608  151.2955 LP  0  0  0  0  0  0  0  0  0  0  0  0  # atno 17343 bound_to 10162
  157.2777  130.6735  149.6050 LP  0  0  0  0  0  0  0  0  0  0  0  0  # atno 17370 bound_to 10713
  155.9670  130.4459  150.5521 LP  0  0  0  0  0  0  0  0  0  0  0  0  # atno 17371 bound_to 10713
  140.3124  134.8075  157.4187 LP  0  0  0  0  0  0  0  0  0  0  0  0  # atno 17394 bound_to 11000
  140.1167  134.5274  155.8219 LP  0  0  0  0  0  0  0  0  0  0  0  0  # atno 17395 bound_to 11000

$$$$
