AV-unprocessed.smi:1817|AV-procd|sdf|7372|dock5
  -GOLD-   22720 9 33D 1   1.00000     0.00000
 Structure written by MMmdl.
 42 43  0  0  0  0  0  0  0  0  1 V2000
  152.5246  144.1402  158.6004 C   0  0  0  0  0  0  0  0  0  0  0  0
  152.0616  142.7574  159.0808 C   0  0  0  0  0  0  0  0  0  0  0  0
  151.7967  141.7914  158.0161 N   0  0  0  0  0  0  0  0  0  0  0  0
  150.8332  142.3251  157.0566 C   0  0  0  0  0  0  0  0  0  0  0  0
  150.5521  141.3304  155.9156 C   0  0  0  0  0  0  0  0  0  0  0  0
  150.0227  140.0532  156.4128 N   0  0  0  0  0  0  0  0  0  0  0  0
  149.7367  139.0939  155.3238 C   0  0  2  0  0  0  0  0  0  0  0  0
  150.9726  138.7592  154.4583 C   0  0  0  0  0  0  0  0  0  0  0  0
  148.5827  139.5332  154.3847 C   0  0  0  0  0  0  0  0  0  0  0  0
  148.0645  138.4265  153.5825 N   0  0  0  0  0  0  0  0  0  0  0  0
  146.7851  138.0301  153.5293 C   0  0  0  0  0  0  0  0  0  0  0  0
  145.8761  138.5783  154.1524 O   0  0  0  0  0  0  0  0  0  0  0  0
  146.6411  136.9680  152.7203 N   0  0  0  0  0  0  0  0  0  0  0  0
  145.4507  136.2648  152.4082 C   0  0  0  0  0  0  0  0  0  0  0  0
  144.3887  136.4424  153.2031 N   0  0  0  0  0  0  0  0  0  0  0  0
  143.2942  135.6956  152.7844 N   0  0  0  0  0  0  0  0  0  0  0  0
  143.5741  134.9831  151.6889 C   0  0  0  0  0  0  0  0  0  0  0  0
  145.2027  135.1525  151.0586 S   0  0  0  0  0  0  0  0  0  0  0  0
  150.9887  139.5278  157.3878 C   0  0  0  0  0  0  0  0  0  0  0  0
  151.2689  140.5260  158.5263 C   0  0  0  0  0  0  0  0  0  0  0  0
  152.5996  144.8307  159.4404 H   0  0  0  0  0  0  0  0  0  0  0  0
  151.8187  144.5650  157.8860 H   0  0  0  0  0  0  0  0  0  0  0  0
  153.5050  144.1012  158.1264 H   0  0  0  0  0  0  0  0  0  0  0  0
  152.7949  142.3500  159.7785 H   0  0  0  0  0  0  0  0  0  0  0  0
  151.1476  142.9026  159.6581 H   0  0  0  0  0  0  0  0  0  0  0  0
  149.8987  142.5737  157.5626 H   0  0  0  0  0  0  0  0  0  0  0  0
  151.2135  143.2550  156.6323 H   0  0  0  0  0  0  0  0  0  0  0  0
  149.8378  141.8029  155.2432 H   0  0  0  0  0  0  0  0  0  0  0  0
  151.4634  141.1607  155.3399 H   0  0  0  0  0  0  0  0  0  0  0  0
  149.4188  138.1548  155.7795 H   0  0  0  0  0  0  0  0  0  0  0  0
  150.6988  138.1516  153.5953 H   0  0  0  0  0  0  0  0  0  0  0  0
  151.7147  138.1834  155.0104 H   0  0  0  0  0  0  0  0  0  0  0  0
  151.4568  139.6618  154.0846 H   0  0  0  0  0  0  0  0  0  0  0  0
  147.7838  139.9996  154.9636 H   0  0  0  0  0  0  0  0  0  0  0  0
  148.9147  140.3172  153.7051 H   0  0  0  0  0  0  0  0  0  0  0  0
  148.7428  137.9086  153.0432 H   0  0  0  0  0  0  0  0  0  0  0  0
  147.4788  136.6205  152.2770 H   0  0  0  0  0  0  0  0  0  0  0  0
  142.8155  134.3529  151.2489 H   0  0  0  0  0  0  0  0  0  0  0  0
  150.6126  138.6137  157.8439 H   0  0  0  0  0  0  0  0  0  0  0  0
  151.9227  139.2684  156.8868 H   0  0  0  0  0  0  0  0  0  0  0  0
  151.9801  140.0724  159.2157 H   0  0  0  0  0  0  0  0  0  0  0  0
  150.3531  140.7024  159.0929 H   0  0  0  0  0  0  0  0  0  0  0  0
  1  2  1  0  0  0  0
  1 21  1  0  0  0  0
  1 22  1  0  0  0  0
  1 23  1  0  0  0  0
  2  3  1  0  0  0  0
  2 24  1  0  0  0  0
  2 25  1  0  0  0  0
  3 20  1  0  0  0  0
  3  4  1  0  0  0  0
  4  5  1  0  0  0  0
  4 26  1  0  0  0  0
  4 27  1  0  0  0  0
  5  6  1  0  0  0  0
  5 28  1  0  0  0  0
  5 29  1  0  0  0  0
  6  7  1  0  0  0  0
  6 19  1  0  0  0  0
  7  8  1  0  0  0  0
  7  9  1  0  0  0  0
  7 30  1  0  0  0  0
  8 31  1  0  0  0  0
  8 32  1  0  0  0  0
  8 33  1  0  0  0  0
  9 10  1  0  0  0  0
  9 34  1  0  0  0  0
  9 35  1  0  0  0  0
 10 11  1  0  0  0  0
 10 36  1  0  0  0  0
 11 12  2  0  0  0  0
 11 13  1  0  0  0  0
 13 14  1  0  0  0  0
 13 37  1  0  0  0  0
 14 18  1  0  0  0  0
 14 15  2  0  0  0  0
 15 16  1  0  0  0  0
 16 17  2  0  0  0  0
 17 18  1  0  0  0  0
 17 38  1  0  0  0  0
 19 20  1  0  0  0  0
 19 39  1  0  0  0  0
 19 40  1  0  0  0  0
 20 41  1  0  0  0  0
 20 42  1  0  0  0  0
M  END
> <s_m_source_file>
AV-unprocessed.smi

> <i_m_source_file_index>
1817

> <i_lp_mmshare_version>
43012

> <i_f3d_flags>
0

> <s_epik_input>
W0NIM11bQ0gyXU4xW0NIMl1bQ0gyXU4oW0NIMl1bQ0gyXTEpW0NASF0oW0NIM10pW0NIMl1bTkhdQyg9TylbTkhdYzJubltjSF1zMg==

> <s_epik_cmdline>
J2VwaWtfcHl0aG9uJywgJy1waCcsICc3LjAnLCAnLXRuJywgJzgnLCAnLW1hJywgJzIwMCcsICctbWV0YWxfYmluZGluZycsICctaW1hZScsICc8aW5maWxlLm1hZT4nLCAnLW9tYWUnLCAnPG91dGZpbGUubWFlPic=

> <r_lp_tautomer_probability>
1

> <r_epik_Ionization_Penalty>
2.44129

> <r_epik_Ionization_Penalty_Charging>
0

> <r_epik_Ionization_Penalty_Neutral>
2.44129

> <r_epik_State_Penalty>
1.7682

> <r_epik_Charging_Adjusted_Penalty>
1.7682

> <i_epik_Tot_Q>
0

> <i_epik_Tot_abs_Q>
0

> <r_epik_Metal_State_Penalty>
2.10306

> <b_epik_Metal_Only>
0

> <s_lp_Force_Field>
OPLS_2005

> <r_lp_Energy>
42.0041

> <b_lp_Chiralities_Consistent>
1

> <s_lp_Variant>
AV-unprocessed.smi:1817-5

> <Gold.Version>
5.8.1

> <Gold.Id.Protein>
6NUR|6NUR_protein|mol2

> <Gold.PLP.Fitness>
39.6513

> <Gold.PLP.PLP>
-31.7161

> <Gold.PLP.part.hbond>
-2.2327

> <Gold.PLP.part.metal>
0.0000

> <Gold.PLP.part.buried>
-5.5212

> <Gold.PLP.part.nonpolar>
-26.3062

> <Gold.PLP.part.repulsive>
0.4299

> <Gold.PLP.ligand.clash>
0.0000

> <Gold.PLP.ligand.torsion>
0.2010

> <Gold.PLP.Chemscore.Hbond>
1.8318

> <Gold.PLP.Chemscore.CHOScore>
0.9297

> <Gold.PLP.Chemscore.Metal>
0.0000

> <Gold.Chemscore.Hbonds>
donor molecule, donor type, donor heavy atom, donor atom, acceptor molecule, acceptor atom, score
      L1  H    10    36       P1  7948  0.84
      L1  H    13    37       P1  7948  1.00
      L1  C    17    38       P1 10186  0.86

> <Gold.PLP.Chemscore.Internal.Correction>
0.0526

> <Gold.Rescore>
     Score         DG    S(hbond)    S(metal)    S(lipo)     H(rot)  DE(clash)    DE(int)     intcor
     14.86     -16.54       1.95        0.00      79.89       1.87       0.02       1.66       ----

> <Gold.Chemscore.Fitness>
14.8564

> <Gold.Chemscore.DG>
-16.5385

> <Gold.Chemscore.ZeroCoef>
-5.4800

> <Gold.Chemscore.Hbond>
1.9483

> <Gold.Chemscore.Metal>
0.0000

> <Gold.Chemscore.Lipo>
79.8880

> <Gold.Chemscore.Internal_Hbond>
0.0000

> <Gold.Chemscore.DEClash>
0.0199

> <Gold.Chemscore.DEInternal>
1.6622

> <Gold.Chemscore.Rot>
1.8733

> <Gold.Chemscore.Internal.Correction>
   9.000000E+99

> <Gold.Chemscore.Hbonds>
donor molecule, donor type, donor heavy atom, donor atom, acceptor molecule, acceptor atom, score
      L1  H    10    36       P1  7948  0.79
      L1  H    13    37       P1  7948  0.97

> <Gold.Chemscore.Hbond.Weighted>
-6.5073

> <Gold.Chemscore.Metal.Weighted>
-0.0000

> <Gold.Chemscore.Lipo.Weighted>
-9.3469

> <Gold.Chemscore.Internal_Hbond.Weighted>
0.0000

> <Gold.Chemscore.DEClash.Weighted>
0.0199

> <Gold.Chemscore.DEInternal.Weighted>
1.6622

> <Gold.Chemscore.Rot.Weighted>
4.7957

> <Gold.Chemscore.Internal.Correction.Weighted>
   9.000000E+99

> <Gold.Protein.RotatedTorsions>
[ 6907 6896 6895 6894 ] final  154.29 input  -60.11 | X-H torsion
[ 7974 7965 7964 7962 ] final  150.84 input  175.53 | X-H torsion
[ 8008 7997 7996 7995 ] final   40.31 input   59.86 | X-H torsion
[ 10167 10162 10161 10158 ] final   -5.84 input  -65.29 | X-H torsion
[ 10718 10713 10712 10709 ] final   46.37 input   66.30 | X-H torsion
[ 10763 10752 10751 10750 ] final  -64.81 input  -60.55 | X-H torsion
[ 11005 11000 10999 10996 ] final  -45.95 input  -57.11 | X-H torsion

> <Gold.Protein.ActiveResidues>
 VAL166  LYS551  ARG553  GLY616  TRP617  ASP618  TYR619  PRO620  LYS621  CYS622 
 ASP623  PHE694  ASN695  SER759  ASP760  ASP761  ALA762  ILE779  LEU786  VAL792 
 PHE793  MET794  SER795  GLU796  ALA797  LYS798  CYS799  TRP800  GLU811  SER814 

> <Gold.Protein.RotatedAtoms>
  152.0606  133.4060  159.4416 H   0  0  0  0  0  0  0  0  0  0  0  0  # atno 6907 bound_to 6896
  150.6866  134.3204  159.4793 H   0  0  0  0  0  0  0  0  0  0  0  0  # atno 6908 bound_to 6896
  152.1025  134.9331  160.0620 H   0  0  0  0  0  0  0  0  0  0  0  0  # atno 6909 bound_to 6896
  144.8335  139.6461  143.6048 H   0  0  0  0  0  0  0  0  0  0  0  0  # atno 7974 bound_to 7965
  155.2510  140.3352  155.4282 H   0  0  0  0  0  0  0  0  0  0  0  0  # atno 8008 bound_to 7997
  156.2215  140.1811  156.7508 H   0  0  0  0  0  0  0  0  0  0  0  0  # atno 8009 bound_to 7997
  154.5833  140.0650  156.9120 H   0  0  0  0  0  0  0  0  0  0  0  0  # atno 8010 bound_to 7997
  140.6977  143.6262  150.8566 H   0  0  0  0  0  0  0  0  0  0  0  0  # atno 10167 bound_to 10162
  157.4474  130.8117  149.7754 H   0  0  0  0  0  0  0  0  0  0  0  0  # atno 10718 bound_to 10713
  154.3357  135.6167  153.5572 H   0  0  0  0  0  0  0  0  0  0  0  0  # atno 10763 bound_to 10752
  152.9808  135.5757  154.4911 H   0  0  0  0  0  0  0  0  0  0  0  0  # atno 10764 bound_to 10752
  154.4605  135.2856  155.1693 H   0  0  0  0  0  0  0  0  0  0  0  0  # atno 10765 bound_to 10752
  141.0548  133.6729  156.3086 H   0  0  0  0  0  0  0  0  0  0  0  0  # atno 11005 bound_to 11000
  146.2636  139.6467  142.9345 LP  0  0  0  0  0  0  0  0  0  0  0  0  # atno 17320 bound_to 7965
  145.4845  141.0438  143.2627 LP  0  0  0  0  0  0  0  0  0  0  0  0  # atno 17321 bound_to 7965
  139.9981  143.5773  152.2885 LP  0  0  0  0  0  0  0  0  0  0  0  0  # atno 17342 bound_to 10162
  139.6453  144.7657  151.2256 LP  0  0  0  0  0  0  0  0  0  0  0  0  # atno 17343 bound_to 10162
  155.9973  130.3901  150.2746 LP  0  0  0  0  0  0  0  0  0  0  0  0  # atno 17370 bound_to 10713
  157.0916  131.0171  151.3119 LP  0  0  0  0  0  0  0  0  0  0  0  0  # atno 17371 bound_to 10713
  140.5985  134.5579  157.5513 LP  0  0  0  0  0  0  0  0  0  0  0  0  # atno 17394 bound_to 11000
  139.9381  134.7838  156.0750 LP  0  0  0  0  0  0  0  0  0  0  0  0  # atno 17395 bound_to 11000

$$$$
