AV-unprocessed.smi:1546|AV-procd|sdf|6218|dock9
  -GOLD-   22720 6393D 1   1.00000     0.00000
 Structure written by MMmdl.
 30 31  0  0  0  0  0  0  0  0  1 V2000
  151.4234  140.6435  155.6557 O   0  0  0  0  0  0  0  0  0  0  0  0
  150.6634  141.5849  155.8822 C   0  0  0  0  0  0  0  0  0  0  0  0
  151.0859  142.6921  156.8500 C   0  0  0  0  0  0  0  0  0  0  0  0
  150.3202  142.6062  158.0420 O   0  0  0  0  0  0  0  0  0  0  0  0
  150.7493  143.5249  159.0316 C   0  0  0  0  0  0  0  0  0  0  0  0
  152.2082  143.2686  159.3427 C   0  0  0  0  0  0  0  0  0  0  0  0
  152.6427  141.9404  159.9197 C   0  0  0  0  0  0  0  0  0  0  0  0
  152.6902  143.1820  160.7732 C   0  0  0  0  0  0  0  0  0  0  0  0
  149.4413  141.7476  155.3386 N   0  0  0  0  0  0  0  0  0  0  0  0
  148.7490  140.9327  154.4270 C   0  0  0  0  0  0  0  0  0  0  0  0
  149.0952  139.6710  154.0629 C   0  0  0  0  0  0  0  0  0  0  0  0
  148.3760  138.9034  153.1572 N   0  0  0  0  0  0  0  0  0  0  0  0
  147.2376  139.4401  152.5780 C   0  0  0  0  0  0  0  0  0  0  0  0
  146.7839  140.6786  152.8534 C   0  0  0  0  0  0  0  0  0  0  0  0
  147.5230  141.5229  153.8187 C   0  0  0  0  0  0  0  0  0  0  0  0
  147.1325  142.6568  154.0971 O   0  0  0  0  0  0  0  0  0  0  0  0
  152.1483  142.5888  157.0784 H   0  0  0  0  0  0  0  0  0  0  0  0
  150.9360  143.6608  156.3711 H   0  0  0  0  0  0  0  0  0  0  0  0
  150.6186  144.5521  158.6871 H   0  0  0  0  0  0  0  0  0  0  0  0
  150.1653  143.3988  159.9443 H   0  0  0  0  0  0  0  0  0  0  0  0
  152.8952  143.7188  158.6286 H   0  0  0  0  0  0  0  0  0  0  0  0
  151.8707  141.2070  160.1447 H   0  0  0  0  0  0  0  0  0  0  0  0
  153.5901  141.5297  159.5764 H   0  0  0  0  0  0  0  0  0  0  0  0
  153.6686  143.6014  160.9988 H   0  0  0  0  0  0  0  0  0  0  0  0
  151.9497  143.2748  161.5653 H   0  0  0  0  0  0  0  0  0  0  0  0
  148.9412  142.5805  155.6147 H   0  0  0  0  0  0  0  0  0  0  0  0
  149.9559  139.1455  154.4429 H   0  0  0  0  0  0  0  0  0  0  0  0
  146.7415  138.7792  151.8825 H   0  0  0  0  0  0  0  0  0  0  0  0
  145.8930  141.0705  152.3850 H   0  0  0  0  0  0  0  0  0  0  0  0
  148.6788  137.9680  152.9247 H   0  0  0  0  0  0  0  0  0  0  0  0
  1  2  2  0  0  0  0
  2  3  1  0  0  0  0
  2  9  1  0  0  0  0
  3  4  1  0  0  0  0
  3 17  1  0  0  0  0
  3 18  1  0  0  0  0
  4  5  1  0  0  0  0
  5  6  1  0  0  0  0
  5 19  1  0  0  0  0
  5 20  1  0  0  0  0
  6  8  1  0  0  0  0
  6  7  1  0  0  0  0
  6 21  1  0  0  0  0
  7  8  1  0  0  0  0
  7 22  1  0  0  0  0
  7 23  1  0  0  0  0
  8 24  1  0  0  0  0
  8 25  1  0  0  0  0
  9 26  1  0  0  0  0
  9 10  1  0  0  0  0
 10 15  1  0  0  0  0
 10 11  2  0  0  0  0
 11 27  1  0  0  0  0
 11 12  1  0  0  0  0
 12 30  1  0  0  0  0
 12 13  1  0  0  0  0
 13 28  1  0  0  0  0
 13 14  2  0  0  0  0
 14 15  1  0  0  0  0
 14 29  1  0  0  0  0
 15 16  2  0  0  0  0
M  END
> <s_m_source_file>
AV-unprocessed.smi

> <i_m_source_file_index>
1546

> <i_lp_mmshare_version>
43012

> <i_f3d_flags>
0

> <s_epik_input>
W0NIMl0xW0NIMl1bQ0hdMVtDSDJdT1tDSDJdQyg9TylbTkhdYzJbY0hdbltjSF1bY0hdYzJbT0hd

> <s_epik_cmdline>
J2VwaWtfcHl0aG9uJywgJy1waCcsICc3LjAnLCAnLXRuJywgJzgnLCAnLW1hJywgJzIwMCcsICctbWV0YWxfYmluZGluZycsICctaW1hZScsICc8aW5maWxlLm1hZT4nLCAnLW9tYWUnLCAnPG91dGZpbGUubWFlPic=

> <r_lp_tautomer_probability>
1

> <r_epik_Ionization_Penalty>
0.000226134

> <r_epik_Ionization_Penalty_Charging>
0.000226086

> <r_epik_Ionization_Penalty_Neutral>
4.85517e-08

> <r_epik_State_Penalty>
-0

> <r_epik_Charging_Adjusted_Penalty>
0.000226086

> <i_epik_Tot_Q>
0

> <i_epik_Tot_abs_Q>
0

> <r_epik_Metal_State_Penalty>
0.0890487

> <b_epik_Metal_Only>
0

> <s_lp_Force_Field>
OPLS_2005

> <r_lp_Energy>
13.4663

> <b_lp_Chiralities_Consistent>
1

> <s_lp_Variant>
AV-unprocessed.smi:1546-1

> <Gold.Version>
5.8.1

> <Gold.Id.Protein>
6NUR|6NUR_protein|mol2

> <Gold.PLP.Fitness>
40.0917

> <Gold.PLP.PLP>
-33.5575

> <Gold.PLP.part.hbond>
-3.9802

> <Gold.PLP.part.metal>
0.0000

> <Gold.PLP.part.buried>
0.3741

> <Gold.PLP.part.nonpolar>
-29.6450

> <Gold.PLP.part.repulsive>
0.8015

> <Gold.PLP.ligand.clash>
0.0000

> <Gold.PLP.ligand.torsion>
0.4748

> <Gold.PLP.Chemscore.Hbond>
2.3079

> <Gold.PLP.Chemscore.CHOScore>
0.0000

> <Gold.PLP.Chemscore.Metal>
0.0000

> <Gold.Chemscore.Hbonds>
donor molecule, donor type, donor heavy atom, donor atom, acceptor molecule, acceptor atom, score
      L1  H     9    26       P1  8028  0.70
      L1  H    12    30       P1  7948  0.99
      P1  H  7989  7998       L1     1  0.47

> <Gold.PLP.Chemscore.Internal.Correction>
0.5602

> <Gold.Rescore>
     Score         DG    S(hbond)    S(metal)    S(lipo)     H(rot)  DE(clash)    DE(int)     intcor
     14.46     -17.00       1.77        0.00      86.25       1.75       0.96       1.58       ----

> <Gold.Chemscore.Fitness>
14.4586

> <Gold.Chemscore.DG>
-16.9977

> <Gold.Chemscore.ZeroCoef>
-5.4800

> <Gold.Chemscore.Hbond>
1.7715

> <Gold.Chemscore.Metal>
0.0000

> <Gold.Chemscore.Lipo>
86.2476

> <Gold.Chemscore.Internal_Hbond>
0.0000

> <Gold.Chemscore.DEClash>
0.9573

> <Gold.Chemscore.DEInternal>
1.5818

> <Gold.Chemscore.Rot>
1.7540

> <Gold.Chemscore.Internal.Correction>
   9.000000E+99

> <Gold.Chemscore.Hbonds>
donor molecule, donor type, donor heavy atom, donor atom, acceptor molecule, acceptor atom, score
      L1  H     9    26       P1  8028  0.67
      L1  H    12    30       P1  7948  0.92
      P1  H  7989  7998       L1     1  0.11

> <Gold.Chemscore.Hbond.Weighted>
-5.9169

> <Gold.Chemscore.Metal.Weighted>
-0.0000

> <Gold.Chemscore.Lipo.Weighted>
-10.0910

> <Gold.Chemscore.Internal_Hbond.Weighted>
0.0000

> <Gold.Chemscore.DEClash.Weighted>
0.9573

> <Gold.Chemscore.DEInternal.Weighted>
1.5818

> <Gold.Chemscore.Rot.Weighted>
4.4901

> <Gold.Chemscore.Internal.Correction.Weighted>
   9.000000E+99

> <Gold.Protein.RotatedTorsions>
[ 6907 6896 6895 6894 ] final -159.81 input  -60.11 | X-H torsion
[ 7974 7965 7964 7962 ] final -139.23 input  175.53 | X-H torsion
[ 8008 7997 7996 7995 ] final  -44.63 input   59.86 | X-H torsion
[ 10167 10162 10161 10158 ] final  100.66 input  -65.29 | X-H torsion
[ 10718 10713 10712 10709 ] final  150.00 input   66.30 | X-H torsion
[ 10763 10752 10751 10750 ] final  177.08 input  -60.55 | X-H torsion
[ 11005 11000 10999 10996 ] final  169.22 input  -57.11 | X-H torsion

> <Gold.Protein.ActiveResidues>
 VAL166  LYS551  ARG553  GLY616  TRP617  ASP618  TYR619  PRO620  LYS621  CYS622 
 ASP623  PHE694  ASN695  SER759  ASP760  ASP761  ALA762  ILE779  LEU786  VAL792 
 PHE793  MET794  SER795  GLU796  ALA797  LYS798  CYS799  TRP800  GLU811  SER814 

> <Gold.Protein.RotatedAtoms>
  151.3393  133.3969  159.2669 H   0  0  0  0  0  0  0  0  0  0  0  0  # atno 6907 bound_to 6896
  150.9891  134.9231  159.7899 H   0  0  0  0  0  0  0  0  0  0  0  0  # atno 6908 bound_to 6896
  152.5241  134.3358  159.9251 H   0  0  0  0  0  0  0  0  0  0  0  0  # atno 6909 bound_to 6896
  144.8694  140.6343  143.5277 H   0  0  0  0  0  0  0  0  0  0  0  0  # atno 7974 bound_to 7965
  154.3998  140.1417  156.3715 H   0  0  0  0  0  0  0  0  0  0  0  0  # atno 8008 bound_to 7997
  155.8088  140.3473  155.5425 H   0  0  0  0  0  0  0  0  0  0  0  0  # atno 8009 bound_to 7997
  155.8408  140.0926  157.1726 H   0  0  0  0  0  0  0  0  0  0  0  0  # atno 8010 bound_to 7997
  139.7507  144.6984  151.0436 H   0  0  0  0  0  0  0  0  0  0  0  0  # atno 10167 bound_to 10162
  157.2890  131.0850  151.1476 H   0  0  0  0  0  0  0  0  0  0  0  0  # atno 10718 bound_to 10713
  154.4897  135.2778  155.1506 H   0  0  0  0  0  0  0  0  0  0  0  0  # atno 10763 bound_to 10752
  154.3182  135.6215  153.5500 H   0  0  0  0  0  0  0  0  0  0  0  0  # atno 10764 bound_to 10752
  152.9886  135.5736  154.5316 H   0  0  0  0  0  0  0  0  0  0  0  0  # atno 10765 bound_to 10752
  140.2954  134.7639  157.3873 H   0  0  0  0  0  0  0  0  0  0  0  0  # atno 11005 bound_to 11000
  145.4160  139.1572  143.4100 LP  0  0  0  0  0  0  0  0  0  0  0  0  # atno 17320 bound_to 7965
  146.2919  140.4267  142.8736 LP  0  0  0  0  0  0  0  0  0  0  0  0  # atno 17321 bound_to 7965
  140.7797  143.4812  151.0016 LP  0  0  0  0  0  0  0  0  0  0  0  0  # atno 17342 bound_to 10162
  139.8499  143.7451  152.3178 LP  0  0  0  0  0  0  0  0  0  0  0  0  # atno 17343 bound_to 10162
  157.2879  130.6782  149.6099 LP  0  0  0  0  0  0  0  0  0  0  0  0  # atno 17370 bound_to 10713
  155.9666  130.4429  150.5402 LP  0  0  0  0  0  0  0  0  0  0  0  0  # atno 17371 bound_to 10713
  140.1157  134.5286  155.8227 LP  0  0  0  0  0  0  0  0  0  0  0  0  # atno 17394 bound_to 11000
  141.2138  133.6739  156.6772 LP  0  0  0  0  0  0  0  0  0  0  0  0  # atno 17395 bound_to 11000

$$$$
