AV-unprocessed.smi:2238|AV-procd|sdf|9054|dock4
  -GOLD-   2272012263D 1   1.00000     0.00000
 Structure written by MMmdl.
 38 39  0  0  0  0  0  0  0  0  1 V2000
  151.6721  144.9550  159.1223 C   0  0  0  0  0  0  0  0  0  0  0  0
  152.2680  143.6058  159.4682 C   0  0  0  0  0  0  0  0  0  0  0  0
  152.8468  143.3880  160.7339 C   0  0  0  0  0  0  0  0  0  0  0  0
  153.3978  142.1323  161.0467 C   0  0  0  0  0  0  0  0  0  0  0  0
  153.3737  141.0920  160.0975 C   0  0  0  0  0  0  0  0  0  0  0  0
  154.0597  139.5603  160.5067 Cl  0  0  0  0  0  0  0  0  0  0  0  0
  152.7992  141.2948  158.8233 C   0  0  0  0  0  0  0  0  0  0  0  0
  152.8144  140.2310  157.9461 O   0  0  0  0  0  0  0  0  0  0  0  0
  151.8843  140.2218  156.8701 C   0  0  0  0  0  0  0  0  0  0  0  0
  152.1112  138.9760  155.9961 C   0  0  2  0  0  0  0  0  0  0  0  0
  153.5048  138.8428  155.8011 O   0  0  0  0  0  0  0  0  0  0  0  0
  151.3759  139.0452  154.6379 C   0  0  0  0  0  0  0  0  0  0  0  0
  149.9128  139.0534  154.8000 N   0  0  0  0  0  0  0  0  0  0  0  0
  149.3348  137.9008  155.3685 C   0  0  0  0  0  0  0  0  0  0  0  0
  148.0573  137.8002  155.5579 N   0  0  0  0  0  0  0  0  0  0  0  0
  147.2193  138.8569  155.1891 C   0  0  0  0  0  0  0  0  0  0  0  0
  145.7350  138.6816  155.4363 C   0  0  0  0  0  0  0  0  0  0  0  0
  147.7231  139.9809  154.6288 C   0  0  0  0  0  0  0  0  0  0  0  0
  149.1617  140.1206  154.4006 C   0  0  0  0  0  0  0  0  0  0  0  0
  149.6562  141.1232  153.8854 O   0  0  0  0  0  0  0  0  0  0  0  0
  152.2453  142.5645  158.5181 C   0  0  0  0  0  0  0  0  0  0  0  0
  151.5532  145.5760  160.0107 H   0  0  0  0  0  0  0  0  0  0  0  0
  150.6911  144.8315  158.6627 H   0  0  0  0  0  0  0  0  0  0  0  0
  152.3172  145.4830  158.4198 H   0  0  0  0  0  0  0  0  0  0  0  0
  152.8709  144.1803  161.4679 H   0  0  0  0  0  0  0  0  0  0  0  0
  153.8409  141.9676  162.0180 H   0  0  0  0  0  0  0  0  0  0  0  0
  150.8562  140.2506  157.2355 H   0  0  0  0  0  0  0  0  0  0  0  0
  152.0434  141.1109  156.2576 H   0  0  0  0  0  0  0  0  0  0  0  0
  151.7761  138.1053  156.5617 H   0  0  0  0  0  0  0  0  0  0  0  0
  153.6526  138.3582  155.0029 H   0  0  0  0  0  0  0  0  0  0  0  0
  151.6808  139.9514  154.1103 H   0  0  0  0  0  0  0  0  0  0  0  0
  151.6997  138.2353  153.9812 H   0  0  0  0  0  0  0  0  0  0  0  0
  150.0349  137.1059  155.6312 H   0  0  0  0  0  0  0  0  0  0  0  0
  145.2323  139.6466  155.5076 H   0  0  0  0  0  0  0  0  0  0  0  0
  145.5602  138.1411  156.3671 H   0  0  0  0  0  0  0  0  0  0  0  0
  145.2815  138.1175  154.6211 H   0  0  0  0  0  0  0  0  0  0  0  0
  147.0632  140.7874  154.3447 H   0  0  0  0  0  0  0  0  0  0  0  0
  151.7959  142.7638  157.5573 H   0  0  0  0  0  0  0  0  0  0  0  0
  1  2  1  0  0  0  0
  1 22  1  0  0  0  0
  1 23  1  0  0  0  0
  1 24  1  0  0  0  0
  2 21  1  0  0  0  0
  2  3  2  0  0  0  0
  3  4  1  0  0  0  0
  3 25  1  0  0  0  0
  4  5  2  0  0  0  0
  4 26  1  0  0  0  0
  5  6  1  0  0  0  0
  5  7  1  0  0  0  0
  7  8  1  0  0  0  0
  7 21  2  0  0  0  0
  8  9  1  0  0  0  0
  9 10  1  0  0  0  0
  9 27  1  0  0  0  0
  9 28  1  0  0  0  0
 10 11  1  0  0  0  0
 10 12  1  0  0  0  0
 10 29  1  0  0  0  0
 11 30  1  0  0  0  0
 12 13  1  0  0  0  0
 12 31  1  0  0  0  0
 12 32  1  0  0  0  0
 13 19  1  0  0  0  0
 13 14  1  0  0  0  0
 14 15  2  0  0  0  0
 14 33  1  0  0  0  0
 15 16  1  0  0  0  0
 16 17  1  0  0  0  0
 16 18  2  0  0  0  0
 17 34  1  0  0  0  0
 17 35  1  0  0  0  0
 17 36  1  0  0  0  0
 18 19  1  0  0  0  0
 18 37  1  0  0  0  0
 19 20  2  0  0  0  0
 21 38  1  0  0  0  0
M  END
> <s_m_source_file>
AV-unprocessed.smi

> <i_m_source_file_index>
2238

> <i_lp_mmshare_version>
43012

> <i_f3d_flags>
0

> <s_epik_input>
W0NIM11jMVtjSF1bY0hdYyhDbCljKFtjSF0xKU9bQ0gyXVtDQEhdKFtPSF0pW0NIMl1uMltjSF1uYyhbQ0gzXSlbY0hdYzI9Tw==

> <s_epik_cmdline>
J2VwaWtfcHl0aG9uJywgJy1waCcsICc3LjAnLCAnLXRuJywgJzgnLCAnLW1hJywgJzIwMCcsICctbWV0YWxfYmluZGluZycsICctaW1hZScsICc8aW5maWxlLm1hZT4nLCAnLW9tYWUnLCAnPG91dGZpbGUubWFlPic=

> <r_lp_tautomer_probability>
1

> <r_epik_Ionization_Penalty>
1.78029e-05

> <r_epik_Ionization_Penalty_Charging>
3.78421e-08

> <r_epik_Ionization_Penalty_Neutral>
1.7765e-05

> <r_epik_State_Penalty>
-0

> <r_epik_Charging_Adjusted_Penalty>
3.78421e-08

> <i_epik_Tot_Q>
0

> <i_epik_Tot_abs_Q>
0

> <r_epik_Metal_State_Penalty>
-0

> <b_epik_Metal_Only>
0

> <s_lp_Force_Field>
OPLS_2005

> <r_lp_Energy>
23.6885

> <b_lp_Chiralities_Consistent>
1

> <s_lp_Variant>
AV-unprocessed.smi:2238-1

> <Gold.Version>
5.8.1

> <Gold.Id.Protein>
6NUR|6NUR_protein|mol2

> <Gold.PLP.Fitness>
47.5232

> <Gold.PLP.PLP>
-41.7623

> <Gold.PLP.part.hbond>
-3.8512

> <Gold.PLP.part.metal>
0.0000

> <Gold.PLP.part.buried>
-3.7223

> <Gold.PLP.part.nonpolar>
-34.5567

> <Gold.PLP.part.repulsive>
1.4788

> <Gold.PLP.ligand.clash>
0.0000

> <Gold.PLP.ligand.torsion>
0.4293

> <Gold.PLP.Chemscore.Hbond>
2.1844

> <Gold.PLP.Chemscore.CHOScore>
0.0000

> <Gold.PLP.Chemscore.Metal>
0.0000

> <Gold.Chemscore.Hbonds>
donor molecule, donor type, donor heavy atom, donor atom, acceptor molecule, acceptor atom, score
      P1  H  7989  7998       L1    20  0.35
      P1  H  7997  8010       L1     8  0.96
      P1  H  8011  8017       L1    20  0.86

> <Gold.PLP.Chemscore.Internal.Correction>
0.0662

> <Gold.Rescore>
     Score         DG    S(hbond)    S(metal)    S(lipo)     H(rot)  DE(clash)    DE(int)     intcor
     15.99     -17.88       1.63        0.00     113.54       2.47       1.42       0.48       ----

> <Gold.Chemscore.Fitness>
15.9852

> <Gold.Chemscore.DG>
-17.8808

> <Gold.Chemscore.ZeroCoef>
-5.4800

> <Gold.Chemscore.Hbond>
1.6302

> <Gold.Chemscore.Metal>
0.0000

> <Gold.Chemscore.Lipo>
113.5374

> <Gold.Chemscore.Internal_Hbond>
0.0000

> <Gold.Chemscore.DEClash>
1.4158

> <Gold.Chemscore.DEInternal>
0.4797

> <Gold.Chemscore.Rot>
2.4718

> <Gold.Chemscore.Internal.Correction>
   9.000000E+99

> <Gold.Chemscore.Hbonds>
donor molecule, donor type, donor heavy atom, donor atom, acceptor molecule, acceptor atom, score
      P1  H  7989  7998       L1    20  0.28
      P1  H  7997  8010       L1     8  0.23
      P1  H  8011  8017       L1    20  0.80

> <Gold.Chemscore.Hbond.Weighted>
-5.4448

> <Gold.Chemscore.Metal.Weighted>
-0.0000

> <Gold.Chemscore.Lipo.Weighted>
-13.2839

> <Gold.Chemscore.Internal_Hbond.Weighted>
0.0000

> <Gold.Chemscore.DEClash.Weighted>
1.4158

> <Gold.Chemscore.DEInternal.Weighted>
0.4797

> <Gold.Chemscore.Rot.Weighted>
6.3279

> <Gold.Chemscore.Internal.Correction.Weighted>
   9.000000E+99

> <Gold.Protein.RotatedTorsions>
[ 6907 6896 6895 6894 ] final    2.65 input  -60.11 | X-H torsion
[ 7974 7965 7964 7962 ] final   -6.25 input  175.53 | X-H torsion
[ 8008 7997 7996 7995 ] final   39.31 input   59.86 | X-H torsion
[ 10167 10162 10161 10158 ] final   37.90 input  -65.29 | X-H torsion
[ 10718 10713 10712 10709 ] final -178.09 input   66.30 | X-H torsion
[ 10763 10752 10751 10750 ] final   67.38 input  -60.55 | X-H torsion
[ 11005 11000 10999 10996 ] final  -71.84 input  -57.11 | X-H torsion

> <Gold.Protein.ActiveResidues>
 VAL166  LYS551  ARG553  GLY616  TRP617  ASP618  TYR619  PRO620  LYS621  CYS622 
 ASP623  PHE694  ASN695  SER759  ASP760  ASP761  ALA762  ILE779  LEU786  VAL792 
 PHE793  MET794  SER795  GLU796  ALA797  LYS798  CYS799  TRP800  GLU811  SER814 

> <Gold.Protein.RotatedAtoms>
  151.6123  135.1039  160.0083 H   0  0  0  0  0  0  0  0  0  0  0  0  # atno 6907 bound_to 6896
  152.4202  133.7099  159.6483 H   0  0  0  0  0  0  0  0  0  0  0  0  # atno 6908 bound_to 6896
  150.8089  133.8385  159.3213 H   0  0  0  0  0  0  0  0  0  0  0  0  # atno 6909 bound_to 6896
  146.2335  140.2142  142.8336 H   0  0  0  0  0  0  0  0  0  0  0  0  # atno 7974 bound_to 7965
  155.2346  140.3341  155.4299 H   0  0  0  0  0  0  0  0  0  0  0  0  # atno 8008 bound_to 7997
  156.2281  140.1838  156.7358 H   0  0  0  0  0  0  0  0  0  0  0  0  # atno 8009 bound_to 7997
  154.5932  140.0635  156.9252 H   0  0  0  0  0  0  0  0  0  0  0  0  # atno 8010 bound_to 7997
  140.3988  144.1751  150.6133 H   0  0  0  0  0  0  0  0  0  0  0  0  # atno 10167 bound_to 10162
  156.8391  130.9680  151.3101 H   0  0  0  0  0  0  0  0  0  0  0  0  # atno 10718 bound_to 10713
  153.0184  135.5286  154.6971 H   0  0  0  0  0  0  0  0  0  0  0  0  # atno 10763 bound_to 10752
  154.6090  135.2876  155.0455 H   0  0  0  0  0  0  0  0  0  0  0  0  # atno 10764 bound_to 10752
  154.1484  135.6567  153.5010 H   0  0  0  0  0  0  0  0  0  0  0  0  # atno 10765 bound_to 10752
  141.1599  133.6829  156.6968 H   0  0  0  0  0  0  0  0  0  0  0  0  # atno 11005 bound_to 11000
  144.9682  140.8343  143.5471 LP  0  0  0  0  0  0  0  0  0  0  0  0  # atno 17320 bound_to 7965
  145.2121  139.2200  143.5137 LP  0  0  0  0  0  0  0  0  0  0  0  0  # atno 17321 bound_to 7965
  140.4761  143.2395  151.9020 LP  0  0  0  0  0  0  0  0  0  0  0  0  # atno 17342 bound_to 10162
  139.4785  144.5318  151.8655 LP  0  0  0  0  0  0  0  0  0  0  0  0  # atno 17343 bound_to 10162
  157.6365  130.8771  149.9369 LP  0  0  0  0  0  0  0  0  0  0  0  0  # atno 17370 bound_to 10713
  156.0891  130.3665  150.0430 LP  0  0  0  0  0  0  0  0  0  0  0  0  # atno 17371 bound_to 10713
  140.2989  134.8180  157.4080 LP  0  0  0  0  0  0  0  0  0  0  0  0  # atno 17394 bound_to 11000
  140.1280  134.5133  155.8129 LP  0  0  0  0  0  0  0  0  0  0  0  0  # atno 17395 bound_to 11000

$$$$
