AV-unprocessed.smi:2226|AV-procd|sdf|9019|dock4
  -GOLD-   2272012223D 1   1.00000     0.00000
 Structure written by MMmdl.
 39 41  0  0  0  0  0  0  0  0  3 V2000
  146.3250  143.1769  154.1360 C   0  0  0  0  0  0  0  0  0  0  0  0
  147.4104  142.4263  154.8109 N   0  3  2  0  0  0  0  0  0  0  0  0
  148.1213  141.4497  153.9507 C   0  0  2  0  0  0  0  0  0  0  0  0
  147.2192  140.2365  153.6095 C   0  0  0  0  0  0  0  0  0  0  0  0
  146.5801  139.5671  154.8406 C   0  0  0  0  0  0  0  0  0  0  0  0
  146.0667  140.5943  155.8672 C   0  0  0  0  0  0  0  0  0  0  0  0
  147.0252  141.7909  156.0942 C   0  0  1  0  0  0  0  0  0  0  0  0
  148.3081  141.4506  156.8851 C   0  0  0  0  0  0  0  0  0  0  0  0
  149.3573  140.6307  156.0898 C   0  0  2  0  0  0  0  0  0  0  0  0
  150.6691  140.7499  156.7222 N   0  0  0  0  0  0  0  0  0  0  0  0
  151.3851  139.7480  157.2536 C   0  0  0  0  0  0  0  0  0  0  0  0
  150.9431  138.5970  157.2323 O   0  0  0  0  0  0  0  0  0  0  0  0
  152.5655  140.1452  157.7784 N   0  5  0  0  0  0  0  0  0  0  0  0
  152.5831  141.0279  158.7901 C   0  0  0  0  0  0  0  0  0  0  0  0
  153.3959  141.0013  159.8477 N   0  0  0  0  0  0  0  0  0  0  0  0
  153.0472  142.0976  160.6211 C   0  0  0  0  0  0  0  0  0  0  0  0
  152.0212  142.7469  159.9907 C   0  0  0  0  0  0  0  0  0  0  0  0
  151.7165  142.0791  158.8369 O   0  0  0  0  0  0  0  0  0  0  0  0
  149.4692  141.0891  154.6157 C   0  0  0  0  0  0  0  0  0  0  0  0
  145.5059  142.5296  153.8240 H   0  0  0  0  0  0  0  0  0  0  0  0
  146.7088  143.6850  153.2509 H   0  0  0  0  0  0  0  0  0  0  0  0
  145.9190  143.9385  154.8022 H   0  0  0  0  0  0  0  0  0  0  0  0
  148.3643  141.9473  153.0107 H   0  0  0  0  0  0  0  0  0  0  0  0
  146.4212  140.5679  152.9446 H   0  0  0  0  0  0  0  0  0  0  0  0
  147.7829  139.4981  153.0385 H   0  0  0  0  0  0  0  0  0  0  0  0
  145.7553  138.9297  154.5207 H   0  0  0  0  0  0  0  0  0  0  0  0
  147.2842  138.8842  155.3086 H   0  0  0  0  0  0  0  0  0  0  0  0
  145.1049  140.9744  155.5223 H   0  0  0  0  0  0  0  0  0  0  0  0
  145.8579  140.0957  156.8142 H   0  0  0  0  0  0  0  0  0  0  0  0
  146.4852  142.5319  156.6856 H   0  0  0  0  0  0  0  0  0  0  0  0
  148.7648  142.3942  157.1888 H   0  0  0  0  0  0  0  0  0  0  0  0
  148.0524  140.9370  157.8125 H   0  0  0  0  0  0  0  0  0  0  0  0
  149.0867  139.5777  156.1058 H   0  0  0  0  0  0  0  0  0  0  0  0
  151.0747  141.6736  156.7627 H   0  0  0  0  0  0  0  0  0  0  0  0
  153.5509  142.3260  161.5485 H   0  0  0  0  0  0  0  0  0  0  0  0
  151.4384  143.6283  160.2117 H   0  0  0  0  0  0  0  0  0  0  0  0
  149.9918  140.3333  154.0282 H   0  0  0  0  0  0  0  0  0  0  0  0
  150.0990  141.9798  154.5757 H   0  0  0  0  0  0  0  0  0  0  0  0
  148.0967  143.1274  155.0512 H   0  0  0  0  0  0  0  0  0  0  0  0
  1  2  1  0  0  0  0
  1 20  1  0  0  0  0
  1 21  1  0  0  0  0
  1 22  1  0  0  0  0
  2  7  1  0  0  0  0
  2  3  1  0  0  0  0
  2 39  1  0  0  0  0
  3 19  1  0  0  0  0
  3  4  1  0  0  0  0
  3 23  1  0  0  0  0
  4  5  1  0  0  0  0
  4 24  1  0  0  0  0
  4 25  1  0  0  0  0
  5  6  1  0  0  0  0
  5 26  1  0  0  0  0
  5 27  1  0  0  0  0
  6  7  1  0  0  0  0
  6 28  1  0  0  0  0
  6 29  1  0  0  0  0
  7  8  1  0  0  0  0
  7 30  1  0  0  0  0
  8  9  1  0  0  0  0
  8 31  1  0  0  0  0
  8 32  1  0  0  0  0
  9 10  1  0  0  0  0
  9 19  1  0  0  0  0
  9 33  1  0  0  0  0
 10 34  1  0  0  0  0
 10 11  1  0  0  0  0
 11 13  1  0  0  0  0
 11 12  2  0  0  0  0
 13 14  1  0  0  0  0
 14 18  1  0  0  0  0
 14 15  2  0  0  0  0
 15 16  1  0  0  0  0
 16 35  1  0  0  0  0
 16 17  2  0  0  0  0
 17 36  1  0  0  0  0
 17 18  1  0  0  0  0
 19 37  1  0  0  0  0
 19 38  1  0  0  0  0
M  CHG  1   2   1
M  CHG  1  13  -1
M  END
> <s_m_source_file>
AV-unprocessed.smi

> <i_m_source_file_index>
2226

> <i_lp_mmshare_version>
43012

> <i_f3d_flags>
0

> <s_epik_input>
W0NIMl0xW0NIMl1bQ0gyXVtDQEhdKE4oW0NIM10pW0NIXTEyKVtDSDJdW0NASF0oW0NIMl0yKVtOSF1DKD1PKVtOSF1jM25bY0hdW2NIXW8z

> <s_epik_cmdline>
J2VwaWtfcHl0aG9uJywgJy1waCcsICc3LjAnLCAnLXRuJywgJzgnLCAnLW1hJywgJzIwMCcsICctbWV0YWxfYmluZGluZycsICctaW1hZScsICc8aW5maWxlLm1hZT4nLCAnLW9tYWUnLCAnPG91dGZpbGUubWFlPic=

> <r_lp_tautomer_probability>
0.107061

> <r_epik_Ionization_Penalty>
10.5612

> <r_epik_Ionization_Penalty_Charging>
7.48913

> <r_epik_Ionization_Penalty_Neutral>
3.07202

> <r_epik_State_Penalty>
5.6431

> <r_epik_Charging_Adjusted_Penalty>
13.1322

> <i_epik_Tot_Q>
0

> <i_epik_Tot_abs_Q>
2

> <r_epik_Metal_State_Penalty>
1.58163

> <b_epik_Metal_Only>
1

> <s_lp_Force_Field>
OPLS_2005

> <r_lp_Energy>
24.9808

> <b_lp_Chiralities_Consistent>
1

> <s_lp_Variant>
AV-unprocessed.smi:2226-19

> <Gold.Version>
5.8.1

> <Gold.Id.Protein>
6NUR|6NUR_protein|mol2

> <Gold.PLP.Fitness>
40.1440

> <Gold.PLP.PLP>
-29.8910

> <Gold.PLP.part.hbond>
-2.0000

> <Gold.PLP.part.metal>
0.0000

> <Gold.PLP.part.buried>
-4.3082

> <Gold.PLP.part.nonpolar>
-23.9098

> <Gold.PLP.part.repulsive>
0.2025

> <Gold.PLP.ligand.clash>
0.0000

> <Gold.PLP.ligand.torsion>
0.8775

> <Gold.PLP.Chemscore.Hbond>
4.0000

> <Gold.PLP.Chemscore.CHOScore>
0.0000

> <Gold.PLP.Chemscore.Metal>
0.0000

> <Gold.Chemscore.Hbonds>
donor molecule, donor type, donor heavy atom, donor atom, acceptor molecule, acceptor atom, score
      L1  H     2    39       P1  8028  2.00
      P1  H  7997  8010       L1    13  1.59

> <Gold.PLP.Chemscore.Internal.Correction>
0.0080

> <Gold.Rescore>
     Score         DG    S(hbond)    S(metal)    S(lipo)     H(rot)  DE(clash)    DE(int)     intcor
     14.60     -16.13       1.87        0.00      59.43       1.00       0.39       1.14       ----

> <Gold.Chemscore.Fitness>
14.5999

> <Gold.Chemscore.DG>
-16.1268

> <Gold.Chemscore.ZeroCoef>
-5.4800

> <Gold.Chemscore.Hbond>
1.8722

> <Gold.Chemscore.Metal>
0.0000

> <Gold.Chemscore.Lipo>
59.4318

> <Gold.Chemscore.Internal_Hbond>
0.0000

> <Gold.Chemscore.DEClash>
0.3888

> <Gold.Chemscore.DEInternal>
1.1381

> <Gold.Chemscore.Rot>
1.0000

> <Gold.Chemscore.Internal.Correction>
   9.000000E+99

> <Gold.Chemscore.Hbonds>
donor molecule, donor type, donor heavy atom, donor atom, acceptor molecule, acceptor atom, score
      L1  H     2    39       P1  8028  0.92
      P1  H  7997  8010       L1    13  0.59

> <Gold.Chemscore.Hbond.Weighted>
-6.2533

> <Gold.Chemscore.Metal.Weighted>
-0.0000

> <Gold.Chemscore.Lipo.Weighted>
-6.9535

> <Gold.Chemscore.Internal_Hbond.Weighted>
0.0000

> <Gold.Chemscore.DEClash.Weighted>
0.3888

> <Gold.Chemscore.DEInternal.Weighted>
1.1381

> <Gold.Chemscore.Rot.Weighted>
2.5600

> <Gold.Chemscore.Internal.Correction.Weighted>
   9.000000E+99

> <Gold.Protein.RotatedTorsions>
[ 6907 6896 6895 6894 ] final  120.82 input  -60.11 | X-H torsion
[ 7974 7965 7964 7962 ] final   64.60 input  175.53 | X-H torsion
[ 8008 7997 7996 7995 ] final   52.45 input   59.86 | X-H torsion
[ 10167 10162 10161 10158 ] final -135.64 input  -65.29 | X-H torsion
[ 10718 10713 10712 10709 ] final  -10.16 input   66.30 | X-H torsion
[ 10763 10752 10751 10750 ] final   57.17 input  -60.55 | X-H torsion
[ 11005 11000 10999 10996 ] final  170.67 input  -57.11 | X-H torsion

> <Gold.Protein.ActiveResidues>
 VAL166  LYS551  ARG553  GLY616  TRP617  ASP618  TYR619  PRO620  LYS621  CYS622 
 ASP623  PHE694  ASN695  SER759  ASP760  ASP761  ALA762  ILE779  LEU786  VAL792 
 PHE793  MET794  SER795  GLU796  ALA797  LYS798  CYS799  TRP800  GLU811  SER814 

> <Gold.Protein.RotatedAtoms>
  152.4369  133.7377  159.6622 H   0  0  0  0  0  0  0  0  0  0  0  0  # atno 6907 bound_to 6896
  150.8254  133.8171  159.3127 H   0  0  0  0  0  0  0  0  0  0  0  0  # atno 6908 bound_to 6896
  151.5841  135.1059  160.0075 H   0  0  0  0  0  0  0  0  0  0  0  0  # atno 6909 bound_to 6896
  145.8483  139.3238  143.0890 H   0  0  0  0  0  0  0  0  0  0  0  0  # atno 7974 bound_to 7965
  155.4519  140.3458  155.4302 H   0  0  0  0  0  0  0  0  0  0  0  0  # atno 8008 bound_to 7997
  156.1214  140.1488  156.9228 H   0  0  0  0  0  0  0  0  0  0  0  0  # atno 8009 bound_to 7997
  154.4826  140.0865  156.7393 H   0  0  0  0  0  0  0  0  0  0  0  0  # atno 8010 bound_to 7997
  139.8759  143.6900  152.2634 H   0  0  0  0  0  0  0  0  0  0  0  0  # atno 10167 bound_to 10162
  156.6776  130.5027  149.5981 H   0  0  0  0  0  0  0  0  0  0  0  0  # atno 10718 bound_to 10713
  152.9845  135.5651  154.5347 H   0  0  0  0  0  0  0  0  0  0  0  0  # atno 10763 bound_to 10752
  154.4812  135.2788  155.1571 H   0  0  0  0  0  0  0  0  0  0  0  0  # atno 10764 bound_to 10752
  154.3079  135.6294  153.5506 H   0  0  0  0  0  0  0  0  0  0  0  0  # atno 10765 bound_to 10752
  140.3108  134.7518  157.3990 H   0  0  0  0  0  0  0  0  0  0  0  0  # atno 11005 bound_to 11000
  145.9387  140.8996  143.0319 LP  0  0  0  0  0  0  0  0  0  0  0  0  # atno 17320 bound_to 7965
  144.6730  140.1518  143.7429 LP  0  0  0  0  0  0  0  0  0  0  0  0  # atno 17321 bound_to 7965
  139.7241  144.7596  151.0907 LP  0  0  0  0  0  0  0  0  0  0  0  0  # atno 17342 bound_to 10162
  140.7753  143.5170  150.9582 LP  0  0  0  0  0  0  0  0  0  0  0  0  # atno 17343 bound_to 10162
  156.1892  130.6549  151.1041 LP  0  0  0  0  0  0  0  0  0  0  0  0  # atno 17370 bound_to 10713
  157.7055  131.0758  150.6680 LP  0  0  0  0  0  0  0  0  0  0  0  0  # atno 17371 bound_to 10713
  140.1026  134.5452  155.8339 LP  0  0  0  0  0  0  0  0  0  0  0  0  # atno 17394 bound_to 11000
  141.2108  133.6699  156.6539 LP  0  0  0  0  0  0  0  0  0  0  0  0  # atno 17395 bound_to 11000

$$$$
