AV-unprocessed.smi:1645|AV-procd|sdf|6618|dock3
  -GOLD-   22720 7313D 1   1.00000     0.00000
 Structure written by MMmdl.
 55 58  0  0  0  0  0  0  0  0  4 V2000
  149.0839  135.4380  156.3401 O   0  0  0  0  0  0  0  0  0  0  0  0
  148.9755  135.7233  155.1423 C   0  0  0  0  0  0  0  0  0  0  0  0
  149.3717  136.9264  154.6904 N   0  0  0  0  0  0  0  0  0  0  0  0
  149.9243  138.0138  155.4175 C   0  0  0  0  0  0  0  0  0  0  0  0
  150.6868  138.9629  154.7076 C   0  0  0  0  0  0  0  0  0  0  0  0
  151.2640  140.0516  155.3922 C   0  0  0  0  0  0  0  0  0  0  0  0
  151.0892  140.1777  156.7938 C   0  0  0  0  0  0  0  0  0  0  0  0
  151.6191  141.2392  157.5608 N   0  0  0  0  0  0  0  0  0  0  0  0
  150.8595  142.4932  157.5448 C   0  0  0  0  0  0  0  0  0  0  0  0
  151.7121  143.6736  158.0413 C   0  0  0  0  0  0  0  0  0  0  0  0
  152.3364  143.3699  159.4102 C   0  0  0  0  0  0  0  0  0  0  0  0
  153.1443  142.0670  159.3357 C   0  0  0  0  0  0  0  0  0  0  0  0
  152.2762  140.9042  158.8258 C   0  0  0  0  0  0  0  0  0  0  0  0
  150.3657  139.2268  157.4337 N   0  3  0  0  0  0  0  0  0  0  0  0
  149.7921  138.1709  156.8167 C   0  0  0  0  0  0  0  0  0  0  0  0
  148.4630  134.9493  154.1486 N   0  5  0  0  0  0  0  0  0  0  0  0
  148.4918  133.4851  154.1313 C   0  0  2  0  0  0  0  0  0  0  0  0
  149.8990  132.9415  154.4014 C   0  0  0  0  0  0  0  0  0  0  0  0
  149.9661  131.6022  153.6448 C   0  0  0  0  0  0  0  0  0  0  0  0
  148.8064  131.5583  152.7170 N   0  3  1  0  0  0  0  0  0  0  0  0
  147.8745  130.4354  153.0362 C   0  0  0  0  0  0  0  0  0  0  0  0
  146.5502  130.5281  152.2703 C   0  0  0  0  0  0  0  0  0  0  0  0
  145.8594  131.8540  152.5911 C   0  0  0  0  0  0  0  0  0  0  0  0
  146.7692  133.0107  152.1618 C   0  0  0  0  0  0  0  0  0  0  0  0
  148.2153  132.9265  152.7235 C   0  0  1  0  0  0  0  0  0  0  0  0
  149.1657  137.1096  153.7194 H   0  0  0  0  0  0  0  0  0  0  0  0
  150.8244  138.8644  153.6406 H   0  0  0  0  0  0  0  0  0  0  0  0
  151.8410  140.7658  154.8250 H   0  0  0  0  0  0  0  0  0  0  0  0
  150.4925  142.7287  156.5460 H   0  0  0  0  0  0  0  0  0  0  0  0
  149.9818  142.3752  158.1817 H   0  0  0  0  0  0  0  0  0  0  0  0
  152.5022  143.8824  157.3188 H   0  0  0  0  0  0  0  0  0  0  0  0
  151.1014  144.5749  158.1006 H   0  0  0  0  0  0  0  0  0  0  0  0
  152.9774  144.1942  159.7242 H   0  0  0  0  0  0  0  0  0  0  0  0
  151.5523  143.2769  160.1628 H   0  0  0  0  0  0  0  0  0  0  0  0
  153.9971  142.2052  158.6694 H   0  0  0  0  0  0  0  0  0  0  0  0
  153.5541  141.8230  160.3163 H   0  0  0  0  0  0  0  0  0  0  0  0
  151.5168  140.6503  159.5664 H   0  0  0  0  0  0  0  0  0  0  0  0
  152.9145  140.0293  158.6987 H   0  0  0  0  0  0  0  0  0  0  0  0
  149.2613  137.4925  157.4679 H   0  0  0  0  0  0  0  0  0  0  0  0
  147.7878  133.0309  154.8307 H   0  0  0  0  0  0  0  0  0  0  0  0
  150.6572  133.6161  153.9994 H   0  0  0  0  0  0  0  0  0  0  0  0
  150.0970  132.8271  155.4676 H   0  0  0  0  0  0  0  0  0  0  0  0
  150.8925  131.5333  153.0733 H   0  0  0  0  0  0  0  0  0  0  0  0
  149.9625  130.7602  154.3402 H   0  0  0  0  0  0  0  0  0  0  0  0
  148.3705  129.4912  152.8096 H   0  0  0  0  0  0  0  0  0  0  0  0
  147.6595  130.4239  154.1063 H   0  0  0  0  0  0  0  0  0  0  0  0
  146.7272  130.4427  151.1973 H   0  0  0  0  0  0  0  0  0  0  0  0
  145.9028  129.6958  152.5475 H   0  0  0  0  0  0  0  0  0  0  0  0
  144.9030  131.9173  152.0713 H   0  0  0  0  0  0  0  0  0  0  0  0
  145.6403  131.9187  153.6577 H   0  0  0  0  0  0  0  0  0  0  0  0
  146.8326  132.9906  151.0731 H   0  0  0  0  0  0  0  0  0  0  0  0
  146.3005  133.9678  152.3996 H   0  0  0  0  0  0  0  0  0  0  0  0
  148.8391  133.5024  152.0361 H   0  0  0  0  0  0  0  0  0  0  0  0
  149.1490  131.3905  151.7821 H   0  0  0  0  0  0  0  0  0  0  0  0
  150.2426  139.3133  158.4426 H   0  0  0  0  0  0  0  0  0  0  0  0
  1  2  2  0  0  0  0
  2  3  1  0  0  0  0
  2 16  1  0  0  0  0
  3  4  1  0  0  0  0
  3 26  1  0  0  0  0
  4 15  1  0  0  0  0
  4  5  2  0  0  0  0
  5  6  1  0  0  0  0
  5 27  1  0  0  0  0
  6  7  2  0  0  0  0
  6 28  1  0  0  0  0
  7  8  1  0  0  0  0
  7 14  1  0  0  0  0
  8 13  1  0  0  0  0
  8  9  1  0  0  0  0
  9 10  1  0  0  0  0
  9 29  1  0  0  0  0
  9 30  1  0  0  0  0
 10 11  1  0  0  0  0
 10 31  1  0  0  0  0
 10 32  1  0  0  0  0
 11 12  1  0  0  0  0
 11 33  1  0  0  0  0
 11 34  1  0  0  0  0
 12 13  1  0  0  0  0
 12 35  1  0  0  0  0
 12 36  1  0  0  0  0
 13 37  1  0  0  0  0
 13 38  1  0  0  0  0
 14 15  2  0  0  0  0
 14 55  1  0  0  0  0
 15 39  1  0  0  0  0
 16 17  1  0  0  0  0
 17 25  1  0  0  0  0
 17 18  1  0  0  0  0
 17 40  1  0  0  0  0
 18 19  1  0  0  0  0
 18 41  1  0  0  0  0
 18 42  1  0  0  0  0
 19 20  1  0  0  0  0
 19 43  1  0  0  0  0
 19 44  1  0  0  0  0
 20 25  1  0  0  0  0
 20 21  1  0  0  0  0
 20 54  1  0  0  0  0
 21 22  1  0  0  0  0
 21 45  1  0  0  0  0
 21 46  1  0  0  0  0
 22 23  1  0  0  0  0
 22 47  1  0  0  0  0
 22 48  1  0  0  0  0
 23 24  1  0  0  0  0
 23 49  1  0  0  0  0
 23 50  1  0  0  0  0
 24 25  1  0  0  0  0
 24 51  1  0  0  0  0
 24 52  1  0  0  0  0
 25 53  1  0  0  0  0
M  CHG  1  14   1
M  CHG  1  16  -1
M  CHG  1  20   1
M  END
> <s_m_source_file>
AV-unprocessed.smi

> <i_m_source_file_index>
1645

> <i_lp_mmshare_version>
43012

> <i_f3d_flags>
0

> <s_epik_input>
W0NIMl0xW0NIMl1bQ0gyXVtDSDJdW0NASF0oTjEyKVtDQEBIXShbQ0gyXVtDSDJdMilbTkhdQyg9TylbTkhdYzNbY0hdW2NIXWMobltjSF0zKU40W0NIMl1bQ0gyXVtDSDJdW0NIMl1bQ0gyXTQ=

> <s_epik_cmdline>
J2VwaWtfcHl0aG9uJywgJy1waCcsICc3LjAnLCAnLXRuJywgJzgnLCAnLW1hJywgJzIwMCcsICctbWV0YWxfYmluZGluZycsICctaW1hZScsICc8aW5maWxlLm1hZT4nLCAnLW9tYWUnLCAnPG91dGZpbGUubWFlPic=

> <r_lp_tautomer_probability>
0.999994

> <r_epik_Ionization_Penalty>
8.55589

> <r_epik_Ionization_Penalty_Charging>
8.55589

> <r_epik_Ionization_Penalty_Neutral>
3.8092e-06

> <r_epik_State_Penalty>
8.15703

> <r_epik_Charging_Adjusted_Penalty>
16.7129

> <i_epik_Tot_Q>
1

> <i_epik_Tot_abs_Q>
3

> <r_epik_Metal_State_Penalty>
4.13781

> <b_epik_Metal_Only>
1

> <s_lp_Force_Field>
OPLS_2005

> <r_lp_Energy>
57.5276

> <b_lp_Chiralities_Consistent>
1

> <s_lp_Variant>
AV-unprocessed.smi:1645-19

> <Gold.Version>
5.8.1

> <Gold.Id.Protein>
6NUR|6NUR_protein|mol2

> <Gold.PLP.Fitness>
47.1120

> <Gold.PLP.PLP>
-42.3343

> <Gold.PLP.part.hbond>
-2.0000

> <Gold.PLP.part.metal>
0.0000

> <Gold.PLP.part.buried>
-5.4777

> <Gold.PLP.part.nonpolar>
-38.0786

> <Gold.PLP.part.repulsive>
2.9778

> <Gold.PLP.ligand.clash>
0.0000

> <Gold.PLP.ligand.torsion>
0.9026

> <Gold.PLP.Chemscore.Hbond>
2.0000

> <Gold.PLP.Chemscore.CHOScore>
0.0000

> <Gold.PLP.Chemscore.Metal>
0.0000

> <Gold.Chemscore.Hbonds>
donor molecule, donor type, donor heavy atom, donor atom, acceptor molecule, acceptor atom, score
      L1  H     3    26       P1  7948  0.84
      L1  H    20    54       P1 10747  1.00

> <Gold.PLP.Chemscore.Internal.Correction>
0.5829

> <Gold.Rescore>
     Score         DG    S(hbond)    S(metal)    S(lipo)     H(rot)  DE(clash)    DE(int)     intcor
     18.46     -21.83       1.89        0.00     111.46       1.17       1.20       2.17       ----

> <Gold.Chemscore.Fitness>
18.4570

> <Gold.Chemscore.DG>
-21.8314

> <Gold.Chemscore.ZeroCoef>
-5.4800

> <Gold.Chemscore.Hbond>
1.8903

> <Gold.Chemscore.Metal>
0.0000

> <Gold.Chemscore.Lipo>
111.4611

> <Gold.Chemscore.Internal_Hbond>
0.0000

> <Gold.Chemscore.DEClash>
1.2015

> <Gold.Chemscore.DEInternal>
2.1729

> <Gold.Chemscore.Rot>
1.1731

> <Gold.Chemscore.Internal.Correction>
   9.000000E+99

> <Gold.Chemscore.Hbonds>
donor molecule, donor type, donor heavy atom, donor atom, acceptor molecule, acceptor atom, score
      L1  H     3    26       P1  7948  0.79
      L1  H    20    54       P1 10747  0.47

> <Gold.Chemscore.Hbond.Weighted>
-6.3136

> <Gold.Chemscore.Metal.Weighted>
-0.0000

> <Gold.Chemscore.Lipo.Weighted>
-13.0410

> <Gold.Chemscore.Internal_Hbond.Weighted>
0.0000

> <Gold.Chemscore.DEClash.Weighted>
1.2015

> <Gold.Chemscore.DEInternal.Weighted>
2.1729

> <Gold.Chemscore.Rot.Weighted>
3.0032

> <Gold.Chemscore.Internal.Correction.Weighted>
   9.000000E+99

> <Gold.Protein.RotatedTorsions>
[ 6907 6896 6895 6894 ] final   79.53 input  -60.11 | X-H torsion
[ 7974 7965 7964 7962 ] final  -65.02 input  175.53 | X-H torsion
[ 8008 7997 7996 7995 ] final  -27.28 input   59.86 | X-H torsion
[ 10167 10162 10161 10158 ] final  165.58 input  -65.29 | X-H torsion
[ 10718 10713 10712 10709 ] final  168.57 input   66.30 | X-H torsion
[ 10763 10752 10751 10750 ] final -152.08 input  -60.55 | X-H torsion
[ 11005 11000 10999 10996 ] final  162.76 input  -57.11 | X-H torsion

> <Gold.Protein.ActiveResidues>
 VAL166  LYS551  ARG553  GLY616  TRP617  ASP618  TYR619  PRO620  LYS621  CYS622 
 ASP623  PHE694  ASN695  SER759  ASP760  ASP761  ALA762  ILE779  LEU786  VAL792 
 PHE793  MET794  SER795  GLU796  ALA797  LYS798  CYS799  TRP800  GLU811  SER814 

> <Gold.Protein.RotatedAtoms>
  152.5202  134.3498  159.9246 H   0  0  0  0  0  0  0  0  0  0  0  0  # atno 6907 bound_to 6896
  151.3448  133.3942  159.2682 H   0  0  0  0  0  0  0  0  0  0  0  0  # atno 6908 bound_to 6896
  150.9774  134.9154  159.7882 H   0  0  0  0  0  0  0  0  0  0  0  0  # atno 6909 bound_to 6896
  145.7594  140.8869  143.0438 H   0  0  0  0  0  0  0  0  0  0  0  0  # atno 7974 bound_to 7965
  154.4384  140.1876  156.0908 H   0  0  0  0  0  0  0  0  0  0  0  0  # atno 8008 bound_to 7997
  156.0367  140.3324  155.7173 H   0  0  0  0  0  0  0  0  0  0  0  0  # atno 8009 bound_to 7997
  155.5760  140.0617  157.2786 H   0  0  0  0  0  0  0  0  0  0  0  0  # atno 8010 bound_to 7997
  139.4908  144.4117  151.9291 H   0  0  0  0  0  0  0  0  0  0  0  0  # atno 10167 bound_to 10162
  157.0352  131.0271  151.2732 H   0  0  0  0  0  0  0  0  0  0  0  0  # atno 10718 bound_to 10713
  154.8017  135.3244  154.7534 H   0  0  0  0  0  0  0  0  0  0  0  0  # atno 10763 bound_to 10752
  153.8200  135.6888  153.4833 H   0  0  0  0  0  0  0  0  0  0  0  0  # atno 10764 bound_to 10752
  153.1737  135.4613  154.9881 H   0  0  0  0  0  0  0  0  0  0  0  0  # atno 10765 bound_to 10752
  140.2290  134.8138  157.3298 H   0  0  0  0  0  0  0  0  0  0  0  0  # atno 11005 bound_to 11000
  144.6833  139.9702  143.7482 LP  0  0  0  0  0  0  0  0  0  0  0  0  # atno 17320 bound_to 7965
  146.0279  139.3308  143.0773 LP  0  0  0  0  0  0  0  0  0  0  0  0  # atno 17321 bound_to 7965
  140.3559  144.3033  150.5941 LP  0  0  0  0  0  0  0  0  0  0  0  0  # atno 17342 bound_to 10162
  140.5445  143.2217  151.8030 LP  0  0  0  0  0  0  0  0  0  0  0  0  # atno 17343 bound_to 10162
  157.5147  130.7960  149.7743 LP  0  0  0  0  0  0  0  0  0  0  0  0  # atno 17370 bound_to 10713
  156.0056  130.3857  150.2443 LP  0  0  0  0  0  0  0  0  0  0  0  0  # atno 17371 bound_to 10713
  140.1770  134.4537  155.7795 LP  0  0  0  0  0  0  0  0  0  0  0  0  # atno 17394 bound_to 11000
  141.2219  133.6967  156.7804 LP  0  0  0  0  0  0  0  0  0  0  0  0  # atno 17395 bound_to 11000

$$$$
