AV-unprocessed.smi:287|AV-procd|sdf|2193|dock5
  -GOLD-   2262021593D 1   1.00000     0.00000
 Structure written by MMmdl.
 55 58  0  0  0  0  0  0  0  0  1 V2000
  146.5861  123.2228  148.5405 C   0  0  0  0  0  0  0  0  0  0  0  0
  147.6332  123.7506  149.4600 C   0  0  0  0  0  0  0  0  0  0  0  0
  147.6883  123.9600  150.8072 C   0  0  0  0  0  0  0  0  0  0  0  0
  148.9750  124.5023  151.1022 C   0  0  0  0  0  0  0  0  0  0  0  0
  149.4891  124.8922  152.4816 C   0  0  1  0  0  0  0  0  0  0  0  0
  149.4085  123.6823  153.4270 C   0  0  0  0  0  0  0  0  0  0  0  0
  150.8515  125.2722  152.4720 O   0  0  0  0  0  0  0  0  0  0  0  0
  148.7208  126.0901  153.0855 C   0  0  0  0  0  0  0  0  0  0  0  0
  149.4366  127.3519  152.9466 N   0  0  0  0  0  0  0  0  0  0  0  0
  148.7777  128.5285  152.9804 C   0  0  0  0  0  0  0  0  0  0  0  0
  149.3184  129.4765  153.7829 N   0  0  0  0  0  0  0  0  0  0  0  0
  148.7482  130.6808  153.8803 C   0  0  0  0  0  0  0  0  0  0  0  0
  147.6513  131.1359  153.2721 N   0  0  0  0  0  0  0  0  0  0  0  0
  147.0974  130.1833  152.4682 C   0  0  0  0  0  0  0  0  0  0  0  0
  147.5906  128.8634  152.2631 C   0  0  0  0  0  0  0  0  0  0  0  0
  146.7532  128.1976  151.3727 N   0  0  0  0  0  0  0  0  0  0  0  0
  145.8326  129.0736  151.0721 C   0  0  0  0  0  0  0  0  0  0  0  0
  145.9688  130.2969  151.6890 N   0  0  0  0  0  0  0  0  0  0  0  0
  145.1163  131.5170  151.5649 C   0  0  2  0  0  0  0  0  0  0  0  0
  144.2491  131.3544  150.4954 O   0  0  0  0  0  0  0  0  0  0  0  0
  143.7703  132.6433  150.1395 C   0  0  2  0  0  0  0  0  0  0  0  0
  143.2798  132.6234  148.6841 C   0  0  0  0  0  0  0  0  0  0  0  0
  143.1849  133.9393  148.1812 O   0  0  0  0  0  0  0  0  0  0  0  0
  144.9552  133.5965  150.4029 C   0  0  1  0  0  0  0  0  0  0  0  0
  144.5026  134.7257  151.1239 O   0  0  0  0  0  0  0  0  0  0  0  0
  145.9283  132.7826  151.2578 C   0  0  2  0  0  0  0  0  0  0  0  0
  147.1243  132.5177  150.5461 O   0  0  0  0  0  0  0  0  0  0  0  0
  149.6157  124.5642  149.8879 C   0  0  0  0  0  0  0  0  0  0  0  0
  150.9749  125.0045  149.4538 C   0  0  0  0  0  0  0  0  0  0  0  0
  148.8077  124.1149  148.8872 O   0  0  0  0  0  0  0  0  0  0  0  0
  144.5536  131.5799  152.4981 H   0  0  0  0  0  0  0  0  0  0  0  0
  142.9382  132.8639  150.8121 H   0  0  0  0  0  0  0  0  0  0  0  0
  145.4228  133.9282  149.4743 H   0  0  0  0  0  0  0  0  0  0  0  0
  146.1899  133.2720  152.1973 H   0  0  0  0  0  0  0  0  0  0  0  0
  145.6256  123.1427  149.0499 H   0  0  0  0  0  0  0  0  0  0  0  0
  146.8580  122.2333  148.1726 H   0  0  0  0  0  0  0  0  0  0  0  0
  146.4579  123.8809  147.6808 H   0  0  0  0  0  0  0  0  0  0  0  0
  146.8910  123.7532  151.5056 H   0  0  0  0  0  0  0  0  0  0  0  0
  148.3811  123.3309  153.5317 H   0  0  0  0  0  0  0  0  0  0  0  0
  149.7726  123.9287  154.4253 H   0  0  0  0  0  0  0  0  0  0  0  0
  150.0038  122.8475  153.0546 H   0  0  0  0  0  0  0  0  0  0  0  0
  150.9345  126.0748  151.9801 H   0  0  0  0  0  0  0  0  0  0  0  0
  147.7741  126.1969  152.5541 H   0  0  0  0  0  0  0  0  0  0  0  0
  148.4776  125.9042  154.1323 H   0  0  0  0  0  0  0  0  0  0  0  0
  150.4160  127.2733  152.7134 H   0  0  0  0  0  0  0  0  0  0  0  0
  149.2429  131.3798  154.5387 H   0  0  0  0  0  0  0  0  0  0  0  0
  145.0303  128.8506  150.3836 H   0  0  0  0  0  0  0  0  0  0  0  0
  143.9445  132.0326  148.0530 H   0  0  0  0  0  0  0  0  0  0  0  0
  142.2916  132.1663  148.6281 H   0  0  0  0  0  0  0  0  0  0  0  0
  143.9673  134.1296  147.6865 H   0  0  0  0  0  0  0  0  0  0  0  0
  143.5693  134.8071  150.9980 H   0  0  0  0  0  0  0  0  0  0  0  0
  147.1949  131.5832  150.4220 H   0  0  0  0  0  0  0  0  0  0  0  0
  151.7475  124.4784  150.0143 H   0  0  0  0  0  0  0  0  0  0  0  0
  151.1050  126.0742  149.6178 H   0  0  0  0  0  0  0  0  0  0  0  0
  151.1359  124.8055  148.3941 H   0  0  0  0  0  0  0  0  0  0  0  0
  1  2  1  0  0  0  0
  1 35  1  0  0  0  0
  1 36  1  0  0  0  0
  1 37  1  0  0  0  0
  2 30  1  0  0  0  0
  2  3  2  0  0  0  0
  3  4  1  0  0  0  0
  3 38  1  0  0  0  0
  4  5  1  0  0  0  0
  4 28  2  0  0  0  0
  5  6  1  0  0  0  0
  5  7  1  0  0  0  0
  5  8  1  0  0  0  0
  6 39  1  0  0  0  0
  6 40  1  0  0  0  0
  6 41  1  0  0  0  0
  7 42  1  0  0  0  0
  8  9  1  0  0  0  0
  8 43  1  0  0  0  0
  8 44  1  0  0  0  0
  9 10  1  0  0  0  0
  9 45  1  0  0  0  0
 10 15  1  0  0  0  0
 10 11  2  0  0  0  0
 11 12  1  0  0  0  0
 12 13  2  0  0  0  0
 12 46  1  0  0  0  0
 13 14  1  0  0  0  0
 14 18  1  0  0  0  0
 14 15  2  0  0  0  0
 15 16  1  0  0  0  0
 16 17  2  0  0  0  0
 17 18  1  0  0  0  0
 17 47  1  0  0  0  0
 18 19  1  0  0  0  0
 19 31  1  0  0  0  0
 19 26  1  0  0  0  0
 19 20  1  0  0  0  0
 20 21  1  0  0  0  0
 21 32  1  0  0  0  0
 21 22  1  0  0  0  0
 21 24  1  0  0  0  0
 22 23  1  0  0  0  0
 22 48  1  0  0  0  0
 22 49  1  0  0  0  0
 23 50  1  0  0  0  0
 24 33  1  0  0  0  0
 24 25  1  0  0  0  0
 24 26  1  0  0  0  0
 25 51  1  0  0  0  0
 26 34  1  0  0  0  0
 26 27  1  0  0  0  0
 27 52  1  0  0  0  0
 28 29  1  0  0  0  0
 28 30  1  0  0  0  0
 29 53  1  0  0  0  0
 29 54  1  0  0  0  0
 29 55  1  0  0  0  0
M  END
> <s_m_source_file>
AV-unprocessed.smi

> <i_m_source_file_index>
287

> <i_lp_mmshare_version>
43012

> <i_f3d_flags>
0

> <s_epik_input>
W0NIM11jMVtjSF1jKGMobzEpW0NIM10pW0NAQF0oW0NIM10pKFtPSF0pW0NIMl1bTkhdYyhuW2NIXW4yKWMoYzIzKW5bY0hdbjNbQ0BASF00T1tDQEhdKFtDSDJdW09IXSlbQ0BASF0oW09IXSlbQ0BIXTRbT0hd

> <s_epik_cmdline>
J2VwaWtfcHl0aG9uJywgJy1waCcsICc3LjAnLCAnLXRuJywgJzgnLCAnLW1hJywgJzIwMCcsICctbWV0YWxfYmluZGluZycsICctaW1hZScsICc8aW5maWxlLm1hZT4nLCAnLW9tYWUnLCAnPG91dGZpbGUubWFlPic=

> <r_lp_tautomer_probability>
1

> <r_epik_Ionization_Penalty>
0.000992612

> <r_epik_Ionization_Penalty_Charging>
0

> <r_epik_Ionization_Penalty_Neutral>
0.000992612

> <r_epik_State_Penalty>
-0

> <r_epik_Charging_Adjusted_Penalty>
0

> <i_epik_Tot_Q>
0

> <i_epik_Tot_abs_Q>
0

> <r_epik_Metal_State_Penalty>
-0

> <b_epik_Metal_Only>
0

> <s_epik_Chemistry_Notes>
This compound contains an acetal/aminal-like group ( X-CH(R)-Y where X, Y are N, S, or O) that may be acid/base labile, releasing an aldehyde.

> <s_lp_Force_Field>
OPLS_2005

> <r_lp_Energy>
41.001

> <b_lp_Chiralities_Consistent>
1

> <s_lp_Variant>
AV-unprocessed.smi:287-17

> <Gold.Version>
5.8.1

> <Gold.Id.Protein>
6NUR|6NUR_protein|mol2

> <Gold.PLP.Fitness>
60.3664

> <Gold.PLP.PLP>
-50.1074

> <Gold.PLP.part.hbond>
-7.5963

> <Gold.PLP.part.metal>
0.0000

> <Gold.PLP.part.buried>
-7.2454

> <Gold.PLP.part.nonpolar>
-36.3255

> <Gold.PLP.part.repulsive>
0.5199

> <Gold.PLP.ligand.clash>
0.0000

> <Gold.PLP.ligand.torsion>
1.8275

> <Gold.PLP.Chemscore.Hbond>
4.6227

> <Gold.PLP.Chemscore.CHOScore>
0.0000

> <Gold.PLP.Chemscore.Metal>
0.0000

> <Gold.Chemscore.Hbonds>
donor molecule, donor type, donor heavy atom, donor atom, acceptor molecule, acceptor atom, score
      L1  H     7    42       P1 10737  0.90
      L1  H     9    45       P1 10737  1.00
      L1  H    23    50       P1  7921  0.47
      L1  H    27    52       P1 10747  0.34
      P1  H 10192 10197       L1    23  0.75
      P1  H 10785 10796       L1    20  0.09

> <Gold.PLP.Chemscore.Internal.Correction>
0.0458

> <Gold.Rescore>
     Score         DG    S(hbond)    S(metal)    S(lipo)     H(rot)  DE(clash)    DE(int)     intcor
      8.94     -16.17       4.33        0.00      82.95       5.27       3.75       3.48       ----

> <Gold.Chemscore.Fitness>
8.9385

> <Gold.Chemscore.DG>
-16.1721

> <Gold.Chemscore.ZeroCoef>
-5.4800

> <Gold.Chemscore.Hbond>
4.3326

> <Gold.Chemscore.Metal>
0.0000

> <Gold.Chemscore.Lipo>
82.9491

> <Gold.Chemscore.Internal_Hbond>
0.0000

> <Gold.Chemscore.DEClash>
3.7526

> <Gold.Chemscore.DEInternal>
3.4809

> <Gold.Chemscore.Rot>
5.2672

> <Gold.Chemscore.Internal.Correction>
   9.000000E+99

> <Gold.Chemscore.Hbonds>
donor molecule, donor type, donor heavy atom, donor atom, acceptor molecule, acceptor atom, score
      L1  H     7    42       P1 10737  0.87
      L1  H     9    45       P1 10737  0.97
      L1  H    23    50       P1  7921  0.46
      L1  H    27    52       P1 10747  0.34
      P1  H 10192 10197       L1    23  0.09
      P1  H 10785 10796       L1    20  0.02

> <Gold.Chemscore.Hbond.Weighted>
-14.4710

> <Gold.Chemscore.Metal.Weighted>
-0.0000

> <Gold.Chemscore.Lipo.Weighted>
-9.7050

> <Gold.Chemscore.Internal_Hbond.Weighted>
0.0000

> <Gold.Chemscore.DEClash.Weighted>
3.7526

> <Gold.Chemscore.DEInternal.Weighted>
3.4809

> <Gold.Chemscore.Rot.Weighted>
13.4839

> <Gold.Chemscore.Internal.Correction.Weighted>
   9.000000E+99

> <Gold.Protein.RotatedTorsions>
[ 6907 6896 6895 6894 ] final  -82.68 input  -60.11 | X-H torsion
[ 7974 7965 7964 7962 ] final  138.24 input  175.53 | X-H torsion
[ 8008 7997 7996 7995 ] final  -53.29 input   59.86 | X-H torsion
[ 10167 10162 10161 10158 ] final -144.21 input  -65.29 | X-H torsion
[ 10718 10713 10712 10709 ] final   58.93 input   66.30 | X-H torsion
[ 10763 10752 10751 10750 ] final   47.91 input  -60.55 | X-H torsion
[ 11005 11000 10999 10996 ] final -127.21 input  -57.11 | X-H torsion

> <Gold.Protein.ActiveResidues>
 VAL166  LYS551  ARG553  GLY616  TRP617  ASP618  TYR619  PRO620  LYS621  CYS622 
 ASP623  PHE694  ASN695  SER759  ASP760  ASP761  ALA762  ILE779  LEU786  VAL792 
 PHE793  MET794  SER795  GLU796  ALA797  LYS798  CYS799  TRP800  GLU811  SER814 

> <Gold.Protein.RotatedAtoms>
  150.6894  134.3628  159.4957 H   0  0  0  0  0  0  0  0  0  0  0  0  # atno 6907 bound_to 6896
  152.1454  134.9027  160.0560 H   0  0  0  0  0  0  0  0  0  0  0  0  # atno 6908 bound_to 6896
  152.0145  133.3839  159.4270 H   0  0  0  0  0  0  0  0  0  0  0  0  # atno 6909 bound_to 6896
  144.9391  139.4953  143.5581 H   0  0  0  0  0  0  0  0  0  0  0  0  # atno 7974 bound_to 7965
  154.4129  140.1203  156.5130 H   0  0  0  0  0  0  0  0  0  0  0  0  # atno 8008 bound_to 7997
  155.6780  140.3496  155.4824 H   0  0  0  0  0  0  0  0  0  0  0  0  # atno 8009 bound_to 7997
  155.9576  140.1117  157.0913 H   0  0  0  0  0  0  0  0  0  0  0  0  # atno 8010 bound_to 7997
  139.7920  143.7953  152.2651 H   0  0  0  0  0  0  0  0  0  0  0  0  # atno 10167 bound_to 10162
  157.5636  130.8854  149.9150 H   0  0  0  0  0  0  0  0  0  0  0  0  # atno 10718 bound_to 10713
  152.9796  135.5961  154.3840 H   0  0  0  0  0  0  0  0  0  0  0  0  # atno 10763 bound_to 10752
  154.3502  135.2767  155.2378 H   0  0  0  0  0  0  0  0  0  0  0  0  # atno 10764 bound_to 10752
  154.4421  135.6010  153.6191 H   0  0  0  0  0  0  0  0  0  0  0  0  # atno 10765 bound_to 10752
  140.9618  134.0926  157.3960 H   0  0  0  0  0  0  0  0  0  0  0  0  # atno 11005 bound_to 11000
  146.3278  139.8397  142.8893 LP  0  0  0  0  0  0  0  0  0  0  0  0  # atno 17320 bound_to 7965
  145.3020  141.0197  143.3603 LP  0  0  0  0  0  0  0  0  0  0  0  0  # atno 17321 bound_to 7965
  139.8047  144.7360  150.9777 LP  0  0  0  0  0  0  0  0  0  0  0  0  # atno 17342 bound_to 10162
  140.7820  143.4310  151.0695 LP  0  0  0  0  0  0  0  0  0  0  0  0  # atno 17343 bound_to 10162
  156.0686  130.3688  150.0825 LP  0  0  0  0  0  0  0  0  0  0  0  0  # atno 17370 bound_to 10713
  156.8986  130.9612  151.3579 LP  0  0  0  0  0  0  0  0  0  0  0  0  # atno 17371 bound_to 10713
  139.8881  135.0095  156.6598 LP  0  0  0  0  0  0  0  0  0  0  0  0  # atno 17394 bound_to 11000
  140.7456  133.8940  155.8309 LP  0  0  0  0  0  0  0  0  0  0  0  0  # atno 17395 bound_to 11000

$$$$
