AV-unprocessed.smi:2365|AV-procd|sdf|9420|dock2
  -GOLD-   2272013 53D 1   1.00000     0.00000
 Structure written by MMmdl.
 29 30  0  0  0  0  0  0  0  0  1 V2000
  152.6091  137.6826  154.4079 C   0  0  0  0  0  0  0  0  0  0  0  0
  151.1478  138.1297  154.5155 C   0  0  1  0  0  0  0  0  0  0  0  0
  150.4892  137.7947  155.8489 C   0  0  0  0  0  0  0  0  0  0  0  0
  149.3155  138.7532  155.8615 C   0  0  0  0  0  0  0  0  0  0  0  0
  149.8313  139.9660  155.0654 C   0  0  1  0  0  0  0  0  0  0  0  0
  150.1294  141.1986  155.9274 C   0  0  0  0  0  0  0  0  0  0  0  0
  149.6005  142.2774  155.6591 O   0  0  0  0  0  0  0  0  0  0  0  0
  150.9849  141.0009  156.9468 N   0  0  0  0  0  0  0  0  0  0  0  0
  151.4501  141.9401  157.9090 C   0  0  0  0  0  0  0  0  0  0  0  0
  151.2977  143.3417  157.7665 C   0  0  0  0  0  0  0  0  0  0  0  0
  151.7183  144.2350  158.6868 N   0  0  0  0  0  0  0  0  0  0  0  0
  152.3089  143.7633  159.8039 C   0  0  0  0  0  0  0  0  0  0  0  0
  152.4975  142.3913  160.0590 C   0  0  0  0  0  0  0  0  0  0  0  0
  153.2544  141.8820  161.5264 Cl  0  0  0  0  0  0  0  0  0  0  0  0
  152.0549  141.4603  159.0943 C   0  0  0  0  0  0  0  0  0  0  0  0
  152.2564  139.7609  159.3590 Cl  0  0  0  0  0  0  0  0  0  0  0  0
  151.0526  139.5454  154.4592 O   0  0  0  0  0  0  0  0  0  0  0  0
  152.6925  136.5981  154.4798 H   0  0  0  0  0  0  0  0  0  0  0  0
  153.2159  138.1192  155.2017 H   0  0  0  0  0  0  0  0  0  0  0  0
  153.0397  137.9881  153.4541 H   0  0  0  0  0  0  0  0  0  0  0  0
  150.5631  137.7081  153.6959 H   0  0  0  0  0  0  0  0  0  0  0  0
  150.1882  136.7498  155.9270 H   0  0  0  0  0  0  0  0  0  0  0  0
  151.1633  138.0211  156.6764 H   0  0  0  0  0  0  0  0  0  0  0  0
  148.4665  138.3079  155.3414 H   0  0  0  0  0  0  0  0  0  0  0  0
  148.9880  138.9889  156.8750 H   0  0  0  0  0  0  0  0  0  0  0  0
  149.1142  140.2199  154.2828 H   0  0  0  0  0  0  0  0  0  0  0  0
  151.4075  140.0850  156.9954 H   0  0  0  0  0  0  0  0  0  0  0  0
  150.8085  143.7772  156.9092 H   0  0  0  0  0  0  0  0  0  0  0  0
  152.6352  144.5036  160.5192 H   0  0  0  0  0  0  0  0  0  0  0  0
  1  2  1  0  0  0  0
  1 18  1  0  0  0  0
  1 19  1  0  0  0  0
  1 20  1  0  0  0  0
  2 17  1  0  0  0  0
  2  3  1  0  0  0  0
  2 21  1  0  0  0  0
  3  4  1  0  0  0  0
  3 22  1  0  0  0  0
  3 23  1  0  0  0  0
  4  5  1  0  0  0  0
  4 24  1  0  0  0  0
  4 25  1  0  0  0  0
  5  6  1  0  0  0  0
  5 17  1  0  0  0  0
  5 26  1  0  0  0  0
  6  7  2  0  0  0  0
  6  8  1  0  0  0  0
  8  9  1  0  0  0  0
  8 27  1  0  0  0  0
  9 15  1  0  0  0  0
  9 10  2  0  0  0  0
 10 11  1  0  0  0  0
 10 28  1  0  0  0  0
 11 12  2  0  0  0  0
 12 13  1  0  0  0  0
 12 29  1  0  0  0  0
 13 14  1  0  0  0  0
 13 15  2  0  0  0  0
 15 16  1  0  0  0  0
M  END
> <s_m_source_file>
AV-unprocessed.smi

> <i_m_source_file_index>
2365

> <i_lp_mmshare_version>
43012

> <i_f3d_flags>
0

> <s_epik_input>
W0NIM11bQ0BASF0xW0NIMl1bQ0gyXVtDQEhdKE8xKUMoPU8pW05IXWMyW2NIXW5bY0hdYyhDbCljMkNs

> <s_epik_cmdline>
J2VwaWtfcHl0aG9uJywgJy1waCcsICc3LjAnLCAnLXRuJywgJzgnLCAnLW1hJywgJzIwMCcsICctbWV0YWxfYmluZGluZycsICctaW1hZScsICc8aW5maWxlLm1hZT4nLCAnLW9tYWUnLCAnPG91dGZpbGUubWFlPic=

> <r_lp_tautomer_probability>
1

> <r_epik_Ionization_Penalty>
7.32461e-06

> <r_epik_Ionization_Penalty_Charging>
0

> <r_epik_Ionization_Penalty_Neutral>
7.32461e-06

> <r_epik_State_Penalty>
-0

> <r_epik_Charging_Adjusted_Penalty>
0

> <i_epik_Tot_Q>
0

> <i_epik_Tot_abs_Q>
0

> <r_epik_Metal_State_Penalty>
-0

> <b_epik_Metal_Only>
0

> <s_lp_Force_Field>
OPLS_2005

> <r_lp_Energy>
23.8833

> <b_lp_Chiralities_Consistent>
1

> <s_lp_Variant>
AV-unprocessed.smi:2365-2

> <Gold.Version>
5.8.1

> <Gold.Id.Protein>
6NUR|6NUR_protein|mol2

> <Gold.PLP.Fitness>
34.9680

> <Gold.PLP.PLP>
-29.1329

> <Gold.PLP.part.hbond>
-1.0000

> <Gold.PLP.part.metal>
0.0000

> <Gold.PLP.part.buried>
-3.6391

> <Gold.PLP.part.nonpolar>
-27.6691

> <Gold.PLP.part.repulsive>
3.8225

> <Gold.PLP.ligand.clash>
0.0000

> <Gold.PLP.ligand.torsion>
0.0863

> <Gold.PLP.Chemscore.Hbond>
1.0000

> <Gold.PLP.Chemscore.CHOScore>
1.0000

> <Gold.PLP.Chemscore.Metal>
0.0000

> <Gold.Chemscore.Hbonds>
donor molecule, donor type, donor heavy atom, donor atom, acceptor molecule, acceptor atom, score
      P1  H  7989  7998       L1    17  1.00
      L1  C    10    28       P1  8028  1.00

> <Gold.PLP.Chemscore.Internal.Correction>
0.0077

> <Gold.Rescore>
     Score         DG    S(hbond)    S(metal)    S(lipo)     H(rot)  DE(clash)    DE(int)     intcor
     14.85     -17.80       0.98        0.00      99.26       1.00       1.46       1.49       ----

> <Gold.Chemscore.Fitness>
14.8466

> <Gold.Chemscore.DG>
-17.7975

> <Gold.Chemscore.ZeroCoef>
-5.4800

> <Gold.Chemscore.Hbond>
0.9774

> <Gold.Chemscore.Metal>
0.0000

> <Gold.Chemscore.Lipo>
99.2573

> <Gold.Chemscore.Internal_Hbond>
0.0000

> <Gold.Chemscore.DEClash>
1.4630

> <Gold.Chemscore.DEInternal>
1.4879

> <Gold.Chemscore.Rot>
1.0000

> <Gold.Chemscore.Internal.Correction>
   9.000000E+99

> <Gold.Chemscore.Hbonds>
donor molecule, donor type, donor heavy atom, donor atom, acceptor molecule, acceptor atom, score
      P1  H  7989  7998       L1    17  0.65

> <Gold.Chemscore.Hbond.Weighted>
-3.2644

> <Gold.Chemscore.Metal.Weighted>
-0.0000

> <Gold.Chemscore.Lipo.Weighted>
-11.6131

> <Gold.Chemscore.Internal_Hbond.Weighted>
0.0000

> <Gold.Chemscore.DEClash.Weighted>
1.4630

> <Gold.Chemscore.DEInternal.Weighted>
1.4879

> <Gold.Chemscore.Rot.Weighted>
2.5600

> <Gold.Chemscore.Internal.Correction.Weighted>
   9.000000E+99

> <Gold.Protein.RotatedTorsions>
[ 6907 6896 6895 6894 ] final   29.78 input  -60.11 | X-H torsion
[ 7974 7965 7964 7962 ] final  159.80 input  175.53 | X-H torsion
[ 8008 7997 7996 7995 ] final    0.94 input   59.86 | X-H torsion
[ 10167 10162 10161 10158 ] final   33.47 input  -65.29 | X-H torsion
[ 10718 10713 10712 10709 ] final -176.99 input   66.30 | X-H torsion
[ 10763 10752 10751 10750 ] final  -69.53 input  -60.55 | X-H torsion
[ 11005 11000 10999 10996 ] final   71.33 input  -57.11 | X-H torsion

> <Gold.Protein.ActiveResidues>
 VAL166  LYS551  ARG553  GLY616  TRP617  ASP618  TYR619  PRO620  LYS621  CYS622 
 ASP623  PHE694  ASN695  SER759  ASP760  ASP761  ALA762  ILE779  LEU786  VAL792 
 PHE793  MET794  SER795  GLU796  ALA797  LYS798  CYS799  TRP800  GLU811  SER814 

> <Gold.Protein.RotatedAtoms>
  152.0364  134.9737  160.0573 H   0  0  0  0  0  0  0  0  0  0  0  0  # atno 6907 bound_to 6896
  152.1193  133.4339  159.4676 H   0  0  0  0  0  0  0  0  0  0  0  0  # atno 6908 bound_to 6896
  150.6848  134.2473  159.4540 H   0  0  0  0  0  0  0  0  0  0  0  0  # atno 6909 bound_to 6896
  144.7770  139.7668  143.6274 H   0  0  0  0  0  0  0  0  0  0  0  0  # atno 7974 bound_to 7965
  154.6740  140.2618  155.6978 H   0  0  0  0  0  0  0  0  0  0  0  0  # atno 8008 bound_to 7997
  156.2670  140.2823  156.1181 H   0  0  0  0  0  0  0  0  0  0  0  0  # atno 8009 bound_to 7997
  155.1128  140.0376  157.2719 H   0  0  0  0  0  0  0  0  0  0  0  0  # atno 8010 bound_to 7997
  140.4405  144.1195  150.6173 H   0  0  0  0  0  0  0  0  0  0  0  0  # atno 10167 bound_to 10162
  156.8229  130.9626  151.3111 H   0  0  0  0  0  0  0  0  0  0  0  0  # atno 10718 bound_to 10713
  154.4047  135.6023  153.5917 H   0  0  0  0  0  0  0  0  0  0  0  0  # atno 10763 bound_to 10752
  152.9789  135.5915  154.4142 H   0  0  0  0  0  0  0  0  0  0  0  0  # atno 10764 bound_to 10752
  154.3946  135.2842  155.2112 H   0  0  0  0  0  0  0  0  0  0  0  0  # atno 10765 bound_to 10752
  139.9549  134.7161  156.0776 H   0  0  0  0  0  0  0  0  0  0  0  0  # atno 11005 bound_to 11000
  146.1956  139.5221  142.9776 LP  0  0  0  0  0  0  0  0  0  0  0  0  # atno 17320 bound_to 7965
  145.6156  141.0332  143.1942 LP  0  0  0  0  0  0  0  0  0  0  0  0  # atno 17321 bound_to 7965
  140.4324  143.2562  151.9578 LP  0  0  0  0  0  0  0  0  0  0  0  0  # atno 17342 bound_to 10162
  139.4789  144.5731  151.8055 LP  0  0  0  0  0  0  0  0  0  0  0  0  # atno 17343 bound_to 10162
  157.6447  130.8835  149.9516 LP  0  0  0  0  0  0  0  0  0  0  0  0  # atno 17370 bound_to 10713
  156.0978  130.3658  150.0273 LP  0  0  0  0  0  0  0  0  0  0  0  0  # atno 17371 bound_to 10713
  141.1219  133.6610  156.3236 LP  0  0  0  0  0  0  0  0  0  0  0  0  # atno 17394 bound_to 11000
  140.5632  134.5913  157.5439 LP  0  0  0  0  0  0  0  0  0  0  0  0  # atno 17395 bound_to 11000

$$$$
