AV-unprocessed.smi:1453|AV-procd|sdf|5912|dock9
  -GOLD-   22720 5593D 1   1.00000     0.00000
 Structure written by MMmdl.
 43 44  0  0  0  0  0  0  0  0  1 V2000
  148.1694  134.9061  154.9530 C   0  0  0  0  0  0  0  0  0  0  0  0
  149.4772  134.8654  155.7601 C   0  0  1  0  0  0  0  0  0  0  0  0
  150.3643  136.0828  155.4658 C   0  0  0  0  0  0  0  0  0  0  0  0
  151.3846  136.2868  156.1241 O   0  0  0  0  0  0  0  0  0  0  0  0
  149.9593  136.8922  154.4740 N   0  0  0  0  0  0  0  0  0  0  0  0
  150.6585  138.0987  154.0433 C   0  0  0  0  0  0  0  0  0  0  0  0
  150.9162  139.1083  155.1533 C   0  0  0  0  0  0  0  0  0  0  0  0
  149.9376  140.0678  155.4774 C   0  0  0  0  0  0  0  0  0  0  0  0
  150.1926  140.9835  156.5160 C   0  0  0  0  0  0  0  0  0  0  0  0
  151.4226  140.9140  157.2124 C   0  0  0  0  0  0  0  0  0  0  0  0
  151.6985  141.8197  158.2601 N   0  0  0  0  0  0  0  0  0  0  0  0
  152.6951  141.3774  159.2325 C   0  0  0  0  0  0  0  0  0  0  0  0
  152.6833  142.2942  160.4677 C   0  0  0  0  0  0  0  0  0  0  0  0
  152.8665  143.6476  160.0660 O   0  0  0  0  0  0  0  0  0  0  0  0
  151.8195  144.0909  159.2093 C   0  0  0  0  0  0  0  0  0  0  0  0
  151.8026  143.2397  157.9284 C   0  0  0  0  0  0  0  0  0  0  0  0
  152.3634  139.9897  156.8965 N   0  0  0  0  0  0  0  0  0  0  0  0
  152.1135  139.1141  155.9005 C   0  0  0  0  0  0  0  0  0  0  0  0
  149.0982  134.7764  157.5733 S   0  0  0  0  0  0  0  0  0  0  0  0
  147.2709  135.0057  157.6282 C   0  0  0  0  0  0  0  0  0  0  0  0
  149.4019  133.4221  158.0604 O   0  0  0  0  0  0  0  0  0  0  0  0
  149.7256  135.9348  158.2274 O   0  0  0  0  0  0  0  0  0  0  0  0
  148.3648  134.9948  153.8837 H   0  0  0  0  0  0  0  0  0  0  0  0
  147.5408  135.7465  155.2500 H   0  0  0  0  0  0  0  0  0  0  0  0
  147.5916  133.9945  155.1055 H   0  0  0  0  0  0  0  0  0  0  0  0
  150.0174  133.9547  155.4992 H   0  0  0  0  0  0  0  0  0  0  0  0
  149.1085  136.6586  153.9831 H   0  0  0  0  0  0  0  0  0  0  0  0
  151.6010  137.8268  153.5645 H   0  0  0  0  0  0  0  0  0  0  0  0
  150.0538  138.5836  153.2768 H   0  0  0  0  0  0  0  0  0  0  0  0
  149.0036  140.1070  154.9363 H   0  0  0  0  0  0  0  0  0  0  0  0
  149.4520  141.7320  156.7547 H   0  0  0  0  0  0  0  0  0  0  0  0
  152.5203  140.3515  159.5528 H   0  0  0  0  0  0  0  0  0  0  0  0
  153.6789  141.3996  158.7619 H   0  0  0  0  0  0  0  0  0  0  0  0
  151.7477  142.1908  161.0197 H   0  0  0  0  0  0  0  0  0  0  0  0
  153.4867  142.0146  161.1493 H   0  0  0  0  0  0  0  0  0  0  0  0
  150.8609  144.0328  159.7276 H   0  0  0  0  0  0  0  0  0  0  0  0
  151.9837  145.1394  158.9609 H   0  0  0  0  0  0  0  0  0  0  0  0
  152.7140  143.4114  157.3544 H   0  0  0  0  0  0  0  0  0  0  0  0
  150.9611  143.5439  157.3049 H   0  0  0  0  0  0  0  0  0  0  0  0
  152.8962  138.3967  155.7030 H   0  0  0  0  0  0  0  0  0  0  0  0
  146.9471  135.0570  158.6675 H   0  0  0  0  0  0  0  0  0  0  0  0
  146.7757  134.1650  157.1433 H   0  0  0  0  0  0  0  0  0  0  0  0
  147.0024  135.9323  157.1218 H   0  0  0  0  0  0  0  0  0  0  0  0
  1  2  1  0  0  0  0
  1 23  1  0  0  0  0
  1 24  1  0  0  0  0
  1 25  1  0  0  0  0
  2  3  1  0  0  0  0
  2 19  1  0  0  0  0
  2 26  1  0  0  0  0
  3  4  2  0  0  0  0
  3  5  1  0  0  0  0
  5  6  1  0  0  0  0
  5 27  1  0  0  0  0
  6  7  1  0  0  0  0
  6 28  1  0  0  0  0
  6 29  1  0  0  0  0
  7 18  1  0  0  0  0
  7  8  2  0  0  0  0
  8  9  1  0  0  0  0
  8 30  1  0  0  0  0
  9 10  2  0  0  0  0
  9 31  1  0  0  0  0
 10 11  1  0  0  0  0
 10 17  1  0  0  0  0
 11 16  1  0  0  0  0
 11 12  1  0  0  0  0
 12 13  1  0  0  0  0
 12 32  1  0  0  0  0
 12 33  1  0  0  0  0
 13 14  1  0  0  0  0
 13 34  1  0  0  0  0
 13 35  1  0  0  0  0
 14 15  1  0  0  0  0
 15 16  1  0  0  0  0
 15 36  1  0  0  0  0
 15 37  1  0  0  0  0
 16 38  1  0  0  0  0
 16 39  1  0  0  0  0
 17 18  2  0  0  0  0
 18 40  1  0  0  0  0
 19 20  1  0  0  0  0
 19 21  2  0  0  0  0
 19 22  2  0  0  0  0
 20 41  1  0  0  0  0
 20 42  1  0  0  0  0
 20 43  1  0  0  0  0
M  END
> <s_m_source_file>
AV-unprocessed.smi

> <i_m_source_file_index>
1453

> <i_lp_mmshare_version>
43012

> <i_f3d_flags>
0

> <s_epik_input>
W0NIM11TKD1PKSg9TylbQ0BIXShbQ0gzXSlDKD1PKVtOSF1bQ0gyXWMxW2NIXVtjSF1jKG5bY0hdMSlOMltDSDJdW0NIMl1PW0NIMl1bQ0gyXTI=

> <s_epik_cmdline>
J2VwaWtfcHl0aG9uJywgJy1waCcsICc3LjAnLCAnLXRuJywgJzgnLCAnLW1hJywgJzIwMCcsICctbWV0YWxfYmluZGluZycsICctaW1hZScsICc8aW5maWxlLm1hZT4nLCAnLW9tYWUnLCAnPG91dGZpbGUubWFlPic=

> <r_lp_tautomer_probability>
1

> <r_epik_Ionization_Penalty>
0.00349781

> <r_epik_Ionization_Penalty_Charging>
0

> <r_epik_Ionization_Penalty_Neutral>
0.00349781

> <r_epik_State_Penalty>
0.00248024

> <r_epik_Charging_Adjusted_Penalty>
0.00248024

> <i_epik_Tot_Q>
0

> <i_epik_Tot_abs_Q>
0

> <r_epik_Metal_State_Penalty>
-0

> <b_epik_Metal_Only>
0

> <s_lp_Force_Field>
OPLS_2005

> <r_lp_Energy>
14.4852

> <b_lp_Chiralities_Consistent>
1

> <s_lp_Variant>
AV-unprocessed.smi:1453-2

> <Gold.Version>
5.8.1

> <Gold.Id.Protein>
6NUR|6NUR_protein|mol2

> <Gold.PLP.Fitness>
45.5019

> <Gold.PLP.PLP>
-36.9260

> <Gold.PLP.part.hbond>
-5.8591

> <Gold.PLP.part.metal>
0.0000

> <Gold.PLP.part.buried>
-2.1634

> <Gold.PLP.part.nonpolar>
-29.3056

> <Gold.PLP.part.repulsive>
0.1054

> <Gold.PLP.ligand.clash>
1.2196

> <Gold.PLP.ligand.torsion>
1.0200

> <Gold.PLP.Chemscore.Hbond>
3.7776

> <Gold.PLP.Chemscore.CHOScore>
0.0000

> <Gold.PLP.Chemscore.Metal>
0.0000

> <Gold.Chemscore.Hbonds>
donor molecule, donor type, donor heavy atom, donor atom, acceptor molecule, acceptor atom, score
      L1  H     5    27       P1  7948  0.34
      P1  H  6896  6908       L1    21  0.57
      P1  H  6896  6909       L1    22  0.30
      P1  H  7997  8010       L1    17  0.88
      P1  H 10752 10764       L1     4  0.55

> <Gold.PLP.Chemscore.Internal.Correction>
0.5027

> <Gold.Rescore>
     Score         DG    S(hbond)    S(metal)    S(lipo)     H(rot)  DE(clash)    DE(int)     intcor
     15.23     -19.36       2.59        0.00      90.09       2.08       0.91       3.22       ----

> <Gold.Chemscore.Fitness>
15.2314

> <Gold.Chemscore.DG>
-19.3598

> <Gold.Chemscore.ZeroCoef>
-5.4800

> <Gold.Chemscore.Hbond>
2.5912

> <Gold.Chemscore.Metal>
0.0000

> <Gold.Chemscore.Lipo>
90.0914

> <Gold.Chemscore.Internal_Hbond>
0.0000

> <Gold.Chemscore.DEClash>
0.9115

> <Gold.Chemscore.DEInternal>
3.2169

> <Gold.Chemscore.Rot>
2.0764

> <Gold.Chemscore.Internal.Correction>
   9.000000E+99

> <Gold.Chemscore.Hbonds>
donor molecule, donor type, donor heavy atom, donor atom, acceptor molecule, acceptor atom, score
      L1  H     5    27       P1  7948  0.33
      P1  H  6896  6908       L1    21  0.41
      P1  H  6896  6909       L1    22  0.13
      P1  H  7997  8010       L1    17  0.18
      P1  H 10752 10764       L1     4  0.22

> <Gold.Chemscore.Hbond.Weighted>
-8.6547

> <Gold.Chemscore.Metal.Weighted>
-0.0000

> <Gold.Chemscore.Lipo.Weighted>
-10.5407

> <Gold.Chemscore.Internal_Hbond.Weighted>
0.0000

> <Gold.Chemscore.DEClash.Weighted>
0.9115

> <Gold.Chemscore.DEInternal.Weighted>
3.2169

> <Gold.Chemscore.Rot.Weighted>
5.3155

> <Gold.Chemscore.Internal.Correction.Weighted>
   9.000000E+99

> <Gold.Protein.RotatedTorsions>
[ 6907 6896 6895 6894 ] final   89.36 input  -60.11 | X-H torsion
[ 7974 7965 7964 7962 ] final  -31.14 input  175.53 | X-H torsion
[ 8008 7997 7996 7995 ] final   52.62 input   59.86 | X-H torsion
[ 10167 10162 10161 10158 ] final   87.57 input  -65.29 | X-H torsion
[ 10718 10713 10712 10709 ] final   87.04 input   66.30 | X-H torsion
[ 10763 10752 10751 10750 ] final  -46.83 input  -60.55 | X-H torsion
[ 11005 11000 10999 10996 ] final   29.32 input  -57.11 | X-H torsion

> <Gold.Protein.ActiveResidues>
 VAL166  LYS551  ARG553  GLY616  TRP617  ASP618  TYR619  PRO620  LYS621  CYS622 
 ASP623  PHE694  ASN695  SER759  ASP760  ASP761  ALA762  ILE779  LEU786  VAL792 
 PHE793  MET794  SER795  GLU796  ALA797  LYS798  CYS799  TRP800  GLU811  SER814 

> <Gold.Protein.RotatedAtoms>
  152.5435  134.1978  159.8699 H   0  0  0  0  0  0  0  0  0  0  0  0  # atno 6907 bound_to 6896
  151.1969  133.4627  159.2603 H   0  0  0  0  0  0  0  0  0  0  0  0  # atno 6908 bound_to 6896
  151.1028  134.9994  159.8512 H   0  0  0  0  0  0  0  0  0  0  0  0  # atno 6909 bound_to 6896
  146.1090  140.5629  142.8786 H   0  0  0  0  0  0  0  0  0  0  0  0  # atno 7974 bound_to 7965
  155.4548  140.3459  155.4305 H   0  0  0  0  0  0  0  0  0  0  0  0  # atno 8008 bound_to 7997
  156.1198  140.1484  156.9251 H   0  0  0  0  0  0  0  0  0  0  0  0  # atno 8009 bound_to 7997
  154.4815  140.0868  156.7367 H   0  0  0  0  0  0  0  0  0  0  0  0  # atno 8010 bound_to 7997
  139.8761  144.6466  150.8895 H   0  0  0  0  0  0  0  0  0  0  0  0  # atno 10167 bound_to 10162
  157.6936  131.0240  150.3064 H   0  0  0  0  0  0  0  0  0  0  0  0  # atno 10718 bound_to 10713
  154.0514  135.6630  153.4801 H   0  0  0  0  0  0  0  0  0  0  0  0  # atno 10763 bound_to 10752
  153.0462  135.5113  154.7747 H   0  0  0  0  0  0  0  0  0  0  0  0  # atno 10764 bound_to 10752
  154.6755  135.3036  154.9651 H   0  0  0  0  0  0  0  0  0  0  0  0  # atno 10765 bound_to 10752
  140.3062  134.2700  155.7743 H   0  0  0  0  0  0  0  0  0  0  0  0  # atno 11005 bound_to 11000
  144.7495  140.5155  143.6812 LP  0  0  0  0  0  0  0  0  0  0  0  0  # atno 17320 bound_to 7965
  145.5702  139.1483  143.3292 LP  0  0  0  0  0  0  0  0  0  0  0  0  # atno 17321 bound_to 7965
  140.7752  143.3624  151.1803 LP  0  0  0  0  0  0  0  0  0  0  0  0  # atno 17342 bound_to 10162
  139.7239  143.9179  152.2995 LP  0  0  0  0  0  0  0  0  0  0  0  0  # atno 17343 bound_to 10162
  156.3572  130.3841  149.7281 LP  0  0  0  0  0  0  0  0  0  0  0  0  # atno 17370 bound_to 10713
  156.4739  130.8009  151.3026 LP  0  0  0  0  0  0  0  0  0  0  0  0  # atno 17371 bound_to 10713
  141.2118  133.7678  156.9840 LP  0  0  0  0  0  0  0  0  0  0  0  0  # atno 17394 bound_to 11000
  140.1065  134.9503  157.2001 LP  0  0  0  0  0  0  0  0  0  0  0  0  # atno 17395 bound_to 11000

$$$$
