AV-unprocessed.smi:1093|AV-procd|sdf|4742|dock3
  -GOLD-   22720 3273D 1   1.00000     0.00000
 Structure written by MMmdl.
 47 48  0  0  0  0  0  0  0  0  2 V2000
  143.7668  132.1407  149.9451 C   0  0  0  0  0  0  0  0  0  0  0  0
  144.3758  133.5502  149.9753 C   0  0  0  0  0  0  0  0  0  0  0  0
  143.6257  134.4783  150.8594 N   0  3  1  0  0  0  0  0  0  0  0  0
  143.0833  133.7886  152.0592 C   0  0  0  0  0  0  0  0  0  0  0  0
  142.1995  134.7310  152.8922 C   0  0  0  0  0  0  0  0  0  0  0  0
  142.9685  135.9949  153.2949 C   0  0  0  0  0  0  0  0  0  0  0  0
  143.5460  136.6805  152.0437 C   0  0  1  0  0  0  0  0  0  0  0  0
  144.3502  137.8422  152.4115 N   0  0  0  0  0  0  0  0  0  0  0  0
  145.5927  137.7937  152.9127 C   0  0  0  0  0  0  0  0  0  0  0  0
  146.1988  136.7431  153.1212 O   0  0  0  0  0  0  0  0  0  0  0  0
  146.0615  139.0270  153.1674 N   0  0  0  0  0  0  0  0  0  0  0  0
  147.3317  139.3980  153.6840 C   0  0  0  0  0  0  0  0  0  0  0  0
  147.6136  140.7716  153.8255 C   0  0  0  0  0  0  0  0  0  0  0  0
  148.8711  141.1681  154.3178 C   0  0  0  0  0  0  0  0  0  0  0  0
  149.8148  140.1726  154.6445 C   0  0  0  0  0  0  0  0  0  0  0  0
  151.0699  140.5556  155.1375 N   0  0  0  0  0  0  0  0  0  0  0  0
  150.9848  141.5752  156.1724 C   0  0  0  0  0  0  0  0  0  0  0  0
  151.9367  139.4237  155.4292 C   0  0  0  0  0  0  0  0  0  0  0  0
  149.5607  138.8509  154.4968 N   0  0  0  0  0  0  0  0  0  0  0  0
  148.3517  138.4770  154.0263 C   0  0  0  0  0  0  0  0  0  0  0  0
  144.4038  135.6901  151.2331 C   0  0  0  0  0  0  0  0  0  0  0  0
  144.3948  131.4658  149.3630 H   0  0  0  0  0  0  0  0  0  0  0  0
  142.7769  132.1294  149.4902 H   0  0  0  0  0  0  0  0  0  0  0  0
  143.6813  131.7262  150.9499 H   0  0  0  0  0  0  0  0  0  0  0  0
  145.4002  133.4588  150.3388 H   0  0  0  0  0  0  0  0  0  0  0  0
  144.4430  133.9636  148.9681 H   0  0  0  0  0  0  0  0  0  0  0  0
  142.4915  132.9252  151.7530 H   0  0  0  0  0  0  0  0  0  0  0  0
  143.9070  133.4096  152.6665 H   0  0  0  0  0  0  0  0  0  0  0  0
  141.3150  135.0082  152.3169 H   0  0  0  0  0  0  0  0  0  0  0  0
  141.8401  134.2147  153.7829 H   0  0  0  0  0  0  0  0  0  0  0  0
  142.3070  136.6739  153.8343 H   0  0  0  0  0  0  0  0  0  0  0  0
  143.7734  135.7306  153.9825 H   0  0  0  0  0  0  0  0  0  0  0  0
  142.7215  137.0110  151.4084 H   0  0  0  0  0  0  0  0  0  0  0  0
  143.9299  138.7503  152.2770 H   0  0  0  0  0  0  0  0  0  0  0  0
  145.4135  139.7880  153.0264 H   0  0  0  0  0  0  0  0  0  0  0  0
  146.8754  141.5159  153.5643 H   0  0  0  0  0  0  0  0  0  0  0  0
  149.1053  142.2155  154.4401 H   0  0  0  0  0  0  0  0  0  0  0  0
  150.3319  142.3916  155.8605 H   0  0  0  0  0  0  0  0  0  0  0  0
  151.9723  141.9916  156.3729 H   0  0  0  0  0  0  0  0  0  0  0  0
  150.5955  141.1567  157.1014 H   0  0  0  0  0  0  0  0  0  0  0  0
  151.9489  138.7191  154.5967 H   0  0  0  0  0  0  0  0  0  0  0  0
  151.6029  138.8964  156.3235 H   0  0  0  0  0  0  0  0  0  0  0  0
  152.9586  139.7652  155.5959 H   0  0  0  0  0  0  0  0  0  0  0  0
  148.2239  137.4125  153.9073 H   0  0  0  0  0  0  0  0  0  0  0  0
  145.2837  135.3928  151.8062 H   0  0  0  0  0  0  0  0  0  0  0  0
  144.7667  136.1921  150.3366 H   0  0  0  0  0  0  0  0  0  0  0  0
  142.8251  134.7930  150.3299 H   0  0  0  0  0  0  0  0  0  0  0  0
  1  2  1  0  0  0  0
  1 22  1  0  0  0  0
  1 23  1  0  0  0  0
  1 24  1  0  0  0  0
  2  3  1  0  0  0  0
  2 25  1  0  0  0  0
  2 26  1  0  0  0  0
  3 21  1  0  0  0  0
  3  4  1  0  0  0  0
  3 47  1  0  0  0  0
  4  5  1  0  0  0  0
  4 27  1  0  0  0  0
  4 28  1  0  0  0  0
  5  6  1  0  0  0  0
  5 29  1  0  0  0  0
  5 30  1  0  0  0  0
  6  7  1  0  0  0  0
  6 31  1  0  0  0  0
  6 32  1  0  0  0  0
  7  8  1  0  0  0  0
  7 21  1  0  0  0  0
  7 33  1  0  0  0  0
  8  9  1  0  0  0  0
  8 34  1  0  0  0  0
  9 10  2  0  0  0  0
  9 11  1  0  0  0  0
 11 12  1  0  0  0  0
 11 35  1  0  0  0  0
 12 20  1  0  0  0  0
 12 13  2  0  0  0  0
 13 14  1  0  0  0  0
 13 36  1  0  0  0  0
 14 15  2  0  0  0  0
 14 37  1  0  0  0  0
 15 16  1  0  0  0  0
 15 19  1  0  0  0  0
 16 17  1  0  0  0  0
 16 18  1  0  0  0  0
 17 38  1  0  0  0  0
 17 39  1  0  0  0  0
 17 40  1  0  0  0  0
 18 41  1  0  0  0  0
 18 42  1  0  0  0  0
 18 43  1  0  0  0  0
 19 20  2  0  0  0  0
 20 44  1  0  0  0  0
 21 45  1  0  0  0  0
 21 46  1  0  0  0  0
M  CHG  1   3   1
M  END
> <s_m_source_file>
AV-unprocessed.smi

> <i_m_source_file_index>
1093

> <i_lp_mmshare_version>
43012

> <i_f3d_flags>
0

> <s_epik_input>
W0NIM11bQ0gyXU4xW0NIMl1bQ0gyXVtDSDJdW0NASF0oW0NIMl0xKVtOSF1DKD1PKVtOSF1jMltjSF1bY0hdYyhOKFtDSDNdKVtDSDNdKW5bY0hdMg==

> <s_epik_cmdline>
J2VwaWtfcHl0aG9uJywgJy1waCcsICc3LjAnLCAnLXRuJywgJzgnLCAnLW1hJywgJzIwMCcsICctbWV0YWxfYmluZGluZycsICctaW1hZScsICc8aW5maWxlLm1hZT4nLCAnLW9tYWUnLCAnPG91dGZpbGUubWFlPic=

> <r_lp_tautomer_probability>
1

> <r_epik_Ionization_Penalty>
0.489418

> <r_epik_Ionization_Penalty_Charging>
0.00268196

> <r_epik_Ionization_Penalty_Neutral>
0.486736

> <r_epik_State_Penalty>
0.491157

> <r_epik_Charging_Adjusted_Penalty>
0.493839

> <i_epik_Tot_Q>
1

> <i_epik_Tot_abs_Q>
1

> <r_epik_Metal_State_Penalty>
0.266953

> <b_epik_Metal_Only>
0

> <s_lp_Force_Field>
OPLS_2005

> <r_lp_Energy>
24.8298

> <b_lp_Chiralities_Consistent>
1

> <s_lp_Variant>
AV-unprocessed.smi:1093-5

> <Gold.Version>
5.8.1

> <Gold.Id.Protein>
6NUR|6NUR_protein|mol2

> <Gold.PLP.Fitness>
54.0151

> <Gold.PLP.PLP>
-39.0679

> <Gold.PLP.part.hbond>
-5.0000

> <Gold.PLP.part.metal>
0.0000

> <Gold.PLP.part.buried>
-2.7993

> <Gold.PLP.part.nonpolar>
-31.9214

> <Gold.PLP.part.repulsive>
0.7484

> <Gold.PLP.ligand.clash>
0.0000

> <Gold.PLP.ligand.torsion>
0.5784

> <Gold.PLP.Chemscore.Hbond>
4.4673

> <Gold.PLP.Chemscore.CHOScore>
0.8272

> <Gold.PLP.Chemscore.Metal>
0.0000

> <Gold.Chemscore.Hbonds>
donor molecule, donor type, donor heavy atom, donor atom, acceptor molecule, acceptor atom, score
      L1  H     3    47       P1 10186  2.00
      L1  H     8    34       P1 10175  1.00
      L1  H    11    35       P1 10175  1.00
      P1  H  7989  7998       L1    16  0.47
      L1  C    20    44       P1  7948  0.83

> <Gold.PLP.Chemscore.Internal.Correction>
0.2205

> <Gold.Rescore>
     Score         DG    S(hbond)    S(metal)    S(lipo)     H(rot)  DE(clash)    DE(int)     intcor
     17.62     -20.84       2.63        0.00      86.22       1.37       0.15       3.07       ----

> <Gold.Chemscore.Fitness>
17.6250

> <Gold.Chemscore.DG>
-20.8426

> <Gold.Chemscore.ZeroCoef>
-5.4800

> <Gold.Chemscore.Hbond>
2.6297

> <Gold.Chemscore.Metal>
0.0000

> <Gold.Chemscore.Lipo>
86.2191

> <Gold.Chemscore.Internal_Hbond>
0.0000

> <Gold.Chemscore.DEClash>
0.1500

> <Gold.Chemscore.DEInternal>
3.0676

> <Gold.Chemscore.Rot>
1.3704

> <Gold.Chemscore.Internal.Correction>
   9.000000E+99

> <Gold.Chemscore.Hbonds>
donor molecule, donor type, donor heavy atom, donor atom, acceptor molecule, acceptor atom, score
      L1  H     3    47       P1 10186  0.27
      L1  H     8    34       P1 10175  1.00
      L1  H    11    35       P1 10175  0.95
      P1  H  7989  7998       L1    16  0.01

> <Gold.Chemscore.Hbond.Weighted>
-8.7832

> <Gold.Chemscore.Metal.Weighted>
-0.0000

> <Gold.Chemscore.Lipo.Weighted>
-10.0876

> <Gold.Chemscore.Internal_Hbond.Weighted>
0.0000

> <Gold.Chemscore.DEClash.Weighted>
0.1500

> <Gold.Chemscore.DEInternal.Weighted>
3.0676

> <Gold.Chemscore.Rot.Weighted>
3.5082

> <Gold.Chemscore.Internal.Correction.Weighted>
   9.000000E+99

> <Gold.Protein.RotatedTorsions>
[ 6907 6896 6895 6894 ] final   17.31 input  -60.11 | X-H torsion
[ 7974 7965 7964 7962 ] final   -6.47 input  175.53 | X-H torsion
[ 8008 7997 7996 7995 ] final   39.04 input   59.86 | X-H torsion
[ 10167 10162 10161 10158 ] final   54.45 input  -65.29 | X-H torsion
[ 10718 10713 10712 10709 ] final   66.76 input   66.30 | X-H torsion
[ 10763 10752 10751 10750 ] final -163.56 input  -60.55 | X-H torsion
[ 11005 11000 10999 10996 ] final  -58.42 input  -57.11 | X-H torsion

> <Gold.Protein.ActiveResidues>
 VAL166  LYS551  ARG553  GLY616  TRP617  ASP618  TYR619  PRO620  LYS621  CYS622 
 ASP623  PHE694  ASN695  SER759  ASP760  ASP761  ALA762  ILE779  LEU786  VAL792 
 PHE793  MET794  SER795  GLU796  ALA797  LYS798  CYS799  TRP800  GLU811  SER814 

> <Gold.Protein.RotatedAtoms>
  151.8476  135.0569  160.0455 H   0  0  0  0  0  0  0  0  0  0  0  0  # atno 6907 bound_to 6896
  152.2761  133.5422  159.5477 H   0  0  0  0  0  0  0  0  0  0  0  0  # atno 6908 bound_to 6896
  150.7170  134.0546  159.3852 H   0  0  0  0  0  0  0  0  0  0  0  0  # atno 6909 bound_to 6896
  146.2330  140.2176  142.8336 H   0  0  0  0  0  0  0  0  0  0  0  0  # atno 7974 bound_to 7965
  155.2301  140.3337  155.4304 H   0  0  0  0  0  0  0  0  0  0  0  0  # atno 8008 bound_to 7997
  156.2298  140.1845  156.7316 H   0  0  0  0  0  0  0  0  0  0  0  0  # atno 8009 bound_to 7997
  154.5959  140.0630  156.9288 H   0  0  0  0  0  0  0  0  0  0  0  0  # atno 8010 bound_to 7997
  140.2300  144.3697  150.6418 H   0  0  0  0  0  0  0  0  0  0  0  0  # atno 10167 bound_to 10162
  157.6189  130.9285  150.0152 H   0  0  0  0  0  0  0  0  0  0  0  0  # atno 10718 bound_to 10713
  154.7111  135.3006  154.9196 H   0  0  0  0  0  0  0  0  0  0  0  0  # atno 10763 bound_to 10752
  154.0097  135.6696  153.4768 H   0  0  0  0  0  0  0  0  0  0  0  0  # atno 10764 bound_to 10752
  153.0755  135.5037  154.8309 H   0  0  0  0  0  0  0  0  0  0  0  0  # atno 10765 bound_to 10752
  141.1206  133.6612  156.4917 H   0  0  0  0  0  0  0  0  0  0  0  0  # atno 11005 bound_to 11000
  144.9657  140.8320  143.5486 LP  0  0  0  0  0  0  0  0  0  0  0  0  # atno 17320 bound_to 7965
  145.2151  139.2185  143.5122 LP  0  0  0  0  0  0  0  0  0  0  0  0  # atno 17321 bound_to 7965
  140.6192  143.2175  151.6729 LP  0  0  0  0  0  0  0  0  0  0  0  0  # atno 17342 bound_to 10162
  139.5113  144.3512  152.0650 LP  0  0  0  0  0  0  0  0  0  0  0  0  # atno 17343 bound_to 10162
  156.1324  130.3643  149.9710 LP  0  0  0  0  0  0  0  0  0  0  0  0  # atno 17370 bound_to 10713
  156.7769  130.9207  151.3645 LP  0  0  0  0  0  0  0  0  0  0  0  0  # atno 17371 bound_to 10713
  140.4518  134.6922  157.5043 LP  0  0  0  0  0  0  0  0  0  0  0  0  # atno 17394 bound_to 11000
  140.0161  134.6617  155.9308 LP  0  0  0  0  0  0  0  0  0  0  0  0  # atno 17395 bound_to 11000

$$$$
