AV-unprocessed.smi:182|AV-procd|sdf|1456|dock3
  -GOLD-   2262019263D 1   1.00000     0.00000
 Structure written by MMmdl.
 56 59  0  0  0  0  0  0  0  0  1 V2000
  155.2865  139.0999  160.9528 N   0  0  0  0  0  0  0  0  0  0  0  0
  155.1815  139.7698  159.8026 C   0  0  0  0  0  0  0  0  0  0  0  0
  155.3112  139.2171  158.7119 O   0  0  0  0  0  0  0  0  0  0  0  0
  154.8945  141.2714  159.9073 C   0  0  0  0  0  0  0  0  0  0  0  0
  153.5369  141.5947  160.5653 C   0  0  0  0  0  0  0  0  0  0  0  0
  152.3390  141.4824  159.6014 C   0  0  1  0  0  0  0  0  0  0  0  0
  151.8905  142.8715  159.1057 C   0  0  0  0  0  0  0  0  0  0  0  0
  150.6999  142.7467  158.1423 C   0  0  0  0  0  0  0  0  0  0  0  0
  151.0265  141.7965  156.9796 C   0  0  0  0  0  0  0  0  0  0  0  0
  151.4954  140.5048  157.4828 N   0  0  0  0  0  0  0  0  0  0  0  0
  151.5079  139.4522  156.6248 C   0  0  0  0  0  0  0  0  0  0  0  0
  152.4146  139.4136  155.6115 N   0  0  0  0  0  0  0  0  0  0  0  0
  152.4424  138.3779  154.7680 C   0  0  0  0  0  0  0  0  0  0  0  0
  151.6696  137.2906  154.7565 N   0  0  0  0  0  0  0  0  0  0  0  0
  150.7542  137.3232  155.7665 C   0  0  0  0  0  0  0  0  0  0  0  0
  150.6005  138.3595  156.7309 C   0  0  0  0  0  0  0  0  0  0  0  0
  149.5421  138.0584  157.5807 N   0  0  0  0  0  0  0  0  0  0  0  0
  149.1024  136.9083  157.1488 C   0  0  0  0  0  0  0  0  0  0  0  0
  149.7930  136.3786  156.0825 N   0  0  0  0  0  0  0  0  0  0  0  0
  149.4995  135.1564  155.3927 C   0  0  0  0  0  0  0  0  0  0  0  0
  148.0573  134.6778  155.2065 C   0  0  0  0  0  0  0  0  0  0  0  0
  148.5410  133.2118  155.2888 C   0  0  0  0  0  0  0  0  0  0  0  0
  147.6516  132.2630  156.1096 C   0  0  0  0  0  0  0  0  0  0  0  0
  147.3621  132.8058  157.3818 O   0  0  0  0  0  0  0  0  0  0  0  0
  148.8724  132.5504  153.9358 C   0  0  0  0  0  0  0  0  0  0  0  0
  147.6984  132.1985  153.2323 O   0  0  0  0  0  0  0  0  0  0  0  0
  149.7523  133.7968  156.0477 C   0  0  0  0  0  0  0  0  0  0  0  0
  152.6404  140.5741  158.3904 C   0  0  0  0  0  0  0  0  0  0  0  0
  155.4759  138.1080  160.9390 H   0  0  0  0  0  0  0  0  0  0  0  0
  155.1775  139.5851  161.8314 H   0  0  0  0  0  0  0  0  0  0  0  0
  155.7045  141.7346  160.4707 H   0  0  0  0  0  0  0  0  0  0  0  0
  154.9286  141.6948  158.9030 H   0  0  0  0  0  0  0  0  0  0  0  0
  153.3770  140.9056  161.3961 H   0  0  0  0  0  0  0  0  0  0  0  0
  153.5628  142.5943  161.0018 H   0  0  0  0  0  0  0  0  0  0  0  0
  151.5059  141.0454  160.1544 H   0  0  0  0  0  0  0  0  0  0  0  0
  151.6138  143.5039  159.9499 H   0  0  0  0  0  0  0  0  0  0  0  0
  152.7185  143.3708  158.6007 H   0  0  0  0  0  0  0  0  0  0  0  0
  149.8309  142.3724  158.6847 H   0  0  0  0  0  0  0  0  0  0  0  0
  150.4252  143.7285  157.7560 H   0  0  0  0  0  0  0  0  0  0  0  0
  150.1366  141.6610  156.3631 H   0  0  0  0  0  0  0  0  0  0  0  0
  151.7967  142.2359  156.3441 H   0  0  0  0  0  0  0  0  0  0  0  0
  153.1936  138.4258  153.9935 H   0  0  0  0  0  0  0  0  0  0  0  0
  148.2587  136.4101  157.6041 H   0  0  0  0  0  0  0  0  0  0  0  0
  150.0114  135.2231  154.4312 H   0  0  0  0  0  0  0  0  0  0  0  0
  147.4139  134.9609  156.0418 H   0  0  0  0  0  0  0  0  0  0  0  0
  147.6085  134.9664  154.2557 H   0  0  0  0  0  0  0  0  0  0  0  0
  146.7032  132.0856  155.6018 H   0  0  0  0  0  0  0  0  0  0  0  0
  148.1160  131.2851  156.2379 H   0  0  0  0  0  0  0  0  0  0  0  0
  147.0422  132.1126  157.9385 H   0  0  0  0  0  0  0  0  0  0  0  0
  149.4522  133.2197  153.3001 H   0  0  0  0  0  0  0  0  0  0  0  0
  149.4831  131.6568  154.0670 H   0  0  0  0  0  0  0  0  0  0  0  0
  147.9475  131.7627  152.4317 H   0  0  0  0  0  0  0  0  0  0  0  0
  150.7124  133.3453  155.7960 H   0  0  0  0  0  0  0  0  0  0  0  0
  149.6059  133.8224  157.1293 H   0  0  0  0  0  0  0  0  0  0  0  0
  153.4976  140.9618  157.8381 H   0  0  0  0  0  0  0  0  0  0  0  0
  152.9213  139.5810  158.7341 H   0  0  0  0  0  0  0  0  0  0  0  0
  1  2  1  0  0  0  0
  1 29  1  0  0  0  0
  1 30  1  0  0  0  0
  2  3  2  0  0  0  0
  2  4  1  0  0  0  0
  4  5  1  0  0  0  0
  4 31  1  0  0  0  0
  4 32  1  0  0  0  0
  5  6  1  0  0  0  0
  5 33  1  0  0  0  0
  5 34  1  0  0  0  0
  6 28  1  0  0  0  0
  6  7  1  0  0  0  0
  6 35  1  0  0  0  0
  7  8  1  0  0  0  0
  7 36  1  0  0  0  0
  7 37  1  0  0  0  0
  8  9  1  0  0  0  0
  8 38  1  0  0  0  0
  8 39  1  0  0  0  0
  9 10  1  0  0  0  0
  9 40  1  0  0  0  0
  9 41  1  0  0  0  0
 10 11  1  0  0  0  0
 10 28  1  0  0  0  0
 11 16  1  0  0  0  0
 11 12  2  0  0  0  0
 12 13  1  0  0  0  0
 13 14  2  0  0  0  0
 13 42  1  0  0  0  0
 14 15  1  0  0  0  0
 15 19  1  0  0  0  0
 15 16  2  0  0  0  0
 16 17  1  0  0  0  0
 17 18  2  0  0  0  0
 18 19  1  0  0  0  0
 18 43  1  0  0  0  0
 19 20  1  0  0  0  0
 20 27  1  0  0  0  0
 20 21  1  0  0  0  0
 20 44  1  0  0  0  0
 21 22  1  0  0  0  0
 21 45  1  0  0  0  0
 21 46  1  0  0  0  0
 22 23  1  0  0  0  0
 22 25  1  0  0  0  0
 22 27  1  0  0  0  0
 23 24  1  0  0  0  0
 23 47  1  0  0  0  0
 23 48  1  0  0  0  0
 24 49  1  0  0  0  0
 25 26  1  0  0  0  0
 25 50  1  0  0  0  0
 25 51  1  0  0  0  0
 26 52  1  0  0  0  0
 27 53  1  0  0  0  0
 27 54  1  0  0  0  0
 28 55  1  0  0  0  0
 28 56  1  0  0  0  0
M  END
> <s_m_source_file>
AV-unprocessed.smi

> <i_m_source_file_index>
182

> <i_lp_mmshare_version>
43012

> <i_f3d_flags>
0

> <s_epik_input>
W05IMl1DKD1PKVtDSDJdW0NIMl1bQ0BASF0xW0NIMl1bQ0gyXVtDSDJdTihbQ0gyXTEpYyhuW2NIXW4yKWMoYzIzKW5bY0hdbjNbQ0hdKFtDSDJdNClbQ0gyXUM0KFtDSDJdW09IXSlbQ0gyXVtPSF0=

> <s_epik_cmdline>
J2VwaWtfcHl0aG9uJywgJy1waCcsICc3LjAnLCAnLXRuJywgJzgnLCAnLW1hJywgJzIwMCcsICctbWV0YWxfYmluZGluZycsICctaW1hZScsICc8aW5maWxlLm1hZT4nLCAnLW9tYWUnLCAnPG91dGZpbGUubWFlPic=

> <r_lp_tautomer_probability>
1

> <r_epik_Ionization_Penalty>
0.00186057

> <r_epik_Ionization_Penalty_Charging>
0

> <r_epik_Ionization_Penalty_Neutral>
0.00186057

> <r_epik_State_Penalty>
0.00110736

> <r_epik_Charging_Adjusted_Penalty>
0.00110736

> <i_epik_Tot_Q>
0

> <i_epik_Tot_abs_Q>
0

> <r_epik_Metal_State_Penalty>
-0

> <b_epik_Metal_Only>
0

> <s_lp_Force_Field>
OPLS_2005

> <r_lp_Energy>
37.6951

> <b_lp_Chiralities_Consistent>
1

> <s_lp_Variant>
AV-unprocessed.smi:182-2

> <Gold.Version>
5.8.1

> <Gold.Id.Protein>
6NUR|6NUR_protein|mol2

> <Gold.PLP.Fitness>
51.7718

> <Gold.PLP.PLP>
-41.8628

> <Gold.PLP.part.hbond>
-4.0000

> <Gold.PLP.part.metal>
0.0000

> <Gold.PLP.part.buried>
-6.9009

> <Gold.PLP.part.nonpolar>
-31.4832

> <Gold.PLP.part.repulsive>
0.1296

> <Gold.PLP.ligand.clash>
0.0000

> <Gold.PLP.ligand.torsion>
1.4180

> <Gold.PLP.Chemscore.Hbond>
3.9120

> <Gold.PLP.Chemscore.CHOScore>
0.0000

> <Gold.PLP.Chemscore.Metal>
0.0000

> <Gold.Chemscore.Hbonds>
donor molecule, donor type, donor heavy atom, donor atom, acceptor molecule, acceptor atom, score
      P1  H  7997  8008       L1     3  1.00
      P1  H  7997  8009       L1    12  0.67
      P1  H 10752 10765       L1    14  0.77

> <Gold.PLP.Chemscore.Internal.Correction>
1.0089

> <Gold.Rescore>
     Score         DG    S(hbond)    S(metal)    S(lipo)     H(rot)  DE(clash)    DE(int)     intcor
     13.08     -15.99       3.58        0.00      92.34       4.79       0.16       2.75       ----

> <Gold.Chemscore.Fitness>
13.0792

> <Gold.Chemscore.DG>
-15.9884

> <Gold.Chemscore.ZeroCoef>
-5.4800

> <Gold.Chemscore.Hbond>
3.5846

> <Gold.Chemscore.Metal>
0.0000

> <Gold.Chemscore.Lipo>
92.3405

> <Gold.Chemscore.Internal_Hbond>
0.0000

> <Gold.Chemscore.DEClash>
0.1595

> <Gold.Chemscore.DEInternal>
2.7498

> <Gold.Chemscore.Rot>
4.7922

> <Gold.Chemscore.Internal.Correction>
   9.000000E+99

> <Gold.Chemscore.Hbonds>
donor molecule, donor type, donor heavy atom, donor atom, acceptor molecule, acceptor atom, score
      P1  H  7997  8008       L1     3  0.97
      P1  H  7997  8009       L1    12  0.50
      P1  H 10752 10765       L1    14  0.36

> <Gold.Chemscore.Hbond.Weighted>
-11.9726

> <Gold.Chemscore.Metal.Weighted>
-0.0000

> <Gold.Chemscore.Lipo.Weighted>
-10.8038

> <Gold.Chemscore.Internal_Hbond.Weighted>
0.0000

> <Gold.Chemscore.DEClash.Weighted>
0.1595

> <Gold.Chemscore.DEInternal.Weighted>
2.7498

> <Gold.Chemscore.Rot.Weighted>
12.2680

> <Gold.Chemscore.Internal.Correction.Weighted>
   9.000000E+99

> <Gold.Protein.RotatedTorsions>
[ 6907 6896 6895 6894 ] final   95.29 input  -60.11 | X-H torsion
[ 7974 7965 7964 7962 ] final   48.18 input  175.53 | X-H torsion
[ 8008 7997 7996 7995 ] final -141.47 input   59.86 | X-H torsion
[ 10167 10162 10161 10158 ] final   94.66 input  -65.29 | X-H torsion
[ 10718 10713 10712 10709 ] final -127.82 input   66.30 | X-H torsion
[ 10763 10752 10751 10750 ] final  159.03 input  -60.55 | X-H torsion
[ 11005 11000 10999 10996 ] final   35.57 input  -57.11 | X-H torsion

> <Gold.Protein.ActiveResidues>
 VAL166  LYS551  ARG553  GLY616  TRP617  ASP618  TYR619  PRO620  LYS621  CYS622 
 ASP623  PHE694  ASN695  SER759  ASP760  ASP761  ALA762  ILE779  LEU786  VAL792 
 PHE793  MET794  SER795  GLU796  ALA797  LYS798  CYS799  TRP800  GLU811  SER814 

> <Gold.Protein.RotatedAtoms>
  152.5444  134.1062  159.8338 H   0  0  0  0  0  0  0  0  0  0  0  0  # atno 6907 bound_to 6896
  151.1134  133.5149  159.2612 H   0  0  0  0  0  0  0  0  0  0  0  0  # atno 6908 bound_to 6896
  151.1859  135.0391  159.8866 H   0  0  0  0  0  0  0  0  0  0  0  0  # atno 6909 bound_to 6896
  146.0228  139.4671  142.9886 H   0  0  0  0  0  0  0  0  0  0  0  0  # atno 7974 bound_to 7965
  155.4783  140.0558  157.2970 H   0  0  0  0  0  0  0  0  0  0  0  0  # atno 8008 bound_to 7997
  154.4671  140.2023  156.0044 H   0  0  0  0  0  0  0  0  0  0  0  0  # atno 8009 bound_to 7997
  156.0992  140.3221  155.7923 H   0  0  0  0  0  0  0  0  0  0  0  0  # atno 8010 bound_to 7997
  139.8063  144.6793  150.9699 H   0  0  0  0  0  0  0  0  0  0  0  0  # atno 10167 bound_to 10162
  156.1892  130.6784  151.0403 H   0  0  0  0  0  0  0  0  0  0  0  0  # atno 10718 bound_to 10713
  154.2253  135.2780  155.2910 H   0  0  0  0  0  0  0  0  0  0  0  0  # atno 10763 bound_to 10752
  154.5668  135.5630  153.7061 H   0  0  0  0  0  0  0  0  0  0  0  0  # atno 10764 bound_to 10752
  153.0032  135.6311  154.2394 H   0  0  0  0  0  0  0  0  0  0  0  0  # atno 10765 bound_to 10752
  140.2414  134.3411  155.7924 H   0  0  0  0  0  0  0  0  0  0  0  0  # atno 11005 bound_to 11000
  145.7166  141.0089  143.1425 LP  0  0  0  0  0  0  0  0  0  0  0  0  # atno 17320 bound_to 7965
  144.6997  139.8820  143.7448 LP  0  0  0  0  0  0  0  0  0  0  0  0  # atno 17321 bound_to 7965
  140.7819  143.4230  151.0811 LP  0  0  0  0  0  0  0  0  0  0  0  0  # atno 17342 bound_to 10162
  139.7900  143.8233  152.3150 LP  0  0  0  0  0  0  0  0  0  0  0  0  # atno 17343 bound_to 10162
  157.6918  131.0807  150.7084 LP  0  0  0  0  0  0  0  0  0  0  0  0  # atno 17370 bound_to 10713
  156.7141  130.4660  149.5539 LP  0  0  0  0  0  0  0  0  0  0  0  0  # atno 17371 bound_to 10713
  141.2210  133.7301  156.8891 LP  0  0  0  0  0  0  0  0  0  0  0  0  # atno 17394 bound_to 11000
  140.1650  134.9139  157.2762 LP  0  0  0  0  0  0  0  0  0  0  0  0  # atno 17395 bound_to 11000

$$$$
