AV-unprocessed.smi:2489|AV-procd|sdf|9805|dock7
  -GOLD-   2272013443D 1   1.00000     0.00000
 Structure written by MMmdl.
 34 35  0  0  0  0  0  0  0  0  2 V2000
  153.5937  141.0995  160.3828 C   0  0  0  0  0  0  0  0  0  0  0  0
  153.3332  142.4935  160.4606 O   0  0  0  0  0  0  0  0  0  0  0  0
  152.4983  143.0509  159.5163 C   0  0  0  0  0  0  0  0  0  0  0  0
  152.2511  144.4362  159.6093 C   0  0  0  0  0  0  0  0  0  0  0  0
  151.4181  145.0613  158.6626 C   0  0  0  0  0  0  0  0  0  0  0  0
  150.8558  144.3307  157.6771 N   0  3  0  0  0  0  0  0  0  0  0  0
  151.0368  142.9978  157.5424 C   0  0  0  0  0  0  0  0  0  0  0  0
  150.3966  142.3609  156.4467 N   0  0  0  0  0  0  0  0  0  0  0  0
  150.6502  141.1452  155.9261 C   0  0  0  0  0  0  0  0  0  0  0  0
  151.4714  140.3544  156.3912 O   0  0  0  0  0  0  0  0  0  0  0  0
  149.8042  140.7327  154.7111 C   0  0  2  0  0  0  0  0  0  0  0  0
  148.6552  141.7049  154.3797 C   0  0  0  0  0  0  0  0  0  0  0  0
  147.4060  140.9032  154.6863 C   0  0  0  0  0  0  0  0  0  0  0  0
  147.8707  139.4770  154.4190 C   0  0  2  0  0  0  0  0  0  0  0  0
  147.0062  138.4012  155.0843 C   0  0  0  0  0  0  0  0  0  0  0  0
  149.1812  139.4708  154.9628 O   0  0  0  0  0  0  0  0  0  0  0  0
  151.8821  142.3271  158.4621 C   0  0  0  0  0  0  0  0  0  0  0  0
  154.2669  140.8137  161.1910 H   0  0  0  0  0  0  0  0  0  0  0  0
  154.0787  140.8360  159.4420 H   0  0  0  0  0  0  0  0  0  0  0  0
  152.6789  140.5158  160.4939 H   0  0  0  0  0  0  0  0  0  0  0  0
  152.7044  145.0174  160.3995 H   0  0  0  0  0  0  0  0  0  0  0  0
  151.1870  146.1166  158.6636 H   0  0  0  0  0  0  0  0  0  0  0  0
  149.6189  142.8603  156.0396 H   0  0  0  0  0  0  0  0  0  0  0  0
  150.4627  140.6332  153.8473 H   0  0  0  0  0  0  0  0  0  0  0  0
  148.6764  142.6412  154.9387 H   0  0  0  0  0  0  0  0  0  0  0  0
  148.6844  141.9589  153.3193 H   0  0  0  0  0  0  0  0  0  0  0  0
  147.1357  141.0258  155.7360 H   0  0  0  0  0  0  0  0  0  0  0  0
  146.5507  141.1952  154.0766 H   0  0  0  0  0  0  0  0  0  0  0  0
  147.9347  139.3002  153.3439 H   0  0  0  0  0  0  0  0  0  0  0  0
  145.9860  138.4273  154.7010 H   0  0  0  0  0  0  0  0  0  0  0  0
  146.9623  138.5414  156.1646 H   0  0  0  0  0  0  0  0  0  0  0  0
  147.4083  137.4061  154.8934 H   0  0  0  0  0  0  0  0  0  0  0  0
  152.0644  141.2705  158.3467 H   0  0  0  0  0  0  0  0  0  0  0  0
  150.2577  144.8117  157.0046 H   0  0  0  0  0  0  0  0  0  0  0  0
  1  2  1  0  0  0  0
  1 18  1  0  0  0  0
  1 19  1  0  0  0  0
  1 20  1  0  0  0  0
  2  3  1  0  0  0  0
  3 17  1  0  0  0  0
  3  4  2  0  0  0  0
  4  5  1  0  0  0  0
  4 21  1  0  0  0  0
  5  6  2  0  0  0  0
  5 22  1  0  0  0  0
  6  7  1  0  0  0  0
  6 34  1  0  0  0  0
  7  8  1  0  0  0  0
  7 17  2  0  0  0  0
  8  9  1  0  0  0  0
  8 23  1  0  0  0  0
  9 10  2  0  0  0  0
  9 11  1  0  0  0  0
 11 16  1  0  0  0  0
 11 12  1  0  0  0  0
 11 24  1  0  0  0  0
 12 13  1  0  0  0  0
 12 25  1  0  0  0  0
 12 26  1  0  0  0  0
 13 14  1  0  0  0  0
 13 27  1  0  0  0  0
 13 28  1  0  0  0  0
 14 15  1  0  0  0  0
 14 16  1  0  0  0  0
 14 29  1  0  0  0  0
 15 30  1  0  0  0  0
 15 31  1  0  0  0  0
 15 32  1  0  0  0  0
 17 33  1  0  0  0  0
M  CHG  1   6   1
M  END
> <s_m_source_file>
AV-unprocessed.smi

> <i_m_source_file_index>
2489

> <i_lp_mmshare_version>
43012

> <i_f3d_flags>
0

> <s_epik_input>
W0NIM11PYzFbY0hdW2NIXW5jKFtjSF0xKVtOSF1DKD1PKVtDQEBIXTJbQ0gyXVtDSDJdW0NASF0oTzIpW0NIM10=

> <s_epik_cmdline>
J2VwaWtfcHl0aG9uJywgJy1waCcsICc3LjAnLCAnLXRuJywgJzgnLCAnLW1hJywgJzIwMCcsICctbWV0YWxfYmluZGluZycsICctaW1hZScsICc8aW5maWxlLm1hZT4nLCAnLW9tYWUnLCAnPG91dGZpbGUubWFlPic=

> <r_epik_Ionization_Penalty>
1.58956

> <r_epik_Ionization_Penalty_Charging>
1.1784

> <r_epik_Ionization_Penalty_Neutral>
0.411158

> <r_epik_State_Penalty>
1.31089

> <r_epik_Charging_Adjusted_Penalty>
2.48928

> <i_epik_Tot_Q>
1

> <i_epik_Tot_abs_Q>
1

> <r_epik_Metal_State_Penalty>
5.00213

> <b_epik_Metal_Only>
0

> <s_lp_Force_Field>
OPLS_2005

> <r_lp_Energy>
31.9404

> <b_lp_Chiralities_Consistent>
1

> <s_lp_Variant>
AV-unprocessed.smi:2489-11

> <Gold.Version>
5.8.1

> <Gold.Id.Protein>
6NUR|6NUR_protein|mol2

> <Gold.PLP.Fitness>
43.8727

> <Gold.PLP.PLP>
-35.6557

> <Gold.PLP.part.hbond>
-2.0000

> <Gold.PLP.part.metal>
0.0000

> <Gold.PLP.part.buried>
-4.1521

> <Gold.PLP.part.nonpolar>
-29.2667

> <Gold.PLP.part.repulsive>
0.2100

> <Gold.PLP.ligand.clash>
0.0000

> <Gold.PLP.ligand.torsion>
0.1818

> <Gold.PLP.Chemscore.Hbond>
2.8564

> <Gold.PLP.Chemscore.CHOScore>
0.0000

> <Gold.PLP.Chemscore.Metal>
0.0000

> <Gold.Chemscore.Hbonds>
donor molecule, donor type, donor heavy atom, donor atom, acceptor molecule, acceptor atom, score
      L1  H     6    34       P1  8028  2.00
      L1  H     8    23       P1  8028  0.86

> <Gold.PLP.Chemscore.Internal.Correction>
0.0113

> <Gold.Rescore>
     Score         DG    S(hbond)    S(metal)    S(lipo)     H(rot)  DE(clash)    DE(int)     intcor
     15.38     -16.88       1.44        0.00      83.63       1.24       0.08       1.42       ----

> <Gold.Chemscore.Fitness>
15.3832

> <Gold.Chemscore.DG>
-16.8837

> <Gold.Chemscore.ZeroCoef>
-5.4800

> <Gold.Chemscore.Hbond>
1.4359

> <Gold.Chemscore.Metal>
0.0000

> <Gold.Chemscore.Lipo>
83.6297

> <Gold.Chemscore.Internal_Hbond>
0.0000

> <Gold.Chemscore.DEClash>
0.0806

> <Gold.Chemscore.DEInternal>
1.4199

> <Gold.Chemscore.Rot>
1.2409

> <Gold.Chemscore.Internal.Correction>
   9.000000E+99

> <Gold.Chemscore.Hbonds>
donor molecule, donor type, donor heavy atom, donor atom, acceptor molecule, acceptor atom, score
      L1  H     6    34       P1  8028  0.38
      L1  H     8    23       P1  8028  0.80

> <Gold.Chemscore.Hbond.Weighted>
-4.7957

> <Gold.Chemscore.Metal.Weighted>
-0.0000

> <Gold.Chemscore.Lipo.Weighted>
-9.7847

> <Gold.Chemscore.Internal_Hbond.Weighted>
0.0000

> <Gold.Chemscore.DEClash.Weighted>
0.0806

> <Gold.Chemscore.DEInternal.Weighted>
1.4199

> <Gold.Chemscore.Rot.Weighted>
3.1767

> <Gold.Chemscore.Internal.Correction.Weighted>
   9.000000E+99

> <Gold.Protein.RotatedTorsions>
[ 6907 6896 6895 6894 ] final  -85.83 input  -60.11 | X-H torsion
[ 7974 7965 7964 7962 ] final   68.17 input  175.53 | X-H torsion
[ 8008 7997 7996 7995 ] final   -3.91 input   59.86 | X-H torsion
[ 10167 10162 10161 10158 ] final -139.21 input  -65.29 | X-H torsion
[ 10718 10713 10712 10709 ] final -127.56 input   66.30 | X-H torsion
[ 10763 10752 10751 10750 ] final   60.11 input  -60.55 | X-H torsion
[ 11005 11000 10999 10996 ] final   85.50 input  -57.11 | X-H torsion

> <Gold.Protein.ActiveResidues>
 VAL166  LYS551  ARG553  GLY616  TRP617  ASP618  TYR619  PRO620  LYS621  CYS622 
 ASP623  PHE694  ASN695  SER759  ASP760  ASP761  ALA762  ILE779  LEU786  VAL792 
 PHE793  MET794  SER795  GLU796  ALA797  LYS798  CYS799  TRP800  GLU811  SER814 

> <Gold.Protein.RotatedAtoms>
  150.6869  134.3144  159.4759 H   0  0  0  0  0  0  0  0  0  0  0  0  # atno 6907 bound_to 6896
  152.1026  134.9328  160.0578 H   0  0  0  0  0  0  0  0  0  0  0  0  # atno 6908 bound_to 6896
  152.0601  133.4023  159.4451 H   0  0  0  0  0  0  0  0  0  0  0  0  # atno 6909 bound_to 6896
  145.8059  139.3006  143.1127 H   0  0  0  0  0  0  0  0  0  0  0  0  # atno 7974 bound_to 7965
  154.6199  140.2497  155.7562 H   0  0  0  0  0  0  0  0  0  0  0  0  # atno 8008 bound_to 7997
  156.2420  140.2929  156.0421 H   0  0  0  0  0  0  0  0  0  0  0  0  # atno 8009 bound_to 7997
  155.1914  140.0391  157.2891 H   0  0  0  0  0  0  0  0  0  0  0  0  # atno 8010 bound_to 7997
  139.8402  143.7332  152.2663 H   0  0  0  0  0  0  0  0  0  0  0  0  # atno 10167 bound_to 10162
  156.1868  130.6769  151.0374 H   0  0  0  0  0  0  0  0  0  0  0  0  # atno 10718 bound_to 10713
  152.9912  135.5548  154.5821 H   0  0  0  0  0  0  0  0  0  0  0  0  # atno 10763 bound_to 10752
  154.5200  135.2807  155.1273 H   0  0  0  0  0  0  0  0  0  0  0  0  # atno 10764 bound_to 10752
  154.2630  135.6377  153.5334 H   0  0  0  0  0  0  0  0  0  0  0  0  # atno 10765 bound_to 10752
  139.8970  134.8291  156.2590 H   0  0  0  0  0  0  0  0  0  0  0  0  # atno 11005 bound_to 11000
  145.9829  140.8667  143.0105 LP  0  0  0  0  0  0  0  0  0  0  0  0  # atno 17320 bound_to 7965
  144.6763  140.2106  143.7377 LP  0  0  0  0  0  0  0  0  0  0  0  0  # atno 17321 bound_to 7965
  139.7567  144.7519  151.0425 LP  0  0  0  0  0  0  0  0  0  0  0  0  # atno 17342 bound_to 10162
  140.7799  143.4798  151.0034 LP  0  0  0  0  0  0  0  0  0  0  0  0  # atno 17343 bound_to 10162
  157.6904  131.0812  150.7124 LP  0  0  0  0  0  0  0  0  0  0  0  0  # atno 17370 bound_to 10713
  156.7181  130.4672  149.5530 LP  0  0  0  0  0  0  0  0  0  0  0  0  # atno 17371 bound_to 10713
  141.0174  133.7060  156.1212 LP  0  0  0  0  0  0  0  0  0  0  0  0  # atno 17394 bound_to 11000
  140.7281  134.4284  157.5568 LP  0  0  0  0  0  0  0  0  0  0  0  0  # atno 17395 bound_to 11000

$$$$
