AV-unprocessed.smi:1788|AV-procd|sdf|7212|dock4
  -GOLD-   22720 8453D 1   1.00000     0.00000
 Structure written by MMmdl.
 55 57  0  0  0  0  0  0  0  0  2 V2000
  148.6410  133.2450  153.4255 C   0  0  0  0  0  0  0  0  0  0  0  0
  147.1263  132.9748  153.4144 C   0  0  2  0  0  0  0  0  0  0  0  0
  146.6485  132.3295  152.1008 C   0  0  0  0  0  0  0  0  0  0  0  0
  146.6158  133.3546  150.9594 C   0  0  0  0  0  0  0  0  0  0  0  0
  145.7819  134.5837  151.3504 C   0  0  0  0  0  0  0  0  0  0  0  0
  146.2914  135.2034  152.6007 N   0  3  1  0  0  0  0  0  0  0  0  0
  145.5916  136.4750  152.9218 C   0  0  0  0  0  0  0  0  0  0  0  0
  146.1991  137.7048  152.2187 C   0  0  0  0  0  0  0  0  0  0  0  0
  147.5168  138.0431  152.7521 N   0  0  0  0  0  0  0  0  0  0  0  0
  147.7675  139.0161  153.6395 C   0  0  0  0  0  0  0  0  0  0  0  0
  146.8988  139.7631  154.0866 O   0  0  0  0  0  0  0  0  0  0  0  0
  149.0642  139.0347  153.9904 N   0  0  0  0  0  0  0  0  0  0  0  0
  149.7072  139.8802  154.9342 C   0  0  0  0  0  0  0  0  0  0  0  0
  151.0919  139.7198  155.1330 C   0  0  0  0  0  0  0  0  0  0  0  0
  151.7580  140.5562  156.0484 C   0  0  0  0  0  0  0  0  0  0  0  0
  151.0228  141.5479  156.7395 C   0  0  0  0  0  0  0  0  0  0  0  0
  151.6710  142.4037  157.6573 N   0  0  0  0  0  0  0  0  0  0  0  0
  151.4883  143.8341  157.4210 C   0  0  0  0  0  0  0  0  0  0  0  0
  152.4622  144.6515  158.2877 C   0  0  0  0  0  0  0  0  0  0  0  0
  152.3082  144.2937  159.6570 O   0  0  0  0  0  0  0  0  0  0  0  0
  152.6048  142.9196  159.8801 C   0  0  0  0  0  0  0  0  0  0  0  0
  151.6323  142.0423  159.0736 C   0  0  0  0  0  0  0  0  0  0  0  0
  149.6906  141.7052  156.5430 N   0  0  0  0  0  0  0  0  0  0  0  0
  149.0550  140.9019  155.6643 C   0  0  0  0  0  0  0  0  0  0  0  0
  146.2969  134.2380  153.7335 C   0  0  0  0  0  0  0  0  0  0  0  0
  148.9285  133.9962  152.6898 H   0  0  0  0  0  0  0  0  0  0  0  0
  149.2029  132.3359  153.2088 H   0  0  0  0  0  0  0  0  0  0  0  0
  148.9663  133.6002  154.4036 H   0  0  0  0  0  0  0  0  0  0  0  0
  146.9411  132.2547  154.2127 H   0  0  0  0  0  0  0  0  0  0  0  0
  147.2837  131.4841  151.8344 H   0  0  0  0  0  0  0  0  0  0  0  0
  145.6458  131.9240  152.2437 H   0  0  0  0  0  0  0  0  0  0  0  0
  147.6302  133.6629  150.7043 H   0  0  0  0  0  0  0  0  0  0  0  0
  146.2011  132.8956  150.0615 H   0  0  0  0  0  0  0  0  0  0  0  0
  145.8188  135.3091  150.5366 H   0  0  0  0  0  0  0  0  0  0  0  0
  144.7348  134.3049  151.4810 H   0  0  0  0  0  0  0  0  0  0  0  0
  144.5505  136.3986  152.6040 H   0  0  0  0  0  0  0  0  0  0  0  0
  145.5669  136.6243  154.0022 H   0  0  0  0  0  0  0  0  0  0  0  0
  146.3132  137.4909  151.1558 H   0  0  0  0  0  0  0  0  0  0  0  0
  145.5201  138.5568  152.2752 H   0  0  0  0  0  0  0  0  0  0  0  0
  148.2938  137.4831  152.4315 H   0  0  0  0  0  0  0  0  0  0  0  0
  149.6454  138.3115  153.5921 H   0  0  0  0  0  0  0  0  0  0  0  0
  151.6409  138.9590  154.5973 H   0  0  0  0  0  0  0  0  0  0  0  0
  152.8157  140.4193  156.2168 H   0  0  0  0  0  0  0  0  0  0  0  0
  151.6434  144.0944  156.3750 H   0  0  0  0  0  0  0  0  0  0  0  0
  150.4591  144.1011  157.6647 H   0  0  0  0  0  0  0  0  0  0  0  0
  153.4941  144.4883  157.9722 H   0  0  0  0  0  0  0  0  0  0  0  0
  152.2601  145.7167  158.1752 H   0  0  0  0  0  0  0  0  0  0  0  0
  153.6399  142.7096  159.6045 H   0  0  0  0  0  0  0  0  0  0  0  0
  152.5095  142.7044  160.9446 H   0  0  0  0  0  0  0  0  0  0  0  0
  150.6165  142.1693  159.4508 H   0  0  0  0  0  0  0  0  0  0  0  0
  151.9009  140.9930  159.2031 H   0  0  0  0  0  0  0  0  0  0  0  0
  148.0041  141.1121  155.5420 H   0  0  0  0  0  0  0  0  0  0  0  0
  145.2679  133.9518  153.9578 H   0  0  0  0  0  0  0  0  0  0  0  0
  146.6878  134.7112  154.6341 H   0  0  0  0  0  0  0  0  0  0  0  0
  147.2551  135.4472  152.4212 H   0  0  0  0  0  0  0  0  0  0  0  0
  1  2  1  0  0  0  0
  1 26  1  0  0  0  0
  1 27  1  0  0  0  0
  1 28  1  0  0  0  0
  2 25  1  0  0  0  0
  2  3  1  0  0  0  0
  2 29  1  0  0  0  0
  3  4  1  0  0  0  0
  3 30  1  0  0  0  0
  3 31  1  0  0  0  0
  4  5  1  0  0  0  0
  4 32  1  0  0  0  0
  4 33  1  0  0  0  0
  5  6  1  0  0  0  0
  5 34  1  0  0  0  0
  5 35  1  0  0  0  0
  6  7  1  0  0  0  0
  6 25  1  0  0  0  0
  6 55  1  0  0  0  0
  7  8  1  0  0  0  0
  7 36  1  0  0  0  0
  7 37  1  0  0  0  0
  8  9  1  0  0  0  0
  8 38  1  0  0  0  0
  8 39  1  0  0  0  0
  9 10  1  0  0  0  0
  9 40  1  0  0  0  0
 10 11  2  0  0  0  0
 10 12  1  0  0  0  0
 12 13  1  0  0  0  0
 12 41  1  0  0  0  0
 13 24  1  0  0  0  0
 13 14  2  0  0  0  0
 14 15  1  0  0  0  0
 14 42  1  0  0  0  0
 15 16  2  0  0  0  0
 15 43  1  0  0  0  0
 16 17  1  0  0  0  0
 16 23  1  0  0  0  0
 17 22  1  0  0  0  0
 17 18  1  0  0  0  0
 18 19  1  0  0  0  0
 18 44  1  0  0  0  0
 18 45  1  0  0  0  0
 19 20  1  0  0  0  0
 19 46  1  0  0  0  0
 19 47  1  0  0  0  0
 20 21  1  0  0  0  0
 21 22  1  0  0  0  0
 21 48  1  0  0  0  0
 21 49  1  0  0  0  0
 22 50  1  0  0  0  0
 22 51  1  0  0  0  0
 23 24  2  0  0  0  0
 24 52  1  0  0  0  0
 25 53  1  0  0  0  0
 25 54  1  0  0  0  0
M  CHG  1   6   1
M  END
> <s_m_source_file>
AV-unprocessed.smi

> <i_m_source_file_index>
1788

> <i_lp_mmshare_version>
43012

> <i_f3d_flags>
0

> <s_epik_input>
W0NIM11bQ0BASF0xW0NIMl1bQ0gyXVtDSDJdTihbQ0gyXTEpW0NIMl1bQ0gyXVtOSF1DKD1PKVtOSF1jMltjSF1bY0hdYyhuW2NIXTIpTjNbQ0gyXVtDSDJdT1tDSDJdW0NIMl0z

> <s_epik_cmdline>
J2VwaWtfcHl0aG9uJywgJy1waCcsICc3LjAnLCAnLXRuJywgJzgnLCAnLW1hJywgJzIwMCcsICctbWV0YWxfYmluZGluZycsICctaW1hZScsICc8aW5maWxlLm1hZT4nLCAnLW9tYWUnLCAnPG91dGZpbGUubWFlPic=

> <r_lp_tautomer_probability>
1

> <r_epik_Ionization_Penalty>
0.00340126

> <r_epik_Ionization_Penalty_Charging>
0.00171832

> <r_epik_Ionization_Penalty_Neutral>
0.00168294

> <r_epik_State_Penalty>
-0

> <r_epik_Charging_Adjusted_Penalty>
0.00171832

> <i_epik_Tot_Q>
1

> <i_epik_Tot_abs_Q>
1

> <r_epik_Metal_State_Penalty>
-0

> <b_epik_Metal_Only>
0

> <s_lp_Force_Field>
OPLS_2005

> <r_lp_Energy>
41.5568

> <b_lp_Chiralities_Consistent>
1

> <s_lp_Variant>
AV-unprocessed.smi:1788-3

> <Gold.Version>
5.8.1

> <Gold.Id.Protein>
6NUR|6NUR_protein|mol2

> <Gold.PLP.Fitness>
55.5871

> <Gold.PLP.PLP>
-48.0115

> <Gold.PLP.part.hbond>
-3.6242

> <Gold.PLP.part.metal>
0.0000

> <Gold.PLP.part.buried>
-2.5129

> <Gold.PLP.part.nonpolar>
-41.9395

> <Gold.PLP.part.repulsive>
0.4712

> <Gold.PLP.ligand.clash>
0.0000

> <Gold.PLP.ligand.torsion>
0.8953

> <Gold.PLP.Chemscore.Hbond>
3.0000

> <Gold.PLP.Chemscore.CHOScore>
0.0000

> <Gold.PLP.Chemscore.Metal>
0.0000

> <Gold.Chemscore.Hbonds>
donor molecule, donor type, donor heavy atom, donor atom, acceptor molecule, acceptor atom, score
      L1  H     6    55       P1  7948  2.00
      L1  H     9    40       P1  7948  0.94

> <Gold.PLP.Chemscore.Internal.Correction>
0.3662

> <Gold.Rescore>
     Score         DG    S(hbond)    S(metal)    S(lipo)     H(rot)  DE(clash)    DE(int)     intcor
     18.67     -20.95       1.98        0.00     110.72       1.60       0.09       2.19       ----

> <Gold.Chemscore.Fitness>
18.6677

> <Gold.Chemscore.DG>
-20.9512

> <Gold.Chemscore.ZeroCoef>
-5.4800

> <Gold.Chemscore.Hbond>
1.9781

> <Gold.Chemscore.Metal>
0.0000

> <Gold.Chemscore.Lipo>
110.7199

> <Gold.Chemscore.Internal_Hbond>
0.0000

> <Gold.Chemscore.DEClash>
0.0913

> <Gold.Chemscore.DEInternal>
2.1923

> <Gold.Chemscore.Rot>
1.5976

> <Gold.Chemscore.Internal.Correction>
   9.000000E+99

> <Gold.Chemscore.Hbonds>
donor molecule, donor type, donor heavy atom, donor atom, acceptor molecule, acceptor atom, score
      L1  H     6    55       P1  7948  0.99
      L1  H     9    40       P1  7948  0.89

> <Gold.Chemscore.Hbond.Weighted>
-6.6069

> <Gold.Chemscore.Metal.Weighted>
-0.0000

> <Gold.Chemscore.Lipo.Weighted>
-12.9542

> <Gold.Chemscore.Internal_Hbond.Weighted>
0.0000

> <Gold.Chemscore.DEClash.Weighted>
0.0913

> <Gold.Chemscore.DEInternal.Weighted>
2.1923

> <Gold.Chemscore.Rot.Weighted>
4.0899

> <Gold.Chemscore.Internal.Correction.Weighted>
   9.000000E+99

> <Gold.Protein.RotatedTorsions>
[ 6907 6896 6895 6894 ] final -152.33 input  -60.11 | X-H torsion
[ 7974 7965 7964 7962 ] final -121.36 input  175.53 | X-H torsion
[ 8008 7997 7996 7995 ] final  161.17 input   59.86 | X-H torsion
[ 10167 10162 10161 10158 ] final -172.88 input  -65.29 | X-H torsion
[ 10718 10713 10712 10709 ] final  -14.22 input   66.30 | X-H torsion
[ 10763 10752 10751 10750 ] final   30.31 input  -60.55 | X-H torsion
[ 11005 11000 10999 10996 ] final   12.48 input  -57.11 | X-H torsion

> <Gold.Protein.ActiveResidues>
 VAL166  LYS551  ARG553  GLY616  TRP617  ASP618  TYR619  PRO620  LYS621  CYS622 
 ASP623  PHE694  ASN695  SER759  ASP760  ASP761  ALA762  ILE779  LEU786  VAL792 
 PHE793  MET794  SER795  GLU796  ALA797  LYS798  CYS799  TRP800  GLU811  SER814 

> <Gold.Protein.RotatedAtoms>
  151.2261  133.4475  159.2601 H   0  0  0  0  0  0  0  0  0  0  0  0  # atno 6907 bound_to 6896
  151.0838  134.9875  159.8379 H   0  0  0  0  0  0  0  0  0  0  0  0  # atno 6908 bound_to 6896
  152.5427  134.2199  159.8836 H   0  0  0  0  0  0  0  0  0  0  0  0  # atno 6909 bound_to 6896
  145.0412  140.8146  143.4265 H   0  0  0  0  0  0  0  0  0  0  0  0  # atno 7974 bound_to 7965
  156.2122  140.1784  156.7669 H   0  0  0  0  0  0  0  0  0  0  0  0  # atno 8008 bound_to 7997
  154.5739  140.0677  156.9035 H   0  0  0  0  0  0  0  0  0  0  0  0  # atno 8009 bound_to 7997
  155.2623  140.3336  155.4274 H   0  0  0  0  0  0  0  0  0  0  0  0  # atno 8010 bound_to 7997
  139.5719  144.1621  152.1396 H   0  0  0  0  0  0  0  0  0  0  0  0  # atno 10167 bound_to 10162
  156.6191  130.4870  149.6171 H   0  0  0  0  0  0  0  0  0  0  0  0  # atno 10718 bound_to 10713
  153.0379  135.6467  154.1025 H   0  0  0  0  0  0  0  0  0  0  0  0  # atno 10763 bound_to 10752
  154.0737  135.2878  155.3305 H   0  0  0  0  0  0  0  0  0  0  0  0  # atno 10764 bound_to 10752
  154.6577  135.5403  153.8044 H   0  0  0  0  0  0  0  0  0  0  0  0  # atno 10765 bound_to 10752
  140.4915  134.0835  155.7772 H   0  0  0  0  0  0  0  0  0  0  0  0  # atno 11005 bound_to 11000
  145.1645  139.2439  143.5374 LP  0  0  0  0  0  0  0  0  0  0  0  0  # atno 17320 bound_to 7965
  146.3509  140.1380  142.8595 LP  0  0  0  0  0  0  0  0  0  0  0  0  # atno 17321 bound_to 7965
  140.1155  144.5419  150.6896 LP  0  0  0  0  0  0  0  0  0  0  0  0  # atno 17342 bound_to 10162
  140.7003  143.2431  151.4882 LP  0  0  0  0  0  0  0  0  0  0  0  0  # atno 17343 bound_to 10162
  156.2327  130.6804  151.1479 LP  0  0  0  0  0  0  0  0  0  0  0  0  # atno 17370 bound_to 10713
  157.7233  131.0667  150.6043 LP  0  0  0  0  0  0  0  0  0  0  0  0  # atno 17371 bound_to 10713
  141.1481  133.9018  157.2165 LP  0  0  0  0  0  0  0  0  0  0  0  0  # atno 17394 bound_to 11000
  139.9766  135.0112  156.9646 LP  0  0  0  0  0  0  0  0  0  0  0  0  # atno 17395 bound_to 11000

$$$$
