AV-unprocessed.smi:730|AV-procd|sdf|3525|dock4
  -GOLD-   22720 0513D 1   1.00000     0.00000
 Structure written by MMmdl.
 40 41  0  0  0  0  0  0  0  0  1 V2000
  151.9879  129.6725  154.7093 C   0  0  0  0  0  0  0  0  0  0  0  0
  151.0460  130.3164  155.7463 C   0  0  0  0  0  0  0  0  0  0  0  0
  149.9832  129.2767  156.1486 C   0  0  0  0  0  0  0  0  0  0  0  0
  151.8771  130.6973  156.9858 C   0  0  0  0  0  0  0  0  0  0  0  0
  150.3794  131.5383  155.1778 C   0  0  0  0  0  0  0  0  0  0  0  0
  149.5828  131.7554  154.0860 C   0  0  0  0  0  0  0  0  0  0  0  0
  149.3098  133.1472  154.1529 C   0  0  0  0  0  0  0  0  0  0  0  0
  148.4988  133.7777  153.1750 N   0  0  0  0  0  0  0  0  0  0  0  0
  147.4665  133.2442  152.5000 C   0  0  0  0  0  0  0  0  0  0  0  0
  147.0657  132.0857  152.6155 O   0  0  0  0  0  0  0  0  0  0  0  0
  146.9118  134.1399  151.6705 N   0  0  0  0  0  0  0  0  0  0  0  0
  145.7700  133.8808  150.7958 C   0  0  1  0  0  0  0  0  0  0  0  0
  146.0431  132.6585  149.8984 C   0  0  0  0  0  0  0  0  0  0  0  0
  145.3167  131.4917  150.5651 C   0  0  0  0  0  0  0  0  0  0  0  0
  144.0624  132.1343  151.1473 C   0  0  0  0  0  0  0  0  0  0  0  0
  144.5222  133.5161  151.6326 C   0  0  2  0  0  0  0  0  0  0  0  0
  143.4857  134.4604  151.4606 O   0  0  0  0  0  0  0  0  0  0  0  0
  149.8865  133.7334  155.1896 N   0  0  0  0  0  0  0  0  0  0  0  0
  150.5730  132.7084  155.8496 O   0  0  0  0  0  0  0  0  0  0  0  0
  152.4751  128.7835  155.1114 H   0  0  0  0  0  0  0  0  0  0  0  0
  152.7737  130.3634  154.4013 H   0  0  0  0  0  0  0  0  0  0  0  0
  151.4457  129.3690  153.8127 H   0  0  0  0  0  0  0  0  0  0  0  0
  149.3780  128.9778  155.2919 H   0  0  0  0  0  0  0  0  0  0  0  0
  149.3053  129.6708  156.9068 H   0  0  0  0  0  0  0  0  0  0  0  0
  150.4412  128.3759  156.5586 H   0  0  0  0  0  0  0  0  0  0  0  0
  152.3817  129.8283  157.4097 H   0  0  0  0  0  0  0  0  0  0  0  0
  151.2522  131.1258  157.7703 H   0  0  0  0  0  0  0  0  0  0  0  0
  152.6427  131.4334  156.7378 H   0  0  0  0  0  0  0  0  0  0  0  0
  149.2488  131.0326  153.3566 H   0  0  0  0  0  0  0  0  0  0  0  0
  148.7242  134.7404  152.9740 H   0  0  0  0  0  0  0  0  0  0  0  0
  147.3043  135.0694  151.6406 H   0  0  0  0  0  0  0  0  0  0  0  0
  145.5817  134.7592  150.1744 H   0  0  0  0  0  0  0  0  0  0  0  0
  145.6067  132.8336  148.9141 H   0  0  0  0  0  0  0  0  0  0  0  0
  147.1035  132.4541  149.7448 H   0  0  0  0  0  0  0  0  0  0  0  0
  145.0914  130.6833  149.8692 H   0  0  0  0  0  0  0  0  0  0  0  0
  145.9309  131.0831  151.3685 H   0  0  0  0  0  0  0  0  0  0  0  0
  143.3198  132.2366  150.3539 H   0  0  0  0  0  0  0  0  0  0  0  0
  143.6138  131.5382  151.9424 H   0  0  0  0  0  0  0  0  0  0  0  0
  144.7685  133.4614  152.6944 H   0  0  0  0  0  0  0  0  0  0  0  0
  143.7981  135.1477  150.8921 H   0  0  0  0  0  0  0  0  0  0  0  0
  1  2  1  0  0  0  0
  1 20  1  0  0  0  0
  1 21  1  0  0  0  0
  1 22  1  0  0  0  0
  2  3  1  0  0  0  0
  2  4  1  0  0  0  0
  2  5  1  0  0  0  0
  3 23  1  0  0  0  0
  3 24  1  0  0  0  0
  3 25  1  0  0  0  0
  4 26  1  0  0  0  0
  4 27  1  0  0  0  0
  4 28  1  0  0  0  0
  5 19  1  0  0  0  0
  5  6  2  0  0  0  0
  6  7  1  0  0  0  0
  6 29  1  0  0  0  0
  7  8  1  0  0  0  0
  7 18  2  0  0  0  0
  8  9  1  0  0  0  0
  8 30  1  0  0  0  0
  9 10  2  0  0  0  0
  9 11  1  0  0  0  0
 11 12  1  0  0  0  0
 11 31  1  0  0  0  0
 12 16  1  0  0  0  0
 12 13  1  0  0  0  0
 12 32  1  0  0  0  0
 13 14  1  0  0  0  0
 13 33  1  0  0  0  0
 13 34  1  0  0  0  0
 14 15  1  0  0  0  0
 14 35  1  0  0  0  0
 14 36  1  0  0  0  0
 15 16  1  0  0  0  0
 15 37  1  0  0  0  0
 15 38  1  0  0  0  0
 16 17  1  0  0  0  0
 16 39  1  0  0  0  0
 17 40  1  0  0  0  0
 18 19  1  0  0  0  0
M  END
> <s_m_source_file>
AV-unprocessed.smi

> <i_m_source_file_index>
730

> <i_lp_mmshare_version>
43012

> <i_f3d_flags>
0

> <s_epik_input>
W0NIM11DKFtDSDNdKShbQ0gzXSljMVtjSF1jKG5vMSlbTkhdQyg9TylbTkhdW0NAQEhdMltDSDJdW0NIMl1bQ0gyXVtDQEhdMltPSF0=

> <s_epik_cmdline>
J2VwaWtfcHl0aG9uJywgJy1waCcsICc3LjAnLCAnLXRuJywgJzgnLCAnLW1hJywgJzIwMCcsICctbWV0YWxfYmluZGluZycsICctaW1hZScsICc8aW5maWxlLm1hZT4nLCAnLW9tYWUnLCAnPG91dGZpbGUubWFlPic=

> <r_lp_tautomer_probability>
1

> <r_epik_Ionization_Penalty>
2.23071e-05

> <r_epik_Ionization_Penalty_Charging>
0

> <r_epik_Ionization_Penalty_Neutral>
2.23071e-05

> <r_epik_State_Penalty>
-0

> <r_epik_Charging_Adjusted_Penalty>
0

> <i_epik_Tot_Q>
0

> <i_epik_Tot_abs_Q>
0

> <r_epik_Metal_State_Penalty>
-0

> <b_epik_Metal_Only>
0

> <s_lp_Force_Field>
OPLS_2005

> <r_lp_Energy>
16.5613

> <b_lp_Chiralities_Consistent>
1

> <s_lp_Variant>
AV-unprocessed.smi:730-4

> <Gold.Version>
5.8.1

> <Gold.Id.Protein>
6NUR|6NUR_protein|mol2

> <Gold.PLP.Fitness>
37.0356

> <Gold.PLP.PLP>
-31.7214

> <Gold.PLP.part.hbond>
-2.7809

> <Gold.PLP.part.metal>
0.0000

> <Gold.PLP.part.buried>
-3.4631

> <Gold.PLP.part.nonpolar>
-24.4771

> <Gold.PLP.part.repulsive>
0.2264

> <Gold.PLP.ligand.clash>
0.0000

> <Gold.PLP.ligand.torsion>
0.2383

> <Gold.PLP.Chemscore.Hbond>
1.9280

> <Gold.PLP.Chemscore.CHOScore>
0.0000

> <Gold.PLP.Chemscore.Metal>
0.0000

> <Gold.Chemscore.Hbonds>
donor molecule, donor type, donor heavy atom, donor atom, acceptor molecule, acceptor atom, score
      L1  H     8    30       P1  7948  0.90
      L1  H    11    31       P1  7948  0.93

> <Gold.PLP.Chemscore.Internal.Correction>
0.0068

> <Gold.Rescore>
     Score         DG    S(hbond)    S(metal)    S(lipo)     H(rot)  DE(clash)    DE(int)     intcor
      9.20     -13.50       1.34        0.00      67.82       1.71       0.14       4.16       ----

> <Gold.Chemscore.Fitness>
9.1994

> <Gold.Chemscore.DG>
-13.4980

> <Gold.Chemscore.ZeroCoef>
-5.4800

> <Gold.Chemscore.Hbond>
1.3376

> <Gold.Chemscore.Metal>
0.0000

> <Gold.Chemscore.Lipo>
67.8151

> <Gold.Chemscore.Internal_Hbond>
0.0000

> <Gold.Chemscore.DEClash>
0.1363

> <Gold.Chemscore.DEInternal>
4.1622

> <Gold.Chemscore.Rot>
1.7125

> <Gold.Chemscore.Internal.Correction>
   9.000000E+99

> <Gold.Chemscore.Hbonds>
donor molecule, donor type, donor heavy atom, donor atom, acceptor molecule, acceptor atom, score
      L1  H     8    30       P1  7948  0.17
      L1  H    11    31       P1  7948  0.74

> <Gold.Chemscore.Hbond.Weighted>
-4.4677

> <Gold.Chemscore.Metal.Weighted>
-0.0000

> <Gold.Chemscore.Lipo.Weighted>
-7.9344

> <Gold.Chemscore.Internal_Hbond.Weighted>
0.0000

> <Gold.Chemscore.DEClash.Weighted>
0.1363

> <Gold.Chemscore.DEInternal.Weighted>
4.1622

> <Gold.Chemscore.Rot.Weighted>
4.3841

> <Gold.Chemscore.Internal.Correction.Weighted>
   9.000000E+99

> <Gold.Protein.RotatedTorsions>
[ 6907 6896 6895 6894 ] final  -58.48 input  -60.11 | X-H torsion
[ 7974 7965 7964 7962 ] final -175.08 input  175.53 | X-H torsion
[ 8008 7997 7996 7995 ] final  155.15 input   59.86 | X-H torsion
[ 10167 10162 10161 10158 ] final  141.52 input  -65.29 | X-H torsion
[ 10718 10713 10712 10709 ] final  145.09 input   66.30 | X-H torsion
[ 10763 10752 10751 10750 ] final  -19.80 input  -60.55 | X-H torsion
[ 11005 11000 10999 10996 ] final   87.93 input  -57.11 | X-H torsion

> <Gold.Protein.ActiveResidues>
 VAL166  LYS551  ARG553  GLY616  TRP617  ASP618  TYR619  PRO620  LYS621  CYS622 
 ASP623  PHE694  ASN695  SER759  ASP760  ASP761  ALA762  ILE779  LEU786  VAL792 
 PHE793  MET794  SER795  GLU796  ALA797  LYS798  CYS799  TRP800  GLU811  SER814 

> <Gold.Protein.RotatedAtoms>
  150.8003  134.7092  159.6593 H   0  0  0  0  0  0  0  0  0  0  0  0  # atno 6907 bound_to 6896
  152.4120  134.6105  160.0034 H   0  0  0  0  0  0  0  0  0  0  0  0  # atno 6908 bound_to 6896
  151.6345  133.3293  159.3152 H   0  0  0  0  0  0  0  0  0  0  0  0  # atno 6909 bound_to 6896
  144.7129  140.1374  143.6394 H   0  0  0  0  0  0  0  0  0  0  0  0  # atno 7974 bound_to 7965
  156.2494  140.1947  156.6756 H   0  0  0  0  0  0  0  0  0  0  0  0  # atno 8008 bound_to 7997
  154.6360  140.0589  156.9815 H   0  0  0  0  0  0  0  0  0  0  0  0  # atno 8009 bound_to 7997
  155.1636  140.3262  155.4409 H   0  0  0  0  0  0  0  0  0  0  0  0  # atno 8010 bound_to 7997
  139.5018  144.6166  151.6149 H   0  0  0  0  0  0  0  0  0  0  0  0  # atno 10167 bound_to 10162
  157.3494  131.0948  151.1013 H   0  0  0  0  0  0  0  0  0  0  0  0  # atno 10718 bound_to 10713
  153.6105  135.6996  153.5349 H   0  0  0  0  0  0  0  0  0  0  0  0  # atno 10763 bound_to 10752
  153.3021  135.4126  155.1261 H   0  0  0  0  0  0  0  0  0  0  0  0  # atno 10764 bound_to 10752
  154.8564  135.3651  154.5643 H   0  0  0  0  0  0  0  0  0  0  0  0  # atno 10765 bound_to 10752
  139.8908  134.8455  156.2929 H   0  0  0  0  0  0  0  0  0  0  0  0  # atno 11005 bound_to 11000
  145.9232  139.2559  143.1369 LP  0  0  0  0  0  0  0  0  0  0  0  0  # atno 17320 bound_to 7965
  145.9599  140.8844  143.0216 LP  0  0  0  0  0  0  0  0  0  0  0  0  # atno 17321 bound_to 7965
  140.5856  143.9870  150.6293 LP  0  0  0  0  0  0  0  0  0  0  0  0  # atno 17342 bound_to 10162
  140.3033  143.3246  152.0950 LP  0  0  0  0  0  0  0  0  0  0  0  0  # atno 17343 bound_to 10162
  157.2195  130.6474  149.5805 LP  0  0  0  0  0  0  0  0  0  0  0  0  # atno 17370 bound_to 10713
  155.9719  130.4634  150.6180 LP  0  0  0  0  0  0  0  0  0  0  0  0  # atno 17371 bound_to 10713
  140.9964  133.7178  156.0892 LP  0  0  0  0  0  0  0  0  0  0  0  0  # atno 17394 bound_to 11000
  140.7557  134.3996  157.5534 LP  0  0  0  0  0  0  0  0  0  0  0  0  # atno 17395 bound_to 11000

$$$$
