AV-unprocessed.smi:3207|AV-procd|sdf|12258|dock1
  -GOLD-   2272018 93D 1   1.00000     0.00000
 Structure written by MMmdl.
 32 33  0  0  0  0  0  0  0  0  1 V2000
  152.5327  139.0350  154.8273 C   0  0  0  0  0  0  0  0  0  0  0  0
  151.3914  139.4806  155.7532 C   0  0  2  0  0  0  0  0  0  0  0  0
  150.4723  140.2357  154.9682 O   0  0  0  0  0  0  0  0  0  0  0  0
  149.5798  139.4692  154.1689 C   0  0  0  0  0  0  0  0  0  0  0  0
  148.1828  140.0282  154.3279 C   0  0  0  0  0  0  0  0  0  0  0  0
  147.1419  139.8155  153.2522 C   0  0  0  0  0  0  0  0  0  0  0  0
  147.7230  141.1886  153.4748 C   0  0  0  0  0  0  0  0  0  0  0  0
  151.9185  140.3284  156.9225 C   0  0  0  0  0  0  0  0  0  0  0  0
  152.8032  139.8775  157.6497 O   0  0  0  0  0  0  0  0  0  0  0  0
  151.3751  141.5544  157.0406 N   0  0  0  0  0  0  0  0  0  0  0  0
  151.6489  142.5727  157.9938 C   0  0  0  0  0  0  0  0  0  0  0  0
  152.1295  142.1685  159.2565 C   0  0  0  0  0  0  0  0  0  0  0  0
  152.4246  143.1540  160.2193 C   0  0  0  0  0  0  0  0  0  0  0  0
  152.2784  144.4766  159.9954 N   0  0  0  0  0  0  0  0  0  0  0  0
  151.8297  144.8631  158.7826 C   0  0  0  0  0  0  0  0  0  0  0  0
  151.5058  143.9603  157.7500 C   0  0  0  0  0  0  0  0  0  0  0  0
  153.2803  138.4564  155.3711 H   0  0  0  0  0  0  0  0  0  0  0  0
  153.0355  139.8877  154.3693 H   0  0  0  0  0  0  0  0  0  0  0  0
  152.1527  138.4065  154.0217 H   0  0  0  0  0  0  0  0  0  0  0  0
  150.8918  138.5877  156.1347 H   0  0  0  0  0  0  0  0  0  0  0  0
  149.8662  139.5300  153.1182 H   0  0  0  0  0  0  0  0  0  0  0  0
  149.5836  138.4173  154.4570 H   0  0  0  0  0  0  0  0  0  0  0  0
  147.8212  140.0242  155.3543 H   0  0  0  0  0  0  0  0  0  0  0  0
  147.4440  139.2805  152.3538 H   0  0  0  0  0  0  0  0  0  0  0  0
  146.1167  139.6437  153.5739 H   0  0  0  0  0  0  0  0  0  0  0  0
  147.0849  141.9347  153.9440 H   0  0  0  0  0  0  0  0  0  0  0  0
  148.4110  141.5698  152.7225 H   0  0  0  0  0  0  0  0  0  0  0  0
  150.7118  141.8069  156.3227 H   0  0  0  0  0  0  0  0  0  0  0  0
  152.2677  141.1228  159.4898 H   0  0  0  0  0  0  0  0  0  0  0  0
  152.7901  142.8708  161.1953 H   0  0  0  0  0  0  0  0  0  0  0  0
  151.7313  145.9272  158.6268 H   0  0  0  0  0  0  0  0  0  0  0  0
  151.1709  144.3511  156.8021 H   0  0  0  0  0  0  0  0  0  0  0  0
  1  2  1  0  0  0  0
  1 17  1  0  0  0  0
  1 18  1  0  0  0  0
  1 19  1  0  0  0  0
  2  3  1  0  0  0  0
  2  8  1  0  0  0  0
  2 20  1  0  0  0  0
  3  4  1  0  0  0  0
  4  5  1  0  0  0  0
  4 21  1  0  0  0  0
  4 22  1  0  0  0  0
  5  7  1  0  0  0  0
  5  6  1  0  0  0  0
  5 23  1  0  0  0  0
  6  7  1  0  0  0  0
  6 24  1  0  0  0  0
  6 25  1  0  0  0  0
  7 26  1  0  0  0  0
  7 27  1  0  0  0  0
  8  9  2  0  0  0  0
  8 10  1  0  0  0  0
 10 11  1  0  0  0  0
 10 28  1  0  0  0  0
 11 16  1  0  0  0  0
 11 12  2  0  0  0  0
 12 13  1  0  0  0  0
 12 29  1  0  0  0  0
 13 14  2  0  0  0  0
 13 30  1  0  0  0  0
 14 15  1  0  0  0  0
 15 16  2  0  0  0  0
 15 31  1  0  0  0  0
 16 32  1  0  0  0  0
M  END
> <s_m_source_file>
AV-unprocessed.smi

> <i_m_source_file_index>
3207

> <i_lp_mmshare_version>
43012

> <i_f3d_flags>
0

> <s_epik_input>
W0NIMl0xW0NIMl1bQ0hdMVtDSDJdT1tDQEBIXShbQ0gzXSlDKD1PKVtOSF1jMltjSF1bY0hdbltjSF1bY0hdMg==

> <s_epik_cmdline>
J2VwaWtfcHl0aG9uJywgJy1waCcsICc3LjAnLCAnLXRuJywgJzgnLCAnLW1hJywgJzIwMCcsICctbWV0YWxfYmluZGluZycsICctaW1hZScsICc8aW5maWxlLm1hZT4nLCAnLW9tYWUnLCAnPG91dGZpbGUubWFlPic=

> <r_epik_Ionization_Penalty>
0.00446435

> <r_epik_Ionization_Penalty_Charging>
0

> <r_epik_Ionization_Penalty_Neutral>
0.00446435

> <r_epik_State_Penalty>
0.00321941

> <r_epik_Charging_Adjusted_Penalty>
0.00321941

> <i_epik_Tot_Q>
0

> <i_epik_Tot_abs_Q>
0

> <r_epik_Metal_State_Penalty>
-0

> <b_epik_Metal_Only>
0

> <s_lp_Force_Field>
OPLS_2005

> <r_lp_Energy>
19.7696

> <b_lp_Chiralities_Consistent>
1

> <s_lp_Variant>
AV-unprocessed.smi:3207-1

> <Gold.Version>
5.8.1

> <Gold.Id.Protein>
6NUR|6NUR_protein|mol2

> <Gold.PLP.Fitness>
40.6868

> <Gold.PLP.PLP>
-36.3751

> <Gold.PLP.part.hbond>
-2.0000

> <Gold.PLP.part.metal>
0.0000

> <Gold.PLP.part.buried>
-1.6997

> <Gold.PLP.part.nonpolar>
-31.7400

> <Gold.PLP.part.repulsive>
0.1983

> <Gold.PLP.ligand.clash>
0.0000

> <Gold.PLP.ligand.torsion>
0.9920

> <Gold.PLP.Chemscore.Hbond>
1.9000

> <Gold.PLP.Chemscore.CHOScore>
0.0000

> <Gold.PLP.Chemscore.Metal>
0.0000

> <Gold.Chemscore.Hbonds>
donor molecule, donor type, donor heavy atom, donor atom, acceptor molecule, acceptor atom, score
      P1  H  7989  7998       L1     3  0.85
      P1  H  7997  8008       L1     9  1.00

> <Gold.PLP.Chemscore.Internal.Correction>
0.5957

> <Gold.Rescore>
     Score         DG    S(hbond)    S(metal)    S(lipo)     H(rot)  DE(clash)    DE(int)     intcor
     14.65     -17.18       1.02        0.00     103.16       1.48       0.25       2.28       ----

> <Gold.Chemscore.Fitness>
14.6454

> <Gold.Chemscore.DG>
-17.1782

> <Gold.Chemscore.ZeroCoef>
-5.4800

> <Gold.Chemscore.Hbond>
1.0235

> <Gold.Chemscore.Metal>
0.0000

> <Gold.Chemscore.Lipo>
103.1644

> <Gold.Chemscore.Internal_Hbond>
0.0000

> <Gold.Chemscore.DEClash>
0.2543

> <Gold.Chemscore.DEInternal>
2.2786

> <Gold.Chemscore.Rot>
1.4807

> <Gold.Chemscore.Internal.Correction>
   9.000000E+99

> <Gold.Chemscore.Hbonds>
donor molecule, donor type, donor heavy atom, donor atom, acceptor molecule, acceptor atom, score
      P1  H  7989  7998       L1     3  0.05
      P1  H  7997  8008       L1     9  0.84

> <Gold.Chemscore.Hbond.Weighted>
-3.4184

> <Gold.Chemscore.Metal.Weighted>
-0.0000

> <Gold.Chemscore.Lipo.Weighted>
-12.0702

> <Gold.Chemscore.Internal_Hbond.Weighted>
0.0000

> <Gold.Chemscore.DEClash.Weighted>
0.2543

> <Gold.Chemscore.DEInternal.Weighted>
2.2786

> <Gold.Chemscore.Rot.Weighted>
3.7905

> <Gold.Chemscore.Internal.Correction.Weighted>
   9.000000E+99

> <Gold.Protein.RotatedTorsions>
[ 6907 6896 6895 6894 ] final  -79.79 input  -60.11 | X-H torsion
[ 7974 7965 7964 7962 ] final  -34.31 input  175.53 | X-H torsion
[ 8008 7997 7996 7995 ] final  -79.19 input   59.86 | X-H torsion
[ 10167 10162 10161 10158 ] final -174.38 input  -65.29 | X-H torsion
[ 10718 10713 10712 10709 ] final    7.73 input   66.30 | X-H torsion
[ 10763 10752 10751 10750 ] final  116.75 input  -60.55 | X-H torsion
[ 11005 11000 10999 10996 ] final  108.67 input  -57.11 | X-H torsion

> <Gold.Protein.ActiveResidues>
 VAL166  LYS551  ARG553  GLY616  TRP617  ASP618  TYR619  PRO620  LYS621  CYS622 
 ASP623  PHE694  ASN695  SER759  ASP760  ASP761  ALA762  ILE779  LEU786  VAL792 
 PHE793  MET794  SER795  GLU796  ALA797  LYS798  CYS799  TRP800  GLU811  SER814 

> <Gold.Protein.RotatedAtoms>
  150.6942  134.4068  159.5143 H   0  0  0  0  0  0  0  0  0  0  0  0  # atno 6907 bound_to 6896
  152.1833  134.8732  160.0533 H   0  0  0  0  0  0  0  0  0  0  0  0  # atno 6908 bound_to 6896
  151.9715  133.3692  159.4110 H   0  0  0  0  0  0  0  0  0  0  0  0  # atno 6909 bound_to 6896
  146.0840  140.6022  142.8895 H   0  0  0  0  0  0  0  0  0  0  0  0  # atno 7974 bound_to 7965
  154.5761  140.0682  156.9036 H   0  0  0  0  0  0  0  0  0  0  0  0  # atno 8008 bound_to 7997
  155.2547  140.3354  155.4260 H   0  0  0  0  0  0  0  0  0  0  0  0  # atno 8009 bound_to 7997
  156.2155  140.1776  156.7584 H   0  0  0  0  0  0  0  0  0  0  0  0  # atno 8010 bound_to 7997
  139.5637  144.1808  152.1279 H   0  0  0  0  0  0  0  0  0  0  0  0  # atno 10167 bound_to 10162
  156.9412  130.5862  149.5652 H   0  0  0  0  0  0  0  0  0  0  0  0  # atno 10718 bound_to 10713
  153.5419  135.3557  155.2722 H   0  0  0  0  0  0  0  0  0  0  0  0  # atno 10763 bound_to 10752
  154.8716  135.4093  154.3034 H   0  0  0  0  0  0  0  0  0  0  0  0  # atno 10764 bound_to 10752
  153.3743  135.7065  153.6682 H   0  0  0  0  0  0  0  0  0  0  0  0  # atno 10765 bound_to 10752
  139.8848  134.9437  156.6008 H   0  0  0  0  0  0  0  0  0  0  0  0  # atno 11005 bound_to 11000
  144.7313  140.4679  143.6936 LP  0  0  0  0  0  0  0  0  0  0  0  0  # atno 17320 bound_to 7965
  145.6164  139.1519  143.3047 LP  0  0  0  0  0  0  0  0  0  0  0  0  # atno 17321 bound_to 7965
  140.1326  144.5274  150.6793 LP  0  0  0  0  0  0  0  0  0  0  0  0  # atno 17342 bound_to 10162
  140.6919  143.2381  151.5108 LP  0  0  0  0  0  0  0  0  0  0  0  0  # atno 17343 bound_to 10162
  156.0404  130.5487  150.8756 LP  0  0  0  0  0  0  0  0  0  0  0  0  # atno 17370 bound_to 10713
  157.5784  131.0946  150.9310 LP  0  0  0  0  0  0  0  0  0  0  0  0  # atno 17371 bound_to 10713
  140.7885  133.8602  155.8626 LP  0  0  0  0  0  0  0  0  0  0  0  0  # atno 17394 bound_to 11000
  140.9698  134.1546  157.4586 LP  0  0  0  0  0  0  0  0  0  0  0  0  # atno 17395 bound_to 11000

$$$$
