AV-unprocessed.smi:2090|AV-procd|sdf|8537|dock2
  -GOLD-   2272011253D 1   1.00000     0.00000
 Structure written by MMmdl.
 41 42  0  0  0  0  0  0  0  0  3 V2000
  152.9487  142.9008  160.9186 C   0  0  0  0  0  0  0  0  0  0  0  0
  152.7016  142.0490  159.7209 C   0  0  0  0  0  0  0  0  0  0  0  0
  151.8232  142.1441  158.6789 C   0  0  0  0  0  0  0  0  0  0  0  0
  152.1261  140.9974  157.8973 C   0  0  0  0  0  0  0  0  0  0  0  0
  151.4142  140.7305  156.6979 N   0  0  0  0  0  0  0  0  0  0  0  0
  151.7342  139.8897  155.6973 C   0  0  0  0  0  0  0  0  0  0  0  0
  152.7717  139.2184  155.7519 O   0  0  0  0  0  0  0  0  0  0  0  0
  150.8094  139.9024  154.6972 N   0  5  0  0  0  0  0  0  0  0  0  0
  149.8721  138.8164  154.4151 C   0  0  0  0  0  0  0  0  0  0  0  0
  148.5041  139.3870  153.9876 C   0  0  0  0  0  0  0  0  0  0  0  0
  147.6425  138.3480  153.3638 N   0  3  2  0  0  0  0  0  0  0  0  0
  146.7563  138.8783  152.2905 C   0  0  0  0  0  0  0  0  0  0  0  0
  146.0067  137.7395  151.5766 C   0  0  0  0  0  0  0  0  0  0  0  0
  145.2027  136.8672  152.5582 C   0  0  2  0  0  0  0  0  0  0  0  0
  143.9317  137.5659  153.0723 C   0  0  0  0  0  0  0  0  0  0  0  0
  146.1242  136.3946  153.6975 C   0  0  0  0  0  0  0  0  0  0  0  0
  146.8749  137.5615  154.3641 C   0  0  0  0  0  0  0  0  0  0  0  0
  153.1036  140.2690  158.4162 N   0  0  0  0  0  0  0  0  0  0  0  0
  153.4763  140.9385  159.5878 O   0  0  0  0  0  0  0  0  0  0  0  0
  152.6792  143.9381  160.7190 H   0  0  0  0  0  0  0  0  0  0  0  0
  154.0001  142.8753  161.2053 H   0  0  0  0  0  0  0  0  0  0  0  0
  152.3575  142.5543  161.7664 H   0  0  0  0  0  0  0  0  0  0  0  0
  151.0826  142.9108  158.5058 H   0  0  0  0  0  0  0  0  0  0  0  0
  150.5501  141.2388  156.5823 H   0  0  0  0  0  0  0  0  0  0  0  0
  150.2424  138.1474  153.6372 H   0  0  0  0  0  0  0  0  0  0  0  0
  149.7282  138.1851  155.2922 H   0  0  0  0  0  0  0  0  0  0  0  0
  148.0157  139.7913  154.8758 H   0  0  0  0  0  0  0  0  0  0  0  0
  148.6225  140.2289  153.3035 H   0  0  0  0  0  0  0  0  0  0  0  0
  146.0498  139.5915  152.7170 H   0  0  0  0  0  0  0  0  0  0  0  0
  147.3453  139.4292  151.5567 H   0  0  0  0  0  0  0  0  0  0  0  0
  145.3504  138.1482  150.8073 H   0  0  0  0  0  0  0  0  0  0  0  0
  146.7314  137.1138  151.0536 H   0  0  0  0  0  0  0  0  0  0  0  0
  144.8690  135.9819  152.0155 H   0  0  0  0  0  0  0  0  0  0  0  0
  144.1576  138.4716  153.6348 H   0  0  0  0  0  0  0  0  0  0  0  0
  143.3616  136.9060  153.7267 H   0  0  0  0  0  0  0  0  0  0  0  0
  143.2796  137.8466  152.2447 H   0  0  0  0  0  0  0  0  0  0  0  0
  145.5511  135.8428  154.4435 H   0  0  0  0  0  0  0  0  0  0  0  0
  146.8542  135.6898  153.2965 H   0  0  0  0  0  0  0  0  0  0  0  0
  147.5572  137.1582  155.1132 H   0  0  0  0  0  0  0  0  0  0  0  0
  146.1804  138.2167  154.8916 H   0  0  0  0  0  0  0  0  0  0  0  0
  148.2776  137.6965  152.9252 H   0  0  0  0  0  0  0  0  0  0  0  0
  1  2  1  0  0  0  0
  1 20  1  0  0  0  0
  1 21  1  0  0  0  0
  1 22  1  0  0  0  0
  2 19  1  0  0  0  0
  2  3  2  0  0  0  0
  3  4  1  0  0  0  0
  3 23  1  0  0  0  0
  4  5  1  0  0  0  0
  4 18  2  0  0  0  0
  5  6  1  0  0  0  0
  5 24  1  0  0  0  0
  6  7  2  0  0  0  0
  6  8  1  0  0  0  0
  8  9  1  0  0  0  0
  9 10  1  0  0  0  0
  9 25  1  0  0  0  0
  9 26  1  0  0  0  0
 10 11  1  0  0  0  0
 10 27  1  0  0  0  0
 10 28  1  0  0  0  0
 11 17  1  0  0  0  0
 11 12  1  0  0  0  0
 11 41  1  0  0  0  0
 12 13  1  0  0  0  0
 12 29  1  0  0  0  0
 12 30  1  0  0  0  0
 13 14  1  0  0  0  0
 13 31  1  0  0  0  0
 13 32  1  0  0  0  0
 14 15  1  0  0  0  0
 14 16  1  0  0  0  0
 14 33  1  0  0  0  0
 15 34  1  0  0  0  0
 15 35  1  0  0  0  0
 15 36  1  0  0  0  0
 16 17  1  0  0  0  0
 16 37  1  0  0  0  0
 16 38  1  0  0  0  0
 17 39  1  0  0  0  0
 17 40  1  0  0  0  0
 18 19  1  0  0  0  0
M  CHG  1   8  -1
M  CHG  1  11   1
M  END
> <s_m_source_file>
AV-unprocessed.smi

> <i_m_source_file_index>
2090

> <i_lp_mmshare_version>
43012

> <i_f3d_flags>
0

> <s_epik_input>
W0NIM11jMVtjSF1jKG5vMSlbTkhdQyg9TylbTkhdW0NIMl1bQ0gyXU4yW0NIMl1bQ0gyXVtDSF0oW0NIM10pW0NIMl1bQ0gyXTI=

> <s_epik_cmdline>
J2VwaWtfcHl0aG9uJywgJy1waCcsICc3LjAnLCAnLXRuJywgJzgnLCAnLW1hJywgJzIwMCcsICctbWV0YWxfYmluZGluZycsICctaW1hZScsICc8aW5maWxlLm1hZT4nLCAnLW9tYWUnLCAnPG91dGZpbGUubWFlPic=

> <r_epik_Ionization_Penalty>
6.7721

> <r_epik_Ionization_Penalty_Charging>
6.7721

> <r_epik_Ionization_Penalty_Neutral>
5.78572e-06

> <r_epik_State_Penalty>
6.79704

> <r_epik_Charging_Adjusted_Penalty>
13.5691

> <i_epik_Tot_Q>
0

> <i_epik_Tot_abs_Q>
2

> <r_epik_Metal_State_Penalty>
2.73105

> <b_epik_Metal_Only>
1

> <s_lp_Force_Field>
OPLS_2005

> <r_lp_Energy>
13.6419

> <b_lp_Chiralities_Consistent>
1

> <s_lp_Variant>
AV-unprocessed.smi:2090-6

> <Gold.Version>
5.8.1

> <Gold.Id.Protein>
6NUR|6NUR_protein|mol2

> <Gold.PLP.Fitness>
42.8827

> <Gold.PLP.PLP>
-33.3940

> <Gold.PLP.part.hbond>
-4.0000

> <Gold.PLP.part.metal>
0.0000

> <Gold.PLP.part.buried>
0.2500

> <Gold.PLP.part.nonpolar>
-29.2630

> <Gold.PLP.part.repulsive>
0.2117

> <Gold.PLP.ligand.clash>
0.0000

> <Gold.PLP.ligand.torsion>
1.3062

> <Gold.PLP.Chemscore.Hbond>
4.0000

> <Gold.PLP.Chemscore.CHOScore>
0.0000

> <Gold.PLP.Chemscore.Metal>
0.0000

> <Gold.Chemscore.Hbonds>
donor molecule, donor type, donor heavy atom, donor atom, acceptor molecule, acceptor atom, score
      L1  H    11    41       P1  7948  2.00
      P1  H  7989  7998       L1     8  1.00
      P1  H  7997  8010       L1     7  1.00

> <Gold.PLP.Chemscore.Internal.Correction>
0.1012

> <Gold.Rescore>
     Score         DG    S(hbond)    S(metal)    S(lipo)     H(rot)  DE(clash)    DE(int)     intcor
     16.55     -18.91       2.75        0.00      69.94       1.54       0.01       2.35       ----

> <Gold.Chemscore.Fitness>
16.5506

> <Gold.Chemscore.DG>
-18.9086

> <Gold.Chemscore.ZeroCoef>
-5.4800

> <Gold.Chemscore.Hbond>
2.7514

> <Gold.Chemscore.Metal>
0.0000

> <Gold.Chemscore.Lipo>
69.9445

> <Gold.Chemscore.Internal_Hbond>
0.0000

> <Gold.Chemscore.DEClash>
0.0098

> <Gold.Chemscore.DEInternal>
2.3483

> <Gold.Chemscore.Rot>
1.5409

> <Gold.Chemscore.Internal.Correction>
   9.000000E+99

> <Gold.Chemscore.Hbonds>
donor molecule, donor type, donor heavy atom, donor atom, acceptor molecule, acceptor atom, score
      L1  H    11    41       P1  7948  0.99
      P1  H  7989  7998       L1     8  0.30
      P1  H  7997  8010       L1     7  0.94

> <Gold.Chemscore.Hbond.Weighted>
-9.1898

> <Gold.Chemscore.Metal.Weighted>
-0.0000

> <Gold.Chemscore.Lipo.Weighted>
-8.1835

> <Gold.Chemscore.Internal_Hbond.Weighted>
0.0000

> <Gold.Chemscore.DEClash.Weighted>
0.0098

> <Gold.Chemscore.DEInternal.Weighted>
2.3483

> <Gold.Chemscore.Rot.Weighted>
3.9446

> <Gold.Chemscore.Internal.Correction.Weighted>
   9.000000E+99

> <Gold.Protein.RotatedTorsions>
[ 6907 6896 6895 6894 ] final -103.40 input  -60.11 | X-H torsion
[ 7974 7965 7964 7962 ] final  141.65 input  175.53 | X-H torsion
[ 8008 7997 7996 7995 ] final   75.19 input   59.86 | X-H torsion
[ 10167 10162 10161 10158 ] final  137.70 input  -65.29 | X-H torsion
[ 10718 10713 10712 10709 ] final   50.78 input   66.30 | X-H torsion
[ 10763 10752 10751 10750 ] final    0.06 input  -60.55 | X-H torsion
[ 11005 11000 10999 10996 ] final   35.73 input  -57.11 | X-H torsion

> <Gold.Protein.ActiveResidues>
 VAL166  LYS551  ARG553  GLY616  TRP617  ASP618  TYR619  PRO620  LYS621  CYS622 
 ASP623  PHE694  ASN695  SER759  ASP760  ASP761  ALA762  ILE779  LEU786  VAL792 
 PHE793  MET794  SER795  GLU796  ALA797  LYS798  CYS799  TRP800  GLU811  SER814 

> <Gold.Protein.RotatedAtoms>
  150.7238  134.0435  159.3773 H   0  0  0  0  0  0  0  0  0  0  0  0  # atno 6907 bound_to 6896
  151.8410  135.0588  160.0457 H   0  0  0  0  0  0  0  0  0  0  0  0  # atno 6908 bound_to 6896
  152.2863  133.5482  159.5565 H   0  0  0  0  0  0  0  0  0  0  0  0  # atno 6909 bound_to 6896
  144.9078  139.5335  143.5723 H   0  0  0  0  0  0  0  0  0  0  0  0  # atno 7974 bound_to 7965
  155.8094  140.3473  155.5448 H   0  0  0  0  0  0  0  0  0  0  0  0  # atno 8008 bound_to 7997
  155.8457  140.0948  157.1727 H   0  0  0  0  0  0  0  0  0  0  0  0  # atno 8009 bound_to 7997
  154.4006  140.1386  156.3770 H   0  0  0  0  0  0  0  0  0  0  0  0  # atno 8010 bound_to 7997
  139.5135  144.6395  151.5607 H   0  0  0  0  0  0  0  0  0  0  0  0  # atno 10167 bound_to 10162
  157.4918  130.8381  149.8211 H   0  0  0  0  0  0  0  0  0  0  0  0  # atno 10718 bound_to 10713
  153.3255  135.6972  153.6993 H   0  0  0  0  0  0  0  0  0  0  0  0  # atno 10763 bound_to 10752
  153.5816  135.3497  155.2877 H   0  0  0  0  0  0  0  0  0  0  0  0  # atno 10764 bound_to 10752
  154.8607  135.4296  154.2431 H   0  0  0  0  0  0  0  0  0  0  0  0  # atno 10765 bound_to 10752
  140.2397  134.3429  155.7930 H   0  0  0  0  0  0  0  0  0  0  0  0  # atno 11005 bound_to 11000
  146.3142  139.7859  142.8996 LP  0  0  0  0  0  0  0  0  0  0  0  0  # atno 17320 bound_to 7965
  145.3506  141.0307  143.3340 LP  0  0  0  0  0  0  0  0  0  0  0  0  # atno 17321 bound_to 7965
  140.6157  143.9354  150.6486 LP  0  0  0  0  0  0  0  0  0  0  0  0  # atno 17342 bound_to 10162
  140.2611  143.3523  152.1322 LP  0  0  0  0  0  0  0  0  0  0  0  0  # atno 17343 bound_to 10162
  156.0178  130.3807  150.2057 LP  0  0  0  0  0  0  0  0  0  0  0  0  # atno 17370 bound_to 10713
  157.0246  130.9989  151.3330 LP  0  0  0  0  0  0  0  0  0  0  0  0  # atno 17371 bound_to 10713
  141.2211  133.7292  156.8866 LP  0  0  0  0  0  0  0  0  0  0  0  0  # atno 17394 bound_to 11000
  140.1665  134.9129  157.2781 LP  0  0  0  0  0  0  0  0  0  0  0  0  # atno 17395 bound_to 11000

$$$$
