AV-unprocessed.smi:249|AV-procd|sdf|1909|dock2
  -GOLD-   2262020593D 1   1.00000     0.00000
 Structure written by MMmdl.
 64 67  0  0  0  0  0  0  0  0  2 V2000
  144.4829  133.9104  150.9257 C   0  0  0  0  0  0  0  0  0  0  0  0
  145.9865  134.2108  151.0139 C   0  0  0  0  0  0  0  0  0  0  0  0
  146.3202  135.2584  152.0161 N   0  3  1  0  0  0  0  0  0  0  0  0
  145.5795  136.5250  151.7702 C   0  0  0  0  0  0  0  0  0  0  0  0
  146.1113  137.6666  152.6503 C   0  0  0  0  0  0  0  0  0  0  0  0
  146.0683  137.2772  154.1409 C   0  0  2  0  0  0  0  0  0  0  0  0
  146.4871  138.3558  155.0481 N   0  0  0  0  0  0  0  0  0  0  0  0
  145.4488  139.2157  155.6068 C   0  0  0  0  0  0  0  0  0  0  0  0
  147.7088  138.9483  154.9692 C   0  0  0  0  0  0  0  0  0  0  0  0
  148.5476  138.6590  153.9402 N   0  0  0  0  0  0  0  0  0  0  0  0
  149.7418  139.2510  153.8499 C   0  0  0  0  0  0  0  0  0  0  0  0
  150.2869  140.1558  154.6637 N   0  0  0  0  0  0  0  0  0  0  0  0
  149.4491  140.4596  155.6952 C   0  0  0  0  0  0  0  0  0  0  0  0
  148.1570  139.9064  155.9229 C   0  0  0  0  0  0  0  0  0  0  0  0
  147.6120  140.4452  157.0825 N   0  0  0  0  0  0  0  0  0  0  0  0
  148.5248  141.2733  157.5111 C   0  0  0  0  0  0  0  0  0  0  0  0
  149.6520  141.3610  156.7256 N   0  0  0  0  0  0  0  0  0  0  0  0
  150.8171  142.1932  156.9694 C   0  0  0  0  0  0  0  0  0  0  0  0
  151.9865  141.4836  157.7087 C   0  0  2  0  0  0  0  0  0  0  0  0
  151.8944  139.9592  157.4548 C   0  0  0  0  0  0  0  0  0  0  0  0
  152.5839  139.5904  156.2780 O   0  0  0  0  0  0  0  0  0  0  0  0
  152.0342  141.8055  159.2329 C   0  0  1  0  0  0  0  0  0  0  0  0
  153.2830  141.3199  159.9553 C   0  0  0  0  0  0  0  0  0  0  0  0
  153.2704  142.1549  161.2266 C   0  0  0  0  0  0  0  0  0  0  0  0
  152.8216  143.4314  160.8026 O   0  0  0  0  0  0  0  0  0  0  0  0
  152.0666  143.2996  159.6017 C   0  0  0  0  0  0  0  0  0  0  0  0
  146.8077  135.9396  154.3659 C   0  0  0  0  0  0  0  0  0  0  0  0
  146.2726  134.8216  153.4471 C   0  0  1  0  0  0  0  0  0  0  0  0
  144.8879  134.3056  153.8945 C   0  0  0  0  0  0  0  0  0  0  0  0
  144.3041  133.0443  150.2885 H   0  0  0  0  0  0  0  0  0  0  0  0
  143.9244  134.7422  150.4971 H   0  0  0  0  0  0  0  0  0  0  0  0
  144.0649  133.6886  151.9080 H   0  0  0  0  0  0  0  0  0  0  0  0
  146.4888  133.2871  151.3040 H   0  0  0  0  0  0  0  0  0  0  0  0
  146.3849  134.4722  150.0334 H   0  0  0  0  0  0  0  0  0  0  0  0
  145.6863  136.8143  150.7240 H   0  0  0  0  0  0  0  0  0  0  0  0
  144.5129  136.3766  151.9406 H   0  0  0  0  0  0  0  0  0  0  0  0
  147.1272  137.9051  152.3378 H   0  0  0  0  0  0  0  0  0  0  0  0
  145.5183  138.5646  152.4755 H   0  0  0  0  0  0  0  0  0  0  0  0
  145.0220  137.0972  154.3899 H   0  0  0  0  0  0  0  0  0  0  0  0
  145.4573  139.1637  156.6956 H   0  0  0  0  0  0  0  0  0  0  0  0
  144.4574  138.9100  155.2712 H   0  0  0  0  0  0  0  0  0  0  0  0
  145.5934  140.2558  155.3101 H   0  0  0  0  0  0  0  0  0  0  0  0
  150.3462  138.9602  153.0034 H   0  0  0  0  0  0  0  0  0  0  0  0
  148.3937  141.8560  158.4114 H   0  0  0  0  0  0  0  0  0  0  0  0
  151.1680  142.5865  156.0145 H   0  0  0  0  0  0  0  0  0  0  0  0
  150.4695  143.0542  157.5409 H   0  0  0  0  0  0  0  0  0  0  0  0
  152.9286  141.8196  157.2734 H   0  0  0  0  0  0  0  0  0  0  0  0
  152.3468  139.3895  158.2653 H   0  0  0  0  0  0  0  0  0  0  0  0
  150.8543  139.6402  157.3797 H   0  0  0  0  0  0  0  0  0  0  0  0
  152.0643  138.9539  155.8111 H   0  0  0  0  0  0  0  0  0  0  0  0
  151.1717  141.3475  159.7202 H   0  0  0  0  0  0  0  0  0  0  0  0
  153.2702  140.2511  160.1702 H   0  0  0  0  0  0  0  0  0  0  0  0
  154.1763  141.5443  159.3703 H   0  0  0  0  0  0  0  0  0  0  0  0
  152.5577  141.7478  161.9449 H   0  0  0  0  0  0  0  0  0  0  0  0
  154.2480  142.2107  161.7060 H   0  0  0  0  0  0  0  0  0  0  0  0
  152.5621  143.8895  158.8301 H   0  0  0  0  0  0  0  0  0  0  0  0
  151.0669  143.7060  159.7492 H   0  0  0  0  0  0  0  0  0  0  0  0
  147.8736  136.0481  154.1708 H   0  0  0  0  0  0  0  0  0  0  0  0
  146.7236  135.6374  155.4106 H   0  0  0  0  0  0  0  0  0  0  0  0
  146.9682  133.9910  153.5624 H   0  0  0  0  0  0  0  0  0  0  0  0
  144.9079  134.0188  154.9462 H   0  0  0  0  0  0  0  0  0  0  0  0
  144.5859  133.4201  153.3357 H   0  0  0  0  0  0  0  0  0  0  0  0
  144.1053  135.0545  153.7796 H   0  0  0  0  0  0  0  0  0  0  0  0
  147.2886  135.4872  151.8423 H   0  0  0  0  0  0  0  0  0  0  0  0
  1  2  1  0  0  0  0
  1 30  1  0  0  0  0
  1 31  1  0  0  0  0
  1 32  1  0  0  0  0
  2  3  1  0  0  0  0
  2 33  1  0  0  0  0
  2 34  1  0  0  0  0
  3 28  1  0  0  0  0
  3  4  1  0  0  0  0
  3 64  1  0  0  0  0
  4  5  1  0  0  0  0
  4 35  1  0  0  0  0
  4 36  1  0  0  0  0
  5  6  1  0  0  0  0
  5 37  1  0  0  0  0
  5 38  1  0  0  0  0
  6  7  1  0  0  0  0
  6 27  1  0  0  0  0
  6 39  1  0  0  0  0
  7  8  1  0  0  0  0
  7  9  1  0  0  0  0
  8 40  1  0  0  0  0
  8 41  1  0  0  0  0
  8 42  1  0  0  0  0
  9 14  1  0  0  0  0
  9 10  2  0  0  0  0
 10 11  1  0  0  0  0
 11 12  2  0  0  0  0
 11 43  1  0  0  0  0
 12 13  1  0  0  0  0
 13 17  1  0  0  0  0
 13 14  2  0  0  0  0
 14 15  1  0  0  0  0
 15 16  2  0  0  0  0
 16 17  1  0  0  0  0
 16 44  1  0  0  0  0
 17 18  1  0  0  0  0
 18 19  1  0  0  0  0
 18 45  1  0  0  0  0
 18 46  1  0  0  0  0
 19 20  1  0  0  0  0
 19 22  1  0  0  0  0
 19 47  1  0  0  0  0
 20 21  1  0  0  0  0
 20 48  1  0  0  0  0
 20 49  1  0  0  0  0
 21 50  1  0  0  0  0
 22 26  1  0  0  0  0
 22 23  1  0  0  0  0
 22 51  1  0  0  0  0
 23 24  1  0  0  0  0
 23 52  1  0  0  0  0
 23 53  1  0  0  0  0
 24 25  1  0  0  0  0
 24 54  1  0  0  0  0
 24 55  1  0  0  0  0
 25 26  1  0  0  0  0
 26 56  1  0  0  0  0
 26 57  1  0  0  0  0
 27 28  1  0  0  0  0
 27 58  1  0  0  0  0
 27 59  1  0  0  0  0
 28 29  1  0  0  0  0
 28 60  1  0  0  0  0
 29 61  1  0  0  0  0
 29 62  1  0  0  0  0
 29 63  1  0  0  0  0
M  CHG  1   3   1
M  END
> <s_m_source_file>
AV-unprocessed.smi

> <i_m_source_file_index>
249

> <i_lp_mmshare_version>
43012

> <i_f3d_flags>
0

> <s_epik_input>
W0NIM11bQ0gyXU4xW0NIMl1bQ0gyXVtDQEhdKFtDSDJdW0NASF0xW0NIM10pTihbQ0gzXSljKG5bY0hdbjIpYyhjMjMpbltjSF1uM1tDSDJdW0NASF0oW0NIMl1bT0hdKVtDQEBIXTRbQ0gyXVtDSDJdT1tDSDJdNA==

> <s_epik_cmdline>
J2VwaWtfcHl0aG9uJywgJy1waCcsICc3LjAnLCAnLXRuJywgJzgnLCAnLW1hJywgJzIwMCcsICctbWV0YWxfYmluZGluZycsICctaW1hZScsICc8aW5maWxlLm1hZT4nLCAnLW9tYWUnLCAnPG91dGZpbGUubWFlPic=

> <r_lp_tautomer_probability>
1

> <r_epik_Ionization_Penalty>
0.00294688

> <r_epik_Ionization_Penalty_Charging>
0.00169971

> <r_epik_Ionization_Penalty_Neutral>
0.00124717

> <r_epik_State_Penalty>
-0

> <r_epik_Charging_Adjusted_Penalty>
0.00169971

> <i_epik_Tot_Q>
1

> <i_epik_Tot_abs_Q>
1

> <r_epik_Metal_State_Penalty>
-0

> <b_epik_Metal_Only>
0

> <s_lp_Force_Field>
OPLS_2005

> <r_lp_Energy>
54.5732

> <b_lp_Chiralities_Consistent>
1

> <s_lp_Variant>
AV-unprocessed.smi:249-12

> <Gold.Version>
5.8.1

> <Gold.Id.Protein>
6NUR|6NUR_protein|mol2

> <Gold.PLP.Fitness>
50.7755

> <Gold.PLP.PLP>
-40.1392

> <Gold.PLP.part.hbond>
-3.0000

> <Gold.PLP.part.metal>
0.0000

> <Gold.PLP.part.buried>
-5.3160

> <Gold.PLP.part.nonpolar>
-33.2977

> <Gold.PLP.part.repulsive>
0.4137

> <Gold.PLP.ligand.clash>
0.0000

> <Gold.PLP.ligand.torsion>
1.9473

> <Gold.PLP.Chemscore.Hbond>
3.9500

> <Gold.PLP.Chemscore.CHOScore>
0.5315

> <Gold.PLP.Chemscore.Metal>
0.0000

> <Gold.Chemscore.Hbonds>
donor molecule, donor type, donor heavy atom, donor atom, acceptor molecule, acceptor atom, score
      L1  H     3    64       P1  7948  2.00
      P1  H  7989  7998       L1    12  1.00
      P1  H  7997  8010       L1    21  1.00
      L1  C    11    43       P1  7957  0.61

> <Gold.PLP.Chemscore.Internal.Correction>
1.0865

> <Gold.Rescore>
     Score         DG    S(hbond)    S(metal)    S(lipo)     H(rot)  DE(clash)    DE(int)     intcor
     12.24     -18.05       2.41        0.00      96.56       2.65       0.59       5.21       ----

> <Gold.Chemscore.Fitness>
12.2407

> <Gold.Chemscore.DG>
-18.0454

> <Gold.Chemscore.ZeroCoef>
-5.4800

> <Gold.Chemscore.Hbond>
2.4120

> <Gold.Chemscore.Metal>
0.0000

> <Gold.Chemscore.Lipo>
96.5569

> <Gold.Chemscore.Internal_Hbond>
0.0000

> <Gold.Chemscore.DEClash>
0.5949

> <Gold.Chemscore.DEInternal>
5.2097

> <Gold.Chemscore.Rot>
2.6515

> <Gold.Chemscore.Internal.Correction>
   9.000000E+99

> <Gold.Chemscore.Hbonds>
donor molecule, donor type, donor heavy atom, donor atom, acceptor molecule, acceptor atom, score
      L1  H     3    64       P1  7948  1.00
      P1  H  7989  7998       L1    12  0.25
      P1  H  7997  8010       L1    21  0.70

> <Gold.Chemscore.Hbond.Weighted>
-8.0562

> <Gold.Chemscore.Metal.Weighted>
-0.0000

> <Gold.Chemscore.Lipo.Weighted>
-11.2972

> <Gold.Chemscore.Internal_Hbond.Weighted>
0.0000

> <Gold.Chemscore.DEClash.Weighted>
0.5949

> <Gold.Chemscore.DEInternal.Weighted>
5.2097

> <Gold.Chemscore.Rot.Weighted>
6.7880

> <Gold.Chemscore.Internal.Correction.Weighted>
   9.000000E+99

> <Gold.Protein.RotatedTorsions>
[ 6907 6896 6895 6894 ] final  125.08 input  -60.11 | X-H torsion
[ 7974 7965 7964 7962 ] final  111.34 input  175.53 | X-H torsion
[ 8008 7997 7996 7995 ] final   71.90 input   59.86 | X-H torsion
[ 10167 10162 10161 10158 ] final -155.02 input  -65.29 | X-H torsion
[ 10718 10713 10712 10709 ] final  133.70 input   66.30 | X-H torsion
[ 10763 10752 10751 10750 ] final  -37.31 input  -60.55 | X-H torsion
[ 11005 11000 10999 10996 ] final -113.31 input  -57.11 | X-H torsion

> <Gold.Protein.ActiveResidues>
 VAL166  LYS551  ARG553  GLY616  TRP617  ASP618  TYR619  PRO620  LYS621  CYS622 
 ASP623  PHE694  ASN695  SER759  ASP760  ASP761  ALA762  ILE779  LEU786  VAL792 
 PHE793  MET794  SER795  GLU796  ALA797  LYS798  CYS799  TRP800  GLU811  SER814 

> <Gold.Protein.RotatedAtoms>
  152.4023  133.6836  159.6326 H   0  0  0  0  0  0  0  0  0  0  0  0  # atno 6907 bound_to 6896
  150.7912  133.8770  159.3284 H   0  0  0  0  0  0  0  0  0  0  0  0  # atno 6908 bound_to 6896
  151.6533  135.1000  160.0216 H   0  0  0  0  0  0  0  0  0  0  0  0  # atno 6909 bound_to 6896
  145.2434  139.2769  143.4105 H   0  0  0  0  0  0  0  0  0  0  0  0  # atno 7974 bound_to 7965
  155.7608  140.3486  155.5197 H   0  0  0  0  0  0  0  0  0  0  0  0  # atno 8008 bound_to 7997
  155.8915  140.1019  157.1436 H   0  0  0  0  0  0  0  0  0  0  0  0  # atno 8009 bound_to 7997
  154.4034  140.1303  156.4309 H   0  0  0  0  0  0  0  0  0  0  0  0  # atno 8010 bound_to 7997
  139.6965  143.9333  152.2409 H   0  0  0  0  0  0  0  0  0  0  0  0  # atno 10167 bound_to 10162
  157.4746  131.1082  150.9759 H   0  0  0  0  0  0  0  0  0  0  0  0  # atno 10718 bound_to 10713
  153.8942  135.6809  153.4759 H   0  0  0  0  0  0  0  0  0  0  0  0  # atno 10763 bound_to 10752
  153.1164  135.4759  154.9121 H   0  0  0  0  0  0  0  0  0  0  0  0  # atno 10764 bound_to 10752
  154.7607  135.3210  154.8336 H   0  0  0  0  0  0  0  0  0  0  0  0  # atno 10765 bound_to 10752
  141.0622  133.9517  157.2645 H   0  0  0  0  0  0  0  0  0  0  0  0  # atno 11005 bound_to 11000
  146.3322  140.2804  142.8610 LP  0  0  0  0  0  0  0  0  0  0  0  0  # atno 17320 bound_to 7965
  144.9568  140.8235  143.5538 LP  0  0  0  0  0  0  0  0  0  0  0  0  # atno 17321 bound_to 7965
  139.9164  144.6826  150.8508 LP  0  0  0  0  0  0  0  0  0  0  0  0  # atno 17342 bound_to 10162
  140.7698  143.3406  151.2215 LP  0  0  0  0  0  0  0  0  0  0  0  0  # atno 17343 bound_to 10162
  157.0512  130.5788  149.5371 LP  0  0  0  0  0  0  0  0  0  0  0  0  # atno 17370 bound_to 10713
  156.0090  130.5180  150.7928 LP  0  0  0  0  0  0  0  0  0  0  0  0  # atno 17371 bound_to 10713
  139.9443  135.0186  156.8805 LP  0  0  0  0  0  0  0  0  0  0  0  0  # atno 17394 bound_to 11000
  140.5845  134.0320  155.7476 LP  0  0  0  0  0  0  0  0  0  0  0  0  # atno 17395 bound_to 11000

$$$$
