AV-unprocessed.smi:781|AV-procd|sdf|3714|dock2
  -GOLD-   22720 1133D 1   1.00000     0.00000
 Structure written by MMmdl.
 38 40  0  0  0  0  0  0  0  0  1 V2000
  148.5439  129.7786  152.9761 C   0  0  0  0  0  0  0  0  0  0  0  0
  148.8383  131.1168  153.5626 C   0  0  0  0  0  0  0  0  0  0  0  0
  148.8575  132.3788  153.0386 C   0  0  0  0  0  0  0  0  0  0  0  0
  149.2147  133.1829  154.1536 C   0  0  0  0  0  0  0  0  0  0  0  0
  149.3418  134.5892  154.0248 N   0  0  0  0  0  0  0  0  0  0  0  0
  149.6422  135.4770  154.9880 C   0  0  0  0  0  0  0  0  0  0  0  0
  149.8736  135.1975  156.1645 O   0  0  0  0  0  0  0  0  0  0  0  0
  149.6555  136.7282  154.5075 N   0  0  0  0  0  0  0  0  0  0  0  0
  149.9133  137.9288  155.2987 C   0  0  1  0  0  0  0  0  0  0  0  0
  151.1898  137.7499  156.1501 C   0  0  2  0  0  0  0  0  0  0  0  0
  151.2112  138.8323  157.2440 C   0  0  0  0  0  0  0  0  0  0  0  0
  151.5333  140.1078  156.4432 C   0  0  0  0  0  0  0  0  0  0  0  0
  151.6378  139.5897  154.9924 C   0  0  1  0  0  0  0  0  0  0  0  0
  152.2953  138.2338  155.2155 C   0  0  0  0  0  0  0  0  0  0  0  0
  150.2611  139.1620  154.4247 C   0  0  2  0  0  0  0  0  0  0  0  0
  149.1678  140.2483  154.4021 C   0  0  0  0  0  0  0  0  0  0  0  0
  149.3355  141.0928  153.2829 O   0  0  0  0  0  0  0  0  0  0  0  0
  149.3979  132.4758  155.2583 N   0  0  0  0  0  0  0  0  0  0  0  0
  149.1576  131.1481  154.8849 O   0  0  0  0  0  0  0  0  0  0  0  0
  148.2911  129.8630  151.9190 H   0  0  0  0  0  0  0  0  0  0  0  0
  147.7040  129.3084  153.4879 H   0  0  0  0  0  0  0  0  0  0  0  0
  149.4074  129.1194  153.0658 H   0  0  0  0  0  0  0  0  0  0  0  0
  148.6479  132.6756  152.0220 H   0  0  0  0  0  0  0  0  0  0  0  0
  149.1745  134.9610  153.1017 H   0  0  0  0  0  0  0  0  0  0  0  0
  149.4601  136.8650  153.5266 H   0  0  0  0  0  0  0  0  0  0  0  0
  149.0548  138.1190  155.9460 H   0  0  0  0  0  0  0  0  0  0  0  0
  151.3255  136.7414  156.5431 H   0  0  0  0  0  0  0  0  0  0  0  0
  150.2647  138.9039  157.7810 H   0  0  0  0  0  0  0  0  0  0  0  0
  151.9951  138.6314  157.9754 H   0  0  0  0  0  0  0  0  0  0  0  0
  150.7859  140.8891  156.5732 H   0  0  0  0  0  0  0  0  0  0  0  0
  152.4890  140.5227  156.7664 H   0  0  0  0  0  0  0  0  0  0  0  0
  152.1919  140.2565  154.3311 H   0  0  0  0  0  0  0  0  0  0  0  0
  153.2729  138.2982  155.6970 H   0  0  0  0  0  0  0  0  0  0  0  0
  152.3866  137.6394  154.3047 H   0  0  0  0  0  0  0  0  0  0  0  0
  150.4207  138.8380  153.3939 H   0  0  0  0  0  0  0  0  0  0  0  0
  148.1843  139.7835  154.3321 H   0  0  0  0  0  0  0  0  0  0  0  0
  149.1639  140.8448  155.3135 H   0  0  0  0  0  0  0  0  0  0  0  0
  149.2069  140.5812  152.4988 H   0  0  0  0  0  0  0  0  0  0  0  0
  1  2  1  0  0  0  0
  1 20  1  0  0  0  0
  1 21  1  0  0  0  0
  1 22  1  0  0  0  0
  2 19  1  0  0  0  0
  2  3  2  0  0  0  0
  3  4  1  0  0  0  0
  3 23  1  0  0  0  0
  4  5  1  0  0  0  0
  4 18  2  0  0  0  0
  5  6  1  0  0  0  0
  5 24  1  0  0  0  0
  6  7  2  0  0  0  0
  6  8  1  0  0  0  0
  8  9  1  0  0  0  0
  8 25  1  0  0  0  0
  9 15  1  0  0  0  0
  9 10  1  0  0  0  0
  9 26  1  0  0  0  0
 10 14  1  0  0  0  0
 10 11  1  0  0  0  0
 10 27  1  0  0  0  0
 11 12  1  0  0  0  0
 11 28  1  0  0  0  0
 11 29  1  0  0  0  0
 12 13  1  0  0  0  0
 12 30  1  0  0  0  0
 12 31  1  0  0  0  0
 13 14  1  0  0  0  0
 13 15  1  0  0  0  0
 13 32  1  0  0  0  0
 14 33  1  0  0  0  0
 14 34  1  0  0  0  0
 15 16  1  0  0  0  0
 15 35  1  0  0  0  0
 16 17  1  0  0  0  0
 16 36  1  0  0  0  0
 16 37  1  0  0  0  0
 17 38  1  0  0  0  0
 18 19  1  0  0  0  0
M  END
> <s_m_source_file>
AV-unprocessed.smi

> <i_m_source_file_index>
781

> <i_lp_mmshare_version>
43012

> <i_f3d_flags>
0

> <s_epik_input>
W0NIM11jMVtjSF1jKG5vMSlbTkhdQyg9TylbTkhdW0NASF0oW0NAQEhdMjMpW0NASF0oW0NIMl1bT0hdKVtDQEBIXShbQ0gyXTMpW0NIMl1bQ0gyXTI=

> <s_epik_cmdline>
J2VwaWtfcHl0aG9uJywgJy1waCcsICc3LjAnLCAnLXRuJywgJzgnLCAnLW1hJywgJzIwMCcsICctbWV0YWxfYmluZGluZycsICctaW1hZScsICc8aW5maWxlLm1hZT4nLCAnLW9tYWUnLCAnPG91dGZpbGUubWFlPic=

> <r_lp_tautomer_probability>
1

> <r_epik_Ionization_Penalty>
2.32222e-05

> <r_epik_Ionization_Penalty_Charging>
0

> <r_epik_Ionization_Penalty_Neutral>
2.32222e-05

> <r_epik_State_Penalty>
-0

> <r_epik_Charging_Adjusted_Penalty>
0

> <i_epik_Tot_Q>
0

> <i_epik_Tot_abs_Q>
0

> <r_epik_Metal_State_Penalty>
-0

> <b_epik_Metal_Only>
0

> <s_lp_Force_Field>
OPLS_2005

> <r_lp_Energy>
47.0207

> <b_lp_Chiralities_Consistent>
1

> <s_lp_Variant>
AV-unprocessed.smi:781-8

> <Gold.Version>
5.8.1

> <Gold.Id.Protein>
6NUR|6NUR_protein|mol2

> <Gold.PLP.Fitness>
41.7887

> <Gold.PLP.PLP>
-31.7774

> <Gold.PLP.part.hbond>
-4.4693

> <Gold.PLP.part.metal>
0.0000

> <Gold.PLP.part.buried>
-1.4486

> <Gold.PLP.part.nonpolar>
-25.4171

> <Gold.PLP.part.repulsive>
0.0626

> <Gold.PLP.ligand.clash>
0.0000

> <Gold.PLP.ligand.torsion>
0.3480

> <Gold.PLP.Chemscore.Hbond>
3.5620

> <Gold.PLP.Chemscore.CHOScore>
0.0000

> <Gold.PLP.Chemscore.Metal>
0.0000

> <Gold.Chemscore.Hbonds>
donor molecule, donor type, donor heavy atom, donor atom, acceptor molecule, acceptor atom, score
      L1  H     5    24       P1  7948  0.60
      L1  H     8    25       P1  7948  1.00
      L1  H    17    38       P1  7957  0.91
      P1  H  7989  7998       L1    17  0.03
      P1  H  8011  8017       L1    17  0.45

> <Gold.PLP.Chemscore.Internal.Correction>
0.0213

> <Gold.Rescore>
     Score         DG    S(hbond)    S(metal)    S(lipo)     H(rot)  DE(clash)    DE(int)     intcor
     15.20     -17.15       2.63        0.00      65.29       1.86       0.52       1.43       ----

> <Gold.Chemscore.Fitness>
15.1995

> <Gold.Chemscore.DG>
-17.1512

> <Gold.Chemscore.ZeroCoef>
-5.4800

> <Gold.Chemscore.Hbond>
2.6319

> <Gold.Chemscore.Metal>
0.0000

> <Gold.Chemscore.Lipo>
65.2893

> <Gold.Chemscore.Internal_Hbond>
0.0000

> <Gold.Chemscore.DEClash>
0.5202

> <Gold.Chemscore.DEInternal>
1.4315

> <Gold.Chemscore.Rot>
1.8587

> <Gold.Chemscore.Internal.Correction>
   9.000000E+99

> <Gold.Chemscore.Hbonds>
donor molecule, donor type, donor heavy atom, donor atom, acceptor molecule, acceptor atom, score
      L1  H     5    24       P1  7948  0.04
      L1  H     8    25       P1  7948  0.85
      L1  H    17    38       P1  7957  0.85
      P1  H  8011  8017       L1    17  0.02

> <Gold.Chemscore.Hbond.Weighted>
-8.7906

> <Gold.Chemscore.Metal.Weighted>
-0.0000

> <Gold.Chemscore.Lipo.Weighted>
-7.6388

> <Gold.Chemscore.Internal_Hbond.Weighted>
0.0000

> <Gold.Chemscore.DEClash.Weighted>
0.5202

> <Gold.Chemscore.DEInternal.Weighted>
1.4315

> <Gold.Chemscore.Rot.Weighted>
4.7583

> <Gold.Chemscore.Internal.Correction.Weighted>
   9.000000E+99

> <Gold.Protein.RotatedTorsions>
[ 6907 6896 6895 6894 ] final   42.52 input  -60.11 | X-H torsion
[ 7974 7965 7964 7962 ] final    2.92 input  175.53 | X-H torsion
[ 8008 7997 7996 7995 ] final  141.53 input   59.86 | X-H torsion
[ 10167 10162 10161 10158 ] final  148.90 input  -65.29 | X-H torsion
[ 10718 10713 10712 10709 ] final -166.27 input   66.30 | X-H torsion
[ 10763 10752 10751 10750 ] final   33.79 input  -60.55 | X-H torsion
[ 11005 11000 10999 10996 ] final   26.04 input  -57.11 | X-H torsion

> <Gold.Protein.ActiveResidues>
 VAL166  LYS551  ARG553  GLY616  TRP617  ASP618  TYR619  PRO620  LYS621  CYS622 
 ASP623  PHE694  ASN695  SER759  ASP760  ASP761  ALA762  ILE779  LEU786  VAL792 
 PHE793  MET794  SER795  GLU796  ALA797  LYS798  CYS799  TRP800  GLU811  SER814 

> <Gold.Protein.RotatedAtoms>
  152.2089  134.8520  160.0499 H   0  0  0  0  0  0  0  0  0  0  0  0  # atno 6907 bound_to 6896
  151.9346  133.3615  159.3951 H   0  0  0  0  0  0  0  0  0  0  0  0  # atno 6908 bound_to 6896
  150.6971  134.4427  159.5343 H   0  0  0  0  0  0  0  0  0  0  0  0  # atno 6909 bound_to 6896
  146.2444  140.0763  142.8359 H   0  0  0  0  0  0  0  0  0  0  0  0  # atno 7974 bound_to 7965
  156.2964  140.2313  156.4579 H   0  0  0  0  0  0  0  0  0  0  0  0  # atno 8008 bound_to 7997
  154.8044  140.0446  157.1317 H   0  0  0  0  0  0  0  0  0  0  0  0  # atno 8009 bound_to 7997
  154.9496  140.3040  155.5085 H   0  0  0  0  0  0  0  0  0  0  0  0  # atno 8010 bound_to 7997
  139.4868  144.5643  151.7173 H   0  0  0  0  0  0  0  0  0  0  0  0  # atno 10167 bound_to 10162
  156.6654  130.9063  151.3035 H   0  0  0  0  0  0  0  0  0  0  0  0  # atno 10718 bound_to 10713
  153.0194  135.6377  154.1567 H   0  0  0  0  0  0  0  0  0  0  0  0  # atno 10763 bound_to 10752
  154.1303  135.2841  155.3188 H   0  0  0  0  0  0  0  0  0  0  0  0  # atno 10764 bound_to 10752
  154.6199  135.5528  153.7625 H   0  0  0  0  0  0  0  0  0  0  0  0  # atno 10765 bound_to 10752
  140.3413  134.2329  155.7689 H   0  0  0  0  0  0  0  0  0  0  0  0  # atno 11005 bound_to 11000
  145.0772  140.9196  143.4847 LP  0  0  0  0  0  0  0  0  0  0  0  0  # atno 17320 bound_to 7965
  145.0909  139.2891  143.5735 LP  0  0  0  0  0  0  0  0  0  0  0  0  # atno 17321 bound_to 7965
  140.5219  144.0866  150.6025 LP  0  0  0  0  0  0  0  0  0  0  0  0  # atno 17342 bound_to 10162
  140.3827  143.2794  152.0152 LP  0  0  0  0  0  0  0  0  0  0  0  0  # atno 17343 bound_to 10162
  157.7095  130.9424  150.1042 LP  0  0  0  0  0  0  0  0  0  0  0  0  # atno 17370 bound_to 10713
  156.1979  130.3658  149.8826 LP  0  0  0  0  0  0  0  0  0  0  0  0  # atno 17371 bound_to 10713
  141.2037  133.7904  157.0323 LP  0  0  0  0  0  0  0  0  0  0  0  0  # atno 17394 bound_to 11000
  140.0778  134.9665  157.1575 LP  0  0  0  0  0  0  0  0  0  0  0  0  # atno 17395 bound_to 11000

$$$$
