AV-unprocessed.smi:3123|AV-procd|sdf|11901|dock9
  -GOLD-   2272017283D 1   1.00000     0.00000
 Structure written by MMmdl.
 29 30  0  0  0  0  0  0  0  0  1 V2000
  148.4728  142.4999  155.5351 N   0  0  0  0  0  0  0  0  0  0  0  0
  149.1411  141.5140  154.7104 C   0  0  0  0  0  0  0  0  0  0  0  0
  150.3385  140.9017  155.4060 C   0  0  0  0  0  0  0  0  0  0  0  0
  151.1077  139.9069  154.7697 C   0  0  0  0  0  0  0  0  0  0  0  0
  152.2066  139.3648  155.4641 C   0  0  0  0  0  0  0  0  0  0  0  0
  152.5597  139.7494  156.7090 N   0  0  0  0  0  0  0  0  0  0  0  0
  151.8176  140.7044  157.3204 C   0  0  0  0  0  0  0  0  0  0  0  0
  152.1843  141.1093  158.6119 N   0  0  0  0  0  0  0  0  0  0  0  0
  153.3327  140.3863  159.1441 C   0  0  0  0  0  0  0  0  0  0  0  0
  153.5873  140.8038  160.6031 C   0  0  0  0  0  0  0  0  0  0  0  0
  153.7537  142.2173  160.6754 O   0  0  0  0  0  0  0  0  0  0  0  0
  152.5976  142.9158  160.2214 C   0  0  0  0  0  0  0  0  0  0  0  0
  152.3209  142.5538  158.7521 C   0  0  0  0  0  0  0  0  0  0  0  0
  150.6977  141.3053  156.7079 C   0  0  0  0  0  0  0  0  0  0  0  0
  148.7533  143.4279  155.2524 H   0  0  0  0  0  0  0  0  0  0  0  0
  147.4752  142.4401  155.3889 H   0  0  0  0  0  0  0  0  0  0  0  0
  148.4321  140.7254  154.4561 H   0  0  0  0  0  0  0  0  0  0  0  0
  149.4499  141.9793  153.7739 H   0  0  0  0  0  0  0  0  0  0  0  0
  150.8637  139.5665  153.7741 H   0  0  0  0  0  0  0  0  0  0  0  0
  152.8193  138.6017  155.0071 H   0  0  0  0  0  0  0  0  0  0  0  0
  153.1520  139.3122  159.0879 H   0  0  0  0  0  0  0  0  0  0  0  0
  154.2157  140.5981  158.5393 H   0  0  0  0  0  0  0  0  0  0  0  0
  152.7634  140.4911  161.2464 H   0  0  0  0  0  0  0  0  0  0  0  0
  154.4882  140.3204  160.9811 H   0  0  0  0  0  0  0  0  0  0  0  0
  151.7405  142.6704  160.8508 H   0  0  0  0  0  0  0  0  0  0  0  0
  152.7685  143.9879  160.3189 H   0  0  0  0  0  0  0  0  0  0  0  0
  153.1378  142.9115  158.1239 H   0  0  0  0  0  0  0  0  0  0  0  0
  151.4098  143.0461  158.4096 H   0  0  0  0  0  0  0  0  0  0  0  0
  150.1265  142.0621  157.2260 H   0  0  0  0  0  0  0  0  0  0  0  0
  1  2  1  0  0  0  0
  1 15  1  0  0  0  0
  1 16  1  0  0  0  0
  2  3  1  0  0  0  0
  2 17  1  0  0  0  0
  2 18  1  0  0  0  0
  3 14  1  0  0  0  0
  3  4  2  0  0  0  0
  4  5  1  0  0  0  0
  4 19  1  0  0  0  0
  5  6  2  0  0  0  0
  5 20  1  0  0  0  0
  6  7  1  0  0  0  0
  7  8  1  0  0  0  0
  7 14  2  0  0  0  0
  8 13  1  0  0  0  0
  8  9  1  0  0  0  0
  9 10  1  0  0  0  0
  9 21  1  0  0  0  0
  9 22  1  0  0  0  0
 10 11  1  0  0  0  0
 10 23  1  0  0  0  0
 10 24  1  0  0  0  0
 11 12  1  0  0  0  0
 12 13  1  0  0  0  0
 12 25  1  0  0  0  0
 12 26  1  0  0  0  0
 13 27  1  0  0  0  0
 13 28  1  0  0  0  0
 14 29  1  0  0  0  0
M  END
> <s_m_source_file>
AV-unprocessed.smi

> <i_m_source_file_index>
3123

> <i_lp_mmshare_version>
43012

> <i_f3d_flags>
0

> <s_epik_input>
W05IMl1bQ0gyXWMxW2NIXVtjSF1uYyhbY0hdMSlOMltDSDJdW0NIMl1PW0NIMl1bQ0gyXTI=

> <s_epik_cmdline>
J2VwaWtfcHl0aG9uJywgJy1waCcsICc3LjAnLCAnLXRuJywgJzgnLCAnLW1hJywgJzIwMCcsICctbWV0YWxfYmluZGluZycsICctaW1hZScsICc8aW5maWxlLm1hZT4nLCAnLW9tYWUnLCAnPG91dGZpbGUubWFlPic=

> <r_lp_tautomer_probability>
1

> <r_epik_Ionization_Penalty>
1.26929

> <r_epik_Ionization_Penalty_Charging>
0

> <r_epik_Ionization_Penalty_Neutral>
1.26929

> <r_epik_State_Penalty>
2.46732

> <r_epik_Charging_Adjusted_Penalty>
2.46732

> <i_epik_Tot_Q>
0

> <i_epik_Tot_abs_Q>
0

> <r_epik_Metal_State_Penalty>
2.44539

> <b_epik_Metal_Only>
0

> <s_lp_Force_Field>
OPLS_2005

> <r_lp_Energy>
17.6888

> <b_lp_Chiralities_Consistent>
1

> <s_lp_Variant>
AV-unprocessed.smi:3123-2

> <Gold.Version>
5.8.1

> <Gold.Id.Protein>
6NUR|6NUR_protein|mol2

> <Gold.PLP.Fitness>
35.3811

> <Gold.PLP.PLP>
-29.4202

> <Gold.PLP.part.hbond>
-1.9007

> <Gold.PLP.part.metal>
0.0000

> <Gold.PLP.part.buried>
-1.1835

> <Gold.PLP.part.nonpolar>
-26.2924

> <Gold.PLP.part.repulsive>
0.0000

> <Gold.PLP.ligand.clash>
0.0000

> <Gold.PLP.ligand.torsion>
0.0713

> <Gold.PLP.Chemscore.Hbond>
2.0000

> <Gold.PLP.Chemscore.CHOScore>
0.0000

> <Gold.PLP.Chemscore.Metal>
0.0000

> <Gold.Chemscore.Hbonds>
donor molecule, donor type, donor heavy atom, donor atom, acceptor molecule, acceptor atom, score
      L1  H     1    15       P1  8028  0.49
      P1  H  7997  8010       L1     6  1.00

> <Gold.PLP.Chemscore.Internal.Correction>
0.1035

> <Gold.Rescore>
     Score         DG    S(hbond)    S(metal)    S(lipo)     H(rot)  DE(clash)    DE(int)     intcor
     15.73     -16.08       1.58        0.00      73.55       1.29       0.30       0.06       ----

> <Gold.Chemscore.Fitness>
15.7258

> <Gold.Chemscore.DG>
-16.0780

> <Gold.Chemscore.ZeroCoef>
-5.4800

> <Gold.Chemscore.Hbond>
1.5835

> <Gold.Chemscore.Metal>
0.0000

> <Gold.Chemscore.Lipo>
73.5482

> <Gold.Chemscore.Internal_Hbond>
0.0000

> <Gold.Chemscore.DEClash>
0.2967

> <Gold.Chemscore.DEInternal>
0.0554

> <Gold.Chemscore.Rot>
1.2875

> <Gold.Chemscore.Internal.Correction>
   9.000000E+99

> <Gold.Chemscore.Hbonds>
donor molecule, donor type, donor heavy atom, donor atom, acceptor molecule, acceptor atom, score
      L1  H     1    15       P1  8028  0.48
      P1  H  7997  8010       L1     6  0.37

> <Gold.Chemscore.Hbond.Weighted>
-5.2889

> <Gold.Chemscore.Metal.Weighted>
-0.0000

> <Gold.Chemscore.Lipo.Weighted>
-8.6051

> <Gold.Chemscore.Internal_Hbond.Weighted>
0.0000

> <Gold.Chemscore.DEClash.Weighted>
0.2967

> <Gold.Chemscore.DEInternal.Weighted>
0.0554

> <Gold.Chemscore.Rot.Weighted>
3.2961

> <Gold.Chemscore.Internal.Correction.Weighted>
   9.000000E+99

> <Gold.Protein.RotatedTorsions>
[ 6907 6896 6895 6894 ] final  -28.53 input  -60.11 | X-H torsion
[ 7974 7965 7964 7962 ] final -143.50 input  175.53 | X-H torsion
[ 8008 7997 7996 7995 ] final   65.99 input   59.86 | X-H torsion
[ 10167 10162 10161 10158 ] final  -14.42 input  -65.29 | X-H torsion
[ 10718 10713 10712 10709 ] final  176.61 input   66.30 | X-H torsion
[ 10763 10752 10751 10750 ] final  -16.96 input  -60.55 | X-H torsion
[ 11005 11000 10999 10996 ] final -171.97 input  -57.11 | X-H torsion

> <Gold.Protein.ActiveResidues>
 VAL166  LYS551  ARG553  GLY616  TRP617  ASP618  TYR619  PRO620  LYS621  CYS622 
 ASP623  PHE694  ASN695  SER759  ASP760  ASP761  ALA762  ILE779  LEU786  VAL792 
 PHE793  MET794  SER795  GLU796  ALA797  LYS798  CYS799  TRP800  GLU811  SER814 

> <Gold.Protein.RotatedAtoms>
  151.1317  135.0133  159.8585 H   0  0  0  0  0  0  0  0  0  0  0  0  # atno 6907 bound_to 6896
  152.5451  134.1603  159.8565 H   0  0  0  0  0  0  0  0  0  0  0  0  # atno 6908 bound_to 6896
  151.1670  133.4763  159.2627 H   0  0  0  0  0  0  0  0  0  0  0  0  # atno 6909 bound_to 6896
  144.8365  140.5827  143.5480 H   0  0  0  0  0  0  0  0  0  0  0  0  # atno 7974 bound_to 7965
  155.6703  140.3497  155.4816 H   0  0  0  0  0  0  0  0  0  0  0  0  # atno 8008 bound_to 7997
  155.9694  140.1152  157.0849 H   0  0  0  0  0  0  0  0  0  0  0  0  # atno 8009 bound_to 7997
  154.4162  140.1160  156.5272 H   0  0  0  0  0  0  0  0  0  0  0  0  # atno 8010 bound_to 7997
  140.7201  143.5323  150.9505 H   0  0  0  0  0  0  0  0  0  0  0  0  # atno 10167 bound_to 10162
  156.9176  130.9930  151.3010 H   0  0  0  0  0  0  0  0  0  0  0  0  # atno 10718 bound_to 10713
  153.5666  135.7008  153.5523 H   0  0  0  0  0  0  0  0  0  0  0  0  # atno 10763 bound_to 10752
  153.3382  135.4028  155.1550 H   0  0  0  0  0  0  0  0  0  0  0  0  # atno 10764 bound_to 10752
  154.8640  135.3735  154.5186 H   0  0  0  0  0  0  0  0  0  0  0  0  # atno 10765 bound_to 10752
  140.5023  134.5882  157.4992 H   0  0  0  0  0  0  0  0  0  0  0  0  # atno 11005 bound_to 11000
  145.4784  139.1497  143.3775 LP  0  0  0  0  0  0  0  0  0  0  0  0  # atno 17320 bound_to 7965
  146.2663  140.4919  142.8833 LP  0  0  0  0  0  0  0  0  0  0  0  0  # atno 17321 bound_to 7965
  139.9044  143.6797  152.3126 LP  0  0  0  0  0  0  0  0  0  0  0  0  # atno 17342 bound_to 10162
  139.7157  144.7612  151.1037 LP  0  0  0  0  0  0  0  0  0  0  0  0  # atno 17343 bound_to 10162
  157.5928  130.8456  149.8684 LP  0  0  0  0  0  0  0  0  0  0  0  0  # atno 17370 bound_to 10713
  156.0506  130.3718  150.1211 LP  0  0  0  0  0  0  0  0  0  0  0  0  # atno 17371 bound_to 10713
  139.9706  134.7299  156.0049 LP  0  0  0  0  0  0  0  0  0  0  0  0  # atno 17394 bound_to 11000
  141.1429  133.6561  156.3782 LP  0  0  0  0  0  0  0  0  0  0  0  0  # atno 17395 bound_to 11000

$$$$
