AV-unprocessed.smi:170|AV-procd|sdf|1409|dock6
  -GOLD-   2262019163D 1   1.00000     0.00000
 Structure written by MMmdl.
 57 61  0  0  0  0  0  0  0  0  1 V2000
  150.9943  143.6049  156.5024 O   0  0  0  0  0  0  0  0  0  0  0  0
  151.3115  142.9752  157.7297 C   0  0  1  0  0  0  0  0  0  0  0  0
  151.9409  141.5904  157.4845 C   0  0  0  0  0  0  0  0  0  0  0  0
  150.9438  140.5413  157.3711 N   0  0  0  0  0  0  0  0  0  0  0  0
  149.7827  140.5817  156.6345 C   0  0  0  0  0  0  0  0  0  0  0  0
  149.0486  139.5047  156.6981 N   0  0  0  0  0  0  0  0  0  0  0  0
  149.7605  138.6532  157.5359 C   0  0  0  0  0  0  0  0  0  0  0  0
  149.5576  137.3299  158.0266 C   0  0  0  0  0  0  0  0  0  0  0  0
  148.5002  136.5361  157.7331 N   0  0  0  0  0  0  0  0  0  0  0  0
  148.7940  135.7011  156.5739 C   0  0  0  0  0  0  0  0  0  0  0  0
  147.5286  134.9683  156.1088 C   0  0  0  0  0  0  0  0  0  0  0  0
  147.0066  134.2129  157.1931 O   0  0  0  0  0  0  0  0  0  0  0  0
  146.6273  135.0433  158.2847 C   0  0  0  0  0  0  0  0  0  0  0  0
  147.8520  135.8118  158.8347 C   0  0  2  0  0  0  0  0  0  0  0  0
  147.4484  136.7459  160.0057 C   0  0  0  0  0  0  0  0  0  0  0  0
  146.9654  136.0038  161.2499 C   0  0  0  0  0  0  0  0  0  0  0  0
  147.6567  136.2505  162.5993 C   0  0  0  0  0  0  0  0  0  0  0  0
  147.4221  134.7754  162.9372 C   0  0  0  0  0  0  0  0  0  0  0  0
  147.3093  134.5174  161.4327 C   0  0  0  0  0  0  0  0  0  0  0  0
  150.4870  136.8197  158.8726 N   0  0  0  0  0  0  0  0  0  0  0  0
  151.5606  137.5427  159.2052 C   0  0  0  0  0  0  0  0  0  0  0  0
  151.8914  138.7756  158.8149 N   0  0  0  0  0  0  0  0  0  0  0  0
  150.9520  139.2972  157.9749 C   0  0  0  0  0  0  0  0  0  0  0  0
  152.2064  143.8932  158.5858 C   0  0  2  0  0  0  0  0  0  0  0  0
  152.7208  143.3027  159.9098 C   0  0  0  0  0  0  0  0  0  0  0  0
  152.4016  144.3774  160.9376 C   0  0  0  0  0  0  0  0  0  0  0  0
  152.1620  145.6193  160.0871 C   0  0  0  0  0  0  0  0  0  0  0  0
  151.5289  145.0957  158.9321 O   0  0  0  0  0  0  0  0  0  0  0  0
  150.2541  144.1752  156.6443 H   0  0  0  0  0  0  0  0  0  0  0  0
  150.3689  142.8369  158.2612 H   0  0  0  0  0  0  0  0  0  0  0  0
  152.5436  141.5958  156.5753 H   0  0  0  0  0  0  0  0  0  0  0  0
  152.6145  141.3329  158.3028 H   0  0  0  0  0  0  0  0  0  0  0  0
  149.4934  141.4418  156.0482 H   0  0  0  0  0  0  0  0  0  0  0  0
  149.1846  136.3090  155.7566 H   0  0  0  0  0  0  0  0  0  0  0  0
  149.5684  134.9782  156.8353 H   0  0  0  0  0  0  0  0  0  0  0  0
  146.7798  135.6720  155.7415 H   0  0  0  0  0  0  0  0  0  0  0  0
  147.7651  134.2937  155.2862 H   0  0  0  0  0  0  0  0  0  0  0  0
  145.8406  135.7318  157.9717 H   0  0  0  0  0  0  0  0  0  0  0  0
  146.1983  134.4000  159.0524 H   0  0  0  0  0  0  0  0  0  0  0  0
  148.5561  135.0673  159.2051 H   0  0  0  0  0  0  0  0  0  0  0  0
  148.2899  137.3745  160.2948 H   0  0  0  0  0  0  0  0  0  0  0  0
  146.6767  137.4376  159.6659 H   0  0  0  0  0  0  0  0  0  0  0  0
  145.8910  136.1342  161.3918 H   0  0  0  0  0  0  0  0  0  0  0  0
  148.7155  136.4947  162.4981 H   0  0  0  0  0  0  0  0  0  0  0  0
  147.1426  136.9560  163.2527 H   0  0  0  0  0  0  0  0  0  0  0  0
  148.2610  134.2784  163.4250 H   0  0  0  0  0  0  0  0  0  0  0  0
  146.4833  134.6053  163.4669 H   0  0  0  0  0  0  0  0  0  0  0  0
  146.5161  133.8272  161.1438 H   0  0  0  0  0  0  0  0  0  0  0  0
  148.2641  134.2450  160.9793 H   0  0  0  0  0  0  0  0  0  0  0  0
  152.2549  137.0645  159.8805 H   0  0  0  0  0  0  0  0  0  0  0  0
  153.0719  144.1863  157.9887 H   0  0  0  0  0  0  0  0  0  0  0  0
  152.2507  142.3558  160.1759 H   0  0  0  0  0  0  0  0  0  0  0  0
  153.7955  143.1276  159.8496 H   0  0  0  0  0  0  0  0  0  0  0  0
  151.4860  144.1164  161.4698 H   0  0  0  0  0  0  0  0  0  0  0  0
  153.1939  144.5144  161.6739 H   0  0  0  0  0  0  0  0  0  0  0  0
  151.5403  146.3617  160.5877 H   0  0  0  0  0  0  0  0  0  0  0  0
  153.1059  146.0898  159.8066 H   0  0  0  0  0  0  0  0  0  0  0  0
  1  2  1  0  0  0  0
  1 29  1  0  0  0  0
  2  3  1  0  0  0  0
  2 24  1  0  0  0  0
  2 30  1  0  0  0  0
  3  4  1  0  0  0  0
  3 31  1  0  0  0  0
  3 32  1  0  0  0  0
  4 23  1  0  0  0  0
  4  5  1  0  0  0  0
  5  6  2  0  0  0  0
  5 33  1  0  0  0  0
  6  7  1  0  0  0  0
  7 23  2  0  0  0  0
  7  8  1  0  0  0  0
  8  9  1  0  0  0  0
  8 20  2  0  0  0  0
  9 14  1  0  0  0  0
  9 10  1  0  0  0  0
 10 11  1  0  0  0  0
 10 34  1  0  0  0  0
 10 35  1  0  0  0  0
 11 12  1  0  0  0  0
 11 36  1  0  0  0  0
 11 37  1  0  0  0  0
 12 13  1  0  0  0  0
 13 14  1  0  0  0  0
 13 38  1  0  0  0  0
 13 39  1  0  0  0  0
 14 15  1  0  0  0  0
 14 40  1  0  0  0  0
 15 16  1  0  0  0  0
 15 41  1  0  0  0  0
 15 42  1  0  0  0  0
 16 19  1  0  0  0  0
 16 17  1  0  0  0  0
 16 43  1  0  0  0  0
 17 18  1  0  0  0  0
 17 44  1  0  0  0  0
 17 45  1  0  0  0  0
 18 19  1  0  0  0  0
 18 46  1  0  0  0  0
 18 47  1  0  0  0  0
 19 48  1  0  0  0  0
 19 49  1  0  0  0  0
 20 21  1  0  0  0  0
 21 22  2  0  0  0  0
 21 50  1  0  0  0  0
 22 23  1  0  0  0  0
 24 28  1  0  0  0  0
 24 25  1  0  0  0  0
 24 51  1  0  0  0  0
 25 26  1  0  0  0  0
 25 52  1  0  0  0  0
 25 53  1  0  0  0  0
 26 27  1  0  0  0  0
 26 54  1  0  0  0  0
 26 55  1  0  0  0  0
 27 28  1  0  0  0  0
 27 56  1  0  0  0  0
 27 57  1  0  0  0  0
M  END
> <s_m_source_file>
AV-unprocessed.smi

> <i_m_source_file_index>
170

> <i_lp_mmshare_version>
43012

> <i_f3d_flags>
0

> <s_epik_input>
TzFbQ0gyXVtDSDJdW0NIMl1bQ0BIXTFbQ0BIXShbT0hdKVtDSDJdbihbY0hdbjIpYyhjMjMpbltjSF1uYzNONFtDSDJdW0NIMl1PW0NIMl1bQ0BIXTRbQ0gyXVtDSF01W0NIMl1bQ0gyXVtDSDJdNQ==

> <s_epik_cmdline>
J2VwaWtfcHl0aG9uJywgJy1waCcsICc3LjAnLCAnLXRuJywgJzgnLCAnLW1hJywgJzIwMCcsICctbWV0YWxfYmluZGluZycsICctaW1hZScsICc8aW5maWxlLm1hZT4nLCAnLW9tYWUnLCAnPG91dGZpbGUubWFlPic=

> <r_lp_tautomer_probability>
1

> <r_epik_Ionization_Penalty>
4.98275e-05

> <r_epik_Ionization_Penalty_Charging>
0

> <r_epik_Ionization_Penalty_Neutral>
4.98275e-05

> <r_epik_State_Penalty>
-0

> <r_epik_Charging_Adjusted_Penalty>
0

> <i_epik_Tot_Q>
0

> <i_epik_Tot_abs_Q>
0

> <r_epik_Metal_State_Penalty>
-0

> <b_epik_Metal_Only>
0

> <s_lp_Force_Field>
OPLS_2005

> <r_lp_Energy>
52.3548

> <b_lp_Chiralities_Consistent>
1

> <s_lp_Variant>
AV-unprocessed.smi:170-4

> <Gold.Version>
5.8.1

> <Gold.Id.Protein>
6NUR|6NUR_protein|mol2

> <Gold.PLP.Fitness>
50.4503

> <Gold.PLP.PLP>
-47.8281

> <Gold.PLP.part.hbond>
-2.0000

> <Gold.PLP.part.metal>
0.0000

> <Gold.PLP.part.buried>
-8.2917

> <Gold.PLP.part.nonpolar>
-38.8454

> <Gold.PLP.part.repulsive>
0.1281

> <Gold.PLP.ligand.clash>
0.0000

> <Gold.PLP.ligand.torsion>
1.8293

> <Gold.PLP.Chemscore.Hbond>
1.9440

> <Gold.PLP.Chemscore.CHOScore>
0.0000

> <Gold.PLP.Chemscore.Metal>
0.0000

> <Gold.Chemscore.Hbonds>
donor molecule, donor type, donor heavy atom, donor atom, acceptor molecule, acceptor atom, score
      L1  H     1    29       P1  8028  0.72
      P1  H  6896  6909       L1    20  0.48

> <Gold.PLP.Chemscore.Internal.Correction>
0.4488

> <Gold.Rescore>
     Score         DG    S(hbond)    S(metal)    S(lipo)     H(rot)  DE(clash)    DE(int)     intcor
     17.52     -19.18       1.86        0.00     121.30       2.61       0.16       1.50       ----

> <Gold.Chemscore.Fitness>
17.5218

> <Gold.Chemscore.DG>
-19.1761

> <Gold.Chemscore.ZeroCoef>
-5.4800

> <Gold.Chemscore.Hbond>
1.8555

> <Gold.Chemscore.Metal>
0.0000

> <Gold.Chemscore.Lipo>
121.2971

> <Gold.Chemscore.Internal_Hbond>
0.0000

> <Gold.Chemscore.DEClash>
0.1587

> <Gold.Chemscore.DEInternal>
1.4955

> <Gold.Chemscore.Rot>
2.6144

> <Gold.Chemscore.Internal.Correction>
   9.000000E+99

> <Gold.Chemscore.Hbonds>
donor molecule, donor type, donor heavy atom, donor atom, acceptor molecule, acceptor atom, score
      L1  H     1    29       P1  8028  0.72
      P1  H  6896  6909       L1    20  0.03

> <Gold.Chemscore.Hbond.Weighted>
-6.1972

> <Gold.Chemscore.Metal.Weighted>
-0.0000

> <Gold.Chemscore.Lipo.Weighted>
-14.1918

> <Gold.Chemscore.Internal_Hbond.Weighted>
0.0000

> <Gold.Chemscore.DEClash.Weighted>
0.1587

> <Gold.Chemscore.DEInternal.Weighted>
1.4955

> <Gold.Chemscore.Rot.Weighted>
6.6929

> <Gold.Chemscore.Internal.Correction.Weighted>
   9.000000E+99

> <Gold.Protein.RotatedTorsions>
[ 6907 6896 6895 6894 ] final  100.73 input  -60.11 | X-H torsion
[ 7974 7965 7964 7962 ] final -146.31 input  175.53 | X-H torsion
[ 8008 7997 7996 7995 ] final  -34.18 input   59.86 | X-H torsion
[ 10167 10162 10161 10158 ] final -133.39 input  -65.29 | X-H torsion
[ 10718 10713 10712 10709 ] final   -2.86 input   66.30 | X-H torsion
[ 10763 10752 10751 10750 ] final  105.83 input  -60.55 | X-H torsion
[ 11005 11000 10999 10996 ] final  119.26 input  -57.11 | X-H torsion

> <Gold.Protein.ActiveResidues>
 VAL166  LYS551  ARG553  GLY616  TRP617  ASP618  TYR619  PRO620  LYS621  CYS622 
 ASP623  PHE694  ASN695  SER759  ASP760  ASP761  ALA762  ILE779  LEU786  VAL792 
 PHE793  MET794  SER795  GLU796  ALA797  LYS798  CYS799  TRP800  GLU811  SER814 

> <Gold.Protein.RotatedAtoms>
  152.5366  134.0233  159.7991 H   0  0  0  0  0  0  0  0  0  0  0  0  # atno 6907 bound_to 6896
  151.0416  133.5693  159.2658 H   0  0  0  0  0  0  0  0  0  0  0  0  # atno 6908 bound_to 6896
  151.2661  135.0677  159.9170 H   0  0  0  0  0  0  0  0  0  0  0  0  # atno 6909 bound_to 6896
  144.8168  140.5473  143.5605 H   0  0  0  0  0  0  0  0  0  0  0  0  # atno 7974 bound_to 7965
  154.4128  140.1691  156.2008 H   0  0  0  0  0  0  0  0  0  0  0  0  # atno 8008 bound_to 7997
  155.9525  140.3400  155.6397 H   0  0  0  0  0  0  0  0  0  0  0  0  # atno 8009 bound_to 7997
  155.6851  140.0727  157.2460 H   0  0  0  0  0  0  0  0  0  0  0  0  # atno 8010 bound_to 7997
  139.8987  143.6634  152.2599 H   0  0  0  0  0  0  0  0  0  0  0  0  # atno 10167 bound_to 10162
  156.7846  130.5342  149.5745 H   0  0  0  0  0  0  0  0  0  0  0  0  # atno 10718 bound_to 10713
  153.3848  135.3897  155.1882 H   0  0  0  0  0  0  0  0  0  0  0  0  # atno 10763 bound_to 10752
  154.8712  135.3734  154.4812 H   0  0  0  0  0  0  0  0  0  0  0  0  # atno 10764 bound_to 10752
  153.5293  135.7086  153.5753 H   0  0  0  0  0  0  0  0  0  0  0  0  # atno 10765 bound_to 10752
  139.9140  134.9627  156.7628 H   0  0  0  0  0  0  0  0  0  0  0  0  # atno 11005 bound_to 11000
  145.5195  139.1477  143.3560 LP  0  0  0  0  0  0  0  0  0  0  0  0  # atno 17320 bound_to 7965
  146.2472  140.5336  142.8909 LP  0  0  0  0  0  0  0  0  0  0  0  0  # atno 17321 bound_to 7965
  139.7044  144.7630  151.1218 LP  0  0  0  0  0  0  0  0  0  0  0  0  # atno 17342 bound_to 10162
  140.7711  143.5414  150.9308 LP  0  0  0  0  0  0  0  0  0  0  0  0  # atno 17343 bound_to 10162
  156.1196  130.6100  151.0174 LP  0  0  0  0  0  0  0  0  0  0  0  0  # atno 17370 bound_to 10713
  157.6630  131.0877  150.7795 LP  0  0  0  0  0  0  0  0  0  0  0  0  # atno 17371 bound_to 10713
  140.6683  133.9582  155.7842 LP  0  0  0  0  0  0  0  0  0  0  0  0  # atno 17394 bound_to 11000
  141.0595  134.0367  157.3677 LP  0  0  0  0  0  0  0  0  0  0  0  0  # atno 17395 bound_to 11000

$$$$
