AV-unprocessed.smi:1960|AV-procd|sdf|7917|dock5
  -GOLD-   2272010 83D 1   1.00000     0.00000
 Structure written by MMmdl.
 39 40  0  0  0  0  0  0  0  0  2 V2000
  147.1428  133.0608  157.4544 C   0  0  0  0  0  0  0  0  0  0  0  0
  148.8329  133.1363  158.1762 S   0  0  0  0  0  0  0  0  0  0  0  0
  149.1089  134.5312  158.5532 O   0  0  0  0  0  0  0  0  0  0  0  0
  148.9486  132.0720  159.1850 O   0  0  0  0  0  0  0  0  0  0  0  0
  149.8802  132.7265  156.8477 N   0  0  0  0  0  0  0  0  0  0  0  0
  149.9533  131.3312  156.3698 C   0  0  0  0  0  0  0  0  0  0  0  0
  149.1306  131.1248  155.0856 C   0  0  0  0  0  0  0  0  0  0  0  0
  149.5325  132.1308  153.9935 C   0  0  0  0  0  0  0  0  0  0  0  0
  148.6961  131.9756  152.8063 N   0  0  0  0  0  0  0  0  0  0  0  0
  147.4092  132.3412  152.7151 C   0  0  0  0  0  0  0  0  0  0  0  0
  146.7864  132.8676  153.6369 O   0  0  0  0  0  0  0  0  0  0  0  0
  146.9126  132.0771  151.4939 N   0  0  0  0  0  0  0  0  0  0  0  0
  145.5972  132.3046  151.0045 C   0  0  0  0  0  0  0  0  0  0  0  0
  144.6019  132.6560  151.9435 C   0  0  0  0  0  0  0  0  0  0  0  0
  143.2864  132.9065  151.5025 C   0  0  0  0  0  0  0  0  0  0  0  0
  142.9897  132.8190  150.1882 N   0  3  0  0  0  0  0  0  0  0  0  0
  143.9092  132.5011  149.2519 C   0  0  0  0  0  0  0  0  0  0  0  0
  145.2413  132.2398  149.6329 C   0  0  0  0  0  0  0  0  0  0  0  0
  149.3951  133.5574  154.5446 C   0  0  0  0  0  0  0  0  0  0  0  0
  150.2174  133.7440  155.8319 C   0  0  0  0  0  0  0  0  0  0  0  0
  146.4155  133.3083  158.2271 H   0  0  0  0  0  0  0  0  0  0  0  0
  146.9400  132.0559  157.0885 H   0  0  0  0  0  0  0  0  0  0  0  0
  147.0532  133.7802  156.6424 H   0  0  0  0  0  0  0  0  0  0  0  0
  150.9986  131.0897  156.1741 H   0  0  0  0  0  0  0  0  0  0  0  0
  149.6204  130.6449  157.1478 H   0  0  0  0  0  0  0  0  0  0  0  0
  149.2745  130.1047  154.7281 H   0  0  0  0  0  0  0  0  0  0  0  0
  148.0679  131.2211  155.3053 H   0  0  0  0  0  0  0  0  0  0  0  0
  150.5768  131.9661  153.7205 H   0  0  0  0  0  0  0  0  0  0  0  0
  149.1315  131.5556  151.9981 H   0  0  0  0  0  0  0  0  0  0  0  0
  147.5710  131.7209  150.8168 H   0  0  0  0  0  0  0  0  0  0  0  0
  144.8390  132.7278  152.9952 H   0  0  0  0  0  0  0  0  0  0  0  0
  142.4694  133.1743  152.1565 H   0  0  0  0  0  0  0  0  0  0  0  0
  143.5564  132.4720  148.2312 H   0  0  0  0  0  0  0  0  0  0  0  0
  145.9637  132.0082  148.8652 H   0  0  0  0  0  0  0  0  0  0  0  0
  149.7262  134.2784  153.7962 H   0  0  0  0  0  0  0  0  0  0  0  0
  148.3468  133.7820  154.7386 H   0  0  0  0  0  0  0  0  0  0  0  0
  150.0710  134.7461  156.2338 H   0  0  0  0  0  0  0  0  0  0  0  0
  151.2798  133.6591  155.6007 H   0  0  0  0  0  0  0  0  0  0  0  0
  142.0321  133.0057  149.8890 H   0  0  0  0  0  0  0  0  0  0  0  0
  1  2  1  0  0  0  0
  1 21  1  0  0  0  0
  1 22  1  0  0  0  0
  1 23  1  0  0  0  0
  2  3  2  0  0  0  0
  2  4  2  0  0  0  0
  2  5  1  0  0  0  0
  5 20  1  0  0  0  0
  5  6  1  0  0  0  0
  6  7  1  0  0  0  0
  6 24  1  0  0  0  0
  6 25  1  0  0  0  0
  7  8  1  0  0  0  0
  7 26  1  0  0  0  0
  7 27  1  0  0  0  0
  8  9  1  0  0  0  0
  8 19  1  0  0  0  0
  8 28  1  0  0  0  0
  9 10  1  0  0  0  0
  9 29  1  0  0  0  0
 10 11  2  0  0  0  0
 10 12  1  0  0  0  0
 12 13  1  0  0  0  0
 12 30  1  0  0  0  0
 13 18  1  0  0  0  0
 13 14  2  0  0  0  0
 14 15  1  0  0  0  0
 14 31  1  0  0  0  0
 15 16  2  0  0  0  0
 15 32  1  0  0  0  0
 16 17  1  0  0  0  0
 16 39  1  0  0  0  0
 17 18  2  0  0  0  0
 17 33  1  0  0  0  0
 18 34  1  0  0  0  0
 19 20  1  0  0  0  0
 19 35  1  0  0  0  0
 19 36  1  0  0  0  0
 20 37  1  0  0  0  0
 20 38  1  0  0  0  0
M  CHG  1  16   1
M  END
> <s_m_source_file>
AV-unprocessed.smi

> <i_m_source_file_index>
1960

> <i_lp_mmshare_version>
43012

> <i_f3d_flags>
0

> <s_epik_input>
W0NIM11TKD1PKSg9TylOMVtDSDJdW0NIMl1bQ0hdKFtDSDJdW0NIMl0xKVtOSF1DKD1PKVtOSF1jMltjSF1bY0hdbltjSF1bY0hdMg==

> <s_epik_cmdline>
J2VwaWtfcHl0aG9uJywgJy1waCcsICc3LjAnLCAnLXRuJywgJzgnLCAnLW1hJywgJzIwMCcsICctbWV0YWxfYmluZGluZycsICctaW1hZScsICc8aW5maWxlLm1hZT4nLCAnLW9tYWUnLCAnPG91dGZpbGUubWFlPic=

> <r_epik_Ionization_Penalty>
1.01996

> <r_epik_Ionization_Penalty_Charging>
1.01994

> <r_epik_Ionization_Penalty_Neutral>
1.92463e-05

> <r_epik_State_Penalty>
1.07014

> <r_epik_Charging_Adjusted_Penalty>
2.09007

> <i_epik_Tot_Q>
1

> <i_epik_Tot_abs_Q>
1

> <r_epik_Metal_State_Penalty>
1.16909

> <b_epik_Metal_Only>
0

> <s_lp_Force_Field>
OPLS_2005

> <r_lp_Energy>
12.0857

> <b_lp_Chiralities_Consistent>
1

> <s_lp_Variant>
AV-unprocessed.smi:1960-2

> <Gold.Version>
5.8.1

> <Gold.Id.Protein>
6NUR|6NUR_protein|mol2

> <Gold.PLP.Fitness>
46.6642

> <Gold.PLP.PLP>
-32.0371

> <Gold.PLP.part.hbond>
-3.9775

> <Gold.PLP.part.metal>
0.0000

> <Gold.PLP.part.buried>
-4.2369

> <Gold.PLP.part.nonpolar>
-24.2614

> <Gold.PLP.part.repulsive>
0.1827

> <Gold.PLP.ligand.clash>
0.0000

> <Gold.PLP.ligand.torsion>
1.1884

> <Gold.PLP.Chemscore.Hbond>
4.9840

> <Gold.PLP.Chemscore.CHOScore>
0.0000

> <Gold.PLP.Chemscore.Metal>
0.0000

> <Gold.Chemscore.Hbonds>
donor molecule, donor type, donor heavy atom, donor atom, acceptor molecule, acceptor atom, score
      L1  H     9    29       P1 10747  1.00
      L1  H    12    30       P1 10747  1.00
      L1  H    16    39       P1 10186  1.57
      P1  H  6896  6908       L1     3  0.90

> <Gold.PLP.Chemscore.Internal.Correction>
2.0518

> <Gold.Rescore>
     Score         DG    S(hbond)    S(metal)    S(lipo)     H(rot)  DE(clash)    DE(int)     intcor
     18.96     -22.86       3.53        0.00      69.67       1.00       0.12       3.78       ----

> <Gold.Chemscore.Fitness>
18.9609

> <Gold.Chemscore.DG>
-22.8578

> <Gold.Chemscore.ZeroCoef>
-5.4800

> <Gold.Chemscore.Hbond>
3.5288

> <Gold.Chemscore.Metal>
0.0000

> <Gold.Chemscore.Lipo>
69.6729

> <Gold.Chemscore.Internal_Hbond>
0.0000

> <Gold.Chemscore.DEClash>
0.1214

> <Gold.Chemscore.DEInternal>
3.7755

> <Gold.Chemscore.Rot>
1.0000

> <Gold.Chemscore.Internal.Correction>
   9.000000E+99

> <Gold.Chemscore.Hbonds>
donor molecule, donor type, donor heavy atom, donor atom, acceptor molecule, acceptor atom, score
      L1  H     9    29       P1 10747  0.53
      L1  H    12    30       P1 10747  0.99
      L1  H    16    39       P1 10186  0.78
      P1  H  6896  6908       L1     3  0.18

> <Gold.Chemscore.Hbond.Weighted>
-11.7860

> <Gold.Chemscore.Metal.Weighted>
-0.0000

> <Gold.Chemscore.Lipo.Weighted>
-8.1517

> <Gold.Chemscore.Internal_Hbond.Weighted>
0.0000

> <Gold.Chemscore.DEClash.Weighted>
0.1214

> <Gold.Chemscore.DEInternal.Weighted>
3.7755

> <Gold.Chemscore.Rot.Weighted>
2.5600

> <Gold.Chemscore.Internal.Correction.Weighted>
   9.000000E+99

> <Gold.Protein.RotatedTorsions>
[ 6907 6896 6895 6894 ] final  148.91 input  -60.11 | X-H torsion
[ 7974 7965 7964 7962 ] final   10.52 input  175.53 | X-H torsion
[ 8008 7997 7996 7995 ] final -162.32 input   59.86 | X-H torsion
[ 10167 10162 10161 10158 ] final   78.02 input  -65.29 | X-H torsion
[ 10718 10713 10712 10709 ] final  105.14 input   66.30 | X-H torsion
[ 10763 10752 10751 10750 ] final   48.69 input  -60.55 | X-H torsion
[ 11005 11000 10999 10996 ] final   68.68 input  -57.11 | X-H torsion

> <Gold.Protein.ActiveResidues>
 VAL166  LYS551  ARG553  GLY616  TRP617  ASP618  TYR619  PRO620  LYS621  CYS622 
 ASP623  PHE694  ASN695  SER759  ASP760  ASP761  ALA762  ILE779  LEU786  VAL792 
 PHE793  MET794  SER795  GLU796  ALA797  LYS798  CYS799  TRP800  GLU811  SER814 

> <Gold.Protein.RotatedAtoms>
  152.1352  133.4431  159.4739 H   0  0  0  0  0  0  0  0  0  0  0  0  # atno 6907 bound_to 6896
  150.6881  134.2372  159.4467 H   0  0  0  0  0  0  0  0  0  0  0  0  # atno 6908 bound_to 6896
  152.0259  134.9795  160.0622 H   0  0  0  0  0  0  0  0  0  0  0  0  # atno 6909 bound_to 6896
  146.2387  139.9622  142.8457 H   0  0  0  0  0  0  0  0  0  0  0  0  # atno 7974 bound_to 7965
  155.8051  140.0897  157.1935 H   0  0  0  0  0  0  0  0  0  0  0  0  # atno 8008 bound_to 7997
  154.3981  140.1465  156.3380 H   0  0  0  0  0  0  0  0  0  0  0  0  # atno 8009 bound_to 7997
  155.8422  140.3438  155.5642 H   0  0  0  0  0  0  0  0  0  0  0  0  # atno 8010 bound_to 7997
  139.9754  144.5865  150.7948 H   0  0  0  0  0  0  0  0  0  0  0  0  # atno 10167 bound_to 10162
  157.6716  131.0821  150.5812 H   0  0  0  0  0  0  0  0  0  0  0  0  # atno 10718 bound_to 10713
  152.9790  135.5936  154.3968 H   0  0  0  0  0  0  0  0  0  0  0  0  # atno 10763 bound_to 10752
  154.3617  135.2767  155.2318 H   0  0  0  0  0  0  0  0  0  0  0  0  # atno 10764 bound_to 10752
  154.4312  135.6036  153.6125 H   0  0  0  0  0  0  0  0  0  0  0  0  # atno 10765 bound_to 10752
  139.9697  134.6921  156.0472 H   0  0  0  0  0  0  0  0  0  0  0  0  # atno 11005 bound_to 11000
  145.1760  140.9744  143.4294 LP  0  0  0  0  0  0  0  0  0  0  0  0  # atno 17320 bound_to 7965
  144.9985  139.3621  143.6179 LP  0  0  0  0  0  0  0  0  0  0  0  0  # atno 17321 bound_to 7965
  140.7508  143.2961  151.3201 LP  0  0  0  0  0  0  0  0  0  0  0  0  # atno 17342 bound_to 10162
  139.6450  144.0469  152.2583 LP  0  0  0  0  0  0  0  0  0  0  0  0  # atno 17343 bound_to 10162
  156.6113  130.4380  149.5858 LP  0  0  0  0  0  0  0  0  0  0  0  0  # atno 17370 bound_to 10713
  156.2428  130.6861  151.1572 LP  0  0  0  0  0  0  0  0  0  0  0  0  # atno 17371 bound_to 10713
  141.1377  133.6571  156.3640 LP  0  0  0  0  0  0  0  0  0  0  0  0  # atno 17394 bound_to 11000
  140.5319  134.6204  157.5353 LP  0  0  0  0  0  0  0  0  0  0  0  0  # atno 17395 bound_to 11000

$$$$
