AV-unprocessed.smi:2476|AV-procd|sdf|9757|dock1
  -GOLD-   2272013393D 1   1.00000     0.00000
 Structure written by MMmdl.
 34 35  0  0  0  0  0  0  0  0  1 V2000
  146.7847  138.7479  151.8627 C   0  0  0  0  0  0  0  0  0  0  0  0
  147.0950  139.5449  153.1252 C   0  0  0  0  0  0  0  0  0  0  0  0
  146.4597  139.3360  154.1583 O   0  0  0  0  0  0  0  0  0  0  0  0
  148.0744  140.4564  153.0282 N   0  0  0  0  0  0  0  0  0  0  0  0
  148.5341  141.3134  154.1157 C   0  0  0  0  0  0  0  0  0  0  0  0
  149.4759  140.5650  155.0744 C   0  0  2  0  0  0  0  0  0  0  0  0
  150.1810  141.5270  156.0497 C   0  0  0  0  0  0  0  0  0  0  0  0
  151.1334  140.7963  156.8821 N   0  0  0  0  0  0  0  0  0  0  0  0
  151.6959  141.4765  157.9812 C   0  0  0  0  0  0  0  0  0  0  0  0
  151.6578  142.8328  157.9830 N   0  0  0  0  0  0  0  0  0  0  0  0
  152.2012  143.4985  159.0242 C   0  0  0  0  0  0  0  0  0  0  0  0
  152.8101  142.8553  160.1181 C   0  0  0  0  0  0  0  0  0  0  0  0
  152.8481  141.4490  160.1260 C   0  0  0  0  0  0  0  0  0  0  0  0
  152.2825  140.7462  159.0445 C   0  0  0  0  0  0  0  0  0  0  0  0
  152.2895  139.3910  159.0468 F   0  0  0  0  0  0  0  0  0  0  0  0
  152.0855  140.0125  156.1023 C   0  0  0  0  0  0  0  0  0  0  0  0
  151.3374  139.1036  155.1128 C   0  0  0  0  0  0  0  0  0  0  0  0
  150.4681  139.8896  154.3033 O   0  0  0  0  0  0  0  0  0  0  0  0
  147.7024  138.4806  151.3375 H   0  0  0  0  0  0  0  0  0  0  0  0
  146.1590  139.3349  151.1899 H   0  0  0  0  0  0  0  0  0  0  0  0
  146.2546  137.8270  152.1084 H   0  0  0  0  0  0  0  0  0  0  0  0
  148.5443  140.5566  152.1400 H   0  0  0  0  0  0  0  0  0  0  0  0
  149.0466  142.1728  153.6827 H   0  0  0  0  0  0  0  0  0  0  0  0
  147.6747  141.7085  154.6599 H   0  0  0  0  0  0  0  0  0  0  0  0
  148.9013  139.8333  155.6455 H   0  0  0  0  0  0  0  0  0  0  0  0
  150.7063  142.3045  155.4929 H   0  0  0  0  0  0  0  0  0  0  0  0
  149.4407  142.0206  156.6810 H   0  0  0  0  0  0  0  0  0  0  0  0
  152.1488  144.5762  158.9831 H   0  0  0  0  0  0  0  0  0  0  0  0
  153.2331  143.4259  160.9315 H   0  0  0  0  0  0  0  0  0  0  0  0
  153.2998  140.9170  160.9503 H   0  0  0  0  0  0  0  0  0  0  0  0
  152.7413  140.6938  155.5587 H   0  0  0  0  0  0  0  0  0  0  0  0
  152.7231  139.4052  156.7439 H   0  0  0  0  0  0  0  0  0  0  0  0
  152.0474  138.5836  154.4701 H   0  0  0  0  0  0  0  0  0  0  0  0
  150.7668  138.3386  155.6415 H   0  0  0  0  0  0  0  0  0  0  0  0
  1  2  1  0  0  0  0
  1 19  1  0  0  0  0
  1 20  1  0  0  0  0
  1 21  1  0  0  0  0
  2  3  2  0  0  0  0
  2  4  1  0  0  0  0
  4  5  1  0  0  0  0
  4 22  1  0  0  0  0
  5  6  1  0  0  0  0
  5 23  1  0  0  0  0
  5 24  1  0  0  0  0
  6 18  1  0  0  0  0
  6  7  1  0  0  0  0
  6 25  1  0  0  0  0
  7  8  1  0  0  0  0
  7 26  1  0  0  0  0
  7 27  1  0  0  0  0
  8  9  1  0  0  0  0
  8 16  1  0  0  0  0
  9 14  1  0  0  0  0
  9 10  2  0  0  0  0
 10 11  1  0  0  0  0
 11 12  2  0  0  0  0
 11 28  1  0  0  0  0
 12 13  1  0  0  0  0
 12 29  1  0  0  0  0
 13 14  2  0  0  0  0
 13 30  1  0  0  0  0
 14 15  1  0  0  0  0
 16 17  1  0  0  0  0
 16 31  1  0  0  0  0
 16 32  1  0  0  0  0
 17 18  1  0  0  0  0
 17 33  1  0  0  0  0
 17 34  1  0  0  0  0
M  END
> <s_m_source_file>
AV-unprocessed.smi

> <i_m_source_file_index>
2476

> <i_lp_mmshare_version>
43012

> <i_f3d_flags>
0

> <s_epik_input>
W0NIM11DKD1PKVtOSF1bQ0gyXVtDQEBIXTFbQ0gyXU4oW0NIMl1bQ0gyXU8xKWMybltjSF1bY0hdW2NIXWMyRg==

> <s_epik_cmdline>
J2VwaWtfcHl0aG9uJywgJy1waCcsICc3LjAnLCAnLXRuJywgJzgnLCAnLW1hJywgJzIwMCcsICctbWV0YWxfYmluZGluZycsICctaW1hZScsICc8aW5maWxlLm1hZT4nLCAnLW9tYWUnLCAnPG91dGZpbGUubWFlPic=

> <r_lp_tautomer_probability>
1

> <r_epik_Ionization_Penalty>
1.69306e-05

> <r_epik_Ionization_Penalty_Charging>
0

> <r_epik_Ionization_Penalty_Neutral>
1.69306e-05

> <r_epik_State_Penalty>
-0

> <r_epik_Charging_Adjusted_Penalty>
0

> <i_epik_Tot_Q>
0

> <i_epik_Tot_abs_Q>
0

> <r_epik_Metal_State_Penalty>
-0

> <b_epik_Metal_Only>
0

> <s_lp_Force_Field>
OPLS_2005

> <r_lp_Energy>
18.0017

> <b_lp_Chiralities_Consistent>
1

> <s_lp_Variant>
AV-unprocessed.smi:2476-1

> <Gold.Version>
5.8.1

> <Gold.Id.Protein>
6NUR|6NUR_protein|mol2

> <Gold.PLP.Fitness>
45.2036

> <Gold.PLP.PLP>
-39.9590

> <Gold.PLP.part.hbond>
-1.7291

> <Gold.PLP.part.metal>
0.0000

> <Gold.PLP.part.buried>
-4.0654

> <Gold.PLP.part.nonpolar>
-34.9279

> <Gold.PLP.part.repulsive>
0.4542

> <Gold.PLP.ligand.clash>
0.0000

> <Gold.PLP.ligand.torsion>
0.4815

> <Gold.PLP.Chemscore.Hbond>
1.9833

> <Gold.PLP.Chemscore.CHOScore>
0.0000

> <Gold.PLP.Chemscore.Metal>
0.0000

> <Gold.Chemscore.Hbonds>
donor molecule, donor type, donor heavy atom, donor atom, acceptor molecule, acceptor atom, score
      L1  H     4    22       P1  7957  0.97
      P1  H  7989  7998       L1    18  1.00

> <Gold.PLP.Chemscore.Internal.Correction>
0.2577

> <Gold.Rescore>
     Score         DG    S(hbond)    S(metal)    S(lipo)     H(rot)  DE(clash)    DE(int)     intcor
     15.03     -16.64       1.63        0.00      83.98       1.61       0.13       1.47       ----

> <Gold.Chemscore.Fitness>
15.0329

> <Gold.Chemscore.DG>
-16.6407

> <Gold.Chemscore.ZeroCoef>
-5.4800

> <Gold.Chemscore.Hbond>
1.6320

> <Gold.Chemscore.Metal>
0.0000

> <Gold.Chemscore.Lipo>
83.9819

> <Gold.Chemscore.Internal_Hbond>
0.0000

> <Gold.Chemscore.DEClash>
0.1334

> <Gold.Chemscore.DEInternal>
1.4744

> <Gold.Chemscore.Rot>
1.6078

> <Gold.Chemscore.Internal.Correction>
   9.000000E+99

> <Gold.Chemscore.Hbonds>
donor molecule, donor type, donor heavy atom, donor atom, acceptor molecule, acceptor atom, score
      L1  H     4    22       P1  7957  0.86
      P1  H  7989  7998       L1    18  0.24

> <Gold.Chemscore.Hbond.Weighted>
-5.4507

> <Gold.Chemscore.Metal.Weighted>
-0.0000

> <Gold.Chemscore.Lipo.Weighted>
-9.8259

> <Gold.Chemscore.Internal_Hbond.Weighted>
0.0000

> <Gold.Chemscore.DEClash.Weighted>
0.1334

> <Gold.Chemscore.DEInternal.Weighted>
1.4744

> <Gold.Chemscore.Rot.Weighted>
4.1159

> <Gold.Chemscore.Internal.Correction.Weighted>
   9.000000E+99

> <Gold.Protein.RotatedTorsions>
[ 6907 6896 6895 6894 ] final  -12.29 input  -60.11 | X-H torsion
[ 7974 7965 7964 7962 ] final  -14.27 input  175.53 | X-H torsion
[ 8008 7997 7996 7995 ] final -110.24 input   59.86 | X-H torsion
[ 10167 10162 10161 10158 ] final  170.34 input  -65.29 | X-H torsion
[ 10718 10713 10712 10709 ] final -172.08 input   66.30 | X-H torsion
[ 10763 10752 10751 10750 ] final   70.00 input  -60.55 | X-H torsion
[ 11005 11000 10999 10996 ] final   97.95 input  -57.11 | X-H torsion

> <Gold.Protein.ActiveResidues>
 VAL166  LYS551  ARG553  GLY616  TRP617  ASP618  TYR619  PRO620  LYS621  CYS622 
 ASP623  PHE694  ASN695  SER759  ASP760  ASP761  ALA762  ILE779  LEU786  VAL792 
 PHE793  MET794  SER795  GLU796  ALA797  LYS798  CYS799  TRP800  GLU811  SER814 

> <Gold.Protein.RotatedAtoms>
  151.3729  135.0926  159.9470 H   0  0  0  0  0  0  0  0  0  0  0  0  # atno 6907 bound_to 6896
  152.5130  133.9147  159.7515 H   0  0  0  0  0  0  0  0  0  0  0  0  # atno 6908 bound_to 6896
  150.9565  133.6437  159.2791 H   0  0  0  0  0  0  0  0  0  0  0  0  # atno 6909 bound_to 6896
  146.2081  140.3324  142.8400 H   0  0  0  0  0  0  0  0  0  0  0  0  # atno 7974 bound_to 7965
  154.9716  140.0397  157.2237 H   0  0  0  0  0  0  0  0  0  0  0  0  # atno 8008 bound_to 7997
  154.7796  140.2816  155.6051 H   0  0  0  0  0  0  0  0  0  0  0  0  # atno 8009 bound_to 7997
  156.2934  140.2594  156.2618 H   0  0  0  0  0  0  0  0  0  0  0  0  # atno 8010 bound_to 7997
  139.5016  144.3607  151.9828 H   0  0  0  0  0  0  0  0  0  0  0  0  # atno 10167 bound_to 10162
  156.7503  130.9376  151.3114 H   0  0  0  0  0  0  0  0  0  0  0  0  # atno 10718 bound_to 10713
  153.0318  135.5190  154.7375 H   0  0  0  0  0  0  0  0  0  0  0  0  # atno 10763 bound_to 10752
  154.6384  135.2909  155.0135 H   0  0  0  0  0  0  0  0  0  0  0  0  # atno 10764 bound_to 10752
  154.1062  135.6629  153.4929 H   0  0  0  0  0  0  0  0  0  0  0  0  # atno 10765 bound_to 10752
  139.8774  134.9026  156.4384 H   0  0  0  0  0  0  0  0  0  0  0  0  # atno 11005 bound_to 11000
  144.8843  140.7441  143.5967 LP  0  0  0  0  0  0  0  0  0  0  0  0  # atno 17320 bound_to 7965
  145.3245  139.1778  143.4570 LP  0  0  0  0  0  0  0  0  0  0  0  0  # atno 17321 bound_to 7965
  140.3043  144.3611  150.6051 LP  0  0  0  0  0  0  0  0  0  0  0  0  # atno 17342 bound_to 10162
  140.5849  143.2170  151.7361 LP  0  0  0  0  0  0  0  0  0  0  0  0  # atno 17343 bound_to 10162
  157.6780  130.9112  150.0196 LP  0  0  0  0  0  0  0  0  0  0  0  0  # atno 17370 bound_to 10713
  156.1405  130.3642  149.9589 LP  0  0  0  0  0  0  0  0  0  0  0  0  # atno 17371 bound_to 10713
  140.9017  133.7775  155.9688 LP  0  0  0  0  0  0  0  0  0  0  0  0  # atno 17394 bound_to 11000
  140.8643  134.2802  157.5220 LP  0  0  0  0  0  0  0  0  0  0  0  0  # atno 17395 bound_to 11000

$$$$
