AV-unprocessed.smi:1381|AV-procd|sdf|5611|dock8
  -GOLD-   22720 5223D 1   1.00000     0.00000
 Structure written by MMmdl.
 41 42  0  0  0  0  0  0  0  0  2 V2000
  152.2631  140.6173  159.2861 C   0  0  0  0  0  0  0  0  0  0  0  0
  151.8683  140.2872  157.8878 C   0  0  0  0  0  0  0  0  0  0  0  0
  150.8619  140.7284  157.0763 C   0  0  0  0  0  0  0  0  0  0  0  0
  151.0761  140.0057  155.8710 C   0  0  0  0  0  0  0  0  0  0  0  0
  150.3290  140.0897  154.7592 N   0  5  0  0  0  0  0  0  0  0  0  0
  149.0352  139.6931  154.7778 C   0  0  0  0  0  0  0  0  0  0  0  0
  148.4499  139.1533  155.7198 O   0  0  0  0  0  0  0  0  0  0  0  0
  148.3800  139.9327  153.6326 N   0  0  0  0  0  0  0  0  0  0  0  0
  146.9831  139.6097  153.3640 C   0  0  0  0  0  0  0  0  0  0  0  0
  146.8358  138.7836  152.0722 C   0  0  0  0  0  0  0  0  0  0  0  0
  145.6550  137.9227  152.0204 N   0  0  0  0  0  0  0  0  0  0  0  0
  145.3462  137.3846  153.3409 C   0  0  0  0  0  0  0  0  0  0  0  0
  144.1074  136.4671  153.3388 C   0  0  1  0  0  0  0  0  0  0  0  0
  142.7811  137.2330  153.1951 C   0  0  0  0  0  0  0  0  0  0  0  0
  144.2462  135.4535  152.3416 O   0  0  0  0  0  0  0  0  0  0  0  0
  144.5500  135.9284  151.0310 C   0  0  2  0  0  0  0  0  0  0  0  0
  144.7396  134.7136  150.1168 C   0  0  0  0  0  0  0  0  0  0  0  0
  145.8070  136.8160  151.0814 C   0  0  0  0  0  0  0  0  0  0  0  0
  152.1090  139.1834  155.9513 N   0  0  0  0  0  0  0  0  0  0  0  0
  152.6269  139.3633  157.2395 O   0  0  0  0  0  0  0  0  0  0  0  0
  152.0646  139.7775  159.9517 H   0  0  0  0  0  0  0  0  0  0  0  0
  151.7075  141.4802  159.6537 H   0  0  0  0  0  0  0  0  0  0  0  0
  153.3262  140.8518  159.3426 H   0  0  0  0  0  0  0  0  0  0  0  0
  150.0969  141.4554  157.3045 H   0  0  0  0  0  0  0  0  0  0  0  0
  148.8967  140.3779  152.8885 H   0  0  0  0  0  0  0  0  0  0  0  0
  146.5531  139.0750  154.2127 H   0  0  0  0  0  0  0  0  0  0  0  0
  146.4457  140.5536  153.2844 H   0  0  0  0  0  0  0  0  0  0  0  0
  146.8443  139.4508  151.2090 H   0  0  0  0  0  0  0  0  0  0  0  0
  147.7238  138.1579  151.9732 H   0  0  0  0  0  0  0  0  0  0  0  0
  146.2025  136.8162  153.7073 H   0  0  0  0  0  0  0  0  0  0  0  0
  145.1941  138.1991  154.0503 H   0  0  0  0  0  0  0  0  0  0  0  0
  144.0726  135.9500  154.2981 H   0  0  0  0  0  0  0  0  0  0  0  0
  142.6417  137.9247  154.0262 H   0  0  0  0  0  0  0  0  0  0  0  0
  141.9342  136.5469  153.1909 H   0  0  0  0  0  0  0  0  0  0  0  0
  142.7429  137.8178  152.2763 H   0  0  0  0  0  0  0  0  0  0  0  0
  143.7092  136.5117  150.6545 H   0  0  0  0  0  0  0  0  0  0  0  0
  144.9626  135.0222  149.0951 H   0  0  0  0  0  0  0  0  0  0  0  0
  143.8370  134.1026  150.0897 H   0  0  0  0  0  0  0  0  0  0  0  0
  145.5588  134.0826  150.4631 H   0  0  0  0  0  0  0  0  0  0  0  0
  146.0015  137.1957  150.0791 H   0  0  0  0  0  0  0  0  0  0  0  0
  146.6718  136.2118  151.3604 H   0  0  0  0  0  0  0  0  0  0  0  0
  1  2  1  0  0  0  0
  1 21  1  0  0  0  0
  1 22  1  0  0  0  0
  1 23  1  0  0  0  0
  2 20  1  0  0  0  0
  2  3  2  0  0  0  0
  3  4  1  0  0  0  0
  3 24  1  0  0  0  0
  4  5  1  0  0  0  0
  4 19  2  0  0  0  0
  5  6  1  0  0  0  0
  6  7  2  0  0  0  0
  6  8  1  0  0  0  0
  8  9  1  0  0  0  0
  8 25  1  0  0  0  0
  9 10  1  0  0  0  0
  9 26  1  0  0  0  0
  9 27  1  0  0  0  0
 10 11  1  0  0  0  0
 10 28  1  0  0  0  0
 10 29  1  0  0  0  0
 11 18  1  0  0  0  0
 11 12  1  0  0  0  0
 12 13  1  0  0  0  0
 12 30  1  0  0  0  0
 12 31  1  0  0  0  0
 13 14  1  0  0  0  0
 13 15  1  0  0  0  0
 13 32  1  0  0  0  0
 14 33  1  0  0  0  0
 14 34  1  0  0  0  0
 14 35  1  0  0  0  0
 15 16  1  0  0  0  0
 16 17  1  0  0  0  0
 16 18  1  0  0  0  0
 16 36  1  0  0  0  0
 17 37  1  0  0  0  0
 17 38  1  0  0  0  0
 17 39  1  0  0  0  0
 18 40  1  0  0  0  0
 18 41  1  0  0  0  0
 19 20  1  0  0  0  0
M  CHG  1   5  -1
M  END
> <s_m_source_file>
AV-unprocessed.smi

> <i_m_source_file_index>
1381

> <i_lp_mmshare_version>
43012

> <i_f3d_flags>
0

> <s_epik_input>
W0NIM11jMVtjSF1jKG5vMSlbTkhdQyg9TylbTkhdW0NIMl1bQ0gyXU4yW0NIMl1bQ0BASF0oW0NIM10pT1tDQEBIXShbQ0gzXSlbQ0gyXTI=

> <s_epik_cmdline>
J2VwaWtfcHl0aG9uJywgJy1waCcsICc3LjAnLCAnLXRuJywgJzgnLCAnLW1hJywgJzIwMCcsICctbWV0YWxfYmluZGluZycsICctaW1hZScsICc8aW5maWxlLm1hZT4nLCAnLW9tYWUnLCAnPG91dGZpbGUubWFlPic=

> <r_epik_Ionization_Penalty>
6.88366

> <r_epik_Ionization_Penalty_Charging>
6.57198

> <r_epik_Ionization_Penalty_Neutral>
0.311678

> <r_epik_State_Penalty>
6.77619

> <r_epik_Charging_Adjusted_Penalty>
13.3482

> <i_epik_Tot_Q>
-1

> <i_epik_Tot_abs_Q>
1

> <r_epik_Metal_State_Penalty>
2.70524

> <b_epik_Metal_Only>
1

> <s_lp_Force_Field>
OPLS_2005

> <r_lp_Energy>
15.952

> <b_lp_Chiralities_Consistent>
1

> <s_lp_Variant>
AV-unprocessed.smi:1381-10

> <Gold.Version>
5.8.1

> <Gold.Id.Protein>
6NUR|6NUR_protein|mol2

> <Gold.PLP.Fitness>
37.6988

> <Gold.PLP.PLP>
-31.6660

> <Gold.PLP.part.hbond>
-2.8939

> <Gold.PLP.part.metal>
0.0000

> <Gold.PLP.part.buried>
-2.4840

> <Gold.PLP.part.nonpolar>
-27.8472

> <Gold.PLP.part.repulsive>
1.7846

> <Gold.PLP.ligand.clash>
0.0000

> <Gold.PLP.ligand.torsion>
1.0479

> <Gold.PLP.Chemscore.Hbond>
2.7000

> <Gold.PLP.Chemscore.CHOScore>
0.0000

> <Gold.PLP.Chemscore.Metal>
0.0000

> <Gold.Chemscore.Hbonds>
donor molecule, donor type, donor heavy atom, donor atom, acceptor molecule, acceptor atom, score
      L1  H     8    25       P1  7957  0.83
      P1  H  7989  7998       L1     5  1.00
      P1  H  7997  8009       L1    20  0.85

> <Gold.PLP.Chemscore.Internal.Correction>
0.0286

> <Gold.Rescore>
     Score         DG    S(hbond)    S(metal)    S(lipo)     H(rot)  DE(clash)    DE(int)     intcor
     13.00     -14.16       1.58        0.00      62.67       1.54       0.21       0.95       ----

> <Gold.Chemscore.Fitness>
13.0010

> <Gold.Chemscore.DG>
-14.1569

> <Gold.Chemscore.ZeroCoef>
-5.4800

> <Gold.Chemscore.Hbond>
1.5835

> <Gold.Chemscore.Metal>
0.0000

> <Gold.Chemscore.Lipo>
62.6728

> <Gold.Chemscore.Internal_Hbond>
0.0000

> <Gold.Chemscore.DEClash>
0.2061

> <Gold.Chemscore.DEInternal>
0.9497

> <Gold.Chemscore.Rot>
1.5409

> <Gold.Chemscore.Internal.Correction>
   9.000000E+99

> <Gold.Chemscore.Hbonds>
donor molecule, donor type, donor heavy atom, donor atom, acceptor molecule, acceptor atom, score
      L1  H     8    25       P1  7957  0.83
      P1  H  7989  7998       L1     5  0.29
      P1  H  7997  8009       L1    20  0.12

> <Gold.Chemscore.Hbond.Weighted>
-5.2888

> <Gold.Chemscore.Metal.Weighted>
-0.0000

> <Gold.Chemscore.Lipo.Weighted>
-7.3327

> <Gold.Chemscore.Internal_Hbond.Weighted>
0.0000

> <Gold.Chemscore.DEClash.Weighted>
0.2061

> <Gold.Chemscore.DEInternal.Weighted>
0.9497

> <Gold.Chemscore.Rot.Weighted>
3.9446

> <Gold.Chemscore.Internal.Correction.Weighted>
   9.000000E+99

> <Gold.Protein.RotatedTorsions>
[ 6907 6896 6895 6894 ] final   -3.69 input  -60.11 | X-H torsion
[ 7974 7965 7964 7962 ] final  111.20 input  175.53 | X-H torsion
[ 8008 7997 7996 7995 ] final  175.85 input   59.86 | X-H torsion
[ 10167 10162 10161 10158 ] final   78.99 input  -65.29 | X-H torsion
[ 10718 10713 10712 10709 ] final  -10.92 input   66.30 | X-H torsion
[ 10763 10752 10751 10750 ] final  174.54 input  -60.55 | X-H torsion
[ 11005 11000 10999 10996 ] final  159.45 input  -57.11 | X-H torsion

> <Gold.Protein.ActiveResidues>
 VAL166  LYS551  ARG553  GLY616  TRP617  ASP618  TYR619  PRO620  LYS621  CYS622 
 ASP623  PHE694  ASN695  SER759  ASP760  ASP761  ALA762  ILE779  LEU786  VAL792 
 PHE793  MET794  SER795  GLU796  ALA797  LYS798  CYS799  TRP800  GLU811  SER814 

> <Gold.Protein.RotatedAtoms>
  151.5098  135.1064  159.9850 H   0  0  0  0  0  0  0  0  0  0  0  0  # atno 6907 bound_to 6896
  152.4666  133.7933  159.6924 H   0  0  0  0  0  0  0  0  0  0  0  0  # atno 6908 bound_to 6896
  150.8654  133.7519  159.3004 H   0  0  0  0  0  0  0  0  0  0  0  0  # atno 6909 bound_to 6896
  145.2453  139.2762  143.4096 H   0  0  0  0  0  0  0  0  0  0  0  0  # atno 7974 bound_to 7965
  156.0827  140.1398  156.9692 H   0  0  0  0  0  0  0  0  0  0  0  0  # atno 8008 bound_to 7997
  154.4595  140.0948  156.6901 H   0  0  0  0  0  0  0  0  0  0  0  0  # atno 8009 bound_to 7997
  155.5049  140.3452  155.4380 H   0  0  0  0  0  0  0  0  0  0  0  0  # atno 8010 bound_to 7997
  139.9650  144.5934  150.8037 H   0  0  0  0  0  0  0  0  0  0  0  0  # atno 10167 bound_to 10162
  156.6665  130.4997  149.6014 H   0  0  0  0  0  0  0  0  0  0  0  0  # atno 10718 bound_to 10713
  154.4554  135.2766  155.1751 H   0  0  0  0  0  0  0  0  0  0  0  0  # atno 10763 bound_to 10752
  154.3561  135.6139  153.5671 H   0  0  0  0  0  0  0  0  0  0  0  0  # atno 10764 bound_to 10752
  152.9850  135.5823  154.4906 H   0  0  0  0  0  0  0  0  0  0  0  0  # atno 10765 bound_to 10752
  140.1962  134.8371  157.2968 H   0  0  0  0  0  0  0  0  0  0  0  0  # atno 11005 bound_to 11000
  146.3317  140.2827  142.8611 LP  0  0  0  0  0  0  0  0  0  0  0  0  # atno 17320 bound_to 7965
  144.9552  140.8219  143.5547 LP  0  0  0  0  0  0  0  0  0  0  0  0  # atno 17321 bound_to 7965
  140.7541  143.3020  151.3056 LP  0  0  0  0  0  0  0  0  0  0  0  0  # atno 17342 bound_to 10162
  139.6525  144.0337  152.2636 LP  0  0  0  0  0  0  0  0  0  0  0  0  # atno 17343 bound_to 10162
  156.1971  130.6596  151.1126 LP  0  0  0  0  0  0  0  0  0  0  0  0  # atno 17370 bound_to 10713
  157.7092  131.0742  150.6561 LP  0  0  0  0  0  0  0  0  0  0  0  0  # atno 17371 bound_to 10713
  140.2104  134.4145  155.7616 LP  0  0  0  0  0  0  0  0  0  0  0  0  # atno 17394 bound_to 11000
  141.2227  133.7115  156.8329 LP  0  0  0  0  0  0  0  0  0  0  0  0  # atno 17395 bound_to 11000

$$$$
