AV-unprocessed.smi:2386|AV-procd|sdf|9467|dock5
  -GOLD-   2272013 93D 1   1.00000     0.00000
 Structure written by MMmdl.
 43 44  0  0  0  0  0  0  0  0  2 V2000
  153.4296  141.4027  160.1927 C   0  0  0  0  0  0  0  0  0  0  0  0
  152.7284  142.5443  159.4873 C   0  0  0  0  0  0  0  0  0  0  0  0
  152.9412  143.8799  159.8811 C   0  0  0  0  0  0  0  0  0  0  0  0
  152.2602  144.8933  159.1833 C   0  0  0  0  0  0  0  0  0  0  0  0
  151.4019  144.5319  158.1270 C   0  0  0  0  0  0  0  0  0  0  0  0
  151.2445  143.1676  157.7949 C   0  0  0  0  0  0  0  0  0  0  0  0
  150.3597  142.9100  156.7142 N   0  0  0  0  0  0  0  0  0  0  0  0
  150.2573  141.7940  155.9710 C   0  0  0  0  0  0  0  0  0  0  0  0
  150.9297  140.7731  156.1188 O   0  0  0  0  0  0  0  0  0  0  0  0
  149.3089  141.9227  155.0319 N   0  0  0  0  0  0  0  0  0  0  0  0
  148.9476  140.9006  154.0543 C   0  0  0  0  0  0  0  0  0  0  0  0
  147.4731  140.4639  154.1544 C   0  0  0  0  0  0  0  0  0  0  0  0
  147.1174  139.2680  153.2507 C   0  0  0  0  0  0  0  0  0  0  0  0
  145.7293  138.7910  153.4707 N   0  3  0  0  0  0  0  0  0  0  0  0
  145.4198  137.5667  152.6939 C   0  0  0  0  0  0  0  0  0  0  0  0
  143.9589  137.1411  152.9168 C   0  0  0  0  0  0  0  0  0  0  0  0
  143.7274  136.9403  154.3051 O   0  0  0  0  0  0  0  0  0  0  0  0
  143.9332  138.1307  155.0550 C   0  0  0  0  0  0  0  0  0  0  0  0
  145.3921  138.5938  154.9027 C   0  0  0  0  0  0  0  0  0  0  0  0
  151.9040  142.1973  158.4753 N   0  0  0  0  0  0  0  0  0  0  0  0
  154.0614  141.7665  161.0034 H   0  0  0  0  0  0  0  0  0  0  0  0
  154.0586  140.8537  159.4914 H   0  0  0  0  0  0  0  0  0  0  0  0
  152.6994  140.7115  160.6143 H   0  0  0  0  0  0  0  0  0  0  0  0
  153.6077  144.1249  160.6950 H   0  0  0  0  0  0  0  0  0  0  0  0
  152.3936  145.9308  159.4523 H   0  0  0  0  0  0  0  0  0  0  0  0
  150.8726  145.2984  157.5800 H   0  0  0  0  0  0  0  0  0  0  0  0
  149.7362  143.6668  156.4763 H   0  0  0  0  0  0  0  0  0  0  0  0
  148.8093  142.7985  154.9788 H   0  0  0  0  0  0  0  0  0  0  0  0
  149.1453  141.3016  153.0598 H   0  0  0  0  0  0  0  0  0  0  0  0
  149.6029  140.0359  154.1713 H   0  0  0  0  0  0  0  0  0  0  0  0
  147.2675  140.2195  155.1961 H   0  0  0  0  0  0  0  0  0  0  0  0
  146.8243  141.3066  153.9125 H   0  0  0  0  0  0  0  0  0  0  0  0
  147.2183  139.5807  152.2107 H   0  0  0  0  0  0  0  0  0  0  0  0
  147.8224  138.4479  153.3943 H   0  0  0  0  0  0  0  0  0  0  0  0
  145.5876  137.7485  151.6318 H   0  0  0  0  0  0  0  0  0  0  0  0
  146.0937  136.7627  152.9934 H   0  0  0  0  0  0  0  0  0  0  0  0
  143.2697  137.8905  152.5245 H   0  0  0  0  0  0  0  0  0  0  0  0
  143.7534  136.2112  152.3865 H   0  0  0  0  0  0  0  0  0  0  0  0
  143.2410  138.9074  154.7262 H   0  0  0  0  0  0  0  0  0  0  0  0
  143.7110  137.9298  156.1031 H   0  0  0  0  0  0  0  0  0  0  0  0
  146.0628  137.8514  155.3381 H   0  0  0  0  0  0  0  0  0  0  0  0
  145.5355  139.5187  155.4603 H   0  0  0  0  0  0  0  0  0  0  0  0
  145.1159  139.5112  153.1164 H   0  0  0  0  0  0  0  0  0  0  0  0
  1  2  1  0  0  0  0
  1 21  1  0  0  0  0
  1 22  1  0  0  0  0
  1 23  1  0  0  0  0
  2 20  1  0  0  0  0
  2  3  2  0  0  0  0
  3  4  1  0  0  0  0
  3 24  1  0  0  0  0
  4  5  2  0  0  0  0
  4 25  1  0  0  0  0
  5  6  1  0  0  0  0
  5 26  1  0  0  0  0
  6  7  1  0  0  0  0
  6 20  2  0  0  0  0
  7  8  1  0  0  0  0
  7 27  1  0  0  0  0
  8  9  2  0  0  0  0
  8 10  1  0  0  0  0
 10 11  1  0  0  0  0
 10 28  1  0  0  0  0
 11 12  1  0  0  0  0
 11 29  1  0  0  0  0
 11 30  1  0  0  0  0
 12 13  1  0  0  0  0
 12 31  1  0  0  0  0
 12 32  1  0  0  0  0
 13 14  1  0  0  0  0
 13 33  1  0  0  0  0
 13 34  1  0  0  0  0
 14 19  1  0  0  0  0
 14 15  1  0  0  0  0
 14 43  1  0  0  0  0
 15 16  1  0  0  0  0
 15 35  1  0  0  0  0
 15 36  1  0  0  0  0
 16 17  1  0  0  0  0
 16 37  1  0  0  0  0
 16 38  1  0  0  0  0
 17 18  1  0  0  0  0
 18 19  1  0  0  0  0
 18 39  1  0  0  0  0
 18 40  1  0  0  0  0
 19 41  1  0  0  0  0
 19 42  1  0  0  0  0
M  CHG  1  14   1
M  END
> <s_m_source_file>
AV-unprocessed.smi

> <i_m_source_file_index>
2386

> <i_lp_mmshare_version>
43012

> <i_f3d_flags>
0

> <s_epik_input>
W0NIM11jMVtjSF1bY0hdW2NIXWMobjEpW05IXUMoPU8pW05IXVtDSDJdW0NIMl1bQ0gyXU4yW0NIMl1bQ0gyXU9bQ0gyXVtDSDJdMg==

> <s_epik_cmdline>
J2VwaWtfcHl0aG9uJywgJy1waCcsICc3LjAnLCAnLXRuJywgJzgnLCAnLW1hJywgJzIwMCcsICctbWV0YWxfYmluZGluZycsICctaW1hZScsICc8aW5maWxlLm1hZT4nLCAnLW9tYWUnLCAnPG91dGZpbGUubWFlPic=

> <r_epik_Ionization_Penalty>
0.270568

> <r_epik_Ionization_Penalty_Charging>
0.270496

> <r_epik_Ionization_Penalty_Neutral>
7.21828e-05

> <r_epik_State_Penalty>
0.262618

> <r_epik_Charging_Adjusted_Penalty>
0.533114

> <i_epik_Tot_Q>
1

> <i_epik_Tot_abs_Q>
1

> <r_epik_Metal_State_Penalty>
0.26262

> <b_epik_Metal_Only>
0

> <s_lp_Force_Field>
OPLS_2005

> <r_lp_Energy>
18.5564

> <b_lp_Chiralities_Consistent>
1

> <s_lp_Variant>
AV-unprocessed.smi:2386-1

> <Gold.Version>
5.8.1

> <Gold.Id.Protein>
6NUR|6NUR_protein|mol2

> <Gold.PLP.Fitness>
50.9088

> <Gold.PLP.PLP>
-39.5406

> <Gold.PLP.part.hbond>
-3.0000

> <Gold.PLP.part.metal>
0.0000

> <Gold.PLP.part.buried>
-4.6198

> <Gold.PLP.part.nonpolar>
-33.2260

> <Gold.PLP.part.repulsive>
0.3495

> <Gold.PLP.ligand.clash>
0.0000

> <Gold.PLP.ligand.torsion>
0.1284

> <Gold.PLP.Chemscore.Hbond>
3.8640

> <Gold.PLP.Chemscore.CHOScore>
0.0000

> <Gold.PLP.Chemscore.Metal>
0.0000

> <Gold.Chemscore.Hbonds>
donor molecule, donor type, donor heavy atom, donor atom, acceptor molecule, acceptor atom, score
      L1  H     7    27       P1  8028  1.00
      L1  H    10    28       P1  8028  0.85
      L1  H    14    43       P1 10175  2.00

> <Gold.PLP.Chemscore.Internal.Correction>
0.0331

> <Gold.Rescore>
     Score         DG    S(hbond)    S(metal)    S(lipo)     H(rot)  DE(clash)    DE(int)     intcor
     19.97     -21.37       2.88        0.00      92.11       1.76       0.03       1.37       ----

> <Gold.Chemscore.Fitness>
19.9743

> <Gold.Chemscore.DG>
-21.3704

> <Gold.Chemscore.ZeroCoef>
-5.4800

> <Gold.Chemscore.Hbond>
2.8794

> <Gold.Chemscore.Metal>
0.0000

> <Gold.Chemscore.Lipo>
92.1119

> <Gold.Chemscore.Internal_Hbond>
0.0000

> <Gold.Chemscore.DEClash>
0.0272

> <Gold.Chemscore.DEInternal>
1.3689

> <Gold.Chemscore.Rot>
1.7593

> <Gold.Chemscore.Internal.Correction>
   9.000000E+99

> <Gold.Chemscore.Hbonds>
donor molecule, donor type, donor heavy atom, donor atom, acceptor molecule, acceptor atom, score
      L1  H     7    27       P1  8028  0.97
      L1  H    10    28       P1  8028  0.78
      L1  H    14    43       P1 10175  1.00

> <Gold.Chemscore.Hbond.Weighted>
-9.6173

> <Gold.Chemscore.Metal.Weighted>
-0.0000

> <Gold.Chemscore.Lipo.Weighted>
-10.7771

> <Gold.Chemscore.Internal_Hbond.Weighted>
0.0000

> <Gold.Chemscore.DEClash.Weighted>
0.0272

> <Gold.Chemscore.DEInternal.Weighted>
1.3689

> <Gold.Chemscore.Rot.Weighted>
4.5039

> <Gold.Chemscore.Internal.Correction.Weighted>
   9.000000E+99

> <Gold.Protein.RotatedTorsions>
[ 6907 6896 6895 6894 ] final  -55.64 input  -60.11 | X-H torsion
[ 7974 7965 7964 7962 ] final   58.24 input  175.53 | X-H torsion
[ 8008 7997 7996 7995 ] final  114.85 input   59.86 | X-H torsion
[ 10167 10162 10161 10158 ] final  -61.33 input  -65.29 | X-H torsion
[ 10718 10713 10712 10709 ] final  -63.74 input   66.30 | X-H torsion
[ 10763 10752 10751 10750 ] final   36.47 input  -60.55 | X-H torsion
[ 11005 11000 10999 10996 ] final   36.62 input  -57.11 | X-H torsion

> <Gold.Protein.ActiveResidues>
 VAL166  LYS551  ARG553  GLY616  TRP617  ASP618  TYR619  PRO620  LYS621  CYS622 
 ASP623  PHE694  ASN695  SER759  ASP760  ASP761  ALA762  ILE779  LEU786  VAL792 
 PHE793  MET794  SER795  GLU796  ALA797  LYS798  CYS799  TRP800  GLU811  SER814 

> <Gold.Protein.RotatedAtoms>
  150.8235  134.7454  159.6792 H   0  0  0  0  0  0  0  0  0  0  0  0  # atno 6907 bound_to 6896
  152.4348  134.5705  159.9929 H   0  0  0  0  0  0  0  0  0  0  0  0  # atno 6908 bound_to 6896
  151.5883  133.3332  159.3058 H   0  0  0  0  0  0  0  0  0  0  0  0  # atno 6909 bound_to 6896
  145.9203  139.3724  143.0482 H   0  0  0  0  0  0  0  0  0  0  0  0  # atno 7974 bound_to 7965
  156.2346  140.2950  156.0279 H   0  0  0  0  0  0  0  0  0  0  0  0  # atno 8008 bound_to 7997
  155.2128  140.0413  157.2953 H   0  0  0  0  0  0  0  0  0  0  0  0  # atno 8009 bound_to 7997
  154.6056  140.2438  155.7742 H   0  0  0  0  0  0  0  0  0  0  0  0  # atno 8010 bound_to 7997
  140.6013  143.2362  151.5922 H   0  0  0  0  0  0  0  0  0  0  0  0  # atno 10167 bound_to 10162
  156.0772  130.4224  150.1320 H   0  0  0  0  0  0  0  0  0  0  0  0  # atno 10718 bound_to 10713
  153.0075  135.6305  154.1991 H   0  0  0  0  0  0  0  0  0  0  0  0  # atno 10763 bound_to 10752
  154.1734  135.2817  155.3076 H   0  0  0  0  0  0  0  0  0  0  0  0  # atno 10764 bound_to 10752
  154.5891  135.5623  153.7320 H   0  0  0  0  0  0  0  0  0  0  0  0  # atno 10765 bound_to 10752
  140.2307  134.3530  155.7965 H   0  0  0  0  0  0  0  0  0  0  0  0  # atno 11005 bound_to 11000
  145.8558  140.9503  143.0725 LP  0  0  0  0  0  0  0  0  0  0  0  0  # atno 17320 bound_to 7965
  144.6752  140.0466  143.7479 LP  0  0  0  0  0  0  0  0  0  0  0  0  # atno 17321 bound_to 7965
  139.5293  144.2964  152.1110 LP  0  0  0  0  0  0  0  0  0  0  0  0  # atno 17342 bound_to 10162
  140.2146  144.4528  150.6370 LP  0  0  0  0  0  0  0  0  0  0  0  0  # atno 17343 bound_to 10162
  156.9358  130.9728  151.3525 LP  0  0  0  0  0  0  0  0  0  0  0  0  # atno 17370 bound_to 10713
  157.5873  130.8419  149.8608 LP  0  0  0  0  0  0  0  0  0  0  0  0  # atno 17371 bound_to 10713
  141.2218  133.7244  156.8727 LP  0  0  0  0  0  0  0  0  0  0  0  0  # atno 17394 bound_to 11000
  140.1753  134.9071  157.2883 LP  0  0  0  0  0  0  0  0  0  0  0  0  # atno 17395 bound_to 11000

$$$$
