AV-unprocessed.smi:2571|AV-procd|sdf|10109|dock2
  -GOLD-   2272014123D 1   1.00000     0.00000
 Structure written by MMmdl.
 38 40  0  0  0  0  0  0  0  0  1 V2000
  154.0377  141.0636  160.8136 C   0  0  0  0  0  0  0  0  0  0  0  0
  153.3680  142.1931  161.3537 O   0  0  0  0  0  0  0  0  0  0  0  0
  152.4944  142.8794  160.5383 C   0  0  0  0  0  0  0  0  0  0  0  0
  152.1969  144.2589  160.6703 C   0  0  0  0  0  0  0  0  0  0  0  0
  151.2996  144.8810  159.7815 C   0  0  0  0  0  0  0  0  0  0  0  0
  150.6950  144.1392  158.7502 C   0  0  0  0  0  0  0  0  0  0  0  0
  150.9826  142.7655  158.6049 C   0  0  0  0  0  0  0  0  0  0  0  0
  150.3855  141.9561  157.4605 C   0  0  1  0  0  0  0  0  0  0  0  0
  149.3451  142.6438  156.7947 O   0  0  0  0  0  0  0  0  0  0  0  0
  151.4473  141.5482  156.4173 C   0  0  0  0  0  0  0  0  0  0  0  0
  151.0515  140.3670  155.6636 N   0  0  0  0  0  0  0  0  0  0  0  0
  150.2512  140.5073  154.5754 N   0  0  0  0  0  0  0  0  0  0  0  0
  150.0220  139.2734  154.1312 C   0  0  0  0  0  0  0  0  0  0  0  0
  150.6687  138.2910  154.9297 C   0  0  0  0  0  0  0  0  0  0  0  0
  150.7380  136.8331  154.9202 C   0  0  0  0  0  0  0  0  0  0  0  0
  151.4253  136.2454  155.8490 N   0  0  0  0  0  0  0  0  0  0  0  0
  152.0921  136.9809  156.8353 N   0  0  0  0  0  0  0  0  0  0  0  0
  152.8105  136.1750  157.8197 C   0  0  0  0  0  0  0  0  0  0  0  0
  152.1129  138.3448  156.9175 C   0  0  0  0  0  0  0  0  0  0  0  0
  152.7315  138.9718  157.7770 O   0  0  0  0  0  0  0  0  0  0  0  0
  151.3122  139.0257  155.8707 C   0  0  0  0  0  0  0  0  0  0  0  0
  151.8729  142.1462  159.5076 C   0  0  0  0  0  0  0  0  0  0  0  0
  154.6730  140.6214  161.5808 H   0  0  0  0  0  0  0  0  0  0  0  0
  154.6783  141.3424  159.9757 H   0  0  0  0  0  0  0  0  0  0  0  0
  153.3304  140.2985  160.4903 H   0  0  0  0  0  0  0  0  0  0  0  0
  152.6465  144.8629  161.4436 H   0  0  0  0  0  0  0  0  0  0  0  0
  151.0823  145.9339  159.8849 H   0  0  0  0  0  0  0  0  0  0  0  0
  150.0260  144.6344  158.0617 H   0  0  0  0  0  0  0  0  0  0  0  0
  149.9358  141.0537  157.8774 H   0  0  0  0  0  0  0  0  0  0  0  0
  149.6592  143.5027  156.5572 H   0  0  0  0  0  0  0  0  0  0  0  0
  151.6005  142.3622  155.7066 H   0  0  0  0  0  0  0  0  0  0  0  0
  152.4139  141.3747  156.8889 H   0  0  0  0  0  0  0  0  0  0  0  0
  149.3937  139.1352  153.2637 H   0  0  0  0  0  0  0  0  0  0  0  0
  150.2210  136.2588  154.1515 H   0  0  0  0  0  0  0  0  0  0  0  0
  153.8797  136.3889  157.7838 H   0  0  0  0  0  0  0  0  0  0  0  0
  152.6809  135.1054  157.6460 H   0  0  0  0  0  0  0  0  0  0  0  0
  152.4517  136.3905  158.8273 H   0  0  0  0  0  0  0  0  0  0  0  0
  152.1054  141.0972  159.3930 H   0  0  0  0  0  0  0  0  0  0  0  0
  1  2  1  0  0  0  0
  1 23  1  0  0  0  0
  1 24  1  0  0  0  0
  1 25  1  0  0  0  0
  2  3  1  0  0  0  0
  3 22  1  0  0  0  0
  3  4  2  0  0  0  0
  4  5  1  0  0  0  0
  4 26  1  0  0  0  0
  5  6  2  0  0  0  0
  5 27  1  0  0  0  0
  6  7  1  0  0  0  0
  6 28  1  0  0  0  0
  7  8  1  0  0  0  0
  7 22  2  0  0  0  0
  8  9  1  0  0  0  0
  8 10  1  0  0  0  0
  8 29  1  0  0  0  0
  9 30  1  0  0  0  0
 10 11  1  0  0  0  0
 10 31  1  0  0  0  0
 10 32  1  0  0  0  0
 11 21  1  0  0  0  0
 11 12  1  0  0  0  0
 12 13  2  0  0  0  0
 13 14  1  0  0  0  0
 13 33  1  0  0  0  0
 14 21  2  0  0  0  0
 14 15  1  0  0  0  0
 15 16  2  0  0  0  0
 15 34  1  0  0  0  0
 16 17  1  0  0  0  0
 17 18  1  0  0  0  0
 17 19  1  0  0  0  0
 18 35  1  0  0  0  0
 18 36  1  0  0  0  0
 18 37  1  0  0  0  0
 19 20  2  0  0  0  0
 19 21  1  0  0  0  0
 22 38  1  0  0  0  0
M  END
> <s_m_source_file>
AV-unprocessed.smi

> <i_m_source_file_index>
2571

> <i_lp_mmshare_version>
43012

> <i_f3d_flags>
0

> <s_epik_input>
W0NIM11PYzFbY0hdW2NIXVtjSF1jKFtjSF0xKVtDQEhdKFtPSF0pW0NIMl1uKG5bY0hdMiljKGMyMyljKD1PKW4oW0NIM10pbltjSF0z

> <s_epik_cmdline>
J2VwaWtfcHl0aG9uJywgJy1waCcsICc3LjAnLCAnLXRuJywgJzgnLCAnLW1hJywgJzIwMCcsICctbWV0YWxfYmluZGluZycsICctaW1hZScsICc8aW5maWxlLm1hZT4nLCAnLW9tYWUnLCAnPG91dGZpbGUubWFlPic=

> <r_lp_tautomer_probability>
1

> <r_epik_Ionization_Penalty>
1.38887e-06

> <r_epik_Ionization_Penalty_Charging>
1.65421e-10

> <r_epik_Ionization_Penalty_Neutral>
1.38871e-06

> <r_epik_State_Penalty>
-0

> <r_epik_Charging_Adjusted_Penalty>
1.65421e-10

> <i_epik_Tot_Q>
0

> <i_epik_Tot_abs_Q>
0

> <r_epik_Metal_State_Penalty>
-0

> <b_epik_Metal_Only>
0

> <s_lp_Force_Field>
OPLS_2005

> <r_lp_Energy>
30.2232

> <b_lp_Chiralities_Consistent>
1

> <s_lp_Variant>
AV-unprocessed.smi:2571-2

> <Gold.Version>
5.8.1

> <Gold.Id.Protein>
6NUR|6NUR_protein|mol2

> <Gold.PLP.Fitness>
53.4128

> <Gold.PLP.PLP>
-43.2770

> <Gold.PLP.part.hbond>
-4.0000

> <Gold.PLP.part.metal>
0.0000

> <Gold.PLP.part.buried>
-3.5420

> <Gold.PLP.part.nonpolar>
-34.6147

> <Gold.PLP.part.repulsive>
0.1703

> <Gold.PLP.ligand.clash>
0.0000

> <Gold.PLP.ligand.torsion>
1.1363

> <Gold.PLP.Chemscore.Hbond>
2.4025

> <Gold.PLP.Chemscore.CHOScore>
1.7218

> <Gold.PLP.Chemscore.Metal>
0.0000

> <Gold.Chemscore.Hbonds>
donor molecule, donor type, donor heavy atom, donor atom, acceptor molecule, acceptor atom, score
      L1  H     9    30       P1  8028  0.59
      P1  H  7989  7998       L1    12  0.52
      P1  H 10752 10764       L1    16  0.88
      L1  C    13    33       P1  7957  0.98
      L1  C    15    34       P1  7948  0.72
      L1  C    15    34       P1  7949  0.05

> <Gold.PLP.Chemscore.Internal.Correction>
0.0351

> <Gold.Rescore>
     Score         DG    S(hbond)    S(metal)    S(lipo)     H(rot)  DE(clash)    DE(int)     intcor
     17.14     -18.99       1.68        0.00     115.98       2.21       0.58       1.27       ----

> <Gold.Chemscore.Fitness>
17.1405

> <Gold.Chemscore.DG>
-18.9878

> <Gold.Chemscore.ZeroCoef>
-5.4800

> <Gold.Chemscore.Hbond>
1.6788

> <Gold.Chemscore.Metal>
0.0000

> <Gold.Chemscore.Lipo>
115.9836

> <Gold.Chemscore.Internal_Hbond>
0.0000

> <Gold.Chemscore.DEClash>
0.5780

> <Gold.Chemscore.DEInternal>
1.2694

> <Gold.Chemscore.Rot>
2.2146

> <Gold.Chemscore.Internal.Correction>
   9.000000E+99

> <Gold.Chemscore.Hbonds>
donor molecule, donor type, donor heavy atom, donor atom, acceptor molecule, acceptor atom, score
      L1  H     9    30       P1  8028  0.60
      P1  H  7989  7998       L1    12  0.01
      P1  H  7997  8010       L1    20  0.01
      P1  H 10752 10764       L1    16  0.06

> <Gold.Chemscore.Hbond.Weighted>
-5.6070

> <Gold.Chemscore.Metal.Weighted>
-0.0000

> <Gold.Chemscore.Lipo.Weighted>
-13.5701

> <Gold.Chemscore.Internal_Hbond.Weighted>
0.0000

> <Gold.Chemscore.DEClash.Weighted>
0.5780

> <Gold.Chemscore.DEInternal.Weighted>
1.2694

> <Gold.Chemscore.Rot.Weighted>
5.6693

> <Gold.Chemscore.Internal.Correction.Weighted>
   9.000000E+99

> <Gold.Protein.RotatedTorsions>
[ 6907 6896 6895 6894 ] final  165.91 input  -60.11 | X-H torsion
[ 7974 7965 7964 7962 ] final   64.34 input  175.53 | X-H torsion
[ 8008 7997 7996 7995 ] final    6.72 input   59.86 | X-H torsion
[ 10167 10162 10161 10158 ] final   83.49 input  -65.29 | X-H torsion
[ 10718 10713 10712 10709 ] final  -44.43 input   66.30 | X-H torsion
[ 10763 10752 10751 10750 ] final  -55.99 input  -60.55 | X-H torsion
[ 11005 11000 10999 10996 ] final  171.80 input  -57.11 | X-H torsion

> <Gold.Protein.ActiveResidues>
 VAL166  LYS551  ARG553  GLY616  TRP617  ASP618  TYR619  PRO620  LYS621  CYS622 
 ASP623  PHE694  ASN695  SER759  ASP760  ASP761  ALA762  ILE779  LEU786  VAL792 
 PHE793  MET794  SER795  GLU796  ALA797  LYS798  CYS799  TRP800  GLU811  SER814 

> <Gold.Protein.RotatedAtoms>
  151.8872  133.3508  159.3785 H   0  0  0  0  0  0  0  0  0  0  0  0  # atno 6907 bound_to 6896
  150.7112  134.4960  159.5548 H   0  0  0  0  0  0  0  0  0  0  0  0  # atno 6908 bound_to 6896
  152.2523  134.8120  160.0495 H   0  0  0  0  0  0  0  0  0  0  0  0  # atno 6909 bound_to 6896
  145.8514  139.3256  143.0873 H   0  0  0  0  0  0  0  0  0  0  0  0  # atno 7974 bound_to 7965
  154.7446  140.2755  155.6344 H   0  0  0  0  0  0  0  0  0  0  0  0  # atno 8008 bound_to 7997
  156.2882  140.2690  156.2109 H   0  0  0  0  0  0  0  0  0  0  0  0  # atno 8009 bound_to 7997
  155.0214  140.0371  157.2428 H   0  0  0  0  0  0  0  0  0  0  0  0  # atno 8010 bound_to 7997
  139.9178  144.6231  150.8470 H   0  0  0  0  0  0  0  0  0  0  0  0  # atno 10167 bound_to 10162
  156.2387  130.4178  149.8787 H   0  0  0  0  0  0  0  0  0  0  0  0  # atno 10718 bound_to 10713
  154.1995  135.6413  153.5083 H   0  0  0  0  0  0  0  0  0  0  0  0  # atno 10763 bound_to 10752
  153.0015  135.5448  154.6330 H   0  0  0  0  0  0  0  0  0  0  0  0  # atno 10764 bound_to 10752
  154.5739  135.2919  155.0773 H   0  0  0  0  0  0  0  0  0  0  0  0  # atno 10765 bound_to 10752
  140.3229  134.7422  157.4077 H   0  0  0  0  0  0  0  0  0  0  0  0  # atno 11005 bound_to 11000
  145.9353  140.9019  143.0335 LP  0  0  0  0  0  0  0  0  0  0  0  0  # atno 17320 bound_to 7965
  144.6729  140.1475  143.7432 LP  0  0  0  0  0  0  0  0  0  0  0  0  # atno 17321 bound_to 7965
  140.7669  143.3318  151.2393 LP  0  0  0  0  0  0  0  0  0  0  0  0  # atno 17342 bound_to 10162
  139.6887  143.9729  152.2848 LP  0  0  0  0  0  0  0  0  0  0  0  0  # atno 17343 bound_to 10162
  156.6376  130.8691  151.3508 LP  0  0  0  0  0  0  0  0  0  0  0  0  # atno 17370 bound_to 10713
  157.7165  130.9504  150.1277 LP  0  0  0  0  0  0  0  0  0  0  0  0  # atno 17371 bound_to 10713
  140.0927  134.5580  155.8429 LP  0  0  0  0  0  0  0  0  0  0  0  0  # atno 17394 bound_to 11000
  141.2082  133.6671  156.6357 LP  0  0  0  0  0  0  0  0  0  0  0  0  # atno 17395 bound_to 11000

$$$$
