AV-unprocessed.smi:2740|AV-procd|sdf|10556|dock4
  -GOLD-   2272015 03D 1   1.00000     0.00000
 Structure written by MMmdl.
 30 31  0  0  0  0  0  0  0  0  2 V2000
  151.0238  144.7471  159.5298 C   0  0  0  0  0  0  0  0  0  0  0  0
  151.6425  143.4367  159.1777 C   0  0  0  0  0  0  0  0  0  0  0  0
  152.6453  142.7806  159.8432 C   0  0  0  0  0  0  0  0  0  0  0  0
  153.0045  141.5645  159.2603 N   0  0  0  0  0  0  0  0  0  0  0  0
  152.2924  141.2684  158.1678 C   0  0  0  0  0  0  0  0  0  0  0  0
  152.4773  140.1454  157.4547 N   0  5  0  0  0  0  0  0  0  0  0  0
  151.8378  139.9828  156.2738 C   0  0  0  0  0  0  0  0  0  0  0  0
  151.3152  140.8722  155.5978 O   0  0  0  0  0  0  0  0  0  0  0  0
  151.8015  138.7117  155.8483 N   0  0  0  0  0  0  0  0  0  0  0  0
  151.1790  138.2442  154.6143 C   0  0  0  0  0  0  0  0  0  0  0  0
  150.5451  136.8542  154.7893 C   0  0  2  0  0  0  0  0  0  0  0  0
  149.3322  136.8426  155.7188 C   0  0  0  0  0  0  0  0  0  0  0  0
  149.3219  135.4311  156.2884 C   0  0  0  0  0  0  0  0  0  0  0  0
  150.6745  134.8480  155.8709 C   0  0  0  0  0  0  0  0  0  0  0  0
  151.4374  135.9675  155.4465 O   0  0  0  0  0  0  0  0  0  0  0  0
  151.1207  142.5311  157.7825 S   0  0  0  0  0  0  0  0  0  0  0  0
  150.5217  144.6883  160.4955 H   0  0  0  0  0  0  0  0  0  0  0  0
  150.2868  145.0490  158.7853 H   0  0  0  0  0  0  0  0  0  0  0  0
  151.7813  145.5286  159.5897 H   0  0  0  0  0  0  0  0  0  0  0  0
  153.1589  143.1043  160.7362 H   0  0  0  0  0  0  0  0  0  0  0  0
  152.2449  138.0150  156.4287 H   0  0  0  0  0  0  0  0  0  0  0  0
  150.4218  138.9681  154.3127 H   0  0  0  0  0  0  0  0  0  0  0  0
  151.9205  138.2226  153.8140 H   0  0  0  0  0  0  0  0  0  0  0  0
  150.2674  136.4294  153.8227 H   0  0  0  0  0  0  0  0  0  0  0  0
  149.4683  137.5606  156.5286 H   0  0  0  0  0  0  0  0  0  0  0  0
  148.4087  137.0965  155.1977 H   0  0  0  0  0  0  0  0  0  0  0  0
  149.2174  135.4574  157.3736 H   0  0  0  0  0  0  0  0  0  0  0  0
  148.5014  134.8363  155.8860 H   0  0  0  0  0  0  0  0  0  0  0  0
  151.1705  134.3140  156.6817 H   0  0  0  0  0  0  0  0  0  0  0  0
  150.5536  134.1596  155.0331 H   0  0  0  0  0  0  0  0  0  0  0  0
  1  2  1  0  0  0  0
  1 17  1  0  0  0  0
  1 18  1  0  0  0  0
  1 19  1  0  0  0  0
  2 16  1  0  0  0  0
  2  3  2  0  0  0  0
  3  4  1  0  0  0  0
  3 20  1  0  0  0  0
  4  5  2  0  0  0  0
  5  6  1  0  0  0  0
  5 16  1  0  0  0  0
  6  7  1  0  0  0  0
  7  8  2  0  0  0  0
  7  9  1  0  0  0  0
  9 10  1  0  0  0  0
  9 21  1  0  0  0  0
 10 11  1  0  0  0  0
 10 22  1  0  0  0  0
 10 23  1  0  0  0  0
 11 15  1  0  0  0  0
 11 12  1  0  0  0  0
 11 24  1  0  0  0  0
 12 13  1  0  0  0  0
 12 25  1  0  0  0  0
 12 26  1  0  0  0  0
 13 14  1  0  0  0  0
 13 27  1  0  0  0  0
 13 28  1  0  0  0  0
 14 15  1  0  0  0  0
 14 29  1  0  0  0  0
 14 30  1  0  0  0  0
M  CHG  1   6  -1
M  END
> <s_m_source_file>
AV-unprocessed.smi

> <i_m_source_file_index>
2740

> <i_lp_mmshare_version>
43012

> <i_f3d_flags>
0

> <s_epik_input>
W0NIM11jMVtjSF1uYyhzMSlbTkhdQyg9TylbTkhdW0NIMl1bQ0BASF0yW0NIMl1bQ0gyXVtDSDJdTzI=

> <s_epik_cmdline>
J2VwaWtfcHl0aG9uJywgJy1waCcsICc3LjAnLCAnLXRuJywgJzgnLCAnLW1hJywgJzIwMCcsICctbWV0YWxfYmluZGluZycsICctaW1hZScsICc8aW5maWxlLm1hZT4nLCAnLW9tYWUnLCAnPG91dGZpbGUubWFlPic=

> <r_lp_tautomer_probability>
0.999

> <r_epik_Ionization_Penalty>
8.54039

> <r_epik_Ionization_Penalty_Charging>
6.77868

> <r_epik_Ionization_Penalty_Neutral>
1.76171

> <r_epik_State_Penalty>
6.77885

> <r_epik_Charging_Adjusted_Penalty>
13.5575

> <i_epik_Tot_Q>
-1

> <i_epik_Tot_abs_Q>
1

> <r_epik_Metal_State_Penalty>
2.69888

> <b_epik_Metal_Only>
1

> <s_lp_Force_Field>
OPLS_2005

> <r_lp_Energy>
13.1736

> <b_lp_Chiralities_Consistent>
1

> <s_lp_Variant>
AV-unprocessed.smi:2740-3

> <Gold.Version>
5.8.1

> <Gold.Id.Protein>
6NUR|6NUR_protein|mol2

> <Gold.PLP.Fitness>
38.3093

> <Gold.PLP.PLP>
-27.8467

> <Gold.PLP.part.hbond>
-3.0000

> <Gold.PLP.part.metal>
0.0000

> <Gold.PLP.part.buried>
-3.6877

> <Gold.PLP.part.nonpolar>
-21.0207

> <Gold.PLP.part.repulsive>
0.2707

> <Gold.PLP.ligand.clash>
0.0000

> <Gold.PLP.ligand.torsion>
0.3123

> <Gold.PLP.Chemscore.Hbond>
3.6820

> <Gold.PLP.Chemscore.CHOScore>
0.0000

> <Gold.PLP.Chemscore.Metal>
0.0000

> <Gold.Chemscore.Hbonds>
donor molecule, donor type, donor heavy atom, donor atom, acceptor molecule, acceptor atom, score
      P1  H  7989  7998       L1     8  0.55
      P1  H  7997  8008       L1     6  1.57
      P1  H 10752 10764       L1    15  1.00

> <Gold.PLP.Chemscore.Internal.Correction>
0.0413

> <Gold.Rescore>
     Score         DG    S(hbond)    S(metal)    S(lipo)     H(rot)  DE(clash)    DE(int)     intcor
     14.89     -16.67       2.03        0.00      65.00       1.25       0.00       1.78       ----

> <Gold.Chemscore.Fitness>
14.8904

> <Gold.Chemscore.DG>
-16.6726

> <Gold.Chemscore.ZeroCoef>
-5.4800

> <Gold.Chemscore.Hbond>
2.0332

> <Gold.Chemscore.Metal>
0.0000

> <Gold.Chemscore.Lipo>
65.0025

> <Gold.Chemscore.Internal_Hbond>
0.0000

> <Gold.Chemscore.DEClash>
0.0021

> <Gold.Chemscore.DEInternal>
1.7801

> <Gold.Chemscore.Rot>
1.2514

> <Gold.Chemscore.Internal.Correction>
   9.000000E+99

> <Gold.Chemscore.Hbonds>
donor molecule, donor type, donor heavy atom, donor atom, acceptor molecule, acceptor atom, score
      P1  H  7989  7998       L1     8  0.52
      P1  H  7997  8008       L1     6  0.09
      P1  H 10752 10764       L1    15  0.85

> <Gold.Chemscore.Hbond.Weighted>
-6.7909

> <Gold.Chemscore.Metal.Weighted>
-0.0000

> <Gold.Chemscore.Lipo.Weighted>
-7.6053

> <Gold.Chemscore.Internal_Hbond.Weighted>
0.0000

> <Gold.Chemscore.DEClash.Weighted>
0.0021

> <Gold.Chemscore.DEInternal.Weighted>
1.7801

> <Gold.Chemscore.Rot.Weighted>
3.2036

> <Gold.Chemscore.Internal.Correction.Weighted>
   9.000000E+99

> <Gold.Protein.RotatedTorsions>
[ 6907 6896 6895 6894 ] final  145.61 input  -60.11 | X-H torsion
[ 7974 7965 7964 7962 ] final  -11.44 input  175.53 | X-H torsion
[ 8008 7997 7996 7995 ] final  -64.54 input   59.86 | X-H torsion
[ 10167 10162 10161 10158 ] final  156.20 input  -65.29 | X-H torsion
[ 10718 10713 10712 10709 ] final  -53.48 input   66.30 | X-H torsion
[ 10763 10752 10751 10750 ] final  -47.59 input  -60.55 | X-H torsion
[ 11005 11000 10999 10996 ] final  178.84 input  -57.11 | X-H torsion

> <Gold.Protein.ActiveResidues>
 VAL166  LYS551  ARG553  GLY616  TRP617  ASP618  TYR619  PRO620  LYS621  CYS622 
 ASP623  PHE694  ASN695  SER759  ASP760  ASP761  ALA762  ILE779  LEU786  VAL792 
 PHE793  MET794  SER795  GLU796  ALA797  LYS798  CYS799  TRP800  GLU811  SER814 

> <Gold.Protein.RotatedAtoms>
  152.1786  133.4692  159.4945 H   0  0  0  0  0  0  0  0  0  0  0  0  # atno 6907 bound_to 6896
  150.6931  134.1862  159.4277 H   0  0  0  0  0  0  0  0  0  0  0  0  # atno 6908 bound_to 6896
  151.9772  135.0046  160.0606 H   0  0  0  0  0  0  0  0  0  0  0  0  # atno 6909 bound_to 6896
  146.2187  140.2911  142.8368 H   0  0  0  0  0  0  0  0  0  0  0  0  # atno 7974 bound_to 7965
  154.4618  140.0951  156.6913 H   0  0  0  0  0  0  0  0  0  0  0  0  # atno 8008 bound_to 7997
  155.4972  140.3472  155.4346 H   0  0  0  0  0  0  0  0  0  0  0  0  # atno 8009 bound_to 7997
  156.0884  140.1391  156.9612 H   0  0  0  0  0  0  0  0  0  0  0  0  # atno 8010 bound_to 7997
  139.4821  144.5030  151.8139 H   0  0  0  0  0  0  0  0  0  0  0  0  # atno 10167 bound_to 10162
  156.1531  130.4151  149.9912 H   0  0  0  0  0  0  0  0  0  0  0  0  # atno 10718 bound_to 10713
  154.0639  135.6614  153.4815 H   0  0  0  0  0  0  0  0  0  0  0  0  # atno 10763 bound_to 10752
  153.0416  135.5141  154.7632 H   0  0  0  0  0  0  0  0  0  0  0  0  # atno 10764 bound_to 10752
  154.6677  135.3024  154.9751 H   0  0  0  0  0  0  0  0  0  0  0  0  # atno 10765 bound_to 10752
  140.3995  134.6790  157.4554 H   0  0  0  0  0  0  0  0  0  0  0  0  # atno 11005 bound_to 11000
  144.9126  140.7775  143.5798 LP  0  0  0  0  0  0  0  0  0  0  0  0  # atno 17320 bound_to 7965
  145.2843  139.1907  143.4774 LP  0  0  0  0  0  0  0  0  0  0  0  0  # atno 17321 bound_to 7965
  140.4525  144.1835  150.5898 LP  0  0  0  0  0  0  0  0  0  0  0  0  # atno 17342 bound_to 10162
  140.4569  143.2464  151.9272 LP  0  0  0  0  0  0  0  0  0  0  0  0  # atno 17343 bound_to 10162
  156.7764  130.9205  151.3645 LP  0  0  0  0  0  0  0  0  0  0  0  0  # atno 17370 bound_to 10713
  157.6673  130.9019  149.9961 LP  0  0  0  0  0  0  0  0  0  0  0  0  # atno 17371 bound_to 10713
  140.0347  134.6355  155.9060 LP  0  0  0  0  0  0  0  0  0  0  0  0  # atno 17394 bound_to 11000
  141.1862  133.6556  156.5229 LP  0  0  0  0  0  0  0  0  0  0  0  0  # atno 17395 bound_to 11000

$$$$
