AV-unprocessed.smi:3032|AV-procd|sdf|11570|dock6
  -GOLD-   2272016533D 1   1.00000     0.00000
 Structure written by MMmdl.
 36 37  0  0  0  0  0  0  0  0  2 V2000
  153.5021  141.6486  160.6202 C   0  0  0  0  0  0  0  0  0  0  0  0
  152.4675  142.3977  159.7685 C   0  0  1  0  0  0  0  0  0  0  0  0
  152.9430  143.8227  159.4253 C   0  0  0  0  0  0  0  0  0  0  0  0
  151.9106  144.5708  158.5666 C   0  0  0  0  0  0  0  0  0  0  0  0
  151.5724  143.7849  157.2898 C   0  0  0  0  0  0  0  0  0  0  0  0
  151.0799  142.3625  157.6267 C   0  0  1  0  0  0  0  0  0  0  0  0
  150.7590  141.5673  156.3546 C   0  0  0  0  0  0  0  0  0  0  0  0
  151.3806  140.5363  156.0952 O   0  0  0  0  0  0  0  0  0  0  0  0
  149.7718  142.0525  155.5856 N   0  0  0  0  0  0  0  0  0  0  0  0
  149.1900  141.3867  154.4230 C   0  0  0  0  0  0  0  0  0  0  0  0
  147.8042  140.7988  154.7444 C   0  0  0  0  0  0  0  0  0  0  0  0
  147.2811  139.8650  153.6699 C   0  0  0  0  0  0  0  0  0  0  0  0
  146.9984  138.5566  153.8346 N   0  5  0  0  0  0  0  0  0  0  0  0
  146.5169  138.0519  152.7154 N   0  0  0  0  0  0  0  0  0  0  0  0
  146.5083  139.0863  151.8666 C   0  0  0  0  0  0  0  0  0  0  0  0
  146.9699  140.2112  152.4225 N   0  0  0  0  0  0  0  0  0  0  0  0
  152.1289  141.6203  158.4818 C   0  0  0  0  0  0  0  0  0  0  0  0
  154.4451  141.5299  160.0857 H   0  0  0  0  0  0  0  0  0  0  0  0
  153.1434  140.6539  160.8865 H   0  0  0  0  0  0  0  0  0  0  0  0
  153.7090  142.1833  161.5475 H   0  0  0  0  0  0  0  0  0  0  0  0
  151.5548  142.4807  160.3606 H   0  0  0  0  0  0  0  0  0  0  0  0
  153.1323  144.3842  160.3408 H   0  0  0  0  0  0  0  0  0  0  0  0
  153.8926  143.7751  158.8905 H   0  0  0  0  0  0  0  0  0  0  0  0
  151.0017  144.7333  159.1470 H   0  0  0  0  0  0  0  0  0  0  0  0
  152.2913  145.5583  158.3049 H   0  0  0  0  0  0  0  0  0  0  0  0
  150.8111  144.3217  156.7221 H   0  0  0  0  0  0  0  0  0  0  0  0
  152.4572  143.7374  156.6528 H   0  0  0  0  0  0  0  0  0  0  0  0
  150.1644  142.4510  158.2149 H   0  0  0  0  0  0  0  0  0  0  0  0
  149.3225  142.9051  155.8860 H   0  0  0  0  0  0  0  0  0  0  0  0
  149.1053  142.1123  153.6142 H   0  0  0  0  0  0  0  0  0  0  0  0
  149.8425  140.5933  154.0550 H   0  0  0  0  0  0  0  0  0  0  0  0
  147.8463  140.2492  155.6853 H   0  0  0  0  0  0  0  0  0  0  0  0
  147.0847  141.6048  154.8902 H   0  0  0  0  0  0  0  0  0  0  0  0
  146.1626  139.0198  150.8424 H   0  0  0  0  0  0  0  0  0  0  0  0
  153.0405  141.4635  157.9023 H   0  0  0  0  0  0  0  0  0  0  0  0
  151.7573  140.6278  158.7412 H   0  0  0  0  0  0  0  0  0  0  0  0
  1  2  1  0  0  0  0
  1 18  1  0  0  0  0
  1 19  1  0  0  0  0
  1 20  1  0  0  0  0
  2 17  1  0  0  0  0
  2  3  1  0  0  0  0
  2 21  1  0  0  0  0
  3  4  1  0  0  0  0
  3 22  1  0  0  0  0
  3 23  1  0  0  0  0
  4  5  1  0  0  0  0
  4 24  1  0  0  0  0
  4 25  1  0  0  0  0
  5  6  1  0  0  0  0
  5 26  1  0  0  0  0
  5 27  1  0  0  0  0
  6  7  1  0  0  0  0
  6 17  1  0  0  0  0
  6 28  1  0  0  0  0
  7  8  2  0  0  0  0
  7  9  1  0  0  0  0
  9 10  1  0  0  0  0
  9 29  1  0  0  0  0
 10 11  1  0  0  0  0
 10 30  1  0  0  0  0
 10 31  1  0  0  0  0
 11 32  1  0  0  0  0
 11 33  1  0  0  0  0
 11 12  1  0  0  0  0
 12 16  2  0  0  0  0
 12 13  1  0  0  0  0
 13 14  1  0  0  0  0
 14 15  2  0  0  0  0
 15 16  1  0  0  0  0
 15 34  1  0  0  0  0
 17 35  1  0  0  0  0
 17 36  1  0  0  0  0
M  CHG  1  13  -1
M  END
> <s_m_source_file>
AV-unprocessed.smi

> <i_m_source_file_index>
3032

> <i_lp_mmshare_version>
43012

> <i_f3d_flags>
0

> <s_epik_input>
W0NIM11bQ0BASF0xW0NIMl1bQ0gyXVtDSDJdW0NASF0oW0NIMl0xKUMoPU8pW05IXVtDSDJdW0NIMl1jMm5uW2NIXVtuSF0y

> <s_epik_cmdline>
J2VwaWtfcHl0aG9uJywgJy1waCcsICc3LjAnLCAnLXRuJywgJzgnLCAnLW1hJywgJzIwMCcsICctbWV0YWxfYmluZGluZycsICctaW1hZScsICc8aW5maWxlLm1hZT4nLCAnLW9tYWUnLCAnPG91dGZpbGUubWFlPic=

> <r_lp_tautomer_probability>
0.948284

> <r_epik_Ionization_Penalty>
12.042

> <r_epik_Ionization_Penalty_Charging>
12.042

> <r_epik_Ionization_Penalty_Neutral>
4.36781e-08

> <r_epik_State_Penalty>
4.67286

> <r_epik_Charging_Adjusted_Penalty>
16.7149

> <i_epik_Tot_Q>
-1

> <i_epik_Tot_abs_Q>
1

> <r_epik_Metal_State_Penalty>
0.981637

> <b_epik_Metal_Only>
1

> <s_lp_Force_Field>
OPLS_2005

> <r_lp_Energy>
10.6668

> <b_lp_Chiralities_Consistent>
1

> <s_lp_Variant>
AV-unprocessed.smi:3032-14

> <Gold.Version>
5.8.1

> <Gold.Id.Protein>
6NUR|6NUR_protein|mol2

> <Gold.PLP.Fitness>
42.9384

> <Gold.PLP.PLP>
-37.2808

> <Gold.PLP.part.hbond>
-1.0000

> <Gold.PLP.part.metal>
0.0000

> <Gold.PLP.part.buried>
-3.6580

> <Gold.PLP.part.nonpolar>
-35.0531

> <Gold.PLP.part.repulsive>
2.4219

> <Gold.PLP.ligand.clash>
0.0000

> <Gold.PLP.ligand.torsion>
0.1770

> <Gold.PLP.Chemscore.Hbond>
1.0000

> <Gold.PLP.Chemscore.CHOScore>
0.9970

> <Gold.PLP.Chemscore.Metal>
0.0000

> <Gold.Chemscore.Hbonds>
donor molecule, donor type, donor heavy atom, donor atom, acceptor molecule, acceptor atom, score
      L1  H     9    29       P1  8028  1.00
      L1  C    15    34       P1 10171  1.00

> <Gold.PLP.Chemscore.Internal.Correction>
0.0206

> <Gold.Rescore>
     Score         DG    S(hbond)    S(metal)    S(lipo)     H(rot)  DE(clash)    DE(int)     intcor
     13.48     -13.85       0.98        0.00      92.18       2.21       0.22       0.15       ----

> <Gold.Chemscore.Fitness>
13.4796

> <Gold.Chemscore.DG>
-13.8528

> <Gold.Chemscore.ZeroCoef>
-5.4800

> <Gold.Chemscore.Hbond>
0.9756

> <Gold.Chemscore.Metal>
0.0000

> <Gold.Chemscore.Lipo>
92.1768

> <Gold.Chemscore.Internal_Hbond>
0.0000

> <Gold.Chemscore.DEClash>
0.2222

> <Gold.Chemscore.DEInternal>
0.1510

> <Gold.Chemscore.Rot>
2.2149

> <Gold.Chemscore.Internal.Correction>
   9.000000E+99

> <Gold.Chemscore.Hbonds>
donor molecule, donor type, donor heavy atom, donor atom, acceptor molecule, acceptor atom, score
      L1  H     9    29       P1  8028  0.96

> <Gold.Chemscore.Hbond.Weighted>
-3.2584

> <Gold.Chemscore.Metal.Weighted>
-0.0000

> <Gold.Chemscore.Lipo.Weighted>
-10.7847

> <Gold.Chemscore.Internal_Hbond.Weighted>
0.0000

> <Gold.Chemscore.DEClash.Weighted>
0.2222

> <Gold.Chemscore.DEInternal.Weighted>
0.1510

> <Gold.Chemscore.Rot.Weighted>
5.6702

> <Gold.Chemscore.Internal.Correction.Weighted>
   9.000000E+99

> <Gold.Protein.RotatedTorsions>
[ 6907 6896 6895 6894 ] final  -80.43 input  -60.11 | X-H torsion
[ 7974 7965 7964 7962 ] final  -46.63 input  175.53 | X-H torsion
[ 8008 7997 7996 7995 ] final -133.29 input   59.86 | X-H torsion
[ 10167 10162 10161 10158 ] final  103.91 input  -65.29 | X-H torsion
[ 10718 10713 10712 10709 ] final   -7.62 input   66.30 | X-H torsion
[ 10763 10752 10751 10750 ] final -150.01 input  -60.55 | X-H torsion
[ 11005 11000 10999 10996 ] final  173.71 input  -57.11 | X-H torsion

> <Gold.Protein.ActiveResidues>
 VAL166  LYS551  ARG553  GLY616  TRP617  ASP618  TYR619  PRO620  LYS621  CYS622 
 ASP623  PHE694  ASN695  SER759  ASP760  ASP761  ALA762  ILE779  LEU786  VAL792 
 PHE793  MET794  SER795  GLU796  ALA797  LYS798  CYS799  TRP800  GLU811  SER814 

> <Gold.Protein.RotatedAtoms>
  150.6929  134.3970  159.5101 H   0  0  0  0  0  0  0  0  0  0  0  0  # atno 6907 bound_to 6896
  152.1750  134.8800  160.0540 H   0  0  0  0  0  0  0  0  0  0  0  0  # atno 6908 bound_to 6896
  151.9812  133.3723  159.4145 H   0  0  0  0  0  0  0  0  0  0  0  0  # atno 6909 bound_to 6896
  145.9699  140.7393  142.9415 H   0  0  0  0  0  0  0  0  0  0  0  0  # atno 7974 bound_to 7965
  155.3431  140.0473  157.3045 H   0  0  0  0  0  0  0  0  0  0  0  0  # atno 8008 bound_to 7997
  154.5266  140.2243  155.8843 H   0  0  0  0  0  0  0  0  0  0  0  0  # atno 8009 bound_to 7997
  156.1746  140.3088  155.9042 H   0  0  0  0  0  0  0  0  0  0  0  0  # atno 8010 bound_to 7997
  139.7222  144.7055  151.0854 H   0  0  0  0  0  0  0  0  0  0  0  0  # atno 10167 bound_to 10162
  156.7145  130.5132  149.5883 H   0  0  0  0  0  0  0  0  0  0  0  0  # atno 10718 bound_to 10713
  154.8144  135.3295  154.7217 H   0  0  0  0  0  0  0  0  0  0  0  0  # atno 10763 bound_to 10752
  153.7860  135.6915  153.4884 H   0  0  0  0  0  0  0  0  0  0  0  0  # atno 10764 bound_to 10752
  153.1948  135.4537  155.0141 H   0  0  0  0  0  0  0  0  0  0  0  0  # atno 10765 bound_to 10752
  140.3434  134.7257  157.4218 H   0  0  0  0  0  0  0  0  0  0  0  0  # atno 11005 bound_to 11000
  144.6834  140.2731  143.7303 LP  0  0  0  0  0  0  0  0  0  0  0  0  # atno 17320 bound_to 7965
  145.7921  139.1931  143.2097 LP  0  0  0  0  0  0  0  0  0  0  0  0  # atno 17321 bound_to 7965
  140.7756  143.5151  150.9605 LP  0  0  0  0  0  0  0  0  0  0  0  0  # atno 17342 bound_to 10162
  139.8838  143.7038  152.3154 LP  0  0  0  0  0  0  0  0  0  0  0  0  # atno 17343 bound_to 10162
  156.1638  130.6391  151.0752 LP  0  0  0  0  0  0  0  0  0  0  0  0  # atno 17370 bound_to 10713
  157.6923  131.0806  150.7072 LP  0  0  0  0  0  0  0  0  0  0  0  0  # atno 17371 bound_to 10713
  140.0762  134.5794  155.8589 LP  0  0  0  0  0  0  0  0  0  0  0  0  # atno 17394 bound_to 11000
  141.2032  133.6630  156.6050 LP  0  0  0  0  0  0  0  0  0  0  0  0  # atno 17395 bound_to 11000

$$$$
