AV-unprocessed.smi:2837|AV-procd|sdf|10921|dock10
  -GOLD-   2272015373D 1   1.00000     0.00000
 Structure written by MMmdl.
 32 34  0  0  0  0  0  0  0  0  1 V2000
  153.6734  142.6391  163.1488 F   0  0  0  0  0  0  0  0  0  0  0  0
  152.8795  142.6806  162.0517 C   0  0  0  0  0  0  0  0  0  0  0  0
  152.5176  143.9724  161.8572 F   0  0  0  0  0  0  0  0  0  0  0  0
  153.5613  142.2107  160.9735 O   0  0  0  0  0  0  0  0  0  0  0  0
  152.8782  141.9557  159.8064 C   0  0  0  0  0  0  0  0  0  0  0  0
  152.2388  142.9555  159.0362 C   0  0  0  0  0  0  0  0  0  0  0  0
  151.5780  142.5863  157.8489 C   0  0  0  0  0  0  0  0  0  0  0  0
  151.5813  141.2308  157.4610 C   0  0  0  0  0  0  0  0  0  0  0  0
  150.9153  140.8698  156.2811 N   0  0  0  0  0  0  0  0  0  0  0  0
  149.8004  141.6611  155.7691 C   0  0  1  0  0  0  0  0  0  0  0  0
  149.2497  141.1305  154.4434 C   0  0  0  0  0  0  0  0  0  0  0  0
  147.7574  140.9670  154.7640 C   0  0  1  0  0  0  0  0  0  0  0  0
  147.5043  139.7456  155.6575 C   0  0  0  0  0  0  0  0  0  0  0  0
  148.0433  140.2282  157.0028 C   0  0  0  0  0  0  0  0  0  0  0  0
  148.5399  141.6427  156.6579 C   0  0  2  0  0  0  0  0  0  0  0  0
  147.5653  142.0163  155.6982 O   0  0  0  0  0  0  0  0  0  0  0  0
  152.1985  140.2710  158.1885 N   0  0  0  0  0  0  0  0  0  0  0  0
  152.8315  140.6319  159.3247 C   0  0  0  0  0  0  0  0  0  0  0  0
  151.9923  142.0819  162.2597 H   0  0  0  0  0  0  0  0  0  0  0  0
  152.2516  143.9925  159.3371 H   0  0  0  0  0  0  0  0  0  0  0  0
  151.0817  143.3344  157.2479 H   0  0  0  0  0  0  0  0  0  0  0  0
  151.0627  139.9478  155.8967 H   0  0  0  0  0  0  0  0  0  0  0  0
  150.1261  142.6916  155.6194 H   0  0  0  0  0  0  0  0  0  0  0  0
  149.3987  141.8668  153.6530 H   0  0  0  0  0  0  0  0  0  0  0  0
  149.7033  140.1924  154.1201 H   0  0  0  0  0  0  0  0  0  0  0  0
  147.1089  141.0166  153.8891 H   0  0  0  0  0  0  0  0  0  0  0  0
  146.4380  139.5286  155.7284 H   0  0  0  0  0  0  0  0  0  0  0  0
  148.0127  138.8522  155.2934 H   0  0  0  0  0  0  0  0  0  0  0  0
  147.2384  140.2752  157.7371 H   0  0  0  0  0  0  0  0  0  0  0  0
  148.8254  139.5846  157.4060 H   0  0  0  0  0  0  0  0  0  0  0  0
  148.5939  142.3112  157.5173 H   0  0  0  0  0  0  0  0  0  0  0  0
  153.3144  139.8357  159.8719 H   0  0  0  0  0  0  0  0  0  0  0  0
  1  2  1  0  0  0  0
  2  3  1  0  0  0  0
  2  4  1  0  0  0  0
  2 19  1  0  0  0  0
  4  5  1  0  0  0  0
  5 18  1  0  0  0  0
  5  6  2  0  0  0  0
  6  7  1  0  0  0  0
  6 20  1  0  0  0  0
  7  8  2  0  0  0  0
  7 21  1  0  0  0  0
  8  9  1  0  0  0  0
  8 17  1  0  0  0  0
  9 10  1  0  0  0  0
  9 22  1  0  0  0  0
 10 15  1  0  0  0  0
 10 11  1  0  0  0  0
 10 23  1  0  0  0  0
 11 12  1  0  0  0  0
 11 24  1  0  0  0  0
 11 25  1  0  0  0  0
 12 16  1  0  0  0  0
 12 13  1  0  0  0  0
 12 26  1  0  0  0  0
 13 14  1  0  0  0  0
 13 27  1  0  0  0  0
 13 28  1  0  0  0  0
 14 15  1  0  0  0  0
 14 29  1  0  0  0  0
 14 30  1  0  0  0  0
 15 16  1  0  0  0  0
 15 31  1  0  0  0  0
 17 18  2  0  0  0  0
 18 32  1  0  0  0  0
M  END
> <s_m_source_file>
AV-unprocessed.smi

> <i_m_source_file_index>
2837

> <i_lp_mmshare_version>
43012

> <i_f3d_flags>
0

> <s_epik_input>
RltDSF0oRilPYzFbY0hdW2NIXWMobltjSF0xKVtOSF1bQ0BIXShbQ0gyXVtDQEBIXTIzKVtDQEBIXShPMylbQ0gyXVtDSDJdMg==

> <s_epik_cmdline>
J2VwaWtfcHl0aG9uJywgJy1waCcsICc3LjAnLCAnLXRuJywgJzgnLCAnLW1hJywgJzIwMCcsICctbWV0YWxfYmluZGluZycsICctaW1hZScsICc8aW5maWxlLm1hZT4nLCAnLW9tYWUnLCAnPG91dGZpbGUubWFlPic=

> <r_lp_tautomer_probability>
1

> <r_epik_Ionization_Penalty>
0.0124072

> <r_epik_Ionization_Penalty_Charging>
0

> <r_epik_Ionization_Penalty_Neutral>
0.0124072

> <r_epik_State_Penalty>
0.00959565

> <r_epik_Charging_Adjusted_Penalty>
0.00959565

> <i_epik_Tot_Q>
0

> <i_epik_Tot_abs_Q>
0

> <r_epik_Metal_State_Penalty>
9.67369e-06

> <b_epik_Metal_Only>
0

> <s_lp_Force_Field>
OPLS_2005

> <r_lp_Energy>
39.9144

> <b_lp_Chiralities_Consistent>
1

> <s_lp_Variant>
AV-unprocessed.smi:2837-2

> <Gold.Version>
5.8.1

> <Gold.Id.Protein>
6NUR|6NUR_protein|mol2

> <Gold.PLP.Fitness>
35.5487

> <Gold.PLP.PLP>
-36.0390

> <Gold.PLP.part.hbond>
0.0000

> <Gold.PLP.part.metal>
0.0000

> <Gold.PLP.part.buried>
-4.6716

> <Gold.PLP.part.nonpolar>
-30.1729

> <Gold.PLP.part.repulsive>
1.0088

> <Gold.PLP.ligand.clash>
0.0000

> <Gold.PLP.ligand.torsion>
0.2546

> <Gold.PLP.Chemscore.Hbond>
0.0000

> <Gold.PLP.Chemscore.CHOScore>
0.0000

> <Gold.PLP.Chemscore.Metal>
0.0000

> <Gold.PLP.Chemscore.Internal.Correction>
0.0189

> <Gold.Rescore>
     Score         DG    S(hbond)    S(metal)    S(lipo)     H(rot)  DE(clash)    DE(int)     intcor
     10.94     -11.35       0.00        0.00      79.08       1.32       0.04       0.37       ----

> <Gold.Chemscore.Fitness>
10.9402

> <Gold.Chemscore.DG>
-11.3502

> <Gold.Chemscore.ZeroCoef>
-5.4800

> <Gold.Chemscore.Hbond>
0.0000

> <Gold.Chemscore.Metal>
0.0000

> <Gold.Chemscore.Lipo>
79.0831

> <Gold.Chemscore.Internal_Hbond>
0.0000

> <Gold.Chemscore.DEClash>
0.0414

> <Gold.Chemscore.DEInternal>
0.3686

> <Gold.Chemscore.Rot>
1.3213

> <Gold.Chemscore.Internal.Correction>
   9.000000E+99

> <Gold.Chemscore.Hbond.Weighted>
-0.0000

> <Gold.Chemscore.Metal.Weighted>
-0.0000

> <Gold.Chemscore.Lipo.Weighted>
-9.2527

> <Gold.Chemscore.Internal_Hbond.Weighted>
0.0000

> <Gold.Chemscore.DEClash.Weighted>
0.0414

> <Gold.Chemscore.DEInternal.Weighted>
0.3686

> <Gold.Chemscore.Rot.Weighted>
3.3825

> <Gold.Chemscore.Internal.Correction.Weighted>
   9.000000E+99

> <Gold.Protein.RotatedTorsions>
[ 6907 6896 6895 6894 ] final  146.45 input  -60.11 | X-H torsion
[ 7974 7965 7964 7962 ] final  179.87 input  175.53 | X-H torsion
[ 8008 7997 7996 7995 ] final  148.05 input   59.86 | X-H torsion
[ 10167 10162 10161 10158 ] final  -53.73 input  -65.29 | X-H torsion
[ 10718 10713 10712 10709 ] final   30.50 input   66.30 | X-H torsion
[ 10763 10752 10751 10750 ] final  -33.15 input  -60.55 | X-H torsion
[ 11005 11000 10999 10996 ] final  -17.32 input  -57.11 | X-H torsion

> <Gold.Protein.ActiveResidues>
 VAL166  LYS551  ARG553  GLY616  TRP617  ASP618  TYR619  PRO620  LYS621  CYS622 
 ASP623  PHE694  ASN695  SER759  ASP760  ASP761  ALA762  ILE779  LEU786  VAL792 
 PHE793  MET794  SER795  GLU796  ALA797  LYS798  CYS799  TRP800  GLU811  SER814 

> <Gold.Protein.RotatedAtoms>
  152.1677  133.4623  159.4892 H   0  0  0  0  0  0  0  0  0  0  0  0  # atno 6907 bound_to 6896
  150.6915  134.1992  159.4324 H   0  0  0  0  0  0  0  0  0  0  0  0  # atno 6908 bound_to 6896
  151.9898  134.9985  160.0611 H   0  0  0  0  0  0  0  0  0  0  0  0  # atno 6909 bound_to 6896
  144.7142  140.0613  143.6432 H   0  0  0  0  0  0  0  0  0  0  0  0  # atno 7974 bound_to 7965
  156.2804  140.2139  156.5637 H   0  0  0  0  0  0  0  0  0  0  0  0  # atno 8008 bound_to 7997
  154.7192  140.0505  157.0646 H   0  0  0  0  0  0  0  0  0  0  0  0  # atno 8009 bound_to 7997
  155.0501  140.3155  155.4698 H   0  0  0  0  0  0  0  0  0  0  0  0  # atno 8010 bound_to 7997
  140.6469  143.2541  151.4834 H   0  0  0  0  0  0  0  0  0  0  0  0  # atno 10167 bound_to 10162
  157.2604  130.7159  149.6451 H   0  0  0  0  0  0  0  0  0  0  0  0  # atno 10718 bound_to 10713
  153.8255  135.6870  153.4821 H   0  0  0  0  0  0  0  0  0  0  0  0  # atno 10763 bound_to 10752
  153.1543  135.4605  154.9680 H   0  0  0  0  0  0  0  0  0  0  0  0  # atno 10764 bound_to 10752
  154.7909  135.3301  154.7723 H   0  0  0  0  0  0  0  0  0  0  0  0  # atno 10765 bound_to 10752
  140.8157  133.8107  155.9608 H   0  0  0  0  0  0  0  0  0  0  0  0  # atno 11005 bound_to 11000
  145.9862  139.2979  143.1012 LP  0  0  0  0  0  0  0  0  0  0  0  0  # atno 17320 bound_to 7965
  145.8955  140.9276  143.0530 LP  0  0  0  0  0  0  0  0  0  0  0  0  # atno 17321 bound_to 7965
  139.5680  144.1995  152.1795 LP  0  0  0  0  0  0  0  0  0  0  0  0  # atno 17342 bound_to 10162
  140.1283  144.5311  150.6819 LP  0  0  0  0  0  0  0  0  0  0  0  0  # atno 17343 bound_to 10162
  155.9664  130.4399  150.5278 LP  0  0  0  0  0  0  0  0  0  0  0  0  # atno 17370 bound_to 10713
  157.3181  131.0676  151.1952 LP  0  0  0  0  0  0  0  0  0  0  0  0  # atno 17371 bound_to 10713
  140.9152  134.2211  157.4961 LP  0  0  0  0  0  0  0  0  0  0  0  0  # atno 17394 bound_to 11000
  139.8711  134.9768  156.4934 LP  0  0  0  0  0  0  0  0  0  0  0  0  # atno 17395 bound_to 11000

$$$$
