AV-unprocessed.smi:1055|AV-procd|sdf|4626|dock1
  -GOLD-   22720 3123D 1   1.00000     0.00000
 Structure written by MMmdl.
 51 52  0  0  0  0  0  0  0  0  2 V2000
  146.2332  133.9784  151.8305 C   0  0  0  0  0  0  0  0  0  0  0  0
  145.1429  134.7515  151.9663 C   0  0  0  0  0  0  0  0  0  0  0  0
  143.9261  134.2941  152.7485 C   0  0  0  0  0  0  0  0  0  0  0  0
  145.0506  136.1344  151.3404 C   0  0  0  0  0  0  0  0  0  0  0  0
  146.0793  137.0575  151.8820 N   0  3  2  0  0  0  0  0  0  0  0  0
  145.9389  137.2520  153.3478 C   0  0  0  0  0  0  0  0  0  0  0  0
  147.0909  138.0999  153.9119 C   0  0  0  0  0  0  0  0  0  0  0  0
  147.1829  139.4581  153.1926 C   0  0  1  0  0  0  0  0  0  0  0  0
  148.3287  140.2287  153.6673 N   0  0  0  0  0  0  0  0  0  0  0  0
  148.6780  140.3776  154.9534 C   0  0  0  0  0  0  0  0  0  0  0  0
  148.0658  139.8571  155.8856 O   0  0  0  0  0  0  0  0  0  0  0  0
  149.7538  141.1738  155.0766 N   0  0  0  0  0  0  0  0  0  0  0  0
  150.4260  141.5694  156.2645 C   0  0  0  0  0  0  0  0  0  0  0  0
  150.5608  140.6229  157.2977 C   0  0  0  0  0  0  0  0  0  0  0  0
  151.2068  140.9922  158.4927 C   0  0  0  0  0  0  0  0  0  0  0  0
  151.6991  142.3136  158.6335 C   0  0  0  0  0  0  0  0  0  0  0  0
  152.3576  142.7346  159.8115 N   0  0  0  0  0  0  0  0  0  0  0  0
  152.9337  141.7524  160.7215 C   0  0  0  0  0  0  0  0  0  0  0  0
  152.4356  144.1566  160.1314 C   0  0  0  0  0  0  0  0  0  0  0  0
  151.5530  143.2266  157.6423 N   0  0  0  0  0  0  0  0  0  0  0  0
  150.9351  142.8683  156.4973 C   0  0  0  0  0  0  0  0  0  0  0  0
  147.2987  139.2265  151.6778 C   0  0  0  0  0  0  0  0  0  0  0  0
  146.1421  138.3557  151.1586 C   0  0  0  0  0  0  0  0  0  0  0  0
  146.2840  132.9966  152.2785 H   0  0  0  0  0  0  0  0  0  0  0  0
  147.0932  134.3144  151.2694 H   0  0  0  0  0  0  0  0  0  0  0  0
  143.0445  134.2894  152.1071 H   0  0  0  0  0  0  0  0  0  0  0  0
  143.7361  134.9611  153.5896 H   0  0  0  0  0  0  0  0  0  0  0  0
  144.0629  133.2864  153.1421 H   0  0  0  0  0  0  0  0  0  0  0  0
  145.1451  136.0739  150.2548 H   0  0  0  0  0  0  0  0  0  0  0  0
  144.0528  136.5243  151.5467 H   0  0  0  0  0  0  0  0  0  0  0  0
  144.9811  137.7281  153.5630 H   0  0  0  0  0  0  0  0  0  0  0  0
  145.9303  136.2828  153.8479 H   0  0  0  0  0  0  0  0  0  0  0  0
  146.9436  138.2476  154.9824 H   0  0  0  0  0  0  0  0  0  0  0  0
  148.0302  137.5561  153.8016 H   0  0  0  0  0  0  0  0  0  0  0  0
  146.2698  140.0259  153.3835 H   0  0  0  0  0  0  0  0  0  0  0  0
  148.8869  140.6960  152.9677 H   0  0  0  0  0  0  0  0  0  0  0  0
  150.0959  141.5954  154.2257 H   0  0  0  0  0  0  0  0  0  0  0  0
  150.1788  139.6196  157.1779 H   0  0  0  0  0  0  0  0  0  0  0  0
  151.3107  140.2556  159.2748 H   0  0  0  0  0  0  0  0  0  0  0  0
  152.1627  141.0786  161.0965 H   0  0  0  0  0  0  0  0  0  0  0  0
  153.4010  142.2333  161.5813 H   0  0  0  0  0  0  0  0  0  0  0  0
  153.6989  141.1637  160.2148 H   0  0  0  0  0  0  0  0  0  0  0  0
  151.4366  144.5794  160.2429 H   0  0  0  0  0  0  0  0  0  0  0  0
  152.9553  144.6991  159.3408 H   0  0  0  0  0  0  0  0  0  0  0  0
  152.9761  144.3272  161.0626 H   0  0  0  0  0  0  0  0  0  0  0  0
  150.8369  143.6602  155.7713 H   0  0  0  0  0  0  0  0  0  0  0  0
  147.3032  140.1822  151.1522 H   0  0  0  0  0  0  0  0  0  0  0  0
  148.2484  138.7420  151.4464 H   0  0  0  0  0  0  0  0  0  0  0  0
  146.2808  138.1869  150.0906 H   0  0  0  0  0  0  0  0  0  0  0  0
  145.1942  138.8838  151.2739 H   0  0  0  0  0  0  0  0  0  0  0  0
  146.9695  136.6014  151.7417 H   0  0  0  0  0  0  0  0  0  0  0  0
  1  2  2  0  0  0  0
  1 24  1  0  0  0  0
  1 25  1  0  0  0  0
  2  3  1  0  0  0  0
  2  4  1  0  0  0  0
  3 26  1  0  0  0  0
  3 27  1  0  0  0  0
  3 28  1  0  0  0  0
  4  5  1  0  0  0  0
  4 29  1  0  0  0  0
  4 30  1  0  0  0  0
  5 23  1  0  0  0  0
  5  6  1  0  0  0  0
  5 51  1  0  0  0  0
  6  7  1  0  0  0  0
  6 31  1  0  0  0  0
  6 32  1  0  0  0  0
  7  8  1  0  0  0  0
  7 33  1  0  0  0  0
  7 34  1  0  0  0  0
  8  9  1  0  0  0  0
  8 22  1  0  0  0  0
  8 35  1  0  0  0  0
  9 10  1  0  0  0  0
  9 36  1  0  0  0  0
 10 11  2  0  0  0  0
 10 12  1  0  0  0  0
 12 13  1  0  0  0  0
 12 37  1  0  0  0  0
 13 21  1  0  0  0  0
 13 14  2  0  0  0  0
 14 15  1  0  0  0  0
 14 38  1  0  0  0  0
 15 16  2  0  0  0  0
 15 39  1  0  0  0  0
 16 17  1  0  0  0  0
 16 20  1  0  0  0  0
 17 18  1  0  0  0  0
 17 19  1  0  0  0  0
 18 40  1  0  0  0  0
 18 41  1  0  0  0  0
 18 42  1  0  0  0  0
 19 43  1  0  0  0  0
 19 44  1  0  0  0  0
 19 45  1  0  0  0  0
 20 21  2  0  0  0  0
 21 46  1  0  0  0  0
 22 23  1  0  0  0  0
 22 47  1  0  0  0  0
 22 48  1  0  0  0  0
 23 49  1  0  0  0  0
 23 50  1  0  0  0  0
M  CHG  1   5   1
M  END
> <s_m_source_file>
AV-unprocessed.smi

> <i_m_source_file_index>
1055

> <i_lp_mmshare_version>
43012

> <i_f3d_flags>
0

> <s_epik_input>
W0NIMl09QyhbQ0gzXSlbQ0gyXU4xW0NIMl1bQ0gyXVtDSF0oW0NIMl1bQ0gyXTEpW05IXUMoPU8pW05IXWMyW2NIXVtjSF1jKE4oW0NIM10pW0NIM10pbltjSF0y

> <s_epik_cmdline>
J2VwaWtfcHl0aG9uJywgJy1waCcsICc3LjAnLCAnLXRuJywgJzgnLCAnLW1hJywgJzIwMCcsICctbWV0YWxfYmluZGluZycsICctaW1hZScsICc8aW5maWxlLm1hZT4nLCAnLW9tYWUnLCAnPG91dGZpbGUubWFlPic=

> <r_lp_tautomer_probability>
1

> <r_epik_Ionization_Penalty>
0.534133

> <r_epik_Ionization_Penalty_Charging>
0.0193505

> <r_epik_Ionization_Penalty_Neutral>
0.514782

> <r_epik_State_Penalty>
0.557749

> <r_epik_Charging_Adjusted_Penalty>
0.5771

> <i_epik_Tot_Q>
1

> <i_epik_Tot_abs_Q>
1

> <r_epik_Metal_State_Penalty>
0.306227

> <b_epik_Metal_Only>
0

> <s_lp_Force_Field>
OPLS_2005

> <r_lp_Energy>
20.3338

> <b_lp_Chiralities_Consistent>
1

> <s_lp_Variant>
AV-unprocessed.smi:1055-3

> <Gold.Version>
5.8.1

> <Gold.Id.Protein>
6NUR|6NUR_protein|mol2

> <Gold.PLP.Fitness>
46.5735

> <Gold.PLP.PLP>
-37.5899

> <Gold.PLP.part.hbond>
-2.0000

> <Gold.PLP.part.metal>
0.0000

> <Gold.PLP.part.buried>
6.6268

> <Gold.PLP.part.nonpolar>
-40.8832

> <Gold.PLP.part.repulsive>
0.3970

> <Gold.PLP.ligand.clash>
0.0000

> <Gold.PLP.ligand.torsion>
0.6777

> <Gold.PLP.Chemscore.Hbond>
2.4332

> <Gold.PLP.Chemscore.CHOScore>
1.0000

> <Gold.PLP.Chemscore.Metal>
0.0000

> <Gold.Chemscore.Hbonds>
donor molecule, donor type, donor heavy atom, donor atom, acceptor molecule, acceptor atom, score
      L1  H     5    51       P1  7948  2.00
      L1  H     9    36       P1  7957  0.60
      L1  C    21    46       P1  8028  0.77

> <Gold.PLP.Chemscore.Internal.Correction>
0.0395

> <Gold.Rescore>
     Score         DG    S(hbond)    S(metal)    S(lipo)     H(rot)  DE(clash)    DE(int)     intcor
     12.17     -19.59       1.74        0.00     100.09       1.33       4.09       3.34       ----

> <Gold.Chemscore.Fitness>
12.1681

> <Gold.Chemscore.DG>
-19.5929

> <Gold.Chemscore.ZeroCoef>
-5.4800

> <Gold.Chemscore.Hbond>
1.7360

> <Gold.Chemscore.Metal>
0.0000

> <Gold.Chemscore.Lipo>
100.0921

> <Gold.Chemscore.Internal_Hbond>
0.0000

> <Gold.Chemscore.DEClash>
4.0879

> <Gold.Chemscore.DEInternal>
3.3369

> <Gold.Chemscore.Rot>
1.3266

> <Gold.Chemscore.Internal.Correction>
   9.000000E+99

> <Gold.Chemscore.Hbonds>
donor molecule, donor type, donor heavy atom, donor atom, acceptor molecule, acceptor atom, score
      L1  H     5    51       P1  7948  0.96
      L1  H     9    36       P1  7957  0.56

> <Gold.Chemscore.Hbond.Weighted>
-5.7983

> <Gold.Chemscore.Metal.Weighted>
-0.0000

> <Gold.Chemscore.Lipo.Weighted>
-11.7108

> <Gold.Chemscore.Internal_Hbond.Weighted>
0.0000

> <Gold.Chemscore.DEClash.Weighted>
4.0879

> <Gold.Chemscore.DEInternal.Weighted>
3.3369

> <Gold.Chemscore.Rot.Weighted>
3.3962

> <Gold.Chemscore.Internal.Correction.Weighted>
   9.000000E+99

> <Gold.Protein.RotatedTorsions>
[ 6907 6896 6895 6894 ] final  120.32 input  -60.11 | X-H torsion
[ 7974 7965 7964 7962 ] final  154.30 input  175.53 | X-H torsion
[ 8008 7997 7996 7995 ] final  -45.10 input   59.86 | X-H torsion
[ 10167 10162 10161 10158 ] final -169.06 input  -65.29 | X-H torsion
[ 10718 10713 10712 10709 ] final -170.62 input   66.30 | X-H torsion
[ 10763 10752 10751 10750 ] final -120.83 input  -60.55 | X-H torsion
[ 11005 11000 10999 10996 ] final  -80.45 input  -57.11 | X-H torsion

> <Gold.Protein.ActiveResidues>
 VAL166  LYS551  ARG553  GLY616  TRP617  ASP618  TYR619  PRO620  LYS621  CYS622 
 ASP623  PHE694  ASN695  SER759  ASP760  ASP761  ALA762  ILE779  LEU786  VAL792 
 PHE793  MET794  SER795  GLU796  ALA797  LYS798  CYS799  TRP800  GLU811  SER814 

> <Gold.Protein.RotatedAtoms>
  152.4407  133.7443  159.6657 H   0  0  0  0  0  0  0  0  0  0  0  0  # atno 6907 bound_to 6896
  150.8297  133.8101  159.3110 H   0  0  0  0  0  0  0  0  0  0  0  0  # atno 6908 bound_to 6896
  151.5758  135.1063  160.0057 H   0  0  0  0  0  0  0  0  0  0  0  0  # atno 6909 bound_to 6896
  144.8098  139.6915  143.6146 H   0  0  0  0  0  0  0  0  0  0  0  0  # atno 7974 bound_to 7965
  154.3999  140.1405  156.3792 H   0  0  0  0  0  0  0  0  0  0  0  0  # atno 8008 bound_to 7997
  155.8020  140.3475  155.5387 H   0  0  0  0  0  0  0  0  0  0  0  0  # atno 8009 bound_to 7997
  155.8474  140.0936  157.1687 H   0  0  0  0  0  0  0  0  0  0  0  0  # atno 8010 bound_to 7997
  139.5946  144.1140  152.1674 H   0  0  0  0  0  0  0  0  0  0  0  0  # atno 10167 bound_to 10162
  156.7289  130.9299  151.3103 H   0  0  0  0  0  0  0  0  0  0  0  0  # atno 10718 bound_to 10713
  154.8654  135.4189  154.2523 H   0  0  0  0  0  0  0  0  0  0  0  0  # atno 10763 bound_to 10752
  153.3467  135.6996  153.6828 H   0  0  0  0  0  0  0  0  0  0  0  0  # atno 10764 bound_to 10752
  153.5784  135.3577  155.2838 H   0  0  0  0  0  0  0  0  0  0  0  0  # atno 10765 bound_to 10752
  141.1668  133.7151  156.8274 H   0  0  0  0  0  0  0  0  0  0  0  0  # atno 11005 bound_to 11000
  146.2395  139.5972  142.9501 LP  0  0  0  0  0  0  0  0  0  0  0  0  # atno 17320 bound_to 7965
  145.5352  141.0424  143.2361 LP  0  0  0  0  0  0  0  0  0  0  0  0  # atno 17321 bound_to 7965
  140.0722  144.5770  150.7183 LP  0  0  0  0  0  0  0  0  0  0  0  0  # atno 17342 bound_to 10162
  140.7201  143.2581  151.4306 LP  0  0  0  0  0  0  0  0  0  0  0  0  # atno 17343 bound_to 10162
  157.6867  130.9192  150.0405 LP  0  0  0  0  0  0  0  0  0  0  0  0  # atno 17370 bound_to 10713
  156.1542  130.3643  149.9393 LP  0  0  0  0  0  0  0  0  0  0  0  0  # atno 17371 bound_to 10713
  140.2075  134.8851  157.3238 LP  0  0  0  0  0  0  0  0  0  0  0  0  # atno 17394 bound_to 11000
  140.2121  134.4126  155.7607 LP  0  0  0  0  0  0  0  0  0  0  0  0  # atno 17395 bound_to 11000

$$$$
