AV-unprocessed.smi:628|AV-procd|sdf|3114|dock8
  -GOLD-   22720 0 33D 1   1.00000     0.00000
 Structure written by MMmdl.
 31 32  0  0  0  0  0  0  0  0  2 V2000
  151.7376  141.6811  158.0635 O   0  0  0  0  0  0  0  0  0  0  0  0
  151.1484  142.2324  157.1323 C   0  0  0  0  0  0  0  0  0  0  0  0
  150.5699  141.4251  155.9632 C   0  0  0  0  0  0  0  0  0  0  0  0
  150.9017  140.0114  156.0284 N   0  0  0  0  0  0  0  0  0  0  0  0
  150.6924  139.1345  157.0764 C   0  0  0  0  0  0  0  0  0  0  0  0
  151.1756  137.9366  156.6445 C   0  0  0  0  0  0  0  0  0  0  0  0
  151.1862  136.6501  157.4076 C   0  0  0  0  0  0  0  0  0  0  0  0
  151.8154  135.6802  156.9307 O   0  0  0  0  0  0  0  0  0  0  0  0
  150.5639  136.5955  158.4914 O   0  5  0  0  0  0  0  0  0  0  0  0
  151.6665  138.1476  155.3299 C   0  0  0  0  0  0  0  0  0  0  0  0
  151.4934  139.4099  154.9626 N   0  0  0  0  0  0  0  0  0  0  0  0
  150.9628  143.5596  157.0683 N   0  0  0  0  0  0  0  0  0  0  0  0
  151.4284  144.5229  158.0627 C   0  0  0  0  0  0  0  0  0  0  0  0
  152.8850  144.2447  158.4866 C   0  0  0  0  0  0  0  0  0  0  0  0
  152.8111  143.6921  159.9098 C   0  0  0  0  0  0  0  0  0  0  0  0
  151.5814  144.3678  160.5076 C   0  0  0  0  0  0  0  0  0  0  0  0
  150.5845  144.4332  159.3490 C   0  0  0  0  0  0  0  0  0  0  0  0
  149.4837  141.5252  155.9599 H   0  0  0  0  0  0  0  0  0  0  0  0
  150.9335  141.8344  155.0194 H   0  0  0  0  0  0  0  0  0  0  0  0
  150.2335  139.4314  158.0078 H   0  0  0  0  0  0  0  0  0  0  0  0
  152.1269  137.4483  154.6476 H   0  0  0  0  0  0  0  0  0  0  0  0
  150.4672  143.9306  156.2706 H   0  0  0  0  0  0  0  0  0  0  0  0
  151.3565  145.5319  157.6515 H   0  0  0  0  0  0  0  0  0  0  0  0
  153.4150  143.5693  157.8137 H   0  0  0  0  0  0  0  0  0  0  0  0
  153.4393  145.1841  158.4954 H   0  0  0  0  0  0  0  0  0  0  0  0
  152.6584  142.6125  159.8782 H   0  0  0  0  0  0  0  0  0  0  0  0
  153.7182  143.8846  160.4832 H   0  0  0  0  0  0  0  0  0  0  0  0
  151.1864  143.8338  161.3721 H   0  0  0  0  0  0  0  0  0  0  0  0
  151.8388  145.3779  160.8291 H   0  0  0  0  0  0  0  0  0  0  0  0
  149.8980  145.2745  159.4500 H   0  0  0  0  0  0  0  0  0  0  0  0
  149.9800  143.5244  159.3515 H   0  0  0  0  0  0  0  0  0  0  0  0
  1  2  2  0  0  0  0
  2  3  1  0  0  0  0
  2 12  1  0  0  0  0
  3  4  1  0  0  0  0
  3 18  1  0  0  0  0
  3 19  1  0  0  0  0
  4 11  1  0  0  0  0
  4  5  1  0  0  0  0
  5  6  2  0  0  0  0
  5 20  1  0  0  0  0
  6  7  1  0  0  0  0
  6 10  1  0  0  0  0
  7  8  2  0  0  0  0
  7  9  1  0  0  0  0
 10 11  2  0  0  0  0
 10 21  1  0  0  0  0
 12 13  1  0  0  0  0
 12 22  1  0  0  0  0
 13 17  1  0  0  0  0
 13 14  1  0  0  0  0
 13 23  1  0  0  0  0
 14 15  1  0  0  0  0
 14 24  1  0  0  0  0
 14 25  1  0  0  0  0
 15 16  1  0  0  0  0
 15 26  1  0  0  0  0
 15 27  1  0  0  0  0
 16 17  1  0  0  0  0
 16 28  1  0  0  0  0
 16 29  1  0  0  0  0
 17 30  1  0  0  0  0
 17 31  1  0  0  0  0
M  CHG  1   9  -1
M  END
> <s_m_source_file>
AV-unprocessed.smi

> <i_m_source_file_index>
628

> <i_lp_mmshare_version>
43012

> <i_f3d_flags>
0

> <s_epik_input>
W0NIMl0xW0NIMl1bQ0gyXVtDSDJdW0NIXTFbTkhdQyg9TylbQ0gyXW4yW2NIXWMoW2NIXW4yKUMoPU8pW09IXQ==

> <s_epik_cmdline>
J2VwaWtfcHl0aG9uJywgJy1waCcsICc3LjAnLCAnLXRuJywgJzgnLCAnLW1hJywgJzIwMCcsICctbWV0YWxfYmluZGluZycsICctaW1hZScsICc8aW5maWxlLm1hZT4nLCAnLW9tYWUnLCAnPG91dGZpbGUubWFlPic=

> <r_epik_Ionization_Penalty>
0.000955839

> <r_epik_Ionization_Penalty_Charging>
0.000925564

> <r_epik_Ionization_Penalty_Neutral>
3.02757e-05

> <r_epik_State_Penalty>
0.000600209

> <r_epik_Charging_Adjusted_Penalty>
0.00152577

> <i_epik_Tot_Q>
-1

> <i_epik_Tot_abs_Q>
1

> <r_epik_Metal_State_Penalty>
-0

> <b_epik_Metal_Only>
0

> <s_lp_Force_Field>
OPLS_2005

> <r_lp_Energy>
22.3574

> <b_lp_Chiralities_Consistent>
1

> <s_lp_Variant>
AV-unprocessed.smi:628-1

> <Gold.Version>
5.8.1

> <Gold.Id.Protein>
6NUR|6NUR_protein|mol2

> <Gold.PLP.Fitness>
51.8086

> <Gold.PLP.PLP>
-35.4069

> <Gold.PLP.part.hbond>
-4.0000

> <Gold.PLP.part.metal>
0.0000

> <Gold.PLP.part.buried>
-6.9885

> <Gold.PLP.part.nonpolar>
-26.2384

> <Gold.PLP.part.repulsive>
0.0542

> <Gold.PLP.ligand.clash>
0.0000

> <Gold.PLP.ligand.torsion>
0.2648

> <Gold.PLP.Chemscore.Hbond>
5.6414

> <Gold.PLP.Chemscore.CHOScore>
0.0000

> <Gold.PLP.Chemscore.Metal>
0.0000

> <Gold.Chemscore.Hbonds>
donor molecule, donor type, donor heavy atom, donor atom, acceptor molecule, acceptor atom, score
      L1  H    12    22       P1  8028  0.93
      P1  H  6896  6908       L1     9  1.60
      P1  H  7989  7998       L1    11  0.91
      P1  H 10752 10764       L1     8  0.71

> <Gold.PLP.Chemscore.Internal.Correction>
0.0070

> <Gold.Rescore>
     Score         DG    S(hbond)    S(metal)    S(lipo)     H(rot)  DE(clash)    DE(int)     intcor
     20.28     -23.25       3.63        0.00      83.36       1.61       0.01       2.96       ----

> <Gold.Chemscore.Fitness>
20.2783

> <Gold.Chemscore.DG>
-23.2485

> <Gold.Chemscore.ZeroCoef>
-5.4800

> <Gold.Chemscore.Hbond>
3.6331

> <Gold.Chemscore.Metal>
0.0000

> <Gold.Chemscore.Lipo>
83.3577

> <Gold.Chemscore.Internal_Hbond>
0.0000

> <Gold.Chemscore.DEClash>
0.0147

> <Gold.Chemscore.DEInternal>
2.9555

> <Gold.Chemscore.Rot>
1.6089

> <Gold.Chemscore.Internal.Correction>
   9.000000E+99

> <Gold.Chemscore.Hbonds>
donor molecule, donor type, donor heavy atom, donor atom, acceptor molecule, acceptor atom, score
      L1  H    12    22       P1  8028  0.90
      P1  H  6896  6908       L1     9  0.71
      P1  H  7989  7998       L1    11  0.48
      P1  H 10752 10764       L1     8  0.35

> <Gold.Chemscore.Hbond.Weighted>
-12.1345

> <Gold.Chemscore.Metal.Weighted>
-0.0000

> <Gold.Chemscore.Lipo.Weighted>
-9.7529

> <Gold.Chemscore.Internal_Hbond.Weighted>
0.0000

> <Gold.Chemscore.DEClash.Weighted>
0.0147

> <Gold.Chemscore.DEInternal.Weighted>
2.9555

> <Gold.Chemscore.Rot.Weighted>
4.1188

> <Gold.Chemscore.Internal.Correction.Weighted>
   9.000000E+99

> <Gold.Protein.RotatedTorsions>
[ 6907 6896 6895 6894 ] final -150.43 input  -60.11 | X-H torsion
[ 7974 7965 7964 7962 ] final   78.68 input  175.53 | X-H torsion
[ 8008 7997 7996 7995 ] final   55.56 input   59.86 | X-H torsion
[ 10167 10162 10161 10158 ] final   81.65 input  -65.29 | X-H torsion
[ 10718 10713 10712 10709 ] final  -81.73 input   66.30 | X-H torsion
[ 10763 10752 10751 10750 ] final  -15.59 input  -60.55 | X-H torsion
[ 11005 11000 10999 10996 ] final  -89.76 input  -57.11 | X-H torsion

> <Gold.Protein.ActiveResidues>
 VAL166  LYS551  ARG553  GLY616  TRP617  ASP618  TYR619  PRO620  LYS621  CYS622 
 ASP623  PHE694  ASN695  SER759  ASP760  ASP761  ALA762  ILE779  LEU786  VAL792 
 PHE793  MET794  SER795  GLU796  ALA797  LYS798  CYS799  TRP800  GLU811  SER814 

> <Gold.Protein.RotatedAtoms>
  151.1985  133.4625  159.2595 H   0  0  0  0  0  0  0  0  0  0  0  0  # atno 6907 bound_to 6896
  151.1093  135.0017  159.8496 H   0  0  0  0  0  0  0  0  0  0  0  0  # atno 6908 bound_to 6896
  152.5449  134.1905  159.8725 H   0  0  0  0  0  0  0  0  0  0  0  0  # atno 6909 bound_to 6896
  145.6739  139.2504  143.1852 H   0  0  0  0  0  0  0  0  0  0  0  0  # atno 7974 bound_to 7965
  155.5031  140.3475  155.4375 H   0  0  0  0  0  0  0  0  0  0  0  0  # atno 8008 bound_to 7997
  156.0900  140.1408  156.9632 H   0  0  0  0  0  0  0  0  0  0  0  0  # atno 8009 bound_to 7997
  154.4629  140.0928  156.6919 H   0  0  0  0  0  0  0  0  0  0  0  0  # atno 8010 bound_to 7997
  139.9371  144.6114  150.8288 H   0  0  0  0  0  0  0  0  0  0  0  0  # atno 10167 bound_to 10162
  156.0045  130.4612  150.3997 H   0  0  0  0  0  0  0  0  0  0  0  0  # atno 10718 bound_to 10713
  153.5456  135.7012  153.5616 H   0  0  0  0  0  0  0  0  0  0  0  0  # atno 10763 bound_to 10752
  153.3562  135.3982  155.1684 H   0  0  0  0  0  0  0  0  0  0  0  0  # atno 10764 bound_to 10752
  154.8668  135.3777  154.4963 H   0  0  0  0  0  0  0  0  0  0  0  0  # atno 10765 bound_to 10752
  141.1579  133.7650  156.9640 H   0  0  0  0  0  0  0  0  0  0  0  0  # atno 11005 bound_to 11000
  146.1022  140.7531  142.9544 LP  0  0  0  0  0  0  0  0  0  0  0  0  # atno 17320 bound_to 7965
  144.7048  140.3805  143.7127 LP  0  0  0  0  0  0  0  0  0  0  0  0  # atno 17321 bound_to 7965
  140.7621  143.3191  151.2664 LP  0  0  0  0  0  0  0  0  0  0  0  0  # atno 17342 bound_to 10162
  139.6735  143.9979  152.2767 LP  0  0  0  0  0  0  0  0  0  0  0  0  # atno 17343 bound_to 10162
  157.2067  131.0450  151.2621 LP  0  0  0  0  0  0  0  0  0  0  0  0  # atno 17370 bound_to 10713
  157.3926  130.7290  149.6709 LP  0  0  0  0  0  0  0  0  0  0  0  0  # atno 17371 bound_to 10713
  140.1174  134.9439  157.2153 LP  0  0  0  0  0  0  0  0  0  0  0  0  # atno 17394 bound_to 11000
  140.3116  134.3017  155.7265 LP  0  0  0  0  0  0  0  0  0  0  0  0  # atno 17395 bound_to 11000

$$$$
