AV-unprocessed.smi:1645|AV-procd|sdf|6609|dock7
  -GOLD-   22720 7313D 1   1.00000     0.00000
 Structure written by MMmdl.
 56 59  0  0  0  0  0  0  0  0  3 V2000
  146.1645  139.6824  154.9606 O   0  0  0  0  0  0  0  0  0  0  0  0
  147.0747  138.8672  154.8181 C   0  0  0  0  0  0  0  0  0  0  0  0
  148.2966  138.9542  155.3725 N   0  0  0  0  0  0  0  0  0  0  0  0
  148.8479  139.9990  156.1650 C   0  0  0  0  0  0  0  0  0  0  0  0
  149.9721  139.6908  156.9593 C   0  0  0  0  0  0  0  0  0  0  0  0
  150.5651  140.6891  157.7586 C   0  0  0  0  0  0  0  0  0  0  0  0
  150.0254  141.9998  157.7677 C   0  0  0  0  0  0  0  0  0  0  0  0
  150.5650  143.0695  158.5172 N   0  0  0  0  0  0  0  0  0  0  0  0
  149.6430  144.1449  158.8962 C   0  0  0  0  0  0  0  0  0  0  0  0
  150.4032  145.4311  159.2614 C   0  0  0  0  0  0  0  0  0  0  0  0
  151.4719  145.1584  160.3290 C   0  0  0  0  0  0  0  0  0  0  0  0
  152.4154  144.0461  159.8507 C   0  0  0  0  0  0  0  0  0  0  0  0
  151.6345  142.7754  159.4730 C   0  0  0  0  0  0  0  0  0  0  0  0
  148.9351  142.2423  157.0005 N   0  3  0  0  0  0  0  0  0  0  0  0
  148.3361  141.3175  156.2196 C   0  0  0  0  0  0  0  0  0  0  0  0
  146.9600  137.7605  154.0692 N   0  0  0  0  0  0  0  0  0  0  0  0
  145.7803  137.3888  153.2883 C   0  0  1  0  0  0  0  0  0  0  0  0
  145.6874  138.1391  151.9457 C   0  0  0  0  0  0  0  0  0  0  0  0
  145.1975  137.0855  150.9469 C   0  0  0  0  0  0  0  0  0  0  0  0
  145.8100  135.8500  151.4485 N   0  3  2  0  0  0  0  0  0  0  0  0
  145.3710  134.5603  150.8784 C   0  0  0  0  0  0  0  0  0  0  0  0
  146.2892  133.4474  151.4280 C   0  0  0  0  0  0  0  0  0  0  0  0
  146.3762  133.4689  152.9715 C   0  0  0  0  0  0  0  0  0  0  0  0
  146.7108  134.8774  153.5096 C   0  0  0  0  0  0  0  0  0  0  0  0
  145.7120  135.8881  152.9180 C   0  0  1  0  0  0  0  0  0  0  0  0
  148.9375  138.2094  155.1405 H   0  0  0  0  0  0  0  0  0  0  0  0
  150.3878  138.6936  156.9545 H   0  0  0  0  0  0  0  0  0  0  0  0
  151.4239  140.4247  158.3568 H   0  0  0  0  0  0  0  0  0  0  0  0
  148.9377  144.3755  158.0981 H   0  0  0  0  0  0  0  0  0  0  0  0
  149.0516  143.8090  159.7490 H   0  0  0  0  0  0  0  0  0  0  0  0
  150.8762  145.8411  158.3679 H   0  0  0  0  0  0  0  0  0  0  0  0
  149.7045  146.1890  159.6166 H   0  0  0  0  0  0  0  0  0  0  0  0
  152.0365  146.0675  160.5386 H   0  0  0  0  0  0  0  0  0  0  0  0
  150.9946  144.8624  161.2641 H   0  0  0  0  0  0  0  0  0  0  0  0
  152.9807  144.3962  158.9860 H   0  0  0  0  0  0  0  0  0  0  0  0
  153.1477  143.8171  160.6255 H   0  0  0  0  0  0  0  0  0  0  0  0
  151.2006  142.3214  160.3649 H   0  0  0  0  0  0  0  0  0  0  0  0
  152.3375  142.0577  159.0495 H   0  0  0  0  0  0  0  0  0  0  0  0
  147.4757  141.6797  155.6785 H   0  0  0  0  0  0  0  0  0  0  0  0
  147.7571  137.1437  154.0099 H   0  0  0  0  0  0  0  0  0  0  0  0
  144.8860  137.6360  153.8643 H   0  0  0  0  0  0  0  0  0  0  0  0
  145.0283  139.0066  151.9930 H   0  0  0  0  0  0  0  0  0  0  0  0
  146.6734  138.4921  151.6394 H   0  0  0  0  0  0  0  0  0  0  0  0
  144.1101  136.9995  150.9803 H   0  0  0  0  0  0  0  0  0  0  0  0
  145.4983  137.3046  149.9219 H   0  0  0  0  0  0  0  0  0  0  0  0
  144.3285  134.3692  151.1374 H   0  0  0  0  0  0  0  0  0  0  0  0
  145.4340  134.5970  149.7903 H   0  0  0  0  0  0  0  0  0  0  0  0
  145.9404  132.4724  151.0863 H   0  0  0  0  0  0  0  0  0  0  0  0
  147.2907  133.5752  151.0146 H   0  0  0  0  0  0  0  0  0  0  0  0
  145.4219  133.1432  153.3876 H   0  0  0  0  0  0  0  0  0  0  0  0
  147.1207  132.7500  153.3147 H   0  0  0  0  0  0  0  0  0  0  0  0
  146.6573  134.8770  154.5987 H   0  0  0  0  0  0  0  0  0  0  0  0
  147.7324  135.1483  153.2398 H   0  0  0  0  0  0  0  0  0  0  0  0
  144.7066  135.5558  153.1864 H   0  0  0  0  0  0  0  0  0  0  0  0
  146.7934  135.9352  151.2348 H   0  0  0  0  0  0  0  0  0  0  0  0
  148.5445  143.1848  157.0071 H   0  0  0  0  0  0  0  0  0  0  0  0
  1  2  2  0  0  0  0
  2  3  1  0  0  0  0
  2 16  1  0  0  0  0
  3  4  1  0  0  0  0
  3 26  1  0  0  0  0
  4 15  1  0  0  0  0
  4  5  2  0  0  0  0
  5  6  1  0  0  0  0
  5 27  1  0  0  0  0
  6  7  2  0  0  0  0
  6 28  1  0  0  0  0
  7  8  1  0  0  0  0
  7 14  1  0  0  0  0
  8 13  1  0  0  0  0
  8  9  1  0  0  0  0
  9 10  1  0  0  0  0
  9 29  1  0  0  0  0
  9 30  1  0  0  0  0
 10 11  1  0  0  0  0
 10 31  1  0  0  0  0
 10 32  1  0  0  0  0
 11 12  1  0  0  0  0
 11 33  1  0  0  0  0
 11 34  1  0  0  0  0
 12 13  1  0  0  0  0
 12 35  1  0  0  0  0
 12 36  1  0  0  0  0
 13 37  1  0  0  0  0
 13 38  1  0  0  0  0
 14 15  2  0  0  0  0
 14 56  1  0  0  0  0
 15 39  1  0  0  0  0
 16 17  1  0  0  0  0
 16 40  1  0  0  0  0
 17 25  1  0  0  0  0
 17 18  1  0  0  0  0
 17 41  1  0  0  0  0
 18 19  1  0  0  0  0
 18 42  1  0  0  0  0
 18 43  1  0  0  0  0
 19 20  1  0  0  0  0
 19 44  1  0  0  0  0
 19 45  1  0  0  0  0
 20 25  1  0  0  0  0
 20 21  1  0  0  0  0
 20 55  1  0  0  0  0
 21 22  1  0  0  0  0
 21 46  1  0  0  0  0
 21 47  1  0  0  0  0
 22 23  1  0  0  0  0
 22 48  1  0  0  0  0
 22 49  1  0  0  0  0
 23 24  1  0  0  0  0
 23 50  1  0  0  0  0
 23 51  1  0  0  0  0
 24 25  1  0  0  0  0
 24 52  1  0  0  0  0
 24 53  1  0  0  0  0
 25 54  1  0  0  0  0
M  CHG  1  14   1
M  CHG  1  20   1
M  END
> <s_m_source_file>
AV-unprocessed.smi

> <i_m_source_file_index>
1645

> <i_lp_mmshare_version>
43012

> <i_f3d_flags>
0

> <s_epik_input>
W0NIMl0xW0NIMl1bQ0gyXVtDSDJdW0NASF0oTjEyKVtDQEBIXShbQ0gyXVtDSDJdMilbTkhdQyg9TylbTkhdYzNbY0hdW2NIXWMobltjSF0zKU40W0NIMl1bQ0gyXVtDSDJdW0NIMl1bQ0gyXTQ=

> <s_epik_cmdline>
J2VwaWtfcHl0aG9uJywgJy1waCcsICc3LjAnLCAnLXRuJywgJzgnLCAnLW1hJywgJzIwMCcsICctbWV0YWxfYmluZGluZycsICctaW1hZScsICc8aW5maWxlLm1hZT4nLCAnLW9tYWUnLCAnPG91dGZpbGUubWFlPic=

> <r_lp_tautomer_probability>
0.999994

> <r_epik_Ionization_Penalty>
1.26838

> <r_epik_Ionization_Penalty_Charging>
1.26836

> <r_epik_Ionization_Penalty_Neutral>
1.95562e-05

> <r_epik_State_Penalty>
1.33841

> <r_epik_Charging_Adjusted_Penalty>
2.60677

> <i_epik_Tot_Q>
2

> <i_epik_Tot_abs_Q>
2

> <r_epik_Metal_State_Penalty>
1.40601

> <b_epik_Metal_Only>
0

> <s_lp_Force_Field>
OPLS_2005

> <r_lp_Energy>
64.599

> <b_lp_Chiralities_Consistent>
1

> <s_lp_Variant>
AV-unprocessed.smi:1645-10

> <Gold.Version>
5.8.1

> <Gold.Id.Protein>
6NUR|6NUR_protein|mol2

> <Gold.PLP.Fitness>
49.9047

> <Gold.PLP.PLP>
-38.6715

> <Gold.PLP.part.hbond>
-2.9669

> <Gold.PLP.part.metal>
0.0000

> <Gold.PLP.part.buried>
1.3718

> <Gold.PLP.part.nonpolar>
-36.7863

> <Gold.PLP.part.repulsive>
0.2078

> <Gold.PLP.ligand.clash>
0.0000

> <Gold.PLP.ligand.torsion>
0.5121

> <Gold.PLP.Chemscore.Hbond>
4.0000

> <Gold.PLP.Chemscore.CHOScore>
0.0000

> <Gold.PLP.Chemscore.Metal>
0.0000

> <Gold.Chemscore.Hbonds>
donor molecule, donor type, donor heavy atom, donor atom, acceptor molecule, acceptor atom, score
      L1  H    14    56       P1  8028  1.12
      L1  H    20    55       P1  7948  1.04

> <Gold.PLP.Chemscore.Internal.Correction>
0.2574

> <Gold.Rescore>
     Score         DG    S(hbond)    S(metal)    S(lipo)     H(rot)  DE(clash)    DE(int)     intcor
     19.79     -22.65       1.87        0.00     115.28       1.00       1.39       1.47       ----

> <Gold.Chemscore.Fitness>
19.7854

> <Gold.Chemscore.DG>
-22.6481

> <Gold.Chemscore.ZeroCoef>
-5.4800

> <Gold.Chemscore.Hbond>
1.8683

> <Gold.Chemscore.Metal>
0.0000

> <Gold.Chemscore.Lipo>
115.2835

> <Gold.Chemscore.Internal_Hbond>
0.0000

> <Gold.Chemscore.DEClash>
1.3924

> <Gold.Chemscore.DEInternal>
1.4704

> <Gold.Chemscore.Rot>
1.0000

> <Gold.Chemscore.Internal.Correction>
   9.000000E+99

> <Gold.Chemscore.Hbonds>
donor molecule, donor type, donor heavy atom, donor atom, acceptor molecule, acceptor atom, score
      L1  H    14    56       P1  8028  0.21
      L1  H    20    55       P1  7948  0.50

> <Gold.Chemscore.Hbond.Weighted>
-6.2400

> <Gold.Chemscore.Metal.Weighted>
-0.0000

> <Gold.Chemscore.Lipo.Weighted>
-13.4882

> <Gold.Chemscore.Internal_Hbond.Weighted>
0.0000

> <Gold.Chemscore.DEClash.Weighted>
1.3924

> <Gold.Chemscore.DEInternal.Weighted>
1.4704

> <Gold.Chemscore.Rot.Weighted>
2.5600

> <Gold.Chemscore.Internal.Correction.Weighted>
   9.000000E+99

> <Gold.Protein.RotatedTorsions>
[ 6907 6896 6895 6894 ] final  104.76 input  -60.11 | X-H torsion
[ 7974 7965 7964 7962 ] final -141.17 input  175.53 | X-H torsion
[ 8008 7997 7996 7995 ] final  131.14 input   59.86 | X-H torsion
[ 10167 10162 10161 10158 ] final  -62.78 input  -65.29 | X-H torsion
[ 10718 10713 10712 10709 ] final -134.26 input   66.30 | X-H torsion
[ 10763 10752 10751 10750 ] final  -23.86 input  -60.55 | X-H torsion
[ 11005 11000 10999 10996 ] final  -18.64 input  -57.11 | X-H torsion

> <Gold.Protein.ActiveResidues>
 VAL166  LYS551  ARG553  GLY616  TRP617  ASP618  TYR619  PRO620  LYS621  CYS622 
 ASP623  PHE694  ASN695  SER759  ASP760  ASP761  ALA762  ILE779  LEU786  VAL792 
 PHE793  MET794  SER795  GLU796  ALA797  LYS798  CYS799  TRP800  GLU811  SER814 

> <Gold.Protein.RotatedAtoms>
  152.5253  133.9628  159.7725 H   0  0  0  0  0  0  0  0  0  0  0  0  # atno 6907 bound_to 6896
  150.9915  133.6136  159.2714 H   0  0  0  0  0  0  0  0  0  0  0  0  # atno 6908 bound_to 6896
  151.3278  135.0840  159.9381 H   0  0  0  0  0  0  0  0  0  0  0  0  # atno 6909 bound_to 6896
  144.8540  140.6112  143.5371 H   0  0  0  0  0  0  0  0  0  0  0  0  # atno 7974 bound_to 7965
  156.2965  140.2579  156.2876 H   0  0  0  0  0  0  0  0  0  0  0  0  # atno 8008 bound_to 7997
  154.9541  140.0393  157.2177 H   0  0  0  0  0  0  0  0  0  0  0  0  # atno 8009 bound_to 7997
  154.8008  140.2828  155.5927 H   0  0  0  0  0  0  0  0  0  0  0  0  # atno 8010 bound_to 7997
  140.5916  143.2343  151.6127 H   0  0  0  0  0  0  0  0  0  0  0  0  # atno 10167 bound_to 10162
  156.2536  130.7168  151.1076 H   0  0  0  0  0  0  0  0  0  0  0  0  # atno 10718 bound_to 10713
  153.6746  135.6970  153.5136 H   0  0  0  0  0  0  0  0  0  0  0  0  # atno 10763 bound_to 10752
  153.2531  135.4268  155.0817 H   0  0  0  0  0  0  0  0  0  0  0  0  # atno 10764 bound_to 10752
  154.8417  135.3536  154.6290 H   0  0  0  0  0  0  0  0  0  0  0  0  # atno 10765 bound_to 10752
  140.8288  133.8012  155.9737 H   0  0  0  0  0  0  0  0  0  0  0  0  # atno 11005 bound_to 11000
  145.4443  139.1531  143.3953 LP  0  0  0  0  0  0  0  0  0  0  0  0  # atno 17320 bound_to 7965
  146.2808  140.4566  142.8777 LP  0  0  0  0  0  0  0  0  0  0  0  0  # atno 17321 bound_to 7965
  139.5231  144.3143  152.0966 LP  0  0  0  0  0  0  0  0  0  0  0  0  # atno 17342 bound_to 10162
  140.2308  144.4370  150.6301 LP  0  0  0  0  0  0  0  0  0  0  0  0  # atno 17343 bound_to 10162
  157.7224  131.0673  150.6079 LP  0  0  0  0  0  0  0  0  0  0  0  0  # atno 17370 bound_to 10713
  156.6161  130.4393  149.5840 LP  0  0  0  0  0  0  0  0  0  0  0  0  # atno 17371 bound_to 10713
  140.9020  134.2366  157.5036 LP  0  0  0  0  0  0  0  0  0  0  0  0  # atno 17394 bound_to 11000
  139.8705  134.9711  156.4724 LP  0  0  0  0  0  0  0  0  0  0  0  0  # atno 17395 bound_to 11000

$$$$
