AV-unprocessed.smi:1428|AV-procd|sdf|5814|dock2
  -GOLD-   22720 5463D 1   1.00000     0.00000
 Structure written by MMmdl.
 44 45  0  0  0  0  0  0  0  0  2 V2000
  151.8219  138.2636  155.0678 C   0  0  0  0  0  0  0  0  0  0  0  0
  150.4852  138.1166  154.6009 O   0  0  0  0  0  0  0  0  0  0  0  0
  149.6299  139.1980  154.6955 C   0  0  0  0  0  0  0  0  0  0  0  0
  150.1143  140.3585  155.2049 N   0  0  0  0  0  0  0  0  0  0  0  0
  149.2840  141.4170  155.2950 C   0  0  0  0  0  0  0  0  0  0  0  0
  147.9401  141.3776  154.8825 C   0  0  0  0  0  0  0  0  0  0  0  0
  147.4351  140.1755  154.3534 C   0  0  0  0  0  0  0  0  0  0  0  0
  148.2919  139.0504  154.2586 C   0  0  0  0  0  0  0  0  0  0  0  0
  147.9043  137.7829  153.7362 N   0  0  0  0  0  0  0  0  0  0  0  0
  146.6900  137.3390  153.3681 C   0  0  0  0  0  0  0  0  0  0  0  0
  145.6416  137.9800  153.4248 O   0  0  0  0  0  0  0  0  0  0  0  0
  146.7553  136.0761  152.9225 N   0  0  0  0  0  0  0  0  0  0  0  0
  145.6193  135.2949  152.4419 C   0  0  2  0  0  0  0  0  0  0  0  0
  145.8868  133.7962  152.6543 C   0  0  0  0  0  0  0  0  0  0  0  0
  144.7464  132.9405  152.0775 C   0  0  0  0  0  0  0  0  0  0  0  0
  144.5337  133.2321  150.6367 N   0  3  1  0  0  0  0  0  0  0  0  0
  143.5368  132.3225  150.0152 C   0  0  0  0  0  0  0  0  0  0  0  0
  143.3053  132.6123  148.5284 C   0  0  0  0  0  0  0  0  0  0  0  0
  142.1265  132.2459  148.0206 N   0  0  0  0  0  0  0  0  0  0  0  0
  144.1776  133.1434  147.8431 O   0  0  0  0  0  0  0  0  0  0  0  0
  144.2326  134.6714  150.4097 C   0  0  0  0  0  0  0  0  0  0  0  0
  145.3613  135.5657  150.9485 C   0  0  0  0  0  0  0  0  0  0  0  0
  152.3606  137.3278  154.9195 H   0  0  0  0  0  0  0  0  0  0  0  0
  151.8502  138.4958  156.1333 H   0  0  0  0  0  0  0  0  0  0  0  0
  152.3533  139.0410  154.5168 H   0  0  0  0  0  0  0  0  0  0  0  0
  149.7045  142.3235  155.7045 H   0  0  0  0  0  0  0  0  0  0  0  0
  147.3105  142.2509  154.9675 H   0  0  0  0  0  0  0  0  0  0  0  0
  146.4075  140.1546  154.0291 H   0  0  0  0  0  0  0  0  0  0  0  0
  148.6570  137.1151  153.6546 H   0  0  0  0  0  0  0  0  0  0  0  0
  147.6579  135.6233  152.9136 H   0  0  0  0  0  0  0  0  0  0  0  0
  144.7292  135.5668  153.0131 H   0  0  0  0  0  0  0  0  0  0  0  0
  146.8266  133.5138  152.1771 H   0  0  0  0  0  0  0  0  0  0  0  0
  146.0036  133.5839  153.7178 H   0  0  0  0  0  0  0  0  0  0  0  0
  144.9919  131.8859  152.2085 H   0  0  0  0  0  0  0  0  0  0  0  0
  143.8216  133.1221  152.6276 H   0  0  0  0  0  0  0  0  0  0  0  0
  143.8898  131.2925  150.0796 H   0  0  0  0  0  0  0  0  0  0  0  0
  142.5953  132.3662  150.5654 H   0  0  0  0  0  0  0  0  0  0  0  0
  141.9161  132.4156  147.0476 H   0  0  0  0  0  0  0  0  0  0  0  0
  141.4423  131.8012  148.6160 H   0  0  0  0  0  0  0  0  0  0  0  0
  144.1017  134.8654  149.3448 H   0  0  0  0  0  0  0  0  0  0  0  0
  143.2895  134.9286  150.8943 H   0  0  0  0  0  0  0  0  0  0  0  0
  145.1014  136.6137  150.7943 H   0  0  0  0  0  0  0  0  0  0  0  0
  146.2716  135.3855  150.3745 H   0  0  0  0  0  0  0  0  0  0  0  0
  145.4113  133.0384  150.1750 H   0  0  0  0  0  0  0  0  0  0  0  0
  1  2  1  0  0  0  0
  1 23  1  0  0  0  0
  1 24  1  0  0  0  0
  1 25  1  0  0  0  0
  2  3  1  0  0  0  0
  3  8  1  0  0  0  0
  3  4  2  0  0  0  0
  4  5  1  0  0  0  0
  5  6  2  0  0  0  0
  5 26  1  0  0  0  0
  6  7  1  0  0  0  0
  6 27  1  0  0  0  0
  7  8  2  0  0  0  0
  7 28  1  0  0  0  0
  8  9  1  0  0  0  0
  9 10  1  0  0  0  0
  9 29  1  0  0  0  0
 10 11  2  0  0  0  0
 10 12  1  0  0  0  0
 12 13  1  0  0  0  0
 12 30  1  0  0  0  0
 13 22  1  0  0  0  0
 13 14  1  0  0  0  0
 13 31  1  0  0  0  0
 14 15  1  0  0  0  0
 14 32  1  0  0  0  0
 14 33  1  0  0  0  0
 15 16  1  0  0  0  0
 15 34  1  0  0  0  0
 15 35  1  0  0  0  0
 16 17  1  0  0  0  0
 16 21  1  0  0  0  0
 16 44  1  0  0  0  0
 17 18  1  0  0  0  0
 17 36  1  0  0  0  0
 17 37  1  0  0  0  0
 18 19  1  0  0  0  0
 18 20  2  0  0  0  0
 19 38  1  0  0  0  0
 19 39  1  0  0  0  0
 21 22  1  0  0  0  0
 21 40  1  0  0  0  0
 21 41  1  0  0  0  0
 22 42  1  0  0  0  0
 22 43  1  0  0  0  0
M  CHG  1  16   1
M  END
> <s_m_source_file>
AV-unprocessed.smi

> <i_m_source_file_index>
1428

> <i_lp_mmshare_version>
43012

> <i_f3d_flags>
0

> <s_epik_input>
W0NIM11PYzFuW2NIXVtjSF1bY0hdYzFbTkhdQyg9TylbTkhdW0NIXTJbQ0gyXVtDSDJdTihbQ0gyXVtDSDJdMilbQ0gyXUMoPU8pW05IMl0=

> <s_epik_cmdline>
J2VwaWtfcHl0aG9uJywgJy1waCcsICc3LjAnLCAnLXRuJywgJzgnLCAnLW1hJywgJzIwMCcsICctbWV0YWxfYmluZGluZycsICctaW1hZScsICc8aW5maWxlLm1hZT4nLCAnLW9tYWUnLCAnPG91dGZpbGUubWFlPic=

> <r_lp_tautomer_probability>
1

> <r_epik_Ionization_Penalty>
0.838963

> <r_epik_Ionization_Penalty_Charging>
0.838844

> <r_epik_Ionization_Penalty_Neutral>
0.000119189

> <r_epik_State_Penalty>
0.8734

> <r_epik_Charging_Adjusted_Penalty>
1.71224

> <i_epik_Tot_Q>
1

> <i_epik_Tot_abs_Q>
1

> <r_epik_Metal_State_Penalty>
0.890706

> <b_epik_Metal_Only>
0

> <s_lp_Force_Field>
OPLS_2005

> <r_lp_Energy>
15.1646

> <b_lp_Chiralities_Consistent>
1

> <s_lp_Variant>
AV-unprocessed.smi:1428-2

> <Gold.Version>
5.8.1

> <Gold.Id.Protein>
6NUR|6NUR_protein|mol2

> <Gold.PLP.Fitness>
51.9858

> <Gold.PLP.PLP>
-36.8565

> <Gold.PLP.part.hbond>
-6.1927

> <Gold.PLP.part.metal>
0.0000

> <Gold.PLP.part.buried>
-3.9836

> <Gold.PLP.part.nonpolar>
-32.8286

> <Gold.PLP.part.repulsive>
4.5678

> <Gold.PLP.ligand.clash>
0.0000

> <Gold.PLP.ligand.torsion>
0.7440

> <Gold.PLP.Chemscore.Hbond>
4.5280

> <Gold.PLP.Chemscore.CHOScore>
1.0000

> <Gold.PLP.Chemscore.Metal>
0.0000

> <Gold.Chemscore.Hbonds>
donor molecule, donor type, donor heavy atom, donor atom, acceptor molecule, acceptor atom, score
      L1  H     9    29       P1  7948  0.37
      L1  H    12    30       P1  7948  0.42
      L1  H    19    38       P1 10195  1.00
      L1  H    19    39       P1 10952  1.00
      P1  H  7918  7932       L1    20  0.51
      P1  H  7989  7998       L1     4  0.22
      L1  C     5    26       P1  8028  1.00

> <Gold.PLP.Chemscore.Internal.Correction>
0.0333

> <Gold.Rescore>
     Score         DG    S(hbond)    S(metal)    S(lipo)     H(rot)  DE(clash)    DE(int)     intcor
     17.09     -21.11       4.21        0.00      64.35       2.33       2.16       1.86       ----

> <Gold.Chemscore.Fitness>
17.0850

> <Gold.Chemscore.DG>
-21.1054

> <Gold.Chemscore.ZeroCoef>
-5.4800

> <Gold.Chemscore.Hbond>
4.2076

> <Gold.Chemscore.Metal>
0.0000

> <Gold.Chemscore.Lipo>
64.3544

> <Gold.Chemscore.Internal_Hbond>
0.0000

> <Gold.Chemscore.DEClash>
2.1632

> <Gold.Chemscore.DEInternal>
1.8571

> <Gold.Chemscore.Rot>
2.3271

> <Gold.Chemscore.Internal.Correction>
   9.000000E+99

> <Gold.Chemscore.Hbonds>
donor molecule, donor type, donor heavy atom, donor atom, acceptor molecule, acceptor atom, score
      L1  H     9    29       P1  7948  0.36
      L1  H    12    30       P1  7948  0.42
      L1  H    19    38       P1 10195  0.99
      L1  H    19    39       P1 10952  0.97
      P1  H  7918  7932       L1    20  0.47
      P1  H  7989  7998       L1     4  0.03

> <Gold.Chemscore.Hbond.Weighted>
-14.0532

> <Gold.Chemscore.Metal.Weighted>
-0.0000

> <Gold.Chemscore.Lipo.Weighted>
-7.5295

> <Gold.Chemscore.Internal_Hbond.Weighted>
0.0000

> <Gold.Chemscore.DEClash.Weighted>
2.1632

> <Gold.Chemscore.DEInternal.Weighted>
1.8571

> <Gold.Chemscore.Rot.Weighted>
5.9573

> <Gold.Chemscore.Internal.Correction.Weighted>
   9.000000E+99

> <Gold.Protein.RotatedTorsions>
[ 6907 6896 6895 6894 ] final -147.73 input  -60.11 | X-H torsion
[ 7974 7965 7964 7962 ] final  -62.14 input  175.53 | X-H torsion
[ 8008 7997 7996 7995 ] final   99.99 input   59.86 | X-H torsion
[ 10167 10162 10161 10158 ] final -127.13 input  -65.29 | X-H torsion
[ 10718 10713 10712 10709 ] final  -91.40 input   66.30 | X-H torsion
[ 10763 10752 10751 10750 ] final  146.45 input  -60.55 | X-H torsion
[ 11005 11000 10999 10996 ] final  -99.04 input  -57.11 | X-H torsion

> <Gold.Protein.ActiveResidues>
 VAL166  LYS551  ARG553  GLY616  TRP617  ASP618  TYR619  PRO620  LYS621  CYS622 
 ASP623  PHE694  ASN695  SER759  ASP760  ASP761  ALA762  ILE779  LEU786  VAL792 
 PHE793  MET794  SER795  GLU796  ALA797  LYS798  CYS799  TRP800  GLU811  SER814 

> <Gold.Protein.RotatedAtoms>
  151.1598  133.4852  159.2594 H   0  0  0  0  0  0  0  0  0  0  0  0  # atno 6907 bound_to 6896
  151.1466  135.0206  159.8659 H   0  0  0  0  0  0  0  0  0  0  0  0  # atno 6908 bound_to 6896
  152.5463  134.1486  159.8562 H   0  0  0  0  0  0  0  0  0  0  0  0  # atno 6909 bound_to 6896
  145.7950  140.8688  143.0261 H   0  0  0  0  0  0  0  0  0  0  0  0  # atno 7974 bound_to 7965
  156.1160  140.3220  155.8139 H   0  0  0  0  0  0  0  0  0  0  0  0  # atno 8008 bound_to 7997
  155.4589  140.0538  157.3010 H   0  0  0  0  0  0  0  0  0  0  0  0  # atno 8009 bound_to 7997
  154.4793  140.2046  155.9816 H   0  0  0  0  0  0  0  0  0  0  0  0  # atno 8010 bound_to 7997
  139.9641  143.5917  152.2435 H   0  0  0  0  0  0  0  0  0  0  0  0  # atno 10167 bound_to 10162
  155.9993  130.4946  150.5468 H   0  0  0  0  0  0  0  0  0  0  0  0  # atno 10718 bound_to 10713
  154.0221  135.2905  155.3379 H   0  0  0  0  0  0  0  0  0  0  0  0  # atno 10763 bound_to 10752
  154.7039  135.5177  153.8570 H   0  0  0  0  0  0  0  0  0  0  0  0  # atno 10764 bound_to 10752
  153.0676  135.6636  154.0442 H   0  0  0  0  0  0  0  0  0  0  0  0  # atno 10765 bound_to 10752
  141.1323  133.8291  157.0919 H   0  0  0  0  0  0  0  0  0  0  0  0  # atno 11005 bound_to 11000
  144.6776  140.0177  143.7484 LP  0  0  0  0  0  0  0  0  0  0  0  0  # atno 17320 bound_to 7965
  145.9937  139.3035  143.0969 LP  0  0  0  0  0  0  0  0  0  0  0  0  # atno 17321 bound_to 7965
  139.6531  144.7661  151.2109 LP  0  0  0  0  0  0  0  0  0  0  0  0  # atno 17342 bound_to 10162
  140.7543  143.6129  150.8588 LP  0  0  0  0  0  0  0  0  0  0  0  0  # atno 17343 bound_to 10162
  157.3397  131.0714  151.1798 LP  0  0  0  0  0  0  0  0  0  0  0  0  # atno 17370 bound_to 10713
  157.2650  130.6677  149.5992 LP  0  0  0  0  0  0  0  0  0  0  0  0  # atno 17371 bound_to 10713
  140.0387  134.9865  157.0920 LP  0  0  0  0  0  0  0  0  0  0  0  0  # atno 17394 bound_to 11000
  140.4169  134.1921  155.7163 LP  0  0  0  0  0  0  0  0  0  0  0  0  # atno 17395 bound_to 11000

$$$$
