AV-unprocessed.smi:1936|AV-procd|sdf|7830|dock8
  -GOLD-   22720 9573D 1   1.00000     0.00000
 Structure written by MMmdl.
 38 39  0  0  0  0  0  0  0  0  1 V2000
  152.4900  137.5158  159.6085 C   0  0  0  0  0  0  0  0  0  0  0  0
  151.9825  138.5770  158.6184 C   0  0  1  0  0  0  0  0  0  0  0  0
  150.5141  138.3165  158.2166 C   0  0  0  0  0  0  0  0  0  0  0  0
  150.1339  138.7932  156.8861 N   0  0  0  0  0  0  0  0  0  0  0  0
  150.7523  138.0213  155.8100 C   0  0  0  0  0  0  0  0  0  0  0  0
  150.3684  138.5590  154.4204 C   0  0  0  0  0  0  0  0  0  0  0  0
  150.7175  139.9360  154.3257 O   0  0  0  0  0  0  0  0  0  0  0  0
  150.0898  140.7293  155.3274 C   0  0  0  0  0  0  0  0  0  0  0  0
  150.4792  140.2011  156.7188 C   0  0  0  0  0  0  0  0  0  0  0  0
  152.0993  139.8978  159.2332 N   0  0  0  0  0  0  0  0  0  0  0  0
  153.2433  140.4717  159.6359 C   0  0  0  0  0  0  0  0  0  0  0  0
  154.3426  139.9235  159.5393 O   0  0  0  0  0  0  0  0  0  0  0  0
  153.1037  141.8774  160.2338 C   0  0  0  0  0  0  0  0  0  0  0  0
  152.6011  142.8533  159.2801 N   0  0  0  0  0  0  0  0  0  0  0  0
  153.1857  144.0354  158.8746 C   0  0  0  0  0  0  0  0  0  0  0  0
  152.3464  144.6136  157.9659 C   0  0  0  0  0  0  0  0  0  0  0  0
  151.2599  143.6988  157.8796 C   0  0  0  0  0  0  0  0  0  0  0  0
  151.4136  142.6477  158.6689 N   0  0  0  0  0  0  0  0  0  0  0  0
  152.4357  136.5167  159.1750 H   0  0  0  0  0  0  0  0  0  0  0  0
  151.9001  137.5134  160.5257 H   0  0  0  0  0  0  0  0  0  0  0  0
  153.5306  137.6946  159.8814 H   0  0  0  0  0  0  0  0  0  0  0  0
  152.6065  138.5215  157.7238 H   0  0  0  0  0  0  0  0  0  0  0  0
  150.3562  137.2373  158.2340 H   0  0  0  0  0  0  0  0  0  0  0  0
  149.8352  138.7164  158.9718 H   0  0  0  0  0  0  0  0  0  0  0  0
  151.8378  138.0399  155.9177 H   0  0  0  0  0  0  0  0  0  0  0  0
  150.4483  136.9768  155.8721 H   0  0  0  0  0  0  0  0  0  0  0  0
  150.8915  138.0036  153.6417 H   0  0  0  0  0  0  0  0  0  0  0  0
  149.2995  138.4345  154.2400 H   0  0  0  0  0  0  0  0  0  0  0  0
  150.4069  141.7658  155.2122 H   0  0  0  0  0  0  0  0  0  0  0  0
  149.0070  140.7080  155.1941 H   0  0  0  0  0  0  0  0  0  0  0  0
  149.9794  140.7986  157.4822 H   0  0  0  0  0  0  0  0  0  0  0  0
  151.5513  140.3391  156.8676 H   0  0  0  0  0  0  0  0  0  0  0  0
  151.2428  140.4195  159.3510 H   0  0  0  0  0  0  0  0  0  0  0  0
  152.4359  141.8397  161.0962 H   0  0  0  0  0  0  0  0  0  0  0  0
  154.0755  142.2174  160.5939 H   0  0  0  0  0  0  0  0  0  0  0  0
  154.1405  144.3607  159.2607 H   0  0  0  0  0  0  0  0  0  0  0  0
  152.4877  145.5468  157.4413 H   0  0  0  0  0  0  0  0  0  0  0  0
  150.3700  143.7672  157.2715 H   0  0  0  0  0  0  0  0  0  0  0  0
  1  2  1  0  0  0  0
  1 19  1  0  0  0  0
  1 20  1  0  0  0  0
  1 21  1  0  0  0  0
  2  3  1  0  0  0  0
  2 10  1  0  0  0  0
  2 22  1  0  0  0  0
  3  4  1  0  0  0  0
  3 23  1  0  0  0  0
  3 24  1  0  0  0  0
  4  9  1  0  0  0  0
  4  5  1  0  0  0  0
  5  6  1  0  0  0  0
  5 25  1  0  0  0  0
  5 26  1  0  0  0  0
  6  7  1  0  0  0  0
  6 27  1  0  0  0  0
  6 28  1  0  0  0  0
  7  8  1  0  0  0  0
  8  9  1  0  0  0  0
  8 29  1  0  0  0  0
  8 30  1  0  0  0  0
  9 31  1  0  0  0  0
  9 32  1  0  0  0  0
 10 11  1  0  0  0  0
 10 33  1  0  0  0  0
 11 12  2  0  0  0  0
 11 13  1  0  0  0  0
 13 14  1  0  0  0  0
 13 34  1  0  0  0  0
 13 35  1  0  0  0  0
 14 18  1  0  0  0  0
 14 15  1  0  0  0  0
 15 16  2  0  0  0  0
 15 36  1  0  0  0  0
 16 17  1  0  0  0  0
 16 37  1  0  0  0  0
 17 18  2  0  0  0  0
 17 38  1  0  0  0  0
M  END
> <s_m_source_file>
AV-unprocessed.smi

> <i_m_source_file_index>
1936

> <i_lp_mmshare_version>
43012

> <i_f3d_flags>
0

> <s_epik_input>
W0NIMl0xW0NIMl1PW0NIMl1bQ0gyXU4xW0NIMl1bQ0BASF0oW0NIM10pW05IXUMoPU8pW0NIMl1uMltjSF1bY0hdW2NIXW4y

> <s_epik_cmdline>
J2VwaWtfcHl0aG9uJywgJy1waCcsICc3LjAnLCAnLXRuJywgJzgnLCAnLW1hJywgJzIwMCcsICctbWV0YWxfYmluZGluZycsICctaW1hZScsICc8aW5maWxlLm1hZT4nLCAnLW9tYWUnLCAnPG91dGZpbGUubWFlPic=

> <r_lp_tautomer_probability>
1

> <r_epik_Ionization_Penalty>
0.196927

> <r_epik_Ionization_Penalty_Charging>
0

> <r_epik_Ionization_Penalty_Neutral>
0.196927

> <r_epik_State_Penalty>
0.186684

> <r_epik_Charging_Adjusted_Penalty>
0.186684

> <i_epik_Tot_Q>
0

> <i_epik_Tot_abs_Q>
0

> <r_epik_Metal_State_Penalty>
0.186682

> <b_epik_Metal_Only>
0

> <s_lp_Force_Field>
OPLS_2005

> <r_lp_Energy>
27.4163

> <b_lp_Chiralities_Consistent>
1

> <s_lp_Variant>
AV-unprocessed.smi:1936-2

> <Gold.Version>
5.8.1

> <Gold.Id.Protein>
6NUR|6NUR_protein|mol2

> <Gold.PLP.Fitness>
42.7206

> <Gold.PLP.PLP>
-34.6354

> <Gold.PLP.part.hbond>
-2.0000

> <Gold.PLP.part.metal>
0.0000

> <Gold.PLP.part.buried>
-5.0579

> <Gold.PLP.part.nonpolar>
-27.8959

> <Gold.PLP.part.repulsive>
0.2651

> <Gold.PLP.ligand.clash>
0.0000

> <Gold.PLP.ligand.torsion>
0.3979

> <Gold.PLP.Chemscore.Hbond>
1.9440

> <Gold.PLP.Chemscore.CHOScore>
1.0000

> <Gold.PLP.Chemscore.Metal>
0.0000

> <Gold.Chemscore.Hbonds>
donor molecule, donor type, donor heavy atom, donor atom, acceptor molecule, acceptor atom, score
      P1  H  7989  7998       L1     7  1.00
      P1  H  7997  8010       L1    12  0.26
      L1  C    17    38       P1  8028  1.00

> <Gold.PLP.Chemscore.Internal.Correction>
0.0491

> <Gold.Rescore>
     Score         DG    S(hbond)    S(metal)    S(lipo)     H(rot)  DE(clash)    DE(int)     intcor
     16.02     -16.90       1.93        0.00      83.22       1.85       0.07       0.81       ----

> <Gold.Chemscore.Fitness>
16.0186

> <Gold.Chemscore.DG>
-16.8985

> <Gold.Chemscore.ZeroCoef>
-5.4800

> <Gold.Chemscore.Hbond>
1.9252

> <Gold.Chemscore.Metal>
0.0000

> <Gold.Chemscore.Lipo>
83.2222

> <Gold.Chemscore.Internal_Hbond>
0.0000

> <Gold.Chemscore.DEClash>
0.0726

> <Gold.Chemscore.DEInternal>
0.8073

> <Gold.Chemscore.Rot>
1.8549

> <Gold.Chemscore.Internal.Correction>
   9.000000E+99

> <Gold.Chemscore.Hbonds>
donor molecule, donor type, donor heavy atom, donor atom, acceptor molecule, acceptor atom, score
      P1  H  7989  7998       L1     7  0.62
      P1  H  7997  8010       L1    12  0.20

> <Gold.Chemscore.Hbond.Weighted>
-6.4300

> <Gold.Chemscore.Metal.Weighted>
-0.0000

> <Gold.Chemscore.Lipo.Weighted>
-9.7370

> <Gold.Chemscore.Internal_Hbond.Weighted>
0.0000

> <Gold.Chemscore.DEClash.Weighted>
0.0726

> <Gold.Chemscore.DEInternal.Weighted>
0.8073

> <Gold.Chemscore.Rot.Weighted>
4.7485

> <Gold.Chemscore.Internal.Correction.Weighted>
   9.000000E+99

> <Gold.Protein.RotatedTorsions>
[ 6907 6896 6895 6894 ] final  104.85 input  -60.11 | X-H torsion
[ 7974 7965 7964 7962 ] final  131.37 input  175.53 | X-H torsion
[ 8008 7997 7996 7995 ] final    1.59 input   59.86 | X-H torsion
[ 10167 10162 10161 10158 ] final   19.99 input  -65.29 | X-H torsion
[ 10718 10713 10712 10709 ] final  -11.35 input   66.30 | X-H torsion
[ 10763 10752 10751 10750 ] final  109.66 input  -60.55 | X-H torsion
[ 11005 11000 10999 10996 ] final -133.20 input  -57.11 | X-H torsion

> <Gold.Protein.ActiveResidues>
 VAL166  LYS551  ARG553  GLY616  TRP617  ASP618  TYR619  PRO620  LYS621  CYS622 
 ASP623  PHE694  ASN695  SER759  ASP760  ASP761  ALA762  ILE779  LEU786  VAL792 
 PHE793  MET794  SER795  GLU796  ALA797  LYS798  CYS799  TRP800  GLU811  SER814 

> <Gold.Protein.RotatedAtoms>
  152.5250  133.9615  159.7718 H   0  0  0  0  0  0  0  0  0  0  0  0  # atno 6907 bound_to 6896
  150.9905  133.6146  159.2716 H   0  0  0  0  0  0  0  0  0  0  0  0  # atno 6908 bound_to 6896
  151.3292  135.0843  159.9386 H   0  0  0  0  0  0  0  0  0  0  0  0  # atno 6909 bound_to 6896
  145.0081  139.4247  143.5259 H   0  0  0  0  0  0  0  0  0  0  0  0  # atno 7974 bound_to 7965
  154.6815  140.2634  155.6903 H   0  0  0  0  0  0  0  0  0  0  0  0  # atno 8008 bound_to 7997
  156.2698  140.2809  156.1284 H   0  0  0  0  0  0  0  0  0  0  0  0  # atno 8009 bound_to 7997
  155.1024  140.0374  157.2691 H   0  0  0  0  0  0  0  0  0  0  0  0  # atno 8010 bound_to 7997
  140.5537  143.9463  150.6595 H   0  0  0  0  0  0  0  0  0  0  0  0  # atno 10167 bound_to 10162
  156.6603  130.4980  149.6033 H   0  0  0  0  0  0  0  0  0  0  0  0  # atno 10718 bound_to 10713
  153.4379  135.3773  155.2210 H   0  0  0  0  0  0  0  0  0  0  0  0  # atno 10763 bound_to 10752
  154.8753  135.3856  154.4188 H   0  0  0  0  0  0  0  0  0  0  0  0  # atno 10764 bound_to 10752
  153.4730  135.7087  153.6046 H   0  0  0  0  0  0  0  0  0  0  0  0  # atno 10765 bound_to 10752
  140.9102  134.1577  157.4395 H   0  0  0  0  0  0  0  0  0  0  0  0  # atno 11005 bound_to 11000
  146.3465  139.9508  142.8729 LP  0  0  0  0  0  0  0  0  0  0  0  0  # atno 17320 bound_to 7965
  145.2061  140.9875  143.4127 LP  0  0  0  0  0  0  0  0  0  0  0  0  # atno 17321 bound_to 7965
  140.2896  143.3333  152.1075 LP  0  0  0  0  0  0  0  0  0  0  0  0  # atno 17342 bound_to 10162
  139.5038  144.6763  151.6119 LP  0  0  0  0  0  0  0  0  0  0  0  0  # atno 17343 bound_to 10162
  156.2016  130.6623  151.1173 LP  0  0  0  0  0  0  0  0  0  0  0  0  # atno 17370 bound_to 10713
  157.7112  131.0733  150.6494 LP  0  0  0  0  0  0  0  0  0  0  0  0  # atno 17371 bound_to 10713
  139.8756  134.9933  156.5636 LP  0  0  0  0  0  0  0  0  0  0  0  0  # atno 17394 bound_to 11000
  140.8119  133.8422  155.8818 LP  0  0  0  0  0  0  0  0  0  0  0  0  # atno 17395 bound_to 11000

$$$$
