AV-unprocessed.smi:101|AV-procd|sdf|922|dock8
  -GOLD-   2262017433D 1   1.00000     0.00000
 Structure written by MMmdl.
 44 46  0  0  0  0  0  0  0  0  1 V2000
  150.2628  135.5117  155.7134 C   0  0  0  0  0  0  0  0  0  0  0  0
  149.3054  136.4372  156.4469 C   0  0  0  0  0  0  0  0  0  0  0  0
  148.7784  137.5463  155.8681 C   0  0  0  0  0  0  0  0  0  0  0  0
  147.8852  138.4064  156.4996 N   0  0  0  0  0  0  0  0  0  0  0  0
  147.3527  139.6524  155.8023 C   0  0  1  0  0  0  0  0  0  0  0  0
  147.9003  140.7883  156.4135 O   0  0  0  0  0  0  0  0  0  0  0  0
  148.9659  141.3290  155.6371 C   0  0  1  0  0  0  0  0  0  0  0  0
  150.2944  140.6064  155.9447 C   0  0  0  0  0  0  0  0  0  0  0  0
  150.7063  140.9198  157.2649 O   0  0  0  0  0  0  0  0  0  0  0  0
  151.9561  140.6196  157.6708 C   0  0  0  0  0  0  0  0  0  0  0  0
  152.6955  139.8304  157.0795 O   0  0  0  0  0  0  0  0  0  0  0  0
  152.3408  141.3215  158.9282 C   0  0  0  0  0  0  0  0  0  0  0  0
  153.3150  140.7420  159.7742 C   0  0  0  0  0  0  0  0  0  0  0  0
  153.6869  141.3731  160.9769 C   0  0  0  0  0  0  0  0  0  0  0  0
  153.0897  142.5919  161.3477 C   0  0  0  0  0  0  0  0  0  0  0  0
  152.1192  143.1785  160.5146 C   0  0  0  0  0  0  0  0  0  0  0  0
  151.7454  142.5485  159.3116 C   0  0  0  0  0  0  0  0  0  0  0  0
  148.4369  141.1100  154.2191 C   0  0  1  0  0  0  0  0  0  0  0  0
  149.4657  141.1338  153.2480 O   0  0  0  0  0  0  0  0  0  0  0  0
  147.7611  139.7455  154.3067 C   0  0  2  0  0  0  0  0  0  0  0  0
  146.6362  139.7162  153.4508 O   0  0  0  0  0  0  0  0  0  0  0  0
  147.6093  138.2012  157.8703 C   0  0  0  0  0  0  0  0  0  0  0  0
  146.9448  138.9843  158.5471 O   0  0  0  0  0  0  0  0  0  0  0  0
  148.1349  137.0541  158.4621 N   0  0  0  0  0  0  0  0  0  0  0  0
  148.9601  136.1195  157.8337 C   0  0  0  0  0  0  0  0  0  0  0  0
  149.3479  135.1333  158.4578 O   0  0  0  0  0  0  0  0  0  0  0  0
  147.9120  136.8919  159.4334 H   0  0  0  0  0  0  0  0  0  0  0  0
  150.4841  135.8708  154.7079 H   0  0  0  0  0  0  0  0  0  0  0  0
  149.8310  134.5143  155.6225 H   0  0  0  0  0  0  0  0  0  0  0  0
  151.2071  135.4301  156.2528 H   0  0  0  0  0  0  0  0  0  0  0  0
  149.0877  137.7590  154.8560 H   0  0  0  0  0  0  0  0  0  0  0  0
  146.2758  139.6196  155.9764 H   0  0  0  0  0  0  0  0  0  0  0  0
  149.0764  142.3936  155.8468 H   0  0  0  0  0  0  0  0  0  0  0  0
  150.1859  139.5290  155.8163 H   0  0  0  0  0  0  0  0  0  0  0  0
  151.0740  140.9337  155.2563 H   0  0  0  0  0  0  0  0  0  0  0  0
  153.7848  139.8049  159.5122 H   0  0  0  0  0  0  0  0  0  0  0  0
  154.4308  140.9205  161.6157 H   0  0  0  0  0  0  0  0  0  0  0  0
  153.3751  143.0759  162.2701 H   0  0  0  0  0  0  0  0  0  0  0  0
  151.6597  144.1136  160.7987 H   0  0  0  0  0  0  0  0  0  0  0  0
  150.9950  143.0239  158.6970 H   0  0  0  0  0  0  0  0  0  0  0  0
  147.7032  141.8856  153.9914 H   0  0  0  0  0  0  0  0  0  0  0  0
  149.2649  140.4951  152.5809 H   0  0  0  0  0  0  0  0  0  0  0  0
  148.4721  138.9594  154.0487 H   0  0  0  0  0  0  0  0  0  0  0  0
  146.1423  138.9317  153.6363 H   0  0  0  0  0  0  0  0  0  0  0  0
  1  2  1  0  0  0  0
  1 28  1  0  0  0  0
  1 29  1  0  0  0  0
  1 30  1  0  0  0  0
  2 25  1  0  0  0  0
  2  3  2  0  0  0  0
  3  4  1  0  0  0  0
  3 31  1  0  0  0  0
  4  5  1  0  0  0  0
  4 22  1  0  0  0  0
  5 20  1  0  0  0  0
  5  6  1  0  0  0  0
  5 32  1  0  0  0  0
  6  7  1  0  0  0  0
  7  8  1  0  0  0  0
  7 18  1  0  0  0  0
  7 33  1  0  0  0  0
  8  9  1  0  0  0  0
  8 34  1  0  0  0  0
  8 35  1  0  0  0  0
  9 10  1  0  0  0  0
 10 11  2  0  0  0  0
 10 12  1  0  0  0  0
 12 17  1  0  0  0  0
 12 13  2  0  0  0  0
 13 14  1  0  0  0  0
 13 36  1  0  0  0  0
 14 15  2  0  0  0  0
 14 37  1  0  0  0  0
 15 16  1  0  0  0  0
 15 38  1  0  0  0  0
 16 17  2  0  0  0  0
 16 39  1  0  0  0  0
 17 40  1  0  0  0  0
 18 19  1  0  0  0  0
 18 20  1  0  0  0  0
 18 41  1  0  0  0  0
 19 42  1  0  0  0  0
 20 21  1  0  0  0  0
 20 43  1  0  0  0  0
 21 44  1  0  0  0  0
 22 23  2  0  0  0  0
 22 24  1  0  0  0  0
 24 27  1  0  0  0  0
 24 25  1  0  0  0  0
 25 26  2  0  0  0  0
M  END
> <s_m_source_file>
AV-unprocessed.smi

> <i_m_source_file_index>
101

> <i_lp_mmshare_version>
43012

> <i_f3d_flags>
0

> <s_epik_input>
Tz1jMVtuSF1jKD1PKW4oW2NIXWMxW0NIM10pW0NAQEhdMk9bQ0BIXShbQ0BASF0oW09IXSlbQ0BIXTJbT0hdKVtDSDJdT0MoPU8pYzNbY0hdW2NIXVtjSF1bY0hdW2NIXTM=

> <s_epik_cmdline>
J2VwaWtfcHl0aG9uJywgJy1waCcsICc3LjAnLCAnLXRuJywgJzgnLCAnLW1hJywgJzIwMCcsICctbWV0YWxfYmluZGluZycsICctaW1hZScsICc8aW5maWxlLm1hZT4nLCAnLW9tYWUnLCAnPG91dGZpbGUubWFlPic=

> <r_lp_tautomer_probability>
0.999537

> <r_epik_Ionization_Penalty>
0.00263537

> <r_epik_Ionization_Penalty_Charging>
0.00263428

> <r_epik_Ionization_Penalty_Neutral>
1.09111e-06

> <r_epik_State_Penalty>
0.00183335

> <r_epik_Charging_Adjusted_Penalty>
0.00446763

> <i_epik_Tot_Q>
0

> <i_epik_Tot_abs_Q>
0

> <r_epik_Metal_State_Penalty>
1.00528

> <b_epik_Metal_Only>
0

> <s_epik_Chemistry_Notes>
This compound has an ester and may undergo hydrolysis at high or low pH. This compound contains an acetal/aminal-like group ( X-CH(R)-Y where X, Y are N, S, or O) that may be acid/base labile, releasing an aldehyde.

> <s_lp_Force_Field>
OPLS_2005

> <r_lp_Energy>
31.3632

> <b_lp_Chiralities_Consistent>
1

> <s_lp_Variant>
AV-unprocessed.smi:101-10

> <Gold.Version>
5.8.1

> <Gold.Id.Protein>
6NUR|6NUR_protein|mol2

> <Gold.PLP.Fitness>
49.1570

> <Gold.PLP.PLP>
-38.4305

> <Gold.PLP.part.hbond>
-5.8435

> <Gold.PLP.part.metal>
0.0000

> <Gold.PLP.part.buried>
-5.7008

> <Gold.PLP.part.nonpolar>
-26.8267

> <Gold.PLP.part.repulsive>
0.1907

> <Gold.PLP.ligand.clash>
0.0000

> <Gold.PLP.ligand.torsion>
0.6117

> <Gold.PLP.Chemscore.Hbond>
3.9478

> <Gold.PLP.Chemscore.CHOScore>
0.0000

> <Gold.PLP.Chemscore.Metal>
0.0000

> <Gold.Chemscore.Hbonds>
donor molecule, donor type, donor heavy atom, donor atom, acceptor molecule, acceptor atom, score
      L1  H    19    42       P1  7957  0.86
      P1  H  6896  6908       L1    26  1.00
      P1  H  6934  6947       L1    23  0.01
      P1  H  7989  7998       L1    19  0.09
      P1  H  7997  8008       L1    11  1.00
      P1  H  8011  8017       L1    19  1.00

> <Gold.PLP.Chemscore.Internal.Correction>
0.1063

> <Gold.Rescore>
     Score         DG    S(hbond)    S(metal)    S(lipo)     H(rot)  DE(clash)    DE(int)     intcor
     18.51     -19.24       3.43        0.00      92.28       3.32       0.03       0.70       ----

> <Gold.Chemscore.Fitness>
18.5068

> <Gold.Chemscore.DG>
-19.2421

> <Gold.Chemscore.ZeroCoef>
-5.4800

> <Gold.Chemscore.Hbond>
3.4302

> <Gold.Chemscore.Metal>
0.0000

> <Gold.Chemscore.Lipo>
92.2843

> <Gold.Chemscore.Internal_Hbond>
0.0000

> <Gold.Chemscore.DEClash>
0.0310

> <Gold.Chemscore.DEInternal>
0.7043

> <Gold.Chemscore.Rot>
3.3172

> <Gold.Chemscore.Internal.Correction>
   9.000000E+99

> <Gold.Chemscore.Hbonds>
donor molecule, donor type, donor heavy atom, donor atom, acceptor molecule, acceptor atom, score
      L1  H    19    42       P1  7957  0.78
      P1  H  6896  6908       L1    26  0.99
      P1  H  6934  6947       L1    23  0.02
      P1  H  7989  7998       L1    19  0.03
      P1  H  7997  8008       L1    11  1.00
      P1  H  8011  8017       L1    19  0.25

> <Gold.Chemscore.Hbond.Weighted>
-11.4568

> <Gold.Chemscore.Metal.Weighted>
-0.0000

> <Gold.Chemscore.Lipo.Weighted>
-10.7973

> <Gold.Chemscore.Internal_Hbond.Weighted>
0.0000

> <Gold.Chemscore.DEClash.Weighted>
0.0310

> <Gold.Chemscore.DEInternal.Weighted>
0.7043

> <Gold.Chemscore.Rot.Weighted>
8.4920

> <Gold.Chemscore.Internal.Correction.Weighted>
   9.000000E+99

> <Gold.Protein.RotatedTorsions>
[ 6907 6896 6895 6894 ] final  146.94 input  -60.11 | X-H torsion
[ 7974 7965 7964 7962 ] final -151.99 input  175.53 | X-H torsion
[ 8008 7997 7996 7995 ] final  -60.62 input   59.86 | X-H torsion
[ 10167 10162 10161 10158 ] final  -68.56 input  -65.29 | X-H torsion
[ 10718 10713 10712 10709 ] final -146.37 input   66.30 | X-H torsion
[ 10763 10752 10751 10750 ] final  -20.50 input  -60.55 | X-H torsion
[ 11005 11000 10999 10996 ] final  -78.82 input  -57.11 | X-H torsion

> <Gold.Protein.ActiveResidues>
 VAL166  LYS551  ARG553  GLY616  TRP617  ASP618  TYR619  PRO620  LYS621  CYS622 
 ASP623  PHE694  ASN695  SER759  ASP760  ASP761  ALA762  ILE779  LEU786  VAL792 
 PHE793  MET794  SER795  GLU796  ALA797  LYS798  CYS799  TRP800  GLU811  SER814 

> <Gold.Protein.RotatedAtoms>
  152.1614  133.4584  159.4862 H   0  0  0  0  0  0  0  0  0  0  0  0  # atno 6907 bound_to 6896
  150.6907  134.2067  159.4352 H   0  0  0  0  0  0  0  0  0  0  0  0  # atno 6908 bound_to 6896
  151.9969  134.9949  160.0614 H   0  0  0  0  0  0  0  0  0  0  0  0  # atno 6909 bound_to 6896
  144.7819  140.4722  143.5833 H   0  0  0  0  0  0  0  0  0  0  0  0  # atno 7974 bound_to 7965
  154.4407  140.1035  156.6302 H   0  0  0  0  0  0  0  0  0  0  0  0  # atno 8008 bound_to 7997
  155.5613  140.3487  155.4473 H   0  0  0  0  0  0  0  0  0  0  0  0  # atno 8009 bound_to 7997
  156.0457  140.1292  157.0095 H   0  0  0  0  0  0  0  0  0  0  0  0  # atno 8010 bound_to 7997
  140.5498  143.2312  151.6933 H   0  0  0  0  0  0  0  0  0  0  0  0  # atno 10167 bound_to 10162
  156.3940  130.7900  151.2105 H   0  0  0  0  0  0  0  0  0  0  0  0  # atno 10718 bound_to 10713
  153.6215  135.6992  153.5309 H   0  0  0  0  0  0  0  0  0  0  0  0  # atno 10763 bound_to 10752
  153.2934  135.4150  155.1187 H   0  0  0  0  0  0  0  0  0  0  0  0  # atno 10764 bound_to 10752
  154.8542  135.3631  154.5755 H   0  0  0  0  0  0  0  0  0  0  0  0  # atno 10765 bound_to 10752
  141.1666  133.7079  156.8030 H   0  0  0  0  0  0  0  0  0  0  0  0  # atno 11005 bound_to 11000
  145.6028  139.1505  143.3119 LP  0  0  0  0  0  0  0  0  0  0  0  0  # atno 17320 bound_to 7965
  146.2031  140.6148  142.9093 LP  0  0  0  0  0  0  0  0  0  0  0  0  # atno 17321 bound_to 7965
  139.5022  144.3836  152.0351 LP  0  0  0  0  0  0  0  0  0  0  0  0  # atno 17342 bound_to 10162
  140.2952  144.3708  150.6076 LP  0  0  0  0  0  0  0  0  0  0  0  0  # atno 17343 bound_to 10162
  157.7500  131.0307  150.4148 LP  0  0  0  0  0  0  0  0  0  0  0  0  # atno 17370 bound_to 10713
  156.4415  130.3992  149.6694 LP  0  0  0  0  0  0  0  0  0  0  0  0  # atno 17371 bound_to 10713
  140.2242  134.8734  157.3409 LP  0  0  0  0  0  0  0  0  0  0  0  0  # atno 17394 bound_to 11000
  140.1956  134.4317  155.7691 LP  0  0  0  0  0  0  0  0  0  0  0  0  # atno 17395 bound_to 11000

$$$$
