AV-unprocessed.smi:1231|AV-procd|sdf|5165|dock9
  -GOLD-   22720 4243D 1   1.00000     0.00000
 Structure written by MMmdl.
 43 44  0  0  0  0  0  0  0  0  2 V2000
  143.7509  144.5901  154.3676 C   0  0  0  0  0  0  0  0  0  0  0  0
  145.0017  143.9817  155.0110 C   0  0  2  0  0  0  0  0  0  0  0  0
  145.7665  143.0618  154.0410 C   0  0  0  0  0  0  0  0  0  0  0  0
  146.9276  142.4395  154.7198 N   0  3  2  0  0  0  0  0  0  0  0  0
  147.7285  141.5910  153.8027 C   0  0  0  0  0  0  0  0  0  0  0  0
  149.0861  141.1862  154.4100 C   0  0  0  0  0  0  0  0  0  0  0  0
  149.5220  142.1346  155.4281 N   0  0  0  0  0  0  0  0  0  0  0  0
  150.2290  141.8123  156.5211 C   0  0  0  0  0  0  0  0  0  0  0  0
  150.5914  140.6631  156.7756 O   0  0  0  0  0  0  0  0  0  0  0  0
  150.4790  142.8948  157.2785 N   0  0  0  0  0  0  0  0  0  0  0  0
  151.2077  142.9637  158.4958 C   0  0  0  0  0  0  0  0  0  0  0  0
  151.2604  144.2449  159.0899 C   0  0  0  0  0  0  0  0  0  0  0  0
  151.9588  144.4187  160.3004 C   0  0  0  0  0  0  0  0  0  0  0  0
  152.5891  143.3060  160.8850 C   0  0  0  0  0  0  0  0  0  0  0  0
  152.4901  142.0661  160.2272 C   0  0  0  0  0  0  0  0  0  0  0  0
  151.8202  141.8970  159.0676 N   0  0  0  0  0  0  0  0  0  0  0  0
  146.4873  141.7331  155.9484 C   0  0  0  0  0  0  0  0  0  0  0  0
  145.6981  142.6857  156.8666 C   0  0  2  0  0  0  0  0  0  0  0  0
  145.1537  141.9724  158.1090 C   0  0  0  0  0  0  0  0  0  0  0  0
  144.5954  143.2230  156.1444 O   0  0  0  0  0  0  0  0  0  0  0  0
  144.0113  145.1948  153.4986 H   0  0  0  0  0  0  0  0  0  0  0  0
  143.2238  145.2334  155.0726 H   0  0  0  0  0  0  0  0  0  0  0  0
  143.0567  143.8153  154.0407 H   0  0  0  0  0  0  0  0  0  0  0  0
  145.6525  144.7949  155.3376 H   0  0  0  0  0  0  0  0  0  0  0  0
  145.1062  142.2802  153.6605 H   0  0  0  0  0  0  0  0  0  0  0  0
  146.1091  143.6394  153.1814 H   0  0  0  0  0  0  0  0  0  0  0  0
  147.1455  140.7141  153.5173 H   0  0  0  0  0  0  0  0  0  0  0  0
  147.9219  142.1437  152.8821 H   0  0  0  0  0  0  0  0  0  0  0  0
  149.0071  140.2029  154.8742 H   0  0  0  0  0  0  0  0  0  0  0  0
  149.8597  141.1079  153.6457 H   0  0  0  0  0  0  0  0  0  0  0  0
  149.2608  143.1009  155.2956 H   0  0  0  0  0  0  0  0  0  0  0  0
  150.1063  143.7720  156.9469 H   0  0  0  0  0  0  0  0  0  0  0  0
  150.7705  145.0896  158.6274 H   0  0  0  0  0  0  0  0  0  0  0  0
  152.0093  145.3894  160.7714 H   0  0  0  0  0  0  0  0  0  0  0  0
  153.1340  143.3997  161.8127 H   0  0  0  0  0  0  0  0  0  0  0  0
  152.9602  141.1869  160.6423 H   0  0  0  0  0  0  0  0  0  0  0  0
  145.8686  140.8769  155.6738 H   0  0  0  0  0  0  0  0  0  0  0  0
  147.3473  141.3428  156.4912 H   0  0  0  0  0  0  0  0  0  0  0  0
  146.3454  143.5019  157.1925 H   0  0  0  0  0  0  0  0  0  0  0  0
  145.9627  141.5525  158.7072 H   0  0  0  0  0  0  0  0  0  0  0  0
  144.4828  141.1577  157.8351 H   0  0  0  0  0  0  0  0  0  0  0  0
  144.5967  142.6636  158.7425 H   0  0  0  0  0  0  0  0  0  0  0  0
  147.5265  143.1989  155.0110 H   0  0  0  0  0  0  0  0  0  0  0  0
  1  2  1  0  0  0  0
  1 21  1  0  0  0  0
  1 22  1  0  0  0  0
  1 23  1  0  0  0  0
  2 20  1  0  0  0  0
  2  3  1  0  0  0  0
  2 24  1  0  0  0  0
  3  4  1  0  0  0  0
  3 25  1  0  0  0  0
  3 26  1  0  0  0  0
  4  5  1  0  0  0  0
  4 17  1  0  0  0  0
  4 43  1  0  0  0  0
  5  6  1  0  0  0  0
  5 27  1  0  0  0  0
  5 28  1  0  0  0  0
  6  7  1  0  0  0  0
  6 29  1  0  0  0  0
  6 30  1  0  0  0  0
  7  8  1  0  0  0  0
  7 31  1  0  0  0  0
  8  9  2  0  0  0  0
  8 10  1  0  0  0  0
 10 11  1  0  0  0  0
 10 32  1  0  0  0  0
 11 16  1  0  0  0  0
 11 12  2  0  0  0  0
 12 13  1  0  0  0  0
 12 33  1  0  0  0  0
 13 14  2  0  0  0  0
 13 34  1  0  0  0  0
 14 15  1  0  0  0  0
 14 35  1  0  0  0  0
 15 16  2  0  0  0  0
 15 36  1  0  0  0  0
 17 18  1  0  0  0  0
 17 37  1  0  0  0  0
 17 38  1  0  0  0  0
 18 19  1  0  0  0  0
 18 20  1  0  0  0  0
 18 39  1  0  0  0  0
 19 40  1  0  0  0  0
 19 41  1  0  0  0  0
 19 42  1  0  0  0  0
M  CHG  1   4   1
M  END
> <s_m_source_file>
AV-unprocessed.smi

> <i_m_source_file_index>
1231

> <i_lp_mmshare_version>
43012

> <i_f3d_flags>
0

> <s_epik_input>
W0NIM11bQ0BASF0xW0NIMl1OKFtDSDJdW0NASF0oTzEpW0NIM10pW0NIMl1bQ0gyXVtOSF1DKD1PKVtOSF1jMltjSF1bY0hdW2NIXVtjSF1uMg==

> <s_epik_cmdline>
J2VwaWtfcHl0aG9uJywgJy1waCcsICc3LjAnLCAnLXRuJywgJzgnLCAnLW1hJywgJzIwMCcsICctbWV0YWxfYmluZGluZycsICctaW1hZScsICc8aW5maWxlLm1hZT4nLCAnLW9tYWUnLCAnPG91dGZpbGUubWFlPic=

> <r_epik_Ionization_Penalty>
0.602565

> <r_epik_Ionization_Penalty_Charging>
0.602531

> <r_epik_Ionization_Penalty_Neutral>
3.43186e-05

> <r_epik_State_Penalty>
0.617039

> <r_epik_Charging_Adjusted_Penalty>
1.21957

> <i_epik_Tot_Q>
1

> <i_epik_Tot_abs_Q>
1

> <r_epik_Metal_State_Penalty>
0.617041

> <b_epik_Metal_Only>
0

> <s_lp_Force_Field>
OPLS_2005

> <r_lp_Energy>
15.064

> <b_lp_Chiralities_Consistent>
1

> <s_lp_Variant>
AV-unprocessed.smi:1231-6

> <Gold.Version>
5.8.1

> <Gold.Id.Protein>
6NUR|6NUR_protein|mol2

> <Gold.PLP.Fitness>
51.3139

> <Gold.PLP.PLP>
-40.3532

> <Gold.PLP.part.hbond>
-2.9797

> <Gold.PLP.part.metal>
0.0000

> <Gold.PLP.part.buried>
-8.4945

> <Gold.PLP.part.nonpolar>
-30.0434

> <Gold.PLP.part.repulsive>
0.4465

> <Gold.PLP.ligand.clash>
0.0000

> <Gold.PLP.ligand.torsion>
0.4699

> <Gold.PLP.Chemscore.Hbond>
3.9600

> <Gold.PLP.Chemscore.CHOScore>
0.0000

> <Gold.PLP.Chemscore.Metal>
0.0000

> <Gold.Chemscore.Hbonds>
donor molecule, donor type, donor heavy atom, donor atom, acceptor molecule, acceptor atom, score
      L1  H     4    43       P1  8028  1.66
      L1  H     7    31       P1  8028  1.00
      L1  H    10    32       P1  8028  0.98

> <Gold.PLP.Chemscore.Internal.Correction>
0.0206

> <Gold.Rescore>
     Score         DG    S(hbond)    S(metal)    S(lipo)     H(rot)  DE(clash)    DE(int)     intcor
     18.19     -20.32       2.51        0.00      89.29       1.55       0.26       1.87       ----

> <Gold.Chemscore.Fitness>
18.1877

> <Gold.Chemscore.DG>
-20.3176

> <Gold.Chemscore.ZeroCoef>
-5.4800

> <Gold.Chemscore.Hbond>
2.5059

> <Gold.Chemscore.Metal>
0.0000

> <Gold.Chemscore.Lipo>
89.2947

> <Gold.Chemscore.Internal_Hbond>
0.0000

> <Gold.Chemscore.DEClash>
0.2575

> <Gold.Chemscore.DEInternal>
1.8724

> <Gold.Chemscore.Rot>
1.5546

> <Gold.Chemscore.Internal.Correction>
   9.000000E+99

> <Gold.Chemscore.Hbonds>
donor molecule, donor type, donor heavy atom, donor atom, acceptor molecule, acceptor atom, score
      L1  H     4    43       P1  8028  0.29
      L1  H     7    31       P1  8028  1.00
      L1  H    10    32       P1  8028  0.89

> <Gold.Chemscore.Hbond.Weighted>
-8.3698

> <Gold.Chemscore.Metal.Weighted>
-0.0000

> <Gold.Chemscore.Lipo.Weighted>
-10.4475

> <Gold.Chemscore.Internal_Hbond.Weighted>
0.0000

> <Gold.Chemscore.DEClash.Weighted>
0.2575

> <Gold.Chemscore.DEInternal.Weighted>
1.8724

> <Gold.Chemscore.Rot.Weighted>
3.9797

> <Gold.Chemscore.Internal.Correction.Weighted>
   9.000000E+99

> <Gold.Protein.RotatedTorsions>
[ 6907 6896 6895 6894 ] final  136.43 input  -60.11 | X-H torsion
[ 7974 7965 7964 7962 ] final  -74.19 input  175.53 | X-H torsion
[ 8008 7997 7996 7995 ] final  -19.72 input   59.86 | X-H torsion
[ 10167 10162 10161 10158 ] final  110.79 input  -65.29 | X-H torsion
[ 10718 10713 10712 10709 ] final -150.62 input   66.30 | X-H torsion
[ 10763 10752 10751 10750 ] final   44.25 input  -60.55 | X-H torsion
[ 11005 11000 10999 10996 ] final  131.40 input  -57.11 | X-H torsion

> <Gold.Protein.ActiveResidues>
 VAL166  LYS551  ARG553  GLY616  TRP617  ASP618  TYR619  PRO620  LYS621  CYS622 
 ASP623  PHE694  ASN695  SER759  ASP760  ASP761  ALA762  ILE779  LEU786  VAL792 
 PHE793  MET794  SER795  GLU796  ALA797  LYS798  CYS799  TRP800  GLU811  SER814 

> <Gold.Protein.RotatedAtoms>
  152.2895  133.5547  159.5547 H   0  0  0  0  0  0  0  0  0  0  0  0  # atno 6907 bound_to 6896
  150.7229  134.0449  159.3787 H   0  0  0  0  0  0  0  0  0  0  0  0  # atno 6908 bound_to 6896
  151.8356  135.0607  160.0493 H   0  0  0  0  0  0  0  0  0  0  0  0  # atno 6909 bound_to 6896
  145.6423  140.9307  143.1029 H   0  0  0  0  0  0  0  0  0  0  0  0  # atno 7974 bound_to 7965
  154.4817  140.2081  155.9748 H   0  0  0  0  0  0  0  0  0  0  0  0  # atno 8008 bound_to 7997
  156.1175  140.3219  155.8130 H   0  0  0  0  0  0  0  0  0  0  0  0  # atno 8009 bound_to 7997
  155.4526  140.0518  157.2990 H   0  0  0  0  0  0  0  0  0  0  0  0  # atno 8010 bound_to 7997
  139.6661  144.7127  151.1774 H   0  0  0  0  0  0  0  0  0  0  0  0  # atno 10167 bound_to 10162
  156.4486  130.8157  151.2387 H   0  0  0  0  0  0  0  0  0  0  0  0  # atno 10718 bound_to 10713
  152.9845  135.6076  154.3243 H   0  0  0  0  0  0  0  0  0  0  0  0  # atno 10763 bound_to 10752
  154.2950  135.2774  155.2639 H   0  0  0  0  0  0  0  0  0  0  0  0  # atno 10764 bound_to 10752
  154.4917  135.5890  153.6520 H   0  0  0  0  0  0  0  0  0  0  0  0  # atno 10765 bound_to 10752
  139.9728  134.9572  156.9432 H   0  0  0  0  0  0  0  0  0  0  0  0  # atno 11005 bound_to 11000
  144.7153  139.8220  143.7401 LP  0  0  0  0  0  0  0  0  0  0  0  0  # atno 17320 bound_to 7965
  146.1271  139.4299  143.0192 LP  0  0  0  0  0  0  0  0  0  0  0  0  # atno 17321 bound_to 7965
  140.7600  143.5917  150.8789 LP  0  0  0  0  0  0  0  0  0  0  0  0  # atno 17342 bound_to 10162
  139.9579  143.6197  152.3011 LP  0  0  0  0  0  0  0  0  0  0  0  0  # atno 17343 bound_to 10162
  157.7504  131.0145  150.3467 LP  0  0  0  0  0  0  0  0  0  0  0  0  # atno 17370 bound_to 10713
  156.3841  130.3886  149.7079 LP  0  0  0  0  0  0  0  0  0  0  0  0  # atno 17371 bound_to 10713
  140.5258  134.0863  155.7303 LP  0  0  0  0  0  0  0  0  0  0  0  0  # atno 17394 bound_to 11000
  141.1407  133.9144  157.2333 LP  0  0  0  0  0  0  0  0  0  0  0  0  # atno 17395 bound_to 11000

$$$$
