AV-unprocessed.smi:492|AV-procd|sdf|2711|dock9
  -GOLD-   2262023153D 1   1.00000     0.00000
 Structure written by MMmdl.
 47 49  0  0  0  0  0  0  0  0  2 V2000
  145.6205  132.2933  162.2004 C   0  0  0  0  0  0  0  0  0  0  0  0
  146.2976  133.4526  162.6632 O   0  0  0  0  0  0  0  0  0  0  0  0
  146.7235  134.3715  161.7281 C   0  0  0  0  0  0  0  0  0  0  0  0
  147.2273  135.5952  162.2147 C   0  0  0  0  0  0  0  0  0  0  0  0
  147.6839  136.5912  161.3302 C   0  0  0  0  0  0  0  0  0  0  0  0
  147.6364  136.3774  159.9381 C   0  0  0  0  0  0  0  0  0  0  0  0
  148.1416  137.4417  158.9832 C   0  0  0  0  0  0  0  0  0  0  0  0
  149.5055  137.7519  159.2153 O   0  0  0  0  0  0  0  0  0  0  0  0
  150.0441  138.6395  158.2484 C   0  0  0  0  0  0  0  0  0  0  0  0
  151.4506  139.0934  158.6715 C   0  0  1  0  0  0  0  0  0  0  0  0
  152.2068  137.9669  159.0677 O   0  0  0  0  0  0  0  0  0  0  0  0
  152.1877  139.9159  157.5938 C   0  0  0  0  0  0  0  0  0  0  0  0
  151.6099  141.2549  157.4051 N   0  0  0  0  0  0  0  0  0  0  0  0
  150.7483  141.7189  156.4553 C   0  0  0  0  0  0  0  0  0  0  0  0
  150.1562  140.9381  155.3302 C   0  0  0  0  0  0  0  0  0  0  0  0
  150.5245  143.0366  156.7229 N   0  3  0  0  0  0  0  0  0  0  0  0
  151.2452  143.4175  157.8562 C   0  0  0  0  0  0  0  0  0  0  0  0
  151.3385  144.6427  158.5095 C   0  0  0  0  0  0  0  0  0  0  0  0
  152.1680  144.6904  159.6492 C   0  0  0  0  0  0  0  0  0  0  0  0
  152.8646  143.5498  160.0993 C   0  0  0  0  0  0  0  0  0  0  0  0
  152.7630  142.3132  159.4284 C   0  0  0  0  0  0  0  0  0  0  0  0
  151.9421  142.2755  158.3018 C   0  0  0  0  0  0  0  0  0  0  0  0
  147.1433  135.1538  159.4414 C   0  0  0  0  0  0  0  0  0  0  0  0
  146.6869  134.1581  160.3269 C   0  0  0  0  0  0  0  0  0  0  0  0
  145.3503  131.6706  163.0528 H   0  0  0  0  0  0  0  0  0  0  0  0
  146.2554  131.6961  161.5444 H   0  0  0  0  0  0  0  0  0  0  0  0
  144.6996  132.5515  161.6757 H   0  0  0  0  0  0  0  0  0  0  0  0
  147.2661  135.7723  163.2795 H   0  0  0  0  0  0  0  0  0  0  0  0
  148.0690  137.5193  161.7261 H   0  0  0  0  0  0  0  0  0  0  0  0
  148.0130  137.1011  157.9544 H   0  0  0  0  0  0  0  0  0  0  0  0
  147.5292  138.3356  159.1099 H   0  0  0  0  0  0  0  0  0  0  0  0
  150.1097  138.1190  157.2917 H   0  0  0  0  0  0  0  0  0  0  0  0
  149.3890  139.5001  158.1015 H   0  0  0  0  0  0  0  0  0  0  0  0
  151.3409  139.7062  159.5664 H   0  0  0  0  0  0  0  0  0  0  0  0
  152.2041  137.9218  160.0114 H   0  0  0  0  0  0  0  0  0  0  0  0
  153.2363  140.0481  157.8625 H   0  0  0  0  0  0  0  0  0  0  0  0
  152.1811  139.3968  156.6345 H   0  0  0  0  0  0  0  0  0  0  0  0
  149.6165  141.5960  154.6488 H   0  0  0  0  0  0  0  0  0  0  0  0
  149.4615  140.1921  155.7166 H   0  0  0  0  0  0  0  0  0  0  0  0
  150.9395  140.4269  154.7701 H   0  0  0  0  0  0  0  0  0  0  0  0
  150.8055  145.5179  158.1675 H   0  0  0  0  0  0  0  0  0  0  0  0
  152.2718  145.6203  160.1893 H   0  0  0  0  0  0  0  0  0  0  0  0
  153.4902  143.6247  160.9770 H   0  0  0  0  0  0  0  0  0  0  0  0
  153.3005  141.4450  159.7805 H   0  0  0  0  0  0  0  0  0  0  0  0
  147.1136  134.9736  158.3767 H   0  0  0  0  0  0  0  0  0  0  0  0
  146.3142  133.2371  159.9051 H   0  0  0  0  0  0  0  0  0  0  0  0
  149.9201  143.6302  156.1693 H   0  0  0  0  0  0  0  0  0  0  0  0
  1  2  1  0  0  0  0
  1 25  1  0  0  0  0
  1 26  1  0  0  0  0
  1 27  1  0  0  0  0
  2  3  1  0  0  0  0
  3 24  1  0  0  0  0
  3  4  2  0  0  0  0
  4  5  1  0  0  0  0
  4 28  1  0  0  0  0
  5  6  2  0  0  0  0
  5 29  1  0  0  0  0
  6  7  1  0  0  0  0
  6 23  1  0  0  0  0
  7  8  1  0  0  0  0
  7 30  1  0  0  0  0
  7 31  1  0  0  0  0
  8  9  1  0  0  0  0
  9 10  1  0  0  0  0
  9 32  1  0  0  0  0
  9 33  1  0  0  0  0
 10 11  1  0  0  0  0
 10 12  1  0  0  0  0
 10 34  1  0  0  0  0
 11 35  1  0  0  0  0
 12 13  1  0  0  0  0
 12 36  1  0  0  0  0
 12 37  1  0  0  0  0
 13 22  1  0  0  0  0
 13 14  1  0  0  0  0
 14 15  1  0  0  0  0
 14 16  2  0  0  0  0
 15 38  1  0  0  0  0
 15 39  1  0  0  0  0
 15 40  1  0  0  0  0
 16 17  1  0  0  0  0
 16 47  1  0  0  0  0
 17 22  2  0  0  0  0
 17 18  1  0  0  0  0
 18 19  2  0  0  0  0
 18 41  1  0  0  0  0
 19 20  1  0  0  0  0
 19 42  1  0  0  0  0
 20 21  2  0  0  0  0
 20 43  1  0  0  0  0
 21 22  1  0  0  0  0
 21 44  1  0  0  0  0
 23 24  2  0  0  0  0
 23 45  1  0  0  0  0
 24 46  1  0  0  0  0
M  CHG  1  16   1
M  END
> <s_m_source_file>
AV-unprocessed.smi

> <i_m_source_file_index>
492

> <i_lp_mmshare_version>
43012

> <i_f3d_flags>
0

> <s_epik_input>
W0NIM11PYzFbY0hdW2NIXWMoW2NIXVtjSF0xKVtDSDJdT1tDSDJdW0NASF0oW09IXSlbQ0gyXW4oYyhuMilbQ0gzXSljKGMyMylbY0hdW2NIXVtjSF1bY0hdMw==

> <s_epik_cmdline>
J2VwaWtfcHl0aG9uJywgJy1waCcsICc3LjAnLCAnLXRuJywgJzgnLCAnLW1hJywgJzIwMCcsICctbWV0YWxfYmluZGluZycsICctaW1hZScsICc8aW5maWxlLm1hZT4nLCAnLW9tYWUnLCAnPG91dGZpbGUubWFlPic=

> <r_lp_tautomer_probability>
1

> <r_epik_Ionization_Penalty>
0.952

> <r_epik_Ionization_Penalty_Charging>
0.951999

> <r_epik_Ionization_Penalty_Neutral>
9.7482e-07

> <r_epik_State_Penalty>
0.996343

> <r_epik_Charging_Adjusted_Penalty>
1.94834

> <i_epik_Tot_Q>
1

> <i_epik_Tot_abs_Q>
1

> <r_epik_Metal_State_Penalty>
4.96724

> <b_epik_Metal_Only>
0

> <s_lp_Force_Field>
OPLS_2005

> <r_lp_Energy>
22.9053

> <b_lp_Chiralities_Consistent>
1

> <s_lp_Variant>
AV-unprocessed.smi:492-4

> <Gold.Version>
5.8.1

> <Gold.Id.Protein>
6NUR|6NUR_protein|mol2

> <Gold.PLP.Fitness>
53.4331

> <Gold.PLP.PLP>
-48.2591

> <Gold.PLP.part.hbond>
-2.1099

> <Gold.PLP.part.metal>
0.0000

> <Gold.PLP.part.buried>
-5.2744

> <Gold.PLP.part.nonpolar>
-41.1015

> <Gold.PLP.part.repulsive>
0.0788

> <Gold.PLP.ligand.clash>
0.0000

> <Gold.PLP.ligand.torsion>
0.5164

> <Gold.PLP.Chemscore.Hbond>
2.0000

> <Gold.PLP.Chemscore.CHOScore>
0.0000

> <Gold.PLP.Chemscore.Metal>
0.0000

> <Gold.Chemscore.Hbonds>
donor molecule, donor type, donor heavy atom, donor atom, acceptor molecule, acceptor atom, score
      L1  H    16    47       P1  8028  2.00

> <Gold.PLP.Chemscore.Internal.Correction>
0.2069

> <Gold.Rescore>
     Score         DG    S(hbond)    S(metal)    S(lipo)     H(rot)  DE(clash)    DE(int)     intcor
     17.69     -18.23       1.00        0.00     135.22       2.50       0.05       0.49       ----

> <Gold.Chemscore.Fitness>
17.6943

> <Gold.Chemscore.DG>
-18.2310

> <Gold.Chemscore.ZeroCoef>
-5.4800

> <Gold.Chemscore.Hbond>
1.0000

> <Gold.Chemscore.Metal>
0.0000

> <Gold.Chemscore.Lipo>
135.2199

> <Gold.Chemscore.Internal_Hbond>
0.0000

> <Gold.Chemscore.DEClash>
0.0456

> <Gold.Chemscore.DEInternal>
0.4911

> <Gold.Chemscore.Rot>
2.5038

> <Gold.Chemscore.Internal.Correction>
   9.000000E+99

> <Gold.Chemscore.Hbonds>
donor molecule, donor type, donor heavy atom, donor atom, acceptor molecule, acceptor atom, score
      L1  H    16    47       P1  8028  0.98

> <Gold.Chemscore.Hbond.Weighted>
-3.3400

> <Gold.Chemscore.Metal.Weighted>
-0.0000

> <Gold.Chemscore.Lipo.Weighted>
-15.8207

> <Gold.Chemscore.Internal_Hbond.Weighted>
0.0000

> <Gold.Chemscore.DEClash.Weighted>
0.0456

> <Gold.Chemscore.DEInternal.Weighted>
0.4911

> <Gold.Chemscore.Rot.Weighted>
6.4098

> <Gold.Chemscore.Internal.Correction.Weighted>
   9.000000E+99

> <Gold.Protein.RotatedTorsions>
[ 6907 6896 6895 6894 ] final   21.67 input  -60.11 | X-H torsion
[ 7974 7965 7964 7962 ] final  139.79 input  175.53 | X-H torsion
[ 8008 7997 7996 7995 ] final   44.56 input   59.86 | X-H torsion
[ 10167 10162 10161 10158 ] final  110.27 input  -65.29 | X-H torsion
[ 10718 10713 10712 10709 ] final  -74.71 input   66.30 | X-H torsion
[ 10763 10752 10751 10750 ] final -142.74 input  -60.55 | X-H torsion
[ 11005 11000 10999 10996 ] final  -71.04 input  -57.11 | X-H torsion

> <Gold.Protein.ActiveResidues>
 VAL166  LYS551  ARG553  GLY616  TRP617  ASP618  TYR619  PRO620  LYS621  CYS622 
 ASP623  PHE694  ASN695  SER759  ASP760  ASP761  ALA762  ILE779  LEU786  VAL792 
 PHE793  MET794  SER795  GLU796  ALA797  LYS798  CYS799  TRP800  GLU811  SER814 

> <Gold.Protein.RotatedAtoms>
  151.9153  135.0321  160.0517 H   0  0  0  0  0  0  0  0  0  0  0  0  # atno 6907 bound_to 6896
  152.2245  133.5005  159.5189 H   0  0  0  0  0  0  0  0  0  0  0  0  # atno 6908 bound_to 6896
  150.7008  134.1215  159.4079 H   0  0  0  0  0  0  0  0  0  0  0  0  # atno 6909 bound_to 6896
  144.9246  139.5124  143.5647 H   0  0  0  0  0  0  0  0  0  0  0  0  # atno 7974 bound_to 7965
  155.3213  140.3397  155.4241 H   0  0  0  0  0  0  0  0  0  0  0  0  # atno 8008 bound_to 7997
  156.1908  140.1697  156.8134 H   0  0  0  0  0  0  0  0  0  0  0  0  # atno 8009 bound_to 7997
  154.5439  140.0719  156.8540 H   0  0  0  0  0  0  0  0  0  0  0  0  # atno 8010 bound_to 7997
  139.6701  144.7125  151.1703 H   0  0  0  0  0  0  0  0  0  0  0  0  # atno 10167 bound_to 10162
  156.0233  130.4423  150.2934 H   0  0  0  0  0  0  0  0  0  0  0  0  # atno 10718 bound_to 10713
  154.8497  135.3487  154.6076 H   0  0  0  0  0  0  0  0  0  0  0  0  # atno 10763 bound_to 10752
  153.6685  135.6986  153.5159 H   0  0  0  0  0  0  0  0  0  0  0  0  # atno 10764 bound_to 10752
  153.2761  135.4278  155.0991 H   0  0  0  0  0  0  0  0  0  0  0  0  # atno 10765 bound_to 10752
  141.1585  133.6806  156.6845 H   0  0  0  0  0  0  0  0  0  0  0  0  # atno 11005 bound_to 11000
  146.3220  139.8151  142.8938 LP  0  0  0  0  0  0  0  0  0  0  0  0  # atno 17320 bound_to 7965
  145.3240  141.0251  143.3484 LP  0  0  0  0  0  0  0  0  0  0  0  0  # atno 17321 bound_to 7965
  140.7615  143.5857  150.8848 LP  0  0  0  0  0  0  0  0  0  0  0  0  # atno 17342 bound_to 10162
  139.9522  143.6259  152.3026 LP  0  0  0  0  0  0  0  0  0  0  0  0  # atno 17343 bound_to 10162
  157.1037  131.0202  151.3075 LP  0  0  0  0  0  0  0  0  0  0  0  0  # atno 17370 bound_to 10713
  157.4759  130.7736  149.7368 LP  0  0  0  0  0  0  0  0  0  0  0  0  # atno 17371 bound_to 10713
  140.3077  134.8112  157.4150 LP  0  0  0  0  0  0  0  0  0  0  0  0  # atno 17394 bound_to 11000
  140.1206  134.5225  155.8187 LP  0  0  0  0  0  0  0  0  0  0  0  0  # atno 17395 bound_to 11000

$$$$
