AV-unprocessed.smi:1560|AV-procd|sdf|6278|dock5
  -GOLD-   22720 6473D 1   1.00000     0.00000
 Structure written by MMmdl.
 48 49  0  0  0  0  0  0  0  0  2 V2000
  146.9621  139.6470  152.8274 C   0  0  0  0  0  0  0  0  0  0  0  0
  146.5583  138.3268  152.1473 C   0  0  0  0  0  0  0  0  0  0  0  0
  146.0510  137.2047  153.1044 C   0  0  2  0  0  0  0  0  0  0  0  0
  144.5888  137.5508  153.4924 C   0  0  0  0  0  0  0  0  0  0  0  0
  146.9269  137.1962  154.3925 C   0  0  0  0  0  0  0  0  0  0  0  0
  148.3574  137.1394  154.1059 N   0  0  0  0  0  0  0  0  0  0  0  0
  149.2459  138.0680  154.4867 C   0  0  0  0  0  0  0  0  0  0  0  0
  148.9321  139.0727  155.1269 O   0  0  0  0  0  0  0  0  0  0  0  0
  150.7074  137.8002  154.0981 C   0  0  0  0  0  0  0  0  0  0  0  0
  151.5622  137.4661  155.2468 N   0  0  0  0  0  0  0  0  0  0  0  0
  151.2665  136.3682  156.0424 C   0  0  0  0  0  0  0  0  0  0  0  0
  152.0037  136.0073  157.1194 C   0  0  0  0  0  0  0  0  0  0  0  0
  153.1790  136.7818  157.5030 C   0  0  0  0  0  0  0  0  0  0  0  0
  153.9110  136.5340  158.4588 O   0  0  0  0  0  0  0  0  0  0  0  0
  153.4418  137.8805  156.6803 N   0  0  0  0  0  0  0  0  0  0  0  0
  152.6843  138.2596  155.5708 C   0  0  0  0  0  0  0  0  0  0  0  0
  153.0006  139.2520  154.9157 O   0  0  0  0  0  0  0  0  0  0  0  0
  146.1066  135.8654  152.4111 N   0  3  0  0  0  0  0  0  0  0  0  0
  146.1002  134.6706  153.3027 C   0  0  0  0  0  0  0  0  0  0  0  0
  146.3734  133.3934  152.4925 C   0  0  0  0  0  0  0  0  0  0  0  0
  145.3886  133.2574  151.4780 O   0  0  0  0  0  0  0  0  0  0  0  0
  145.4239  134.3429  150.5626 C   0  0  0  0  0  0  0  0  0  0  0  0
  145.1330  135.6611  151.3009 C   0  0  0  0  0  0  0  0  0  0  0  0
  154.2445  138.4486  156.9089 H   0  0  0  0  0  0  0  0  0  0  0  0
  147.3055  140.3670  152.0844 H   0  0  0  0  0  0  0  0  0  0  0  0
  147.7756  139.5048  153.5383 H   0  0  0  0  0  0  0  0  0  0  0  0
  146.1268  140.1042  153.3575 H   0  0  0  0  0  0  0  0  0  0  0  0
  145.8149  138.5386  151.3792 H   0  0  0  0  0  0  0  0  0  0  0  0
  147.4245  137.9682  151.5897 H   0  0  0  0  0  0  0  0  0  0  0  0
  144.4828  138.5974  153.7798 H   0  0  0  0  0  0  0  0  0  0  0  0
  144.2423  136.9649  154.3440 H   0  0  0  0  0  0  0  0  0  0  0  0
  143.8977  137.3738  152.6678 H   0  0  0  0  0  0  0  0  0  0  0  0
  146.7444  138.0880  154.9926 H   0  0  0  0  0  0  0  0  0  0  0  0
  146.6767  136.3394  155.0188 H   0  0  0  0  0  0  0  0  0  0  0  0
  148.6933  136.3431  153.5834 H   0  0  0  0  0  0  0  0  0  0  0  0
  150.7217  136.9867  153.3711 H   0  0  0  0  0  0  0  0  0  0  0  0
  151.1086  138.6660  153.5670 H   0  0  0  0  0  0  0  0  0  0  0  0
  150.4017  135.7674  155.7982 H   0  0  0  0  0  0  0  0  0  0  0  0
  151.7213  135.1414  157.7007 H   0  0  0  0  0  0  0  0  0  0  0  0
  146.8576  134.7450  154.0803 H   0  0  0  0  0  0  0  0  0  0  0  0
  145.1356  134.5735  153.8013 H   0  0  0  0  0  0  0  0  0  0  0  0
  147.3719  133.4149  152.0529 H   0  0  0  0  0  0  0  0  0  0  0  0
  146.3307  132.5198  153.1432 H   0  0  0  0  0  0  0  0  0  0  0  0
  146.3936  134.3823  150.0635 H   0  0  0  0  0  0  0  0  0  0  0  0
  144.6754  134.1744  149.7881 H   0  0  0  0  0  0  0  0  0  0  0  0
  144.1151  135.6434  151.6907 H   0  0  0  0  0  0  0  0  0  0  0  0
  145.1837  136.4635  150.5677 H   0  0  0  0  0  0  0  0  0  0  0  0
  147.0126  135.8544  151.9648 H   0  0  0  0  0  0  0  0  0  0  0  0
  1  2  1  0  0  0  0
  1 25  1  0  0  0  0
  1 26  1  0  0  0  0
  1 27  1  0  0  0  0
  2  3  1  0  0  0  0
  2 28  1  0  0  0  0
  2 29  1  0  0  0  0
  3  4  1  0  0  0  0
  3  5  1  0  0  0  0
  3 18  1  0  0  0  0
  4 30  1  0  0  0  0
  4 31  1  0  0  0  0
  4 32  1  0  0  0  0
  5  6  1  0  0  0  0
  5 33  1  0  0  0  0
  5 34  1  0  0  0  0
  6  7  1  0  0  0  0
  6 35  1  0  0  0  0
  7  8  2  0  0  0  0
  7  9  1  0  0  0  0
  9 10  1  0  0  0  0
  9 36  1  0  0  0  0
  9 37  1  0  0  0  0
 10 16  1  0  0  0  0
 10 11  1  0  0  0  0
 11 12  2  0  0  0  0
 11 38  1  0  0  0  0
 12 13  1  0  0  0  0
 12 39  1  0  0  0  0
 13 14  2  0  0  0  0
 13 15  1  0  0  0  0
 15 24  1  0  0  0  0
 15 16  1  0  0  0  0
 16 17  2  0  0  0  0
 18 23  1  0  0  0  0
 18 19  1  0  0  0  0
 18 48  1  0  0  0  0
 19 20  1  0  0  0  0
 19 40  1  0  0  0  0
 19 41  1  0  0  0  0
 20 21  1  0  0  0  0
 20 42  1  0  0  0  0
 20 43  1  0  0  0  0
 21 22  1  0  0  0  0
 22 23  1  0  0  0  0
 22 44  1  0  0  0  0
 22 45  1  0  0  0  0
 23 46  1  0  0  0  0
 23 47  1  0  0  0  0
M  CHG  1  18   1
M  END
> <s_m_source_file>
AV-unprocessed.smi

> <i_m_source_file_index>
1560

> <i_lp_mmshare_version>
43012

> <i_f3d_flags>
0

> <s_epik_input>
W0NIMl0xW0NIMl1PW0NIMl1bQ0gyXU4xW0NAQF0oW0NIM10pKFtDSDJdW0NIM10pW0NIMl1bTkhdQyg9TylbQ0gyXW4yW2NIXVtjSF1jKD1PKVtuSF1jMj1P

> <s_epik_cmdline>
J2VwaWtfcHl0aG9uJywgJy1waCcsICc3LjAnLCAnLXRuJywgJzgnLCAnLW1hJywgJzIwMCcsICctbWV0YWxfYmluZGluZycsICctaW1hZScsICc8aW5maWxlLm1hZT4nLCAnLW9tYWUnLCAnPG91dGZpbGUubWFlPic=

> <r_lp_tautomer_probability>
0.999537

> <r_epik_Ionization_Penalty>
0.523885

> <r_epik_Ionization_Penalty_Charging>
0.523885

> <r_epik_Ionization_Penalty_Neutral>
8.70177e-08

> <r_epik_State_Penalty>
0.572334

> <r_epik_Charging_Adjusted_Penalty>
1.09622

> <i_epik_Tot_Q>
1

> <i_epik_Tot_abs_Q>
1

> <r_epik_Metal_State_Penalty>
0.938906

> <b_epik_Metal_Only>
0

> <s_lp_Force_Field>
OPLS_2005

> <r_lp_Energy>
29.9369

> <b_lp_Chiralities_Consistent>
1

> <s_lp_Variant>
AV-unprocessed.smi:1560-4

> <Gold.Version>
5.8.1

> <Gold.Id.Protein>
6NUR|6NUR_protein|mol2

> <Gold.PLP.Fitness>
40.5256

> <Gold.PLP.PLP>
-29.9182

> <Gold.PLP.part.hbond>
-3.9945

> <Gold.PLP.part.metal>
0.0000

> <Gold.PLP.part.buried>
-2.2973

> <Gold.PLP.part.nonpolar>
-26.2709

> <Gold.PLP.part.repulsive>
1.5971

> <Gold.PLP.ligand.clash>
0.0000

> <Gold.PLP.ligand.torsion>
0.7864

> <Gold.PLP.Chemscore.Hbond>
3.9779

> <Gold.PLP.Chemscore.CHOScore>
0.0000

> <Gold.PLP.Chemscore.Metal>
0.0000

> <Gold.Chemscore.Hbonds>
donor molecule, donor type, donor heavy atom, donor atom, acceptor molecule, acceptor atom, score
      L1  H     6    35       P1  7948  0.56
      L1  H    18    48       P1  7948  2.00
      P1  H  7997  8010       L1    17  1.00

> <Gold.PLP.Chemscore.Internal.Correction>
0.2464

> <Gold.Rescore>
     Score         DG    S(hbond)    S(metal)    S(lipo)     H(rot)  DE(clash)    DE(int)     intcor
     12.50     -15.04       2.75        0.00      59.27       2.56       1.66       0.88       ----

> <Gold.Chemscore.Fitness>
12.5005

> <Gold.Chemscore.DG>
-15.0444

> <Gold.Chemscore.ZeroCoef>
-5.4800

> <Gold.Chemscore.Hbond>
2.7520

> <Gold.Chemscore.Metal>
0.0000

> <Gold.Chemscore.Lipo>
59.2750

> <Gold.Chemscore.Internal_Hbond>
0.0000

> <Gold.Chemscore.DEClash>
1.6601

> <Gold.Chemscore.DEInternal>
0.8838

> <Gold.Chemscore.Rot>
2.5634

> <Gold.Chemscore.Internal.Correction>
   9.000000E+99

> <Gold.Chemscore.Hbonds>
donor molecule, donor type, donor heavy atom, donor atom, acceptor molecule, acceptor atom, score
      L1  H     6    35       P1  7948  0.56
      L1  H    18    48       P1  7948  0.97
      P1  H  7989  7998       L1    17  0.01
      P1  H  7997  8010       L1    17  0.68

> <Gold.Chemscore.Hbond.Weighted>
-9.1916

> <Gold.Chemscore.Metal.Weighted>
-0.0000

> <Gold.Chemscore.Lipo.Weighted>
-6.9352

> <Gold.Chemscore.Internal_Hbond.Weighted>
0.0000

> <Gold.Chemscore.DEClash.Weighted>
1.6601

> <Gold.Chemscore.DEInternal.Weighted>
0.8838

> <Gold.Chemscore.Rot.Weighted>
6.5624

> <Gold.Chemscore.Internal.Correction.Weighted>
   9.000000E+99

> <Gold.Protein.RotatedTorsions>
[ 6907 6896 6895 6894 ] final -158.26 input  -60.11 | X-H torsion
[ 7974 7965 7964 7962 ] final -153.81 input  175.53 | X-H torsion
[ 8008 7997 7996 7995 ] final  106.77 input   59.86 | X-H torsion
[ 10167 10162 10161 10158 ] final   90.41 input  -65.29 | X-H torsion
[ 10718 10713 10712 10709 ] final -132.07 input   66.30 | X-H torsion
[ 10763 10752 10751 10750 ] final   90.66 input  -60.55 | X-H torsion
[ 11005 11000 10999 10996 ] final  -87.22 input  -57.11 | X-H torsion

> <Gold.Protein.ActiveResidues>
 VAL166  LYS551  ARG553  GLY616  TRP617  ASP618  TYR619  PRO620  LYS621  CYS622 
 ASP623  PHE694  ASN695  SER759  ASP760  ASP761  ALA762  ILE779  LEU786  VAL792 
 PHE793  MET794  SER795  GLU796  ALA797  LYS798  CYS799  TRP800  GLU811  SER814 

> <Gold.Protein.RotatedAtoms>
  151.3154  133.4062  159.2649 H   0  0  0  0  0  0  0  0  0  0  0  0  # atno 6907 bound_to 6896
  151.0079  134.9374  159.8001 H   0  0  0  0  0  0  0  0  0  0  0  0  # atno 6908 bound_to 6896
  152.5293  134.3119  159.9169 H   0  0  0  0  0  0  0  0  0  0  0  0  # atno 6909 bound_to 6896
  144.7721  140.4475  143.5899 H   0  0  0  0  0  0  0  0  0  0  0  0  # atno 7974 bound_to 7965
  156.1770  140.3107  155.9077 H   0  0  0  0  0  0  0  0  0  0  0  0  # atno 8008 bound_to 7997
  155.3467  140.0469  157.3062 H   0  0  0  0  0  0  0  0  0  0  0  0  # atno 8009 bound_to 7997
  154.5301  140.2227  155.8830 H   0  0  0  0  0  0  0  0  0  0  0  0  # atno 8010 bound_to 7997
  139.8476  144.6610  150.9208 H   0  0  0  0  0  0  0  0  0  0  0  0  # atno 10167 bound_to 10162
  156.2308  130.7036  151.0857 H   0  0  0  0  0  0  0  0  0  0  0  0  # atno 10718 bound_to 10713
  153.2000  135.4425  155.0254 H   0  0  0  0  0  0  0  0  0  0  0  0  # atno 10763 bound_to 10752
  154.8141  135.3307  154.7227 H   0  0  0  0  0  0  0  0  0  0  0  0  # atno 10764 bound_to 10752
  153.7673  135.6987  153.4969 H   0  0  0  0  0  0  0  0  0  0  0  0  # atno 10765 bound_to 10752
  141.1620  133.7499  156.9275 H   0  0  0  0  0  0  0  0  0  0  0  0  # atno 11005 bound_to 11000
  145.6292  139.1534  143.2978 LP  0  0  0  0  0  0  0  0  0  0  0  0  # atno 17320 bound_to 7965
  146.1876  140.6397  142.9160 LP  0  0  0  0  0  0  0  0  0  0  0  0  # atno 17321 bound_to 7965
  140.7791  143.3856  151.1399 LP  0  0  0  0  0  0  0  0  0  0  0  0  # atno 17342 bound_to 10162
  139.7497  143.8797  152.3073 LP  0  0  0  0  0  0  0  0  0  0  0  0  # atno 17343 bound_to 10162
  157.7132  131.0723  150.6424 LP  0  0  0  0  0  0  0  0  0  0  0  0  # atno 17370 bound_to 10713
  156.6491  130.4480  149.5725 LP  0  0  0  0  0  0  0  0  0  0  0  0  # atno 17371 bound_to 10713
  140.1409  134.9294  157.2465 LP  0  0  0  0  0  0  0  0  0  0  0  0  # atno 17394 bound_to 11000
  140.2838  134.3319  155.7335 LP  0  0  0  0  0  0  0  0  0  0  0  0  # atno 17395 bound_to 11000

$$$$
