AV-unprocessed.smi:2324|AV-procd|sdf|9293|dock6
  -GOLD-   2272012513D 1   1.00000     0.00000
 Structure written by MMmdl.
 37 39  0  0  0  0  0  0  0  0  1 V2000
  150.8526  140.8007  156.4162 O   0  0  0  0  0  0  0  0  0  0  0  0
  150.2844  141.8795  156.2555 C   0  0  0  0  0  0  0  0  0  0  0  0
  150.5585  142.9335  157.0537 N   0  0  0  0  0  0  0  0  0  0  0  0
  151.4511  143.0787  158.1560 C   0  0  0  0  0  0  0  0  0  0  0  0
  151.4268  144.3487  158.7713 C   0  0  0  0  0  0  0  0  0  0  0  0
  152.2778  144.5800  159.8653 C   0  0  0  0  0  0  0  0  0  0  0  0
  153.1028  143.5186  160.2738 C   0  0  0  0  0  0  0  0  0  0  0  0
  153.0956  142.3176  159.6568 N   0  0  0  0  0  0  0  0  0  0  0  0
  152.2830  142.1067  158.6164 N   0  0  0  0  0  0  0  0  0  0  0  0
  149.3728  142.0824  155.2898 N   0  0  0  0  0  0  0  0  0  0  0  0
  148.9355  141.0908  154.3126 C   0  0  2  0  0  0  0  0  0  0  0  0
  147.6097  141.5141  153.6581 C   0  0  0  0  0  0  0  0  0  0  0  0
  147.0671  140.3936  152.7572 C   0  0  0  0  0  0  0  0  0  0  0  0
  146.9222  139.1923  153.5071 O   0  0  0  0  0  0  0  0  0  0  0  0
  148.1558  138.7002  154.0216 C   0  0  2  0  0  0  0  0  0  0  0  0
  147.8865  137.3694  154.6953 C   0  0  0  0  0  0  0  0  0  0  0  0
  147.6236  137.2949  156.1814 C   0  0  0  0  0  0  0  0  0  0  0  0
  148.9117  136.7474  155.6146 C   0  0  0  0  0  0  0  0  0  0  0  0
  148.7510  139.7300  155.0001 C   0  0  0  0  0  0  0  0  0  0  0  0
  150.0354  143.7677  156.8316 H   0  0  0  0  0  0  0  0  0  0  0  0
  150.7715  145.1307  158.4156 H   0  0  0  0  0  0  0  0  0  0  0  0
  152.2971  145.5338  160.3714 H   0  0  0  0  0  0  0  0  0  0  0  0
  153.7788  143.6329  161.1081 H   0  0  0  0  0  0  0  0  0  0  0  0
  148.9516  142.9986  155.2267 H   0  0  0  0  0  0  0  0  0  0  0  0
  149.6988  140.9838  153.5396 H   0  0  0  0  0  0  0  0  0  0  0  0
  146.8720  141.7418  154.4289 H   0  0  0  0  0  0  0  0  0  0  0  0
  147.7446  142.4264  153.0760 H   0  0  0  0  0  0  0  0  0  0  0  0
  146.0942  140.6756  152.3546 H   0  0  0  0  0  0  0  0  0  0  0  0
  147.7267  140.2258  151.9045 H   0  0  0  0  0  0  0  0  0  0  0  0
  148.8490  138.5359  153.1943 H   0  0  0  0  0  0  0  0  0  0  0  0
  147.3203  136.6736  154.0788 H   0  0  0  0  0  0  0  0  0  0  0  0
  147.6803  138.2187  156.7541 H   0  0  0  0  0  0  0  0  0  0  0  0
  146.8790  136.5792  156.5234 H   0  0  0  0  0  0  0  0  0  0  0  0
  149.0268  135.6661  155.5794 H   0  0  0  0  0  0  0  0  0  0  0  0
  149.8243  137.3073  155.8091 H   0  0  0  0  0  0  0  0  0  0  0  0
  149.7065  139.3722  155.3855 H   0  0  0  0  0  0  0  0  0  0  0  0
  148.0882  139.8379  155.8604 H   0  0  0  0  0  0  0  0  0  0  0  0
  1  2  2  0  0  0  0
  2  3  1  0  0  0  0
  2 10  1  0  0  0  0
  3  4  1  0  0  0  0
  3 20  1  0  0  0  0
  4  9  1  0  0  0  0
  4  5  2  0  0  0  0
  5  6  1  0  0  0  0
  5 21  1  0  0  0  0
  6  7  2  0  0  0  0
  6 22  1  0  0  0  0
  7  8  1  0  0  0  0
  7 23  1  0  0  0  0
  8  9  2  0  0  0  0
 10 11  1  0  0  0  0
 10 24  1  0  0  0  0
 11 19  1  0  0  0  0
 11 12  1  0  0  0  0
 11 25  1  0  0  0  0
 12 13  1  0  0  0  0
 12 26  1  0  0  0  0
 12 27  1  0  0  0  0
 13 14  1  0  0  0  0
 13 28  1  0  0  0  0
 13 29  1  0  0  0  0
 14 15  1  0  0  0  0
 15 16  1  0  0  0  0
 15 19  1  0  0  0  0
 15 30  1  0  0  0  0
 16 18  1  0  0  0  0
 16 17  1  0  0  0  0
 16 31  1  0  0  0  0
 17 18  1  0  0  0  0
 17 32  1  0  0  0  0
 17 33  1  0  0  0  0
 18 34  1  0  0  0  0
 18 35  1  0  0  0  0
 19 36  1  0  0  0  0
 19 37  1  0  0  0  0
M  END
> <s_m_source_file>
AV-unprocessed.smi

> <i_m_source_file_index>
2324

> <i_lp_mmshare_version>
43012

> <i_f3d_flags>
0

> <s_epik_input>
bjFuW2NIXVtjSF1bY0hdYzFbTkhdQyg9TylbTkhdW0NAQEhdMltDSDJdW0NIMl1PW0NASF0oW0NIMl0yKVtDSF0zW0NIMl1bQ0gyXTM=

> <s_epik_cmdline>
J2VwaWtfcHl0aG9uJywgJy1waCcsICc3LjAnLCAnLXRuJywgJzgnLCAnLW1hJywgJzIwMCcsICctbWV0YWxfYmluZGluZycsICctaW1hZScsICc8aW5maWxlLm1hZT4nLCAnLW9tYWUnLCAnPG91dGZpbGUubWFlPic=

> <r_lp_tautomer_probability>
1

> <r_epik_Ionization_Penalty>
0.00521499

> <r_epik_Ionization_Penalty_Charging>
0

> <r_epik_Ionization_Penalty_Neutral>
0.00521499

> <r_epik_State_Penalty>
-0

> <r_epik_Charging_Adjusted_Penalty>
0

> <i_epik_Tot_Q>
0

> <i_epik_Tot_abs_Q>
0

> <r_epik_Metal_State_Penalty>
-0

> <b_epik_Metal_Only>
0

> <s_lp_Force_Field>
OPLS_2005

> <r_lp_Energy>
26.0154

> <b_lp_Chiralities_Consistent>
1

> <s_lp_Variant>
AV-unprocessed.smi:2324-3

> <Gold.Version>
5.8.1

> <Gold.Id.Protein>
6NUR|6NUR_protein|mol2

> <Gold.PLP.Fitness>
35.9493

> <Gold.PLP.PLP>
-30.4861

> <Gold.PLP.part.hbond>
-2.0000

> <Gold.PLP.part.metal>
0.0000

> <Gold.PLP.part.buried>
-4.8295

> <Gold.PLP.part.nonpolar>
-23.9865

> <Gold.PLP.part.repulsive>
0.4346

> <Gold.PLP.ligand.clash>
0.0000

> <Gold.PLP.ligand.torsion>
0.8043

> <Gold.PLP.Chemscore.Hbond>
2.0000

> <Gold.PLP.Chemscore.CHOScore>
0.0000

> <Gold.PLP.Chemscore.Metal>
0.0000

> <Gold.Chemscore.Hbonds>
donor molecule, donor type, donor heavy atom, donor atom, acceptor molecule, acceptor atom, score
      L1  H     3    20       P1  8028  1.00
      L1  H    10    24       P1  8028  1.00

> <Gold.PLP.Chemscore.Internal.Correction>
1.0719

> <Gold.Rescore>
     Score         DG    S(hbond)    S(metal)    S(lipo)     H(rot)  DE(clash)    DE(int)     intcor
     13.88     -17.60       1.94        0.00      75.62       1.25       0.27       3.45       ----

> <Gold.Chemscore.Fitness>
13.8811

> <Gold.Chemscore.DG>
-17.5999

> <Gold.Chemscore.ZeroCoef>
-5.4800

> <Gold.Chemscore.Hbond>
1.9359

> <Gold.Chemscore.Metal>
0.0000

> <Gold.Chemscore.Lipo>
75.6221

> <Gold.Chemscore.Internal_Hbond>
0.0000

> <Gold.Chemscore.DEClash>
0.2714

> <Gold.Chemscore.DEInternal>
3.4474

> <Gold.Chemscore.Rot>
1.2476

> <Gold.Chemscore.Internal.Correction>
   9.000000E+99

> <Gold.Chemscore.Hbonds>
donor molecule, donor type, donor heavy atom, donor atom, acceptor molecule, acceptor atom, score
      L1  H     3    20       P1  8028  0.95
      L1  H    10    24       P1  8028  0.97

> <Gold.Chemscore.Hbond.Weighted>
-6.4659

> <Gold.Chemscore.Metal.Weighted>
-0.0000

> <Gold.Chemscore.Lipo.Weighted>
-8.8478

> <Gold.Chemscore.Internal_Hbond.Weighted>
0.0000

> <Gold.Chemscore.DEClash.Weighted>
0.2714

> <Gold.Chemscore.DEInternal.Weighted>
3.4474

> <Gold.Chemscore.Rot.Weighted>
3.1938

> <Gold.Chemscore.Internal.Correction.Weighted>
   9.000000E+99

> <Gold.Protein.RotatedTorsions>
[ 6907 6896 6895 6894 ] final -135.42 input  -60.11 | X-H torsion
[ 7974 7965 7964 7962 ] final   51.61 input  175.53 | X-H torsion
[ 8008 7997 7996 7995 ] final   51.93 input   59.86 | X-H torsion
[ 10167 10162 10161 10158 ] final  139.34 input  -65.29 | X-H torsion
[ 10718 10713 10712 10709 ] final   -8.58 input   66.30 | X-H torsion
[ 10763 10752 10751 10750 ] final  107.98 input  -60.55 | X-H torsion
[ 11005 11000 10999 10996 ] final   60.23 input  -57.11 | X-H torsion

> <Gold.Protein.ActiveResidues>
 VAL166  LYS551  ARG553  GLY616  TRP617  ASP618  TYR619  PRO620  LYS621  CYS622 
 ASP623  PHE694  ASN695  SER759  ASP760  ASP761  ALA762  ILE779  LEU786  VAL792 
 PHE793  MET794  SER795  GLU796  ALA797  LYS798  CYS799  TRP800  GLU811  SER814 

> <Gold.Protein.RotatedAtoms>
  150.9977  133.6087  159.2699 H   0  0  0  0  0  0  0  0  0  0  0  0  # atno 6907 bound_to 6896
  151.3284  135.0835  159.9340 H   0  0  0  0  0  0  0  0  0  0  0  0  # atno 6908 bound_to 6896
  152.5265  133.9611  159.7772 H   0  0  0  0  0  0  0  0  0  0  0  0  # atno 6909 bound_to 6896
  145.9896  139.4325  143.0082 H   0  0  0  0  0  0  0  0  0  0  0  0  # atno 7974 bound_to 7965
  155.4435  140.3455  155.4292 H   0  0  0  0  0  0  0  0  0  0  0  0  # atno 8008 bound_to 7997
  156.1264  140.1501  156.9160 H   0  0  0  0  0  0  0  0  0  0  0  0  # atno 8009 bound_to 7997
  154.4861  140.0855  156.7470 H   0  0  0  0  0  0  0  0  0  0  0  0  # atno 8010 bound_to 7997
  139.5082  144.6300  151.5840 H   0  0  0  0  0  0  0  0  0  0  0  0  # atno 10167 bound_to 10162
  156.7005  130.5092  149.5918 H   0  0  0  0  0  0  0  0  0  0  0  0  # atno 10718 bound_to 10713
  153.4142  135.3827  155.2070 H   0  0  0  0  0  0  0  0  0  0  0  0  # atno 10763 bound_to 10752
  154.8740  135.3801  154.4463 H   0  0  0  0  0  0  0  0  0  0  0  0  # atno 10764 bound_to 10752
  153.4975  135.7088  153.5912 H   0  0  0  0  0  0  0  0  0  0  0  0  # atno 10765 bound_to 10752
  140.0246  134.6101  155.9590 H   0  0  0  0  0  0  0  0  0  0  0  0  # atno 11005 bound_to 11000
  145.7650  140.9920  143.1180 LP  0  0  0  0  0  0  0  0  0  0  0  0  # atno 17320 bound_to 7965
  144.6885  139.9377  143.7474 LP  0  0  0  0  0  0  0  0  0  0  0  0  # atno 17321 bound_to 7965
  140.6030  143.9575  150.6399 LP  0  0  0  0  0  0  0  0  0  0  0  0  # atno 17342 bound_to 10162
  140.2793  143.3401  152.1166 LP  0  0  0  0  0  0  0  0  0  0  0  0  # atno 17343 bound_to 10162
  156.1732  130.6451  151.0863 LP  0  0  0  0  0  0  0  0  0  0  0  0  # atno 17370 bound_to 10713
  157.6975  131.0788  150.6924 LP  0  0  0  0  0  0  0  0  0  0  0  0  # atno 17371 bound_to 10713
  141.1795  133.6544  156.4962 LP  0  0  0  0  0  0  0  0  0  0  0  0  # atno 17394 bound_to 11000
  140.4328  134.7086  157.4951 LP  0  0  0  0  0  0  0  0  0  0  0  0  # atno 17395 bound_to 11000

$$$$
