AV-unprocessed.smi:3117|AV-procd|sdf|11882|dock7
  -GOLD-   2272017273D 1   1.00000     0.00000
 Structure written by MMmdl.
 36 36  0  0  0  0  0  0  0  0  1 V2000
  149.7175  141.1311  157.7993 C   0  0  0  0  0  0  0  0  0  0  0  0
  150.7972  141.6932  156.8577 C   0  0  2  0  0  0  0  0  0  0  0  0
  150.6873  143.1573  156.8817 N   0  0  0  0  0  0  0  0  0  0  0  0
  150.8500  143.7867  158.1957 C   0  0  0  0  0  0  0  0  0  0  0  0
  152.3171  144.1677  158.4865 C   0  0  0  0  0  0  0  0  0  0  0  0
  152.9887  144.6705  157.1979 C   0  0  0  0  0  0  0  0  0  0  0  0
  152.4473  145.2261  159.5986 C   0  0  0  0  0  0  0  0  0  0  0  0
  153.0163  143.0008  158.8747 O   0  0  0  0  0  0  0  0  0  0  0  0
  150.6660  141.1243  155.4111 C   0  0  2  0  0  0  0  0  0  0  0  0
  149.2363  141.2196  154.8408 C   0  0  0  0  0  0  0  0  0  0  0  0
  151.1401  139.7502  155.3019 N   0  0  0  0  0  0  0  0  0  0  0  0
  150.4577  138.6505  154.8224 C   0  0  0  0  0  0  0  0  0  0  0  0
  151.3022  137.5801  154.8970 C   0  0  0  0  0  0  0  0  0  0  0  0
  152.4958  138.1290  155.4427 C   0  0  0  0  0  0  0  0  0  0  0  0
  152.3977  139.4264  155.6824 N   0  0  0  0  0  0  0  0  0  0  0  0
  149.8337  140.0586  157.9537 H   0  0  0  0  0  0  0  0  0  0  0  0
  148.7147  141.3098  157.4097 H   0  0  0  0  0  0  0  0  0  0  0  0
  149.7780  141.5956  158.7841 H   0  0  0  0  0  0  0  0  0  0  0  0
  151.7619  141.3965  157.2720 H   0  0  0  0  0  0  0  0  0  0  0  0
  149.7883  143.4347  156.4998 H   0  0  0  0  0  0  0  0  0  0  0  0
  150.2208  144.6757  158.2575 H   0  0  0  0  0  0  0  0  0  0  0  0
  150.5081  143.1228  158.9853 H   0  0  0  0  0  0  0  0  0  0  0  0
  152.5031  145.5749  156.8292 H   0  0  0  0  0  0  0  0  0  0  0  0
  152.9377  143.9238  156.4040 H   0  0  0  0  0  0  0  0  0  0  0  0
  154.0411  144.9064  157.3606 H   0  0  0  0  0  0  0  0  0  0  0  0
  151.8969  146.1321  159.3423 H   0  0  0  0  0  0  0  0  0  0  0  0
  153.4888  145.5073  159.7580 H   0  0  0  0  0  0  0  0  0  0  0  0
  152.0613  144.8651  160.5524 H   0  0  0  0  0  0  0  0  0  0  0  0
  153.9154  143.0831  158.5958 H   0  0  0  0  0  0  0  0  0  0  0  0
  151.3031  141.7258  154.7604 H   0  0  0  0  0  0  0  0  0  0  0  0
  148.9286  142.2543  154.6920 H   0  0  0  0  0  0  0  0  0  0  0  0
  148.5092  140.7452  155.5008 H   0  0  0  0  0  0  0  0  0  0  0  0
  149.1709  140.7303  153.8683 H   0  0  0  0  0  0  0  0  0  0  0  0
  149.4403  138.7220  154.4671 H   0  0  0  0  0  0  0  0  0  0  0  0
  151.0984  136.5609  154.6047 H   0  0  0  0  0  0  0  0  0  0  0  0
  153.4250  137.6270  155.6682 H   0  0  0  0  0  0  0  0  0  0  0  0
  1  2  1  0  0  0  0
  1 16  1  0  0  0  0
  1 17  1  0  0  0  0
  1 18  1  0  0  0  0
  2  3  1  0  0  0  0
  2  9  1  0  0  0  0
  2 19  1  0  0  0  0
  3  4  1  0  0  0  0
  3 20  1  0  0  0  0
  4  5  1  0  0  0  0
  4 21  1  0  0  0  0
  4 22  1  0  0  0  0
  5  6  1  0  0  0  0
  5  7  1  0  0  0  0
  5  8  1  0  0  0  0
  6 23  1  0  0  0  0
  6 24  1  0  0  0  0
  6 25  1  0  0  0  0
  7 26  1  0  0  0  0
  7 27  1  0  0  0  0
  7 28  1  0  0  0  0
  8 29  1  0  0  0  0
  9 10  1  0  0  0  0
  9 11  1  0  0  0  0
  9 30  1  0  0  0  0
 10 31  1  0  0  0  0
 10 32  1  0  0  0  0
 10 33  1  0  0  0  0
 11 15  1  0  0  0  0
 11 12  1  0  0  0  0
 12 13  2  0  0  0  0
 12 34  1  0  0  0  0
 13 14  1  0  0  0  0
 13 35  1  0  0  0  0
 14 15  2  0  0  0  0
 14 36  1  0  0  0  0
M  END
> <s_m_source_file>
AV-unprocessed.smi

> <i_m_source_file_index>
3117

> <i_lp_mmshare_version>
43012

> <i_f3d_flags>
0

> <s_epik_input>
W0NIM11DKFtDSDNdKShbT0hdKVtDSDJdW05IXVtDQEBIXShbQ0gzXSlbQ0BIXShbQ0gzXSluMVtjSF1bY0hdW2NIXW4x

> <s_epik_cmdline>
J2VwaWtfcHl0aG9uJywgJy1waCcsICc3LjAnLCAnLXRuJywgJzgnLCAnLW1hJywgJzIwMCcsICctbWV0YWxfYmluZGluZycsICctaW1hZScsICc8aW5maWxlLm1hZT4nLCAnLW9tYWUnLCAnPG91dGZpbGUubWFlPic=

> <r_lp_tautomer_probability>
1

> <r_epik_Ionization_Penalty>
2.13419

> <r_epik_Ionization_Penalty_Charging>
0

> <r_epik_Ionization_Penalty_Neutral>
2.13419

> <r_epik_State_Penalty>
2.27148

> <r_epik_Charging_Adjusted_Penalty>
2.27148

> <i_epik_Tot_Q>
0

> <i_epik_Tot_abs_Q>
0

> <r_epik_Metal_State_Penalty>
2.27029

> <b_epik_Metal_Only>
0

> <s_lp_Force_Field>
OPLS_2005

> <r_lp_Energy>
19.9089

> <b_lp_Chiralities_Consistent>
1

> <s_lp_Variant>
AV-unprocessed.smi:3117-5

> <Gold.Version>
5.8.1

> <Gold.Id.Protein>
6NUR|6NUR_protein|mol2

> <Gold.PLP.Fitness>
43.0274

> <Gold.PLP.PLP>
-38.7354

> <Gold.PLP.part.hbond>
-2.0000

> <Gold.PLP.part.metal>
0.0000

> <Gold.PLP.part.buried>
-4.1405

> <Gold.PLP.part.nonpolar>
-32.3279

> <Gold.PLP.part.repulsive>
0.0000

> <Gold.PLP.ligand.clash>
0.0000

> <Gold.PLP.ligand.torsion>
0.6956

> <Gold.PLP.Chemscore.Hbond>
1.8640

> <Gold.PLP.Chemscore.CHOScore>
0.0000

> <Gold.PLP.Chemscore.Metal>
0.0000

> <Gold.Chemscore.Hbonds>
donor molecule, donor type, donor heavy atom, donor atom, acceptor molecule, acceptor atom, score
      L1  H     3    20       P1  8028  0.90
      P1  H  7997  8008       L1    15  0.67

> <Gold.PLP.Chemscore.Internal.Correction>
0.0911

> <Gold.Rescore>
     Score         DG    S(hbond)    S(metal)    S(lipo)     H(rot)  DE(clash)    DE(int)     intcor
     15.39     -15.91       1.53        0.00      93.48       2.19       0.01       0.52       ----

> <Gold.Chemscore.Fitness>
15.3929

> <Gold.Chemscore.DG>
-15.9143

> <Gold.Chemscore.ZeroCoef>
-5.4800

> <Gold.Chemscore.Hbond>
1.5267

> <Gold.Chemscore.Metal>
0.0000

> <Gold.Chemscore.Lipo>
93.4787

> <Gold.Chemscore.Internal_Hbond>
0.0000

> <Gold.Chemscore.DEClash>
0.0057

> <Gold.Chemscore.DEInternal>
0.5157

> <Gold.Chemscore.Rot>
2.1882

> <Gold.Chemscore.Internal.Correction>
   9.000000E+99

> <Gold.Chemscore.Hbonds>
donor molecule, donor type, donor heavy atom, donor atom, acceptor molecule, acceptor atom, score
      L1  H     3    20       P1  8028  0.88
      P1  H  7997  8008       L1    15  0.44

> <Gold.Chemscore.Hbond.Weighted>
-5.0991

> <Gold.Chemscore.Metal.Weighted>
-0.0000

> <Gold.Chemscore.Lipo.Weighted>
-10.9370

> <Gold.Chemscore.Internal_Hbond.Weighted>
0.0000

> <Gold.Chemscore.DEClash.Weighted>
0.0057

> <Gold.Chemscore.DEInternal.Weighted>
0.5157

> <Gold.Chemscore.Rot.Weighted>
5.6018

> <Gold.Chemscore.Internal.Correction.Weighted>
   9.000000E+99

> <Gold.Protein.RotatedTorsions>
[ 6907 6896 6895 6894 ] final  150.80 input  -60.11 | X-H torsion
[ 7974 7965 7964 7962 ] final   64.95 input  175.53 | X-H torsion
[ 8008 7997 7996 7995 ] final  -44.07 input   59.86 | X-H torsion
[ 10167 10162 10161 10158 ] final   53.11 input  -65.29 | X-H torsion
[ 10718 10713 10712 10709 ] final -106.00 input   66.30 | X-H torsion
[ 10763 10752 10751 10750 ] final   81.34 input  -60.55 | X-H torsion
[ 11005 11000 10999 10996 ] final -140.99 input  -57.11 | X-H torsion

> <Gold.Protein.ActiveResidues>
 VAL166  LYS551  ARG553  GLY616  TRP617  ASP618  TYR619  PRO620  LYS621  CYS622 
 ASP623  PHE694  ASN695  SER759  ASP760  ASP761  ALA762  ILE779  LEU786  VAL792 
 PHE793  MET794  SER795  GLU796  ALA797  LYS798  CYS799  TRP800  GLU811  SER814 

> <Gold.Protein.RotatedAtoms>
  152.1094  133.4292  159.4623 H   0  0  0  0  0  0  0  0  0  0  0  0  # atno 6907 bound_to 6896
  150.6866  134.2666  159.4580 H   0  0  0  0  0  0  0  0  0  0  0  0  # atno 6908 bound_to 6896
  152.0533  134.9639  160.0625 H   0  0  0  0  0  0  0  0  0  0  0  0  # atno 6909 bound_to 6896
  145.8441  139.3214  143.0914 H   0  0  0  0  0  0  0  0  0  0  0  0  # atno 7974 bound_to 7965
  154.3997  140.1431  156.3623 H   0  0  0  0  0  0  0  0  0  0  0  0  # atno 8008 bound_to 7997
  155.8169  140.3471  155.5470 H   0  0  0  0  0  0  0  0  0  0  0  0  # atno 8009 bound_to 7997
  155.8328  140.0915  157.1772 H   0  0  0  0  0  0  0  0  0  0  0  0  # atno 8010 bound_to 7997
  140.2443  144.3549  150.6369 H   0  0  0  0  0  0  0  0  0  0  0  0  # atno 10167 bound_to 10162
  156.0370  130.5591  150.7619 H   0  0  0  0  0  0  0  0  0  0  0  0  # atno 10718 bound_to 10713
  153.1109  135.4769  154.9033 H   0  0  0  0  0  0  0  0  0  0  0  0  # atno 10763 bound_to 10752
  154.7479  135.3098  154.8613 H   0  0  0  0  0  0  0  0  0  0  0  0  # atno 10764 bound_to 10752
  153.9202  135.6856  153.4801 H   0  0  0  0  0  0  0  0  0  0  0  0  # atno 10765 bound_to 10752
  140.8369  134.2450  157.4830 H   0  0  0  0  0  0  0  0  0  0  0  0  # atno 11005 bound_to 11000
  145.9431  140.8964  143.0297 LP  0  0  0  0  0  0  0  0  0  0  0  0  # atno 17320 bound_to 7965
  144.6732  140.1576  143.7425 LP  0  0  0  0  0  0  0  0  0  0  0  0  # atno 17321 bound_to 7965
  140.6090  143.2168  151.6924 LP  0  0  0  0  0  0  0  0  0  0  0  0  # atno 17342 bound_to 10162
  139.5067  144.3672  152.0505 LP  0  0  0  0  0  0  0  0  0  0  0  0  # atno 17343 bound_to 10162
  157.5136  131.0927  151.0167 LP  0  0  0  0  0  0  0  0  0  0  0  0  # atno 17370 bound_to 10713
  157.0516  130.5789  149.5371 LP  0  0  0  0  0  0  0  0  0  0  0  0  # atno 17371 bound_to 10713
  139.8704  134.9615  156.4398 LP  0  0  0  0  0  0  0  0  0  0  0  0  # atno 17394 bound_to 11000
  140.8938  133.7829  155.9602 LP  0  0  0  0  0  0  0  0  0  0  0  0  # atno 17395 bound_to 11000

$$$$
