AV-unprocessed.smi:1196|AV-procd|sdf|5000|dock3
  -GOLD-   22720 4 03D 1   1.00000     0.00000
 Structure written by MMmdl.
 36 37  0  0  0  0  0  0  0  0  2 V2000
  151.9456  140.0514  158.8279 C   0  0  0  0  0  0  0  0  0  0  0  0
  151.4857  140.8872  157.6234 C   0  0  2  0  0  0  0  0  0  0  0  0
  150.5190  142.0083  158.0523 C   0  0  0  0  0  0  0  0  0  0  0  0
  151.2155  143.2179  158.4530 N   0  0  0  0  0  0  0  0  0  0  0  0
  151.4792  144.3444  157.7022 C   0  0  0  0  0  0  0  0  0  0  0  0
  152.1634  145.2143  158.5017 C   0  0  0  0  0  0  0  0  0  0  0  0
  152.2709  144.5215  159.7398 C   0  0  0  0  0  0  0  0  0  0  0  0
  151.7005  143.3280  159.7085 N   0  0  0  0  0  0  0  0  0  0  0  0
  150.8433  140.0231  156.6348 N   0  0  0  0  0  0  0  0  0  0  0  0
  151.3969  139.6048  155.4862 C   0  0  0  0  0  0  0  0  0  0  0  0
  152.5379  139.9065  155.1352 O   0  0  0  0  0  0  0  0  0  0  0  0
  150.5241  138.7168  154.5965 C   0  0  0  0  0  0  0  0  0  0  0  0
  151.0545  137.2734  154.5037 C   0  0  0  0  0  0  0  0  0  0  0  0
  150.5461  136.3713  155.6480 C   0  0  2  0  0  0  0  0  0  0  0  0
  151.3601  135.1756  155.7863 N   0  5  0  0  0  0  0  0  0  0  0  0
  150.5620  134.0927  155.6315 C   0  0  0  0  0  0  0  0  0  0  0  0
  150.8829  132.9078  155.6902 O   0  0  0  0  0  0  0  0  0  0  0  0
  149.3013  134.4651  155.3873 N   0  0  0  0  0  0  0  0  0  0  0  0
  149.1761  135.7879  155.3586 C   0  0  0  0  0  0  0  0  0  0  0  0
  148.1540  136.4376  155.1428 O   0  0  0  0  0  0  0  0  0  0  0  0
  152.4409  140.6762  159.5715 H   0  0  0  0  0  0  0  0  0  0  0  0
  152.6539  139.2791  158.5261 H   0  0  0  0  0  0  0  0  0  0  0  0
  151.1029  139.5591  159.3143 H   0  0  0  0  0  0  0  0  0  0  0  0
  152.3676  141.3518  157.1782 H   0  0  0  0  0  0  0  0  0  0  0  0
  149.8297  142.2525  157.2425 H   0  0  0  0  0  0  0  0  0  0  0  0
  149.9062  141.6767  158.8918 H   0  0  0  0  0  0  0  0  0  0  0  0
  151.1644  144.4304  156.6728 H   0  0  0  0  0  0  0  0  0  0  0  0
  152.5325  146.1951  158.2411 H   0  0  0  0  0  0  0  0  0  0  0  0
  152.7426  144.8486  160.6545 H   0  0  0  0  0  0  0  0  0  0  0  0
  149.9019  139.7196  156.8381 H   0  0  0  0  0  0  0  0  0  0  0  0
  149.5018  138.7131  154.9776 H   0  0  0  0  0  0  0  0  0  0  0  0
  150.4826  139.1621  153.6022 H   0  0  0  0  0  0  0  0  0  0  0  0
  150.7443  136.8445  153.5492 H   0  0  0  0  0  0  0  0  0  0  0  0
  152.1464  137.2798  154.4894 H   0  0  0  0  0  0  0  0  0  0  0  0
  150.4843  136.9436  156.5746 H   0  0  0  0  0  0  0  0  0  0  0  0
  148.5412  133.8198  155.2327 H   0  0  0  0  0  0  0  0  0  0  0  0
  1  2  1  0  0  0  0
  1 21  1  0  0  0  0
  1 22  1  0  0  0  0
  1 23  1  0  0  0  0
  2  3  1  0  0  0  0
  2  9  1  0  0  0  0
  2 24  1  0  0  0  0
  3  4  1  0  0  0  0
  3 25  1  0  0  0  0
  3 26  1  0  0  0  0
  4  8  1  0  0  0  0
  4  5  1  0  0  0  0
  5  6  2  0  0  0  0
  5 27  1  0  0  0  0
  6  7  1  0  0  0  0
  6 28  1  0  0  0  0
  7  8  2  0  0  0  0
  7 29  1  0  0  0  0
  9 10  1  0  0  0  0
  9 30  1  0  0  0  0
 10 11  2  0  0  0  0
 10 12  1  0  0  0  0
 12 13  1  0  0  0  0
 12 31  1  0  0  0  0
 12 32  1  0  0  0  0
 13 14  1  0  0  0  0
 13 33  1  0  0  0  0
 13 34  1  0  0  0  0
 14 19  1  0  0  0  0
 14 15  1  0  0  0  0
 14 35  1  0  0  0  0
 15 16  1  0  0  0  0
 16 17  2  0  0  0  0
 16 18  1  0  0  0  0
 18 19  1  0  0  0  0
 18 36  1  0  0  0  0
 19 20  2  0  0  0  0
M  CHG  1  15  -1
M  END
> <s_m_source_file>
AV-unprocessed.smi

> <i_m_source_file_index>
1196

> <i_lp_mmshare_version>
43012

> <i_f3d_flags>
0

> <s_epik_input>
bjFbY0hdW2NIXVtjSF1uMVtDSDJdW0NAQEhdKFtDSDNdKVtOSF1DKD1PKVtDSDJdW0NIMl1bQ0BASF0yW05IXUMoPU8pW05IXUMyPU8=

> <s_epik_cmdline>
J2VwaWtfcHl0aG9uJywgJy1waCcsICc3LjAnLCAnLXRuJywgJzgnLCAnLW1hJywgJzIwMCcsICctbWV0YWxfYmluZGluZycsICctaW1hZScsICc8aW5maWxlLm1hZT4nLCAnLW9tYWUnLCAnPG91dGZpbGUubWFlPic=

> <r_lp_tautomer_probability>
1

> <r_epik_Ionization_Penalty>
5.79547

> <r_epik_Ionization_Penalty_Charging>
5.79516

> <r_epik_Ionization_Penalty_Neutral>
0.000313087

> <r_epik_State_Penalty>
5.80096

> <r_epik_Charging_Adjusted_Penalty>
11.5961

> <i_epik_Tot_Q>
-1

> <i_epik_Tot_abs_Q>
1

> <r_epik_Metal_State_Penalty>
2.14443

> <b_epik_Metal_Only>
1

> <s_lp_Force_Field>
OPLS_2005

> <r_lp_Energy>
13.4847

> <b_lp_Chiralities_Consistent>
1

> <s_lp_Variant>
AV-unprocessed.smi:1196-5

> <Gold.Version>
5.8.1

> <Gold.Id.Protein>
6NUR|6NUR_protein|mol2

> <Gold.PLP.Fitness>
47.1350

> <Gold.PLP.PLP>
-37.1950

> <Gold.PLP.part.hbond>
-2.9502

> <Gold.PLP.part.metal>
0.0000

> <Gold.PLP.part.buried>
-5.5186

> <Gold.PLP.part.nonpolar>
-29.8902

> <Gold.PLP.part.repulsive>
0.2425

> <Gold.PLP.ligand.clash>
0.0000

> <Gold.PLP.ligand.torsion>
1.2653

> <Gold.PLP.Chemscore.Hbond>
3.1305

> <Gold.PLP.Chemscore.CHOScore>
0.9769

> <Gold.PLP.Chemscore.Metal>
0.0000

> <Gold.Chemscore.Hbonds>
donor molecule, donor type, donor heavy atom, donor atom, acceptor molecule, acceptor atom, score
      P1  H  7989  7998       L1    11  0.21
      P1  H  7997  8009       L1    11  0.89
      P1  H 10752 10763       L1    15  2.00
      L1  C     5    27       P1  8028  1.00

> <Gold.PLP.Chemscore.Internal.Correction>
0.1485

> <Gold.Rescore>
     Score         DG    S(hbond)    S(metal)    S(lipo)     H(rot)  DE(clash)    DE(int)     intcor
     11.63     -12.97       1.84        0.00      74.82       2.89       0.03       1.30       ----

> <Gold.Chemscore.Fitness>
11.6341

> <Gold.Chemscore.DG>
-12.9667

> <Gold.Chemscore.ZeroCoef>
-5.4800

> <Gold.Chemscore.Hbond>
1.8393

> <Gold.Chemscore.Metal>
0.0000

> <Gold.Chemscore.Lipo>
74.8172

> <Gold.Chemscore.Internal_Hbond>
0.0000

> <Gold.Chemscore.DEClash>
0.0332

> <Gold.Chemscore.DEInternal>
1.2994

> <Gold.Chemscore.Rot>
2.8946

> <Gold.Chemscore.Internal.Correction>
   9.000000E+99

> <Gold.Chemscore.Hbonds>
donor molecule, donor type, donor heavy atom, donor atom, acceptor molecule, acceptor atom, score
      P1  H  7989  7998       L1    11  0.01
      P1  H  7997  8009       L1    11  0.87
      P1  H 10752 10763       L1    15  0.67

> <Gold.Chemscore.Hbond.Weighted>
-6.1432

> <Gold.Chemscore.Metal.Weighted>
-0.0000

> <Gold.Chemscore.Lipo.Weighted>
-8.7536

> <Gold.Chemscore.Internal_Hbond.Weighted>
0.0000

> <Gold.Chemscore.DEClash.Weighted>
0.0332

> <Gold.Chemscore.DEInternal.Weighted>
1.2994

> <Gold.Chemscore.Rot.Weighted>
7.4101

> <Gold.Chemscore.Internal.Correction.Weighted>
   9.000000E+99

> <Gold.Protein.RotatedTorsions>
[ 6907 6896 6895 6894 ] final  154.72 input  -60.11 | X-H torsion
[ 7974 7965 7964 7962 ] final  -39.37 input  175.53 | X-H torsion
[ 8008 7997 7996 7995 ] final -145.33 input   59.86 | X-H torsion
[ 10167 10162 10161 10158 ] final   15.10 input  -65.29 | X-H torsion
[ 10718 10713 10712 10709 ] final -101.59 input   66.30 | X-H torsion
[ 10763 10752 10751 10750 ] final   82.62 input  -60.55 | X-H torsion
[ 11005 11000 10999 10996 ] final  -77.53 input  -57.11 | X-H torsion

> <Gold.Protein.ActiveResidues>
 VAL166  LYS551  ARG553  GLY616  TRP617  ASP618  TYR619  PRO620  LYS621  CYS622 
 ASP623  PHE694  ASN695  SER759  ASP760  ASP761  ALA762  ILE779  LEU786  VAL792 
 PHE793  MET794  SER795  GLU796  ALA797  LYS798  CYS799  TRP800  GLU811  SER814 

> <Gold.Protein.RotatedAtoms>
  152.0544  133.4033  159.4390 H   0  0  0  0  0  0  0  0  0  0  0  0  # atno 6907 bound_to 6896
  150.6868  134.3271  159.4820 H   0  0  0  0  0  0  0  0  0  0  0  0  # atno 6908 bound_to 6896
  152.1085  134.9291  160.0618 H   0  0  0  0  0  0  0  0  0  0  0  0  # atno 6909 bound_to 6896
  146.0403  140.6618  142.9090 H   0  0  0  0  0  0  0  0  0  0  0  0  # atno 7974 bound_to 7965
  155.5414  140.0608  157.2869 H   0  0  0  0  0  0  0  0  0  0  0  0  # atno 8008 bound_to 7997
  154.4450  140.1918  156.0639 H   0  0  0  0  0  0  0  0  0  0  0  0  # atno 8009 bound_to 7997
  156.0581  140.3276  155.7434 H   0  0  0  0  0  0  0  0  0  0  0  0  # atno 8010 bound_to 7997
  140.5890  143.8833  150.6856 H   0  0  0  0  0  0  0  0  0  0  0  0  # atno 10167 bound_to 10162
  156.0200  130.5380  150.6985 H   0  0  0  0  0  0  0  0  0  0  0  0  # atno 10718 bound_to 10713
  153.1219  135.4721  154.9209 H   0  0  0  0  0  0  0  0  0  0  0  0  # atno 10763 bound_to 10752
  154.7583  135.3124  154.8429 H   0  0  0  0  0  0  0  0  0  0  0  0  # atno 10764 bound_to 10752
  153.8992  135.6877  153.4810 H   0  0  0  0  0  0  0  0  0  0  0  0  # atno 10765 bound_to 10752
  141.1661  133.7026  156.7834 H   0  0  0  0  0  0  0  0  0  0  0  0  # atno 11005 bound_to 11000
  144.7071  140.3895  143.7109 LP  0  0  0  0  0  0  0  0  0  0  0  0  # atno 17320 bound_to 7965
  145.6896  139.1636  143.2654 LP  0  0  0  0  0  0  0  0  0  0  0  0  # atno 17321 bound_to 7965
  140.2351  143.3706  152.1533 LP  0  0  0  0  0  0  0  0  0  0  0  0  # atno 17342 bound_to 10162
  139.5215  144.7047  151.5388 LP  0  0  0  0  0  0  0  0  0  0  0  0  # atno 17343 bound_to 10162
  157.4651  131.0887  151.0704 LP  0  0  0  0  0  0  0  0  0  0  0  0  # atno 17370 bound_to 10713
  157.1181  130.6050  149.5498 LP  0  0  0  0  0  0  0  0  0  0  0  0  # atno 17371 bound_to 10713
  140.2378  134.8637  157.3542 LP  0  0  0  0  0  0  0  0  0  0  0  0  # atno 17394 bound_to 11000
  140.1826  134.4470  155.7762 LP  0  0  0  0  0  0  0  0  0  0  0  0  # atno 17395 bound_to 11000

$$$$
