AV-unprocessed.smi:3034|AV-procd|sdf|11577|dock4
  -GOLD-   2272016543D 1   1.00000     0.00000
 Structure written by MMmdl.
 32 32  0  0  0  0  0  0  0  0  1 V2000
  155.3807  136.9285  163.7264 C   0  0  0  0  0  0  0  0  0  0  0  0
  154.6028  137.5999  162.5898 C   0  0  0  0  0  0  0  0  0  0  0  0
  155.3979  137.6471  161.2787 C   0  0  0  0  0  0  0  0  0  0  0  0
  154.4777  138.5828  159.9877 S   0  0  0  0  0  0  0  0  0  0  0  0
  155.3261  138.7106  158.7932 O   0  0  0  0  0  0  0  0  0  0  0  0
  153.1267  138.0132  159.8697 O   0  0  0  0  0  0  0  0  0  0  0  0
  154.3291  140.1484  160.6893 N   0  0  0  0  0  0  0  0  0  0  0  0
  153.6294  141.1745  159.9157 C   0  0  0  0  0  0  0  0  0  0  0  0
  153.4850  142.4733  160.7281 C   0  0  2  0  0  0  0  0  0  0  0  0
  153.2246  142.1368  162.0782 O   0  0  0  0  0  0  0  0  0  0  0  0
  152.3902  143.3593  160.1488 C   0  0  0  0  0  0  0  0  0  0  0  0
  152.0005  144.5393  160.8191 C   0  0  0  0  0  0  0  0  0  0  0  0
  150.9977  145.3422  160.2422 C   0  0  0  0  0  0  0  0  0  0  0  0
  150.4242  144.9389  159.0215 C   0  0  0  0  0  0  0  0  0  0  0  0
  150.8812  143.7452  158.4291 C   0  0  0  0  0  0  0  0  0  0  0  0
  151.8424  142.9689  158.9737 N   0  0  0  0  0  0  0  0  0  0  0  0
  154.7971  136.9273  164.6473 H   0  0  0  0  0  0  0  0  0  0  0  0
  156.3168  137.4508  163.9263 H   0  0  0  0  0  0  0  0  0  0  0  0
  155.6187  135.8929  163.4821 H   0  0  0  0  0  0  0  0  0  0  0  0
  153.6669  137.0639  162.4297 H   0  0  0  0  0  0  0  0  0  0  0  0
  154.3314  138.6133  162.8872 H   0  0  0  0  0  0  0  0  0  0  0  0
  156.3616  138.1342  161.4294 H   0  0  0  0  0  0  0  0  0  0  0  0
  155.5872  136.6424  160.9002 H   0  0  0  0  0  0  0  0  0  0  0  0
  155.2354  140.4896  161.0078 H   0  0  0  0  0  0  0  0  0  0  0  0
  154.2174  141.3728  159.0185 H   0  0  0  0  0  0  0  0  0  0  0  0
  152.6598  140.7991  159.5854 H   0  0  0  0  0  0  0  0  0  0  0  0
  154.4244  143.0276  160.7006 H   0  0  0  0  0  0  0  0  0  0  0  0
  153.7671  141.3993  162.3118 H   0  0  0  0  0  0  0  0  0  0  0  0
  152.4612  144.8278  161.7524 H   0  0  0  0  0  0  0  0  0  0  0  0
  150.6760  146.2523  160.7264 H   0  0  0  0  0  0  0  0  0  0  0  0
  149.6537  145.5306  158.5496 H   0  0  0  0  0  0  0  0  0  0  0  0
  150.4646  143.4058  157.4923 H   0  0  0  0  0  0  0  0  0  0  0  0
  1  2  1  0  0  0  0
  1 17  1  0  0  0  0
  1 18  1  0  0  0  0
  1 19  1  0  0  0  0
  2  3  1  0  0  0  0
  2 20  1  0  0  0  0
  2 21  1  0  0  0  0
  3  4  1  0  0  0  0
  3 22  1  0  0  0  0
  3 23  1  0  0  0  0
  4  5  2  0  0  0  0
  4  6  2  0  0  0  0
  4  7  1  0  0  0  0
  7  8  1  0  0  0  0
  7 24  1  0  0  0  0
  8  9  1  0  0  0  0
  8 25  1  0  0  0  0
  8 26  1  0  0  0  0
  9 10  1  0  0  0  0
  9 11  1  0  0  0  0
  9 27  1  0  0  0  0
 10 28  1  0  0  0  0
 11 16  1  0  0  0  0
 11 12  2  0  0  0  0
 12 13  1  0  0  0  0
 12 29  1  0  0  0  0
 13 14  2  0  0  0  0
 13 30  1  0  0  0  0
 14 15  1  0  0  0  0
 14 31  1  0  0  0  0
 15 16  2  0  0  0  0
 15 32  1  0  0  0  0
M  END
> <s_m_source_file>
AV-unprocessed.smi

> <i_m_source_file_index>
3034

> <i_lp_mmshare_version>
43012

> <i_f3d_flags>
0

> <s_epik_input>
W0NIM11bQ0gyXVtDSDJdUyg9TykoPU8pW05IXVtDSDJdW0NASF0oW09IXSljMVtjSF1bY0hdW2NIXVtjSF1uMQ==

> <s_epik_cmdline>
J2VwaWtfcHl0aG9uJywgJy1waCcsICc3LjAnLCAnLXRuJywgJzgnLCAnLW1hJywgJzIwMCcsICctbWV0YWxfYmluZGluZycsICctaW1hZScsICc8aW5maWxlLm1hZT4nLCAnLW9tYWUnLCAnPG91dGZpbGUubWFlPic=

> <r_epik_Ionization_Penalty>
0.00187371

> <r_epik_Ionization_Penalty_Charging>
0

> <r_epik_Ionization_Penalty_Neutral>
0.00187371

> <r_epik_State_Penalty>
0.0012608

> <r_epik_Charging_Adjusted_Penalty>
0.0012608

> <i_epik_Tot_Q>
0

> <i_epik_Tot_abs_Q>
0

> <r_epik_Metal_State_Penalty>
0.0168387

> <b_epik_Metal_Only>
0

> <s_lp_Force_Field>
OPLS_2005

> <r_lp_Energy>
4.86563

> <b_lp_Chiralities_Consistent>
1

> <s_lp_Variant>
AV-unprocessed.smi:3034-1

> <Gold.Version>
5.8.1

> <Gold.Id.Protein>
6NUR|6NUR_protein|mol2

> <Gold.PLP.Fitness>
41.2339

> <Gold.PLP.PLP>
-36.6197

> <Gold.PLP.part.hbond>
-1.0000

> <Gold.PLP.part.metal>
0.0000

> <Gold.PLP.part.buried>
-5.2868

> <Gold.PLP.part.nonpolar>
-29.4196

> <Gold.PLP.part.repulsive>
0.0167

> <Gold.PLP.ligand.clash>
0.0000

> <Gold.PLP.ligand.torsion>
0.3832

> <Gold.PLP.Chemscore.Hbond>
1.0000

> <Gold.PLP.Chemscore.CHOScore>
0.7324

> <Gold.PLP.Chemscore.Metal>
0.0000

> <Gold.Chemscore.Hbonds>
donor molecule, donor type, donor heavy atom, donor atom, acceptor molecule, acceptor atom, score
      P1  H  7997  8009       L1     5  1.00
      L1  C    15    32       P1  8028  0.48

> <Gold.PLP.Chemscore.Internal.Correction>
0.1835

> <Gold.Rescore>
     Score         DG    S(hbond)    S(metal)    S(lipo)     H(rot)  DE(clash)    DE(int)     intcor
     13.18     -13.92       0.99        0.00     101.39       2.63       0.33       0.41       ----

> <Gold.Chemscore.Fitness>
13.1787

> <Gold.Chemscore.DG>
-13.9192

> <Gold.Chemscore.ZeroCoef>
-5.4800

> <Gold.Chemscore.Hbond>
0.9889

> <Gold.Chemscore.Metal>
0.0000

> <Gold.Chemscore.Lipo>
101.3930

> <Gold.Chemscore.Internal_Hbond>
0.0000

> <Gold.Chemscore.DEClash>
0.3341

> <Gold.Chemscore.DEInternal>
0.4064

> <Gold.Chemscore.Rot>
2.6275

> <Gold.Chemscore.Internal.Correction>
   9.000000E+99

> <Gold.Chemscore.Hbonds>
donor molecule, donor type, donor heavy atom, donor atom, acceptor molecule, acceptor atom, score
      P1  H  7997  8009       L1     5  0.99

> <Gold.Chemscore.Hbond.Weighted>
-3.3028

> <Gold.Chemscore.Metal.Weighted>
-0.0000

> <Gold.Chemscore.Lipo.Weighted>
-11.8630

> <Gold.Chemscore.Internal_Hbond.Weighted>
0.0000

> <Gold.Chemscore.DEClash.Weighted>
0.3341

> <Gold.Chemscore.DEInternal.Weighted>
0.4064

> <Gold.Chemscore.Rot.Weighted>
6.7265

> <Gold.Chemscore.Internal.Correction.Weighted>
   9.000000E+99

> <Gold.Protein.RotatedTorsions>
[ 6907 6896 6895 6894 ] final  -54.31 input  -60.11 | X-H torsion
[ 7974 7965 7964 7962 ] final  -71.31 input  175.53 | X-H torsion
[ 8008 7997 7996 7995 ] final  107.81 input   59.86 | X-H torsion
[ 10167 10162 10161 10158 ] final -100.12 input  -65.29 | X-H torsion
[ 10718 10713 10712 10709 ] final  177.68 input   66.30 | X-H torsion
[ 10763 10752 10751 10750 ] final    1.16 input  -60.55 | X-H torsion
[ 11005 11000 10999 10996 ] final  179.74 input  -57.11 | X-H torsion

> <Gold.Protein.ActiveResidues>
 VAL166  LYS551  ARG553  GLY616  TRP617  ASP618  TYR619  PRO620  LYS621  CYS622 
 ASP623  PHE694  ASN695  SER759  ASP760  ASP761  ALA762  ILE779  LEU786  VAL792 
 PHE793  MET794  SER795  GLU796  ALA797  LYS798  CYS799  TRP800  GLU811  SER814 

> <Gold.Protein.RotatedAtoms>
  150.8350  134.7619  159.6884 H   0  0  0  0  0  0  0  0  0  0  0  0  # atno 6907 bound_to 6896
  152.4448  134.5514  159.9877 H   0  0  0  0  0  0  0  0  0  0  0  0  # atno 6908 bound_to 6896
  151.5666  133.3358  159.3017 H   0  0  0  0  0  0  0  0  0  0  0  0  # atno 6909 bound_to 6896
  145.6797  140.9192  143.0839 H   0  0  0  0  0  0  0  0  0  0  0  0  # atno 7974 bound_to 7965
  156.1854  140.3088  155.9227 H   0  0  0  0  0  0  0  0  0  0  0  0  # atno 8008 bound_to 7997
  155.3293  140.0460  157.3059 H   0  0  0  0  0  0  0  0  0  0  0  0  # atno 8009 bound_to 7997
  154.5389  140.2255  155.8684 H   0  0  0  0  0  0  0  0  0  0  0  0  # atno 8010 bound_to 7997
  140.2552  143.3445  152.0677 H   0  0  0  0  0  0  0  0  0  0  0  0  # atno 10167 bound_to 10162
  156.9018  130.9881  151.3034 H   0  0  0  0  0  0  0  0  0  0  0  0  # atno 10718 bound_to 10713
  153.3116  135.6963  153.7111 H   0  0  0  0  0  0  0  0  0  0  0  0  # atno 10763 bound_to 10752
  153.5986  135.3466  155.2938 H   0  0  0  0  0  0  0  0  0  0  0  0  # atno 10764 bound_to 10752
  154.8576  135.4335  154.2255 H   0  0  0  0  0  0  0  0  0  0  0  0  # atno 10765 bound_to 10752
  140.4096  134.6704  157.4606 H   0  0  0  0  0  0  0  0  0  0  0  0  # atno 11005 bound_to 11000
  144.7030  139.8680  143.7438 LP  0  0  0  0  0  0  0  0  0  0  0  0  # atno 17320 bound_to 7965
  146.0975  139.3968  143.0367 LP  0  0  0  0  0  0  0  0  0  0  0  0  # atno 17321 bound_to 7965
  139.5033  144.6754  151.6142 LP  0  0  0  0  0  0  0  0  0  0  0  0  # atno 17342 bound_to 10162
  140.6009  143.9611  150.6385 LP  0  0  0  0  0  0  0  0  0  0  0  0  # atno 17343 bound_to 10162
  157.6021  130.8520  149.8818 LP  0  0  0  0  0  0  0  0  0  0  0  0  # atno 17370 bound_to 10713
  156.0578  130.3705  150.1051 LP  0  0  0  0  0  0  0  0  0  0  0  0  # atno 17371 bound_to 10713
  140.0277  134.6452  155.9149 LP  0  0  0  0  0  0  0  0  0  0  0  0  # atno 17394 bound_to 11000
  141.1826  133.6549  156.5084 LP  0  0  0  0  0  0  0  0  0  0  0  0  # atno 17395 bound_to 11000

$$$$
