AV-unprocessed.smi:2774|AV-procd|sdf|10680|dock2
  -GOLD-   2272015123D 1   1.00000     0.00000
 Structure written by MMmdl.
 35 36  0  0  0  0  0  0  0  0  2 V2000
  147.1117  138.3285  150.9183 O   0  0  0  0  0  0  0  0  0  0  0  0
  146.2134  138.1635  151.9979 C   0  0  2  0  0  0  0  0  0  0  0  0
  146.8477  138.7661  153.2637 C   0  0  0  0  0  0  0  0  0  0  0  0
  148.3248  138.7108  153.2075 N   0  3  0  0  0  0  0  0  0  0  0  0
  149.0216  139.2194  154.4096 C   0  0  2  0  0  0  0  0  0  0  0  0
  148.8227  140.7447  154.5076 C   0  0  0  0  0  0  0  0  0  0  0  0
  149.4411  141.3480  155.7798 C   0  0  0  0  0  0  0  0  0  0  0  0
  150.9585  141.1319  155.8531 C   0  0  0  0  0  0  0  0  0  0  0  0
  151.3644  139.3662  155.8979 S   0  0  0  0  0  0  0  0  0  0  0  0
  150.5200  138.8534  154.3770 C   0  0  0  0  0  0  0  0  0  0  0  0
  145.8529  136.7011  152.2050 C   0  0  0  0  0  0  0  0  0  0  0  0
  145.3029  135.9315  151.1569 C   0  0  0  0  0  0  0  0  0  0  0  0
  144.9951  134.5786  151.4037 C   0  0  0  0  0  0  0  0  0  0  0  0
  145.2003  133.9777  152.5951 N   0  0  0  0  0  0  0  0  0  0  0  0
  145.7261  134.7182  153.5942 C   0  0  0  0  0  0  0  0  0  0  0  0
  146.0692  136.0779  153.4518 C   0  0  0  0  0  0  0  0  0  0  0  0
  147.7179  137.6026  150.9194 H   0  0  0  0  0  0  0  0  0  0  0  0
  145.3036  138.7143  151.7535 H   0  0  0  0  0  0  0  0  0  0  0  0
  146.5448  139.8094  153.3618 H   0  0  0  0  0  0  0  0  0  0  0  0
  146.4835  138.2447  154.1489 H   0  0  0  0  0  0  0  0  0  0  0  0
  148.6129  137.7571  153.0399 H   0  0  0  0  0  0  0  0  0  0  0  0
  148.5592  138.7623  155.2860 H   0  0  0  0  0  0  0  0  0  0  0  0
  149.2486  141.2331  153.6297 H   0  0  0  0  0  0  0  0  0  0  0  0
  147.7562  140.9734  154.4953 H   0  0  0  0  0  0  0  0  0  0  0  0
  149.2299  142.4174  155.8097 H   0  0  0  0  0  0  0  0  0  0  0  0
  148.9651  140.9190  156.6623 H   0  0  0  0  0  0  0  0  0  0  0  0
  151.4512  141.5891  154.9943 H   0  0  0  0  0  0  0  0  0  0  0  0
  151.3656  141.6073  156.7459 H   0  0  0  0  0  0  0  0  0  0  0  0
  150.6629  137.7786  154.2716 H   0  0  0  0  0  0  0  0  0  0  0  0
  151.0116  139.3238  153.5245 H   0  0  0  0  0  0  0  0  0  0  0  0
  145.1207  136.3634  150.1837 H   0  0  0  0  0  0  0  0  0  0  0  0
  144.5738  133.9629  150.6229 H   0  0  0  0  0  0  0  0  0  0  0  0
  145.8796  134.2117  154.5356 H   0  0  0  0  0  0  0  0  0  0  0  0
  146.4877  136.6234  154.2849 H   0  0  0  0  0  0  0  0  0  0  0  0
  148.6150  139.2739  152.4209 H   0  0  0  0  0  0  0  0  0  0  0  0
  1  2  1  0  0  0  0
  1 17  1  0  0  0  0
  2  3  1  0  0  0  0
  2 11  1  0  0  0  0
  2 18  1  0  0  0  0
  3  4  1  0  0  0  0
  3 19  1  0  0  0  0
  3 20  1  0  0  0  0
  4  5  1  0  0  0  0
  4 21  1  0  0  0  0
  4 35  1  0  0  0  0
  5 10  1  0  0  0  0
  5  6  1  0  0  0  0
  5 22  1  0  0  0  0
  6  7  1  0  0  0  0
  6 23  1  0  0  0  0
  6 24  1  0  0  0  0
  7  8  1  0  0  0  0
  7 25  1  0  0  0  0
  7 26  1  0  0  0  0
  8  9  1  0  0  0  0
  8 27  1  0  0  0  0
  8 28  1  0  0  0  0
  9 10  1  0  0  0  0
 10 29  1  0  0  0  0
 10 30  1  0  0  0  0
 11 16  1  0  0  0  0
 11 12  2  0  0  0  0
 12 13  1  0  0  0  0
 12 31  1  0  0  0  0
 13 14  2  0  0  0  0
 13 32  1  0  0  0  0
 14 15  1  0  0  0  0
 15 16  2  0  0  0  0
 15 33  1  0  0  0  0
 16 34  1  0  0  0  0
M  CHG  1   4   1
M  END
> <s_m_source_file>
AV-unprocessed.smi

> <i_m_source_file_index>
2774

> <i_lp_mmshare_version>
43012

> <i_f3d_flags>
0

> <s_epik_input>
W2NIXTFbY0hdbltjSF1bY0hdYzFbQ0BIXShbT0hdKVtDSDJdW05IXVtDQEBIXTJbQ0gyXVtDSDJdW0NIMl1TW0NIMl0y

> <s_epik_cmdline>
J2VwaWtfcHl0aG9uJywgJy1waCcsICc3LjAnLCAnLXRuJywgJzgnLCAnLW1hJywgJzIwMCcsICctbWV0YWxfYmluZGluZycsICctaW1hZScsICc8aW5maWxlLm1hZT4nLCAnLW9tYWUnLCAnPG91dGZpbGUubWFlPic=

> <r_epik_Ionization_Penalty>
0.0205977

> <r_epik_Ionization_Penalty_Charging>
0.0185619

> <r_epik_Ionization_Penalty_Neutral>
0.00203589

> <r_epik_State_Penalty>
0.0147768

> <r_epik_Charging_Adjusted_Penalty>
0.0333386

> <i_epik_Tot_Q>
1

> <i_epik_Tot_abs_Q>
1

> <r_epik_Metal_State_Penalty>
0.0152254

> <b_epik_Metal_Only>
0

> <s_lp_Force_Field>
OPLS_2005

> <r_lp_Energy>
9.96587

> <b_lp_Chiralities_Consistent>
1

> <s_lp_Variant>
AV-unprocessed.smi:2774-1

> <Gold.Version>
5.8.1

> <Gold.Id.Protein>
6NUR|6NUR_protein|mol2

> <Gold.PLP.Fitness>
43.6400

> <Gold.PLP.PLP>
-32.6533

> <Gold.PLP.part.hbond>
-4.8848

> <Gold.PLP.part.metal>
0.0000

> <Gold.PLP.part.buried>
-2.2273

> <Gold.PLP.part.nonpolar>
-25.9892

> <Gold.PLP.part.repulsive>
0.1364

> <Gold.PLP.ligand.clash>
0.0000

> <Gold.PLP.ligand.torsion>
0.5144

> <Gold.PLP.Chemscore.Hbond>
4.0000

> <Gold.PLP.Chemscore.CHOScore>
0.0000

> <Gold.PLP.Chemscore.Metal>
0.0000

> <Gold.Chemscore.Hbonds>
donor molecule, donor type, donor heavy atom, donor atom, acceptor molecule, acceptor atom, score
      L1  H     1    17       P1  7948  1.00
      L1  H     4    21       P1  7948  2.00
      L1  H     4    35       P1  7957  1.00

> <Gold.PLP.Chemscore.Internal.Correction>
0.0156

> <Gold.Rescore>
     Score         DG    S(hbond)    S(metal)    S(lipo)     H(rot)  DE(clash)    DE(int)     intcor
     18.68     -19.23       2.94        0.00      76.60       1.97       0.02       0.53       ----

> <Gold.Chemscore.Fitness>
18.6844

> <Gold.Chemscore.DG>
-19.2317

> <Gold.Chemscore.ZeroCoef>
-5.4800

> <Gold.Chemscore.Hbond>
2.9427

> <Gold.Chemscore.Metal>
0.0000

> <Gold.Chemscore.Lipo>
76.6036

> <Gold.Chemscore.Internal_Hbond>
0.0000

> <Gold.Chemscore.DEClash>
0.0192

> <Gold.Chemscore.DEInternal>
0.5281

> <Gold.Chemscore.Rot>
1.9686

> <Gold.Chemscore.Internal.Correction>
   9.000000E+99

> <Gold.Chemscore.Hbonds>
donor molecule, donor type, donor heavy atom, donor atom, acceptor molecule, acceptor atom, score
      L1  H     1    17       P1  7948  0.91
      L1  H     4    21       P1  7948  0.95
      L1  H     4    35       P1  7957  1.00

> <Gold.Chemscore.Hbond.Weighted>
-9.8287

> <Gold.Chemscore.Metal.Weighted>
-0.0000

> <Gold.Chemscore.Lipo.Weighted>
-8.9626

> <Gold.Chemscore.Internal_Hbond.Weighted>
0.0000

> <Gold.Chemscore.DEClash.Weighted>
0.0192

> <Gold.Chemscore.DEInternal.Weighted>
0.5281

> <Gold.Chemscore.Rot.Weighted>
5.0396

> <Gold.Chemscore.Internal.Correction.Weighted>
   9.000000E+99

> <Gold.Protein.RotatedTorsions>
[ 6907 6896 6895 6894 ] final   96.34 input  -60.11 | X-H torsion
[ 7974 7965 7964 7962 ] final  162.71 input  175.53 | X-H torsion
[ 8008 7997 7996 7995 ] final  155.13 input   59.86 | X-H torsion
[ 10167 10162 10161 10158 ] final  121.48 input  -65.29 | X-H torsion
[ 10718 10713 10712 10709 ] final -133.37 input   66.30 | X-H torsion
[ 10763 10752 10751 10750 ] final   48.70 input  -60.55 | X-H torsion
[ 11005 11000 10999 10996 ] final  179.88 input  -57.11 | X-H torsion

> <Gold.Protein.ActiveResidues>
 VAL166  LYS551  ARG553  GLY616  TRP617  ASP618  TYR619  PRO620  LYS621  CYS622 
 ASP623  PHE694  ASN695  SER759  ASP760  ASP761  ALA762  ILE779  LEU786  VAL792 
 PHE793  MET794  SER795  GLU796  ALA797  LYS798  CYS799  TRP800  GLU811  SER814 

> <Gold.Protein.RotatedAtoms>
  152.5436  134.0902  159.8273 H   0  0  0  0  0  0  0  0  0  0  0  0  # atno 6907 bound_to 6896
  151.0992  133.5249  159.2618 H   0  0  0  0  0  0  0  0  0  0  0  0  # atno 6908 bound_to 6896
  151.2010  135.0451  159.8926 H   0  0  0  0  0  0  0  0  0  0  0  0  # atno 6909 bound_to 6896
  144.7624  139.8079  143.6328 H   0  0  0  0  0  0  0  0  0  0  0  0  # atno 7974 bound_to 7965
  156.2495  140.1948  156.6753 H   0  0  0  0  0  0  0  0  0  0  0  0  # atno 8008 bound_to 7997
  154.6362  140.0589  156.9817 H   0  0  0  0  0  0  0  0  0  0  0  0  # atno 8009 bound_to 7997
  155.1633  140.3262  155.4409 H   0  0  0  0  0  0  0  0  0  0  0  0  # atno 8010 bound_to 7997
  139.5917  144.7027  151.3275 H   0  0  0  0  0  0  0  0  0  0  0  0  # atno 10167 bound_to 10162
  156.2443  130.7114  151.0988 H   0  0  0  0  0  0  0  0  0  0  0  0  # atno 10718 bound_to 10713
  152.9790  135.5935  154.3968 H   0  0  0  0  0  0  0  0  0  0  0  0  # atno 10763 bound_to 10752
  154.3618  135.2767  155.2317 H   0  0  0  0  0  0  0  0  0  0  0  0  # atno 10764 bound_to 10752
  154.4311  135.6036  153.6124 H   0  0  0  0  0  0  0  0  0  0  0  0  # atno 10765 bound_to 10752
  140.4111  134.6691  157.4614 H   0  0  0  0  0  0  0  0  0  0  0  0  # atno 11005 bound_to 11000
  146.1699  139.4845  142.9934 LP  0  0  0  0  0  0  0  0  0  0  0  0  # atno 17320 bound_to 7965
  145.6578  141.0248  143.1725 LP  0  0  0  0  0  0  0  0  0  0  0  0  # atno 17321 bound_to 7965
  140.7178  143.7218  150.7690 LP  0  0  0  0  0  0  0  0  0  0  0  0  # atno 17342 bound_to 10162
  140.0775  143.5000  152.2547 LP  0  0  0  0  0  0  0  0  0  0  0  0  # atno 17343 bound_to 10162
  157.7188  131.0694  150.6219 LP  0  0  0  0  0  0  0  0  0  0  0  0  # atno 17370 bound_to 10713
  156.6295  130.4428  149.5792 LP  0  0  0  0  0  0  0  0  0  0  0  0  # atno 17371 bound_to 10713
  140.0267  134.6467  155.9163 LP  0  0  0  0  0  0  0  0  0  0  0  0  # atno 17394 bound_to 11000
  141.1821  133.6548  156.5062 LP  0  0  0  0  0  0  0  0  0  0  0  0  # atno 17395 bound_to 11000

$$$$
