AV-unprocessed.smi:2931|AV-procd|sdf|11242|dock5
  -GOLD-   2272016133D 1   1.00000     0.00000
 Structure written by MMmdl.
 42 43  0  0  0  0  0  0  0  0  2 V2000
  141.7252  134.2494  152.8931 C   0  0  0  0  0  0  0  0  0  0  0  0
  143.0821  133.7083  152.6639 N   0  3  1  0  0  0  0  0  0  0  0  0
  143.2160  133.0571  151.3369 C   0  0  0  0  0  0  0  0  0  0  0  0
  144.5926  132.3884  151.1891 C   0  0  0  0  0  0  0  0  0  0  0  0
  145.7254  133.3964  151.4275 C   0  0  0  0  0  0  0  0  0  0  0  0
  145.5427  134.0913  152.7894 C   0  0  1  0  0  0  0  0  0  0  0  0
  146.5625  135.1178  152.9796 N   0  0  0  0  0  0  0  0  0  0  0  0
  146.5743  136.0179  153.9721 C   0  0  0  0  0  0  0  0  0  0  0  0
  145.6977  136.1100  154.8310 O   0  0  0  0  0  0  0  0  0  0  0  0
  147.6673  136.7914  153.9271 N   0  0  0  0  0  0  0  0  0  0  0  0
  148.0020  137.8290  154.8985 C   0  0  0  0  0  0  0  0  0  0  0  0
  148.6738  139.0618  154.2592 C   0  0  0  0  0  0  0  0  0  0  0  0
  150.1336  139.2296  154.6465 C   0  0  0  0  0  0  0  0  0  0  0  0
  151.1084  138.3108  154.2043 C   0  0  0  0  0  0  0  0  0  0  0  0
  152.4493  138.5190  154.5839 C   0  0  0  0  0  0  0  0  0  0  0  0
  152.8506  139.5561  155.3500 N   0  0  0  0  0  0  0  0  0  0  0  0
  151.9118  140.4306  155.7710 C   0  0  0  0  0  0  0  0  0  0  0  0
  150.5447  140.3137  155.4487 C   0  0  0  0  0  0  0  0  0  0  0  0
  144.1413  134.7224  152.8928 C   0  0  0  0  0  0  0  0  0  0  0  0
  141.4977  135.0481  152.1860 H   0  0  0  0  0  0  0  0  0  0  0  0
  141.6367  134.6503  153.9033 H   0  0  0  0  0  0  0  0  0  0  0  0
  140.9742  133.4669  152.7798 H   0  0  0  0  0  0  0  0  0  0  0  0
  142.4328  132.3076  151.2163 H   0  0  0  0  0  0  0  0  0  0  0  0
  143.0710  133.7981  150.5490 H   0  0  0  0  0  0  0  0  0  0  0  0
  144.6785  131.5667  151.9013 H   0  0  0  0  0  0  0  0  0  0  0  0
  144.6891  131.9480  150.1961 H   0  0  0  0  0  0  0  0  0  0  0  0
  146.6900  132.8887  151.3846 H   0  0  0  0  0  0  0  0  0  0  0  0
  145.7276  134.1380  150.6271 H   0  0  0  0  0  0  0  0  0  0  0  0
  145.6326  133.3441  153.5807 H   0  0  0  0  0  0  0  0  0  0  0  0
  147.3333  135.1232  152.3277 H   0  0  0  0  0  0  0  0  0  0  0  0
  148.3321  136.6357  153.1834 H   0  0  0  0  0  0  0  0  0  0  0  0
  147.0708  138.1339  155.3765 H   0  0  0  0  0  0  0  0  0  0  0  0
  148.6323  137.4172  155.6878 H   0  0  0  0  0  0  0  0  0  0  0  0
  148.6041  138.9953  153.1732 H   0  0  0  0  0  0  0  0  0  0  0  0
  148.1276  139.9636  154.5382 H   0  0  0  0  0  0  0  0  0  0  0  0
  150.8391  137.4676  153.5851 H   0  0  0  0  0  0  0  0  0  0  0  0
  153.2201  137.8350  154.2615 H   0  0  0  0  0  0  0  0  0  0  0  0
  152.2604  141.2500  156.3817 H   0  0  0  0  0  0  0  0  0  0  0  0
  149.8315  141.0415  155.8072 H   0  0  0  0  0  0  0  0  0  0  0  0
  144.0320  135.5319  152.1689 H   0  0  0  0  0  0  0  0  0  0  0  0
  144.0110  135.1619  153.8829 H   0  0  0  0  0  0  0  0  0  0  0  0
  143.2214  132.9848  153.3551 H   0  0  0  0  0  0  0  0  0  0  0  0
  1  2  1  0  0  0  0
  1 20  1  0  0  0  0
  1 21  1  0  0  0  0
  1 22  1  0  0  0  0
  2 19  1  0  0  0  0
  2  3  1  0  0  0  0
  2 42  1  0  0  0  0
  3  4  1  0  0  0  0
  3 23  1  0  0  0  0
  3 24  1  0  0  0  0
  4  5  1  0  0  0  0
  4 25  1  0  0  0  0
  4 26  1  0  0  0  0
  5  6  1  0  0  0  0
  5 27  1  0  0  0  0
  5 28  1  0  0  0  0
  6  7  1  0  0  0  0
  6 19  1  0  0  0  0
  6 29  1  0  0  0  0
  7  8  1  0  0  0  0
  7 30  1  0  0  0  0
  8  9  2  0  0  0  0
  8 10  1  0  0  0  0
 10 11  1  0  0  0  0
 10 31  1  0  0  0  0
 11 12  1  0  0  0  0
 11 32  1  0  0  0  0
 11 33  1  0  0  0  0
 12 13  1  0  0  0  0
 12 34  1  0  0  0  0
 12 35  1  0  0  0  0
 13 18  1  0  0  0  0
 13 14  2  0  0  0  0
 14 15  1  0  0  0  0
 14 36  1  0  0  0  0
 15 16  2  0  0  0  0
 15 37  1  0  0  0  0
 16 17  1  0  0  0  0
 17 18  2  0  0  0  0
 17 38  1  0  0  0  0
 18 39  1  0  0  0  0
 19 40  1  0  0  0  0
 19 41  1  0  0  0  0
M  CHG  1   2   1
M  END
> <s_m_source_file>
AV-unprocessed.smi

> <i_m_source_file_index>
2931

> <i_lp_mmshare_version>
43012

> <i_f3d_flags>
0

> <s_epik_input>
W0NIM11OMVtDSDJdW0NIMl1bQ0gyXVtDQEhdKFtDSDJdMSlbTkhdQyg9TylbTkhdW0NIMl1bQ0gyXWMyW2NIXVtjSF1uW2NIXVtjSF0y

> <s_epik_cmdline>
J2VwaWtfcHl0aG9uJywgJy1waCcsICc3LjAnLCAnLXRuJywgJzgnLCAnLW1hJywgJzIwMCcsICctbWV0YWxfYmluZGluZycsICctaW1hZScsICc8aW5maWxlLm1hZT4nLCAnLW9tYWUnLCAnPG91dGZpbGUubWFlPic=

> <r_epik_Ionization_Penalty>
0.0573876

> <r_epik_Ionization_Penalty_Charging>
0.00229982

> <r_epik_Ionization_Penalty_Neutral>
0.0550878

> <r_epik_State_Penalty>
0.0473925

> <r_epik_Charging_Adjusted_Penalty>
0.0496923

> <i_epik_Tot_Q>
1

> <i_epik_Tot_abs_Q>
1

> <r_epik_Metal_State_Penalty>
0.0433388

> <b_epik_Metal_Only>
0

> <s_lp_Force_Field>
OPLS_2005

> <r_lp_Energy>
13.6108

> <b_lp_Chiralities_Consistent>
1

> <s_lp_Variant>
AV-unprocessed.smi:2931-1

> <Gold.Version>
5.8.1

> <Gold.Id.Protein>
6NUR|6NUR_protein|mol2

> <Gold.PLP.Fitness>
46.7839

> <Gold.PLP.PLP>
-33.5382

> <Gold.PLP.part.hbond>
-4.0000

> <Gold.PLP.part.metal>
0.0000

> <Gold.PLP.part.buried>
-3.9897

> <Gold.PLP.part.nonpolar>
-25.6610

> <Gold.PLP.part.repulsive>
0.0267

> <Gold.PLP.ligand.clash>
0.0000

> <Gold.PLP.ligand.torsion>
0.6837

> <Gold.PLP.Chemscore.Hbond>
4.8640

> <Gold.PLP.Chemscore.CHOScore>
0.0000

> <Gold.PLP.Chemscore.Metal>
0.0000

> <Gold.Chemscore.Hbonds>
donor molecule, donor type, donor heavy atom, donor atom, acceptor molecule, acceptor atom, score
      L1  H     2    42       P1 10957  2.00
      L1  H     7    30       P1  7948  0.83
      L1  H    10    31       P1  7948  0.96
      P1  H  7997  8010       L1    16  1.00

> <Gold.PLP.Chemscore.Internal.Correction>
0.0211

> <Gold.Rescore>
     Score         DG    S(hbond)    S(metal)    S(lipo)     H(rot)  DE(clash)    DE(int)     intcor
     20.97     -22.94       3.70        0.00      77.63       1.56       0.02       1.95       ----

> <Gold.Chemscore.Fitness>
20.9694

> <Gold.Chemscore.DG>
-22.9382

> <Gold.Chemscore.ZeroCoef>
-5.4800

> <Gold.Chemscore.Hbond>
3.7028

> <Gold.Chemscore.Metal>
0.0000

> <Gold.Chemscore.Lipo>
77.6275

> <Gold.Chemscore.Internal_Hbond>
0.0000

> <Gold.Chemscore.DEClash>
0.0162

> <Gold.Chemscore.DEInternal>
1.9526

> <Gold.Chemscore.Rot>
1.5592

> <Gold.Chemscore.Internal.Correction>
   9.000000E+99

> <Gold.Chemscore.Hbonds>
donor molecule, donor type, donor heavy atom, donor atom, acceptor molecule, acceptor atom, score
      L1  H     2    42       P1 10957  0.76
      L1  H     7    30       P1  7948  0.81
      L1  H    10    31       P1  7948  0.91
      P1  H  7997  8010       L1    16  0.50

> <Gold.Chemscore.Hbond.Weighted>
-12.3673

> <Gold.Chemscore.Metal.Weighted>
-0.0000

> <Gold.Chemscore.Lipo.Weighted>
-9.0824

> <Gold.Chemscore.Internal_Hbond.Weighted>
0.0000

> <Gold.Chemscore.DEClash.Weighted>
0.0162

> <Gold.Chemscore.DEInternal.Weighted>
1.9526

> <Gold.Chemscore.Rot.Weighted>
3.9915

> <Gold.Chemscore.Internal.Correction.Weighted>
   9.000000E+99

> <Gold.Protein.RotatedTorsions>
[ 6907 6896 6895 6894 ] final  -50.29 input  -60.11 | X-H torsion
[ 7974 7965 7964 7962 ] final  -61.92 input  175.53 | X-H torsion
[ 8008 7997 7996 7995 ] final   95.94 input   59.86 | X-H torsion
[ 10167 10162 10161 10158 ] final   59.84 input  -65.29 | X-H torsion
[ 10718 10713 10712 10709 ] final -150.71 input   66.30 | X-H torsion
[ 10763 10752 10751 10750 ] final   74.24 input  -60.55 | X-H torsion
[ 11005 11000 10999 10996 ] final  -53.49 input  -57.11 | X-H torsion

> <Gold.Protein.ActiveResidues>
 VAL166  LYS551  ARG553  GLY616  TRP617  ASP618  TYR619  PRO620  LYS621  CYS622 
 ASP623  PHE694  ASN695  SER759  ASP760  ASP761  ALA762  ILE779  LEU786  VAL792 
 PHE793  MET794  SER795  GLU796  ALA797  LYS798  CYS799  TRP800  GLU811  SER814 

> <Gold.Protein.RotatedAtoms>
  150.8722  134.8098  159.7162 H   0  0  0  0  0  0  0  0  0  0  0  0  # atno 6907 bound_to 6896
  152.4722  134.4929  159.9711 H   0  0  0  0  0  0  0  0  0  0  0  0  # atno 6908 bound_to 6896
  151.5016  133.3465  159.2905 H   0  0  0  0  0  0  0  0  0  0  0  0  # atno 6909 bound_to 6896
  145.7976  140.8673  143.0248 H   0  0  0  0  0  0  0  0  0  0  0  0  # atno 7974 bound_to 7965
  156.0743  140.3279  155.7615 H   0  0  0  0  0  0  0  0  0  0  0  0  # atno 8008 bound_to 7997
  155.5255  140.0589  157.2916 H   0  0  0  0  0  0  0  0  0  0  0  0  # atno 8009 bound_to 7997
  154.4547  140.1936  156.0432 H   0  0  0  0  0  0  0  0  0  0  0  0  # atno 8010 bound_to 7997
  140.1720  144.4267  150.6656 H   0  0  0  0  0  0  0  0  0  0  0  0  # atno 10167 bound_to 10162
  156.4497  130.8162  151.2393 H   0  0  0  0  0  0  0  0  0  0  0  0  # atno 10718 bound_to 10713
  153.0574  135.5033  154.8013 H   0  0  0  0  0  0  0  0  0  0  0  0  # atno 10763 bound_to 10752
  154.6828  135.2971  154.9591 H   0  0  0  0  0  0  0  0  0  0  0  0  # atno 10764 bound_to 10752
  154.0371  135.6722  153.4839 H   0  0  0  0  0  0  0  0  0  0  0  0  # atno 10765 bound_to 10752
  141.0978  133.6622  156.4180 H   0  0  0  0  0  0  0  0  0  0  0  0  # atno 11005 bound_to 11000
  144.6773  140.0213  143.7483 LP  0  0  0  0  0  0  0  0  0  0  0  0  # atno 17320 bound_to 7965
  145.9911  139.3016  143.0984 LP  0  0  0  0  0  0  0  0  0  0  0  0  # atno 17321 bound_to 7965
  140.6575  143.2242  151.5933 LP  0  0  0  0  0  0  0  0  0  0  0  0  # atno 17342 bound_to 10162
  139.5333  144.2852  152.1197 LP  0  0  0  0  0  0  0  0  0  0  0  0  # atno 17343 bound_to 10162
  157.7503  131.0142  150.3453 LP  0  0  0  0  0  0  0  0  0  0  0  0  # atno 17370 bound_to 10713
  156.3829  130.3884  149.7088 LP  0  0  0  0  0  0  0  0  0  0  0  0  # atno 17371 bound_to 10713
  140.5096  134.6408  157.5279 LP  0  0  0  0  0  0  0  0  0  0  0  0  # atno 17394 bound_to 11000
  139.9820  134.7121  155.9841 LP  0  0  0  0  0  0  0  0  0  0  0  0  # atno 17395 bound_to 11000

$$$$
