AV-unprocessed.smi:3086|AV-procd|sdf|11764|dock1
  -GOLD-   2272017143D 1   1.00000     0.00000
 Structure written by MMmdl.
 30 31  0  0  0  0  0  0  0  0  2 V2000
  151.7500  141.9185  158.5561 C   0  0  0  0  0  0  0  0  0  0  0  0
  151.5632  141.1288  157.3058 C   0  0  0  0  0  0  0  0  0  0  0  0
  152.4618  140.1980  156.8738 N   0  0  0  0  0  0  0  0  0  0  0  0
  151.8669  139.7959  155.7561 C   0  0  0  0  0  0  0  0  0  0  0  0
  152.4333  138.7715  154.8274 C   0  0  0  0  0  0  0  0  0  0  0  0
  150.6943  140.4106  155.5371 N   0  0  0  0  0  0  0  0  0  0  0  0
  149.7581  140.3056  154.4227 C   0  0  2  0  0  0  0  0  0  0  0  0
  148.5156  141.1832  154.6664 C   0  0  0  0  0  0  0  0  0  0  0  0
  147.5322  141.0585  153.4926 C   0  0  0  0  0  0  0  0  0  0  0  0
  147.1720  139.5867  153.2291 C   0  0  0  0  0  0  0  0  0  0  0  0
  148.3918  138.7803  153.0051 N   0  3  0  0  0  0  0  0  0  0  0  0
  149.3403  138.8443  154.1383 C   0  0  0  0  0  0  0  0  0  0  0  0
  150.4928  141.3056  156.5356 N   0  0  0  0  0  0  0  0  0  0  0  0
  152.7166  141.6991  159.0105 H   0  0  0  0  0  0  0  0  0  0  0  0
  150.9678  141.6770  159.2761 H   0  0  0  0  0  0  0  0  0  0  0  0
  151.7058  142.9861  158.3393 H   0  0  0  0  0  0  0  0  0  0  0  0
  153.4481  138.5063  155.1257 H   0  0  0  0  0  0  0  0  0  0  0  0
  152.4648  139.1598  153.8091 H   0  0  0  0  0  0  0  0  0  0  0  0
  151.8201  137.8704  154.8441 H   0  0  0  0  0  0  0  0  0  0  0  0
  150.2670  140.6772  153.5323 H   0  0  0  0  0  0  0  0  0  0  0  0
  148.0205  140.8820  155.5910 H   0  0  0  0  0  0  0  0  0  0  0  0
  148.8085  142.2259  154.7961 H   0  0  0  0  0  0  0  0  0  0  0  0
  146.6290  141.6328  153.7009 H   0  0  0  0  0  0  0  0  0  0  0  0
  147.9754  141.4942  152.5962 H   0  0  0  0  0  0  0  0  0  0  0  0
  146.6195  139.1746  154.0745 H   0  0  0  0  0  0  0  0  0  0  0  0
  146.5253  139.5057  152.3551 H   0  0  0  0  0  0  0  0  0  0  0  0
  148.1253  137.8173  152.8549 H   0  0  0  0  0  0  0  0  0  0  0  0
  150.2150  138.2378  153.9011 H   0  0  0  0  0  0  0  0  0  0  0  0
  148.8650  138.3925  155.0103 H   0  0  0  0  0  0  0  0  0  0  0  0
  148.8568  139.1229  152.1765 H   0  0  0  0  0  0  0  0  0  0  0  0
  1  2  1  0  0  0  0
  1 14  1  0  0  0  0
  1 15  1  0  0  0  0
  1 16  1  0  0  0  0
  2 13  2  0  0  0  0
  2  3  1  0  0  0  0
  3  4  2  0  0  0  0
  4  5  1  0  0  0  0
  4  6  1  0  0  0  0
  5 17  1  0  0  0  0
  5 18  1  0  0  0  0
  5 19  1  0  0  0  0
  6  7  1  0  0  0  0
  6 13  1  0  0  0  0
  7 12  1  0  0  0  0
  7  8  1  0  0  0  0
  7 20  1  0  0  0  0
  8  9  1  0  0  0  0
  8 21  1  0  0  0  0
  8 22  1  0  0  0  0
  9 10  1  0  0  0  0
  9 23  1  0  0  0  0
  9 24  1  0  0  0  0
 10 11  1  0  0  0  0
 10 25  1  0  0  0  0
 10 26  1  0  0  0  0
 11 12  1  0  0  0  0
 11 27  1  0  0  0  0
 11 30  1  0  0  0  0
 12 28  1  0  0  0  0
 12 29  1  0  0  0  0
M  CHG  1  11   1
M  END
> <s_m_source_file>
AV-unprocessed.smi

> <i_m_source_file_index>
3086

> <i_lp_mmshare_version>
43012

> <i_f3d_flags>
0

> <s_epik_input>
W0NIM11jMW5jKFtDSDNdKW4objEpW0NAQEhdMltDSDJdW0NIMl1bQ0gyXVtOSF1bQ0gyXTI=

> <s_epik_cmdline>
J2VwaWtfcHl0aG9uJywgJy1waCcsICc3LjAnLCAnLXRuJywgJzgnLCAnLW1hJywgJzIwMCcsICctbWV0YWxfYmluZGluZycsICctaW1hZScsICc8aW5maWxlLm1hZT4nLCAnLW9tYWUnLCAnPG91dGZpbGUubWFlPic=

> <r_lp_tautomer_probability>
1

> <r_epik_Ionization_Penalty>
0.000522417

> <r_epik_Ionization_Penalty_Charging>
0.000474443

> <r_epik_Ionization_Penalty_Neutral>
4.79736e-05

> <r_epik_State_Penalty>
-0

> <r_epik_Charging_Adjusted_Penalty>
0.000474443

> <i_epik_Tot_Q>
1

> <i_epik_Tot_abs_Q>
1

> <r_epik_Metal_State_Penalty>
-0

> <b_epik_Metal_Only>
0

> <s_lp_Force_Field>
OPLS_2005

> <r_lp_Energy>
16.4369

> <b_lp_Chiralities_Consistent>
1

> <s_lp_Variant>
AV-unprocessed.smi:3086-1

> <Gold.Version>
5.8.1

> <Gold.Id.Protein>
6NUR|6NUR_protein|mol2

> <Gold.PLP.Fitness>
39.1946

> <Gold.PLP.PLP>
-29.1362

> <Gold.PLP.part.hbond>
-2.9698

> <Gold.PLP.part.metal>
0.0000

> <Gold.PLP.part.buried>
0.6392

> <Gold.PLP.part.nonpolar>
-24.8521

> <Gold.PLP.part.repulsive>
0.1310

> <Gold.PLP.ligand.clash>
0.0000

> <Gold.PLP.ligand.torsion>
0.1035

> <Gold.PLP.Chemscore.Hbond>
3.4080

> <Gold.PLP.Chemscore.CHOScore>
0.0000

> <Gold.PLP.Chemscore.Metal>
0.0000

> <Gold.Chemscore.Hbonds>
donor molecule, donor type, donor heavy atom, donor atom, acceptor molecule, acceptor atom, score
      L1  H    11    27       P1  7948  1.33
      L1  H    11    30       P1  7957  1.00
      P1  H  7997  8009       L1     3  1.00

> <Gold.PLP.Chemscore.Internal.Correction>
0.0414

> <Gold.Rescore>
     Score         DG    S(hbond)    S(metal)    S(lipo)     H(rot)  DE(clash)    DE(int)     intcor
     17.59     -17.81       2.68        0.00      50.64       1.00       0.08       0.14       ----

> <Gold.Chemscore.Fitness>
17.5919

> <Gold.Chemscore.DG>
-17.8097

> <Gold.Chemscore.ZeroCoef>
-5.4800

> <Gold.Chemscore.Hbond>
2.6839

> <Gold.Chemscore.Metal>
0.0000

> <Gold.Chemscore.Lipo>
50.6440

> <Gold.Chemscore.Internal_Hbond>
0.0000

> <Gold.Chemscore.DEClash>
0.0754

> <Gold.Chemscore.DEInternal>
0.1424

> <Gold.Chemscore.Rot>
1.0000

> <Gold.Chemscore.Internal.Correction>
   9.000000E+99

> <Gold.Chemscore.Hbonds>
donor molecule, donor type, donor heavy atom, donor atom, acceptor molecule, acceptor atom, score
      L1  H    11    27       P1  7948  0.63
      L1  H    11    30       P1  7957  0.93
      P1  H  7997  8009       L1     3  0.63

> <Gold.Chemscore.Hbond.Weighted>
-8.9644

> <Gold.Chemscore.Metal.Weighted>
-0.0000

> <Gold.Chemscore.Lipo.Weighted>
-5.9253

> <Gold.Chemscore.Internal_Hbond.Weighted>
0.0000

> <Gold.Chemscore.DEClash.Weighted>
0.0754

> <Gold.Chemscore.DEInternal.Weighted>
0.1424

> <Gold.Chemscore.Rot.Weighted>
2.5600

> <Gold.Chemscore.Internal.Correction.Weighted>
   9.000000E+99

> <Gold.Protein.RotatedTorsions>
[ 6907 6896 6895 6894 ] final   11.62 input  -60.11 | X-H torsion
[ 7974 7965 7964 7962 ] final   40.46 input  175.53 | X-H torsion
[ 8008 7997 7996 7995 ] final -177.54 input   59.86 | X-H torsion
[ 10167 10162 10161 10158 ] final  -39.05 input  -65.29 | X-H torsion
[ 10718 10713 10712 10709 ] final   12.15 input   66.30 | X-H torsion
[ 10763 10752 10751 10750 ] final   66.55 input  -60.55 | X-H torsion
[ 11005 11000 10999 10996 ] final  -34.03 input  -57.11 | X-H torsion

> <Gold.Protein.ActiveResidues>
 VAL166  LYS551  ARG553  GLY616  TRP617  ASP618  TYR619  PRO620  LYS621  CYS622 
 ASP623  PHE694  ASN695  SER759  ASP760  ASP761  ALA762  ILE779  LEU786  VAL792 
 PHE793  MET794  SER795  GLU796  ALA797  LYS798  CYS799  TRP800  GLU811  SER814 

> <Gold.Protein.RotatedAtoms>
  151.7572  135.0819  160.0339 H   0  0  0  0  0  0  0  0  0  0  0  0  # atno 6907 bound_to 6896
  152.3377  133.6027  159.5863 H   0  0  0  0  0  0  0  0  0  0  0  0  # atno 6908 bound_to 6896
  150.7460  133.9686  159.3580 H   0  0  0  0  0  0  0  0  0  0  0  0  # atno 6909 bound_to 6896
  146.0903  139.5530  142.9480 H   0  0  0  0  0  0  0  0  0  0  0  0  # atno 7974 bound_to 7965
  156.0081  140.1235  157.0481 H   0  0  0  0  0  0  0  0  0  0  0  0  # atno 8008 bound_to 7997
  154.4266  140.1093  156.5861 H   0  0  0  0  0  0  0  0  0  0  0  0  # atno 8009 bound_to 7997
  155.6118  140.3471  155.4627 H   0  0  0  0  0  0  0  0  0  0  0  0  # atno 8010 bound_to 7997
  140.7075  143.3238  151.2727 H   0  0  0  0  0  0  0  0  0  0  0  0  # atno 10167 bound_to 10162
  157.0060  130.6098  149.5702 H   0  0  0  0  0  0  0  0  0  0  0  0  # atno 10718 bound_to 10713
  153.0145  135.5316  154.6842 H   0  0  0  0  0  0  0  0  0  0  0  0  # atno 10763 bound_to 10752
  154.5994  135.2866  155.0554 H   0  0  0  0  0  0  0  0  0  0  0  0  # atno 10764 bound_to 10752
  154.1617  135.6546  153.5040 H   0  0  0  0  0  0  0  0  0  0  0  0  # atno 10765 bound_to 10752
  140.9683  133.7124  156.1482 H   0  0  0  0  0  0  0  0  0  0  0  0  # atno 11005 bound_to 11000
  145.6052  141.0349  143.1997 LP  0  0  0  0  0  0  0  0  0  0  0  0  # atno 17320 bound_to 7965
  144.7355  139.7598  143.7331 LP  0  0  0  0  0  0  0  0  0  0  0  0  # atno 17321 bound_to 7965
  139.6701  144.0036  152.2747 LP  0  0  0  0  0  0  0  0  0  0  0  0  # atno 17342 bound_to 10162
  139.9631  144.6544  150.8060 LP  0  0  0  0  0  0  0  0  0  0  0  0  # atno 17343 bound_to 10162
  156.0153  130.5247  150.8116 LP  0  0  0  0  0  0  0  0  0  0  0  0  # atno 17370 bound_to 10713
  157.5355  131.0938  150.9898 LP  0  0  0  0  0  0  0  0  0  0  0  0  # atno 17371 bound_to 10713
  140.7366  134.4196  157.5560 LP  0  0  0  0  0  0  0  0  0  0  0  0  # atno 17394 bound_to 11000
  139.8903  134.8809  156.2378 LP  0  0  0  0  0  0  0  0  0  0  0  0  # atno 17395 bound_to 11000

$$$$
