AV-unprocessed.smi:2179|AV-procd|sdf|8857|dock3
  -GOLD-   2272012 53D 1   1.00000     0.00000
 Structure written by MMmdl.
 47 48  0  0  0  0  0  0  0  0  1 V2000
  145.1572  134.7004  151.0657 C   0  0  0  0  0  0  0  0  0  0  0  0
  144.8389  135.9606  151.8633 C   0  0  0  0  0  0  0  0  0  0  0  0
  143.6997  136.1519  152.2871 O   0  0  0  0  0  0  0  0  0  0  0  0
  145.8572  136.8104  152.0630 N   0  0  0  0  0  0  0  0  0  0  0  0
  145.7660  138.0687  152.7934 C   0  0  0  0  0  0  0  0  0  0  0  0
  146.6948  139.1391  152.1938 C   0  0  0  0  0  0  0  0  0  0  0  0
  147.5255  139.7565  153.2198 N   0  0  0  0  0  0  0  0  0  0  0  0
  147.0691  140.2884  154.3651 C   0  0  0  0  0  0  0  0  0  0  0  0
  145.8796  140.2994  154.6824 O   0  0  0  0  0  0  0  0  0  0  0  0
  148.1190  140.8205  155.2970 C   0  0  0  0  0  0  0  0  0  0  0  0
  149.4973  140.6517  155.0400 C   0  0  0  0  0  0  0  0  0  0  0  0
  150.4342  141.1909  155.9419 C   0  0  0  0  0  0  0  0  0  0  0  0
  149.9728  141.8974  157.0774 C   0  0  0  0  0  0  0  0  0  0  0  0
  150.8960  142.4463  157.9926 N   0  0  0  0  0  0  0  0  0  0  0  0
  150.3524  143.4359  158.9187 C   0  0  0  0  0  0  0  0  0  0  0  0
  151.4817  144.2025  159.6346 C   0  0  2  0  0  0  0  0  0  0  0  0
  152.1723  145.2486  158.7417 C   0  0  0  0  0  0  0  0  0  0  0  0
  152.4132  143.2854  160.2129 O   0  0  0  0  0  0  0  0  0  0  0  0
  152.9839  142.3540  159.2946 C   0  0  1  0  0  0  0  0  0  0  0  0
  153.9478  141.4509  160.0712 C   0  0  0  0  0  0  0  0  0  0  0  0
  151.8635  141.5474  158.6152 C   0  0  0  0  0  0  0  0  0  0  0  0
  148.6494  142.0639  157.3192 N   0  0  0  0  0  0  0  0  0  0  0  0
  147.7546  141.5464  156.4511 C   0  0  0  0  0  0  0  0  0  0  0  0
  145.8248  134.0515  151.6329 H   0  0  0  0  0  0  0  0  0  0  0  0
  145.6403  134.9549  150.1217 H   0  0  0  0  0  0  0  0  0  0  0  0
  144.2465  134.1437  150.8424 H   0  0  0  0  0  0  0  0  0  0  0  0
  146.7597  136.5701  151.6796 H   0  0  0  0  0  0  0  0  0  0  0  0
  144.7292  138.4042  152.7523 H   0  0  0  0  0  0  0  0  0  0  0  0
  145.9980  137.9068  153.8473 H   0  0  0  0  0  0  0  0  0  0  0  0
  147.3587  138.6910  151.4543 H   0  0  0  0  0  0  0  0  0  0  0  0
  146.1153  139.9012  151.6698 H   0  0  0  0  0  0  0  0  0  0  0  0
  148.5214  139.7691  153.0534 H   0  0  0  0  0  0  0  0  0  0  0  0
  149.8444  140.1172  154.1677 H   0  0  0  0  0  0  0  0  0  0  0  0
  151.4890  141.0476  155.7602 H   0  0  0  0  0  0  0  0  0  0  0  0
  149.6930  144.1457  158.4209 H   0  0  0  0  0  0  0  0  0  0  0  0
  149.7438  142.9108  159.6561 H   0  0  0  0  0  0  0  0  0  0  0  0
  151.0355  144.7463  160.4678 H   0  0  0  0  0  0  0  0  0  0  0  0
  151.4630  146.0136  158.4251 H   0  0  0  0  0  0  0  0  0  0  0  0
  152.5949  144.8082  157.8388 H   0  0  0  0  0  0  0  0  0  0  0  0
  152.9778  145.7484  159.2802 H   0  0  0  0  0  0  0  0  0  0  0  0
  153.5593  142.8887  158.5386 H   0  0  0  0  0  0  0  0  0  0  0  0
  154.4202  140.7224  159.4118 H   0  0  0  0  0  0  0  0  0  0  0  0
  153.4285  140.9034  160.8584 H   0  0  0  0  0  0  0  0  0  0  0  0
  154.7390  142.0371  160.5391 H   0  0  0  0  0  0  0  0  0  0  0  0
  151.3518  140.9207  159.3470 H   0  0  0  0  0  0  0  0  0  0  0  0
  152.2996  140.8849  157.8662 H   0  0  0  0  0  0  0  0  0  0  0  0
  146.7160  141.7160  156.6955 H   0  0  0  0  0  0  0  0  0  0  0  0
  1  2  1  0  0  0  0
  1 24  1  0  0  0  0
  1 25  1  0  0  0  0
  1 26  1  0  0  0  0
  2  3  2  0  0  0  0
  2  4  1  0  0  0  0
  4  5  1  0  0  0  0
  4 27  1  0  0  0  0
  5  6  1  0  0  0  0
  5 28  1  0  0  0  0
  5 29  1  0  0  0  0
  6  7  1  0  0  0  0
  6 30  1  0  0  0  0
  6 31  1  0  0  0  0
  7  8  1  0  0  0  0
  7 32  1  0  0  0  0
  8  9  2  0  0  0  0
  8 10  1  0  0  0  0
 10 23  1  0  0  0  0
 10 11  2  0  0  0  0
 11 12  1  0  0  0  0
 11 33  1  0  0  0  0
 12 13  2  0  0  0  0
 12 34  1  0  0  0  0
 13 14  1  0  0  0  0
 13 22  1  0  0  0  0
 14 21  1  0  0  0  0
 14 15  1  0  0  0  0
 15 16  1  0  0  0  0
 15 35  1  0  0  0  0
 15 36  1  0  0  0  0
 16 17  1  0  0  0  0
 16 18  1  0  0  0  0
 16 37  1  0  0  0  0
 17 38  1  0  0  0  0
 17 39  1  0  0  0  0
 17 40  1  0  0  0  0
 18 19  1  0  0  0  0
 19 20  1  0  0  0  0
 19 21  1  0  0  0  0
 19 41  1  0  0  0  0
 20 42  1  0  0  0  0
 20 43  1  0  0  0  0
 20 44  1  0  0  0  0
 21 45  1  0  0  0  0
 21 46  1  0  0  0  0
 22 23  2  0  0  0  0
 23 47  1  0  0  0  0
M  END
> <s_m_source_file>
AV-unprocessed.smi

> <i_m_source_file_index>
2179

> <i_lp_mmshare_version>
43012

> <i_f3d_flags>
0

> <s_epik_input>
W0NIM11DKD1PKVtOSF1bQ0gyXVtDSDJdW05IXUMoPU8pYzFbY0hdW2NIXWMobltjSF0xKU4yW0NIMl1bQ0BASF0oW0NIM10pT1tDQEBIXShbQ0gzXSlbQ0gyXTI=

> <s_epik_cmdline>
J2VwaWtfcHl0aG9uJywgJy1waCcsICc3LjAnLCAnLXRuJywgJzgnLCAnLW1hJywgJzIwMCcsICctbWV0YWxfYmluZGluZycsICctaW1hZScsICc8aW5maWxlLm1hZT4nLCAnLW9tYWUnLCAnPG91dGZpbGUubWFlPic=

> <r_lp_tautomer_probability>
1

> <r_epik_Ionization_Penalty>
2.00433e-05

> <r_epik_Ionization_Penalty_Charging>
0

> <r_epik_Ionization_Penalty_Neutral>
2.00433e-05

> <r_epik_State_Penalty>
-0

> <r_epik_Charging_Adjusted_Penalty>
0

> <i_epik_Tot_Q>
0

> <i_epik_Tot_abs_Q>
0

> <r_epik_Metal_State_Penalty>
-0

> <b_epik_Metal_Only>
0

> <s_lp_Force_Field>
OPLS_2005

> <r_lp_Energy>
15.6634

> <b_lp_Chiralities_Consistent>
1

> <s_lp_Variant>
AV-unprocessed.smi:2179-2

> <Gold.Version>
5.8.1

> <Gold.Id.Protein>
6NUR|6NUR_protein|mol2

> <Gold.PLP.Fitness>
46.6212

> <Gold.PLP.PLP>
-43.6876

> <Gold.PLP.part.hbond>
-2.0000

> <Gold.PLP.part.metal>
0.0000

> <Gold.PLP.part.buried>
-5.3493

> <Gold.PLP.part.nonpolar>
-38.1386

> <Gold.PLP.part.repulsive>
1.1763

> <Gold.PLP.ligand.clash>
0.0000

> <Gold.PLP.ligand.torsion>
0.8037

> <Gold.PLP.Chemscore.Hbond>
1.4000

> <Gold.PLP.Chemscore.CHOScore>
0.0000

> <Gold.PLP.Chemscore.Metal>
0.0000

> <Gold.Chemscore.Hbonds>
donor molecule, donor type, donor heavy atom, donor atom, acceptor molecule, acceptor atom, score
      L1  H     4    27       P1  7948  0.59
      L1  H     7    32       P1  7957  0.34

> <Gold.PLP.Chemscore.Internal.Correction>
0.3408

> <Gold.Rescore>
     Score         DG    S(hbond)    S(metal)    S(lipo)     H(rot)  DE(clash)    DE(int)     intcor
     13.60     -17.16       1.14        0.00     107.83       1.86       1.51       2.05       ----

> <Gold.Chemscore.Fitness>
13.5985

> <Gold.Chemscore.DG>
-17.1582

> <Gold.Chemscore.ZeroCoef>
-5.4800

> <Gold.Chemscore.Hbond>
1.1436

> <Gold.Chemscore.Metal>
0.0000

> <Gold.Chemscore.Lipo>
107.8340

> <Gold.Chemscore.Internal_Hbond>
0.0000

> <Gold.Chemscore.DEClash>
1.5134

> <Gold.Chemscore.DEInternal>
2.0462

> <Gold.Chemscore.Rot>
1.8586

> <Gold.Chemscore.Internal.Correction>
   9.000000E+99

> <Gold.Chemscore.Hbonds>
donor molecule, donor type, donor heavy atom, donor atom, acceptor molecule, acceptor atom, score
      L1  H     4    27       P1  7948  0.57
      L1  H     7    32       P1  7957  0.34

> <Gold.Chemscore.Hbond.Weighted>
-3.8195

> <Gold.Chemscore.Metal.Weighted>
-0.0000

> <Gold.Chemscore.Lipo.Weighted>
-12.6166

> <Gold.Chemscore.Internal_Hbond.Weighted>
0.0000

> <Gold.Chemscore.DEClash.Weighted>
1.5134

> <Gold.Chemscore.DEInternal.Weighted>
2.0462

> <Gold.Chemscore.Rot.Weighted>
4.7579

> <Gold.Chemscore.Internal.Correction.Weighted>
   9.000000E+99

> <Gold.Protein.RotatedTorsions>
[ 6907 6896 6895 6894 ] final -109.03 input  -60.11 | X-H torsion
[ 7974 7965 7964 7962 ] final   80.08 input  175.53 | X-H torsion
[ 8008 7997 7996 7995 ] final   68.53 input   59.86 | X-H torsion
[ 10167 10162 10161 10158 ] final   94.09 input  -65.29 | X-H torsion
[ 10718 10713 10712 10709 ] final -124.65 input   66.30 | X-H torsion
[ 10763 10752 10751 10750 ] final   56.80 input  -60.55 | X-H torsion
[ 11005 11000 10999 10996 ] final -113.99 input  -57.11 | X-H torsion

> <Gold.Protein.ActiveResidues>
 VAL166  LYS551  ARG553  GLY616  TRP617  ASP618  TYR619  PRO620  LYS621  CYS622 
 ASP623  PHE694  ASN695  SER759  ASP760  ASP761  ALA762  ILE779  LEU786  VAL792 
 PHE793  MET794  SER795  GLU796  ALA797  LYS798  CYS799  TRP800  GLU811  SER814 

> <Gold.Protein.RotatedAtoms>
  150.7537  133.9589  159.3509 H   0  0  0  0  0  0  0  0  0  0  0  0  # atno 6907 bound_to 6896
  151.7513  135.0830  160.0340 H   0  0  0  0  0  0  0  0  0  0  0  0  # atno 6908 bound_to 6896
  152.3464  133.6090  159.5949 H   0  0  0  0  0  0  0  0  0  0  0  0  # atno 6909 bound_to 6896
  145.6559  139.2459  143.1950 H   0  0  0  0  0  0  0  0  0  0  0  0  # atno 7974 bound_to 7965
  155.7097  140.3494  155.4968 H   0  0  0  0  0  0  0  0  0  0  0  0  # atno 8008 bound_to 7997
  155.9366  140.1094  157.1111 H   0  0  0  0  0  0  0  0  0  0  0  0  # atno 8009 bound_to 7997
  154.4095  140.1221  156.4859 H   0  0  0  0  0  0  0  0  0  0  0  0  # atno 8010 bound_to 7997
  139.8117  144.6770  150.9632 H   0  0  0  0  0  0  0  0  0  0  0  0  # atno 10167 bound_to 10162
  156.1606  130.6599  151.0044 H   0  0  0  0  0  0  0  0  0  0  0  0  # atno 10718 bound_to 10713
  152.9838  135.5663  154.5288 H   0  0  0  0  0  0  0  0  0  0  0  0  # atno 10763 bound_to 10752
  154.4763  135.2787  155.1607 H   0  0  0  0  0  0  0  0  0  0  0  0  # atno 10764 bound_to 10752
  154.3134  135.6284  153.5529 H   0  0  0  0  0  0  0  0  0  0  0  0  # atno 10765 bound_to 10752
  141.0580  133.9581  157.2719 H   0  0  0  0  0  0  0  0  0  0  0  0  # atno 11005 bound_to 11000
  146.1165  140.7362  142.9478 LP  0  0  0  0  0  0  0  0  0  0  0  0  # atno 17320 bound_to 7965
  144.7106  140.4024  143.7083 LP  0  0  0  0  0  0  0  0  0  0  0  0  # atno 17321 bound_to 7965
  140.7817  143.4179  151.0888 LP  0  0  0  0  0  0  0  0  0  0  0  0  # atno 17342 bound_to 10162
  139.7845  143.8307  152.3143 LP  0  0  0  0  0  0  0  0  0  0  0  0  # atno 17343 bound_to 10162
  157.6729  131.0857  150.7566 LP  0  0  0  0  0  0  0  0  0  0  0  0  # atno 17370 bound_to 10713
  156.7629  130.4804  149.5433 LP  0  0  0  0  0  0  0  0  0  0  0  0  # atno 17371 bound_to 10713
  139.9407  135.0191  156.8699 LP  0  0  0  0  0  0  0  0  0  0  0  0  # atno 17394 bound_to 11000
  140.5925  134.0248  155.7505 LP  0  0  0  0  0  0  0  0  0  0  0  0  # atno 17395 bound_to 11000

$$$$
