AV-unprocessed.smi:2772|AV-procd|sdf|10669|dock4
  -GOLD-   2272015113D 1   1.00000     0.00000
 Structure written by MMmdl.
 54 56  0  0  0  0  0  0  0  0  2 V2000
  151.3954  145.0000  158.4196 C   0  0  0  0  0  0  0  0  0  0  0  0
  152.0810  144.0594  159.3885 C   0  0  0  0  0  0  0  0  0  0  0  0
  152.8554  142.9769  158.9231 C   0  0  0  0  0  0  0  0  0  0  0  0
  153.4659  142.1341  159.8714 C   0  0  0  0  0  0  0  0  0  0  0  0
  153.2764  142.3919  161.2445 C   0  0  0  0  0  0  0  0  0  0  0  0
  153.9135  141.5327  162.1799 N   0  0  0  0  0  0  0  0  0  0  0  0
  154.5587  140.3775  161.9440 C   0  0  0  0  0  0  0  0  0  0  0  0
  154.7006  139.8535  160.8393 O   0  0  0  0  0  0  0  0  0  0  0  0
  155.0620  139.8630  163.0750 N   0  0  0  0  0  0  0  0  0  0  0  0
  155.8457  138.6340  163.1601 C   0  0  0  0  0  0  0  0  0  0  0  0
  155.2334  137.5539  162.2653 C   0  0  0  0  0  0  0  0  0  0  0  0
  155.9808  136.2181  162.4215 C   0  0  0  0  0  0  0  0  0  0  0  0
  155.9451  135.7292  163.8105 N   0  0  0  0  0  0  0  0  0  0  0  0
  156.5982  134.4050  163.9331 C   0  0  2  0  0  0  0  0  0  0  0  0
  156.1308  133.3833  162.8640 C   0  0  0  0  0  0  0  0  0  0  0  0
  154.6711  132.9471  163.0845 C   0  0  0  0  0  0  0  0  0  0  0  0
  154.4866  132.3607  164.4346 N   0  3  2  0  0  0  0  0  0  0  0  0
  153.1134  131.8549  164.6461 C   0  0  0  0  0  0  0  0  0  0  0  0
  154.9220  133.2826  165.5122 C   0  0  0  0  0  0  0  0  0  0  0  0
  156.3837  133.7207  165.3084 C   0  0  0  0  0  0  0  0  0  0  0  0
  156.5949  136.7376  164.6649 C   0  0  0  0  0  0  0  0  0  0  0  0
  155.8797  138.0977  164.5962 C   0  0  0  0  0  0  0  0  0  0  0  0
  152.4910  143.5151  161.6031 C   0  0  0  0  0  0  0  0  0  0  0  0
  151.9036  144.3291  160.6995 N   0  0  0  0  0  0  0  0  0  0  0  0
  151.6311  144.7451  157.3862 H   0  0  0  0  0  0  0  0  0  0  0  0
  151.7144  146.0275  158.5974 H   0  0  0  0  0  0  0  0  0  0  0  0
  150.3134  144.9494  158.5447 H   0  0  0  0  0  0  0  0  0  0  0  0
  152.9803  142.7935  157.8659 H   0  0  0  0  0  0  0  0  0  0  0  0
  154.0662  141.2972  159.5450 H   0  0  0  0  0  0  0  0  0  0  0  0
  153.9476  141.8746  163.1289 H   0  0  0  0  0  0  0  0  0  0  0  0
  154.8998  140.3607  163.9383 H   0  0  0  0  0  0  0  0  0  0  0  0
  156.8650  138.8303  162.8217 H   0  0  0  0  0  0  0  0  0  0  0  0
  154.1807  137.4106  162.5139 H   0  0  0  0  0  0  0  0  0  0  0  0
  155.2647  137.8721  161.2226 H   0  0  0  0  0  0  0  0  0  0  0  0
  155.4946  135.5202  161.7454 H   0  0  0  0  0  0  0  0  0  0  0  0
  157.0144  136.3206  162.0870 H   0  0  0  0  0  0  0  0  0  0  0  0
  157.6698  134.5652  163.8034 H   0  0  0  0  0  0  0  0  0  0  0  0
  156.2800  133.7275  161.8434 H   0  0  0  0  0  0  0  0  0  0  0  0
  156.7640  132.4980  162.9365 H   0  0  0  0  0  0  0  0  0  0  0  0
  153.9990  133.7972  162.9557 H   0  0  0  0  0  0  0  0  0  0  0  0
  154.3954  132.2091  162.3302 H   0  0  0  0  0  0  0  0  0  0  0  0
  152.3867  132.6673  164.6056 H   0  0  0  0  0  0  0  0  0  0  0  0
  153.0277  131.3669  165.6176 H   0  0  0  0  0  0  0  0  0  0  0  0
  152.8510  131.1224  163.8819 H   0  0  0  0  0  0  0  0  0  0  0  0
  154.2661  134.1542  165.5413 H   0  0  0  0  0  0  0  0  0  0  0  0
  154.8248  132.7815  166.4762 H   0  0  0  0  0  0  0  0  0  0  0  0
  157.0125  132.8301  165.3490 H   0  0  0  0  0  0  0  0  0  0  0  0
  156.7305  134.3208  166.1469 H   0  0  0  0  0  0  0  0  0  0  0  0
  156.5691  136.4401  165.7101 H   0  0  0  0  0  0  0  0  0  0  0  0
  157.6441  136.8460  164.3856 H   0  0  0  0  0  0  0  0  0  0  0  0
  156.3869  138.8076  165.2505 H   0  0  0  0  0  0  0  0  0  0  0  0
  154.8643  137.9935  164.9821 H   0  0  0  0  0  0  0  0  0  0  0  0
  152.3336  143.7981  162.6320 H   0  0  0  0  0  0  0  0  0  0  0  0
  155.0978  131.5579  164.4825 H   0  0  0  0  0  0  0  0  0  0  0  0
  1  2  1  0  0  0  0
  1 25  1  0  0  0  0
  1 26  1  0  0  0  0
  1 27  1  0  0  0  0
  2 24  1  0  0  0  0
  2  3  2  0  0  0  0
  3  4  1  0  0  0  0
  3 28  1  0  0  0  0
  4  5  2  0  0  0  0
  4 29  1  0  0  0  0
  5  6  1  0  0  0  0
  5 23  1  0  0  0  0
  6  7  1  0  0  0  0
  6 30  1  0  0  0  0
  7  8  2  0  0  0  0
  7  9  1  0  0  0  0
  9 10  1  0  0  0  0
  9 31  1  0  0  0  0
 10 22  1  0  0  0  0
 10 11  1  0  0  0  0
 10 32  1  0  0  0  0
 11 12  1  0  0  0  0
 11 33  1  0  0  0  0
 11 34  1  0  0  0  0
 12 13  1  0  0  0  0
 12 35  1  0  0  0  0
 12 36  1  0  0  0  0
 13 14  1  0  0  0  0
 13 21  1  0  0  0  0
 14 20  1  0  0  0  0
 14 15  1  0  0  0  0
 14 37  1  0  0  0  0
 15 16  1  0  0  0  0
 15 38  1  0  0  0  0
 15 39  1  0  0  0  0
 16 17  1  0  0  0  0
 16 40  1  0  0  0  0
 16 41  1  0  0  0  0
 17 18  1  0  0  0  0
 17 19  1  0  0  0  0
 17 54  1  0  0  0  0
 18 42  1  0  0  0  0
 18 43  1  0  0  0  0
 18 44  1  0  0  0  0
 19 20  1  0  0  0  0
 19 45  1  0  0  0  0
 19 46  1  0  0  0  0
 20 47  1  0  0  0  0
 20 48  1  0  0  0  0
 21 22  1  0  0  0  0
 21 49  1  0  0  0  0
 21 50  1  0  0  0  0
 22 51  1  0  0  0  0
 22 52  1  0  0  0  0
 23 24  2  0  0  0  0
 23 53  1  0  0  0  0
M  CHG  1  17   1
M  END
> <s_m_source_file>
AV-unprocessed.smi

> <i_m_source_file_index>
2772

> <i_lp_mmshare_version>
43012

> <i_f3d_flags>
0

> <s_epik_input>
W0NIM11jMVtjSF1bY0hdYyhbY0hdbjEpW05IXUMoPU8pW05IXVtDSF0yW0NIMl1bQ0gyXU4oW0NIMl1bQ0gyXTIpW0NIXTNbQ0gyXVtDSDJdTihbQ0gzXSlbQ0gyXVtDSDJdMw==

> <s_epik_cmdline>
J2VwaWtfcHl0aG9uJywgJy1waCcsICc3LjAnLCAnLXRuJywgJzgnLCAnLW1hJywgJzIwMCcsICctbWV0YWxfYmluZGluZycsICctaW1hZScsICc8aW5maWxlLm1hZT4nLCAnLW9tYWUnLCAnPG91dGZpbGUubWFlPic=

> <r_epik_Ionization_Penalty>
1.02952

> <r_epik_Ionization_Penalty_Charging>
0.000974969

> <r_epik_Ionization_Penalty_Neutral>
1.02854

> <r_epik_State_Penalty>
1.11259

> <r_epik_Charging_Adjusted_Penalty>
1.11356

> <i_epik_Tot_Q>
1

> <i_epik_Tot_abs_Q>
1

> <r_epik_Metal_State_Penalty>
1.1091

> <b_epik_Metal_Only>
0

> <s_lp_Force_Field>
OPLS_2005

> <r_lp_Energy>
36.1162

> <b_lp_Chiralities_Consistent>
1

> <s_lp_Variant>
AV-unprocessed.smi:2772-6

> <Gold.Version>
5.8.1

> <Gold.Id.Protein>
6NUR|6NUR_protein|mol2

> <Gold.PLP.Fitness>
39.2133

> <Gold.PLP.PLP>
-39.9539

> <Gold.PLP.part.hbond>
-0.2390

> <Gold.PLP.part.metal>
0.0000

> <Gold.PLP.part.buried>
-5.8537

> <Gold.PLP.part.nonpolar>
-33.4108

> <Gold.PLP.part.repulsive>
0.1696

> <Gold.PLP.ligand.clash>
0.0000

> <Gold.PLP.ligand.torsion>
0.3723

> <Gold.PLP.Chemscore.Hbond>
0.0000

> <Gold.PLP.Chemscore.CHOScore>
0.0000

> <Gold.PLP.Chemscore.Metal>
0.0000

> <Gold.PLP.Chemscore.Internal.Correction>
0.0042

> <Gold.Rescore>
     Score         DG    S(hbond)    S(metal)    S(lipo)     H(rot)  DE(clash)    DE(int)     intcor
     13.63     -17.03       0.00        0.00     124.94       1.20       0.05       3.35       ----

> <Gold.Chemscore.Fitness>
13.6323

> <Gold.Chemscore.DG>
-17.0330

> <Gold.Chemscore.ZeroCoef>
-5.4800

> <Gold.Chemscore.Hbond>
0.0000

> <Gold.Chemscore.Metal>
0.0000

> <Gold.Chemscore.Lipo>
124.9422

> <Gold.Chemscore.Internal_Hbond>
0.0000

> <Gold.Chemscore.DEClash>
0.0508

> <Gold.Chemscore.DEInternal>
3.3499

> <Gold.Chemscore.Rot>
1.1974

> <Gold.Chemscore.Internal.Correction>
   9.000000E+99

> <Gold.Chemscore.Hbond.Weighted>
-0.0000

> <Gold.Chemscore.Metal.Weighted>
-0.0000

> <Gold.Chemscore.Lipo.Weighted>
-14.6182

> <Gold.Chemscore.Internal_Hbond.Weighted>
0.0000

> <Gold.Chemscore.DEClash.Weighted>
0.0508

> <Gold.Chemscore.DEInternal.Weighted>
3.3499

> <Gold.Chemscore.Rot.Weighted>
3.0652

> <Gold.Chemscore.Internal.Correction.Weighted>
   9.000000E+99

> <Gold.Protein.RotatedTorsions>
[ 6907 6896 6895 6894 ] final  -28.71 input  -60.11 | X-H torsion
[ 7974 7965 7964 7962 ] final   55.76 input  175.53 | X-H torsion
[ 8008 7997 7996 7995 ] final   77.22 input   59.86 | X-H torsion
[ 10167 10162 10161 10158 ] final -132.14 input  -65.29 | X-H torsion
[ 10718 10713 10712 10709 ] final  128.38 input   66.30 | X-H torsion
[ 10763 10752 10751 10750 ] final   -8.15 input  -60.55 | X-H torsion
[ 11005 11000 10999 10996 ] final  178.73 input  -57.11 | X-H torsion

> <Gold.Protein.ActiveResidues>
 VAL166  LYS551  ARG553  GLY616  TRP617  ASP618  TYR619  PRO620  LYS621  CYS622 
 ASP623  PHE694  ASN695  SER759  ASP760  ASP761  ALA762  ILE779  LEU786  VAL792 
 PHE793  MET794  SER795  GLU796  ALA797  LYS798  CYS799  TRP800  GLU811  SER814 

> <Gold.Protein.RotatedAtoms>
  151.1292  135.0121  159.8574 H   0  0  0  0  0  0  0  0  0  0  0  0  # atno 6907 bound_to 6896
  152.5450  134.1631  159.8576 H   0  0  0  0  0  0  0  0  0  0  0  0  # atno 6908 bound_to 6896
  151.1696  133.4748  159.2627 H   0  0  0  0  0  0  0  0  0  0  0  0  # atno 6909 bound_to 6896
  145.9470  139.3938  143.0329 H   0  0  0  0  0  0  0  0  0  0  0  0  # atno 7974 bound_to 7965
  155.8385  140.3463  155.5617 H   0  0  0  0  0  0  0  0  0  0  0  0  # atno 8008 bound_to 7997
  155.8166  140.0906  157.1893 H   0  0  0  0  0  0  0  0  0  0  0  0  # atno 8009 bound_to 7997
  154.4004  140.1438  156.3437 H   0  0  0  0  0  0  0  0  0  0  0  0  # atno 8010 bound_to 7997
  139.9117  143.6486  152.2574 H   0  0  0  0  0  0  0  0  0  0  0  0  # atno 10167 bound_to 10162
  157.5250  131.1098  150.9097 H   0  0  0  0  0  0  0  0  0  0  0  0  # atno 10718 bound_to 10713
  153.4364  135.7013  153.6197 H   0  0  0  0  0  0  0  0  0  0  0  0  # atno 10763 bound_to 10752
  153.4591  135.3740  155.2328 H   0  0  0  0  0  0  0  0  0  0  0  0  # atno 10764 bound_to 10752
  154.8727  135.4015  154.3755 H   0  0  0  0  0  0  0  0  0  0  0  0  # atno 10765 bound_to 10752
  140.3983  134.6800  157.4547 H   0  0  0  0  0  0  0  0  0  0  0  0  # atno 11005 bound_to 11000
  145.8223  140.9673  143.0892 LP  0  0  0  0  0  0  0  0  0  0  0  0  # atno 17320 bound_to 7965
  144.6789  140.0057  143.7484 LP  0  0  0  0  0  0  0  0  0  0  0  0  # atno 17321 bound_to 7965
  139.6937  144.7644  151.1394 LP  0  0  0  0  0  0  0  0  0  0  0  0  # atno 17342 bound_to 10162
  140.7684  143.5553  150.9158 LP  0  0  0  0  0  0  0  0  0  0  0  0  # atno 17343 bound_to 10162
  156.9696  130.5486  149.5290 LP  0  0  0  0  0  0  0  0  0  0  0  0  # atno 17370 bound_to 10713
  156.0380  130.5466  150.8702 LP  0  0  0  0  0  0  0  0  0  0  0  0  # atno 17371 bound_to 10713
  140.0355  134.6344  155.9049 LP  0  0  0  0  0  0  0  0  0  0  0  0  # atno 17394 bound_to 11000
  141.1866  133.6557  156.5246 LP  0  0  0  0  0  0  0  0  0  0  0  0  # atno 17395 bound_to 11000

$$$$
