AV-unprocessed.smi:2076|AV-procd|sdf|8460|dock3
  -GOLD-   2272011163D 1   1.00000     0.00000
 Structure written by MMmdl.
 45 46  0  0  0  0  0  0  0  0  2 V2000
  146.9714  139.6093  153.4070 C   0  0  0  0  0  0  0  0  0  0  0  0
  148.3708  139.6731  153.9434 C   0  0  0  0  0  0  0  0  0  0  0  0
  148.9848  140.7246  154.6792 C   0  0  0  0  0  0  0  0  0  0  0  0
  150.2525  140.2743  154.9183 C   0  0  0  0  0  0  0  0  0  0  0  0
  151.3838  140.9237  155.6459 C   0  0  0  0  0  0  0  0  0  0  0  0
  150.3485  139.0206  154.3408 N   0  0  0  0  0  0  0  0  0  0  0  0
  151.4791  138.1059  154.3158 C   0  0  0  0  0  0  0  0  0  0  0  0
  151.1571  136.8120  155.0647 C   0  0  0  0  0  0  0  0  0  0  0  0
  151.8567  136.4591  156.0134 O   0  0  0  0  0  0  0  0  0  0  0  0
  150.0977  136.1142  154.6252 N   0  0  0  0  0  0  0  0  0  0  0  0
  149.5786  134.8879  155.2262 C   0  0  0  0  0  0  0  0  0  0  0  0
  149.2245  133.7881  154.1855 C   0  0  1  0  0  0  0  0  0  0  0  0
  149.1691  132.3938  154.8580 C   0  0  0  0  0  0  0  0  0  0  0  0
  147.9507  134.0981  153.4505 N   0  3  0  0  0  0  0  0  0  0  0  0
  147.5700  133.0689  152.4413 C   0  0  0  0  0  0  0  0  0  0  0  0
  146.2618  133.4351  151.7202 C   0  0  0  0  0  0  0  0  0  0  0  0
  145.2235  133.6130  152.6693 O   0  0  0  0  0  0  0  0  0  0  0  0
  145.5155  134.6853  153.5501 C   0  0  0  0  0  0  0  0  0  0  0  0
  146.7916  134.3694  154.3480 C   0  0  0  0  0  0  0  0  0  0  0  0
  149.1921  138.6550  153.7449 N   0  0  0  0  0  0  0  0  0  0  0  0
  146.4516  140.5568  153.5499 H   0  0  0  0  0  0  0  0  0  0  0  0
  146.3936  138.8347  153.9117 H   0  0  0  0  0  0  0  0  0  0  0  0
  146.9679  139.3876  152.3396 H   0  0  0  0  0  0  0  0  0  0  0  0
  148.5580  141.6680  154.9858 H   0  0  0  0  0  0  0  0  0  0  0  0
  151.0820  141.8891  156.0524 H   0  0  0  0  0  0  0  0  0  0  0  0
  152.2296  141.0905  154.9788 H   0  0  0  0  0  0  0  0  0  0  0  0
  151.7215  140.3032  156.4758 H   0  0  0  0  0  0  0  0  0  0  0  0
  151.7451  137.8832  153.2810 H   0  0  0  0  0  0  0  0  0  0  0  0
  152.3442  138.5944  154.7653 H   0  0  0  0  0  0  0  0  0  0  0  0
  149.5872  136.4866  153.8369 H   0  0  0  0  0  0  0  0  0  0  0  0
  150.2679  134.4936  155.9748 H   0  0  0  0  0  0  0  0  0  0  0  0
  148.6909  135.2124  155.7661 H   0  0  0  0  0  0  0  0  0  0  0  0
  150.0284  133.7634  153.4477 H   0  0  0  0  0  0  0  0  0  0  0  0
  150.0684  132.1781  155.4328 H   0  0  0  0  0  0  0  0  0  0  0  0
  149.1038  131.5838  154.1334 H   0  0  0  0  0  0  0  0  0  0  0  0
  148.3193  132.3149  155.5368 H   0  0  0  0  0  0  0  0  0  0  0  0
  148.3342  132.9695  151.6732 H   0  0  0  0  0  0  0  0  0  0  0  0
  147.4679  132.0981  152.9290 H   0  0  0  0  0  0  0  0  0  0  0  0
  146.3862  134.3383  151.1202 H   0  0  0  0  0  0  0  0  0  0  0  0
  145.9773  132.6367  151.0344 H   0  0  0  0  0  0  0  0  0  0  0  0
  145.6237  135.6167  152.9915 H   0  0  0  0  0  0  0  0  0  0  0  0
  144.6737  134.8202  154.2295 H   0  0  0  0  0  0  0  0  0  0  0  0
  146.6221  133.5081  154.9961 H   0  0  0  0  0  0  0  0  0  0  0  0
  146.9837  135.2266  154.9905 H   0  0  0  0  0  0  0  0  0  0  0  0
  148.1181  134.9514  152.9364 H   0  0  0  0  0  0  0  0  0  0  0  0
  1  2  1  0  0  0  0
  1 21  1  0  0  0  0
  1 22  1  0  0  0  0
  1 23  1  0  0  0  0
  2 20  2  0  0  0  0
  2  3  1  0  0  0  0
  3  4  2  0  0  0  0
  3 24  1  0  0  0  0
  4  5  1  0  0  0  0
  4  6  1  0  0  0  0
  5 25  1  0  0  0  0
  5 26  1  0  0  0  0
  5 27  1  0  0  0  0
  6  7  1  0  0  0  0
  6 20  1  0  0  0  0
  7  8  1  0  0  0  0
  7 28  1  0  0  0  0
  7 29  1  0  0  0  0
  8  9  2  0  0  0  0
  8 10  1  0  0  0  0
 10 11  1  0  0  0  0
 10 30  1  0  0  0  0
 11 12  1  0  0  0  0
 11 31  1  0  0  0  0
 11 32  1  0  0  0  0
 12 13  1  0  0  0  0
 12 14  1  0  0  0  0
 12 33  1  0  0  0  0
 13 34  1  0  0  0  0
 13 35  1  0  0  0  0
 13 36  1  0  0  0  0
 14 19  1  0  0  0  0
 14 15  1  0  0  0  0
 14 45  1  0  0  0  0
 15 16  1  0  0  0  0
 15 37  1  0  0  0  0
 15 38  1  0  0  0  0
 16 17  1  0  0  0  0
 16 39  1  0  0  0  0
 16 40  1  0  0  0  0
 17 18  1  0  0  0  0
 18 19  1  0  0  0  0
 18 41  1  0  0  0  0
 18 42  1  0  0  0  0
 19 43  1  0  0  0  0
 19 44  1  0  0  0  0
M  CHG  1  14   1
M  END
> <s_m_source_file>
AV-unprocessed.smi

> <i_m_source_file_index>
2076

> <i_lp_mmshare_version>
43012

> <i_f3d_flags>
0

> <s_epik_input>
W0NIM11jMVtjSF1jKFtDSDNdKW4objEpW0NIMl1DKD1PKVtOSF1bQ0gyXVtDQEhdKFtDSDNdKU4yW0NIMl1bQ0gyXU9bQ0gyXVtDSDJdMg==

> <s_epik_cmdline>
J2VwaWtfcHl0aG9uJywgJy1waCcsICc3LjAnLCAnLXRuJywgJzgnLCAnLW1hJywgJzIwMCcsICctbWV0YWxfYmluZGluZycsICctaW1hZScsICc8aW5maWxlLm1hZT4nLCAnLW9tYWUnLCAnPG91dGZpbGUubWFlPic=

> <r_lp_tautomer_probability>
1

> <r_epik_Ionization_Penalty>
0.748594

> <r_epik_Ionization_Penalty_Charging>
0.748396

> <r_epik_Ionization_Penalty_Neutral>
0.000197403

> <r_epik_State_Penalty>
0.775162

> <r_epik_Charging_Adjusted_Penalty>
1.52356

> <i_epik_Tot_Q>
1

> <i_epik_Tot_abs_Q>
1

> <r_epik_Metal_State_Penalty>
0.77529

> <b_epik_Metal_Only>
0

> <s_lp_Force_Field>
OPLS_2005

> <r_lp_Energy>
19.0856

> <b_lp_Chiralities_Consistent>
1

> <s_lp_Variant>
AV-unprocessed.smi:2076-4

> <Gold.Version>
5.8.1

> <Gold.Id.Protein>
6NUR|6NUR_protein|mol2

> <Gold.PLP.Fitness>
45.5597

> <Gold.PLP.PLP>
-34.3821

> <Gold.PLP.part.hbond>
-3.1602

> <Gold.PLP.part.metal>
0.0000

> <Gold.PLP.part.buried>
-0.3758

> <Gold.PLP.part.nonpolar>
-30.3950

> <Gold.PLP.part.repulsive>
1.4235

> <Gold.PLP.ligand.clash>
0.0000

> <Gold.PLP.ligand.torsion>
0.3122

> <Gold.PLP.Chemscore.Hbond>
3.8960

> <Gold.PLP.Chemscore.CHOScore>
0.0000

> <Gold.PLP.Chemscore.Metal>
0.0000

> <Gold.Chemscore.Hbonds>
donor molecule, donor type, donor heavy atom, donor atom, acceptor molecule, acceptor atom, score
      L1  H    10    30       P1  7948  0.86
      L1  H    14    45       P1  7948  2.00
      P1  H 10752 10765       L1     9  1.00

> <Gold.PLP.Chemscore.Internal.Correction>
0.1139

> <Gold.Rescore>
     Score         DG    S(hbond)    S(metal)    S(lipo)     H(rot)  DE(clash)    DE(int)     intcor
     14.63     -16.67       2.11        0.00      74.28       1.78       0.18       1.86       ----

> <Gold.Chemscore.Fitness>
14.6251

> <Gold.Chemscore.DG>
-16.6745

> <Gold.Chemscore.ZeroCoef>
-5.4800

> <Gold.Chemscore.Hbond>
2.1110

> <Gold.Chemscore.Metal>
0.0000

> <Gold.Chemscore.Lipo>
74.2760

> <Gold.Chemscore.Internal_Hbond>
0.0000

> <Gold.Chemscore.DEClash>
0.1844

> <Gold.Chemscore.DEInternal>
1.8650

> <Gold.Chemscore.Rot>
1.7760

> <Gold.Chemscore.Internal.Correction>
   9.000000E+99

> <Gold.Chemscore.Hbonds>
donor molecule, donor type, donor heavy atom, donor atom, acceptor molecule, acceptor atom, score
      L1  H    10    30       P1  7948  0.56
      L1  H    14    45       P1  7948  0.90
      P1  H 10752 10765       L1     9  0.38

> <Gold.Chemscore.Hbond.Weighted>
-7.0506

> <Gold.Chemscore.Metal.Weighted>
-0.0000

> <Gold.Chemscore.Lipo.Weighted>
-8.6903

> <Gold.Chemscore.Internal_Hbond.Weighted>
0.0000

> <Gold.Chemscore.DEClash.Weighted>
0.1844

> <Gold.Chemscore.DEInternal.Weighted>
1.8650

> <Gold.Chemscore.Rot.Weighted>
4.5464

> <Gold.Chemscore.Internal.Correction.Weighted>
   9.000000E+99

> <Gold.Protein.RotatedTorsions>
[ 6907 6896 6895 6894 ] final  -78.53 input  -60.11 | X-H torsion
[ 7974 7965 7964 7962 ] final  -47.76 input  175.53 | X-H torsion
[ 8008 7997 7996 7995 ] final  -89.80 input   59.86 | X-H torsion
[ 10167 10162 10161 10158 ] final  109.26 input  -65.29 | X-H torsion
[ 10718 10713 10712 10709 ] final  -78.94 input   66.30 | X-H torsion
[ 10763 10752 10751 10750 ] final -139.79 input  -60.55 | X-H torsion
[ 11005 11000 10999 10996 ] final   57.66 input  -57.11 | X-H torsion

> <Gold.Protein.ActiveResidues>
 VAL166  LYS551  ARG553  GLY616  TRP617  ASP618  TYR619  PRO620  LYS621  CYS622 
 ASP623  PHE694  ASN695  SER759  ASP760  ASP761  ALA762  ILE779  LEU786  VAL792 
 PHE793  MET794  SER795  GLU796  ALA797  LYS798  CYS799  TRP800  GLU811  SER814 

> <Gold.Protein.RotatedAtoms>
  150.6970  134.4258  159.5225 H   0  0  0  0  0  0  0  0  0  0  0  0  # atno 6907 bound_to 6896
  152.1993  134.8600  160.0519 H   0  0  0  0  0  0  0  0  0  0  0  0  # atno 6908 bound_to 6896
  151.9526  133.3635  159.4042 H   0  0  0  0  0  0  0  0  0  0  0  0  # atno 6909 bound_to 6896
  145.9582  140.7505  142.9470 H   0  0  0  0  0  0  0  0  0  0  0  0  # atno 7974 bound_to 7965
  154.6910  140.0537  157.0363 H   0  0  0  0  0  0  0  0  0  0  0  0  # atno 8008 bound_to 7997
  155.0817  140.3210  155.4580 H   0  0  0  0  0  0  0  0  0  0  0  0  # atno 8009 bound_to 7997
  156.2728  140.2063  156.5945 H   0  0  0  0  0  0  0  0  0  0  0  0  # atno 8010 bound_to 7997
  139.6780  144.7120  151.1566 H   0  0  0  0  0  0  0  0  0  0  0  0  # atno 10167 bound_to 10162
  156.0105  130.4532  150.3573 H   0  0  0  0  0  0  0  0  0  0  0  0  # atno 10718 bound_to 10713
  154.8599  135.3572  154.5603 H   0  0  0  0  0  0  0  0  0  0  0  0  # atno 10763 bound_to 10752
  153.6218  135.7005  153.5312 H   0  0  0  0  0  0  0  0  0  0  0  0  # atno 10764 bound_to 10752
  153.3122  135.4175  155.1306 H   0  0  0  0  0  0  0  0  0  0  0  0  # atno 10765 bound_to 10752
  140.0436  134.5838  155.9351 H   0  0  0  0  0  0  0  0  0  0  0  0  # atno 11005 bound_to 11000
  144.6809  140.2547  143.7327 LP  0  0  0  0  0  0  0  0  0  0  0  0  # atno 17320 bound_to 7965
  145.8077  139.1990  143.2011 LP  0  0  0  0  0  0  0  0  0  0  0  0  # atno 17321 bound_to 7965
  140.7642  143.5742  150.8963 LP  0  0  0  0  0  0  0  0  0  0  0  0  # atno 17342 bound_to 10162
  139.9412  143.6380  152.3053 LP  0  0  0  0  0  0  0  0  0  0  0  0  # atno 17343 bound_to 10162
  157.1663  131.0357  151.2817 LP  0  0  0  0  0  0  0  0  0  0  0  0  # atno 17370 bound_to 10713
  157.4268  130.7468  149.6957 LP  0  0  0  0  0  0  0  0  0  0  0  0  # atno 17371 bound_to 10713
  141.1895  133.6565  156.5372 LP  0  0  0  0  0  0  0  0  0  0  0  0  # atno 17394 bound_to 11000
  140.4030  134.7340  157.4791 LP  0  0  0  0  0  0  0  0  0  0  0  0  # atno 17395 bound_to 11000

$$$$
