AV-unprocessed.smi:297|AV-procd|sdf|2259|dock7
  -GOLD-   2262022143D 1   1.00000     0.00000
 Structure written by MMmdl.
 29 30  0  0  0  0  0  0  0  0  1 V2000
  151.6578  138.4024  162.2334 N   0  0  0  0  0  0  0  0  0  0  0  0
  151.6349  139.3279  161.5388 C   0  0  0  0  0  0  0  0  0  0  0  0
  151.6059  140.4917  160.6662 C   0  0  0  0  0  0  0  0  0  0  0  0
  151.3546  140.2602  159.3585 N   0  0  0  0  0  0  0  0  0  0  0  0
  151.3122  141.3093  158.5034 C   0  0  0  0  0  0  0  0  0  0  0  0
  151.0448  141.0560  157.1508 N   0  0  0  0  0  0  0  0  0  0  0  0
  151.8483  141.8583  156.2379 C   0  0  0  0  0  0  0  0  0  0  0  0
  151.4018  141.6053  154.7892 C   0  0  0  0  0  0  0  0  0  0  0  0
  151.4893  140.2131  154.5013 O   0  0  0  0  0  0  0  0  0  0  0  0
  150.6457  139.4251  155.3442 C   0  0  1  0  0  0  0  0  0  0  0  0
  150.7459  137.9530  154.9176 C   0  0  0  0  0  0  0  0  0  0  0  0
  150.4689  137.6618  153.6433 N   0  0  0  0  0  0  0  0  0  0  0  0
  151.0524  137.0805  155.7284 O   0  0  0  0  0  0  0  0  0  0  0  0
  151.0658  139.6370  156.8165 C   0  0  0  0  0  0  0  0  0  0  0  0
  151.5214  142.6380  158.9235 C   0  0  0  0  0  0  0  0  0  0  0  0
  151.7854  142.8810  160.2841 C   0  0  0  0  0  0  0  0  0  0  0  0
  151.8300  141.7936  161.1782 C   0  0  0  0  0  0  0  0  0  0  0  0
  152.1529  142.0861  162.8534 Cl  0  0  0  0  0  0  0  0  0  0  0  0
  151.7423  142.9155  156.4840 H   0  0  0  0  0  0  0  0  0  0  0  0
  152.9033  141.6035  156.3494 H   0  0  0  0  0  0  0  0  0  0  0  0
  150.3822  141.9587  154.6272 H   0  0  0  0  0  0  0  0  0  0  0  0
  152.0428  142.1520  154.0977 H   0  0  0  0  0  0  0  0  0  0  0  0
  149.6093  139.7381  155.2060 H   0  0  0  0  0  0  0  0  0  0  0  0
  150.5183  136.7044  153.3260 H   0  0  0  0  0  0  0  0  0  0  0  0
  150.2063  138.3987  153.0051 H   0  0  0  0  0  0  0  0  0  0  0  0
  152.0673  139.2358  156.9821 H   0  0  0  0  0  0  0  0  0  0  0  0
  150.3891  139.1014  157.4843 H   0  0  0  0  0  0  0  0  0  0  0  0
  151.4803  143.4562  158.2191 H   0  0  0  0  0  0  0  0  0  0  0  0
  151.9507  143.8887  160.6361 H   0  0  0  0  0  0  0  0  0  0  0  0
  1  2  3  0  0  0  0
  2  3  1  0  0  0  0
  3 17  1  0  0  0  0
  3  4  2  0  0  0  0
  4  5  1  0  0  0  0
  5  6  1  0  0  0  0
  5 15  2  0  0  0  0
  6 14  1  0  0  0  0
  6  7  1  0  0  0  0
  7  8  1  0  0  0  0
  7 19  1  0  0  0  0
  7 20  1  0  0  0  0
  8  9  1  0  0  0  0
  8 21  1  0  0  0  0
  8 22  1  0  0  0  0
  9 10  1  0  0  0  0
 10 11  1  0  0  0  0
 10 14  1  0  0  0  0
 10 23  1  0  0  0  0
 11 12  1  0  0  0  0
 11 13  2  0  0  0  0
 12 24  1  0  0  0  0
 12 25  1  0  0  0  0
 14 26  1  0  0  0  0
 14 27  1  0  0  0  0
 15 16  1  0  0  0  0
 15 28  1  0  0  0  0
 16 17  2  0  0  0  0
 16 29  1  0  0  0  0
 17 18  1  0  0  0  0
M  END
> <s_m_source_file>
AV-unprocessed.smi

> <i_m_source_file_index>
297

> <i_lp_mmshare_version>
43012

> <i_f3d_flags>
0

> <s_epik_input>
TiNDYzFuYyhbY0hdW2NIXWMxQ2wpTjJbQ0gyXVtDSDJdT1tDQEhdKFtDSDJdMilDKD1PKVtOSDJd

> <s_epik_cmdline>
J2VwaWtfcHl0aG9uJywgJy1waCcsICc3LjAnLCAnLXRuJywgJzgnLCAnLW1hJywgJzIwMCcsICctbWV0YWxfYmluZGluZycsICctaW1hZScsICc8aW5maWxlLm1hZT4nLCAnLW9tYWUnLCAnPG91dGZpbGUubWFlPic=

> <r_lp_tautomer_probability>
1

> <r_epik_Ionization_Penalty>
8.82403e-08

> <r_epik_Ionization_Penalty_Charging>
0

> <r_epik_Ionization_Penalty_Neutral>
8.82403e-08

> <r_epik_State_Penalty>
-0

> <r_epik_Charging_Adjusted_Penalty>
0

> <i_epik_Tot_Q>
0

> <i_epik_Tot_abs_Q>
0

> <r_epik_Metal_State_Penalty>
-0

> <b_epik_Metal_Only>
0

> <s_lp_Force_Field>
OPLS_2005

> <r_lp_Energy>
18.8034

> <b_lp_Chiralities_Consistent>
1

> <s_lp_Variant>
AV-unprocessed.smi:297-1

> <Gold.Version>
5.8.1

> <Gold.Id.Protein>
6NUR|6NUR_protein|mol2

> <Gold.PLP.Fitness>
40.8203

> <Gold.PLP.PLP>
-33.8873

> <Gold.PLP.part.hbond>
-3.9568

> <Gold.PLP.part.metal>
0.0000

> <Gold.PLP.part.buried>
-3.3070

> <Gold.PLP.part.nonpolar>
-25.9427

> <Gold.PLP.part.repulsive>
0.2691

> <Gold.PLP.ligand.clash>
0.0000

> <Gold.PLP.ligand.torsion>
0.3927

> <Gold.PLP.Chemscore.Hbond>
2.5383

> <Gold.PLP.Chemscore.CHOScore>
0.0000

> <Gold.PLP.Chemscore.Metal>
0.0000

> <Gold.Chemscore.Hbonds>
donor molecule, donor type, donor heavy atom, donor atom, acceptor molecule, acceptor atom, score
      L1  H    12    24       P1  7949  0.18

> <Gold.PLP.Chemscore.Internal.Correction>
0.1034

> <Gold.Rescore>
     Score         DG    S(hbond)    S(metal)    S(lipo)     H(rot)  DE(clash)    DE(int)     intcor
     16.80     -19.22       2.63        0.00      75.30       1.50       1.43       1.00       ----

> <Gold.Chemscore.Fitness>
16.7953

> <Gold.Chemscore.DG>
-19.2195

> <Gold.Chemscore.ZeroCoef>
-5.4800

> <Gold.Chemscore.Hbond>
2.6260

> <Gold.Chemscore.Metal>
0.0000

> <Gold.Chemscore.Lipo>
75.3011

> <Gold.Chemscore.Internal_Hbond>
0.0000

> <Gold.Chemscore.DEClash>
1.4259

> <Gold.Chemscore.DEInternal>
0.9982

> <Gold.Chemscore.Rot>
1.5006

> <Gold.Chemscore.Internal.Correction>
   9.000000E+99

> <Gold.Chemscore.Hbond.Weighted>
-8.7709

> <Gold.Chemscore.Metal.Weighted>
-0.0000

> <Gold.Chemscore.Lipo.Weighted>
-8.8102

> <Gold.Chemscore.Internal_Hbond.Weighted>
0.0000

> <Gold.Chemscore.DEClash.Weighted>
1.4259

> <Gold.Chemscore.DEInternal.Weighted>
0.9982

> <Gold.Chemscore.Rot.Weighted>
3.8416

> <Gold.Chemscore.Internal.Correction.Weighted>
   9.000000E+99

> <Gold.Protein.RotatedTorsions>
[ 6907 6896 6895 6894 ] final  -88.29 input  -60.11 | X-H torsion
[ 7974 7965 7964 7962 ] final  -56.90 input  175.53 | X-H torsion
[ 8008 7997 7996 7995 ] final -175.79 input   59.86 | X-H torsion
[ 10167 10162 10161 10158 ] final -106.24 input  -65.29 | X-H torsion
[ 10718 10713 10712 10709 ] final   -5.50 input   66.30 | X-H torsion
[ 10763 10752 10751 10750 ] final -178.29 input  -60.55 | X-H torsion
[ 11005 11000 10999 10996 ] final   39.50 input  -57.11 | X-H torsion

> <Gold.Protein.ActiveResidues>
 VAL166  LYS551  ARG553  GLY616  TRP617  ASP618  TYR619  PRO620  LYS621  CYS622 
 ASP623  PHE694  ASN695  SER759  ASP760  ASP761  ALA762  ILE779  LEU786  VAL792 
 PHE793  MET794  SER795  GLU796  ALA797  LYS798  CYS799  TRP800  GLU811  SER814 

> <Gold.Protein.RotatedAtoms>
  150.6868  134.2765  159.4609 H   0  0  0  0  0  0  0  0  0  0  0  0  # atno 6907 bound_to 6896
  152.0682  134.9548  160.0584 H   0  0  0  0  0  0  0  0  0  0  0  0  # atno 6908 bound_to 6896
  152.0948  133.4184  159.4597 H   0  0  0  0  0  0  0  0  0  0  0  0  # atno 6909 bound_to 6896
  145.8573  140.8310  142.9955 H   0  0  0  0  0  0  0  0  0  0  0  0  # atno 7974 bound_to 7965
  155.9869  140.1193  157.0674 H   0  0  0  0  0  0  0  0  0  0  0  0  # atno 8008 bound_to 7997
  154.4199  140.1133  156.5581 H   0  0  0  0  0  0  0  0  0  0  0  0  # atno 8009 bound_to 7997
  155.6395  140.3473  155.4712 H   0  0  0  0  0  0  0  0  0  0  0  0  # atno 8010 bound_to 7997
  140.1899  143.3900  152.1214 H   0  0  0  0  0  0  0  0  0  0  0  0  # atno 10167 bound_to 10162
  156.7457  130.5223  149.5814 H   0  0  0  0  0  0  0  0  0  0  0  0  # atno 10718 bound_to 10713
  154.5496  135.2812  155.1021 H   0  0  0  0  0  0  0  0  0  0  0  0  # atno 10763 bound_to 10752
  154.2472  135.6346  153.5231 H   0  0  0  0  0  0  0  0  0  0  0  0  # atno 10764 bound_to 10752
  152.9999  135.5574  154.6058 H   0  0  0  0  0  0  0  0  0  0  0  0  # atno 10765 bound_to 10752
  140.2022  134.3857  155.8090 H   0  0  0  0  0  0  0  0  0  0  0  0  # atno 11005 bound_to 11000
  144.6727  140.1043  143.7459 LP  0  0  0  0  0  0  0  0  0  0  0  0  # atno 17320 bound_to 7965
  145.9288  139.2593  143.1337 LP  0  0  0  0  0  0  0  0  0  0  0  0  # atno 17321 bound_to 7965
  139.5260  144.7102  151.5228 LP  0  0  0  0  0  0  0  0  0  0  0  0  # atno 17342 bound_to 10162
  140.6462  143.8789  150.6740 LP  0  0  0  0  0  0  0  0  0  0  0  0  # atno 17343 bound_to 10162
  156.1435  130.6261  151.0499 LP  0  0  0  0  0  0  0  0  0  0  0  0  # atno 17370 bound_to 10713
  157.6799  131.0841  150.7397 LP  0  0  0  0  0  0  0  0  0  0  0  0  # atno 17371 bound_to 10713
  141.2227  133.7100  156.8277 LP  0  0  0  0  0  0  0  0  0  0  0  0  # atno 17394 bound_to 11000
  140.2042  134.8875  157.3203 LP  0  0  0  0  0  0  0  0  0  0  0  0  # atno 17395 bound_to 11000

$$$$
