AV-unprocessed.smi:437|AV-procd|sdf|2559|dock3
  -GOLD-   2262022523D 1   1.00000     0.00000
 Structure written by MMmdl.
 48 49  0  0  0  0  0  0  0  0  1 V2000
  152.0139  144.3321  161.2812 C   0  0  0  0  0  0  0  0  0  0  0  0
  152.5613  143.0333  160.7534 C   0  0  0  0  0  0  0  0  0  0  0  0
  152.2457  142.7216  159.5394 N   0  0  0  0  0  0  0  0  0  0  0  0
  152.6893  141.5492  158.9590 N   0  0  0  0  0  0  0  0  0  0  0  0
  152.2202  141.3493  157.5799 C   0  0  0  0  0  0  0  0  0  0  0  0
  150.7844  140.8070  157.5027 C   0  0  0  0  0  0  0  0  0  0  0  0
  150.5134  139.7006  157.9772 O   0  0  0  0  0  0  0  0  0  0  0  0
  149.8983  141.6282  156.9037 N   0  0  0  0  0  0  0  0  0  0  0  0
  148.5842  141.4120  156.7018 C   0  0  0  0  0  0  0  0  0  0  0  0
  147.9922  140.3477  156.8941 O   0  0  0  0  0  0  0  0  0  0  0  0
  147.9783  142.5230  156.2575 N   0  0  0  0  0  0  0  0  0  0  0  0
  146.5335  142.7153  156.1469 C   0  0  2  0  0  0  0  0  0  0  0  0
  146.1918  143.2895  154.7560 C   0  0  0  0  0  0  0  0  0  0  0  0
  144.6895  143.5723  154.6123 C   0  0  0  0  0  0  0  0  0  0  0  0
  144.1969  144.5061  155.7258 C   0  0  0  0  0  0  0  0  0  0  0  0
  144.5184  143.9278  157.1120 C   0  0  0  0  0  0  0  0  0  0  0  0
  146.0242  143.6407  157.2804 C   0  0  1  0  0  0  0  0  0  0  0  0
  146.3125  143.0701  158.6808 C   0  0  0  0  0  0  0  0  0  0  0  0
  153.4896  140.6319  159.5747 C   0  0  0  0  0  0  0  0  0  0  0  0
  153.8684  139.6019  159.0147 O   0  0  0  0  0  0  0  0  0  0  0  0
  153.8428  140.9910  160.9499 C   0  0  0  0  0  0  0  0  0  0  0  0
  154.6712  140.0522  161.6350 C   0  0  0  0  0  0  0  0  0  0  0  0
  155.3267  139.2821  162.1984 N   0  0  0  0  0  0  0  0  0  0  0  0
  153.4098  142.1372  161.5325 C   0  0  0  0  0  0  0  0  0  0  0  0
  153.7484  142.5553  162.9567 C   0  0  0  0  0  0  0  0  0  0  0  0
  152.8220  145.0277  161.5082 H   0  0  0  0  0  0  0  0  0  0  0  0
  151.4397  144.1689  162.1936 H   0  0  0  0  0  0  0  0  0  0  0  0
  151.3537  144.8180  160.5610 H   0  0  0  0  0  0  0  0  0  0  0  0
  152.2552  142.2916  157.0302 H   0  0  0  0  0  0  0  0  0  0  0  0
  152.8952  140.6764  157.0474 H   0  0  0  0  0  0  0  0  0  0  0  0
  150.2628  142.5085  156.5715 H   0  0  0  0  0  0  0  0  0  0  0  0
  148.5578  143.3035  155.9859 H   0  0  0  0  0  0  0  0  0  0  0  0
  146.0334  141.7504  156.2540 H   0  0  0  0  0  0  0  0  0  0  0  0
  146.7489  144.2129  154.5903 H   0  0  0  0  0  0  0  0  0  0  0  0
  146.5072  142.5958  153.9755 H   0  0  0  0  0  0  0  0  0  0  0  0
  144.4857  144.0156  153.6371 H   0  0  0  0  0  0  0  0  0  0  0  0
  144.1352  142.6335  154.6481 H   0  0  0  0  0  0  0  0  0  0  0  0
  144.6660  145.4848  155.6184 H   0  0  0  0  0  0  0  0  0  0  0  0
  143.1223  144.6650  155.6293 H   0  0  0  0  0  0  0  0  0  0  0  0
  144.1838  144.6247  157.8811 H   0  0  0  0  0  0  0  0  0  0  0  0
  143.9493  143.0091  157.2616 H   0  0  0  0  0  0  0  0  0  0  0  0
  146.5503  144.5936  157.2017 H   0  0  0  0  0  0  0  0  0  0  0  0
  145.8392  142.0970  158.8157 H   0  0  0  0  0  0  0  0  0  0  0  0
  145.9343  143.7335  159.4591 H   0  0  0  0  0  0  0  0  0  0  0  0
  147.3814  142.9467  158.8548 H   0  0  0  0  0  0  0  0  0  0  0  0
  154.4595  141.8776  163.4278 H   0  0  0  0  0  0  0  0  0  0  0  0
  152.8486  142.5703  163.5724 H   0  0  0  0  0  0  0  0  0  0  0  0
  154.1921  143.5512  162.9717 H   0  0  0  0  0  0  0  0  0  0  0  0
  1  2  1  0  0  0  0
  1 26  1  0  0  0  0
  1 27  1  0  0  0  0
  1 28  1  0  0  0  0
  2 24  1  0  0  0  0
  2  3  2  0  0  0  0
  3  4  1  0  0  0  0
  4  5  1  0  0  0  0
  4 19  1  0  0  0  0
  5  6  1  0  0  0  0
  5 29  1  0  0  0  0
  5 30  1  0  0  0  0
  6  7  2  0  0  0  0
  6  8  1  0  0  0  0
  8  9  1  0  0  0  0
  8 31  1  0  0  0  0
  9 10  2  0  0  0  0
  9 11  1  0  0  0  0
 11 12  1  0  0  0  0
 11 32  1  0  0  0  0
 12 17  1  0  0  0  0
 12 13  1  0  0  0  0
 12 33  1  0  0  0  0
 13 14  1  0  0  0  0
 13 34  1  0  0  0  0
 13 35  1  0  0  0  0
 14 15  1  0  0  0  0
 14 36  1  0  0  0  0
 14 37  1  0  0  0  0
 15 16  1  0  0  0  0
 15 38  1  0  0  0  0
 15 39  1  0  0  0  0
 16 17  1  0  0  0  0
 16 40  1  0  0  0  0
 16 41  1  0  0  0  0
 17 18  1  0  0  0  0
 17 42  1  0  0  0  0
 18 43  1  0  0  0  0
 18 44  1  0  0  0  0
 18 45  1  0  0  0  0
 19 20  2  0  0  0  0
 19 21  1  0  0  0  0
 21 22  1  0  0  0  0
 21 24  2  0  0  0  0
 22 23  3  0  0  0  0
 24 25  1  0  0  0  0
 25 46  1  0  0  0  0
 25 47  1  0  0  0  0
 25 48  1  0  0  0  0
M  END
> <s_m_source_file>
AV-unprocessed.smi

> <i_m_source_file_index>
437

> <i_lp_mmshare_version>
43012

> <i_f3d_flags>
0

> <s_epik_input>
TiNDYyhjMVtDSDNdKWMoPU8pbihuYzFbQ0gzXSlbQ0gyXUMoPU8pW05IXUMoPU8pW05IXVtDQEBIXTJbQ0gyXVtDSDJdW0NIMl1bQ0gyXVtDQEhdMltDSDNd

> <s_epik_cmdline>
J2VwaWtfcHl0aG9uJywgJy1waCcsICc3LjAnLCAnLXRuJywgJzgnLCAnLW1hJywgJzIwMCcsICctbWV0YWxfYmluZGluZycsICctaW1hZScsICc8aW5maWxlLm1hZT4nLCAnLW9tYWUnLCAnPG91dGZpbGUubWFlPic=

> <r_lp_tautomer_probability>
1

> <r_epik_Ionization_Penalty>
3.27035e-05

> <r_epik_Ionization_Penalty_Charging>
1.6965e-11

> <r_epik_Ionization_Penalty_Neutral>
3.27035e-05

> <r_epik_State_Penalty>
-0

> <r_epik_Charging_Adjusted_Penalty>
1.6965e-11

> <i_epik_Tot_Q>
0

> <i_epik_Tot_abs_Q>
0

> <r_epik_Metal_State_Penalty>
-0

> <b_epik_Metal_Only>
0

> <s_lp_Force_Field>
OPLS_2005

> <r_lp_Energy>
27.1353

> <b_lp_Chiralities_Consistent>
1

> <s_lp_Variant>
AV-unprocessed.smi:437-1

> <Gold.Version>
5.8.1

> <Gold.Id.Protein>
6NUR|6NUR_protein|mol2

> <Gold.PLP.Fitness>
45.6168

> <Gold.PLP.PLP>
-40.5866

> <Gold.PLP.part.hbond>
-2.0000

> <Gold.PLP.part.metal>
0.0000

> <Gold.PLP.part.buried>
-5.6026

> <Gold.PLP.part.nonpolar>
-31.4165

> <Gold.PLP.part.repulsive>
0.0478

> <Gold.PLP.ligand.clash>
0.0000

> <Gold.PLP.ligand.torsion>
0.4978

> <Gold.PLP.Chemscore.Hbond>
2.0000

> <Gold.PLP.Chemscore.CHOScore>
0.0000

> <Gold.PLP.Chemscore.Metal>
0.0000

> <Gold.Chemscore.Hbonds>
donor molecule, donor type, donor heavy atom, donor atom, acceptor molecule, acceptor atom, score
      L1  H    11    32       P1  8028  0.88
      P1  H  7997  8010       L1    20  0.89

> <Gold.PLP.Chemscore.Internal.Correction>
0.0257

> <Gold.Rescore>
     Score         DG    S(hbond)    S(metal)    S(lipo)     H(rot)  DE(clash)    DE(int)     intcor
     14.77     -18.04       1.92        0.00      86.75       1.57       1.49       1.78       ----

> <Gold.Chemscore.Fitness>
14.7697

> <Gold.Chemscore.DG>
-18.0380

> <Gold.Chemscore.ZeroCoef>
-5.4800

> <Gold.Chemscore.Hbond>
1.9210

> <Gold.Chemscore.Metal>
0.0000

> <Gold.Chemscore.Lipo>
86.7494

> <Gold.Chemscore.Internal_Hbond>
0.0000

> <Gold.Chemscore.DEClash>
1.4855

> <Gold.Chemscore.DEInternal>
1.7829

> <Gold.Chemscore.Rot>
1.5656

> <Gold.Chemscore.Internal.Correction>
   9.000000E+99

> <Gold.Chemscore.Hbonds>
donor molecule, donor type, donor heavy atom, donor atom, acceptor molecule, acceptor atom, score
      L1  H    11    32       P1  8028  0.81
      P1  H  7997  8010       L1    20  0.68

> <Gold.Chemscore.Hbond.Weighted>
-6.4162

> <Gold.Chemscore.Metal.Weighted>
-0.0000

> <Gold.Chemscore.Lipo.Weighted>
-10.1497

> <Gold.Chemscore.Internal_Hbond.Weighted>
0.0000

> <Gold.Chemscore.DEClash.Weighted>
1.4855

> <Gold.Chemscore.DEInternal.Weighted>
1.7829

> <Gold.Chemscore.Rot.Weighted>
4.0079

> <Gold.Chemscore.Internal.Correction.Weighted>
   9.000000E+99

> <Gold.Protein.RotatedTorsions>
[ 6907 6896 6895 6894 ] final    1.92 input  -60.11 | X-H torsion
[ 7974 7965 7964 7962 ] final  161.09 input  175.53 | X-H torsion
[ 8008 7997 7996 7995 ] final   15.78 input   59.86 | X-H torsion
[ 10167 10162 10161 10158 ] final   17.03 input  -65.29 | X-H torsion
[ 10718 10713 10712 10709 ] final  -60.57 input   66.30 | X-H torsion
[ 10763 10752 10751 10750 ] final -129.11 input  -60.55 | X-H torsion
[ 11005 11000 10999 10996 ] final  -69.64 input  -57.11 | X-H torsion

> <Gold.Protein.ActiveResidues>
 VAL166  LYS551  ARG553  GLY616  TRP617  ASP618  TYR619  PRO620  LYS621  CYS622 
 ASP623  PHE694  ASN695  SER759  ASP760  ASP761  ALA762  ILE779  LEU786  VAL792 
 PHE793  MET794  SER795  GLU796  ALA797  LYS798  CYS799  TRP800  GLU811  SER814 

> <Gold.Protein.RotatedAtoms>
  151.6005  135.1047  160.0058 H   0  0  0  0  0  0  0  0  0  0  0  0  # atno 6907 bound_to 6896
  152.4260  133.7192  159.6534 H   0  0  0  0  0  0  0  0  0  0  0  0  # atno 6908 bound_to 6896
  150.8149  133.8283  159.3187 H   0  0  0  0  0  0  0  0  0  0  0  0  # atno 6909 bound_to 6896
  144.7703  139.7848  143.6299 H   0  0  0  0  0  0  0  0  0  0  0  0  # atno 7974 bound_to 7965
  154.8675  140.2953  155.5501 H   0  0  0  0  0  0  0  0  0  0  0  0  # atno 8008 bound_to 7997
  156.3021  140.2466  156.3591 H   0  0  0  0  0  0  0  0  0  0  0  0  # atno 8009 bound_to 7997
  154.8853  140.0396  157.1795 H   0  0  0  0  0  0  0  0  0  0  0  0  # atno 8010 bound_to 7997
  140.5755  143.9080  150.6747 H   0  0  0  0  0  0  0  0  0  0  0  0  # atno 10167 bound_to 10162
  156.0981  130.4190  150.0872 H   0  0  0  0  0  0  0  0  0  0  0  0  # atno 10718 bound_to 10713
  154.8757  135.3906  154.3866 H   0  0  0  0  0  0  0  0  0  0  0  0  # atno 10763 bound_to 10752
  153.4607  135.7029  153.6057 H   0  0  0  0  0  0  0  0  0  0  0  0  # atno 10764 bound_to 10752
  153.4557  135.3823  155.2278 H   0  0  0  0  0  0  0  0  0  0  0  0  # atno 10765 bound_to 10752
  141.1558  133.6769  156.6630 H   0  0  0  0  0  0  0  0  0  0  0  0  # atno 11005 bound_to 11000
  146.1845  139.5053  142.9845 LP  0  0  0  0  0  0  0  0  0  0  0  0  # atno 17320 bound_to 7965
  145.6343  141.0298  143.1846 LP  0  0  0  0  0  0  0  0  0  0  0  0  # atno 17321 bound_to 7965
  140.2567  143.3554  152.1359 LP  0  0  0  0  0  0  0  0  0  0  0  0  # atno 17342 bound_to 10162
  139.5140  144.6942  151.5677 LP  0  0  0  0  0  0  0  0  0  0  0  0  # atno 17343 bound_to 10162
  156.8866  130.9574  151.3593 LP  0  0  0  0  0  0  0  0  0  0  0  0  # atno 17370 bound_to 10713
  157.6146  130.8609  149.9008 LP  0  0  0  0  0  0  0  0  0  0  0  0  # atno 17371 bound_to 10713
  140.3233  134.7990  157.4269 LP  0  0  0  0  0  0  0  0  0  0  0  0  # atno 17394 bound_to 11000
  140.1078  134.5385  155.8293 LP  0  0  0  0  0  0  0  0  0  0  0  0  # atno 17395 bound_to 11000

$$$$
