AV-unprocessed.smi:1643|AV-procd|sdf|6577|dock9
  -GOLD-   22720 7263D 1   1.00000     0.00000
 Structure written by MMmdl.
 53 55  0  0  0  0  0  0  0  0  1 V2000
  146.7773  143.2150  158.5056 C   0  0  0  0  0  0  0  0  0  0  0  0
  145.8570  142.0069  158.3153 C   0  0  0  0  0  0  0  0  0  0  0  0
  145.7765  141.1860  159.2295 O   0  0  0  0  0  0  0  0  0  0  0  0
  145.1715  141.8773  157.1540 N   0  0  0  0  0  0  0  0  0  0  0  0
  144.3281  140.7107  156.8716 C   0  0  0  0  0  0  0  0  0  0  0  0
  145.1520  139.6129  156.1800 C   0  0  0  0  0  0  0  0  0  0  0  0
  145.8639  140.0627  154.8867 C   0  0  0  0  0  0  0  0  0  0  0  0
  146.9456  141.0335  155.1071 N   0  0  0  0  0  0  0  0  0  0  0  0
  148.0473  140.8675  154.1561 C   0  0  0  0  0  0  0  0  0  0  0  0
  149.3859  140.4430  154.7926 C   0  0  1  0  0  0  0  0  0  0  0  0
  150.2123  139.9117  153.7768 O   0  0  0  0  0  0  0  0  0  0  0  0
  150.1133  141.6239  155.4656 C   0  0  0  0  0  0  0  0  0  0  0  0
  151.0843  141.1797  156.4471 N   0  0  0  0  0  0  0  0  0  0  0  0
  151.8498  140.0724  156.4041 C   0  0  0  0  0  0  0  0  0  0  0  0
  152.6756  139.8648  157.4264 N   0  0  0  0  0  0  0  0  0  0  0  0
  152.4185  140.9687  158.2223 C   0  0  0  0  0  0  0  0  0  0  0  0
  152.9681  141.3547  159.4646 C   0  0  0  0  0  0  0  0  0  0  0  0
  152.5482  142.5427  160.1052 C   0  0  0  0  0  0  0  0  0  0  0  0
  153.1659  142.9201  161.4401 C   0  0  0  0  0  0  0  0  0  0  0  0
  151.5621  143.3653  159.5027 C   0  0  0  0  0  0  0  0  0  0  0  0
  151.0936  144.6459  160.1709 C   0  0  0  0  0  0  0  0  0  0  0  0
  151.0027  142.9937  158.2629 C   0  0  0  0  0  0  0  0  0  0  0  0
  151.4293  141.8102  157.6360 C   0  0  0  0  0  0  0  0  0  0  0  0
  146.4630  142.4219  155.0726 C   0  0  0  0  0  0  0  0  0  0  0  0
  145.2928  142.7917  156.0126 C   0  0  0  0  0  0  0  0  0  0  0  0
  147.5297  143.2607  157.7182 H   0  0  0  0  0  0  0  0  0  0  0  0
  147.3010  143.1496  159.4600 H   0  0  0  0  0  0  0  0  0  0  0  0
  146.2046  144.1427  158.5036 H   0  0  0  0  0  0  0  0  0  0  0  0
  143.8818  140.3174  157.7863 H   0  0  0  0  0  0  0  0  0  0  0  0
  143.4802  140.9859  156.2433 H   0  0  0  0  0  0  0  0  0  0  0  0
  145.8920  139.2184  156.8776 H   0  0  0  0  0  0  0  0  0  0  0  0
  144.4906  138.7783  155.9466 H   0  0  0  0  0  0  0  0  0  0  0  0
  146.2561  139.1599  154.4220 H   0  0  0  0  0  0  0  0  0  0  0  0
  145.1423  140.4561  154.1693 H   0  0  0  0  0  0  0  0  0  0  0  0
  147.7553  140.1473  153.3900 H   0  0  0  0  0  0  0  0  0  0  0  0
  148.2197  141.8073  153.6294 H   0  0  0  0  0  0  0  0  0  0  0  0
  149.2298  139.6479  155.5207 H   0  0  0  0  0  0  0  0  0  0  0  0
  149.7604  139.9939  152.9508 H   0  0  0  0  0  0  0  0  0  0  0  0
  150.6148  142.2461  154.7225 H   0  0  0  0  0  0  0  0  0  0  0  0
  149.3980  142.2684  155.9779 H   0  0  0  0  0  0  0  0  0  0  0  0
  151.7954  139.3785  155.5779 H   0  0  0  0  0  0  0  0  0  0  0  0
  153.7185  140.7278  159.9235 H   0  0  0  0  0  0  0  0  0  0  0  0
  153.6351  143.9024  161.3812 H   0  0  0  0  0  0  0  0  0  0  0  0
  153.9298  142.2030  161.7422 H   0  0  0  0  0  0  0  0  0  0  0  0
  152.4033  142.9456  162.2188 H   0  0  0  0  0  0  0  0  0  0  0  0
  150.3294  145.1477  159.5762 H   0  0  0  0  0  0  0  0  0  0  0  0
  151.9264  145.3380  160.2972 H   0  0  0  0  0  0  0  0  0  0  0  0
  150.6677  144.4318  161.1513 H   0  0  0  0  0  0  0  0  0  0  0  0
  150.2510  143.6092  157.7915 H   0  0  0  0  0  0  0  0  0  0  0  0
  147.2988  143.0759  155.3236 H   0  0  0  0  0  0  0  0  0  0  0  0
  146.1846  142.6896  154.0523 H   0  0  0  0  0  0  0  0  0  0  0  0
  144.3697  142.7787  155.4323 H   0  0  0  0  0  0  0  0  0  0  0  0
  145.3836  143.8287  156.3360 H   0  0  0  0  0  0  0  0  0  0  0  0
  1  2  1  0  0  0  0
  1 26  1  0  0  0  0
  1 27  1  0  0  0  0
  1 28  1  0  0  0  0
  2  3  2  0  0  0  0
  2  4  1  0  0  0  0
  4 25  1  0  0  0  0
  4  5  1  0  0  0  0
  5  6  1  0  0  0  0
  5 29  1  0  0  0  0
  5 30  1  0  0  0  0
  6  7  1  0  0  0  0
  6 31  1  0  0  0  0
  6 32  1  0  0  0  0
  7  8  1  0  0  0  0
  7 33  1  0  0  0  0
  7 34  1  0  0  0  0
  8  9  1  0  0  0  0
  8 24  1  0  0  0  0
  9 10  1  0  0  0  0
  9 35  1  0  0  0  0
  9 36  1  0  0  0  0
 10 11  1  0  0  0  0
 10 12  1  0  0  0  0
 10 37  1  0  0  0  0
 11 38  1  0  0  0  0
 12 13  1  0  0  0  0
 12 39  1  0  0  0  0
 12 40  1  0  0  0  0
 13 23  1  0  0  0  0
 13 14  1  0  0  0  0
 14 15  2  0  0  0  0
 14 41  1  0  0  0  0
 15 16  1  0  0  0  0
 16 23  2  0  0  0  0
 16 17  1  0  0  0  0
 17 18  2  0  0  0  0
 17 42  1  0  0  0  0
 18 19  1  0  0  0  0
 18 20  1  0  0  0  0
 19 43  1  0  0  0  0
 19 44  1  0  0  0  0
 19 45  1  0  0  0  0
 20 21  1  0  0  0  0
 20 22  2  0  0  0  0
 21 46  1  0  0  0  0
 21 47  1  0  0  0  0
 21 48  1  0  0  0  0
 22 23  1  0  0  0  0
 22 49  1  0  0  0  0
 24 25  1  0  0  0  0
 24 50  1  0  0  0  0
 24 51  1  0  0  0  0
 25 52  1  0  0  0  0
 25 53  1  0  0  0  0
M  END
> <s_m_source_file>
AV-unprocessed.smi

> <i_m_source_file_index>
1643

> <i_lp_mmshare_version>
43012

> <i_f3d_flags>
0

> <s_epik_input>
W0NIM11DKD1PKU4xW0NIMl1bQ0gyXVtDSDJdTihbQ0gyXVtDSDJdMSlbQ0gyXVtDQEhdKFtPSF0pW0NIMl1uKFtjSF1uMiljKGMyMylbY0hdYyhbQ0gzXSljKFtjSF0zKVtDSDNd

> <s_epik_cmdline>
J2VwaWtfcHl0aG9uJywgJy1waCcsICc3LjAnLCAnLXRuJywgJzgnLCAnLW1hJywgJzIwMCcsICctbWV0YWxfYmluZGluZycsICctaW1hZScsICc8aW5maWxlLm1hZT4nLCAnLW9tYWUnLCAnPG91dGZpbGUubWFlPic=

> <r_epik_Ionization_Penalty>
1.17666

> <r_epik_Ionization_Penalty_Charging>
0

> <r_epik_Ionization_Penalty_Neutral>
1.17666

> <r_epik_State_Penalty>
1.20405

> <r_epik_Charging_Adjusted_Penalty>
1.20405

> <i_epik_Tot_Q>
0

> <i_epik_Tot_abs_Q>
0

> <r_epik_Metal_State_Penalty>
1.13307

> <b_epik_Metal_Only>
0

> <s_lp_Force_Field>
OPLS_2005

> <r_lp_Energy>
45.5249

> <b_lp_Chiralities_Consistent>
1

> <s_lp_Variant>
AV-unprocessed.smi:1643-6

> <Gold.Version>
5.8.1

> <Gold.Id.Protein>
6NUR|6NUR_protein|mol2

> <Gold.PLP.Fitness>
52.6433

> <Gold.PLP.PLP>
-44.4801

> <Gold.PLP.part.hbond>
-4.0000

> <Gold.PLP.part.metal>
0.0000

> <Gold.PLP.part.buried>
-4.7037

> <Gold.PLP.part.nonpolar>
-34.9949

> <Gold.PLP.part.repulsive>
0.0880

> <Gold.PLP.ligand.clash>
0.0000

> <Gold.PLP.ligand.torsion>
1.4659

> <Gold.PLP.Chemscore.Hbond>
3.6800

> <Gold.PLP.Chemscore.CHOScore>
0.0000

> <Gold.PLP.Chemscore.Metal>
0.0000

> <Gold.Chemscore.Hbonds>
donor molecule, donor type, donor heavy atom, donor atom, acceptor molecule, acceptor atom, score
      L1  H    11    38       P1  7957  1.00
      P1  H  6934  6946       L1     3  0.75
      P1  H  7989  7998       L1    11  0.88
      P1  H  7997  8009       L1    15  1.00

> <Gold.PLP.Chemscore.Internal.Correction>
0.0550

> <Gold.Rescore>
     Score         DG    S(hbond)    S(metal)    S(lipo)     H(rot)  DE(clash)    DE(int)     intcor
     20.92     -23.37       3.24        0.00     105.65       2.07       0.40       2.05       ----

> <Gold.Chemscore.Fitness>
20.9167

> <Gold.Chemscore.DG>
-23.3661

> <Gold.Chemscore.ZeroCoef>
-5.4800

> <Gold.Chemscore.Hbond>
3.2368

> <Gold.Chemscore.Metal>
0.0000

> <Gold.Chemscore.Lipo>
105.6547

> <Gold.Chemscore.Internal_Hbond>
0.0000

> <Gold.Chemscore.DEClash>
0.4013

> <Gold.Chemscore.DEInternal>
2.0481

> <Gold.Chemscore.Rot>
2.0650

> <Gold.Chemscore.Internal.Correction>
   9.000000E+99

> <Gold.Chemscore.Hbonds>
donor molecule, donor type, donor heavy atom, donor atom, acceptor molecule, acceptor atom, score
      L1  H    11    38       P1  7957  0.98
      P1  H  6934  6946       L1     3  0.74
      P1  H  7989  7998       L1    11  0.19
      P1  H  7997  8009       L1    15  0.19

> <Gold.Chemscore.Hbond.Weighted>
-10.8110

> <Gold.Chemscore.Metal.Weighted>
-0.0000

> <Gold.Chemscore.Lipo.Weighted>
-12.3616

> <Gold.Chemscore.Internal_Hbond.Weighted>
0.0000

> <Gold.Chemscore.DEClash.Weighted>
0.4013

> <Gold.Chemscore.DEInternal.Weighted>
2.0481

> <Gold.Chemscore.Rot.Weighted>
5.2865

> <Gold.Chemscore.Internal.Correction.Weighted>
   9.000000E+99

> <Gold.Protein.RotatedTorsions>
[ 6907 6896 6895 6894 ] final  160.40 input  -60.11 | X-H torsion
[ 7974 7965 7964 7962 ] final  134.36 input  175.53 | X-H torsion
[ 8008 7997 7996 7995 ] final -176.55 input   59.86 | X-H torsion
[ 10167 10162 10161 10158 ] final  119.95 input  -65.29 | X-H torsion
[ 10718 10713 10712 10709 ] final -154.30 input   66.30 | X-H torsion
[ 10763 10752 10751 10750 ] final   68.12 input  -60.55 | X-H torsion
[ 11005 11000 10999 10996 ] final   77.77 input  -57.11 | X-H torsion

> <Gold.Protein.ActiveResidues>
 VAL166  LYS551  ARG553  GLY616  TRP617  ASP618  TYR619  PRO620  LYS621  CYS622 
 ASP623  PHE694  ASN695  SER759  ASP760  ASP761  ALA762  ILE779  LEU786  VAL792 
 PHE793  MET794  SER795  GLU796  ALA797  LYS798  CYS799  TRP800  GLU811  SER814 

> <Gold.Protein.RotatedAtoms>
  151.9712  133.3726  159.4071 H   0  0  0  0  0  0  0  0  0  0  0  0  # atno 6907 bound_to 6896
  150.6948  134.4138  159.5183 H   0  0  0  0  0  0  0  0  0  0  0  0  # atno 6908 bound_to 6896
  152.1842  134.8728  160.0574 H   0  0  0  0  0  0  0  0  0  0  0  0  # atno 6909 bound_to 6896
  144.9772  139.4543  143.5404 H   0  0  0  0  0  0  0  0  0  0  0  0  # atno 7974 bound_to 7965
  155.9962  140.1211  157.0591 H   0  0  0  0  0  0  0  0  0  0  0  0  # atno 8008 bound_to 7997
  154.4227  140.1116  156.5702 H   0  0  0  0  0  0  0  0  0  0  0  0  # atno 8009 bound_to 7997
  155.6275  140.3472  155.4674 H   0  0  0  0  0  0  0  0  0  0  0  0  # atno 8010 bound_to 7997
  139.6013  144.7057  151.3056 H   0  0  0  0  0  0  0  0  0  0  0  0  # atno 10167 bound_to 10162
  156.4975  130.8376  151.2596 H   0  0  0  0  0  0  0  0  0  0  0  0  # atno 10718 bound_to 10713
  153.0219  135.5259  154.7085 H   0  0  0  0  0  0  0  0  0  0  0  0  # atno 10763 bound_to 10752
  154.6174  135.2885  155.0367 H   0  0  0  0  0  0  0  0  0  0  0  0  # atno 10764 bound_to 10752
  154.1366  135.6584  153.4985 H   0  0  0  0  0  0  0  0  0  0  0  0  # atno 10765 bound_to 10752
  139.9240  134.7710  156.1565 H   0  0  0  0  0  0  0  0  0  0  0  0  # atno 11005 bound_to 11000
  146.3398  139.9022  142.8793 LP  0  0  0  0  0  0  0  0  0  0  0  0  # atno 17320 bound_to 7965
  145.2473  141.0031  143.3901 LP  0  0  0  0  0  0  0  0  0  0  0  0  # atno 17321 bound_to 7965
  140.7251  143.7025  150.7833 LP  0  0  0  0  0  0  0  0  0  0  0  0  # atno 17342 bound_to 10162
  140.0602  143.5162  152.2631 LP  0  0  0  0  0  0  0  0  0  0  0  0  # atno 17343 bound_to 10162
  157.7467  130.9993  150.2883 LP  0  0  0  0  0  0  0  0  0  0  0  0  # atno 17370 bound_to 10713
  156.3365  130.3808  149.7445 LP  0  0  0  0  0  0  0  0  0  0  0  0  # atno 17371 bound_to 10713
  141.0784  133.6765  156.2284 LP  0  0  0  0  0  0  0  0  0  0  0  0  # atno 17394 bound_to 11000
  140.6390  134.5186  157.5567 LP  0  0  0  0  0  0  0  0  0  0  0  0  # atno 17395 bound_to 11000

$$$$
