AV-unprocessed.smi:2061|AV-procd|sdf|8392|dock8
  -GOLD-   2272011 73D 1   1.00000     0.00000
 Structure written by MMmdl.
 45 46  0  0  0  0  0  0  0  0  3 V2000
  152.8403  142.4798  160.9278 C   0  0  0  0  0  0  0  0  0  0  0  0
  152.0467  142.1953  159.6983 C   0  0  0  0  0  0  0  0  0  0  0  0
  152.3369  141.5304  158.5403 C   0  0  0  0  0  0  0  0  0  0  0  0
  151.1295  141.6327  157.7997 C   0  0  0  0  0  0  0  0  0  0  0  0
  151.0240  141.0682  156.5011 N   0  0  0  0  0  0  0  0  0  0  0  0
  151.7644  140.0890  155.9522 C   0  0  0  0  0  0  0  0  0  0  0  0
  152.7576  139.6512  156.5453 O   0  0  0  0  0  0  0  0  0  0  0  0
  151.2772  139.6811  154.7474 N   0  5  0  0  0  0  0  0  0  0  0  0
  150.2899  138.6124  154.5570 C   0  0  0  0  0  0  0  0  0  0  0  0
  148.9551  139.1533  153.9709 C   0  0  2  0  0  0  0  0  0  0  0  0
  148.4235  140.4310  154.6674 C   0  0  0  0  0  0  0  0  0  0  0  0
  147.9433  138.0579  153.8301 N   0  3  1  0  0  0  0  0  0  0  0  0
  147.6397  137.2611  155.0473 C   0  0  0  0  0  0  0  0  0  0  0  0
  146.8150  136.0229  154.6617 C   0  0  1  0  0  0  0  0  0  0  0  0
  146.4287  135.1854  155.8853 C   0  0  0  0  0  0  0  0  0  0  0  0
  145.6155  136.4458  154.0165 O   0  0  0  0  0  0  0  0  0  0  0  0
  145.8107  137.2394  152.8445 C   0  0  2  0  0  0  0  0  0  0  0  0
  146.3358  136.4044  151.6629 C   0  0  0  0  0  0  0  0  0  0  0  0
  146.6858  138.4693  153.1619 C   0  0  0  0  0  0  0  0  0  0  0  0
  150.1898  142.3089  158.4445 N   0  0  0  0  0  0  0  0  0  0  0  0
  150.7716  142.6694  159.6654 O   0  0  0  0  0  0  0  0  0  0  0  0
  153.7775  142.9761  160.6760 H   0  0  0  0  0  0  0  0  0  0  0  0
  153.0776  141.5560  161.4554 H   0  0  0  0  0  0  0  0  0  0  0  0
  152.2893  143.1265  161.6112 H   0  0  0  0  0  0  0  0  0  0  0  0
  153.2636  141.0476  158.2690 H   0  0  0  0  0  0  0  0  0  0  0  0
  150.2664  141.4177  155.9334 H   0  0  0  0  0  0  0  0  0  0  0  0
  150.6763  137.8431  153.8884 H   0  0  0  0  0  0  0  0  0  0  0  0
  150.0724  138.0888  155.4892 H   0  0  0  0  0  0  0  0  0  0  0  0
  149.2163  139.4757  152.9621 H   0  0  0  0  0  0  0  0  0  0  0  0
  149.1507  141.2439  154.6264 H   0  0  0  0  0  0  0  0  0  0  0  0
  148.1779  140.2719  155.7187 H   0  0  0  0  0  0  0  0  0  0  0  0
  147.5240  140.7956  154.1709 H   0  0  0  0  0  0  0  0  0  0  0  0
  148.5612  136.9396  155.5324 H   0  0  0  0  0  0  0  0  0  0  0  0
  147.0895  137.8679  155.7677 H   0  0  0  0  0  0  0  0  0  0  0  0
  147.3958  135.3892  153.9909 H   0  0  0  0  0  0  0  0  0  0  0  0
  147.3151  134.8279  156.4103 H   0  0  0  0  0  0  0  0  0  0  0  0
  145.8439  134.3136  155.5912 H   0  0  0  0  0  0  0  0  0  0  0  0
  145.8319  135.7654  156.5899 H   0  0  0  0  0  0  0  0  0  0  0  0
  144.8230  137.6015  152.5580 H   0  0  0  0  0  0  0  0  0  0  0  0
  146.3496  136.9951  150.7469 H   0  0  0  0  0  0  0  0  0  0  0  0
  145.6985  135.5379  151.4858 H   0  0  0  0  0  0  0  0  0  0  0  0
  147.3506  136.0440  151.8279 H   0  0  0  0  0  0  0  0  0  0  0  0
  146.1457  139.1571  153.8144 H   0  0  0  0  0  0  0  0  0  0  0  0
  146.9035  139.0097  152.2395 H   0  0  0  0  0  0  0  0  0  0  0  0
  148.3827  137.4093  153.1910 H   0  0  0  0  0  0  0  0  0  0  0  0
  1  2  1  0  0  0  0
  1 22  1  0  0  0  0
  1 23  1  0  0  0  0
  1 24  1  0  0  0  0
  2 21  1  0  0  0  0
  2  3  2  0  0  0  0
  3  4  1  0  0  0  0
  3 25  1  0  0  0  0
  4  5  1  0  0  0  0
  4 20  2  0  0  0  0
  5  6  1  0  0  0  0
  5 26  1  0  0  0  0
  6  7  2  0  0  0  0
  6  8  1  0  0  0  0
  8  9  1  0  0  0  0
  9 10  1  0  0  0  0
  9 27  1  0  0  0  0
  9 28  1  0  0  0  0
 10 11  1  0  0  0  0
 10 12  1  0  0  0  0
 10 29  1  0  0  0  0
 11 30  1  0  0  0  0
 11 31  1  0  0  0  0
 11 32  1  0  0  0  0
 12 19  1  0  0  0  0
 12 13  1  0  0  0  0
 12 45  1  0  0  0  0
 13 14  1  0  0  0  0
 13 33  1  0  0  0  0
 13 34  1  0  0  0  0
 14 15  1  0  0  0  0
 14 16  1  0  0  0  0
 14 35  1  0  0  0  0
 15 36  1  0  0  0  0
 15 37  1  0  0  0  0
 15 38  1  0  0  0  0
 16 17  1  0  0  0  0
 17 18  1  0  0  0  0
 17 19  1  0  0  0  0
 17 39  1  0  0  0  0
 18 40  1  0  0  0  0
 18 41  1  0  0  0  0
 18 42  1  0  0  0  0
 19 43  1  0  0  0  0
 19 44  1  0  0  0  0
 20 21  1  0  0  0  0
M  CHG  1   8  -1
M  CHG  1  12   1
M  END
> <s_m_source_file>
AV-unprocessed.smi

> <i_m_source_file_index>
2061

> <i_lp_mmshare_version>
43012

> <i_f3d_flags>
0

> <s_epik_input>
W0NIM11jMVtjSF1jKG5vMSlbTkhdQyg9TylbTkhdW0NIMl1bQ0BIXShbQ0gzXSlOMltDSDJdW0NAQEhdKFtDSDNdKU9bQ0BASF0oW0NIM10pW0NIMl0y

> <s_epik_cmdline>
J2VwaWtfcHl0aG9uJywgJy1waCcsICc3LjAnLCAnLXRuJywgJzgnLCAnLW1hJywgJzIwMCcsICctbWV0YWxfYmluZGluZycsICctaW1hZScsICc8aW5maWxlLm1hZT4nLCAnLW9tYWUnLCAnPG91dGZpbGUubWFlPic=

> <r_epik_Ionization_Penalty>
6.8073

> <r_epik_Ionization_Penalty_Charging>
6.80729

> <r_epik_Ionization_Penalty_Neutral>
5.65391e-06

> <r_epik_State_Penalty>
7.47323

> <r_epik_Charging_Adjusted_Penalty>
14.2805

> <i_epik_Tot_Q>
0

> <i_epik_Tot_abs_Q>
2

> <r_epik_Metal_State_Penalty>
3.40035

> <b_epik_Metal_Only>
1

> <s_lp_Force_Field>
OPLS_2005

> <r_lp_Energy>
16.7719

> <b_lp_Chiralities_Consistent>
1

> <s_lp_Variant>
AV-unprocessed.smi:2061-33

> <Gold.Version>
5.8.1

> <Gold.Id.Protein>
6NUR|6NUR_protein|mol2

> <Gold.PLP.Fitness>
41.3897

> <Gold.PLP.PLP>
-31.1768

> <Gold.PLP.part.hbond>
-3.8720

> <Gold.PLP.part.metal>
0.0000

> <Gold.PLP.part.buried>
0.3421

> <Gold.PLP.part.nonpolar>
-29.1739

> <Gold.PLP.part.repulsive>
0.4457

> <Gold.PLP.ligand.clash>
0.0000

> <Gold.PLP.ligand.torsion>
0.9979

> <Gold.PLP.Chemscore.Hbond>
4.0000

> <Gold.PLP.Chemscore.CHOScore>
0.0000

> <Gold.PLP.Chemscore.Metal>
0.0000

> <Gold.Chemscore.Hbonds>
donor molecule, donor type, donor heavy atom, donor atom, acceptor molecule, acceptor atom, score
      L1  H    12    45       P1  7948  2.00
      P1  H  7989  7998       L1     8  1.00
      P1  H  7997  8008       L1     7  1.00

> <Gold.PLP.Chemscore.Internal.Correction>
0.2087

> <Gold.Rescore>
     Score         DG    S(hbond)    S(metal)    S(lipo)     H(rot)  DE(clash)    DE(int)     intcor
     15.03     -19.99       2.83        0.00      77.19       1.56       2.52       2.44       ----

> <Gold.Chemscore.Fitness>
15.0288

> <Gold.Chemscore.DG>
-19.9869

> <Gold.Chemscore.ZeroCoef>
-5.4800

> <Gold.Chemscore.Hbond>
2.8313

> <Gold.Chemscore.Metal>
0.0000

> <Gold.Chemscore.Lipo>
77.1911

> <Gold.Chemscore.Internal_Hbond>
0.0000

> <Gold.Chemscore.DEClash>
2.5190

> <Gold.Chemscore.DEInternal>
2.4392

> <Gold.Chemscore.Rot>
1.5550

> <Gold.Chemscore.Internal.Correction>
   9.000000E+99

> <Gold.Chemscore.Hbonds>
donor molecule, donor type, donor heavy atom, donor atom, acceptor molecule, acceptor atom, score
      L1  H    12    45       P1  7948  1.00
      P1  H  7989  7998       L1     8  0.78
      P1  H  7997  8008       L1     7  1.00

> <Gold.Chemscore.Hbond.Weighted>
-9.4564

> <Gold.Chemscore.Metal.Weighted>
-0.0000

> <Gold.Chemscore.Lipo.Weighted>
-9.0314

> <Gold.Chemscore.Internal_Hbond.Weighted>
0.0000

> <Gold.Chemscore.DEClash.Weighted>
2.5190

> <Gold.Chemscore.DEInternal.Weighted>
2.4392

> <Gold.Chemscore.Rot.Weighted>
3.9809

> <Gold.Chemscore.Internal.Correction.Weighted>
   9.000000E+99

> <Gold.Protein.RotatedTorsions>
[ 6907 6896 6895 6894 ] final -156.95 input  -60.11 | X-H torsion
[ 7974 7965 7964 7962 ] final  -38.25 input  175.53 | X-H torsion
[ 8008 7997 7996 7995 ] final  -49.07 input   59.86 | X-H torsion
[ 10167 10162 10161 10158 ] final  -14.93 input  -65.29 | X-H torsion
[ 10718 10713 10712 10709 ] final  -57.05 input   66.30 | X-H torsion
[ 10763 10752 10751 10750 ] final -100.62 input  -60.55 | X-H torsion
[ 11005 11000 10999 10996 ] final   35.07 input  -57.11 | X-H torsion

> <Gold.Protein.ActiveResidues>
 VAL166  LYS551  ARG553  GLY616  TRP617  ASP618  TYR619  PRO620  LYS621  CYS622 
 ASP623  PHE694  ASN695  SER759  ASP760  ASP761  ALA762  ILE779  LEU786  VAL792 
 PHE793  MET794  SER795  GLU796  ALA797  LYS798  CYS799  TRP800  GLU811  SER814 

> <Gold.Protein.RotatedAtoms>
  151.2954  133.4146  159.2635 H   0  0  0  0  0  0  0  0  0  0  0  0  # atno 6907 bound_to 6896
  151.0241  134.9491  159.8086 H   0  0  0  0  0  0  0  0  0  0  0  0  # atno 6908 bound_to 6896
  152.5331  134.2917  159.9098 H   0  0  0  0  0  0  0  0  0  0  0  0  # atno 6909 bound_to 6896
  146.0503  140.6490  142.9045 H   0  0  0  0  0  0  0  0  0  0  0  0  # atno 7974 bound_to 7965
  154.4038  140.1306  156.4442 H   0  0  0  0  0  0  0  0  0  0  0  0  # atno 8008 bound_to 7997
  155.7429  140.3489  155.5093 H   0  0  0  0  0  0  0  0  0  0  0  0  # atno 8009 bound_to 7997
  155.9022  140.1021  157.1331 H   0  0  0  0  0  0  0  0  0  0  0  0  # atno 8010 bound_to 7997
  140.7210  143.5270  150.9565 H   0  0  0  0  0  0  0  0  0  0  0  0  # atno 10167 bound_to 10162
  156.1241  130.4164  150.0388 H   0  0  0  0  0  0  0  0  0  0  0  0  # atno 10718 bound_to 10713
  154.7593  135.4928  153.9434 H   0  0  0  0  0  0  0  0  0  0  0  0  # atno 10763 bound_to 10752
  153.1233  135.6736  153.9307 H   0  0  0  0  0  0  0  0  0  0  0  0  # atno 10764 bound_to 10752
  153.9033  135.3107  155.3427 H   0  0  0  0  0  0  0  0  0  0  0  0  # atno 10765 bound_to 10752
  140.2464  134.3354  155.7906 H   0  0  0  0  0  0  0  0  0  0  0  0  # atno 11005 bound_to 11000
  144.7119  140.4070  143.7074 LP  0  0  0  0  0  0  0  0  0  0  0  0  # atno 17320 bound_to 7965
  145.6735  139.1604  143.2741 LP  0  0  0  0  0  0  0  0  0  0  0  0  # atno 17321 bound_to 7965
  139.8990  143.6860  152.3134 LP  0  0  0  0  0  0  0  0  0  0  0  0  # atno 17342 bound_to 10162
  139.7202  144.7604  151.0967 LP  0  0  0  0  0  0  0  0  0  0  0  0  # atno 17343 bound_to 10162
  156.8318  130.9395  151.3636 LP  0  0  0  0  0  0  0  0  0  0  0  0  # atno 17370 bound_to 10713
  157.6423  130.8816  149.9472 LP  0  0  0  0  0  0  0  0  0  0  0  0  # atno 17371 bound_to 10713
  141.2206  133.7328  156.8968 LP  0  0  0  0  0  0  0  0  0  0  0  0  # atno 17394 bound_to 11000
  140.1601  134.9171  157.2704 LP  0  0  0  0  0  0  0  0  0  0  0  0  # atno 17395 bound_to 11000

$$$$
