AV-unprocessed.smi:2013|AV-procd|sdf|8159|dock7
  -GOLD-   2272010403D 1   1.00000     0.00000
 Structure written by MMmdl.
 50 51  0  0  0  0  0  0  0  0  1 V2000
  147.7863  141.7870  153.9515 C   0  0  0  0  0  0  0  0  0  0  0  0
  146.7105  141.9704  155.0363 C   0  0  0  0  0  0  0  0  0  0  0  0
  145.5796  142.9005  154.5488 C   0  0  0  0  0  0  0  0  0  0  0  0
  147.3194  142.2815  156.4422 C   0  0  2  0  0  0  0  0  0  0  0  0
  148.6989  141.6131  156.6869 C   0  0  0  0  0  0  0  0  0  0  0  0
  149.6771  142.5642  157.2002 N   0  0  0  0  0  0  0  0  0  0  0  0
  150.9897  142.3202  157.3109 C   0  0  0  0  0  0  0  0  0  0  0  0
  151.5018  141.2425  157.0047 O   0  0  0  0  0  0  0  0  0  0  0  0
  151.8379  143.4741  157.8640 C   0  0  0  0  0  0  0  0  0  0  0  0
  152.3011  143.2553  159.2407 N   0  0  0  0  0  0  0  0  0  0  0  0
  151.9950  144.1830  160.2192 C   0  0  0  0  0  0  0  0  0  0  0  0
  152.3676  144.0538  161.5111 C   0  0  0  0  0  0  0  0  0  0  0  0
  153.1373  142.8986  161.9559 C   0  0  0  0  0  0  0  0  0  0  0  0
  153.4793  142.7294  163.1269 O   0  0  0  0  0  0  0  0  0  0  0  0
  153.4518  141.9730  160.9322 N   0  0  0  0  0  0  0  0  0  0  0  0
  154.1951  140.7834  161.2926 C   0  0  0  0  0  0  0  0  0  0  0  0
  153.0428  142.1048  159.5858 C   0  0  0  0  0  0  0  0  0  0  0  0
  153.3086  141.2524  158.7346 O   0  0  0  0  0  0  0  0  0  0  0  0
  146.3715  142.1789  157.5703 N   0  0  0  0  0  0  0  0  0  0  0  0
  146.8655  142.8021  158.7969 C   0  0  0  0  0  0  0  0  0  0  0  0
  145.8008  142.8014  159.9061 C   0  0  0  0  0  0  0  0  0  0  0  0
  145.3784  141.4649  160.1546 O   0  0  0  0  0  0  0  0  0  0  0  0
  144.8428  140.8357  158.9953 C   0  0  0  0  0  0  0  0  0  0  0  0
  145.8911  140.8311  157.8685 C   0  0  0  0  0  0  0  0  0  0  0  0
  148.2820  142.7289  153.7150 H   0  0  0  0  0  0  0  0  0  0  0  0
  147.3499  141.4058  153.0280 H   0  0  0  0  0  0  0  0  0  0  0  0
  148.5502  141.0773  154.2704 H   0  0  0  0  0  0  0  0  0  0  0  0
  146.2395  140.9914  155.1343 H   0  0  0  0  0  0  0  0  0  0  0  0
  145.9266  143.9013  154.3046 H   0  0  0  0  0  0  0  0  0  0  0  0
  144.7759  142.9915  155.2785 H   0  0  0  0  0  0  0  0  0  0  0  0
  145.1293  142.4999  153.6401 H   0  0  0  0  0  0  0  0  0  0  0  0
  147.5477  143.3464  156.3701 H   0  0  0  0  0  0  0  0  0  0  0  0
  148.6114  140.8022  157.4098 H   0  0  0  0  0  0  0  0  0  0  0  0
  149.0854  141.1705  155.7685 H   0  0  0  0  0  0  0  0  0  0  0  0
  149.3332  143.4722  157.4776 H   0  0  0  0  0  0  0  0  0  0  0  0
  152.6909  143.6430  157.2045 H   0  0  0  0  0  0  0  0  0  0  0  0
  151.2438  144.3877  157.8152 H   0  0  0  0  0  0  0  0  0  0  0  0
  151.4222  145.0557  159.9404 H   0  0  0  0  0  0  0  0  0  0  0  0
  152.0893  144.8139  162.2262 H   0  0  0  0  0  0  0  0  0  0  0  0
  154.8526  140.5077  160.4666 H   0  0  0  0  0  0  0  0  0  0  0  0
  153.4617  140.0024  161.4979 H   0  0  0  0  0  0  0  0  0  0  0  0
  154.8184  140.9829  162.1651 H   0  0  0  0  0  0  0  0  0  0  0  0
  147.7455  142.2744  159.1637 H   0  0  0  0  0  0  0  0  0  0  0  0
  147.1741  143.8286  158.5967 H   0  0  0  0  0  0  0  0  0  0  0  0
  146.2095  143.2229  160.8246 H   0  0  0  0  0  0  0  0  0  0  0  0
  144.9453  143.4168  159.6229 H   0  0  0  0  0  0  0  0  0  0  0  0
  144.5514  139.8157  159.2455 H   0  0  0  0  0  0  0  0  0  0  0  0
  143.9391  141.3574  158.6770 H   0  0  0  0  0  0  0  0  0  0  0  0
  145.4343  140.3847  156.9911 H   0  0  0  0  0  0  0  0  0  0  0  0
  146.7237  140.1898  158.1587 H   0  0  0  0  0  0  0  0  0  0  0  0
  1  2  1  0  0  0  0
  1 25  1  0  0  0  0
  1 26  1  0  0  0  0
  1 27  1  0  0  0  0
  2  3  1  0  0  0  0
  2  4  1  0  0  0  0
  2 28  1  0  0  0  0
  3 29  1  0  0  0  0
  3 30  1  0  0  0  0
  3 31  1  0  0  0  0
  4  5  1  0  0  0  0
  4 19  1  0  0  0  0
  4 32  1  0  0  0  0
  5  6  1  0  0  0  0
  5 33  1  0  0  0  0
  5 34  1  0  0  0  0
  6  7  1  0  0  0  0
  6 35  1  0  0  0  0
  7  8  2  0  0  0  0
  7  9  1  0  0  0  0
  9 10  1  0  0  0  0
  9 36  1  0  0  0  0
  9 37  1  0  0  0  0
 10 17  1  0  0  0  0
 10 11  1  0  0  0  0
 11 12  2  0  0  0  0
 11 38  1  0  0  0  0
 12 13  1  0  0  0  0
 12 39  1  0  0  0  0
 13 14  2  0  0  0  0
 13 15  1  0  0  0  0
 15 16  1  0  0  0  0
 15 17  1  0  0  0  0
 16 40  1  0  0  0  0
 16 41  1  0  0  0  0
 16 42  1  0  0  0  0
 17 18  2  0  0  0  0
 19 24  1  0  0  0  0
 19 20  1  0  0  0  0
 20 21  1  0  0  0  0
 20 43  1  0  0  0  0
 20 44  1  0  0  0  0
 21 22  1  0  0  0  0
 21 45  1  0  0  0  0
 21 46  1  0  0  0  0
 22 23  1  0  0  0  0
 23 24  1  0  0  0  0
 23 47  1  0  0  0  0
 23 48  1  0  0  0  0
 24 49  1  0  0  0  0
 24 50  1  0  0  0  0
M  END
> <s_m_source_file>
AV-unprocessed.smi

> <i_m_source_file_index>
2013

> <i_lp_mmshare_version>
43012

> <i_f3d_flags>
0

> <s_epik_input>
W0NIMl0xW0NIMl1PW0NIMl1bQ0gyXU4xW0NASF0oW0NIXShbQ0gzXSlbQ0gzXSlbQ0gyXVtOSF1DKD1PKVtDSDJdbjJbY0hdW2NIXWMoPU8pbihbQ0gzXSljMj1P

> <s_epik_cmdline>
J2VwaWtfcHl0aG9uJywgJy1waCcsICc3LjAnLCAnLXRuJywgJzgnLCAnLW1hJywgJzIwMCcsICctbWV0YWxfYmluZGluZycsICctaW1hZScsICc8aW5maWxlLm1hZT4nLCAnLW9tYWUnLCAnPG91dGZpbGUubWFlPic=

> <r_lp_tautomer_probability>
1

> <r_epik_Ionization_Penalty>
0.45351

> <r_epik_Ionization_Penalty_Charging>
1.24653e-08

> <r_epik_Ionization_Penalty_Neutral>
0.45351

> <r_epik_State_Penalty>
0.456487

> <r_epik_Charging_Adjusted_Penalty>
0.456487

> <i_epik_Tot_Q>
0

> <i_epik_Tot_abs_Q>
0

> <r_epik_Metal_State_Penalty>
0.456449

> <b_epik_Metal_Only>
0

> <s_lp_Force_Field>
OPLS_2005

> <r_lp_Energy>
47.2128

> <b_lp_Chiralities_Consistent>
1

> <s_lp_Variant>
AV-unprocessed.smi:2013-3

> <Gold.Version>
5.8.1

> <Gold.Id.Protein>
6NUR|6NUR_protein|mol2

> <Gold.PLP.Fitness>
49.5534

> <Gold.PLP.PLP>
-48.0037

> <Gold.PLP.part.hbond>
-2.0000

> <Gold.PLP.part.metal>
0.0000

> <Gold.PLP.part.buried>
-5.5036

> <Gold.PLP.part.nonpolar>
-39.9305

> <Gold.PLP.part.repulsive>
0.2534

> <Gold.PLP.ligand.clash>
0.0000

> <Gold.PLP.ligand.torsion>
1.1422

> <Gold.PLP.Chemscore.Hbond>
1.1131

> <Gold.PLP.Chemscore.CHOScore>
0.0000

> <Gold.PLP.Chemscore.Metal>
0.0000

> <Gold.Chemscore.Hbonds>
donor molecule, donor type, donor heavy atom, donor atom, acceptor molecule, acceptor atom, score
      L1  H     6    35       P1  8028  0.11
      P1  H  6934  6946       L1    22  0.90

> <Gold.PLP.Chemscore.Internal.Correction>
0.4948

> <Gold.Rescore>
     Score         DG    S(hbond)    S(metal)    S(lipo)     H(rot)  DE(clash)    DE(int)     intcor
      5.37     -10.02       0.39        0.00      75.87       2.20       0.23       4.42       ----

> <Gold.Chemscore.Fitness>
5.3716

> <Gold.Chemscore.DG>
-10.0205

> <Gold.Chemscore.ZeroCoef>
-5.4800

> <Gold.Chemscore.Hbond>
0.3910

> <Gold.Chemscore.Metal>
0.0000

> <Gold.Chemscore.Lipo>
75.8681

> <Gold.Chemscore.Internal_Hbond>
0.0000

> <Gold.Chemscore.DEClash>
0.2314

> <Gold.Chemscore.DEInternal>
4.4175

> <Gold.Chemscore.Rot>
2.2039

> <Gold.Chemscore.Internal.Correction>
   9.000000E+99

> <Gold.Chemscore.Hbonds>
donor molecule, donor type, donor heavy atom, donor atom, acceptor molecule, acceptor atom, score
      L1  H     6    35       P1  8028  0.06
      P1  H  6934  6946       L1    22  0.16
      P1  H  7997  8010       L1    18  0.02

> <Gold.Chemscore.Hbond.Weighted>
-1.3059

> <Gold.Chemscore.Metal.Weighted>
-0.0000

> <Gold.Chemscore.Lipo.Weighted>
-8.8766

> <Gold.Chemscore.Internal_Hbond.Weighted>
0.0000

> <Gold.Chemscore.DEClash.Weighted>
0.2314

> <Gold.Chemscore.DEInternal.Weighted>
4.4175

> <Gold.Chemscore.Rot.Weighted>
5.6420

> <Gold.Chemscore.Internal.Correction.Weighted>
   9.000000E+99

> <Gold.Protein.RotatedTorsions>
[ 6907 6896 6895 6894 ] final -146.02 input  -60.11 | X-H torsion
[ 7974 7965 7964 7962 ] final   77.26 input  175.53 | X-H torsion
[ 8008 7997 7996 7995 ] final   39.57 input   59.86 | X-H torsion
[ 10167 10162 10161 10158 ] final   64.65 input  -65.29 | X-H torsion
[ 10718 10713 10712 10709 ] final  -26.48 input   66.30 | X-H torsion
[ 10763 10752 10751 10750 ] final  118.17 input  -60.55 | X-H torsion
[ 11005 11000 10999 10996 ] final -174.07 input  -57.11 | X-H torsion

> <Gold.Protein.ActiveResidues>
 VAL166  LYS551  ARG553  GLY616  TRP617  ASP618  TYR619  PRO620  LYS621  CYS622 
 ASP623  PHE694  ASN695  SER759  ASP760  ASP761  ALA762  ILE779  LEU786  VAL792 
 PHE793  MET794  SER795  GLU796  ALA797  LYS798  CYS799  TRP800  GLU811  SER814 

> <Gold.Protein.RotatedAtoms>
  151.1359  133.5005  159.2597 H   0  0  0  0  0  0  0  0  0  0  0  0  # atno 6907 bound_to 6896
  151.1708  135.0316  159.8760 H   0  0  0  0  0  0  0  0  0  0  0  0  # atno 6908 bound_to 6896
  152.5461  134.1222  159.8457 H   0  0  0  0  0  0  0  0  0  0  0  0  # atno 6909 bound_to 6896
  145.6923  139.2556  143.1753 H   0  0  0  0  0  0  0  0  0  0  0  0  # atno 7974 bound_to 7965
  155.2388  140.3344  155.4294 H   0  0  0  0  0  0  0  0  0  0  0  0  # atno 8008 bound_to 7997
  156.2264  140.1831  156.7397 H   0  0  0  0  0  0  0  0  0  0  0  0  # atno 8009 bound_to 7997
  154.5906  140.0638  156.9219 H   0  0  0  0  0  0  0  0  0  0  0  0  # atno 8010 bound_to 7997
  140.1198  144.4741  150.6927 H   0  0  0  0  0  0  0  0  0  0  0  0  # atno 10167 bound_to 10162
  156.4507  130.4483  149.6992 H   0  0  0  0  0  0  0  0  0  0  0  0  # atno 10718 bound_to 10713
  153.5636  135.3516  155.2809 H   0  0  0  0  0  0  0  0  0  0  0  0  # atno 10763 bound_to 10752
  154.8691  135.4142  154.2803 H   0  0  0  0  0  0  0  0  0  0  0  0  # atno 10764 bound_to 10752
  153.3554  135.7057  153.6824 H   0  0  0  0  0  0  0  0  0  0  0  0  # atno 10765 bound_to 10752
  140.4786  134.6097  157.4910 H   0  0  0  0  0  0  0  0  0  0  0  0  # atno 11005 bound_to 11000
  146.0871  140.7698  142.9613 LP  0  0  0  0  0  0  0  0  0  0  0  0  # atno 17320 bound_to 7965
  144.6993  140.3579  143.7169 LP  0  0  0  0  0  0  0  0  0  0  0  0  # atno 17321 bound_to 7965
  140.6878  143.2359  151.5213 LP  0  0  0  0  0  0  0  0  0  0  0  0  # atno 17342 bound_to 10162
  139.5574  144.2240  152.1636 LP  0  0  0  0  0  0  0  0  0  0  0  0  # atno 17343 bound_to 10162
  156.3819  130.7583  151.2577 LP  0  0  0  0  0  0  0  0  0  0  0  0  # atno 17370 bound_to 10713
  157.7503  131.0293  150.4087 LP  0  0  0  0  0  0  0  0  0  0  0  0  # atno 17371 bound_to 10713
  139.9840  134.7091  155.9807 LP  0  0  0  0  0  0  0  0  0  0  0  0  # atno 17394 bound_to 11000
  141.1542  133.6544  156.4109 LP  0  0  0  0  0  0  0  0  0  0  0  0  # atno 17395 bound_to 11000

$$$$
