AV-unprocessed.smi:1056|AV-procd|sdf|4638|dock3
  -GOLD-   22720 3143D 1   1.00000     0.00000
 Structure written by MMmdl.
 44 46  0  0  0  0  0  0  0  0  1 V2000
  152.9297  142.4649  162.0453 C   0  0  0  0  0  0  0  0  0  0  0  0
  152.4238  142.2226  160.6342 C   0  0  0  0  0  0  0  0  0  0  0  0
  152.8107  141.0430  159.9591 C   0  0  0  0  0  0  0  0  0  0  0  0
  152.3620  140.7793  158.6464 C   0  0  0  0  0  0  0  0  0  0  0  0
  152.6131  139.7059  157.8088 N   0  0  0  0  0  0  0  0  0  0  0  0
  151.9144  140.0409  156.7276 C   0  0  0  0  0  0  0  0  0  0  0  0
  151.2392  141.2057  156.7665 N   0  0  0  0  0  0  0  0  0  0  0  0
  150.4142  141.7785  155.7176 C   0  0  0  0  0  0  0  0  0  0  0  0
  149.4714  140.7414  155.0737 C   0  0  2  0  0  0  0  0  0  0  0  0
  150.1432  140.1527  153.9752 O   0  0  0  0  0  0  0  0  0  0  0  0
  148.1525  141.3803  154.5817 C   0  0  0  0  0  0  0  0  0  0  0  0
  146.9968  141.2076  155.4687 N   0  0  0  0  0  0  0  0  0  0  0  0
  145.7615  141.7856  154.9379 C   0  0  0  0  0  0  0  0  0  0  0  0
  144.5525  141.4747  155.8342 C   0  0  0  0  0  0  0  0  0  0  0  0
  144.8390  141.7137  157.2448 N   0  0  0  0  0  0  0  0  0  0  0  0
  146.0731  141.7915  157.7684 C   0  0  0  0  0  0  0  0  0  0  0  0
  146.2548  141.9424  158.9743 O   0  0  0  0  0  0  0  0  0  0  0  0
  147.2837  141.7204  156.8179 C   0  0  0  0  0  0  0  0  0  0  0  0
  151.5073  141.7351  158.0236 C   0  0  0  0  0  0  0  0  0  0  0  0
  151.1142  142.9120  158.6850 C   0  0  0  0  0  0  0  0  0  0  0  0
  151.5723  143.1602  159.9959 C   0  0  0  0  0  0  0  0  0  0  0  0
  151.1420  144.4336  160.7020 C   0  0  0  0  0  0  0  0  0  0  0  0
  153.6107  141.6755  162.3651 H   0  0  0  0  0  0  0  0  0  0  0  0
  152.0967  142.4944  162.7483 H   0  0  0  0  0  0  0  0  0  0  0  0
  153.4664  143.4119  162.1039 H   0  0  0  0  0  0  0  0  0  0  0  0
  153.4578  140.3280  160.4453 H   0  0  0  0  0  0  0  0  0  0  0  0
  151.8891  139.4013  155.8574 H   0  0  0  0  0  0  0  0  0  0  0  0
  149.8369  142.5945  156.1540 H   0  0  0  0  0  0  0  0  0  0  0  0
  151.0644  142.2250  154.9635 H   0  0  0  0  0  0  0  0  0  0  0  0
  149.2532  139.9653  155.8089 H   0  0  0  0  0  0  0  0  0  0  0  0
  149.6613  140.3527  153.1875 H   0  0  0  0  0  0  0  0  0  0  0  0
  148.3293  142.4529  154.4855 H   0  0  0  0  0  0  0  0  0  0  0  0
  147.9161  141.0423  153.5707 H   0  0  0  0  0  0  0  0  0  0  0  0
  145.8752  142.8662  154.8335 H   0  0  0  0  0  0  0  0  0  0  0  0
  145.5481  141.3979  153.9426 H   0  0  0  0  0  0  0  0  0  0  0  0
  143.6913  142.0717  155.5333 H   0  0  0  0  0  0  0  0  0  0  0  0
  144.2676  140.4279  155.7223 H   0  0  0  0  0  0  0  0  0  0  0  0
  144.0502  141.7829  157.8713 H   0  0  0  0  0  0  0  0  0  0  0  0
  148.0580  141.1110  157.2862 H   0  0  0  0  0  0  0  0  0  0  0  0
  147.6856  142.7328  156.7497 H   0  0  0  0  0  0  0  0  0  0  0  0
  150.4646  143.6164  158.1868 H   0  0  0  0  0  0  0  0  0  0  0  0
  150.4724  145.0272  160.0791 H   0  0  0  0  0  0  0  0  0  0  0  0
  152.0095  145.0492  160.9413 H   0  0  0  0  0  0  0  0  0  0  0  0
  150.6164  144.1986  161.6278 H   0  0  0  0  0  0  0  0  0  0  0  0
  1  2  1  0  0  0  0
  1 23  1  0  0  0  0
  1 24  1  0  0  0  0
  1 25  1  0  0  0  0
  2 21  1  0  0  0  0
  2  3  2  0  0  0  0
  3  4  1  0  0  0  0
  3 26  1  0  0  0  0
  4 19  2  0  0  0  0
  4  5  1  0  0  0  0
  5  6  2  0  0  0  0
  6  7  1  0  0  0  0
  6 27  1  0  0  0  0
  7  8  1  0  0  0  0
  7 19  1  0  0  0  0
  8  9  1  0  0  0  0
  8 28  1  0  0  0  0
  8 29  1  0  0  0  0
  9 10  1  0  0  0  0
  9 11  1  0  0  0  0
  9 30  1  0  0  0  0
 10 31  1  0  0  0  0
 11 12  1  0  0  0  0
 11 32  1  0  0  0  0
 11 33  1  0  0  0  0
 12 18  1  0  0  0  0
 12 13  1  0  0  0  0
 13 14  1  0  0  0  0
 13 34  1  0  0  0  0
 13 35  1  0  0  0  0
 14 15  1  0  0  0  0
 14 36  1  0  0  0  0
 14 37  1  0  0  0  0
 15 16  1  0  0  0  0
 15 38  1  0  0  0  0
 16 17  2  0  0  0  0
 16 18  1  0  0  0  0
 18 39  1  0  0  0  0
 18 40  1  0  0  0  0
 19 20  1  0  0  0  0
 20 21  2  0  0  0  0
 20 41  1  0  0  0  0
 21 22  1  0  0  0  0
 22 42  1  0  0  0  0
 22 43  1  0  0  0  0
 22 44  1  0  0  0  0
M  END
> <s_m_source_file>
AV-unprocessed.smi

> <i_m_source_file_index>
1056

> <i_lp_mmshare_version>
43012

> <i_f3d_flags>
0

> <s_epik_input>
W0NIM11jKFtjSF0xKWMoW0NIM10pW2NIXWMoYzEyKW4oW2NIXW4yKVtDSDJdW0NASF0oW09IXSlbQ0gyXU4zW0NIMl1bQ0gyXVtOSF1DKD1PKVtDSDJdMw==

> <s_epik_cmdline>
J2VwaWtfcHl0aG9uJywgJy1waCcsICc3LjAnLCAnLXRuJywgJzgnLCAnLW1hJywgJzIwMCcsICctbWV0YWxfYmluZGluZycsICctaW1hZScsICc8aW5maWxlLm1hZT4nLCAnLW9tYWUnLCAnPG91dGZpbGUubWFlPic=

> <r_epik_Ionization_Penalty>
1.40166

> <r_epik_Ionization_Penalty_Charging>
0

> <r_epik_Ionization_Penalty_Neutral>
1.40166

> <r_epik_State_Penalty>
1.44226

> <r_epik_Charging_Adjusted_Penalty>
1.44226

> <i_epik_Tot_Q>
0

> <i_epik_Tot_abs_Q>
0

> <r_epik_Metal_State_Penalty>
1.50267

> <b_epik_Metal_Only>
0

> <s_lp_Force_Field>
OPLS_2005

> <r_lp_Energy>
30.6142

> <b_lp_Chiralities_Consistent>
1

> <s_lp_Variant>
AV-unprocessed.smi:1056-9

> <Gold.Version>
5.8.1

> <Gold.Id.Protein>
6NUR|6NUR_protein|mol2

> <Gold.PLP.Fitness>
51.2420

> <Gold.PLP.PLP>
-42.8938

> <Gold.PLP.part.hbond>
-4.0000

> <Gold.PLP.part.metal>
0.0000

> <Gold.PLP.part.buried>
-6.4538

> <Gold.PLP.part.nonpolar>
-32.9742

> <Gold.PLP.part.repulsive>
0.1132

> <Gold.PLP.ligand.clash>
0.0000

> <Gold.PLP.ligand.torsion>
1.1430

> <Gold.PLP.Chemscore.Hbond>
3.5120

> <Gold.PLP.Chemscore.CHOScore>
0.0000

> <Gold.PLP.Chemscore.Metal>
0.0000

> <Gold.Chemscore.Hbonds>
donor molecule, donor type, donor heavy atom, donor atom, acceptor molecule, acceptor atom, score
      L1  H    10    31       P1  7957  0.83
      P1  H  6934  6946       L1    17  0.65
      P1  H  7989  7998       L1    10  0.72
      P1  H  7997  8009       L1     5  0.59

> <Gold.PLP.Chemscore.Internal.Correction>
0.0981

> <Gold.Rescore>
     Score         DG    S(hbond)    S(metal)    S(lipo)     H(rot)  DE(clash)    DE(int)     intcor
     19.06     -20.57       2.67        0.00     103.44       2.31       0.36       1.15       ----

> <Gold.Chemscore.Fitness>
19.0555

> <Gold.Chemscore.DG>
-20.5654

> <Gold.Chemscore.ZeroCoef>
-5.4800

> <Gold.Chemscore.Hbond>
2.6673

> <Gold.Chemscore.Metal>
0.0000

> <Gold.Chemscore.Lipo>
103.4382

> <Gold.Chemscore.Internal_Hbond>
0.0000

> <Gold.Chemscore.DEClash>
0.3597

> <Gold.Chemscore.DEInternal>
1.1501

> <Gold.Chemscore.Rot>
2.3147

> <Gold.Chemscore.Internal.Correction>
   9.000000E+99

> <Gold.Chemscore.Hbonds>
donor molecule, donor type, donor heavy atom, donor atom, acceptor molecule, acceptor atom, score
      L1  H    10    31       P1  7957  0.76
      P1  H  6934  6946       L1    17  0.62
      P1  H  7989  7998       L1    10  0.10
      P1  H  7997  8009       L1     5  0.04

> <Gold.Chemscore.Hbond.Weighted>
-8.9087

> <Gold.Chemscore.Metal.Weighted>
-0.0000

> <Gold.Chemscore.Lipo.Weighted>
-12.1023

> <Gold.Chemscore.Internal_Hbond.Weighted>
0.0000

> <Gold.Chemscore.DEClash.Weighted>
0.3597

> <Gold.Chemscore.DEInternal.Weighted>
1.1501

> <Gold.Chemscore.Rot.Weighted>
5.9256

> <Gold.Chemscore.Internal.Correction.Weighted>
   9.000000E+99

> <Gold.Protein.RotatedTorsions>
[ 6907 6896 6895 6894 ] final   20.55 input  -60.11 | X-H torsion
[ 7974 7965 7964 7962 ] final   21.98 input  175.53 | X-H torsion
[ 8008 7997 7996 7995 ] final  162.69 input   59.86 | X-H torsion
[ 10167 10162 10161 10158 ] final  139.95 input  -65.29 | X-H torsion
[ 10718 10713 10712 10709 ] final   52.53 input   66.30 | X-H torsion
[ 10763 10752 10751 10750 ] final  130.55 input  -60.55 | X-H torsion
[ 11005 11000 10999 10996 ] final  106.21 input  -57.11 | X-H torsion

> <Gold.Protein.ActiveResidues>
 VAL166  LYS551  ARG553  GLY616  TRP617  ASP618  TYR619  PRO620  LYS621  CYS622 
 ASP623  PHE694  ASN695  SER759  ASP760  ASP761  ALA762  ILE779  LEU786  VAL792 
 PHE793  MET794  SER795  GLU796  ALA797  LYS798  CYS799  TRP800  GLU811  SER814 

> <Gold.Protein.RotatedAtoms>
  151.8981  135.0389  160.0503 H   0  0  0  0  0  0  0  0  0  0  0  0  # atno 6907 bound_to 6896
  152.2381  133.5108  159.5262 H   0  0  0  0  0  0  0  0  0  0  0  0  # atno 6908 bound_to 6896
  150.7045  134.1043  159.4019 H   0  0  0  0  0  0  0  0  0  0  0  0  # atno 6909 bound_to 6896
  146.2048  139.7950  142.8734 H   0  0  0  0  0  0  0  0  0  0  0  0  # atno 7974 bound_to 7965
  156.2013  140.1743  156.7893 H   0  0  0  0  0  0  0  0  0  0  0  0  # atno 8008 bound_to 7997
  154.5595  140.0702  156.8828 H   0  0  0  0  0  0  0  0  0  0  0  0  # atno 8009 bound_to 7997
  155.2874  140.3353  155.4257 H   0  0  0  0  0  0  0  0  0  0  0  0  # atno 8010 bound_to 7997
  139.5063  144.6264  151.5928 H   0  0  0  0  0  0  0  0  0  0  0  0  # atno 10167 bound_to 10162
  157.5083  130.8484  149.8403 H   0  0  0  0  0  0  0  0  0  0  0  0  # atno 10718 bound_to 10713
  153.7598  135.3197  155.3335 H   0  0  0  0  0  0  0  0  0  0  0  0  # atno 10763 bound_to 10752
  154.8234  135.4587  154.0849 H   0  0  0  0  0  0  0  0  0  0  0  0  # atno 10764 bound_to 10752
  153.2076  135.6931  153.8236 H   0  0  0  0  0  0  0  0  0  0  0  0  # atno 10765 bound_to 10752
  139.8811  134.9361  156.5631 H   0  0  0  0  0  0  0  0  0  0  0  0  # atno 11005 bound_to 11000
  145.3357  141.0276  143.3421 LP  0  0  0  0  0  0  0  0  0  0  0  0  # atno 17320 bound_to 7965
  144.8767  139.4961  143.6742 LP  0  0  0  0  0  0  0  0  0  0  0  0  # atno 17321 bound_to 7965
  140.5982  143.9658  150.6368 LP  0  0  0  0  0  0  0  0  0  0  0  0  # atno 17342 bound_to 10162
  140.2861  143.3356  152.1106 LP  0  0  0  0  0  0  0  0  0  0  0  0  # atno 17343 bound_to 10162
  156.0273  130.3775  150.1788 LP  0  0  0  0  0  0  0  0  0  0  0  0  # atno 17370 bound_to 10713
  156.9977  130.9913  151.3399 LP  0  0  0  0  0  0  0  0  0  0  0  0  # atno 17371 bound_to 10713
  140.8154  133.8396  155.8847 LP  0  0  0  0  0  0  0  0  0  0  0  0  # atno 17394 bound_to 11000
  140.9467  134.1831  157.4758 LP  0  0  0  0  0  0  0  0  0  0  0  0  # atno 17395 bound_to 11000

$$$$
