AV-unprocessed.smi:955|AV-procd|sdf|4262|dock6
  -GOLD-   22720 2173D 1   1.00000     0.00000
 Structure written by MMmdl.
 29 29  0  0  0  0  0  0  0  0  1 V2000
  148.5303  141.4280  154.5184 C   0  0  0  0  0  0  0  0  0  0  0  0
  149.8077  140.6318  154.8322 C   0  0  1  0  0  0  0  0  0  0  0  0
  150.1576  140.8750  156.2305 N   0  0  0  0  0  0  0  0  0  0  0  0
  151.2679  140.4299  156.8418 C   0  0  0  0  0  0  0  0  0  0  0  0
  152.1283  139.7619  156.2666 O   0  0  0  0  0  0  0  0  0  0  0  0
  151.4206  140.7983  158.3259 C   0  0  1  0  0  0  0  0  0  0  0  0
  152.5930  140.0594  159.0037 C   0  0  0  0  0  0  0  0  0  0  0  0
  151.5151  142.2458  158.4806 N   0  0  0  0  0  0  0  0  0  0  0  0
  152.5340  142.9712  159.0648 C   0  0  0  0  0  0  0  0  0  0  0  0
  152.1793  144.2890  159.0200 C   0  0  0  0  0  0  0  0  0  0  0  0
  150.9023  144.2736  158.3936 C   0  0  0  0  0  0  0  0  0  0  0  0
  150.5034  143.0518  158.0810 N   0  0  0  0  0  0  0  0  0  0  0  0
  149.5084  139.1416  154.5993 C   0  0  0  0  0  0  0  0  0  0  0  0
  149.1684  138.7826  153.3589 N   0  0  0  0  0  0  0  0  0  0  0  0
  149.5657  138.3296  155.5221 O   0  0  0  0  0  0  0  0  0  0  0  0
  148.2189  141.2862  153.4826 H   0  0  0  0  0  0  0  0  0  0  0  0
  148.6939  142.4964  154.6631 H   0  0  0  0  0  0  0  0  0  0  0  0
  147.6981  141.1326  155.1597 H   0  0  0  0  0  0  0  0  0  0  0  0
  150.6171  140.9635  154.1785 H   0  0  0  0  0  0  0  0  0  0  0  0
  149.4976  141.4087  156.7768 H   0  0  0  0  0  0  0  0  0  0  0  0
  150.5082  140.4816  158.8344 H   0  0  0  0  0  0  0  0  0  0  0  0
  152.4649  138.9785  158.9380 H   0  0  0  0  0  0  0  0  0  0  0  0
  152.6545  140.3166  160.0614 H   0  0  0  0  0  0  0  0  0  0  0  0
  153.5531  140.3056  158.5485 H   0  0  0  0  0  0  0  0  0  0  0  0
  153.4188  142.4940  159.4596 H   0  0  0  0  0  0  0  0  0  0  0  0
  152.7437  145.1348  159.3838 H   0  0  0  0  0  0  0  0  0  0  0  0
  150.2557  145.1071  158.1623 H   0  0  0  0  0  0  0  0  0  0  0  0
  148.9537  137.8176  153.1541 H   0  0  0  0  0  0  0  0  0  0  0  0
  149.1192  139.4809  152.6312 H   0  0  0  0  0  0  0  0  0  0  0  0
  1  2  1  0  0  0  0
  1 16  1  0  0  0  0
  1 17  1  0  0  0  0
  1 18  1  0  0  0  0
  2  3  1  0  0  0  0
  2 13  1  0  0  0  0
  2 19  1  0  0  0  0
  3  4  1  0  0  0  0
  3 20  1  0  0  0  0
  4  5  2  0  0  0  0
  4  6  1  0  0  0  0
  6  7  1  0  0  0  0
  6  8  1  0  0  0  0
  6 21  1  0  0  0  0
  7 22  1  0  0  0  0
  7 23  1  0  0  0  0
  7 24  1  0  0  0  0
  8 12  1  0  0  0  0
  8  9  1  0  0  0  0
  9 10  2  0  0  0  0
  9 25  1  0  0  0  0
 10 11  1  0  0  0  0
 10 26  1  0  0  0  0
 11 12  2  0  0  0  0
 11 27  1  0  0  0  0
 13 14  1  0  0  0  0
 13 15  2  0  0  0  0
 14 28  1  0  0  0  0
 14 29  1  0  0  0  0
M  END
> <s_m_source_file>
AV-unprocessed.smi

> <i_m_source_file_index>
955

> <i_lp_mmshare_version>
43012

> <i_f3d_flags>
0

> <s_epik_input>
W05IMl1DKD1PKVtDQEhdKFtDSDNdKVtOSF1DKD1PKVtDQEhdKFtDSDNdKW4xW2NIXVtjSF1bY0hdbjE=

> <s_epik_cmdline>
J2VwaWtfcHl0aG9uJywgJy1waCcsICc3LjAnLCAnLXRuJywgJzgnLCAnLW1hJywgJzIwMCcsICctbWV0YWxfYmluZGluZycsICctaW1hZScsICc8aW5maWxlLm1hZT4nLCAnLW9tYWUnLCAnPG91dGZpbGUubWFlPic=

> <r_lp_tautomer_probability>
1

> <r_epik_Ionization_Penalty>
2.8146e-05

> <r_epik_Ionization_Penalty_Charging>
0

> <r_epik_Ionization_Penalty_Neutral>
2.8146e-05

> <r_epik_State_Penalty>
-0

> <r_epik_Charging_Adjusted_Penalty>
0

> <i_epik_Tot_Q>
0

> <i_epik_Tot_abs_Q>
0

> <r_epik_Metal_State_Penalty>
-0

> <b_epik_Metal_Only>
0

> <s_lp_Force_Field>
OPLS_2005

> <r_lp_Energy>
4.82195

> <b_lp_Chiralities_Consistent>
1

> <s_lp_Variant>
AV-unprocessed.smi:955-4

> <Gold.Version>
5.8.1

> <Gold.Id.Protein>
6NUR|6NUR_protein|mol2

> <Gold.PLP.Fitness>
41.5548

> <Gold.PLP.PLP>
-29.6792

> <Gold.PLP.part.hbond>
-2.9300

> <Gold.PLP.part.metal>
0.0000

> <Gold.PLP.part.buried>
-2.7812

> <Gold.PLP.part.nonpolar>
-24.6506

> <Gold.PLP.part.repulsive>
0.3715

> <Gold.PLP.ligand.clash>
0.0000

> <Gold.PLP.ligand.torsion>
0.1779

> <Gold.PLP.Chemscore.Hbond>
3.0000

> <Gold.PLP.Chemscore.CHOScore>
1.0401

> <Gold.PLP.Chemscore.Metal>
0.0000

> <Gold.Chemscore.Hbonds>
donor molecule, donor type, donor heavy atom, donor atom, acceptor molecule, acceptor atom, score
      L1  H    14    28       P1  7948  0.98
      L1  H    14    29       P1  7957  0.99
      P1  H  7997  8010       L1     5  0.47
      L1  C    11    27       P1  8028  0.07
      L1  C    11    27       P1  8029  0.61

> <Gold.PLP.Chemscore.Internal.Correction>
0.1111

> <Gold.Rescore>
     Score         DG    S(hbond)    S(metal)    S(lipo)     H(rot)  DE(clash)    DE(int)     intcor
     14.57     -16.33       2.92        0.00      59.75       2.30       0.02       1.74       ----

> <Gold.Chemscore.Fitness>
14.5691

> <Gold.Chemscore.DG>
-16.3346

> <Gold.Chemscore.ZeroCoef>
-5.4800

> <Gold.Chemscore.Hbond>
2.9176

> <Gold.Chemscore.Metal>
0.0000

> <Gold.Chemscore.Lipo>
59.7504

> <Gold.Chemscore.Internal_Hbond>
0.0000

> <Gold.Chemscore.DEClash>
0.0234

> <Gold.Chemscore.DEInternal>
1.7420

> <Gold.Chemscore.Rot>
2.2972

> <Gold.Chemscore.Internal.Correction>
   9.000000E+99

> <Gold.Chemscore.Hbonds>
donor molecule, donor type, donor heavy atom, donor atom, acceptor molecule, acceptor atom, score
      L1  H    14    28       P1  7948  0.88
      L1  H    14    29       P1  7957  0.93
      P1  H  7997  8010       L1     5  0.48

> <Gold.Chemscore.Hbond.Weighted>
-9.7448

> <Gold.Chemscore.Metal.Weighted>
-0.0000

> <Gold.Chemscore.Lipo.Weighted>
-6.9908

> <Gold.Chemscore.Internal_Hbond.Weighted>
0.0000

> <Gold.Chemscore.DEClash.Weighted>
0.0234

> <Gold.Chemscore.DEInternal.Weighted>
1.7420

> <Gold.Chemscore.Rot.Weighted>
5.8809

> <Gold.Chemscore.Internal.Correction.Weighted>
   9.000000E+99

> <Gold.Protein.RotatedTorsions>
[ 6907 6896 6895 6894 ] final  164.32 input  -60.11 | X-H torsion
[ 7974 7965 7964 7962 ] final  109.55 input  175.53 | X-H torsion
[ 8008 7997 7996 7995 ] final   72.63 input   59.86 | X-H torsion
[ 10167 10162 10161 10158 ] final   65.05 input  -65.29 | X-H torsion
[ 10718 10713 10712 10709 ] final   28.35 input   66.30 | X-H torsion
[ 10763 10752 10751 10750 ] final  -99.89 input  -60.55 | X-H torsion
[ 11005 11000 10999 10996 ] final  -55.49 input  -57.11 | X-H torsion

> <Gold.Protein.ActiveResidues>
 VAL166  LYS551  ARG553  GLY616  TRP617  ASP618  TYR619  PRO620  LYS621  CYS622 
 ASP623  PHE694  ASN695  SER759  ASP760  ASP761  ALA762  ILE779  LEU786  VAL792 
 PHE793  MET794  SER795  GLU796  ALA797  LYS798  CYS799  TRP800  GLU811  SER814 

> <Gold.Protein.RotatedAtoms>
  151.9116  133.3562  159.3865 H   0  0  0  0  0  0  0  0  0  0  0  0  # atno 6907 bound_to 6896
  150.7057  134.4726  159.5442 H   0  0  0  0  0  0  0  0  0  0  0  0  # atno 6908 bound_to 6896
  152.2333  134.8300  160.0521 H   0  0  0  0  0  0  0  0  0  0  0  0  # atno 6909 bound_to 6896
  145.2664  139.2683  143.3990 H   0  0  0  0  0  0  0  0  0  0  0  0  # atno 7974 bound_to 7965
  155.7717  140.3484  155.5250 H   0  0  0  0  0  0  0  0  0  0  0  0  # atno 8008 bound_to 7997
  155.8815  140.1003  157.1503 H   0  0  0  0  0  0  0  0  0  0  0  0  # atno 8009 bound_to 7997
  154.4025  140.1321  156.4189 H   0  0  0  0  0  0  0  0  0  0  0  0  # atno 8010 bound_to 7997
  140.1155  144.4779  150.6952 H   0  0  0  0  0  0  0  0  0  0  0  0  # atno 10167 bound_to 10162
  157.2322  130.7029  149.6319 H   0  0  0  0  0  0  0  0  0  0  0  0  # atno 10718 bound_to 10713
  154.7535  135.4955  153.9332 H   0  0  0  0  0  0  0  0  0  0  0  0  # atno 10763 bound_to 10752
  153.1169  135.6723  153.9409 H   0  0  0  0  0  0  0  0  0  0  0  0  # atno 10764 bound_to 10752
  153.9153  135.3094  155.3427 H   0  0  0  0  0  0  0  0  0  0  0  0  # atno 10765 bound_to 10752
  141.1076  133.6612  156.4477 H   0  0  0  0  0  0  0  0  0  0  0  0  # atno 11005 bound_to 11000
  146.3260  140.3095  142.8626 LP  0  0  0  0  0  0  0  0  0  0  0  0  # atno 17320 bound_to 7965
  144.9373  140.8041  143.5652 LP  0  0  0  0  0  0  0  0  0  0  0  0  # atno 17321 bound_to 7965
  140.6902  143.2372  151.5152 LP  0  0  0  0  0  0  0  0  0  0  0  0  # atno 17342 bound_to 10162
  139.5596  144.2188  152.1670 LP  0  0  0  0  0  0  0  0  0  0  0  0  # atno 17343 bound_to 10162
  155.9675  130.4485  150.5622 LP  0  0  0  0  0  0  0  0  0  0  0  0  # atno 17370 bound_to 10713
  157.3466  131.0726  151.1746 LP  0  0  0  0  0  0  0  0  0  0  0  0  # atno 17371 bound_to 10713
  140.4861  134.6619  157.5191 LP  0  0  0  0  0  0  0  0  0  0  0  0  # atno 17394 bound_to 11000
  139.9954  134.6920  155.9619 LP  0  0  0  0  0  0  0  0  0  0  0  0  # atno 17395 bound_to 11000

$$$$
