AV-unprocessed.smi:2786|AV-procd|sdf|10753|dock5
  -GOLD-   2272015183D 1   1.00000     0.00000
 Structure written by MMmdl.
 27 28  0  0  0  0  0  0  0  0  2 V2000
  152.5070  141.9347  160.1113 C   0  0  0  0  0  0  0  0  0  0  0  0
  152.0188  143.0172  159.2547 N   0  0  0  0  0  0  0  0  0  0  0  0
  152.1339  144.3627  159.4947 C   0  0  0  0  0  0  0  0  0  0  0  0
  151.5328  145.0026  158.4427 C   0  0  0  0  0  0  0  0  0  0  0  0
  151.0776  144.0219  157.6043 N   0  3  0  0  0  0  0  0  0  0  0  0
  151.3793  142.8114  158.0910 C   0  0  0  0  0  0  0  0  0  0  0  0
  151.0314  141.4976  157.4552 C   0  0  1  0  0  0  0  0  0  0  0  0
  150.2968  141.7079  156.1128 C   0  0  0  0  0  0  0  0  0  0  0  0
  149.9442  140.4248  155.5029 N   0  0  0  0  0  0  0  0  0  0  0  0
  151.1316  139.5918  155.3091 C   0  0  0  0  0  0  0  0  0  0  0  0
  151.8615  139.3715  156.6465 C   0  0  0  0  0  0  0  0  0  0  0  0
  152.2160  140.6519  157.2629 N   0  0  0  0  0  0  0  0  0  0  0  0
  152.8840  142.3502  161.0463 H   0  0  0  0  0  0  0  0  0  0  0  0
  153.3119  141.4066  159.5995 H   0  0  0  0  0  0  0  0  0  0  0  0
  151.6902  141.2457  160.3281 H   0  0  0  0  0  0  0  0  0  0  0  0
  152.6206  144.7558  160.3756 H   0  0  0  0  0  0  0  0  0  0  0  0
  151.3972  146.0539  158.2341 H   0  0  0  0  0  0  0  0  0  0  0  0
  150.3558  140.9984  158.1507 H   0  0  0  0  0  0  0  0  0  0  0  0
  149.3934  142.2973  156.2709 H   0  0  0  0  0  0  0  0  0  0  0  0
  150.9259  142.2819  155.4308 H   0  0  0  0  0  0  0  0  0  0  0  0
  149.4958  140.5868  154.6065 H   0  0  0  0  0  0  0  0  0  0  0  0
  150.8456  138.6309  154.8809 H   0  0  0  0  0  0  0  0  0  0  0  0
  151.8058  140.0627  154.5924 H   0  0  0  0  0  0  0  0  0  0  0  0
  151.2269  138.7959  157.3218 H   0  0  0  0  0  0  0  0  0  0  0  0
  152.7603  138.7768  156.4833 H   0  0  0  0  0  0  0  0  0  0  0  0
  152.6499  140.4731  158.1629 H   0  0  0  0  0  0  0  0  0  0  0  0
  150.5846  144.1814  156.7345 H   0  0  0  0  0  0  0  0  0  0  0  0
  1  2  1  0  0  0  0
  1 13  1  0  0  0  0
  1 14  1  0  0  0  0
  1 15  1  0  0  0  0
  2  6  1  0  0  0  0
  2  3  1  0  0  0  0
  3  4  2  0  0  0  0
  3 16  1  0  0  0  0
  4  5  1  0  0  0  0
  4 17  1  0  0  0  0
  5  6  2  0  0  0  0
  5 27  1  0  0  0  0
  6  7  1  0  0  0  0
  7 12  1  0  0  0  0
  7  8  1  0  0  0  0
  7 18  1  0  0  0  0
  8  9  1  0  0  0  0
  8 19  1  0  0  0  0
  8 20  1  0  0  0  0
  9 10  1  0  0  0  0
  9 21  1  0  0  0  0
 10 11  1  0  0  0  0
 10 22  1  0  0  0  0
 10 23  1  0  0  0  0
 11 12  1  0  0  0  0
 11 24  1  0  0  0  0
 11 25  1  0  0  0  0
 12 26  1  0  0  0  0
M  CHG  1   5   1
M  END
> <s_m_source_file>
AV-unprocessed.smi

> <i_m_source_file_index>
2786

> <i_lp_mmshare_version>
43012

> <i_f3d_flags>
0

> <s_epik_input>
W0NIM11uMVtjSF1bY0hdbmMxW0NAQEhdMltDSDJdW05IXVtDSDJdW0NIMl1bTkhdMg==

> <s_epik_cmdline>
J2VwaWtfcHl0aG9uJywgJy1waCcsICc3LjAnLCAnLXRuJywgJzgnLCAnLW1hJywgJzIwMCcsICctbWV0YWxfYmluZGluZycsICctaW1hZScsICc8aW5maWxlLm1hZT4nLCAnLW9tYWUnLCAnPG91dGZpbGUubWFlPic=

> <r_epik_Ionization_Penalty>
1.38811

> <r_epik_Ionization_Penalty_Charging>
0

> <r_epik_Ionization_Penalty_Neutral>
1.38811

> <r_epik_State_Penalty>
1.49833

> <r_epik_Charging_Adjusted_Penalty>
1.49833

> <i_epik_Tot_Q>
1

> <i_epik_Tot_abs_Q>
1

> <r_epik_Metal_State_Penalty>
3.89997

> <b_epik_Metal_Only>
0

> <s_lp_Force_Field>
OPLS_2005

> <r_lp_Energy>
24.8343

> <b_lp_Chiralities_Consistent>
1

> <s_lp_Variant>
AV-unprocessed.smi:2786-6

> <Gold.Version>
5.8.1

> <Gold.Id.Protein>
6NUR|6NUR_protein|mol2

> <Gold.PLP.Fitness>
34.1331

> <Gold.PLP.PLP>
-28.1657

> <Gold.PLP.part.hbond>
-1.6794

> <Gold.PLP.part.metal>
0.0000

> <Gold.PLP.part.buried>
-2.2255

> <Gold.PLP.part.nonpolar>
-24.6197

> <Gold.PLP.part.repulsive>
0.0210

> <Gold.PLP.ligand.clash>
0.0000

> <Gold.PLP.ligand.torsion>
0.0250

> <Gold.PLP.Chemscore.Hbond>
2.0000

> <Gold.PLP.Chemscore.CHOScore>
0.0000

> <Gold.PLP.Chemscore.Metal>
0.0000

> <Gold.Chemscore.Hbonds>
donor molecule, donor type, donor heavy atom, donor atom, acceptor molecule, acceptor atom, score
      L1  H     5    27       P1  8028  1.89

> <Gold.PLP.Chemscore.Internal.Correction>
0.0174

> <Gold.Rescore>
     Score         DG    S(hbond)    S(metal)    S(lipo)     H(rot)  DE(clash)    DE(int)     intcor
     13.32     -13.34       0.97        0.00      61.42       1.00       0.00       0.01       ----

> <Gold.Chemscore.Fitness>
13.3213

> <Gold.Chemscore.DG>
-13.3402

> <Gold.Chemscore.ZeroCoef>
-5.4800

> <Gold.Chemscore.Hbond>
0.9682

> <Gold.Chemscore.Metal>
0.0000

> <Gold.Chemscore.Lipo>
61.4214

> <Gold.Chemscore.Internal_Hbond>
0.0000

> <Gold.Chemscore.DEClash>
0.0048

> <Gold.Chemscore.DEInternal>
0.0141

> <Gold.Chemscore.Rot>
1.0000

> <Gold.Chemscore.Internal.Correction>
   9.000000E+99

> <Gold.Chemscore.Hbonds>
donor molecule, donor type, donor heavy atom, donor atom, acceptor molecule, acceptor atom, score
      L1  H     5    27       P1  8028  0.86

> <Gold.Chemscore.Hbond.Weighted>
-3.2339

> <Gold.Chemscore.Metal.Weighted>
-0.0000

> <Gold.Chemscore.Lipo.Weighted>
-7.1863

> <Gold.Chemscore.Internal_Hbond.Weighted>
0.0000

> <Gold.Chemscore.DEClash.Weighted>
0.0048

> <Gold.Chemscore.DEInternal.Weighted>
0.0141

> <Gold.Chemscore.Rot.Weighted>
2.5600

> <Gold.Chemscore.Internal.Correction.Weighted>
   9.000000E+99

> <Gold.Protein.RotatedTorsions>
[ 6907 6896 6895 6894 ] final -109.98 input  -60.11 | X-H torsion
[ 7974 7965 7964 7962 ] final   15.71 input  175.53 | X-H torsion
[ 8008 7997 7996 7995 ] final  110.27 input   59.86 | X-H torsion
[ 10167 10162 10161 10158 ] final -143.63 input  -65.29 | X-H torsion
[ 10718 10713 10712 10709 ] final   98.54 input   66.30 | X-H torsion
[ 10763 10752 10751 10750 ] final  -45.92 input  -60.55 | X-H torsion
[ 11005 11000 10999 10996 ] final   97.66 input  -57.11 | X-H torsion

> <Gold.Protein.ActiveResidues>
 VAL166  LYS551  ARG553  GLY616  TRP617  ASP618  TYR619  PRO620  LYS621  CYS622 
 ASP623  PHE694  ASN695  SER759  ASP760  ASP761  ALA762  ILE779  LEU786  VAL792 
 PHE793  MET794  SER795  GLU796  ALA797  LYS798  CYS799  TRP800  GLU811  SER814 

> <Gold.Protein.RotatedAtoms>
  150.7596  133.9449  159.3467 H   0  0  0  0  0  0  0  0  0  0  0  0  # atno 6907 bound_to 6896
  151.7360  135.0862  160.0317 H   0  0  0  0  0  0  0  0  0  0  0  0  # atno 6908 bound_to 6896
  152.3559  133.6199  159.6015 H   0  0  0  0  0  0  0  0  0  0  0  0  # atno 6909 bound_to 6896
  146.2270  139.8854  142.8563 H   0  0  0  0  0  0  0  0  0  0  0  0  # atno 7974 bound_to 7965
  156.2041  140.3042  155.9588 H   0  0  0  0  0  0  0  0  0  0  0  0  # atno 8008 bound_to 7997
  155.2884  140.0441  157.3038 H   0  0  0  0  0  0  0  0  0  0  0  0  # atno 8009 bound_to 7997
  154.5609  140.2320  155.8346 H   0  0  0  0  0  0  0  0  0  0  0  0  # atno 8010 bound_to 7997
  139.7975  143.7880  152.2655 H   0  0  0  0  0  0  0  0  0  0  0  0  # atno 10167 bound_to 10162
  157.6893  131.0643  150.4812 H   0  0  0  0  0  0  0  0  0  0  0  0  # atno 10718 bound_to 10713
  154.0364  135.6650  153.4785 H   0  0  0  0  0  0  0  0  0  0  0  0  # atno 10763 bound_to 10752
  153.0519  135.5079  154.7884 H   0  0  0  0  0  0  0  0  0  0  0  0  # atno 10764 bound_to 10752
  154.6846  135.3051  154.9531 H   0  0  0  0  0  0  0  0  0  0  0  0  # atno 10765 bound_to 10752
  139.8775  134.9011  156.4340 H   0  0  0  0  0  0  0  0  0  0  0  0  # atno 11005 bound_to 11000
  145.2471  141.0030  143.3903 LP  0  0  0  0  0  0  0  0  0  0  0  0  # atno 17320 bound_to 7965
  144.9405  139.4194  143.6451 LP  0  0  0  0  0  0  0  0  0  0  0  0  # atno 17321 bound_to 7965
  139.7990  144.7381  150.9851 LP  0  0  0  0  0  0  0  0  0  0  0  0  # atno 17342 bound_to 10162
  140.7820  143.4364  151.0616 LP  0  0  0  0  0  0  0  0  0  0  0  0  # atno 17343 bound_to 10162
  156.5143  130.4147  149.6284 LP  0  0  0  0  0  0  0  0  0  0  0  0  # atno 17370 bound_to 10713
  156.3212  130.7281  151.2193 LP  0  0  0  0  0  0  0  0  0  0  0  0  # atno 17371 bound_to 10713
  140.9047  133.7754  155.9721 LP  0  0  0  0  0  0  0  0  0  0  0  0  # atno 17394 bound_to 11000
  140.8613  134.2837  157.5233 LP  0  0  0  0  0  0  0  0  0  0  0  0  # atno 17395 bound_to 11000

$$$$
