AV-unprocessed.smi:2686|AV-procd|sdf|10384|dock4
  -GOLD-   2272014413D 1   1.00000     0.00000
 Structure written by MMmdl.
 32 32  0  0  0  0  0  0  0  0  1 V2000
  147.1023  141.2632  153.2422 C   0  0  0  0  0  0  0  0  0  0  0  0
  148.2858  140.4618  153.5138 N   0  0  0  0  0  0  0  0  0  0  0  0
  148.8394  140.3195  154.7260 C   0  0  0  0  0  0  0  0  0  0  0  0
  148.3802  140.8443  155.7416 O   0  0  0  0  0  0  0  0  0  0  0  0
  150.0882  139.4313  154.7989 C   0  0  0  0  0  0  0  0  0  0  0  0
  150.5483  139.2092  156.1676 N   0  0  0  0  0  0  0  0  0  0  0  0
  151.7886  139.4599  156.6153 C   0  0  0  0  0  0  0  0  0  0  0  0
  152.6883  139.8930  155.8933 O   0  0  0  0  0  0  0  0  0  0  0  0
  152.0302  139.1780  158.1054 C   0  0  0  0  0  0  0  0  0  0  0  0
  152.4943  140.3543  158.8598 N   0  0  0  0  0  0  0  0  0  0  0  0
  151.9180  141.5946  158.5227 C   0  0  0  0  0  0  0  0  0  0  0  0
  152.2458  142.7472  159.1376 C   0  0  0  0  0  0  0  0  0  0  0  0
  151.6513  144.0796  158.7088 C   0  0  0  0  0  0  0  0  0  0  0  0
  150.3315  144.0992  158.8969 F   0  0  0  0  0  0  0  0  0  0  0  0
  152.1872  145.0900  159.3945 F   0  0  0  0  0  0  0  0  0  0  0  0
  151.8888  144.2855  157.4141 F   0  0  0  0  0  0  0  0  0  0  0  0
  153.2651  142.6621  160.1650 C   0  0  0  0  0  0  0  0  0  0  0  0
  153.8370  141.4861  160.4897 C   0  0  0  0  0  0  0  0  0  0  0  0
  153.4572  140.2384  159.8228 C   0  0  0  0  0  0  0  0  0  0  0  0
  153.9737  139.1584  160.1104 O   0  0  0  0  0  0  0  0  0  0  0  0
  146.8077  141.1499  152.1990 H   0  0  0  0  0  0  0  0  0  0  0  0
  147.3016  142.3193  153.4278 H   0  0  0  0  0  0  0  0  0  0  0  0
  146.2652  140.9522  153.8690 H   0  0  0  0  0  0  0  0  0  0  0  0
  148.7189  139.9957  152.7296 H   0  0  0  0  0  0  0  0  0  0  0  0
  149.8505  138.4639  154.3561 H   0  0  0  0  0  0  0  0  0  0  0  0
  150.8934  139.8609  154.1998 H   0  0  0  0  0  0  0  0  0  0  0  0
  149.8666  138.8607  156.8259 H   0  0  0  0  0  0  0  0  0  0  0  0
  151.1040  138.7988  158.5401 H   0  0  0  0  0  0  0  0  0  0  0  0
  152.7425  138.3560  158.1960 H   0  0  0  0  0  0  0  0  0  0  0  0
  151.1961  141.5495  157.7199 H   0  0  0  0  0  0  0  0  0  0  0  0
  153.5742  143.5566  160.6855 H   0  0  0  0  0  0  0  0  0  0  0  0
  154.5928  141.4607  161.2608 H   0  0  0  0  0  0  0  0  0  0  0  0
  1  2  1  0  0  0  0
  1 21  1  0  0  0  0
  1 22  1  0  0  0  0
  1 23  1  0  0  0  0
  2  3  1  0  0  0  0
  2 24  1  0  0  0  0
  3  4  2  0  0  0  0
  3  5  1  0  0  0  0
  5  6  1  0  0  0  0
  5 25  1  0  0  0  0
  5 26  1  0  0  0  0
  6  7  1  0  0  0  0
  6 27  1  0  0  0  0
  7  8  2  0  0  0  0
  7  9  1  0  0  0  0
  9 10  1  0  0  0  0
  9 28  1  0  0  0  0
  9 29  1  0  0  0  0
 10 19  1  0  0  0  0
 10 11  1  0  0  0  0
 11 12  2  0  0  0  0
 11 30  1  0  0  0  0
 12 13  1  0  0  0  0
 12 17  1  0  0  0  0
 13 14  1  0  0  0  0
 13 15  1  0  0  0  0
 13 16  1  0  0  0  0
 17 18  2  0  0  0  0
 17 31  1  0  0  0  0
 18 19  1  0  0  0  0
 18 32  1  0  0  0  0
 19 20  2  0  0  0  0
M  END
> <s_m_source_file>
AV-unprocessed.smi

> <i_m_source_file_index>
2686

> <i_lp_mmshare_version>
43012

> <i_f3d_flags>
0

> <s_epik_input>
W0NIM11bTkhdQyg9TylbQ0gyXVtOSF1DKD1PKVtDSDJdbjFbY0hdYyhDKEYpKEYpRilbY0hdW2NIXWMxPU8=

> <s_epik_cmdline>
J2VwaWtfcHl0aG9uJywgJy1waCcsICc3LjAnLCAnLXRuJywgJzgnLCAnLW1hJywgJzIwMCcsICctbWV0YWxfYmluZGluZycsICctaW1hZScsICc8aW5maWxlLm1hZT4nLCAnLW9tYWUnLCAnPG91dGZpbGUubWFlPic=

> <r_lp_tautomer_probability>
1

> <r_epik_Ionization_Penalty>
8.267e-08

> <r_epik_Ionization_Penalty_Charging>
1.5129e-08

> <r_epik_Ionization_Penalty_Neutral>
6.7541e-08

> <r_epik_State_Penalty>
-0

> <r_epik_Charging_Adjusted_Penalty>
1.5129e-08

> <i_epik_Tot_Q>
0

> <i_epik_Tot_abs_Q>
0

> <r_epik_Metal_State_Penalty>
-0

> <b_epik_Metal_Only>
0

> <s_lp_Force_Field>
OPLS_2005

> <r_lp_Energy>
10.5627

> <b_lp_Chiralities_Consistent>
1

> <s_lp_Variant>
AV-unprocessed.smi:2686-1

> <Gold.Version>
5.8.1

> <Gold.Id.Protein>
6NUR|6NUR_protein|mol2

> <Gold.PLP.Fitness>
49.2749

> <Gold.PLP.PLP>
-43.9685

> <Gold.PLP.part.hbond>
-2.0000

> <Gold.PLP.part.metal>
0.0000

> <Gold.PLP.part.buried>
-5.7334

> <Gold.PLP.part.nonpolar>
-36.0014

> <Gold.PLP.part.repulsive>
0.2312

> <Gold.PLP.ligand.clash>
0.0000

> <Gold.PLP.ligand.torsion>
0.3696

> <Gold.PLP.Chemscore.Hbond>
2.0000

> <Gold.PLP.Chemscore.CHOScore>
0.0000

> <Gold.PLP.Chemscore.Metal>
0.0000

> <Gold.Chemscore.Hbonds>
donor molecule, donor type, donor heavy atom, donor atom, acceptor molecule, acceptor atom, score
      L1  H     2    24       P1  7957  1.00
      P1  H  7997  8009       L1     8  1.00

> <Gold.PLP.Chemscore.Internal.Correction>
0.0455

> <Gold.Rescore>
     Score         DG    S(hbond)    S(metal)    S(lipo)     H(rot)  DE(clash)    DE(int)     intcor
     14.40     -14.74       1.98        0.00      73.36       2.32       0.03       0.31       ----

> <Gold.Chemscore.Fitness>
14.4015

> <Gold.Chemscore.DG>
-14.7427

> <Gold.Chemscore.ZeroCoef>
-5.4800

> <Gold.Chemscore.Hbond>
1.9803

> <Gold.Chemscore.Metal>
0.0000

> <Gold.Chemscore.Lipo>
73.3643

> <Gold.Chemscore.Internal_Hbond>
0.0000

> <Gold.Chemscore.DEClash>
0.0291

> <Gold.Chemscore.DEInternal>
0.3122

> <Gold.Chemscore.Rot>
2.3184

> <Gold.Chemscore.Internal.Correction>
   9.000000E+99

> <Gold.Chemscore.Hbonds>
donor molecule, donor type, donor heavy atom, donor atom, acceptor molecule, acceptor atom, score
      L1  H     2    24       P1  7957  0.95
      P1  H  7997  8009       L1     8  1.00

> <Gold.Chemscore.Hbond.Weighted>
-6.6143

> <Gold.Chemscore.Metal.Weighted>
-0.0000

> <Gold.Chemscore.Lipo.Weighted>
-8.5836

> <Gold.Chemscore.Internal_Hbond.Weighted>
0.0000

> <Gold.Chemscore.DEClash.Weighted>
0.0291

> <Gold.Chemscore.DEInternal.Weighted>
0.3122

> <Gold.Chemscore.Rot.Weighted>
5.9352

> <Gold.Chemscore.Internal.Correction.Weighted>
   9.000000E+99

> <Gold.Protein.RotatedTorsions>
[ 6907 6896 6895 6894 ] final   38.12 input  -60.11 | X-H torsion
[ 7974 7965 7964 7962 ] final   44.26 input  175.53 | X-H torsion
[ 8008 7997 7996 7995 ] final -148.81 input   59.86 | X-H torsion
[ 10167 10162 10161 10158 ] final  144.25 input  -65.29 | X-H torsion
[ 10718 10713 10712 10709 ] final   94.65 input   66.30 | X-H torsion
[ 10763 10752 10751 10750 ] final  -38.51 input  -60.55 | X-H torsion
[ 11005 11000 10999 10996 ] final -139.64 input  -57.11 | X-H torsion

> <Gold.Protein.ActiveResidues>
 VAL166  LYS551  ARG553  GLY616  TRP617  ASP618  TYR619  PRO620  LYS621  CYS622 
 ASP623  PHE694  ASN695  SER759  ASP760  ASP761  ALA762  ILE779  LEU786  VAL792 
 PHE793  MET794  SER795  GLU796  ALA797  LYS798  CYS799  TRP800  GLU811  SER814 

> <Gold.Protein.RotatedAtoms>
  152.1522  134.8979  160.0547 H   0  0  0  0  0  0  0  0  0  0  0  0  # atno 6907 bound_to 6896
  152.0006  133.3819  159.4188 H   0  0  0  0  0  0  0  0  0  0  0  0  # atno 6908 bound_to 6896
  150.6877  134.3760  159.5057 H   0  0  0  0  0  0  0  0  0  0  0  0  # atno 6909 bound_to 6896
  146.0584  139.5095  142.9674 H   0  0  0  0  0  0  0  0  0  0  0  0  # atno 7974 bound_to 7965
  155.5976  140.0659  157.2742 H   0  0  0  0  0  0  0  0  0  0  0  0  # atno 8008 bound_to 7997
  154.4288  140.1824  156.1186 H   0  0  0  0  0  0  0  0  0  0  0  0  # atno 8009 bound_to 7997
  156.0184  140.3319  155.7017 H   0  0  0  0  0  0  0  0  0  0  0  0  # atno 8010 bound_to 7997
  139.4951  144.5985  151.6531 H   0  0  0  0  0  0  0  0  0  0  0  0  # atno 10167 bound_to 10162
  157.6946  131.0519  150.4218 H   0  0  0  0  0  0  0  0  0  0  0  0  # atno 10718 bound_to 10713
  153.9141  135.6789  153.4750 H   0  0  0  0  0  0  0  0  0  0  0  0  # atno 10763 bound_to 10752
  153.1063  135.4804  154.8954 H   0  0  0  0  0  0  0  0  0  0  0  0  # atno 10764 bound_to 10752
  154.7512  135.3185  154.8510 H   0  0  0  0  0  0  0  0  0  0  0  0  # atno 10765 bound_to 10752
  140.8500  134.2298  157.4765 H   0  0  0  0  0  0  0  0  0  0  0  0  # atno 11005 bound_to 11000
  145.6603  141.0242  143.1713 LP  0  0  0  0  0  0  0  0  0  0  0  0  # atno 17320 bound_to 7965
  144.7161  139.8192  143.7398 LP  0  0  0  0  0  0  0  0  0  0  0  0  # atno 17321 bound_to 7965
  140.5629  144.0238  150.6178 LP  0  0  0  0  0  0  0  0  0  0  0  0  # atno 17342 bound_to 10162
  140.3330  143.3066  152.0667 LP  0  0  0  0  0  0  0  0  0  0  0  0  # atno 17343 bound_to 10162
  156.4593  130.4028  149.6586 LP  0  0  0  0  0  0  0  0  0  0  0  0  # atno 17370 bound_to 10713
  156.3707  130.7529  151.2512 LP  0  0  0  0  0  0  0  0  0  0  0  0  # atno 17371 bound_to 10713
  139.8704  134.9678  156.4610 LP  0  0  0  0  0  0  0  0  0  0  0  0  # atno 17394 bound_to 11000
  140.8801  133.7924  155.9457 LP  0  0  0  0  0  0  0  0  0  0  0  0  # atno 17395 bound_to 11000

$$$$
