AV-unprocessed.smi:2623|AV-procd|sdf|10230|dock10
  -GOLD-   2272014233D 1   1.00000     0.00000
 Structure written by MMmdl.
 40 42  0  0  0  0  0  0  0  0  1 V2000
  154.9541  138.9205  158.5082 O   0  0  0  0  0  0  0  0  0  0  0  0
  153.6620  139.0141  159.0738 C   0  0  0  0  0  0  0  0  0  0  0  0
  153.0981  140.4072  159.0850 C   0  0  0  0  0  0  0  0  0  0  0  0
  153.5872  141.3861  159.8504 N   0  0  0  0  0  0  0  0  0  0  0  0
  152.7834  142.4606  159.5259 C   0  0  0  0  0  0  0  0  0  0  0  0
  152.7959  143.7928  159.9982 C   0  0  0  0  0  0  0  0  0  0  0  0
  151.8629  144.7317  159.5115 C   0  0  0  0  0  0  0  0  0  0  0  0
  150.9061  144.3527  158.5479 C   0  0  0  0  0  0  0  0  0  0  0  0
  150.8765  143.0306  158.0637 C   0  0  0  0  0  0  0  0  0  0  0  0
  151.8102  142.0971  158.5528 C   0  0  0  0  0  0  0  0  0  0  0  0
  152.0496  140.7502  158.2949 N   0  0  0  0  0  0  0  0  0  0  0  0
  151.3165  139.9056  157.3605 C   0  0  0  0  0  0  0  0  0  0  0  0
  152.2386  139.1673  156.3681 C   0  0  1  0  0  0  0  0  0  0  0  0
  152.2908  137.7903  156.6851 O   0  0  0  0  0  0  0  0  0  0  0  0
  151.7703  139.3109  154.9128 C   0  0  0  0  0  0  0  0  0  0  0  0
  150.9839  140.4891  154.7938 O   0  0  0  0  0  0  0  0  0  0  0  0
  149.6588  140.3556  154.4386 C   0  0  0  0  0  0  0  0  0  0  0  0
  148.8755  141.5284  154.4387 C   0  0  0  0  0  0  0  0  0  0  0  0
  147.5129  141.4858  154.0854 C   0  0  0  0  0  0  0  0  0  0  0  0
  146.9174  140.2627  153.7263 C   0  0  0  0  0  0  0  0  0  0  0  0
  147.6862  139.0842  153.7230 C   0  0  0  0  0  0  0  0  0  0  0  0
  149.0490  139.1271  154.0771 C   0  0  0  0  0  0  0  0  0  0  0  0
  155.5835  138.8365  159.2077 H   0  0  0  0  0  0  0  0  0  0  0  0
  152.9915  138.3632  158.5122 H   0  0  0  0  0  0  0  0  0  0  0  0
  153.7087  138.6342  160.0939 H   0  0  0  0  0  0  0  0  0  0  0  0
  153.5248  144.0924  160.7366 H   0  0  0  0  0  0  0  0  0  0  0  0
  151.8812  145.7470  159.8799 H   0  0  0  0  0  0  0  0  0  0  0  0
  150.1943  145.0776  158.1810 H   0  0  0  0  0  0  0  0  0  0  0  0
  150.1440  142.7379  157.3266 H   0  0  0  0  0  0  0  0  0  0  0  0
  150.7266  139.1885  157.9324 H   0  0  0  0  0  0  0  0  0  0  0  0
  150.5949  140.5216  156.8236 H   0  0  0  0  0  0  0  0  0  0  0  0
  153.2541  139.5553  156.4491 H   0  0  0  0  0  0  0  0  0  0  0  0
  152.3716  137.7000  157.6222 H   0  0  0  0  0  0  0  0  0  0  0  0
  152.6392  139.3877  154.2565 H   0  0  0  0  0  0  0  0  0  0  0  0
  151.1964  138.4318  154.6141 H   0  0  0  0  0  0  0  0  0  0  0  0
  149.3243  142.4719  154.7126 H   0  0  0  0  0  0  0  0  0  0  0  0
  146.9253  142.3919  154.0893 H   0  0  0  0  0  0  0  0  0  0  0  0
  145.8729  140.2284  153.4536 H   0  0  0  0  0  0  0  0  0  0  0  0
  147.2304  138.1446  153.4473 H   0  0  0  0  0  0  0  0  0  0  0  0
  149.6050  138.2023  154.0612 H   0  0  0  0  0  0  0  0  0  0  0  0
  1  2  1  0  0  0  0
  1 23  1  0  0  0  0
  2  3  1  0  0  0  0
  2 24  1  0  0  0  0
  2 25  1  0  0  0  0
  3 11  1  0  0  0  0
  3  4  2  0  0  0  0
  4  5  1  0  0  0  0
  5 10  2  0  0  0  0
  5  6  1  0  0  0  0
  6  7  2  0  0  0  0
  6 26  1  0  0  0  0
  7  8  1  0  0  0  0
  7 27  1  0  0  0  0
  8  9  2  0  0  0  0
  8 28  1  0  0  0  0
  9 10  1  0  0  0  0
  9 29  1  0  0  0  0
 10 11  1  0  0  0  0
 11 12  1  0  0  0  0
 12 13  1  0  0  0  0
 12 30  1  0  0  0  0
 12 31  1  0  0  0  0
 13 14  1  0  0  0  0
 13 15  1  0  0  0  0
 13 32  1  0  0  0  0
 14 33  1  0  0  0  0
 15 16  1  0  0  0  0
 15 34  1  0  0  0  0
 15 35  1  0  0  0  0
 16 17  1  0  0  0  0
 17 22  1  0  0  0  0
 17 18  2  0  0  0  0
 18 19  1  0  0  0  0
 18 36  1  0  0  0  0
 19 20  2  0  0  0  0
 19 37  1  0  0  0  0
 20 21  1  0  0  0  0
 20 38  1  0  0  0  0
 21 22  2  0  0  0  0
 21 39  1  0  0  0  0
 22 40  1  0  0  0  0
M  END
> <s_m_source_file>
AV-unprocessed.smi

> <i_m_source_file_index>
2623

> <i_lp_mmshare_version>
43012

> <i_f3d_flags>
0

> <s_epik_input>
W2NIXTFbY0hdW2NIXVtjSF1jKGMxMiluKGMobjIpW0NIMl1bT0hdKVtDSDJdW0NASF0oW09IXSlbQ0gyXU9jM1tjSF1bY0hdW2NIXVtjSF1bY0hdMw==

> <s_epik_cmdline>
J2VwaWtfcHl0aG9uJywgJy1waCcsICc3LjAnLCAnLXRuJywgJzgnLCAnLW1hJywgJzIwMCcsICctbWV0YWxfYmluZGluZycsICctaW1hZScsICc8aW5maWxlLm1hZT4nLCAnLW9tYWUnLCAnPG91dGZpbGUubWFlPic=

> <r_lp_tautomer_probability>
1

> <r_epik_Ionization_Penalty>
0.0583159

> <r_epik_Ionization_Penalty_Charging>
0

> <r_epik_Ionization_Penalty_Neutral>
0.0583159

> <r_epik_State_Penalty>
0.0503525

> <r_epik_Charging_Adjusted_Penalty>
0.0503525

> <i_epik_Tot_Q>
0

> <i_epik_Tot_abs_Q>
0

> <r_epik_Metal_State_Penalty>
5.25517e-05

> <b_epik_Metal_Only>
0

> <s_lp_Force_Field>
OPLS_2005

> <r_lp_Energy>
15.201

> <b_lp_Chiralities_Consistent>
1

> <s_lp_Variant>
AV-unprocessed.smi:2623-2

> <Gold.Version>
5.8.1

> <Gold.Id.Protein>
6NUR|6NUR_protein|mol2

> <Gold.PLP.Fitness>
50.3819

> <Gold.PLP.PLP>
-47.6736

> <Gold.PLP.part.hbond>
-1.9974

> <Gold.PLP.part.metal>
0.0000

> <Gold.PLP.part.buried>
-3.2489

> <Gold.PLP.part.nonpolar>
-42.0195

> <Gold.PLP.part.repulsive>
0.0717

> <Gold.PLP.ligand.clash>
0.0000

> <Gold.PLP.ligand.torsion>
1.6921

> <Gold.PLP.Chemscore.Hbond>
2.0000

> <Gold.PLP.Chemscore.CHOScore>
0.0000

> <Gold.PLP.Chemscore.Metal>
0.0000

> <Gold.Chemscore.Hbonds>
donor molecule, donor type, donor heavy atom, donor atom, acceptor molecule, acceptor atom, score
      P1  H  7989  7998       L1    16  0.59
      P1  H  7997  8010       L1     1  1.00

> <Gold.PLP.Chemscore.Internal.Correction>
0.0925

> <Gold.Rescore>
     Score         DG    S(hbond)    S(metal)    S(lipo)     H(rot)  DE(clash)    DE(int)     intcor
     14.32     -16.72       1.05        0.00     132.61       3.04       0.10       2.30       ----

> <Gold.Chemscore.Fitness>
14.3206

> <Gold.Chemscore.DG>
-16.7163

> <Gold.Chemscore.ZeroCoef>
-5.4800

> <Gold.Chemscore.Hbond>
1.0458

> <Gold.Chemscore.Metal>
0.0000

> <Gold.Chemscore.Lipo>
132.6074

> <Gold.Chemscore.Internal_Hbond>
0.0000

> <Gold.Chemscore.DEClash>
0.1002

> <Gold.Chemscore.DEInternal>
2.2956

> <Gold.Chemscore.Rot>
3.0358

> <Gold.Chemscore.Internal.Correction>
   9.000000E+99

> <Gold.Chemscore.Hbonds>
donor molecule, donor type, donor heavy atom, donor atom, acceptor molecule, acceptor atom, score
      P1  H  7989  7998       L1    16  0.02
      P1  H  7997  8010       L1     1  0.81

> <Gold.Chemscore.Hbond.Weighted>
-3.4929

> <Gold.Chemscore.Metal.Weighted>
-0.0000

> <Gold.Chemscore.Lipo.Weighted>
-15.5151

> <Gold.Chemscore.Internal_Hbond.Weighted>
0.0000

> <Gold.Chemscore.DEClash.Weighted>
0.1002

> <Gold.Chemscore.DEInternal.Weighted>
2.2956

> <Gold.Chemscore.Rot.Weighted>
7.7716

> <Gold.Chemscore.Internal.Correction.Weighted>
   9.000000E+99

> <Gold.Protein.RotatedTorsions>
[ 6907 6896 6895 6894 ] final   58.33 input  -60.11 | X-H torsion
[ 7974 7965 7964 7962 ] final   -5.26 input  175.53 | X-H torsion
[ 8008 7997 7996 7995 ] final  -19.29 input   59.86 | X-H torsion
[ 10167 10162 10161 10158 ] final  -60.70 input  -65.29 | X-H torsion
[ 10718 10713 10712 10709 ] final   77.45 input   66.30 | X-H torsion
[ 10763 10752 10751 10750 ] final  177.59 input  -60.55 | X-H torsion
[ 11005 11000 10999 10996 ] final  -49.67 input  -57.11 | X-H torsion

> <Gold.Protein.ActiveResidues>
 VAL166  LYS551  ARG553  GLY616  TRP617  ASP618  TYR619  PRO620  LYS621  CYS622 
 ASP623  PHE694  ASN695  SER759  ASP760  ASP761  ALA762  ILE779  LEU786  VAL792 
 PHE793  MET794  SER795  GLU796  ALA797  LYS798  CYS799  TRP800  GLU811  SER814 

> <Gold.Protein.RotatedAtoms>
  152.3814  134.6584  160.0141 H   0  0  0  0  0  0  0  0  0  0  0  0  # atno 6907 bound_to 6896
  151.6846  133.3306  159.3236 H   0  0  0  0  0  0  0  0  0  0  0  0  # atno 6908 bound_to 6896
  150.7750  134.6687  159.6424 H   0  0  0  0  0  0  0  0  0  0  0  0  # atno 6909 bound_to 6896
  146.2356  140.1994  142.8333 H   0  0  0  0  0  0  0  0  0  0  0  0  # atno 7974 bound_to 7965
  154.4847  140.2093  155.9684 H   0  0  0  0  0  0  0  0  0  0  0  0  # atno 8008 bound_to 7997
  156.1217  140.3212  155.8187 H   0  0  0  0  0  0  0  0  0  0  0  0  # atno 8009 bound_to 7997
  155.4455  140.0513  157.2997 H   0  0  0  0  0  0  0  0  0  0  0  0  # atno 8010 bound_to 7997
  140.6054  143.2372  151.5834 H   0  0  0  0  0  0  0  0  0  0  0  0  # atno 10167 bound_to 10162
  157.6711  130.9822  150.1643 H   0  0  0  0  0  0  0  0  0  0  0  0  # atno 10718 bound_to 10713
  154.4965  135.2781  155.1455 H   0  0  0  0  0  0  0  0  0  0  0  0  # atno 10763 bound_to 10752
  154.3105  135.6230  153.5467 H   0  0  0  0  0  0  0  0  0  0  0  0  # atno 10764 bound_to 10752
  152.9896  135.5718  154.5398 H   0  0  0  0  0  0  0  0  0  0  0  0  # atno 10765 bound_to 10752
  141.0772  133.6662  156.3619 H   0  0  0  0  0  0  0  0  0  0  0  0  # atno 11005 bound_to 11000
  144.9794  140.8445  143.5406 LP  0  0  0  0  0  0  0  0  0  0  0  0  # atno 17320 bound_to 7965
  145.1986  139.2264  143.5205 LP  0  0  0  0  0  0  0  0  0  0  0  0  # atno 17321 bound_to 7965
  139.5321  144.2886  152.1170 LP  0  0  0  0  0  0  0  0  0  0  0  0  # atno 17342 bound_to 10162
  140.2075  144.4596  150.6402 LP  0  0  0  0  0  0  0  0  0  0  0  0  # atno 17343 bound_to 10162
  156.2412  130.3691  149.8335 LP  0  0  0  0  0  0  0  0  0  0  0  0  # atno 17370 bound_to 10713
  156.6135  130.8596  151.3459 LP  0  0  0  0  0  0  0  0  0  0  0  0  # atno 17371 bound_to 10713
  140.5547  134.5993  157.5417 LP  0  0  0  0  0  0  0  0  0  0  0  0  # atno 17394 bound_to 11000
  139.9585  134.7494  156.0289 LP  0  0  0  0  0  0  0  0  0  0  0  0  # atno 17395 bound_to 11000

$$$$
