AV-unprocessed.smi:1150|AV-procd|sdf|4894|dock5
  -GOLD-   22720 3473D 1   1.00000     0.00000
 Structure written by MMmdl.
 50 51  0  0  0  0  0  0  0  0  1 V2000
  154.0891  138.7629  160.9377 C   0  0  0  0  0  0  0  0  0  0  0  0
  154.0192  140.2922  161.0821 C   0  0  0  0  0  0  0  0  0  0  0  0
  153.6237  141.0386  159.7852 C   0  0  1  0  0  0  0  0  0  0  0  0
  152.3832  140.4540  159.2733 N   0  0  0  0  0  0  0  0  0  0  0  0
  152.2818  139.5221  158.3111 C   0  0  0  0  0  0  0  0  0  0  0  0
  153.2395  139.0948  157.6672 O   0  0  0  0  0  0  0  0  0  0  0  0
  150.8790  138.9762  158.0477 C   0  0  0  0  0  0  0  0  0  0  0  0
  150.3303  139.5988  156.7877 C   0  0  0  0  0  0  0  0  0  0  0  0
  150.7450  139.3445  155.4472 C   0  0  0  0  0  0  0  0  0  0  0  0
  151.8184  138.4095  154.9681 C   0  0  0  0  0  0  0  0  0  0  0  0
  150.0477  140.0377  154.5628 N   0  0  0  0  0  0  0  0  0  0  0  0
  149.1701  140.7493  155.2976 N   0  0  0  0  0  0  0  0  0  0  0  0
  148.2353  141.6316  154.6270 C   0  0  0  0  0  0  0  0  0  0  0  0
  149.3153  140.5082  156.6500 C   0  0  0  0  0  0  0  0  0  0  0  0
  148.4508  141.1726  157.6727 C   0  0  0  0  0  0  0  0  0  0  0  0
  153.4576  142.5741  159.9761 C   0  0  0  0  0  0  0  0  0  0  0  0
  152.6563  142.9233  161.2568 C   0  0  0  0  0  0  0  0  0  0  0  0
  152.4823  144.4385  161.4466 C   0  0  0  0  0  0  0  0  0  0  0  0
  151.8162  145.0793  160.2231 C   0  0  0  0  0  0  0  0  0  0  0  0
  152.6119  144.7681  158.9496 C   0  0  0  0  0  0  0  0  0  0  0  0
  152.7897  143.2533  158.7549 C   0  0  0  0  0  0  0  0  0  0  0  0
  154.4591  138.3057  161.8555 H   0  0  0  0  0  0  0  0  0  0  0  0
  154.7612  138.4747  160.1292 H   0  0  0  0  0  0  0  0  0  0  0  0
  153.1105  138.3286  160.7314 H   0  0  0  0  0  0  0  0  0  0  0  0
  153.3185  140.5424  161.8796 H   0  0  0  0  0  0  0  0  0  0  0  0
  154.9987  140.6281  161.4192 H   0  0  0  0  0  0  0  0  0  0  0  0
  154.4266  140.8793  159.0631 H   0  0  0  0  0  0  0  0  0  0  0  0
  151.5315  140.7377  159.7353 H   0  0  0  0  0  0  0  0  0  0  0  0
  150.9269  137.8893  157.9780 H   0  0  0  0  0  0  0  0  0  0  0  0
  150.2429  139.1931  158.9065 H   0  0  0  0  0  0  0  0  0  0  0  0
  151.4617  137.3795  154.9665 H   0  0  0  0  0  0  0  0  0  0  0  0
  152.6960  138.4552  155.6128 H   0  0  0  0  0  0  0  0  0  0  0  0
  152.1422  138.6519  153.9555 H   0  0  0  0  0  0  0  0  0  0  0  0
  147.2328  141.4830  155.0284 H   0  0  0  0  0  0  0  0  0  0  0  0
  148.2154  141.4280  153.5553 H   0  0  0  0  0  0  0  0  0  0  0  0
  148.5337  142.6677  154.7861 H   0  0  0  0  0  0  0  0  0  0  0  0
  148.7089  140.8525  158.6816 H   0  0  0  0  0  0  0  0  0  0  0  0
  147.4009  140.9307  157.5077 H   0  0  0  0  0  0  0  0  0  0  0  0
  148.5610  142.2562  157.6274 H   0  0  0  0  0  0  0  0  0  0  0  0
  154.4546  143.0039  160.0879 H   0  0  0  0  0  0  0  0  0  0  0  0
  151.6755  142.4475  161.2150 H   0  0  0  0  0  0  0  0  0  0  0  0
  153.1503  142.5268  162.1437 H   0  0  0  0  0  0  0  0  0  0  0  0
  151.8857  144.6346  162.3381 H   0  0  0  0  0  0  0  0  0  0  0  0
  153.4556  144.9000  161.6179 H   0  0  0  0  0  0  0  0  0  0  0  0
  150.7968  144.7045  160.1211 H   0  0  0  0  0  0  0  0  0  0  0  0
  151.7389  146.1581  160.3616 H   0  0  0  0  0  0  0  0  0  0  0  0
  152.1066  145.1960  158.0832 H   0  0  0  0  0  0  0  0  0  0  0  0
  153.5905  145.2467  159.0037 H   0  0  0  0  0  0  0  0  0  0  0  0
  153.3838  143.1017  157.8550 H   0  0  0  0  0  0  0  0  0  0  0  0
  151.8180  142.7949  158.5655 H   0  0  0  0  0  0  0  0  0  0  0  0
  1  2  1  0  0  0  0
  1 22  1  0  0  0  0
  1 23  1  0  0  0  0
  1 24  1  0  0  0  0
  2  3  1  0  0  0  0
  2 25  1  0  0  0  0
  2 26  1  0  0  0  0
  3  4  1  0  0  0  0
  3 16  1  0  0  0  0
  3 27  1  0  0  0  0
  4  5  1  0  0  0  0
  4 28  1  0  0  0  0
  5  6  2  0  0  0  0
  5  7  1  0  0  0  0
  7  8  1  0  0  0  0
  7 29  1  0  0  0  0
  7 30  1  0  0  0  0
  8 14  2  0  0  0  0
  8  9  1  0  0  0  0
  9 10  1  0  0  0  0
  9 11  2  0  0  0  0
 10 31  1  0  0  0  0
 10 32  1  0  0  0  0
 10 33  1  0  0  0  0
 11 12  1  0  0  0  0
 12 13  1  0  0  0  0
 12 14  1  0  0  0  0
 13 34  1  0  0  0  0
 13 35  1  0  0  0  0
 13 36  1  0  0  0  0
 14 15  1  0  0  0  0
 15 37  1  0  0  0  0
 15 38  1  0  0  0  0
 15 39  1  0  0  0  0
 16 21  1  0  0  0  0
 16 17  1  0  0  0  0
 16 40  1  0  0  0  0
 17 18  1  0  0  0  0
 17 41  1  0  0  0  0
 17 42  1  0  0  0  0
 18 19  1  0  0  0  0
 18 43  1  0  0  0  0
 18 44  1  0  0  0  0
 19 20  1  0  0  0  0
 19 45  1  0  0  0  0
 19 46  1  0  0  0  0
 20 21  1  0  0  0  0
 20 47  1  0  0  0  0
 20 48  1  0  0  0  0
 21 49  1  0  0  0  0
 21 50  1  0  0  0  0
M  END
> <s_m_source_file>
AV-unprocessed.smi

> <i_m_source_file_index>
1150

> <i_lp_mmshare_version>
43012

> <i_f3d_flags>
0

> <s_epik_input>
W0NIMl0xW0NIMl1bQ0gyXVtDSDJdW0NIMl1bQ0hdMVtDQEhdKFtDSDJdW0NIM10pW05IXUMoPU8pW0NIMl1jMmMoW0NIM10pbm4oW0NIM10pYzJbQ0gzXQ==

> <s_epik_cmdline>
J2VwaWtfcHl0aG9uJywgJy1waCcsICc3LjAnLCAnLXRuJywgJzgnLCAnLW1hJywgJzIwMCcsICctbWV0YWxfYmluZGluZycsICctaW1hZScsICc8aW5maWxlLm1hZT4nLCAnLW9tYWUnLCAnPG91dGZpbGUubWFlPic=

> <r_lp_tautomer_probability>
1

> <r_epik_Ionization_Penalty>
0.00328092

> <r_epik_Ionization_Penalty_Charging>
0

> <r_epik_Ionization_Penalty_Neutral>
0.00328092

> <r_epik_State_Penalty>
0.00231765

> <r_epik_Charging_Adjusted_Penalty>
0.00231765

> <i_epik_Tot_Q>
0

> <i_epik_Tot_abs_Q>
0

> <r_epik_Metal_State_Penalty>
-0

> <b_epik_Metal_Only>
0

> <s_lp_Force_Field>
OPLS_2005

> <r_lp_Energy>
7.94886

> <b_lp_Chiralities_Consistent>
1

> <s_lp_Variant>
AV-unprocessed.smi:1150-2

> <Gold.Version>
5.8.1

> <Gold.Id.Protein>
6NUR|6NUR_protein|mol2

> <Gold.PLP.Fitness>
55.1684

> <Gold.PLP.PLP>
-50.9263

> <Gold.PLP.part.hbond>
-1.7168

> <Gold.PLP.part.metal>
0.0000

> <Gold.PLP.part.buried>
-5.0625

> <Gold.PLP.part.nonpolar>
-43.8612

> <Gold.PLP.part.repulsive>
0.2418

> <Gold.PLP.ligand.clash>
0.0000

> <Gold.PLP.ligand.torsion>
0.8407

> <Gold.PLP.Chemscore.Hbond>
1.9600

> <Gold.PLP.Chemscore.CHOScore>
0.0000

> <Gold.PLP.Chemscore.Metal>
0.0000

> <Gold.Chemscore.Hbonds>
donor molecule, donor type, donor heavy atom, donor atom, acceptor molecule, acceptor atom, score
      P1  H  7989  7998       L1    11  0.83
      P1  H  7997  8008       L1     6  1.00

> <Gold.PLP.Chemscore.Internal.Correction>
0.0436

> <Gold.Rescore>
     Score         DG    S(hbond)    S(metal)    S(lipo)     H(rot)  DE(clash)    DE(int)     intcor
     20.91     -22.12       1.24        0.00     137.86       1.42       0.04       1.17       ----

> <Gold.Chemscore.Fitness>
20.9104

> <Gold.Chemscore.DG>
-22.1224

> <Gold.Chemscore.ZeroCoef>
-5.4800

> <Gold.Chemscore.Hbond>
1.2400

> <Gold.Chemscore.Metal>
0.0000

> <Gold.Chemscore.Lipo>
137.8582

> <Gold.Chemscore.Internal_Hbond>
0.0000

> <Gold.Chemscore.DEClash>
0.0397

> <Gold.Chemscore.DEInternal>
1.1723

> <Gold.Chemscore.Rot>
1.4174

> <Gold.Chemscore.Internal.Correction>
   9.000000E+99

> <Gold.Chemscore.Hbonds>
donor molecule, donor type, donor heavy atom, donor atom, acceptor molecule, acceptor atom, score
      P1  H  7989  7998       L1    11  0.18
      P1  H  7997  8008       L1     6  0.96

> <Gold.Chemscore.Hbond.Weighted>
-4.1416

> <Gold.Chemscore.Metal.Weighted>
-0.0000

> <Gold.Chemscore.Lipo.Weighted>
-16.1294

> <Gold.Chemscore.Internal_Hbond.Weighted>
0.0000

> <Gold.Chemscore.DEClash.Weighted>
0.0397

> <Gold.Chemscore.DEInternal.Weighted>
1.1723

> <Gold.Chemscore.Rot.Weighted>
3.6286

> <Gold.Chemscore.Internal.Correction.Weighted>
   9.000000E+99

> <Gold.Protein.RotatedTorsions>
[ 6907 6896 6895 6894 ] final -174.28 input  -60.11 | X-H torsion
[ 7974 7965 7964 7962 ] final  -37.48 input  175.53 | X-H torsion
[ 8008 7997 7996 7995 ] final  -58.08 input   59.86 | X-H torsion
[ 10167 10162 10161 10158 ] final  -79.15 input  -65.29 | X-H torsion
[ 10718 10713 10712 10709 ] final  -44.75 input   66.30 | X-H torsion
[ 10763 10752 10751 10750 ] final   49.61 input  -60.55 | X-H torsion
[ 11005 11000 10999 10996 ] final   54.36 input  -57.11 | X-H torsion

> <Gold.Protein.ActiveResidues>
 VAL166  LYS551  ARG553  GLY616  TRP617  ASP618  TYR619  PRO620  LYS621  CYS622 
 ASP623  PHE694  ASN695  SER759  ASP760  ASP761  ALA762  ILE779  LEU786  VAL792 
 PHE793  MET794  SER795  GLU796  ALA797  LYS798  CYS799  TRP800  GLU811  SER814 

> <Gold.Protein.RotatedAtoms>
  151.5698  133.3391  159.2987 H   0  0  0  0  0  0  0  0  0  0  0  0  # atno 6907 bound_to 6896
  150.8374  134.7655  159.6915 H   0  0  0  0  0  0  0  0  0  0  0  0  # atno 6908 bound_to 6896
  152.4448  134.5524  159.9922 H   0  0  0  0  0  0  0  0  0  0  0  0  # atno 6909 bound_to 6896
  146.0571  140.6401  142.9015 H   0  0  0  0  0  0  0  0  0  0  0  0  # atno 7974 bound_to 7965
  154.4294  140.1092  156.5900 H   0  0  0  0  0  0  0  0  0  0  0  0  # atno 8008 bound_to 7997
  155.6022  140.3493  155.4578 H   0  0  0  0  0  0  0  0  0  0  0  0  # atno 8009 bound_to 7997
  156.0165  140.1230  157.0391 H   0  0  0  0  0  0  0  0  0  0  0  0  # atno 8010 bound_to 7997
  140.4619  143.2451  151.8336 H   0  0  0  0  0  0  0  0  0  0  0  0  # atno 10167 bound_to 10162
  156.2353  130.4175  149.8825 H   0  0  0  0  0  0  0  0  0  0  0  0  # atno 10718 bound_to 10713
  152.9786  135.5906  154.4117 H   0  0  0  0  0  0  0  0  0  0  0  0  # atno 10763 bound_to 10752
  154.3752  135.2767  155.2245 H   0  0  0  0  0  0  0  0  0  0  0  0  # atno 10764 bound_to 10752
  154.4183  135.6065  153.6049 H   0  0  0  0  0  0  0  0  0  0  0  0  # atno 10765 bound_to 10752
  140.0692  134.5493  155.9065 H   0  0  0  0  0  0  0  0  0  0  0  0  # atno 11005 bound_to 11000
  144.7154  140.4189  143.7048 LP  0  0  0  0  0  0  0  0  0  0  0  0  # atno 17320 bound_to 7965
  145.6625  139.1584  143.2800 LP  0  0  0  0  0  0  0  0  0  0  0  0  # atno 17321 bound_to 7965
  139.4807  144.4998  151.9076 LP  0  0  0  0  0  0  0  0  0  0  0  0  # atno 17342 bound_to 10162
  140.4083  144.2402  150.5890 LP  0  0  0  0  0  0  0  0  0  0  0  0  # atno 17343 bound_to 10162
  156.6425  130.8710  151.3516 LP  0  0  0  0  0  0  0  0  0  0  0  0  # atno 17370 bound_to 10713
  157.7152  130.9488  150.1228 LP  0  0  0  0  0  0  0  0  0  0  0  0  # atno 17371 bound_to 10713
  141.2005  133.6613  156.5901 LP  0  0  0  0  0  0  0  0  0  0  0  0  # atno 17394 bound_to 11000
  140.3652  134.7653  157.4561 LP  0  0  0  0  0  0  0  0  0  0  0  0  # atno 17395 bound_to 11000

$$$$
