AV-unprocessed.smi:414|AV-procd|sdf|2517|dock3
  -GOLD-   2262022463D 1   1.00000     0.00000
 Structure written by MMmdl.
 37 38  0  0  0  0  0  0  0  0  2 V2000
  150.6482  145.6270  160.9023 C   0  0  0  0  0  0  0  0  0  0  0  0
  151.7007  144.8728  160.0773 C   0  0  2  0  0  0  0  0  0  0  0  0
  151.3483  144.8747  158.5775 C   0  0  0  0  0  0  0  0  0  0  0  0
  152.3980  144.1162  157.7461 C   0  0  0  0  0  0  0  0  0  0  0  0
  152.6137  142.6746  158.2523 C   0  0  2  0  0  0  0  0  0  0  0  0
  151.4492  141.8350  157.9778 N   0  0  0  0  0  0  0  0  0  0  0  0
  151.4726  140.6470  157.3548 C   0  0  0  0  0  0  0  0  0  0  0  0
  152.5028  140.1321  156.9180 O   0  0  0  0  0  0  0  0  0  0  0  0
  150.1162  139.9546  157.1694 C   0  0  0  0  0  0  0  0  0  0  0  0
  149.2533  140.6517  156.2025 N   0  0  0  0  0  0  0  0  0  0  0  0
  148.0753  141.2487  156.6851 C   0  0  0  0  0  0  0  0  0  0  0  0
  147.2303  141.9111  155.8723 C   0  0  0  0  0  0  0  0  0  0  0  0
  147.5622  141.9995  154.4555 C   0  0  0  0  0  0  0  0  0  0  0  0
  146.7988  142.5944  153.6973 O   0  0  0  0  0  0  0  0  0  0  0  0
  148.7194  141.4085  154.0366 N   0  5  0  0  0  0  0  0  0  0  0  0
  149.5714  140.7413  154.8757 C   0  0  0  0  0  0  0  0  0  0  0  0
  150.6127  140.2182  154.4774 O   0  0  0  0  0  0  0  0  0  0  0  0
  152.9344  142.6649  159.7594 C   0  0  0  0  0  0  0  0  0  0  0  0
  151.8845  143.4300  160.5849 C   0  0  0  0  0  0  0  0  0  0  0  0
  149.6667  145.1597  160.8153 H   0  0  0  0  0  0  0  0  0  0  0  0
  150.5551  146.6611  160.5694 H   0  0  0  0  0  0  0  0  0  0  0  0
  150.9161  145.6441  161.9593 H   0  0  0  0  0  0  0  0  0  0  0  0
  152.6504  145.3955  160.2003 H   0  0  0  0  0  0  0  0  0  0  0  0
  150.3670  144.4222  158.4277 H   0  0  0  0  0  0  0  0  0  0  0  0
  151.2704  145.9002  158.2147 H   0  0  0  0  0  0  0  0  0  0  0  0
  152.1095  144.1122  156.6944 H   0  0  0  0  0  0  0  0  0  0  0  0
  153.3451  144.6549  157.7955 H   0  0  0  0  0  0  0  0  0  0  0  0
  153.4714  142.2474  157.7295 H   0  0  0  0  0  0  0  0  0  0  0  0
  150.5558  142.1796  158.2983 H   0  0  0  0  0  0  0  0  0  0  0  0
  150.2620  138.9165  156.8636 H   0  0  0  0  0  0  0  0  0  0  0  0
  149.6291  139.8990  158.1437 H   0  0  0  0  0  0  0  0  0  0  0  0
  147.9070  141.1426  157.7468 H   0  0  0  0  0  0  0  0  0  0  0  0
  146.3317  142.3684  156.2598 H   0  0  0  0  0  0  0  0  0  0  0  0
  153.0185  141.6390  160.1203 H   0  0  0  0  0  0  0  0  0  0  0  0
  153.9118  143.1221  159.9182 H   0  0  0  0  0  0  0  0  0  0  0  0
  152.1850  143.4397  161.6331 H   0  0  0  0  0  0  0  0  0  0  0  0
  150.9314  142.9009  160.5459 H   0  0  0  0  0  0  0  0  0  0  0  0
  1  2  1  0  0  0  0
  1 20  1  0  0  0  0
  1 21  1  0  0  0  0
  1 22  1  0  0  0  0
  2 19  1  0  0  0  0
  2  3  1  0  0  0  0
  2 23  1  0  0  0  0
  3  4  1  0  0  0  0
  3 24  1  0  0  0  0
  3 25  1  0  0  0  0
  4  5  1  0  0  0  0
  4 26  1  0  0  0  0
  4 27  1  0  0  0  0
  5  6  1  0  0  0  0
  5 18  1  0  0  0  0
  5 28  1  0  0  0  0
  6  7  1  0  0  0  0
  6 29  1  0  0  0  0
  7  8  2  0  0  0  0
  7  9  1  0  0  0  0
  9 10  1  0  0  0  0
  9 30  1  0  0  0  0
  9 31  1  0  0  0  0
 10 16  1  0  0  0  0
 10 11  1  0  0  0  0
 11 12  2  0  0  0  0
 11 32  1  0  0  0  0
 12 13  1  0  0  0  0
 12 33  1  0  0  0  0
 13 14  2  0  0  0  0
 13 15  1  0  0  0  0
 15 16  1  0  0  0  0
 16 17  2  0  0  0  0
 18 19  1  0  0  0  0
 18 34  1  0  0  0  0
 18 35  1  0  0  0  0
 19 36  1  0  0  0  0
 19 37  1  0  0  0  0
M  CHG  1  15  -1
M  END
> <s_m_source_file>
AV-unprocessed.smi

> <i_m_source_file_index>
414

> <i_lp_mmshare_version>
43012

> <i_f3d_flags>
0

> <s_epik_input>
W0NIM11bQ0BASF0xW0NIMl1bQ0gyXVtDQEhdKFtDSDJdW0NIMl0xKVtOSF1DKD1PKVtDSDJdbjJbY0hdW2NIXWMoPU8pW25IXWMyPU8=

> <s_epik_cmdline>
J2VwaWtfcHl0aG9uJywgJy1waCcsICc3LjAnLCAnLXRuJywgJzgnLCAnLW1hJywgJzIwMCcsICctbWV0YWxfYmluZGluZycsICctaW1hZScsICc8aW5maWxlLm1hZT4nLCAnLW9tYWUnLCAnPG91dGZpbGUubWFlPic=

> <r_lp_tautomer_probability>
0.999537

> <r_epik_Ionization_Penalty>
3.11551

> <r_epik_Ionization_Penalty_Charging>
2.90498e-08

> <r_epik_Ionization_Penalty_Neutral>
3.11551

> <r_epik_State_Penalty>
3.11459

> <r_epik_Charging_Adjusted_Penalty>
3.11459

> <i_epik_Tot_Q>
-1

> <i_epik_Tot_abs_Q>
1

> <r_epik_Metal_State_Penalty>
0.463083

> <b_epik_Metal_Only>
1

> <s_lp_Force_Field>
OPLS_2005

> <r_lp_Energy>
16.6581

> <b_lp_Chiralities_Consistent>
1

> <s_lp_Variant>
AV-unprocessed.smi:414-4

> <Gold.Version>
5.8.1

> <Gold.Id.Protein>
6NUR|6NUR_protein|mol2

> <Gold.PLP.Fitness>
36.6323

> <Gold.PLP.PLP>
-30.2232

> <Gold.PLP.part.hbond>
-2.8912

> <Gold.PLP.part.metal>
0.0000

> <Gold.PLP.part.buried>
2.1468

> <Gold.PLP.part.nonpolar>
-28.0711

> <Gold.PLP.part.repulsive>
0.5087

> <Gold.PLP.ligand.clash>
0.0000

> <Gold.PLP.ligand.torsion>
0.2191

> <Gold.PLP.Chemscore.Hbond>
2.2795

> <Gold.PLP.Chemscore.CHOScore>
0.0000

> <Gold.PLP.Chemscore.Metal>
0.0000

> <Gold.Chemscore.Hbonds>
donor molecule, donor type, donor heavy atom, donor atom, acceptor molecule, acceptor atom, score
      P1  H  7989  7998       L1    17  1.00
      P1  H  7997  8010       L1     8  1.00
      P1  H  8011  8017       L1    15  0.32

> <Gold.PLP.Chemscore.Internal.Correction>
0.0089

> <Gold.Rescore>
     Score         DG    S(hbond)    S(metal)    S(lipo)     H(rot)  DE(clash)    DE(int)     intcor
     15.98     -19.16       2.07        0.00      94.01       1.65       2.90       0.28       ----

> <Gold.Chemscore.Fitness>
15.9820

> <Gold.Chemscore.DG>
-19.1611

> <Gold.Chemscore.ZeroCoef>
-5.4800

> <Gold.Chemscore.Hbond>
2.0713

> <Gold.Chemscore.Metal>
0.0000

> <Gold.Chemscore.Lipo>
94.0117

> <Gold.Chemscore.Internal_Hbond>
0.0000

> <Gold.Chemscore.DEClash>
2.8996

> <Gold.Chemscore.DEInternal>
0.2796

> <Gold.Chemscore.Rot>
1.6549

> <Gold.Chemscore.Internal.Correction>
   9.000000E+99

> <Gold.Chemscore.Hbonds>
donor molecule, donor type, donor heavy atom, donor atom, acceptor molecule, acceptor atom, score
      P1  H  7989  7998       L1    17  0.95
      P1  H  7997  8010       L1     8  0.98
      P1  H  8011  8017       L1    15  0.25

> <Gold.Chemscore.Hbond.Weighted>
-6.9182

> <Gold.Chemscore.Metal.Weighted>
-0.0000

> <Gold.Chemscore.Lipo.Weighted>
-10.9994

> <Gold.Chemscore.Internal_Hbond.Weighted>
0.0000

> <Gold.Chemscore.DEClash.Weighted>
2.8996

> <Gold.Chemscore.DEInternal.Weighted>
0.2796

> <Gold.Chemscore.Rot.Weighted>
4.2364

> <Gold.Chemscore.Internal.Correction.Weighted>
   9.000000E+99

> <Gold.Protein.RotatedTorsions>
[ 6907 6896 6895 6894 ] final  169.53 input  -60.11 | X-H torsion
[ 7974 7965 7964 7962 ] final  -86.08 input  175.53 | X-H torsion
[ 8008 7997 7996 7995 ] final   62.03 input   59.86 | X-H torsion
[ 10167 10162 10161 10158 ] final  149.09 input  -65.29 | X-H torsion
[ 10718 10713 10712 10709 ] final  -65.82 input   66.30 | X-H torsion
[ 10763 10752 10751 10750 ] final   89.84 input  -60.55 | X-H torsion
[ 11005 11000 10999 10996 ] final -122.59 input  -57.11 | X-H torsion

> <Gold.Protein.ActiveResidues>
 VAL166  LYS551  ARG553  GLY616  TRP617  ASP618  TYR619  PRO620  LYS621  CYS622 
 ASP623  PHE694  ASN695  SER759  ASP760  ASP761  ALA762  ILE779  LEU786  VAL792 
 PHE793  MET794  SER795  GLU796  ALA797  LYS798  CYS799  TRP800  GLU811  SER814 

> <Gold.Protein.RotatedAtoms>
  151.8305  133.3408  159.3611 H   0  0  0  0  0  0  0  0  0  0  0  0  # atno 6907 bound_to 6896
  150.7266  134.5487  159.5793 H   0  0  0  0  0  0  0  0  0  0  0  0  # atno 6908 bound_to 6896
  152.2939  134.7690  160.0423 H   0  0  0  0  0  0  0  0  0  0  0  0  # atno 6909 bound_to 6896
  145.4846  140.9555  143.1845 H   0  0  0  0  0  0  0  0  0  0  0  0  # atno 7974 bound_to 7965
  155.6078  140.3494  155.4613 H   0  0  0  0  0  0  0  0  0  0  0  0  # atno 8008 bound_to 7997
  156.0178  140.1247  157.0413 H   0  0  0  0  0  0  0  0  0  0  0  0  # atno 8009 bound_to 7997
  154.4304  140.1068  156.5906 H   0  0  0  0  0  0  0  0  0  0  0  0  # atno 8010 bound_to 7997
  139.4866  144.5629  151.7198 H   0  0  0  0  0  0  0  0  0  0  0  0  # atno 10167 bound_to 10162
  156.0647  130.4253  150.1619 H   0  0  0  0  0  0  0  0  0  0  0  0  # atno 10718 bound_to 10713
  153.1913  135.4456  155.0152 H   0  0  0  0  0  0  0  0  0  0  0  0  # atno 10763 bound_to 10752
  154.8092  135.3287  154.7354 H   0  0  0  0  0  0  0  0  0  0  0  0  # atno 10764 bound_to 10752
  153.7808  135.6977  153.4944 H   0  0  0  0  0  0  0  0  0  0  0  0  # atno 10765 bound_to 10752
  140.9984  134.0439  157.3569 H   0  0  0  0  0  0  0  0  0  0  0  0  # atno 11005 bound_to 11000
  144.7869  139.6409  143.7130 LP  0  0  0  0  0  0  0  0  0  0  0  0  # atno 17320 bound_to 7965
  146.2320  139.5833  142.9548 LP  0  0  0  0  0  0  0  0  0  0  0  0  # atno 17321 bound_to 7965
  140.5202  144.0891  150.6020 LP  0  0  0  0  0  0  0  0  0  0  0  0  # atno 17342 bound_to 10162
  140.3846  143.2784  152.0130 LP  0  0  0  0  0  0  0  0  0  0  0  0  # atno 17343 bound_to 10162
  156.9681  130.9826  151.3465 LP  0  0  0  0  0  0  0  0  0  0  0  0  # atno 17370 bound_to 10713
  157.5681  130.8292  149.8355 LP  0  0  0  0  0  0  0  0  0  0  0  0  # atno 17371 bound_to 10713
  139.9026  135.0170  156.7339 LP  0  0  0  0  0  0  0  0  0  0  0  0  # atno 17394 bound_to 11000
  140.6929  133.9374  155.7977 LP  0  0  0  0  0  0  0  0  0  0  0  0  # atno 17395 bound_to 11000

$$$$
