AV-unprocessed.smi:2061|AV-procd|sdf|8392|dock6
  -GOLD-   2272011 73D 1   1.00000     0.00000
 Structure written by MMmdl.
 45 46  0  0  0  0  0  0  0  0  3 V2000
  148.9711  141.1462  154.5144 C   0  0  0  0  0  0  0  0  0  0  0  0
  149.6851  139.8380  154.5469 C   0  0  0  0  0  0  0  0  0  0  0  0
  149.2624  138.5468  154.4003 C   0  0  0  0  0  0  0  0  0  0  0  0
  150.4613  137.7983  154.5396 C   0  0  0  0  0  0  0  0  0  0  0  0
  150.4452  136.3806  154.4637 N   0  0  0  0  0  0  0  0  0  0  0  0
  149.4286  135.5404  154.7265 C   0  0  0  0  0  0  0  0  0  0  0  0
  148.3751  135.9692  155.2127 O   0  0  0  0  0  0  0  0  0  0  0  0
  149.7157  134.2533  154.3860 N   0  5  0  0  0  0  0  0  0  0  0  0
  149.0925  133.5161  153.2807 C   0  0  0  0  0  0  0  0  0  0  0  0
  148.4031  132.2109  153.7696 C   0  0  2  0  0  0  0  0  0  0  0  0
  149.3820  131.1269  154.2859 C   0  0  0  0  0  0  0  0  0  0  0  0
  147.4057  131.7180  152.7667 N   0  3  1  0  0  0  0  0  0  0  0  0
  146.7907  130.3902  153.0254 C   0  0  0  0  0  0  0  0  0  0  0  0
  146.0262  129.9230  151.7766 C   0  0  1  0  0  0  0  0  0  0  0  0
  145.3274  128.5777  151.9999 C   0  0  0  0  0  0  0  0  0  0  0  0
  145.0311  130.8915  151.4514 O   0  0  0  0  0  0  0  0  0  0  0  0
  145.5303  132.2078  151.2073 C   0  0  2  0  0  0  0  0  0  0  0  0
  146.2810  132.3011  149.8668 C   0  0  0  0  0  0  0  0  0  0  0  0
  146.3593  132.7050  152.4092 C   0  0  0  0  0  0  0  0  0  0  0  0
  151.5194  138.5644  154.7616 N   0  0  0  0  0  0  0  0  0  0  0  0
  151.0280  139.8750  154.7637 O   0  0  0  0  0  0  0  0  0  0  0  0
  148.1471  141.1541  155.2279 H   0  0  0  0  0  0  0  0  0  0  0  0
  148.5615  141.3369  153.5224 H   0  0  0  0  0  0  0  0  0  0  0  0
  149.6426  141.9676  154.7657 H   0  0  0  0  0  0  0  0  0  0  0  0
  148.2573  138.1960  154.2207 H   0  0  0  0  0  0  0  0  0  0  0  0
  151.2942  135.9518  154.1264 H   0  0  0  0  0  0  0  0  0  0  0  0
  148.3497  134.1326  152.7745 H   0  0  0  0  0  0  0  0  0  0  0  0
  149.8156  133.2571  152.5058 H   0  0  0  0  0  0  0  0  0  0  0  0
  147.8403  132.5191  154.6519 H   0  0  0  0  0  0  0  0  0  0  0  0
  149.9969  131.4983  155.1076 H   0  0  0  0  0  0  0  0  0  0  0  0
  150.0624  130.7648  153.5133 H   0  0  0  0  0  0  0  0  0  0  0  0
  148.8360  130.2662  154.6729 H   0  0  0  0  0  0  0  0  0  0  0  0
  147.5577  129.6557  153.2702 H   0  0  0  0  0  0  0  0  0  0  0  0
  146.1138  130.4479  153.8788 H   0  0  0  0  0  0  0  0  0  0  0  0
  146.7199  129.8068  150.9435 H   0  0  0  0  0  0  0  0  0  0  0  0
  146.0495  127.7975  152.2429 H   0  0  0  0  0  0  0  0  0  0  0  0
  144.7905  128.2647  151.1042 H   0  0  0  0  0  0  0  0  0  0  0  0
  144.6079  128.6360  152.8172 H   0  0  0  0  0  0  0  0  0  0  0  0
  144.6542  132.8511  151.1213 H   0  0  0  0  0  0  0  0  0  0  0  0
  146.5350  133.3358  149.6361 H   0  0  0  0  0  0  0  0  0  0  0  0
  145.6658  131.9237  149.0498 H   0  0  0  0  0  0  0  0  0  0  0  0
  147.2121  131.7354  149.8722 H   0  0  0  0  0  0  0  0  0  0  0  0
  145.7118  132.8643  153.2728 H   0  0  0  0  0  0  0  0  0  0  0  0
  146.8107  133.6684  152.1673 H   0  0  0  0  0  0  0  0  0  0  0  0
  147.9541  131.5973  151.9259 H   0  0  0  0  0  0  0  0  0  0  0  0
  1  2  1  0  0  0  0
  1 22  1  0  0  0  0
  1 23  1  0  0  0  0
  1 24  1  0  0  0  0
  2 21  1  0  0  0  0
  2  3  2  0  0  0  0
  3  4  1  0  0  0  0
  3 25  1  0  0  0  0
  4  5  1  0  0  0  0
  4 20  2  0  0  0  0
  5  6  1  0  0  0  0
  5 26  1  0  0  0  0
  6  7  2  0  0  0  0
  6  8  1  0  0  0  0
  8  9  1  0  0  0  0
  9 10  1  0  0  0  0
  9 27  1  0  0  0  0
  9 28  1  0  0  0  0
 10 11  1  0  0  0  0
 10 12  1  0  0  0  0
 10 29  1  0  0  0  0
 11 30  1  0  0  0  0
 11 31  1  0  0  0  0
 11 32  1  0  0  0  0
 12 19  1  0  0  0  0
 12 13  1  0  0  0  0
 12 45  1  0  0  0  0
 13 14  1  0  0  0  0
 13 33  1  0  0  0  0
 13 34  1  0  0  0  0
 14 15  1  0  0  0  0
 14 16  1  0  0  0  0
 14 35  1  0  0  0  0
 15 36  1  0  0  0  0
 15 37  1  0  0  0  0
 15 38  1  0  0  0  0
 16 17  1  0  0  0  0
 17 18  1  0  0  0  0
 17 19  1  0  0  0  0
 17 39  1  0  0  0  0
 18 40  1  0  0  0  0
 18 41  1  0  0  0  0
 18 42  1  0  0  0  0
 19 43  1  0  0  0  0
 19 44  1  0  0  0  0
 20 21  1  0  0  0  0
M  CHG  1   8  -1
M  CHG  1  12   1
M  END
> <s_m_source_file>
AV-unprocessed.smi

> <i_m_source_file_index>
2061

> <i_lp_mmshare_version>
43012

> <i_f3d_flags>
0

> <s_epik_input>
W0NIM11jMVtjSF1jKG5vMSlbTkhdQyg9TylbTkhdW0NIMl1bQ0BIXShbQ0gzXSlOMltDSDJdW0NAQEhdKFtDSDNdKU9bQ0BASF0oW0NIM10pW0NIMl0y

> <s_epik_cmdline>
J2VwaWtfcHl0aG9uJywgJy1waCcsICc3LjAnLCAnLXRuJywgJzgnLCAnLW1hJywgJzIwMCcsICctbWV0YWxfYmluZGluZycsICctaW1hZScsICc8aW5maWxlLm1hZT4nLCAnLW9tYWUnLCAnPG91dGZpbGUubWFlPic=

> <r_epik_Ionization_Penalty>
6.8073

> <r_epik_Ionization_Penalty_Charging>
6.80729

> <r_epik_Ionization_Penalty_Neutral>
5.65391e-06

> <r_epik_State_Penalty>
7.47323

> <r_epik_Charging_Adjusted_Penalty>
14.2805

> <i_epik_Tot_Q>
0

> <i_epik_Tot_abs_Q>
2

> <r_epik_Metal_State_Penalty>
3.40035

> <b_epik_Metal_Only>
1

> <s_lp_Force_Field>
OPLS_2005

> <r_lp_Energy>
16.7719

> <b_lp_Chiralities_Consistent>
1

> <s_lp_Variant>
AV-unprocessed.smi:2061-33

> <Gold.Version>
5.8.1

> <Gold.Id.Protein>
6NUR|6NUR_protein|mol2

> <Gold.PLP.Fitness>
41.1395

> <Gold.PLP.PLP>
-36.9613

> <Gold.PLP.part.hbond>
-4.0000

> <Gold.PLP.part.metal>
0.0000

> <Gold.PLP.part.buried>
-2.6589

> <Gold.PLP.part.nonpolar>
-31.0161

> <Gold.PLP.part.repulsive>
0.6918

> <Gold.PLP.ligand.clash>
0.0000

> <Gold.PLP.ligand.torsion>
1.0152

> <Gold.PLP.Chemscore.Hbond>
2.0000

> <Gold.PLP.Chemscore.CHOScore>
0.0000

> <Gold.PLP.Chemscore.Metal>
0.0000

> <Gold.Chemscore.Hbonds>
donor molecule, donor type, donor heavy atom, donor atom, acceptor molecule, acceptor atom, score
      L1  H    12    45       P1 10747  0.89
      P1  H  7989  7998       L1    21  1.00

> <Gold.PLP.Chemscore.Internal.Correction>
0.2087

> <Gold.Rescore>
     Score         DG    S(hbond)    S(metal)    S(lipo)     H(rot)  DE(clash)    DE(int)     intcor
     14.62     -17.64       1.73        0.00      88.60       1.56       0.63       2.39       ----

> <Gold.Chemscore.Fitness>
14.6160

> <Gold.Chemscore.DG>
-17.6439

> <Gold.Chemscore.ZeroCoef>
-5.4800

> <Gold.Chemscore.Hbond>
1.7300

> <Gold.Chemscore.Metal>
0.0000

> <Gold.Chemscore.Lipo>
88.6021

> <Gold.Chemscore.Internal_Hbond>
0.0000

> <Gold.Chemscore.DEClash>
0.6339

> <Gold.Chemscore.DEInternal>
2.3941

> <Gold.Chemscore.Rot>
1.5550

> <Gold.Chemscore.Internal.Correction>
   9.000000E+99

> <Gold.Chemscore.Hbonds>
donor molecule, donor type, donor heavy atom, donor atom, acceptor molecule, acceptor atom, score
      L1  H    12    45       P1 10747  0.87
      P1  H  7989  7998       L1    21  0.39

> <Gold.Chemscore.Hbond.Weighted>
-5.7783

> <Gold.Chemscore.Metal.Weighted>
-0.0000

> <Gold.Chemscore.Lipo.Weighted>
-10.3664

> <Gold.Chemscore.Internal_Hbond.Weighted>
0.0000

> <Gold.Chemscore.DEClash.Weighted>
0.6339

> <Gold.Chemscore.DEInternal.Weighted>
2.3941

> <Gold.Chemscore.Rot.Weighted>
3.9809

> <Gold.Chemscore.Internal.Correction.Weighted>
   9.000000E+99

> <Gold.Protein.RotatedTorsions>
[ 6907 6896 6895 6894 ] final    1.38 input  -60.11 | X-H torsion
[ 7974 7965 7964 7962 ] final   27.30 input  175.53 | X-H torsion
[ 8008 7997 7996 7995 ] final  124.42 input   59.86 | X-H torsion
[ 10167 10162 10161 10158 ] final -120.73 input  -65.29 | X-H torsion
[ 10718 10713 10712 10709 ] final   82.32 input   66.30 | X-H torsion
[ 10763 10752 10751 10750 ] final  145.29 input  -60.55 | X-H torsion
[ 11005 11000 10999 10996 ] final -163.40 input  -57.11 | X-H torsion

> <Gold.Protein.ActiveResidues>
 VAL166  LYS551  ARG553  GLY616  TRP617  ASP618  TYR619  PRO620  LYS621  CYS622 
 ASP623  PHE694  ASN695  SER759  ASP760  ASP761  ALA762  ILE779  LEU786  VAL792 
 PHE793  MET794  SER795  GLU796  ALA797  LYS798  CYS799  TRP800  GLU811  SER814 

> <Gold.Protein.RotatedAtoms>
  151.5918  135.1053  160.0040 H   0  0  0  0  0  0  0  0  0  0  0  0  # atno 6907 bound_to 6896
  152.4302  133.7261  159.6571 H   0  0  0  0  0  0  0  0  0  0  0  0  # atno 6908 bound_to 6896
  150.8194  133.8208  159.3168 H   0  0  0  0  0  0  0  0  0  0  0  0  # atno 6909 bound_to 6896
  146.1792  139.7210  142.8913 H   0  0  0  0  0  0  0  0  0  0  0  0  # atno 7974 bound_to 7965
  156.2801  140.2740  156.1786 H   0  0  0  0  0  0  0  0  0  0  0  0  # atno 8008 bound_to 7997
  155.0580  140.0386  157.2585 H   0  0  0  0  0  0  0  0  0  0  0  0  # atno 8009 bound_to 7997
  154.7140  140.2674  155.6608 H   0  0  0  0  0  0  0  0  0  0  0  0  # atno 8010 bound_to 7997
  140.0327  143.5232  152.2168 H   0  0  0  0  0  0  0  0  0  0  0  0  # atno 10167 bound_to 10162
  157.6854  131.0042  150.2357 H   0  0  0  0  0  0  0  0  0  0  0  0  # atno 10718 bound_to 10713
  154.0030  135.2921  155.3400 H   0  0  0  0  0  0  0  0  0  0  0  0  # atno 10763 bound_to 10752
  154.7148  135.5134  153.8725 H   0  0  0  0  0  0  0  0  0  0  0  0  # atno 10764 bound_to 10752
  153.0757  135.6663  154.0269 H   0  0  0  0  0  0  0  0  0  0  0  0  # atno 10765 bound_to 10752
  140.5985  134.4971  157.5202 H   0  0  0  0  0  0  0  0  0  0  0  0  # atno 11005 bound_to 11000
  145.4126  141.0398  143.3008 LP  0  0  0  0  0  0  0  0  0  0  0  0  # atno 17320 bound_to 7965
  144.8286  139.5667  143.6954 LP  0  0  0  0  0  0  0  0  0  0  0  0  # atno 17321 bound_to 7965
  139.6065  144.7597  151.3049 LP  0  0  0  0  0  0  0  0  0  0  0  0  # atno 17342 bound_to 10162
  140.7295  143.6906  150.7925 LP  0  0  0  0  0  0  0  0  0  0  0  0  # atno 17343 bound_to 10162
  156.2981  130.3754  149.7777 LP  0  0  0  0  0  0  0  0  0  0  0  0  # atno 17370 bound_to 10713
  156.5415  130.8302  151.3270 LP  0  0  0  0  0  0  0  0  0  0  0  0  # atno 17371 bound_to 10713
  139.9242  134.8088  156.1117 LP  0  0  0  0  0  0  0  0  0  0  0  0  # atno 17394 bound_to 11000
  141.0888  133.6723  156.2494 LP  0  0  0  0  0  0  0  0  0  0  0  0  # atno 17395 bound_to 11000

$$$$
