AV-unprocessed.smi:767|AV-procd|sdf|3663|dock6
  -GOLD-   22720 1 73D 1   1.00000     0.00000
 Structure written by MMmdl.
 47 49  0  0  0  0  0  0  0  0  1 V2000
  146.9119  141.8461  153.8494 C   0  0  0  0  0  0  0  0  0  0  0  0
  148.0080  140.9086  154.3113 C   0  0  0  0  0  0  0  0  0  0  0  0
  149.1163  141.3988  155.0332 C   0  0  0  0  0  0  0  0  0  0  0  0
  150.1145  140.4881  155.4300 C   0  0  0  0  0  0  0  0  0  0  0  0
  149.9690  139.1283  155.0878 C   0  0  0  0  0  0  0  0  0  0  0  0
  151.0312  138.1101  155.4664 C   0  0  0  0  0  0  0  0  0  0  0  0
  150.9847  137.6951  156.9512 C   0  0  0  0  0  0  0  0  0  0  0  0
  151.1877  138.8178  157.8622 N   0  0  0  0  0  0  0  0  0  0  0  0
  152.0278  139.8393  157.6494 C   0  0  0  0  0  0  0  0  0  0  0  0
  152.7630  139.9361  156.6669 O   0  0  0  0  0  0  0  0  0  0  0  0
  151.9535  140.7536  158.6252 N   0  0  0  0  0  0  0  0  0  0  0  0
  152.7212  142.0025  158.6515 C   0  0  2  0  0  0  0  0  0  0  0  0
  153.3985  142.2518  160.0018 C   0  0  2  0  0  0  0  0  0  0  0  0
  153.7471  141.4268  161.1877 C   0  0  0  0  0  0  0  0  0  0  0  0
  153.3347  142.4610  162.2704 C   0  0  0  0  0  0  0  0  0  0  0  0
  152.6292  143.5161  161.5672 O   0  0  0  0  0  0  0  0  0  0  0  0
  152.0836  142.8645  160.4376 C   0  0  1  0  0  0  0  0  0  0  0  0
  151.8873  143.3072  158.9709 C   0  0  0  0  0  0  0  0  0  0  0  0
  152.5028  144.6549  158.5544 C   0  0  0  0  0  0  0  0  0  0  0  0
  150.4332  143.3439  158.4887 C   0  0  0  0  0  0  0  0  0  0  0  0
  148.8183  138.7403  154.3687 C   0  0  0  0  0  0  0  0  0  0  0  0
  147.8571  139.6064  153.9827 N   0  0  0  0  0  0  0  0  0  0  0  0
  146.8180  142.6956  154.5266 H   0  0  0  0  0  0  0  0  0  0  0  0
  145.9488  141.3356  153.8131 H   0  0  0  0  0  0  0  0  0  0  0  0
  147.1375  142.2250  152.8524 H   0  0  0  0  0  0  0  0  0  0  0  0
  149.2031  142.4481  155.2745 H   0  0  0  0  0  0  0  0  0  0  0  0
  150.9800  140.8297  155.9786 H   0  0  0  0  0  0  0  0  0  0  0  0
  150.9175  137.2293  154.8339 H   0  0  0  0  0  0  0  0  0  0  0  0
  152.0144  138.5214  155.2337 H   0  0  0  0  0  0  0  0  0  0  0  0
  150.0046  137.2741  157.1770 H   0  0  0  0  0  0  0  0  0  0  0  0
  151.7114  136.9063  157.1511 H   0  0  0  0  0  0  0  0  0  0  0  0
  150.6234  138.8314  158.6991 H   0  0  0  0  0  0  0  0  0  0  0  0
  151.3169  140.5887  159.3910 H   0  0  0  0  0  0  0  0  0  0  0  0
  153.4043  142.1201  157.8086 H   0  0  0  0  0  0  0  0  0  0  0  0
  154.1842  142.9972  159.8558 H   0  0  0  0  0  0  0  0  0  0  0  0
  153.1527  140.5141  161.2462 H   0  0  0  0  0  0  0  0  0  0  0  0
  154.8059  141.1707  161.2320 H   0  0  0  0  0  0  0  0  0  0  0  0
  152.6855  142.0025  163.0172 H   0  0  0  0  0  0  0  0  0  0  0  0
  154.1995  142.8807  162.7848 H   0  0  0  0  0  0  0  0  0  0  0  0
  151.3308  142.1327  160.7485 H   0  0  0  0  0  0  0  0  0  0  0  0
  152.0108  145.4862  159.0603 H   0  0  0  0  0  0  0  0  0  0  0  0
  152.4000  144.8206  157.4815 H   0  0  0  0  0  0  0  0  0  0  0  0
  153.5647  144.7364  158.7794 H   0  0  0  0  0  0  0  0  0  0  0  0
  149.9179  144.2430  158.8277 H   0  0  0  0  0  0  0  0  0  0  0  0
  149.8601  142.4967  158.8648 H   0  0  0  0  0  0  0  0  0  0  0  0
  150.3724  143.3184  157.4003 H   0  0  0  0  0  0  0  0  0  0  0  0
  148.6696  137.7095  154.0824 H   0  0  0  0  0  0  0  0  0  0  0  0
  1  2  1  0  0  0  0
  1 23  1  0  0  0  0
  1 24  1  0  0  0  0
  1 25  1  0  0  0  0
  2 22  1  0  0  0  0
  2  3  2  0  0  0  0
  3  4  1  0  0  0  0
  3 26  1  0  0  0  0
  4  5  2  0  0  0  0
  4 27  1  0  0  0  0
  5  6  1  0  0  0  0
  5 21  1  0  0  0  0
  6  7  1  0  0  0  0
  6 28  1  0  0  0  0
  6 29  1  0  0  0  0
  7  8  1  0  0  0  0
  7 30  1  0  0  0  0
  7 31  1  0  0  0  0
  8  9  1  0  0  0  0
  8 32  1  0  0  0  0
  9 10  2  0  0  0  0
  9 11  1  0  0  0  0
 11 12  1  0  0  0  0
 11 33  1  0  0  0  0
 12 18  1  0  0  0  0
 12 13  1  0  0  0  0
 12 34  1  0  0  0  0
 13 17  1  0  0  0  0
 13 14  1  0  0  0  0
 13 35  1  0  0  0  0
 14 15  1  0  0  0  0
 14 36  1  0  0  0  0
 14 37  1  0  0  0  0
 15 16  1  0  0  0  0
 15 38  1  0  0  0  0
 15 39  1  0  0  0  0
 16 17  1  0  0  0  0
 17 18  1  0  0  0  0
 17 40  1  0  0  0  0
 18 19  1  0  0  0  0
 18 20  1  0  0  0  0
 19 41  1  0  0  0  0
 19 42  1  0  0  0  0
 19 43  1  0  0  0  0
 20 44  1  0  0  0  0
 20 45  1  0  0  0  0
 20 46  1  0  0  0  0
 21 22  2  0  0  0  0
 21 47  1  0  0  0  0
M  END
> <s_m_source_file>
AV-unprocessed.smi

> <i_m_source_file_index>
767

> <i_lp_mmshare_version>
43012

> <i_f3d_flags>
0

> <s_epik_input>
W0NIM11jMVtjSF1bY0hdYyhbY0hdbjEpW0NIMl1bQ0gyXVtOSF1DKD1PKVtOSF1bQ0BIXTJDKFtDSDNdKShbQ0gzXSlbQ0BIXShbQ0BASF0yMylPW0NIMl1bQ0gyXTM=

> <s_epik_cmdline>
J2VwaWtfcHl0aG9uJywgJy1waCcsICc3LjAnLCAnLXRuJywgJzgnLCAnLW1hJywgJzIwMCcsICctbWV0YWxfYmluZGluZycsICctaW1hZScsICc8aW5maWxlLm1hZT4nLCAnLW9tYWUnLCAnPG91dGZpbGUubWFlPic=

> <r_epik_Ionization_Penalty>
0.0567523

> <r_epik_Ionization_Penalty_Charging>
0

> <r_epik_Ionization_Penalty_Neutral>
0.0567523

> <r_epik_State_Penalty>
0.0489186

> <r_epik_Charging_Adjusted_Penalty>
0.0489186

> <i_epik_Tot_Q>
0

> <i_epik_Tot_abs_Q>
0

> <r_epik_Metal_State_Penalty>
0.044622

> <b_epik_Metal_Only>
0

> <s_lp_Force_Field>
OPLS_2005

> <r_lp_Energy>
58.7335

> <b_lp_Chiralities_Consistent>
1

> <s_lp_Variant>
AV-unprocessed.smi:767-7

> <Gold.Version>
5.8.1

> <Gold.Id.Protein>
6NUR|6NUR_protein|mol2

> <Gold.PLP.Fitness>
50.8943

> <Gold.PLP.PLP>
-45.6804

> <Gold.PLP.part.hbond>
-1.0000

> <Gold.PLP.part.metal>
0.0000

> <Gold.PLP.part.buried>
-5.2322

> <Gold.PLP.part.nonpolar>
-39.4958

> <Gold.PLP.part.repulsive>
0.8750

> <Gold.PLP.ligand.clash>
0.0000

> <Gold.PLP.ligand.torsion>
0.5124

> <Gold.PLP.Chemscore.Hbond>
1.0000

> <Gold.PLP.Chemscore.CHOScore>
0.9891

> <Gold.PLP.Chemscore.Metal>
0.0000

> <Gold.Chemscore.Hbonds>
donor molecule, donor type, donor heavy atom, donor atom, acceptor molecule, acceptor atom, score
      P1  H  7997  8009       L1    10  1.00
      L1  C    21    47       P1  7948  0.65

> <Gold.PLP.Chemscore.Internal.Correction>
0.2714

> <Gold.Rescore>
     Score         DG    S(hbond)    S(metal)    S(lipo)     H(rot)  DE(clash)    DE(int)     intcor
     19.00     -20.97       0.98        0.00     136.08       1.45       0.04       1.93       ----

> <Gold.Chemscore.Fitness>
19.0011

> <Gold.Chemscore.DG>
-20.9699

> <Gold.Chemscore.ZeroCoef>
-5.4800

> <Gold.Chemscore.Hbond>
0.9819

> <Gold.Chemscore.Metal>
0.0000

> <Gold.Chemscore.Lipo>
136.0822

> <Gold.Chemscore.Internal_Hbond>
0.0000

> <Gold.Chemscore.DEClash>
0.0437

> <Gold.Chemscore.DEInternal>
1.9251

> <Gold.Chemscore.Rot>
1.4497

> <Gold.Chemscore.Internal.Correction>
   9.000000E+99

> <Gold.Chemscore.Hbonds>
donor molecule, donor type, donor heavy atom, donor atom, acceptor molecule, acceptor atom, score
      P1  H  7997  8009       L1    10  0.98

> <Gold.Chemscore.Hbond.Weighted>
-3.2795

> <Gold.Chemscore.Metal.Weighted>
-0.0000

> <Gold.Chemscore.Lipo.Weighted>
-15.9216

> <Gold.Chemscore.Internal_Hbond.Weighted>
0.0000

> <Gold.Chemscore.DEClash.Weighted>
0.0437

> <Gold.Chemscore.DEInternal.Weighted>
1.9251

> <Gold.Chemscore.Rot.Weighted>
3.7112

> <Gold.Chemscore.Internal.Correction.Weighted>
   9.000000E+99

> <Gold.Protein.RotatedTorsions>
[ 6907 6896 6895 6894 ] final  -74.62 input  -60.11 | X-H torsion
[ 7974 7965 7964 7962 ] final  -28.83 input  175.53 | X-H torsion
[ 8008 7997 7996 7995 ] final -160.48 input   59.86 | X-H torsion
[ 10167 10162 10161 10158 ] final -155.41 input  -65.29 | X-H torsion
[ 10718 10713 10712 10709 ] final   19.41 input   66.30 | X-H torsion
[ 10763 10752 10751 10750 ] final  105.64 input  -60.55 | X-H torsion
[ 11005 11000 10999 10996 ] final -166.78 input  -57.11 | X-H torsion

> <Gold.Protein.ActiveResidues>
 VAL166  LYS551  ARG553  GLY616  TRP617  ASP618  TYR619  PRO620  LYS621  CYS622 
 ASP623  PHE694  ASN695  SER759  ASP760  ASP761  ALA762  ILE779  LEU786  VAL792 
 PHE793  MET794  SER795  GLU796  ALA797  LYS798  CYS799  TRP800  GLU811  SER814 

> <Gold.Protein.RotatedAtoms>
  150.7087  134.4842  159.5484 H   0  0  0  0  0  0  0  0  0  0  0  0  # atno 6907 bound_to 6896
  152.2473  134.8165  160.0460 H   0  0  0  0  0  0  0  0  0  0  0  0  # atno 6908 bound_to 6896
  151.8925  133.3484  159.3840 H   0  0  0  0  0  0  0  0  0  0  0  0  # atno 6909 bound_to 6896
  146.1260  140.5333  142.8714 H   0  0  0  0  0  0  0  0  0  0  0  0  # atno 7974 bound_to 7965
  155.7781  140.0861  157.2073 H   0  0  0  0  0  0  0  0  0  0  0  0  # atno 8008 bound_to 7997
  154.3992  140.1513  156.3077 H   0  0  0  0  0  0  0  0  0  0  0  0  # atno 8009 bound_to 7997
  155.8681  140.3427  155.5805 H   0  0  0  0  0  0  0  0  0  0  0  0  # atno 8010 bound_to 7997
  139.6933  143.9384  152.2395 H   0  0  0  0  0  0  0  0  0  0  0  0  # atno 10167 bound_to 10162
  157.1101  130.6505  149.5895 H   0  0  0  0  0  0  0  0  0  0  0  0  # atno 10718 bound_to 10713
  153.3821  135.3903  155.1864 H   0  0  0  0  0  0  0  0  0  0  0  0  # atno 10763 bound_to 10752
  154.8709  135.3728  154.4844 H   0  0  0  0  0  0  0  0  0  0  0  0  # atno 10764 bound_to 10752
  153.5322  135.7085  153.5739 H   0  0  0  0  0  0  0  0  0  0  0  0  # atno 10765 bound_to 10752
  140.5606  134.5337  157.5142 H   0  0  0  0  0  0  0  0  0  0  0  0  # atno 11005 bound_to 11000
  144.7643  140.5494  143.6714 LP  0  0  0  0  0  0  0  0  0  0  0  0  # atno 17320 bound_to 7965
  145.5364  139.1475  143.3471 LP  0  0  0  0  0  0  0  0  0  0  0  0  # atno 17321 bound_to 7965
  139.9206  144.6802  150.8466 LP  0  0  0  0  0  0  0  0  0  0  0  0  # atno 17342 bound_to 10162
  140.7689  143.3378  151.2272 LP  0  0  0  0  0  0  0  0  0  0  0  0  # atno 17343 bound_to 10162
  155.9852  130.4881  150.7022 LP  0  0  0  0  0  0  0  0  0  0  0  0  # atno 17370 bound_to 10713
  157.4567  131.0878  151.0789 LP  0  0  0  0  0  0  0  0  0  0  0  0  # atno 17371 bound_to 10713
  139.9409  134.7788  156.0680 LP  0  0  0  0  0  0  0  0  0  0  0  0  # atno 17394 bound_to 11000
  141.1116  133.6641  156.2993 LP  0  0  0  0  0  0  0  0  0  0  0  0  # atno 17395 bound_to 11000

$$$$
