AV-unprocessed.smi:3112|AV-procd|sdf|11841|dock1
  -GOLD-   2272017213D 1   1.00000     0.00000
 Structure written by MMmdl.
 37 37  0  0  0  0  0  0  0  0  2 V2000
  148.1315  139.1813  153.8065 C   0  0  0  0  0  0  0  0  0  0  0  0
  147.7988  140.6747  153.9297 C   0  0  0  0  0  0  0  0  0  0  0  0
  149.0208  141.5496  154.2636 C   0  0  1  0  0  0  0  0  0  0  0  0
  148.6205  142.9060  154.2894 O   0  0  0  0  0  0  0  0  0  0  0  0
  149.6304  141.1940  155.6298 C   0  0  0  0  0  0  0  0  0  0  0  0
  150.3962  142.3321  156.1807 N   0  3  0  0  0  0  0  0  0  0  0  0
  150.7262  142.2404  157.6227 C   0  0  2  0  0  0  0  0  0  0  0  0
  149.4829  142.5821  158.4657 C   0  0  0  0  0  0  0  0  0  0  0  0
  151.9360  143.1571  157.9432 C   0  0  1  0  0  0  0  0  0  0  0  0
  151.7661  144.6015  157.4355 C   0  0  0  0  0  0  0  0  0  0  0  0
  152.2095  143.1670  159.3766 N   0  0  0  0  0  0  0  0  0  0  0  0
  152.1540  144.2249  160.2630 C   0  0  0  0  0  0  0  0  0  0  0  0
  152.4547  143.7366  161.5019 C   0  0  0  0  0  0  0  0  0  0  0  0
  152.6734  142.3496  161.2749 C   0  0  0  0  0  0  0  0  0  0  0  0
  152.5158  142.0108  160.0055 N   0  0  0  0  0  0  0  0  0  0  0  0
  147.2313  138.6003  153.6048 H   0  0  0  0  0  0  0  0  0  0  0  0
  148.5733  138.7986  154.7270 H   0  0  0  0  0  0  0  0  0  0  0  0
  148.8336  138.9937  152.9939 H   0  0  0  0  0  0  0  0  0  0  0  0
  147.3294  141.0230  153.0086 H   0  0  0  0  0  0  0  0  0  0  0  0
  147.0502  140.7920  154.7142 H   0  0  0  0  0  0  0  0  0  0  0  0
  149.7761  141.4216  153.4866 H   0  0  0  0  0  0  0  0  0  0  0  0
  148.6226  143.2060  155.1859 H   0  0  0  0  0  0  0  0  0  0  0  0
  148.8507  140.8831  156.3257 H   0  0  0  0  0  0  0  0  0  0  0  0
  150.3111  140.3494  155.5149 H   0  0  0  0  0  0  0  0  0  0  0  0
  151.2695  142.3751  155.6738 H   0  0  0  0  0  0  0  0  0  0  0  0
  151.0200  141.2122  157.8412 H   0  0  0  0  0  0  0  0  0  0  0  0
  149.6657  142.4368  159.5300 H   0  0  0  0  0  0  0  0  0  0  0  0
  148.6350  141.9473  158.2091 H   0  0  0  0  0  0  0  0  0  0  0  0
  149.1766  143.6182  158.3178 H   0  0  0  0  0  0  0  0  0  0  0  0
  152.8158  142.7451  157.4443 H   0  0  0  0  0  0  0  0  0  0  0  0
  151.7464  144.6461  156.3469 H   0  0  0  0  0  0  0  0  0  0  0  0
  152.5960  145.2295  157.7616 H   0  0  0  0  0  0  0  0  0  0  0  0
  150.8441  145.0516  157.8047 H   0  0  0  0  0  0  0  0  0  0  0  0
  151.9071  145.2266  159.9435 H   0  0  0  0  0  0  0  0  0  0  0  0
  152.5083  144.2859  162.4302 H   0  0  0  0  0  0  0  0  0  0  0  0
  152.9340  141.5832  161.9901 H   0  0  0  0  0  0  0  0  0  0  0  0
  149.8907  143.1901  156.0098 H   0  0  0  0  0  0  0  0  0  0  0  0
  1  2  1  0  0  0  0
  1 16  1  0  0  0  0
  1 17  1  0  0  0  0
  1 18  1  0  0  0  0
  2  3  1  0  0  0  0
  2 19  1  0  0  0  0
  2 20  1  0  0  0  0
  3  4  1  0  0  0  0
  3  5  1  0  0  0  0
  3 21  1  0  0  0  0
  4 22  1  0  0  0  0
  5  6  1  0  0  0  0
  5 23  1  0  0  0  0
  5 24  1  0  0  0  0
  6  7  1  0  0  0  0
  6 25  1  0  0  0  0
  6 37  1  0  0  0  0
  7  8  1  0  0  0  0
  7  9  1  0  0  0  0
  7 26  1  0  0  0  0
  8 27  1  0  0  0  0
  8 28  1  0  0  0  0
  8 29  1  0  0  0  0
  9 10  1  0  0  0  0
  9 11  1  0  0  0  0
  9 30  1  0  0  0  0
 10 31  1  0  0  0  0
 10 32  1  0  0  0  0
 10 33  1  0  0  0  0
 11 15  1  0  0  0  0
 11 12  1  0  0  0  0
 12 13  2  0  0  0  0
 12 34  1  0  0  0  0
 13 14  1  0  0  0  0
 13 35  1  0  0  0  0
 14 15  2  0  0  0  0
 14 36  1  0  0  0  0
M  CHG  1   6   1
M  END
> <s_m_source_file>
AV-unprocessed.smi

> <i_m_source_file_index>
3112

> <i_lp_mmshare_version>
43012

> <i_f3d_flags>
0

> <s_epik_input>
W0NIM11bQ0gyXVtDQEhdKFtPSF0pW0NIMl1bTkhdW0NASF0oW0NIM10pW0NASF0oW0NIM10pbjFbY0hdW2NIXVtjSF1uMQ==

> <s_epik_cmdline>
J2VwaWtfcHl0aG9uJywgJy1waCcsICc3LjAnLCAnLXRuJywgJzgnLCAnLW1hJywgJzIwMCcsICctbWV0YWxfYmluZGluZycsICctaW1hZScsICc8aW5maWxlLm1hZT4nLCAnLW9tYWUnLCAnPG91dGZpbGUubWFlPic=

> <r_lp_tautomer_probability>
1

> <r_epik_Ionization_Penalty>
0.0154842

> <r_epik_Ionization_Penalty_Charging>
0.0154724

> <r_epik_Ionization_Penalty_Neutral>
1.17979e-05

> <r_epik_State_Penalty>
0.0121607

> <r_epik_Charging_Adjusted_Penalty>
0.0276331

> <i_epik_Tot_Q>
1

> <i_epik_Tot_abs_Q>
1

> <r_epik_Metal_State_Penalty>
0.0121863

> <b_epik_Metal_Only>
0

> <s_lp_Force_Field>
OPLS_2005

> <r_lp_Energy>
12.5622

> <b_lp_Chiralities_Consistent>
1

> <s_lp_Variant>
AV-unprocessed.smi:3112-6

> <Gold.Version>
5.8.1

> <Gold.Id.Protein>
6NUR|6NUR_protein|mol2

> <Gold.PLP.Fitness>
44.3355

> <Gold.PLP.PLP>
-36.0865

> <Gold.PLP.part.hbond>
-3.0899

> <Gold.PLP.part.metal>
0.0000

> <Gold.PLP.part.buried>
-3.2102

> <Gold.PLP.part.nonpolar>
-29.6409

> <Gold.PLP.part.repulsive>
0.1033

> <Gold.PLP.ligand.clash>
0.0000

> <Gold.PLP.ligand.torsion>
0.6171

> <Gold.PLP.Chemscore.Hbond>
3.1140

> <Gold.PLP.Chemscore.CHOScore>
0.0000

> <Gold.PLP.Chemscore.Metal>
0.0000

> <Gold.Chemscore.Hbonds>
donor molecule, donor type, donor heavy atom, donor atom, acceptor molecule, acceptor atom, score
      L1  H     4    22       P1  8028  0.48
      L1  H     6    37       P1  8028  2.00
      P1  H  8022  8030       L1     4  0.60

> <Gold.PLP.Chemscore.Internal.Correction>
0.1412

> <Gold.Rescore>
     Score         DG    S(hbond)    S(metal)    S(lipo)     H(rot)  DE(clash)    DE(int)     intcor
     15.13     -16.47       1.67        0.00      99.01       2.41       0.71       0.64       ----

> <Gold.Chemscore.Fitness>
15.1288

> <Gold.Chemscore.DG>
-16.4717

> <Gold.Chemscore.ZeroCoef>
-5.4800

> <Gold.Chemscore.Hbond>
1.6691

> <Gold.Chemscore.Metal>
0.0000

> <Gold.Chemscore.Lipo>
99.0053

> <Gold.Chemscore.Internal_Hbond>
0.0000

> <Gold.Chemscore.DEClash>
0.7050

> <Gold.Chemscore.DEInternal>
0.6379

> <Gold.Chemscore.Rot>
2.4089

> <Gold.Chemscore.Internal.Correction>
   9.000000E+99

> <Gold.Chemscore.Hbonds>
donor molecule, donor type, donor heavy atom, donor atom, acceptor molecule, acceptor atom, score
      L1  H     4    22       P1  8028  0.47
      L1  H     6    37       P1  8028  1.00
      P1  H  8022  8030       L1     4  0.04

> <Gold.Chemscore.Hbond.Weighted>
-5.5748

> <Gold.Chemscore.Metal.Weighted>
-0.0000

> <Gold.Chemscore.Lipo.Weighted>
-11.5836

> <Gold.Chemscore.Internal_Hbond.Weighted>
0.0000

> <Gold.Chemscore.DEClash.Weighted>
0.7050

> <Gold.Chemscore.DEInternal.Weighted>
0.6379

> <Gold.Chemscore.Rot.Weighted>
6.1667

> <Gold.Chemscore.Internal.Correction.Weighted>
   9.000000E+99

> <Gold.Protein.RotatedTorsions>
[ 6907 6896 6895 6894 ] final   -2.90 input  -60.11 | X-H torsion
[ 7974 7965 7964 7962 ] final   98.58 input  175.53 | X-H torsion
[ 8008 7997 7996 7995 ] final   49.92 input   59.86 | X-H torsion
[ 10167 10162 10161 10158 ] final   38.63 input  -65.29 | X-H torsion
[ 10718 10713 10712 10709 ] final  -29.43 input   66.30 | X-H torsion
[ 10763 10752 10751 10750 ] final  -78.48 input  -60.55 | X-H torsion
[ 11005 11000 10999 10996 ] final  106.94 input  -57.11 | X-H torsion

> <Gold.Protein.ActiveResidues>
 VAL166  LYS551  ARG553  GLY616  TRP617  ASP618  TYR619  PRO620  LYS621  CYS622 
 ASP623  PHE694  ASN695  SER759  ASP760  ASP761  ALA762  ILE779  LEU786  VAL792 
 PHE793  MET794  SER795  GLU796  ALA797  LYS798  CYS799  TRP800  GLU811  SER814 

> <Gold.Protein.RotatedAtoms>
  151.5224  135.1067  159.9881 H   0  0  0  0  0  0  0  0  0  0  0  0  # atno 6907 bound_to 6896
  152.4615  133.7827  159.6870 H   0  0  0  0  0  0  0  0  0  0  0  0  # atno 6908 bound_to 6896
  150.8579  133.7623  159.3028 H   0  0  0  0  0  0  0  0  0  0  0  0  # atno 6909 bound_to 6896
  145.4103  139.2335  143.3252 H   0  0  0  0  0  0  0  0  0  0  0  0  # atno 7974 bound_to 7965
  155.4101  140.3442  155.4263 H   0  0  0  0  0  0  0  0  0  0  0  0  # atno 8008 bound_to 7997
  156.1453  140.1554  156.8887 H   0  0  0  0  0  0  0  0  0  0  0  0  # atno 8009 bound_to 7997
  154.5006  140.0816  156.7770 H   0  0  0  0  0  0  0  0  0  0  0  0  # atno 8010 bound_to 7997
  140.3918  144.1842  150.6131 H   0  0  0  0  0  0  0  0  0  0  0  0  # atno 10167 bound_to 10162
  156.4125  130.4411  149.7241 H   0  0  0  0  0  0  0  0  0  0  0  0  # atno 10718 bound_to 10713
  154.5264  135.5728  153.6722 H   0  0  0  0  0  0  0  0  0  0  0  0  # atno 10763 bound_to 10752
  152.9929  135.6194  154.2687 H   0  0  0  0  0  0  0  0  0  0  0  0  # atno 10764 bound_to 10752
  154.2611  135.2856  155.2757 H   0  0  0  0  0  0  0  0  0  0  0  0  # atno 10765 bound_to 10752
  139.8821  134.9385  156.5743 H   0  0  0  0  0  0  0  0  0  0  0  0  # atno 11005 bound_to 11000
  146.2708  140.4813  142.8815 LP  0  0  0  0  0  0  0  0  0  0  0  0  # atno 17320 bound_to 7965
  144.8314  140.6712  143.6289 LP  0  0  0  0  0  0  0  0  0  0  0  0  # atno 17321 bound_to 7965
  140.4831  143.2372  151.8926 LP  0  0  0  0  0  0  0  0  0  0  0  0  # atno 17342 bound_to 10162
  139.4788  144.5247  151.8751 LP  0  0  0  0  0  0  0  0  0  0  0  0  # atno 17343 bound_to 10162
  156.4214  130.7771  151.2788 LP  0  0  0  0  0  0  0  0  0  0  0  0  # atno 17370 bound_to 10713
  157.7507  131.0181  150.3614 LP  0  0  0  0  0  0  0  0  0  0  0  0  # atno 17371 bound_to 10713
  140.8075  133.8456  155.8780 LP  0  0  0  0  0  0  0  0  0  0  0  0  # atno 17394 bound_to 11000
  140.9537  134.1746  157.4708 LP  0  0  0  0  0  0  0  0  0  0  0  0  # atno 17395 bound_to 11000

$$$$
