AV-unprocessed.smi:55|AV-procd|sdf|563|dock1
  -GOLD-   2262016463D 1   1.00000     0.00000
 Structure written by MMmdl.
 31 32  0  0  0  0  0  0  0  0  1 V2000
  151.8042  144.3883  157.8758 C   0  0  0  0  0  0  0  0  0  0  0  0
  151.6639  142.8779  157.9675 C   0  0  0  0  0  0  0  0  0  0  0  0
  150.6842  142.1968  157.3199 C   0  0  0  0  0  0  0  0  0  0  0  0
  150.5258  140.8179  157.3808 N   0  0  0  0  0  0  0  0  0  0  0  0
  149.3499  140.1312  156.7155 C   0  0  2  0  0  0  0  0  0  0  0  0
  149.7155  139.3360  155.4478 C   0  0  0  0  0  0  0  0  0  0  0  0
  148.8923  140.0131  154.3604 C   0  0  2  0  0  0  0  0  0  0  0  0
  149.6886  140.8995  153.5975 O   0  0  0  0  0  0  0  0  0  0  0  0
  147.7952  140.7423  155.1529 C   0  0  2  0  0  0  0  0  0  0  0  0
  147.1366  141.9589  154.4796 C   0  0  0  0  0  0  0  0  0  0  0  0
  148.1187  142.8919  154.0824 O   0  0  0  0  0  0  0  0  0  0  0  0
  148.4322  141.1179  156.3653 O   0  0  0  0  0  0  0  0  0  0  0  0
  151.3580  140.0765  158.2491 C   0  0  0  0  0  0  0  0  0  0  0  0
  151.2267  138.8684  158.4415 O   0  0  0  0  0  0  0  0  0  0  0  0
  152.3745  140.7715  158.9024 N   0  0  0  0  0  0  0  0  0  0  0  0
  152.6102  142.1446  158.8112 C   0  0  0  0  0  0  0  0  0  0  0  0
  153.5509  142.6424  159.4276 O   0  0  0  0  0  0  0  0  0  0  0  0
  148.9034  139.4626  157.4528 H   0  0  0  0  0  0  0  0  0  0  0  0
  148.4616  139.2821  153.6756 H   0  0  0  0  0  0  0  0  0  0  0  0
  147.0212  140.0195  155.4184 H   0  0  0  0  0  0  0  0  0  0  0  0
  152.9852  140.2381  159.5039 H   0  0  0  0  0  0  0  0  0  0  0  0
  151.0470  144.8266  157.2252 H   0  0  0  0  0  0  0  0  0  0  0  0
  152.7833  144.6567  157.4774 H   0  0  0  0  0  0  0  0  0  0  0  0
  151.6994  144.8412  158.8624 H   0  0  0  0  0  0  0  0  0  0  0  0
  149.9824  142.7728  156.7380 H   0  0  0  0  0  0  0  0  0  0  0  0
  150.7867  139.3007  155.2493 H   0  0  0  0  0  0  0  0  0  0  0  0
  149.3768  138.3084  155.5870 H   0  0  0  0  0  0  0  0  0  0  0  0
  149.4403  140.8169  152.6893 H   0  0  0  0  0  0  0  0  0  0  0  0
  146.5894  141.6392  153.5925 H   0  0  0  0  0  0  0  0  0  0  0  0
  146.4149  142.4410  155.1393 H   0  0  0  0  0  0  0  0  0  0  0  0
  148.3753  143.3977  154.8387 H   0  0  0  0  0  0  0  0  0  0  0  0
  1  2  1  0  0  0  0
  1 22  1  0  0  0  0
  1 23  1  0  0  0  0
  1 24  1  0  0  0  0
  2 16  1  0  0  0  0
  2  3  2  0  0  0  0
  3  4  1  0  0  0  0
  3 25  1  0  0  0  0
  4  5  1  0  0  0  0
  4 13  1  0  0  0  0
  5 18  1  0  0  0  0
  5 12  1  0  0  0  0
  5  6  1  0  0  0  0
  6  7  1  0  0  0  0
  6 26  1  0  0  0  0
  6 27  1  0  0  0  0
  7 19  1  0  0  0  0
  7  8  1  0  0  0  0
  7  9  1  0  0  0  0
  8 28  1  0  0  0  0
  9 20  1  0  0  0  0
  9 10  1  0  0  0  0
  9 12  1  0  0  0  0
 10 11  1  0  0  0  0
 10 29  1  0  0  0  0
 10 30  1  0  0  0  0
 11 31  1  0  0  0  0
 13 14  2  0  0  0  0
 13 15  1  0  0  0  0
 15 21  1  0  0  0  0
 15 16  1  0  0  0  0
 16 17  2  0  0  0  0
M  END
> <s_m_source_file>
AV-unprocessed.smi

> <i_m_source_file_index>
55

> <i_lp_mmshare_version>
43012

> <i_f3d_flags>
0

> <s_epik_input>
Tz1jMVtuSF1jKD1PKW4oW2NIXWMxW0NIM10pW0NAQEhdMltDSDJdW0NAQEhdKFtPSF0pW0NAQEhdKE8yKVtDSDJdW09IXQ==

> <s_epik_cmdline>
J2VwaWtfcHl0aG9uJywgJy1waCcsICc3LjAnLCAnLXRuJywgJzgnLCAnLW1hJywgJzIwMCcsICctbWV0YWxfYmluZGluZycsICctaW1hZScsICc8aW5maWxlLm1hZT4nLCAnLW9tYWUnLCAnPG91dGZpbGUubWFlPic=

> <r_lp_tautomer_probability>
0.999537

> <r_epik_Ionization_Penalty>
0.00121888

> <r_epik_Ionization_Penalty_Charging>
0.00121876

> <r_epik_Ionization_Penalty_Neutral>
1.19946e-07

> <r_epik_State_Penalty>
0.000805124

> <r_epik_Charging_Adjusted_Penalty>
0.00202389

> <i_epik_Tot_Q>
0

> <i_epik_Tot_abs_Q>
0

> <r_epik_Metal_State_Penalty>
0.662472

> <b_epik_Metal_Only>
0

> <s_epik_Chemistry_Notes>
This compound contains an acetal/aminal-like group ( X-CH(R)-Y where X, Y are N, S, or O) that may be acid/base labile, releasing an aldehyde.

> <s_lp_Force_Field>
OPLS_2005

> <r_lp_Energy>
26.1821

> <b_lp_Chiralities_Consistent>
1

> <s_lp_Variant>
AV-unprocessed.smi:55-3

> <Gold.Version>
5.8.1

> <Gold.Id.Protein>
6NUR|6NUR_protein|mol2

> <Gold.PLP.Fitness>
39.2476

> <Gold.PLP.PLP>
-30.0844

> <Gold.PLP.part.hbond>
-5.7944

> <Gold.PLP.part.metal>
0.0000

> <Gold.PLP.part.buried>
-3.7925

> <Gold.PLP.part.nonpolar>
-20.6702

> <Gold.PLP.part.repulsive>
0.1934

> <Gold.PLP.ligand.clash>
0.0000

> <Gold.PLP.ligand.torsion>
0.4710

> <Gold.PLP.Chemscore.Hbond>
2.3344

> <Gold.PLP.Chemscore.CHOScore>
1.0000

> <Gold.PLP.Chemscore.Metal>
0.0000

> <Gold.Chemscore.Hbonds>
donor molecule, donor type, donor heavy atom, donor atom, acceptor molecule, acceptor atom, score
      L1  H     8    28       P1  7957  1.00
      L1  H    11    31       P1  8028  1.00
      P1  H  7989  7998       L1     8  0.34
      L1  C     3    25       P1  8028  1.00

> <Gold.PLP.Chemscore.Internal.Correction>
0.1021

> <Gold.Rescore>
     Score         DG    S(hbond)    S(metal)    S(lipo)     H(rot)  DE(clash)    DE(int)     intcor
     11.43     -12.14       2.23        0.00      52.96       2.73       0.30       0.40       ----

> <Gold.Chemscore.Fitness>
11.4328

> <Gold.Chemscore.DG>
-12.1369

> <Gold.Chemscore.ZeroCoef>
-5.4800

> <Gold.Chemscore.Hbond>
2.2267

> <Gold.Chemscore.Metal>
0.0000

> <Gold.Chemscore.Lipo>
52.9609

> <Gold.Chemscore.Internal_Hbond>
0.0000

> <Gold.Chemscore.DEClash>
0.3036

> <Gold.Chemscore.DEInternal>
0.4004

> <Gold.Chemscore.Rot>
2.7253

> <Gold.Chemscore.Internal.Correction>
   9.000000E+99

> <Gold.Chemscore.Hbonds>
donor molecule, donor type, donor heavy atom, donor atom, acceptor molecule, acceptor atom, score
      L1  H     8    28       P1  7957  0.95
      L1  H    11    31       P1  8028  0.96
      P1  H  7989  7998       L1     8  0.10

> <Gold.Chemscore.Hbond.Weighted>
-7.4373

> <Gold.Chemscore.Metal.Weighted>
-0.0000

> <Gold.Chemscore.Lipo.Weighted>
-6.1964

> <Gold.Chemscore.Internal_Hbond.Weighted>
0.0000

> <Gold.Chemscore.DEClash.Weighted>
0.3036

> <Gold.Chemscore.DEInternal.Weighted>
0.4004

> <Gold.Chemscore.Rot.Weighted>
6.9769

> <Gold.Chemscore.Internal.Correction.Weighted>
   9.000000E+99

> <Gold.Protein.RotatedTorsions>
[ 6907 6896 6895 6894 ] final  -54.92 input  -60.11 | X-H torsion
[ 7974 7965 7964 7962 ] final   92.24 input  175.53 | X-H torsion
[ 8008 7997 7996 7995 ] final   53.91 input   59.86 | X-H torsion
[ 10167 10162 10161 10158 ] final  125.58 input  -65.29 | X-H torsion
[ 10718 10713 10712 10709 ] final -176.69 input   66.30 | X-H torsion
[ 10763 10752 10751 10750 ] final   62.38 input  -60.55 | X-H torsion
[ 11005 11000 10999 10996 ] final  -98.62 input  -57.11 | X-H torsion

> <Gold.Protein.ActiveResidues>
 VAL166  LYS551  ARG553  GLY616  TRP617  ASP618  TYR619  PRO620  LYS621  CYS622 
 ASP623  PHE694  ASN695  SER759  ASP760  ASP761  ALA762  ILE779  LEU786  VAL792 
 PHE793  MET794  SER795  GLU796  ALA797  LYS798  CYS799  TRP800  GLU811  SER814 

> <Gold.Protein.RotatedAtoms>
  150.8296  134.7544  159.6842 H   0  0  0  0  0  0  0  0  0  0  0  0  # atno 6907 bound_to 6896
  152.4403  134.5602  159.9901 H   0  0  0  0  0  0  0  0  0  0  0  0  # atno 6908 bound_to 6896
  151.5766  133.3345  159.3036 H   0  0  0  0  0  0  0  0  0  0  0  0  # atno 6909 bound_to 6896
  145.4949  139.2276  143.2809 H   0  0  0  0  0  0  0  0  0  0  0  0  # atno 7974 bound_to 7965
  155.4761  140.3467  155.4333 H   0  0  0  0  0  0  0  0  0  0  0  0  # atno 8008 bound_to 7997
  156.1069  140.1450  156.9420 H   0  0  0  0  0  0  0  0  0  0  0  0  # atno 8009 bound_to 7997
  154.4730  140.0894  156.7171 H   0  0  0  0  0  0  0  0  0  0  0  0  # atno 8010 bound_to 7997
  139.5678  144.6921  151.3862 H   0  0  0  0  0  0  0  0  0  0  0  0  # atno 10167 bound_to 10162
  156.8184  130.9611  151.3113 H   0  0  0  0  0  0  0  0  0  0  0  0  # atno 10718 bound_to 10713
  152.9981  135.5467  154.6183 H   0  0  0  0  0  0  0  0  0  0  0  0  # atno 10763 bound_to 10752
  154.5488  135.2825  155.1030 H   0  0  0  0  0  0  0  0  0  0  0  0  # atno 10764 bound_to 10752
  154.2278  135.6439  153.5218 H   0  0  0  0  0  0  0  0  0  0  0  0  # atno 10765 bound_to 10752
  141.1338  133.8259  157.0864 H   0  0  0  0  0  0  0  0  0  0  0  0  # atno 11005 bound_to 11000
  146.2261  140.5746  142.8996 LP  0  0  0  0  0  0  0  0  0  0  0  0  # atno 17320 bound_to 7965
  144.7812  140.5845  143.6604 LP  0  0  0  0  0  0  0  0  0  0  0  0  # atno 17321 bound_to 7965
  140.6962  143.7744  150.7330 LP  0  0  0  0  0  0  0  0  0  0  0  0  # atno 17342 bound_to 10162
  140.1241  143.4585  152.2295 LP  0  0  0  0  0  0  0  0  0  0  0  0  # atno 17343 bound_to 10162
  157.6469  130.8852  149.9557 LP  0  0  0  0  0  0  0  0  0  0  0  0  # atno 17370 bound_to 10713
  156.1003  130.3656  150.0230 LP  0  0  0  0  0  0  0  0  0  0  0  0  # atno 17371 bound_to 10713
  140.0419  134.9850  157.0978 LP  0  0  0  0  0  0  0  0  0  0  0  0  # atno 17394 bound_to 11000
  140.4121  134.1970  155.7163 LP  0  0  0  0  0  0  0  0  0  0  0  0  # atno 17395 bound_to 11000

$$$$
