AV-unprocessed.smi:3250|AV-procd|sdf|12427|dock7
  -GOLD-   2272018313D 1   1.00000     0.00000
 Structure written by MMmdl.
 39 40  0  0  0  0  0  0  0  0  2 V2000
  146.9923  136.8769  154.6784 C   0  0  0  0  0  0  0  0  0  0  0  0
  148.4083  137.2071  155.1701 C   0  0  0  0  0  0  0  0  0  0  0  0
  149.1695  138.0225  154.1870 N   0  3  1  0  0  0  0  0  0  0  0  0
  148.5009  139.2836  153.7767 C   0  0  0  0  0  0  0  0  0  0  0  0
  148.6551  140.3801  154.8481 C   0  0  0  0  0  0  0  0  0  0  0  0
  150.0325  140.5679  155.1505 O   0  0  0  0  0  0  0  0  0  0  0  0
  150.6415  139.3924  155.6734 C   0  0  2  0  0  0  0  0  0  0  0  0
  152.0872  139.7498  156.0595 C   0  0  0  0  0  0  0  0  0  0  0  0
  152.3465  139.5813  157.4838 N   0  0  0  0  0  0  0  0  0  0  0  0
  152.3966  140.6126  158.4044 C   0  0  0  0  0  0  0  0  0  0  0  0
  153.0865  140.3551  159.5173 N   0  0  0  0  0  0  0  0  0  0  0  0
  153.1611  141.3432  160.4356 C   0  0  0  0  0  0  0  0  0  0  0  0
  152.5388  142.5915  160.2353 C   0  0  0  0  0  0  0  0  0  0  0  0
  151.8340  142.7559  159.0259 C   0  0  0  0  0  0  0  0  0  0  0  0
  151.2015  143.9535  158.7650 O   0  0  0  0  0  0  0  0  0  0  0  0
  151.2902  144.9856  159.7412 C   0  0  0  0  0  0  0  0  0  0  0  0
  151.7655  141.7553  158.1125 N   0  0  0  0  0  0  0  0  0  0  0  0
  150.5703  138.2882  154.5954 C   0  0  0  0  0  0  0  0  0  0  0  0
  146.4906  136.2080  155.3777 H   0  0  0  0  0  0  0  0  0  0  0  0
  147.0186  136.3788  153.7087 H   0  0  0  0  0  0  0  0  0  0  0  0
  146.3724  137.7679  154.5829 H   0  0  0  0  0  0  0  0  0  0  0  0
  148.3697  137.7013  156.1409 H   0  0  0  0  0  0  0  0  0  0  0  0
  148.9296  136.2625  155.3299 H   0  0  0  0  0  0  0  0  0  0  0  0
  148.9641  139.6250  152.8502 H   0  0  0  0  0  0  0  0  0  0  0  0
  147.4495  139.1173  153.5457 H   0  0  0  0  0  0  0  0  0  0  0  0
  148.2476  141.3208  154.4777 H   0  0  0  0  0  0  0  0  0  0  0  0
  148.1004  140.1349  155.7547 H   0  0  0  0  0  0  0  0  0  0  0  0
  150.0973  139.0852  156.5677 H   0  0  0  0  0  0  0  0  0  0  0  0
  152.7882  139.1285  155.5020 H   0  0  0  0  0  0  0  0  0  0  0  0
  152.3037  140.7815  155.7793 H   0  0  0  0  0  0  0  0  0  0  0  0
  152.4767  138.6443  157.8374 H   0  0  0  0  0  0  0  0  0  0  0  0
  153.7205  141.1368  161.3360 H   0  0  0  0  0  0  0  0  0  0  0  0
  152.6009  143.3810  160.9697 H   0  0  0  0  0  0  0  0  0  0  0  0
  150.7330  145.8571  159.3973 H   0  0  0  0  0  0  0  0  0  0  0  0
  152.3244  145.2948  159.9003 H   0  0  0  0  0  0  0  0  0  0  0  0
  150.8601  144.6732  160.6938 H   0  0  0  0  0  0  0  0  0  0  0  0
  151.0428  137.3678  154.9411 H   0  0  0  0  0  0  0  0  0  0  0  0
  151.1294  138.6047  153.7137 H   0  0  0  0  0  0  0  0  0  0  0  0
  149.2290  137.4457  153.3598 H   0  0  0  0  0  0  0  0  0  0  0  0
  1  2  1  0  0  0  0
  1 19  1  0  0  0  0
  1 20  1  0  0  0  0
  1 21  1  0  0  0  0
  2  3  1  0  0  0  0
  2 22  1  0  0  0  0
  2 23  1  0  0  0  0
  3 18  1  0  0  0  0
  3  4  1  0  0  0  0
  3 39  1  0  0  0  0
  4  5  1  0  0  0  0
  4 24  1  0  0  0  0
  4 25  1  0  0  0  0
  5  6  1  0  0  0  0
  5 26  1  0  0  0  0
  5 27  1  0  0  0  0
  6  7  1  0  0  0  0
  7  8  1  0  0  0  0
  7 18  1  0  0  0  0
  7 28  1  0  0  0  0
  8  9  1  0  0  0  0
  8 29  1  0  0  0  0
  8 30  1  0  0  0  0
  9 10  1  0  0  0  0
  9 31  1  0  0  0  0
 10 17  1  0  0  0  0
 10 11  2  0  0  0  0
 11 12  1  0  0  0  0
 12 13  2  0  0  0  0
 12 32  1  0  0  0  0
 13 14  1  0  0  0  0
 13 33  1  0  0  0  0
 14 15  1  0  0  0  0
 14 17  2  0  0  0  0
 15 16  1  0  0  0  0
 16 34  1  0  0  0  0
 16 35  1  0  0  0  0
 16 36  1  0  0  0  0
 18 37  1  0  0  0  0
 18 38  1  0  0  0  0
M  CHG  1   3   1
M  END
> <s_m_source_file>
AV-unprocessed.smi

> <i_m_source_file_index>
3250

> <i_lp_mmshare_version>
43012

> <i_f3d_flags>
0

> <s_epik_input>
W0NIM11bQ0gyXU4xW0NIMl1bQ0gyXU9bQ0BIXShbQ0gyXTEpW0NIMl1bTkhdYzJuW2NIXVtjSF1jKG4yKU9bQ0gzXQ==

> <s_epik_cmdline>
J2VwaWtfcHl0aG9uJywgJy1waCcsICc3LjAnLCAnLXRuJywgJzgnLCAnLW1hJywgJzIwMCcsICctbWV0YWxfYmluZGluZycsICctaW1hZScsICc8aW5maWxlLm1hZT4nLCAnLW9tYWUnLCAnPG91dGZpbGUubWFlPic=

> <r_lp_tautomer_probability>
1

> <r_epik_Ionization_Penalty>
0.19684

> <r_epik_Ionization_Penalty_Charging>
0.178504

> <r_epik_Ionization_Penalty_Neutral>
0.0183356

> <r_epik_State_Penalty>
0.162939

> <r_epik_Charging_Adjusted_Penalty>
0.341443

> <i_epik_Tot_Q>
1

> <i_epik_Tot_abs_Q>
1

> <r_epik_Metal_State_Penalty>
0.1608

> <b_epik_Metal_Only>
0

> <s_lp_Force_Field>
OPLS_2005

> <r_lp_Energy>
9.61167

> <b_lp_Chiralities_Consistent>
1

> <s_lp_Variant>
AV-unprocessed.smi:3250-3

> <Gold.Version>
5.8.1

> <Gold.Id.Protein>
6NUR|6NUR_protein|mol2

> <Gold.PLP.Fitness>
38.3081

> <Gold.PLP.PLP>
-31.7906

> <Gold.PLP.part.hbond>
-2.0000

> <Gold.PLP.part.metal>
0.0000

> <Gold.PLP.part.buried>
0.3467

> <Gold.PLP.part.nonpolar>
-30.0735

> <Gold.PLP.part.repulsive>
0.3040

> <Gold.PLP.ligand.clash>
0.1832

> <Gold.PLP.ligand.torsion>
0.9922

> <Gold.PLP.Chemscore.Hbond>
2.8800

> <Gold.PLP.Chemscore.CHOScore>
0.0000

> <Gold.PLP.Chemscore.Metal>
0.0000

> <Gold.Chemscore.Hbonds>
donor molecule, donor type, donor heavy atom, donor atom, acceptor molecule, acceptor atom, score
      L1  H     3    39       P1  7948  2.00
      P1  H  7989  7998       L1     6  0.20

> <Gold.PLP.Chemscore.Internal.Correction>
0.0453

> <Gold.Rescore>
     Score         DG    S(hbond)    S(metal)    S(lipo)     H(rot)  DE(clash)    DE(int)     intcor
     13.36     -15.90       1.90        0.00      72.40       1.71       1.47       1.07       ----

> <Gold.Chemscore.Fitness>
13.3645

> <Gold.Chemscore.DG>
-15.8998

> <Gold.Chemscore.ZeroCoef>
-5.4800

> <Gold.Chemscore.Hbond>
1.8963

> <Gold.Chemscore.Metal>
0.0000

> <Gold.Chemscore.Lipo>
72.3982

> <Gold.Chemscore.Internal_Hbond>
0.0000

> <Gold.Chemscore.DEClash>
1.4685

> <Gold.Chemscore.DEInternal>
1.0669

> <Gold.Chemscore.Rot>
1.7127

> <Gold.Chemscore.Internal.Correction>
   9.000000E+99

> <Gold.Chemscore.Hbonds>
donor molecule, donor type, donor heavy atom, donor atom, acceptor molecule, acceptor atom, score
      L1  H     3    39       P1  7948  0.99
      P1  H  7989  7998       L1     6  0.02

> <Gold.Chemscore.Hbond.Weighted>
-6.3338

> <Gold.Chemscore.Metal.Weighted>
-0.0000

> <Gold.Chemscore.Lipo.Weighted>
-8.4706

> <Gold.Chemscore.Internal_Hbond.Weighted>
0.0000

> <Gold.Chemscore.DEClash.Weighted>
1.4685

> <Gold.Chemscore.DEInternal.Weighted>
1.0669

> <Gold.Chemscore.Rot.Weighted>
4.3846

> <Gold.Chemscore.Internal.Correction.Weighted>
   9.000000E+99

> <Gold.Protein.RotatedTorsions>
[ 6907 6896 6895 6894 ] final   99.14 input  -60.11 | X-H torsion
[ 7974 7965 7964 7962 ] final   48.54 input  175.53 | X-H torsion
[ 8008 7997 7996 7995 ] final -127.89 input   59.86 | X-H torsion
[ 10167 10162 10161 10158 ] final  139.84 input  -65.29 | X-H torsion
[ 10718 10713 10712 10709 ] final  132.46 input   66.30 | X-H torsion
[ 10763 10752 10751 10750 ] final   76.45 input  -60.55 | X-H torsion
[ 11005 11000 10999 10996 ] final -136.95 input  -57.11 | X-H torsion

> <Gold.Protein.ActiveResidues>
 VAL166  LYS551  ARG553  GLY616  TRP617  ASP618  TYR619  PRO620  LYS621  CYS622 
 ASP623  PHE694  ASN695  SER759  ASP760  ASP761  ALA762  ILE779  LEU786  VAL792 
 PHE793  MET794  SER795  GLU796  ALA797  LYS798  CYS799  TRP800  GLU811  SER814 

> <Gold.Protein.RotatedAtoms>
  152.5397  134.0473  159.8093 H   0  0  0  0  0  0  0  0  0  0  0  0  # atno 6907 bound_to 6896
  151.0620  133.5529  159.2641 H   0  0  0  0  0  0  0  0  0  0  0  0  # atno 6908 bound_to 6896
  151.2424  135.0601  159.9084 H   0  0  0  0  0  0  0  0  0  0  0  0  # atno 6909 bound_to 6896
  146.0195  139.4634  142.9906 H   0  0  0  0  0  0  0  0  0  0  0  0  # atno 7974 bound_to 7965
  155.2536  140.0433  157.2989 H   0  0  0  0  0  0  0  0  0  0  0  0  # atno 8008 bound_to 7997
  154.5754  140.2385  155.8100 H   0  0  0  0  0  0  0  0  0  0  0  0  # atno 8009 bound_to 7997
  156.2154  140.2986  155.9835 H   0  0  0  0  0  0  0  0  0  0  0  0  # atno 8010 bound_to 7997
  139.5067  144.6271  151.5911 H   0  0  0  0  0  0  0  0  0  0  0  0  # atno 10167 bound_to 10162
  157.4869  131.1088  150.9608 H   0  0  0  0  0  0  0  0  0  0  0  0  # atno 10718 bound_to 10713
  153.0726  135.4951  154.8337 H   0  0  0  0  0  0  0  0  0  0  0  0  # atno 10763 bound_to 10752
  154.7043  135.3007  154.9296 H   0  0  0  0  0  0  0  0  0  0  0  0  # atno 10764 bound_to 10752
  154.0009  135.6766  153.4812 H   0  0  0  0  0  0  0  0  0  0  0  0  # atno 10765 bound_to 10752
  140.8756  134.1995  157.4623 H   0  0  0  0  0  0  0  0  0  0  0  0  # atno 11005 bound_to 11000
  145.7216  141.0073  143.1399 LP  0  0  0  0  0  0  0  0  0  0  0  0  # atno 17320 bound_to 7965
  144.6984  139.8877  143.7451 LP  0  0  0  0  0  0  0  0  0  0  0  0  # atno 17321 bound_to 7965
  140.5991  143.9642  150.6374 LP  0  0  0  0  0  0  0  0  0  0  0  0  # atno 17342 bound_to 10162
  140.2848  143.3364  152.1117 LP  0  0  0  0  0  0  0  0  0  0  0  0  # atno 17343 bound_to 10162
  157.0323  130.5716  149.5345 LP  0  0  0  0  0  0  0  0  0  0  0  0  # atno 17370 bound_to 10713
  156.0152  130.5245  150.8111 LP  0  0  0  0  0  0  0  0  0  0  0  0  # atno 17371 bound_to 10713
  139.8715  134.9794  156.5036 LP  0  0  0  0  0  0  0  0  0  0  0  0  # atno 17394 bound_to 11000
  140.8521  133.8124  155.9179 LP  0  0  0  0  0  0  0  0  0  0  0  0  # atno 17395 bound_to 11000

$$$$
