AV-unprocessed.smi:3099|AV-procd|sdf|11802|dock6
  -GOLD-   2272017173D 1   1.00000     0.00000
 Structure written by MMmdl.
 33 34  0  0  0  0  0  0  0  0  2 V2000
  146.9109  141.9940  154.0559 C   0  0  0  0  0  0  0  0  0  0  0  0
  147.6952  140.7600  153.9717 N   0  0  0  0  0  0  0  0  0  0  0  0
  147.5073  139.8630  152.9956 C   0  0  0  0  0  0  0  0  0  0  0  0
  148.3741  138.8712  153.2103 N   0  3  0  0  0  0  0  0  0  0  0  0
  149.1191  139.1335  154.3268 C   0  0  0  0  0  0  0  0  0  0  0  0
  148.6920  140.3422  154.8241 C   0  0  0  0  0  0  0  0  0  0  0  0
  149.1231  141.1402  156.0170 C   0  0  0  0  0  0  0  0  0  0  0  0
  150.5490  141.7028  155.8764 C   0  0  0  0  0  0  0  0  0  0  0  0
  150.7904  142.7913  156.8162 N   0  0  0  0  0  0  0  0  0  0  0  0
  151.5307  142.6950  157.9310 C   0  0  0  0  0  0  0  0  0  0  0  0
  152.0931  141.6558  158.2779 O   0  0  0  0  0  0  0  0  0  0  0  0
  151.6508  143.9677  158.7746 C   0  0  0  0  0  0  0  0  0  0  0  0
  152.6045  143.8198  159.9487 C   0  0  0  0  0  0  0  0  0  0  0  0
  152.5004  142.6384  160.8881 C   0  0  0  0  0  0  0  0  0  0  0  0
  152.1266  144.0184  161.3694 C   0  0  0  0  0  0  0  0  0  0  0  0
  146.1673  142.0236  153.2582 H   0  0  0  0  0  0  0  0  0  0  0  0
  147.5802  142.8491  153.9585 H   0  0  0  0  0  0  0  0  0  0  0  0
  146.4056  142.0322  155.0213 H   0  0  0  0  0  0  0  0  0  0  0  0
  146.7958  139.9253  152.1914 H   0  0  0  0  0  0  0  0  0  0  0  0
  149.8820  138.4544  154.6790 H   0  0  0  0  0  0  0  0  0  0  0  0
  148.4161  141.9571  156.1654 H   0  0  0  0  0  0  0  0  0  0  0  0
  149.0582  140.5023  156.8994 H   0  0  0  0  0  0  0  0  0  0  0  0
  151.2905  140.9157  156.0248 H   0  0  0  0  0  0  0  0  0  0  0  0
  150.7005  142.0904  154.8687 H   0  0  0  0  0  0  0  0  0  0  0  0
  150.3669  143.6832  156.6038 H   0  0  0  0  0  0  0  0  0  0  0  0
  151.9916  144.7872  158.1413 H   0  0  0  0  0  0  0  0  0  0  0  0
  150.6637  144.2440  159.1492 H   0  0  0  0  0  0  0  0  0  0  0  0
  153.6154  144.1639  159.7359 H   0  0  0  0  0  0  0  0  0  0  0  0
  151.6927  141.9285  160.7221 H   0  0  0  0  0  0  0  0  0  0  0  0
  153.4291  142.2096  161.2590 H   0  0  0  0  0  0  0  0  0  0  0  0
  152.8063  144.5105  162.0621 H   0  0  0  0  0  0  0  0  0  0  0  0
  151.0699  144.2244  161.5285 H   0  0  0  0  0  0  0  0  0  0  0  0
  148.4639  138.0463  152.6303 H   0  0  0  0  0  0  0  0  0  0  0  0
  1  2  1  0  0  0  0
  1 16  1  0  0  0  0
  1 17  1  0  0  0  0
  1 18  1  0  0  0  0
  2  6  1  0  0  0  0
  2  3  1  0  0  0  0
  3  4  2  0  0  0  0
  3 19  1  0  0  0  0
  4  5  1  0  0  0  0
  4 33  1  0  0  0  0
  5  6  2  0  0  0  0
  5 20  1  0  0  0  0
  6  7  1  0  0  0  0
  7  8  1  0  0  0  0
  7 21  1  0  0  0  0
  7 22  1  0  0  0  0
  8  9  1  0  0  0  0
  8 23  1  0  0  0  0
  8 24  1  0  0  0  0
  9 10  1  0  0  0  0
  9 25  1  0  0  0  0
 10 11  2  0  0  0  0
 10 12  1  0  0  0  0
 12 13  1  0  0  0  0
 12 26  1  0  0  0  0
 12 27  1  0  0  0  0
 13 15  1  0  0  0  0
 13 14  1  0  0  0  0
 13 28  1  0  0  0  0
 14 15  1  0  0  0  0
 14 29  1  0  0  0  0
 14 30  1  0  0  0  0
 15 31  1  0  0  0  0
 15 32  1  0  0  0  0
M  CHG  1   4   1
M  END
> <s_m_source_file>
AV-unprocessed.smi

> <i_m_source_file_index>
3099

> <i_lp_mmshare_version>
43012

> <i_f3d_flags>
0

> <s_epik_input>
W0NIM11uMVtjSF1uW2NIXWMxW0NIMl1bQ0gyXVtOSF1DKD1PKVtDSDJdW0NIXTJbQ0gyXVtDSDJdMg==

> <s_epik_cmdline>
J2VwaWtfcHl0aG9uJywgJy1waCcsICc3LjAnLCAnLXRuJywgJzgnLCAnLW1hJywgJzIwMCcsICctbWV0YWxfYmluZGluZycsICctaW1hZScsICc8aW5maWxlLm1hZT4nLCAnLW9tYWUnLCAnPG91dGZpbGUubWFlPic=

> <r_lp_tautomer_probability>
1

> <r_epik_Ionization_Penalty>
0.156092

> <r_epik_Ionization_Penalty_Charging>
0

> <r_epik_Ionization_Penalty_Neutral>
0.156092

> <r_epik_State_Penalty>
0.145389

> <r_epik_Charging_Adjusted_Penalty>
0.145389

> <i_epik_Tot_Q>
1

> <i_epik_Tot_abs_Q>
1

> <r_epik_Metal_State_Penalty>
0.466304

> <b_epik_Metal_Only>
0

> <s_lp_Force_Field>
OPLS_2005

> <r_lp_Energy>
10.1208

> <b_lp_Chiralities_Consistent>
1

> <s_lp_Variant>
AV-unprocessed.smi:3099-1

> <Gold.Version>
5.8.1

> <Gold.Id.Protein>
6NUR|6NUR_protein|mol2

> <Gold.PLP.Fitness>
44.1388

> <Gold.PLP.PLP>
-35.9446

> <Gold.PLP.part.hbond>
-3.0000

> <Gold.PLP.part.metal>
0.0000

> <Gold.PLP.part.buried>
-3.3956

> <Gold.PLP.part.nonpolar>
-30.2830

> <Gold.PLP.part.repulsive>
0.1069

> <Gold.PLP.ligand.clash>
0.0000

> <Gold.PLP.ligand.torsion>
0.6603

> <Gold.PLP.Chemscore.Hbond>
2.9920

> <Gold.PLP.Chemscore.CHOScore>
0.0000

> <Gold.PLP.Chemscore.Metal>
0.0000

> <Gold.Chemscore.Hbonds>
donor molecule, donor type, donor heavy atom, donor atom, acceptor molecule, acceptor atom, score
      L1  H     4    33       P1  7948  2.00
      L1  H     9    25       P1  8028  0.99

> <Gold.PLP.Chemscore.Internal.Correction>
0.5388

> <Gold.Rescore>
     Score         DG    S(hbond)    S(metal)    S(lipo)     H(rot)  DE(clash)    DE(int)     intcor
     14.59     -16.32       1.99        0.00      79.49       1.99       0.10       1.63       ----

> <Gold.Chemscore.Fitness>
14.5912

> <Gold.Chemscore.DG>
-16.3241

> <Gold.Chemscore.ZeroCoef>
-5.4800

> <Gold.Chemscore.Hbond>
1.9879

> <Gold.Chemscore.Metal>
0.0000

> <Gold.Chemscore.Lipo>
79.4875

> <Gold.Chemscore.Internal_Hbond>
0.0000

> <Gold.Chemscore.DEClash>
0.1037

> <Gold.Chemscore.DEInternal>
1.6293

> <Gold.Chemscore.Rot>
1.9905

> <Gold.Chemscore.Internal.Correction>
   9.000000E+99

> <Gold.Chemscore.Hbonds>
donor molecule, donor type, donor heavy atom, donor atom, acceptor molecule, acceptor atom, score
      L1  H     4    33       P1  7948  0.95
      L1  H     9    25       P1  8028  0.87

> <Gold.Chemscore.Hbond.Weighted>
-6.6397

> <Gold.Chemscore.Metal.Weighted>
-0.0000

> <Gold.Chemscore.Lipo.Weighted>
-9.3000

> <Gold.Chemscore.Internal_Hbond.Weighted>
0.0000

> <Gold.Chemscore.DEClash.Weighted>
0.1037

> <Gold.Chemscore.DEInternal.Weighted>
1.6293

> <Gold.Chemscore.Rot.Weighted>
5.0957

> <Gold.Chemscore.Internal.Correction.Weighted>
   9.000000E+99

> <Gold.Protein.RotatedTorsions>
[ 6907 6896 6895 6894 ] final  132.44 input  -60.11 | X-H torsion
[ 7974 7965 7964 7962 ] final  177.70 input  175.53 | X-H torsion
[ 8008 7997 7996 7995 ] final  120.38 input   59.86 | X-H torsion
[ 10167 10162 10161 10158 ] final  -89.39 input  -65.29 | X-H torsion
[ 10718 10713 10712 10709 ] final  172.72 input   66.30 | X-H torsion
[ 10763 10752 10751 10750 ] final   -7.83 input  -60.55 | X-H torsion
[ 11005 11000 10999 10996 ] final   24.93 input  -57.11 | X-H torsion

> <Gold.Protein.ActiveResidues>
 VAL166  LYS551  ARG553  GLY616  TRP617  ASP618  TYR619  PRO620  LYS621  CYS622 
 ASP623  PHE694  ASN695  SER759  ASP760  ASP761  ALA762  ILE779  LEU786  VAL792 
 PHE793  MET794  SER795  GLU796  ALA797  LYS798  CYS799  TRP800  GLU811  SER814 

> <Gold.Protein.RotatedAtoms>
  152.3324  133.5973  159.5818 H   0  0  0  0  0  0  0  0  0  0  0  0  # atno 6907 bound_to 6896
  150.7430  133.9848  159.3597 H   0  0  0  0  0  0  0  0  0  0  0  0  # atno 6908 bound_to 6896
  151.7721  135.0784  160.0412 H   0  0  0  0  0  0  0  0  0  0  0  0  # atno 6909 bound_to 6896
  144.7165  140.0287  143.6439 H   0  0  0  0  0  0  0  0  0  0  0  0  # atno 7974 bound_to 7965
  156.2640  140.2832  156.1141 H   0  0  0  0  0  0  0  0  0  0  0  0  # atno 8008 bound_to 7997
  155.1226  140.0392  157.2771 H   0  0  0  0  0  0  0  0  0  0  0  0  # atno 8009 bound_to 7997
  154.6659  140.2577  155.7065 H   0  0  0  0  0  0  0  0  0  0  0  0  # atno 8010 bound_to 7997
  140.3653  143.2821  151.9565 H   0  0  0  0  0  0  0  0  0  0  0  0  # atno 10167 bound_to 10162
  156.9747  131.0101  151.2896 H   0  0  0  0  0  0  0  0  0  0  0  0  # atno 10718 bound_to 10713
  153.4319  135.7012  153.6225 H   0  0  0  0  0  0  0  0  0  0  0  0  # atno 10763 bound_to 10752
  153.4636  135.3730  155.2352 H   0  0  0  0  0  0  0  0  0  0  0  0  # atno 10764 bound_to 10752
  154.8725  135.4026  154.3704 H   0  0  0  0  0  0  0  0  0  0  0  0  # atno 10765 bound_to 10752
  140.3533  134.2204  155.7678 H   0  0  0  0  0  0  0  0  0  0  0  0  # atno 11005 bound_to 11000
  146.0121  139.3178  143.0864 LP  0  0  0  0  0  0  0  0  0  0  0  0  # atno 17320 bound_to 7965
  145.8670  140.9442  143.0670 LP  0  0  0  0  0  0  0  0  0  0  0  0  # atno 17321 bound_to 7965
  139.4809  144.5956  151.7696 LP  0  0  0  0  0  0  0  0  0  0  0  0  # atno 17342 bound_to 10162
  140.5087  144.1059  150.5989 LP  0  0  0  0  0  0  0  0  0  0  0  0  # atno 17343 bound_to 10162
  157.5568  130.8219  149.8214 LP  0  0  0  0  0  0  0  0  0  0  0  0  # atno 17370 bound_to 10713
  156.0268  130.3777  150.1800 LP  0  0  0  0  0  0  0  0  0  0  0  0  # atno 17371 bound_to 10713
  141.2005  133.7984  157.0483 LP  0  0  0  0  0  0  0  0  0  0  0  0  # atno 17394 bound_to 11000
  140.0685  134.9715  157.1427 LP  0  0  0  0  0  0  0  0  0  0  0  0  # atno 17395 bound_to 11000

$$$$
