AV-unprocessed.smi:2409|AV-procd|sdf|9523|dock6
  -GOLD-   2272013153D 1   1.00000     0.00000
 Structure written by MMmdl.
 35 36  0  0  0  0  0  0  0  0  1 V2000
  152.6694  139.4873  158.6380 C   0  0  0  0  0  0  0  0  0  0  0  0
  151.5364  140.3001  158.8919 O   0  0  0  0  0  0  0  0  0  0  0  0
  151.8218  141.6182  158.9530 C   0  0  0  0  0  0  0  0  0  0  0  0
  151.3941  142.6833  158.2098 C   0  0  0  0  0  0  0  0  0  0  0  0
  150.4898  142.7295  157.1188 N   0  0  0  0  0  0  0  0  0  0  0  0
  150.1911  141.7373  156.2600 C   0  0  0  0  0  0  0  0  0  0  0  0
  150.6652  140.6049  156.3170 O   0  0  0  0  0  0  0  0  0  0  0  0
  149.3057  142.0745  155.3054 N   0  0  0  0  0  0  0  0  0  0  0  0
  148.7866  141.2532  154.2512 C   0  0  1  0  0  0  0  0  0  0  0  0
  147.7113  140.2548  154.6216 C   0  0  0  0  0  0  0  0  0  0  0  0
  147.3544  141.4610  153.7937 C   0  0  1  0  0  0  0  0  0  0  0  0
  146.4770  142.5578  154.3646 C   0  0  0  0  0  0  0  0  0  0  0  0
  152.0091  143.8192  158.8048 C   0  0  0  0  0  0  0  0  0  0  0  0
  151.8829  145.2695  158.4367 C   0  0  0  0  0  0  0  0  0  0  0  0
  152.7982  143.4643  159.8129 N   0  0  0  0  0  0  0  0  0  0  0  0
  152.6920  142.1157  159.9002 N   0  0  0  0  0  0  0  0  0  0  0  0
  153.4274  141.4024  160.9241 C   0  0  0  0  0  0  0  0  0  0  0  0
  152.3656  138.4415  158.5924 H   0  0  0  0  0  0  0  0  0  0  0  0
  153.4194  139.5846  159.4237 H   0  0  0  0  0  0  0  0  0  0  0  0
  153.1297  139.7465  157.6835 H   0  0  0  0  0  0  0  0  0  0  0  0
  150.0977  143.6359  156.9103 H   0  0  0  0  0  0  0  0  0  0  0  0
  148.9323  143.0116  155.3526 H   0  0  0  0  0  0  0  0  0  0  0  0
  149.4882  140.9025  153.4956 H   0  0  0  0  0  0  0  0  0  0  0  0
  147.7276  139.2900  154.1185 H   0  0  0  0  0  0  0  0  0  0  0  0
  147.3735  140.2316  155.6561 H   0  0  0  0  0  0  0  0  0  0  0  0
  147.1755  141.2783  152.7358 H   0  0  0  0  0  0  0  0  0  0  0  0
  146.6145  142.6525  155.4421 H   0  0  0  0  0  0  0  0  0  0  0  0
  145.4280  142.3333  154.1711 H   0  0  0  0  0  0  0  0  0  0  0  0
  146.7206  143.5119  153.8970 H   0  0  0  0  0  0  0  0  0  0  0  0
  151.3638  145.3958  157.4866 H   0  0  0  0  0  0  0  0  0  0  0  0
  152.8626  145.7382  158.3409 H   0  0  0  0  0  0  0  0  0  0  0  0
  151.3234  145.8170  159.1951 H   0  0  0  0  0  0  0  0  0  0  0  0
  153.6771  140.4010  160.5729 H   0  0  0  0  0  0  0  0  0  0  0  0
  152.8160  141.3221  161.8231 H   0  0  0  0  0  0  0  0  0  0  0  0
  154.3510  141.9305  161.1644 H   0  0  0  0  0  0  0  0  0  0  0  0
  1  2  1  0  0  0  0
  1 18  1  0  0  0  0
  1 19  1  0  0  0  0
  1 20  1  0  0  0  0
  2  3  1  0  0  0  0
  3 16  1  0  0  0  0
  3  4  2  0  0  0  0
  4  5  1  0  0  0  0
  4 13  1  0  0  0  0
  5  6  1  0  0  0  0
  5 21  1  0  0  0  0
  6  7  2  0  0  0  0
  6  8  1  0  0  0  0
  8  9  1  0  0  0  0
  8 22  1  0  0  0  0
  9 11  1  0  0  0  0
  9 10  1  0  0  0  0
  9 23  1  0  0  0  0
 10 11  1  0  0  0  0
 10 24  1  0  0  0  0
 10 25  1  0  0  0  0
 11 12  1  0  0  0  0
 11 26  1  0  0  0  0
 12 27  1  0  0  0  0
 12 28  1  0  0  0  0
 12 29  1  0  0  0  0
 13 14  1  0  0  0  0
 13 15  2  0  0  0  0
 14 30  1  0  0  0  0
 14 31  1  0  0  0  0
 14 32  1  0  0  0  0
 15 16  1  0  0  0  0
 16 17  1  0  0  0  0
 17 33  1  0  0  0  0
 17 34  1  0  0  0  0
 17 35  1  0  0  0  0
M  END
> <s_m_source_file>
AV-unprocessed.smi

> <i_m_source_file_index>
2409

> <i_lp_mmshare_version>
43012

> <i_f3d_flags>
0

> <s_epik_input>
W0NIM11uMW5jKFtDSDNdKWMoYzFPW0NIM10pW05IXUMoPU8pW05IXVtDQEBIXTJbQ0gyXVtDQEhdMltDSDNd

> <s_epik_cmdline>
J2VwaWtfcHl0aG9uJywgJy1waCcsICc3LjAnLCAnLXRuJywgJzgnLCAnLW1hJywgJzIwMCcsICctbWV0YWxfYmluZGluZycsICctaW1hZScsICc8aW5maWxlLm1hZT4nLCAnLW9tYWUnLCAnPG91dGZpbGUubWFlPic=

> <r_lp_tautomer_probability>
1

> <r_epik_Ionization_Penalty>
0.000417804

> <r_epik_Ionization_Penalty_Charging>
0

> <r_epik_Ionization_Penalty_Neutral>
0.000417804

> <r_epik_State_Penalty>
-0

> <r_epik_Charging_Adjusted_Penalty>
0

> <i_epik_Tot_Q>
0

> <i_epik_Tot_abs_Q>
0

> <r_epik_Metal_State_Penalty>
-0

> <b_epik_Metal_Only>
0

> <s_lp_Force_Field>
OPLS_2005

> <r_lp_Energy>
35.5407

> <b_lp_Chiralities_Consistent>
1

> <s_lp_Variant>
AV-unprocessed.smi:2409-2

> <Gold.Version>
5.8.1

> <Gold.Id.Protein>
6NUR|6NUR_protein|mol2

> <Gold.PLP.Fitness>
43.0083

> <Gold.PLP.PLP>
-37.9503

> <Gold.PLP.part.hbond>
-2.0000

> <Gold.PLP.part.metal>
0.0000

> <Gold.PLP.part.buried>
-6.6671

> <Gold.PLP.part.nonpolar>
-30.2296

> <Gold.PLP.part.repulsive>
0.2336

> <Gold.PLP.ligand.clash>
0.0000

> <Gold.PLP.ligand.torsion>
0.4176

> <Gold.PLP.Chemscore.Hbond>
1.9516

> <Gold.PLP.Chemscore.CHOScore>
0.0000

> <Gold.PLP.Chemscore.Metal>
0.0000

> <Gold.Chemscore.Hbonds>
donor molecule, donor type, donor heavy atom, donor atom, acceptor molecule, acceptor atom, score
      L1  H     5    21       P1  8028  0.92
      L1  H     8    22       P1  8028  1.00

> <Gold.PLP.Chemscore.Internal.Correction>
0.0383

> <Gold.Rescore>
     Score         DG    S(hbond)    S(metal)    S(lipo)     H(rot)  DE(clash)    DE(int)     intcor
     14.80     -17.73       1.91        0.00      77.01       1.23       0.05       2.88       ----

> <Gold.Chemscore.Fitness>
14.8002

> <Gold.Chemscore.DG>
-17.7260

> <Gold.Chemscore.ZeroCoef>
-5.4800

> <Gold.Chemscore.Hbond>
1.9110

> <Gold.Chemscore.Metal>
0.0000

> <Gold.Chemscore.Lipo>
77.0076

> <Gold.Chemscore.Internal_Hbond>
0.0000

> <Gold.Chemscore.DEClash>
0.0457

> <Gold.Chemscore.DEInternal>
2.8801

> <Gold.Chemscore.Rot>
1.2292

> <Gold.Chemscore.Internal.Correction>
   9.000000E+99

> <Gold.Chemscore.Hbonds>
donor molecule, donor type, donor heavy atom, donor atom, acceptor molecule, acceptor atom, score
      L1  H     5    21       P1  8028  0.84
      L1  H     8    22       P1  8028  1.00

> <Gold.Chemscore.Hbond.Weighted>
-6.3828

> <Gold.Chemscore.Metal.Weighted>
-0.0000

> <Gold.Chemscore.Lipo.Weighted>
-9.0099

> <Gold.Chemscore.Internal_Hbond.Weighted>
0.0000

> <Gold.Chemscore.DEClash.Weighted>
0.0457

> <Gold.Chemscore.DEInternal.Weighted>
2.8801

> <Gold.Chemscore.Rot.Weighted>
3.1467

> <Gold.Chemscore.Internal.Correction.Weighted>
   9.000000E+99

> <Gold.Protein.RotatedTorsions>
[ 6907 6896 6895 6894 ] final  133.52 input  -60.11 | X-H torsion
[ 7974 7965 7964 7962 ] final  -84.83 input  175.53 | X-H torsion
[ 8008 7997 7996 7995 ] final    7.54 input   59.86 | X-H torsion
[ 10167 10162 10161 10158 ] final  -71.41 input  -65.29 | X-H torsion
[ 10718 10713 10712 10709 ] final  -95.84 input   66.30 | X-H torsion
[ 10763 10752 10751 10750 ] final  141.07 input  -60.55 | X-H torsion
[ 11005 11000 10999 10996 ] final   -0.87 input  -57.11 | X-H torsion

> <Gold.Protein.ActiveResidues>
 VAL166  LYS551  ARG553  GLY616  TRP617  ASP618  TYR619  PRO620  LYS621  CYS622 
 ASP623  PHE694  ASN695  SER759  ASP760  ASP761  ALA762  ILE779  LEU786  VAL792 
 PHE793  MET794  SER795  GLU796  ALA797  LYS798  CYS799  TRP800  GLU811  SER814 

> <Gold.Protein.RotatedAtoms>
  152.3210  133.5854  159.5744 H   0  0  0  0  0  0  0  0  0  0  0  0  # atno 6907 bound_to 6896
  150.7371  134.0011  159.3647 H   0  0  0  0  0  0  0  0  0  0  0  0  # atno 6908 bound_to 6896
  151.7895  135.0740  160.0436 H   0  0  0  0  0  0  0  0  0  0  0  0  # atno 6909 bound_to 6896
  145.5013  140.9547  143.1758 H   0  0  0  0  0  0  0  0  0  0  0  0  # atno 7974 bound_to 7965
  154.7552  140.2774  155.6259 H   0  0  0  0  0  0  0  0  0  0  0  0  # atno 8008 bound_to 7997
  156.2904  140.2670  156.2243 H   0  0  0  0  0  0  0  0  0  0  0  0  # atno 8009 bound_to 7997
  155.0086  140.0372  157.2380 H   0  0  0  0  0  0  0  0  0  0  0  0  # atno 8010 bound_to 7997
  140.5275  143.2325  151.7321 H   0  0  0  0  0  0  0  0  0  0  0  0  # atno 10167 bound_to 10162
  156.0050  130.5126  150.6136 H   0  0  0  0  0  0  0  0  0  0  0  0  # atno 10718 bound_to 10713
  153.9331  135.2988  155.3445 H   0  0  0  0  0  0  0  0  0  0  0  0  # atno 10763 bound_to 10752
  154.7516  135.4977  153.9302 H   0  0  0  0  0  0  0  0  0  0  0  0  # atno 10764 bound_to 10752
  153.1081  135.6752  153.9655 H   0  0  0  0  0  0  0  0  0  0  0  0  # atno 10765 bound_to 10752
  140.6411  133.9489  155.8326 H   0  0  0  0  0  0  0  0  0  0  0  0  # atno 11005 bound_to 11000
  144.7778  139.6591  143.7167 LP  0  0  0  0  0  0  0  0  0  0  0  0  # atno 17320 bound_to 7965
  146.2224  139.5660  142.9609 LP  0  0  0  0  0  0  0  0  0  0  0  0  # atno 17321 bound_to 7965
  139.4943  144.4163  152.0026 LP  0  0  0  0  0  0  0  0  0  0  0  0  # atno 17342 bound_to 10162
  140.3264  144.3368  150.5997 LP  0  0  0  0  0  0  0  0  0  0  0  0  # atno 17343 bound_to 10162
  157.3964  131.0803  151.1348 LP  0  0  0  0  0  0  0  0  0  0  0  0  # atno 17370 bound_to 10713
  157.2023  130.6400  149.5743 LP  0  0  0  0  0  0  0  0  0  0  0  0  # atno 17371 bound_to 10713
  141.0606  134.0352  157.3663 LP  0  0  0  0  0  0  0  0  0  0  0  0  # atno 17394 bound_to 11000
  139.9080  135.0184  156.7569 LP  0  0  0  0  0  0  0  0  0  0  0  0  # atno 17395 bound_to 11000

$$$$
