AV-unprocessed.smi:290|AV-procd|sdf|2236|dock4
  -GOLD-   2262022103D 1   1.00000     0.00000
 Structure written by MMmdl.
 59 62  0  0  0  0  0  0  0  0  2 V2000
  149.6506  138.0733  154.9295 C   0  0  0  0  0  0  0  0  0  0  0  0
  149.2989  139.1644  155.9524 C   0  0  1  0  0  0  0  0  0  0  0  0
  150.4141  139.4694  156.7881 O   0  0  0  0  0  0  0  0  0  0  0  0
  150.5536  140.8774  156.9389 C   0  0  0  0  0  0  0  0  0  0  0  0
  149.2229  141.4677  156.4838 C   0  0  0  0  0  0  0  0  0  0  0  0
  148.7946  140.5090  155.3813 C   0  0  1  0  0  0  0  0  0  0  0  0
  149.5026  140.8390  154.1977 O   0  0  0  0  0  0  0  0  0  0  0  0
  147.2898  140.5617  155.0085 C   0  0  0  0  0  0  0  0  0  0  0  0
  146.8393  139.5039  154.1171 N   0  0  0  0  0  0  0  0  0  0  0  0
  147.2071  139.3175  152.8033 C   0  0  0  0  0  0  0  0  0  0  0  0
  146.6648  138.2874  152.2134 N   0  0  0  0  0  0  0  0  0  0  0  0
  145.8738  137.7108  153.1996 C   0  0  0  0  0  0  0  0  0  0  0  0
  145.0151  136.5769  153.2516 C   0  0  0  0  0  0  0  0  0  0  0  0
  144.7764  135.7398  152.2193 N   0  0  0  0  0  0  0  0  0  0  0  0
  145.8323  135.6444  151.2162 C   0  0  0  0  0  0  0  0  0  0  0  0
  145.8946  134.1732  150.8019 C   0  0  0  0  0  0  0  0  0  0  0  0
  145.4195  133.4485  152.0655 C   0  0  2  0  0  0  0  0  0  0  0  0
  144.9996  132.0273  151.8824 N   0  3  1  0  0  0  0  0  0  0  0  0
  144.2865  131.8005  150.5993 C   0  0  0  0  0  0  0  0  0  0  0  0
  146.1311  131.0766  152.0678 C   0  0  0  0  0  0  0  0  0  0  0  0
  145.7479  129.6108  151.7896 C   0  0  0  0  0  0  0  0  0  0  0  0
  146.9067  128.8239  151.6155 O   0  0  0  0  0  0  0  0  0  0  0  0
  144.3146  134.4013  152.5779 C   0  0  2  0  0  0  0  0  0  0  0  0
  142.9250  134.1612  151.9583 C   0  0  0  0  0  0  0  0  0  0  0  0
  144.3945  136.3002  154.4236 N   0  0  0  0  0  0  0  0  0  0  0  0
  144.5937  137.0862  155.4862 C   0  0  0  0  0  0  0  0  0  0  0  0
  145.3580  138.1760  155.5869 N   0  0  0  0  0  0  0  0  0  0  0  0
  145.9832  138.4556  154.4071 C   0  0  0  0  0  0  0  0  0  0  0  0
  146.2473  133.4558  152.7760 H   0  0  0  0  0  0  0  0  0  0  0  0
  144.2249  134.3088  153.6617 H   0  0  0  0  0  0  0  0  0  0  0  0
  148.7969  137.8454  154.2911 H   0  0  0  0  0  0  0  0  0  0  0  0
  149.9419  137.1519  155.4339 H   0  0  0  0  0  0  0  0  0  0  0  0
  150.4813  138.3721  154.2899 H   0  0  0  0  0  0  0  0  0  0  0  0
  148.5527  138.7612  156.6350 H   0  0  0  0  0  0  0  0  0  0  0  0
  150.8015  141.1457  157.9660 H   0  0  0  0  0  0  0  0  0  0  0  0
  151.3643  141.2201  156.2949 H   0  0  0  0  0  0  0  0  0  0  0  0
  148.5278  141.4347  157.3220 H   0  0  0  0  0  0  0  0  0  0  0  0
  149.3035  142.5052  156.1574 H   0  0  0  0  0  0  0  0  0  0  0  0
  149.3453  140.1651  153.5545 H   0  0  0  0  0  0  0  0  0  0  0  0
  146.6816  140.5178  155.9131 H   0  0  0  0  0  0  0  0  0  0  0  0
  147.0587  141.5180  154.5369 H   0  0  0  0  0  0  0  0  0  0  0  0
  147.8900  139.9794  152.2908 H   0  0  0  0  0  0  0  0  0  0  0  0
  145.6112  136.2864  150.3632 H   0  0  0  0  0  0  0  0  0  0  0  0
  146.7925  135.9616  151.6256 H   0  0  0  0  0  0  0  0  0  0  0  0
  145.2078  133.9917  149.9740 H   0  0  0  0  0  0  0  0  0  0  0  0
  146.8959  133.8799  150.4848 H   0  0  0  0  0  0  0  0  0  0  0  0
  144.9170  132.0704  149.7511 H   0  0  0  0  0  0  0  0  0  0  0  0
  143.3698  132.3871  150.5442 H   0  0  0  0  0  0  0  0  0  0  0  0
  143.9867  130.7613  150.4777 H   0  0  0  0  0  0  0  0  0  0  0  0
  146.9591  131.3755  151.4233 H   0  0  0  0  0  0  0  0  0  0  0  0
  146.5125  131.1325  153.0871 H   0  0  0  0  0  0  0  0  0  0  0  0
  145.1276  129.1825  152.5755 H   0  0  0  0  0  0  0  0  0  0  0  0
  145.1624  129.5558  150.8715 H   0  0  0  0  0  0  0  0  0  0  0  0
  147.5751  129.3554  151.2093 H   0  0  0  0  0  0  0  0  0  0  0  0
  142.5182  133.1927  152.2437 H   0  0  0  0  0  0  0  0  0  0  0  0
  142.9524  134.2056  150.8694 H   0  0  0  0  0  0  0  0  0  0  0  0
  142.2165  134.9171  152.2991 H   0  0  0  0  0  0  0  0  0  0  0  0
  144.0642  136.8028  156.3839 H   0  0  0  0  0  0  0  0  0  0  0  0
  144.3389  131.8322  152.6214 H   0  0  0  0  0  0  0  0  0  0  0  0
  1  2  1  0  0  0  0
  1 31  1  0  0  0  0
  1 32  1  0  0  0  0
  1 33  1  0  0  0  0
  2  6  1  0  0  0  0
  2  3  1  0  0  0  0
  2 34  1  0  0  0  0
  3  4  1  0  0  0  0
  4  5  1  0  0  0  0
  4 35  1  0  0  0  0
  4 36  1  0  0  0  0
  5  6  1  0  0  0  0
  5 37  1  0  0  0  0
  5 38  1  0  0  0  0
  6  7  1  0  0  0  0
  6  8  1  0  0  0  0
  7 39  1  0  0  0  0
  8  9  1  0  0  0  0
  8 40  1  0  0  0  0
  8 41  1  0  0  0  0
  9 28  1  0  0  0  0
  9 10  1  0  0  0  0
 10 11  2  0  0  0  0
 10 42  1  0  0  0  0
 11 12  1  0  0  0  0
 12 28  2  0  0  0  0
 12 13  1  0  0  0  0
 13 14  1  0  0  0  0
 13 25  2  0  0  0  0
 14 23  1  0  0  0  0
 14 15  1  0  0  0  0
 15 16  1  0  0  0  0
 15 43  1  0  0  0  0
 15 44  1  0  0  0  0
 16 17  1  0  0  0  0
 16 45  1  0  0  0  0
 16 46  1  0  0  0  0
 17 29  1  0  0  0  0
 17 18  1  0  0  0  0
 17 23  1  0  0  0  0
 18 19  1  0  0  0  0
 18 20  1  0  0  0  0
 18 59  1  0  0  0  0
 19 47  1  0  0  0  0
 19 48  1  0  0  0  0
 19 49  1  0  0  0  0
 20 21  1  0  0  0  0
 20 50  1  0  0  0  0
 20 51  1  0  0  0  0
 21 22  1  0  0  0  0
 21 52  1  0  0  0  0
 21 53  1  0  0  0  0
 22 54  1  0  0  0  0
 23 30  1  0  0  0  0
 23 24  1  0  0  0  0
 24 55  1  0  0  0  0
 24 56  1  0  0  0  0
 24 57  1  0  0  0  0
 25 26  1  0  0  0  0
 26 27  2  0  0  0  0
 26 58  1  0  0  0  0
 27 28  1  0  0  0  0
M  CHG  1  18   1
M  END
> <s_m_source_file>
AV-unprocessed.smi

> <i_m_source_file_index>
290

> <i_lp_mmshare_version>
43012

> <i_f3d_flags>
0

> <s_epik_input>
W0NIMl0xW0NIMl1PW0NAQEhdKFtDSDNdKVtDQEBdMShbT0hdKVtDSDJdbihbY0hdbjIpYyhjMjMpbltjSF1uYzNONFtDSDJdW0NIMl1bQ0BIXShbQ0BIXTRbQ0gzXSlOKFtDSDNdKVtDSDJdW0NIMl1bT0hd

> <s_epik_cmdline>
J2VwaWtfcHl0aG9uJywgJy1waCcsICc3LjAnLCAnLXRuJywgJzgnLCAnLW1hJywgJzIwMCcsICctbWV0YWxfYmluZGluZycsICctaW1hZScsICc8aW5maWxlLm1hZT4nLCAnLW9tYWUnLCAnPG91dGZpbGUubWFlPic=

> <r_lp_tautomer_probability>
1

> <r_epik_Ionization_Penalty>
0.0036983

> <r_epik_Ionization_Penalty_Charging>
0.0032725

> <r_epik_Ionization_Penalty_Neutral>
0.000425798

> <r_epik_State_Penalty>
-0

> <r_epik_Charging_Adjusted_Penalty>
0.0032725

> <i_epik_Tot_Q>
1

> <i_epik_Tot_abs_Q>
1

> <r_epik_Metal_State_Penalty>
-0

> <b_epik_Metal_Only>
0

> <s_lp_Force_Field>
OPLS_2005

> <r_lp_Energy>
67.6637

> <b_lp_Chiralities_Consistent>
1

> <s_lp_Variant>
AV-unprocessed.smi:290-22

> <Gold.Version>
5.8.1

> <Gold.Id.Protein>
6NUR|6NUR_protein|mol2

> <Gold.PLP.Fitness>
51.0443

> <Gold.PLP.PLP>
-42.1352

> <Gold.PLP.part.hbond>
-3.7815

> <Gold.PLP.part.metal>
0.0000

> <Gold.PLP.part.buried>
-2.7072

> <Gold.PLP.part.nonpolar>
-35.1027

> <Gold.PLP.part.repulsive>
0.5344

> <Gold.PLP.ligand.clash>
0.0000

> <Gold.PLP.ligand.torsion>
1.4858

> <Gold.PLP.Chemscore.Hbond>
2.8790

> <Gold.PLP.Chemscore.CHOScore>
0.9888

> <Gold.PLP.Chemscore.Metal>
0.0000

> <Gold.Chemscore.Hbonds>
donor molecule, donor type, donor heavy atom, donor atom, acceptor molecule, acceptor atom, score
      L1  H     7    39       P1  7957  0.03
      L1  H    22    54       P1 10747  0.52
      P1  H  7989  7998       L1     7  0.10
      L1  C    10    42       P1  7957  1.00

> <Gold.PLP.Chemscore.Internal.Correction>
0.2775

> <Gold.Rescore>
     Score         DG    S(hbond)    S(metal)    S(lipo)     H(rot)  DE(clash)    DE(int)     intcor
     10.03     -15.77       2.42        0.00      99.20       3.67       2.54       3.20       ----

> <Gold.Chemscore.Fitness>
10.0334

> <Gold.Chemscore.DG>
-15.7740

> <Gold.Chemscore.ZeroCoef>
-5.4800

> <Gold.Chemscore.Hbond>
2.4167

> <Gold.Chemscore.Metal>
0.0000

> <Gold.Chemscore.Lipo>
99.2025

> <Gold.Chemscore.Internal_Hbond>
0.0000

> <Gold.Chemscore.DEClash>
2.5382

> <Gold.Chemscore.DEInternal>
3.2024

> <Gold.Chemscore.Rot>
3.6658

> <Gold.Chemscore.Internal.Correction>
   9.000000E+99

> <Gold.Chemscore.Hbonds>
donor molecule, donor type, donor heavy atom, donor atom, acceptor molecule, acceptor atom, score
      L1  H     7    39       P1  7957  0.07
      L1  H    22    54       P1 10747  0.47

> <Gold.Chemscore.Hbond.Weighted>
-8.0717

> <Gold.Chemscore.Metal.Weighted>
-0.0000

> <Gold.Chemscore.Lipo.Weighted>
-11.6067

> <Gold.Chemscore.Internal_Hbond.Weighted>
0.0000

> <Gold.Chemscore.DEClash.Weighted>
2.5382

> <Gold.Chemscore.DEInternal.Weighted>
3.2024

> <Gold.Chemscore.Rot.Weighted>
9.3844

> <Gold.Chemscore.Internal.Correction.Weighted>
   9.000000E+99

> <Gold.Protein.RotatedTorsions>
[ 6907 6896 6895 6894 ] final  -82.38 input  -60.11 | X-H torsion
[ 7974 7965 7964 7962 ] final  -93.26 input  175.53 | X-H torsion
[ 8008 7997 7996 7995 ] final -175.84 input   59.86 | X-H torsion
[ 10167 10162 10161 10158 ] final   69.45 input  -65.29 | X-H torsion
[ 10718 10713 10712 10709 ] final   59.40 input   66.30 | X-H torsion
[ 10763 10752 10751 10750 ] final  123.34 input  -60.55 | X-H torsion
[ 11005 11000 10999 10996 ] final -137.76 input  -57.11 | X-H torsion

> <Gold.Protein.ActiveResidues>
 VAL166  LYS551  ARG553  GLY616  TRP617  ASP618  TYR619  PRO620  LYS621  CYS622 
 ASP623  PHE694  ASN695  SER759  ASP760  ASP761  ALA762  ILE779  LEU786  VAL792 
 PHE793  MET794  SER795  GLU796  ALA797  LYS798  CYS799  TRP800  GLU811  SER814 

> <Gold.Protein.RotatedAtoms>
  150.6898  134.3674  159.4976 H   0  0  0  0  0  0  0  0  0  0  0  0  # atno 6907 bound_to 6896
  152.1495  134.8997  160.0558 H   0  0  0  0  0  0  0  0  0  0  0  0  # atno 6908 bound_to 6896
  152.0100  133.3823  159.4253 H   0  0  0  0  0  0  0  0  0  0  0  0  # atno 6909 bound_to 6896
  145.3889  140.9526  143.2351 H   0  0  0  0  0  0  0  0  0  0  0  0  # atno 7974 bound_to 7965
  155.9875  140.1194  157.0669 H   0  0  0  0  0  0  0  0  0  0  0  0  # atno 8008 bound_to 7997
  154.4201  140.1132  156.5588 H   0  0  0  0  0  0  0  0  0  0  0  0  # atno 8009 bound_to 7997
  155.6387  140.3473  155.4710 H   0  0  0  0  0  0  0  0  0  0  0  0  # atno 8010 bound_to 7997
  140.0676  144.5180  150.7250 H   0  0  0  0  0  0  0  0  0  0  0  0  # atno 10167 bound_to 10162
  157.5673  130.8880  149.9208 H   0  0  0  0  0  0  0  0  0  0  0  0  # atno 10718 bound_to 10713
  153.6440  135.3374  155.3080 H   0  0  0  0  0  0  0  0  0  0  0  0  # atno 10763 bound_to 10752
  154.8553  135.4325  154.1974 H   0  0  0  0  0  0  0  0  0  0  0  0  # atno 10764 bound_to 10752
  153.2900  135.7016  153.7376 H   0  0  0  0  0  0  0  0  0  0  0  0  # atno 10765 bound_to 10752
  140.8680  134.2086  157.4668 H   0  0  0  0  0  0  0  0  0  0  0  0  # atno 11005 bound_to 11000
  144.8454  139.5405  143.6881 LP  0  0  0  0  0  0  0  0  0  0  0  0  # atno 17320 bound_to 7965
  146.2807  139.6869  142.9231 LP  0  0  0  0  0  0  0  0  0  0  0  0  # atno 17321 bound_to 7965
  140.7141  143.2529  151.4489 LP  0  0  0  0  0  0  0  0  0  0  0  0  # atno 17342 bound_to 10162
  139.5855  144.1614  152.2023 LP  0  0  0  0  0  0  0  0  0  0  0  0  # atno 17343 bound_to 10162
  156.0720  130.3684  150.0756 LP  0  0  0  0  0  0  0  0  0  0  0  0  # atno 17370 bound_to 10713
  156.8913  130.9589  151.3588 LP  0  0  0  0  0  0  0  0  0  0  0  0  # atno 17371 bound_to 10713
  139.8710  134.9761  156.4907 LP  0  0  0  0  0  0  0  0  0  0  0  0  # atno 17394 bound_to 11000
  140.8606  133.8062  155.9261 LP  0  0  0  0  0  0  0  0  0  0  0  0  # atno 17395 bound_to 11000

$$$$
