AV-unprocessed.smi:3238|AV-procd|sdf|12377|dock6
  -GOLD-   2272018233D 1   1.00000     0.00000
 Structure written by MMmdl.
 37 39  0  0  0  0  0  0  0  0  1 V2000
  149.6796  134.8038  154.8375 C   0  0  0  0  0  0  0  0  0  0  0  0
  150.1931  136.0993  154.4190 N   0  0  0  0  0  0  0  0  0  0  0  0
  151.2018  136.7431  155.0243 C   0  0  0  0  0  0  0  0  0  0  0  0
  151.7916  136.2898  156.0067 O   0  0  0  0  0  0  0  0  0  0  0  0
  151.6000  138.0915  154.4104 C   0  0  0  0  0  0  0  0  0  0  0  0
  151.4204  139.2307  155.3659 C   0  0  0  0  0  0  0  0  0  0  0  0
  150.7814  140.3384  155.0068 N   0  0  0  0  0  0  0  0  0  0  0  0
  150.8172  141.1239  156.1674 O   0  0  0  0  0  0  0  0  0  0  0  0
  151.4844  140.3905  157.0905 C   0  0  0  0  0  0  0  0  0  0  0  0
  151.6473  140.9372  158.4707 C   0  0  0  0  0  0  0  0  0  0  0  0
  152.2051  142.3741  158.4852 C   0  0  2  0  0  0  0  0  0  0  0  0
  152.3765  142.9693  159.9029 C   0  0  0  0  0  0  0  0  0  0  0  0
  151.5736  144.2806  159.8302 C   0  0  1  0  0  0  0  0  0  0  0  0
  152.2998  145.2803  158.9112 C   0  0  0  0  0  0  0  0  0  0  0  0
  152.0624  144.6859  157.5099 C   0  0  0  0  0  0  0  0  0  0  0  0
  151.2650  143.4033  157.8161 C   0  0  2  0  0  0  0  0  0  0  0  0
  150.3847  143.8655  158.9733 C   0  0  0  0  0  0  0  0  0  0  0  0
  151.8677  139.1940  156.6522 N   0  0  0  0  0  0  0  0  0  0  0  0
  148.8803  134.4870  154.1677 H   0  0  0  0  0  0  0  0  0  0  0  0
  149.2773  134.8538  155.8501 H   0  0  0  0  0  0  0  0  0  0  0  0
  150.4652  134.0474  154.8120 H   0  0  0  0  0  0  0  0  0  0  0  0
  149.7579  136.5318  153.6169 H   0  0  0  0  0  0  0  0  0  0  0  0
  152.6417  138.0411  154.0909 H   0  0  0  0  0  0  0  0  0  0  0  0
  151.0032  138.2797  153.5168 H   0  0  0  0  0  0  0  0  0  0  0  0
  150.6714  140.9179  158.9567 H   0  0  0  0  0  0  0  0  0  0  0  0
  152.2878  140.2653  159.0426 H   0  0  0  0  0  0  0  0  0  0  0  0
  153.1623  142.3682  157.9613 H   0  0  0  0  0  0  0  0  0  0  0  0
  151.9518  142.3153  160.6654 H   0  0  0  0  0  0  0  0  0  0  0  0
  153.4234  143.1361  160.1584 H   0  0  0  0  0  0  0  0  0  0  0  0
  151.3172  144.6904  160.8075 H   0  0  0  0  0  0  0  0  0  0  0  0
  151.8564  146.2741  158.9869 H   0  0  0  0  0  0  0  0  0  0  0  0
  153.3599  145.3666  159.1532 H   0  0  0  0  0  0  0  0  0  0  0  0
  151.4723  145.3708  156.8992 H   0  0  0  0  0  0  0  0  0  0  0  0
  152.9928  144.4847  156.9775 H   0  0  0  0  0  0  0  0  0  0  0  0
  150.7249  143.0161  156.9514 H   0  0  0  0  0  0  0  0  0  0  0  0
  149.7884  143.0668  159.4171 H   0  0  0  0  0  0  0  0  0  0  0  0
  149.7280  144.6974  158.7123 H   0  0  0  0  0  0  0  0  0  0  0  0
  1  2  1  0  0  0  0
  1 19  1  0  0  0  0
  1 20  1  0  0  0  0
  1 21  1  0  0  0  0
  2  3  1  0  0  0  0
  2 22  1  0  0  0  0
  3  4  2  0  0  0  0
  3  5  1  0  0  0  0
  5  6  1  0  0  0  0
  5 23  1  0  0  0  0
  5 24  1  0  0  0  0
  6 18  1  0  0  0  0
  6  7  2  0  0  0  0
  7  8  1  0  0  0  0
  8  9  1  0  0  0  0
  9 10  1  0  0  0  0
  9 18  2  0  0  0  0
 10 11  1  0  0  0  0
 10 25  1  0  0  0  0
 10 26  1  0  0  0  0
 11 16  1  0  0  0  0
 11 12  1  0  0  0  0
 11 27  1  0  0  0  0
 12 13  1  0  0  0  0
 12 28  1  0  0  0  0
 12 29  1  0  0  0  0
 13 17  1  0  0  0  0
 13 14  1  0  0  0  0
 13 30  1  0  0  0  0
 14 15  1  0  0  0  0
 14 31  1  0  0  0  0
 14 32  1  0  0  0  0
 15 16  1  0  0  0  0
 15 33  1  0  0  0  0
 15 34  1  0  0  0  0
 16 17  1  0  0  0  0
 16 35  1  0  0  0  0
 17 36  1  0  0  0  0
 17 37  1  0  0  0  0
M  END
> <s_m_source_file>
AV-unprocessed.smi

> <i_m_source_file_index>
3238

> <i_lp_mmshare_version>
43012

> <i_f3d_flags>
0

> <s_epik_input>
W0NIM11bTkhdQyg9TylbQ0gyXWMxbm9jKG4xKVtDSDJdW0NASF0oW0NIMl1bQ0BIXTIzKVtDQEhdKFtDSDJdMylbQ0gyXVtDSDJdMg==

> <s_epik_cmdline>
J2VwaWtfcHl0aG9uJywgJy1waCcsICc3LjAnLCAnLXRuJywgJzgnLCAnLW1hJywgJzIwMCcsICctbWV0YWxfYmluZGluZycsICctaW1hZScsICc8aW5maWxlLm1hZT4nLCAnLW9tYWUnLCAnPG91dGZpbGUubWFlPic=

> <r_lp_tautomer_probability>
1

> <r_epik_Ionization_Penalty>
1.02915e-07

> <r_epik_Ionization_Penalty_Charging>
0

> <r_epik_Ionization_Penalty_Neutral>
1.02915e-07

> <r_epik_State_Penalty>
-0

> <r_epik_Charging_Adjusted_Penalty>
0

> <i_epik_Tot_Q>
0

> <i_epik_Tot_abs_Q>
0

> <r_epik_Metal_State_Penalty>
-0

> <b_epik_Metal_Only>
0

> <s_lp_Force_Field>
OPLS_2005

> <r_lp_Energy>
47.6747

> <b_lp_Chiralities_Consistent>
1

> <s_lp_Variant>
AV-unprocessed.smi:3238-3

> <Gold.Version>
5.8.1

> <Gold.Id.Protein>
6NUR|6NUR_protein|mol2

> <Gold.PLP.Fitness>
48.6565

> <Gold.PLP.PLP>
-40.3390

> <Gold.PLP.part.hbond>
-3.9919

> <Gold.PLP.part.metal>
0.0000

> <Gold.PLP.part.buried>
-4.9053

> <Gold.PLP.part.nonpolar>
-31.9828

> <Gold.PLP.part.repulsive>
0.1942

> <Gold.PLP.ligand.clash>
0.0000

> <Gold.PLP.ligand.torsion>
0.2435

> <Gold.PLP.Chemscore.Hbond>
2.9280

> <Gold.PLP.Chemscore.CHOScore>
0.0000

> <Gold.PLP.Chemscore.Metal>
0.0000

> <Gold.Chemscore.Hbonds>
donor molecule, donor type, donor heavy atom, donor atom, acceptor molecule, acceptor atom, score
      L1  H     2    22       P1  7948  0.90
      P1  H  7989  7998       L1     7  1.00
      P1  H 10752 10765       L1     4  1.00

> <Gold.PLP.Chemscore.Internal.Correction>
0.0205

> <Gold.Rescore>
     Score         DG    S(hbond)    S(metal)    S(lipo)     H(rot)  DE(clash)    DE(int)     intcor
     17.41     -19.19       2.07        0.00      98.68       1.85       0.08       1.71       ----

> <Gold.Chemscore.Fitness>
17.4064

> <Gold.Chemscore.DG>
-19.1937

> <Gold.Chemscore.ZeroCoef>
-5.4800

> <Gold.Chemscore.Hbond>
2.0665

> <Gold.Chemscore.Metal>
0.0000

> <Gold.Chemscore.Lipo>
98.6791

> <Gold.Chemscore.Internal_Hbond>
0.0000

> <Gold.Chemscore.DEClash>
0.0794

> <Gold.Chemscore.DEInternal>
1.7080

> <Gold.Chemscore.Rot>
1.8492

> <Gold.Chemscore.Internal.Correction>
   9.000000E+99

> <Gold.Chemscore.Hbonds>
donor molecule, donor type, donor heavy atom, donor atom, acceptor molecule, acceptor atom, score
      L1  H     2    22       P1  7948  0.35
      P1  H  7989  7998       L1     7  0.43
      P1  H 10752 10765       L1     4  0.25

> <Gold.Chemscore.Hbond.Weighted>
-6.9022

> <Gold.Chemscore.Metal.Weighted>
-0.0000

> <Gold.Chemscore.Lipo.Weighted>
-11.5454

> <Gold.Chemscore.Internal_Hbond.Weighted>
0.0000

> <Gold.Chemscore.DEClash.Weighted>
0.0794

> <Gold.Chemscore.DEInternal.Weighted>
1.7080

> <Gold.Chemscore.Rot.Weighted>
4.7340

> <Gold.Chemscore.Internal.Correction.Weighted>
   9.000000E+99

> <Gold.Protein.RotatedTorsions>
[ 6907 6896 6895 6894 ] final    8.37 input  -60.11 | X-H torsion
[ 7974 7965 7964 7962 ] final -136.66 input  175.53 | X-H torsion
[ 8008 7997 7996 7995 ] final -157.61 input   59.86 | X-H torsion
[ 10167 10162 10161 10158 ] final  -53.80 input  -65.29 | X-H torsion
[ 10718 10713 10712 10709 ] final  170.19 input   66.30 | X-H torsion
[ 10763 10752 10751 10750 ] final -140.71 input  -60.55 | X-H torsion
[ 11005 11000 10999 10996 ] final  -35.77 input  -57.11 | X-H torsion

> <Gold.Protein.ActiveResidues>
 VAL166  LYS551  ARG553  GLY616  TRP617  ASP618  TYR619  PRO620  LYS621  CYS622 
 ASP623  PHE694  ASN695  SER759  ASP760  ASP761  ALA762  ILE779  LEU786  VAL792 
 PHE793  MET794  SER795  GLU796  ALA797  LYS798  CYS799  TRP800  GLU811  SER814 

> <Gold.Protein.RotatedAtoms>
  151.7050  135.0923  160.0257 H   0  0  0  0  0  0  0  0  0  0  0  0  # atno 6907 bound_to 6896
  152.3697  133.6398  159.6086 H   0  0  0  0  0  0  0  0  0  0  0  0  # atno 6908 bound_to 6896
  150.7664  133.9207  159.3438 H   0  0  0  0  0  0  0  0  0  0  0  0  # atno 6909 bound_to 6896
  144.8908  140.6640  143.5146 H   0  0  0  0  0  0  0  0  0  0  0  0  # atno 7974 bound_to 7965
  155.7350  140.0807  157.2271 H   0  0  0  0  0  0  0  0  0  0  0  0  # atno 8008 bound_to 7997
  154.4028  140.1588  156.2607 H   0  0  0  0  0  0  0  0  0  0  0  0  # atno 8009 bound_to 7997
  155.9073  140.3406  155.6075 H   0  0  0  0  0  0  0  0  0  0  0  0  # atno 8010 bound_to 7997
  140.6465  143.2539  151.4844 H   0  0  0  0  0  0  0  0  0  0  0  0  # atno 10167 bound_to 10162
  157.0117  131.0206  151.2801 H   0  0  0  0  0  0  0  0  0  0  0  0  # atno 10718 bound_to 10713
  154.8569  135.3545  154.5752 H   0  0  0  0  0  0  0  0  0  0  0  0  # atno 10763 bound_to 10752
  153.6364  135.7000  153.5262 H   0  0  0  0  0  0  0  0  0  0  0  0  # atno 10764 bound_to 10752
  153.3007  135.4207  155.1209 H   0  0  0  0  0  0  0  0  0  0  0  0  # atno 10765 bound_to 10752
  140.9823  133.7050  156.1704 H   0  0  0  0  0  0  0  0  0  0  0  0  # atno 11005 bound_to 11000
  145.3786  139.1642  143.4293 LP  0  0  0  0  0  0  0  0  0  0  0  0  # atno 17320 bound_to 7965
  146.3053  140.3865  142.8689 LP  0  0  0  0  0  0  0  0  0  0  0  0  # atno 17321 bound_to 7965
  139.5676  144.2004  152.1789 LP  0  0  0  0  0  0  0  0  0  0  0  0  # atno 17342 bound_to 10162
  140.1291  144.5305  150.6814 LP  0  0  0  0  0  0  0  0  0  0  0  0  # atno 17343 bound_to 10162
  157.5315  130.8061  149.7922 LP  0  0  0  0  0  0  0  0  0  0  0  0  # atno 17370 bound_to 10713
  156.0133  130.3824  150.2191 LP  0  0  0  0  0  0  0  0  0  0  0  0  # atno 17371 bound_to 10713
  140.7168  134.4402  157.5578 LP  0  0  0  0  0  0  0  0  0  0  0  0  # atno 17394 bound_to 11000
  139.8955  134.8681  156.2128 LP  0  0  0  0  0  0  0  0  0  0  0  0  # atno 17395 bound_to 11000

$$$$
