AV-unprocessed.smi:1010|AV-procd|sdf|4416|dock3
  -GOLD-   22720 2363D 1   1.00000     0.00000
 Structure written by MMmdl.
 56 58  0  0  0  0  0  0  0  0  3 V2000
  147.6981  141.0068  154.5592 C   0  0  0  0  0  0  0  0  0  0  0  0
  148.6418  140.1523  153.7942 N   0  3  0  0  0  0  0  0  0  0  0  0
  147.8883  139.2308  152.9033 C   0  0  0  0  0  0  0  0  0  0  0  0
  149.7677  139.5147  154.5754 C   0  0  0  0  0  0  0  0  0  0  0  0
  149.1776  138.3286  155.4057 C   0  0  0  0  0  0  0  0  0  0  0  0
  149.0534  137.0845  154.6454 N   0  0  0  0  0  0  0  0  0  0  0  0
  149.3566  135.8559  155.0875 C   0  0  0  0  0  0  0  0  0  0  0  0
  149.7558  135.6232  156.2275 O   0  0  0  0  0  0  0  0  0  0  0  0
  149.1756  134.9349  154.1268 N   0  0  0  0  0  0  0  0  0  0  0  0
  149.4018  133.5304  154.1968 C   0  0  0  0  0  0  0  0  0  0  0  0
  150.4998  132.9639  154.8940 C   0  0  0  0  0  0  0  0  0  0  0  0
  150.6496  131.5638  154.9422 C   0  0  0  0  0  0  0  0  0  0  0  0
  149.6962  130.7503  154.3030 C   0  0  0  0  0  0  0  0  0  0  0  0
  148.6550  131.3191  153.6602 N   0  3  0  0  0  0  0  0  0  0  0  0
  148.4658  132.6593  153.5826 C   0  0  0  0  0  0  0  0  0  0  0  0
  147.3462  133.1499  152.8881 N   0  0  0  0  0  0  0  0  0  0  0  0
  147.3719  132.9619  151.4469 C   0  0  0  0  0  0  0  0  0  0  0  0
  145.9347  133.2046  150.9790 C   0  0  0  0  0  0  0  0  0  0  0  0
  145.0707  132.9867  152.2274 C   0  0  0  0  0  0  0  0  0  0  0  0
  146.0642  132.6340  153.3375 C   0  0  0  0  0  0  0  0  0  0  0  0
  150.8958  138.9798  153.6380 C   0  0  0  0  0  0  0  0  0  0  0  0
  152.1369  138.4928  154.4064 C   0  0  0  0  0  0  0  0  0  0  0  0
  152.6475  139.5586  155.1956 O   0  0  0  0  0  0  0  0  0  0  0  0
  151.7294  140.0094  156.1825 C   0  0  0  0  0  0  0  0  0  0  0  0
  150.4436  140.5456  155.5217 C   0  0  0  0  0  0  0  0  0  0  0  0
  147.2348  140.4547  155.3776 H   0  0  0  0  0  0  0  0  0  0  0  0
  146.9000  141.3742  153.9131 H   0  0  0  0  0  0  0  0  0  0  0  0
  148.1915  141.8920  154.9605 H   0  0  0  0  0  0  0  0  0  0  0  0
  147.2278  138.5765  153.4736 H   0  0  0  0  0  0  0  0  0  0  0  0
  148.5409  138.6083  152.2943 H   0  0  0  0  0  0  0  0  0  0  0  0
  147.2670  139.8020  152.2129 H   0  0  0  0  0  0  0  0  0  0  0  0
  149.8063  138.0953  156.2623 H   0  0  0  0  0  0  0  0  0  0  0  0
  148.2179  138.5920  155.8499 H   0  0  0  0  0  0  0  0  0  0  0  0
  148.7373  137.1751  153.6902 H   0  0  0  0  0  0  0  0  0  0  0  0
  148.9318  135.2881  153.2128 H   0  0  0  0  0  0  0  0  0  0  0  0
  151.2246  133.5775  155.4064 H   0  0  0  0  0  0  0  0  0  0  0  0
  151.4824  131.1201  155.4683 H   0  0  0  0  0  0  0  0  0  0  0  0
  149.7305  129.6703  154.2917 H   0  0  0  0  0  0  0  0  0  0  0  0
  148.0703  133.6521  150.9727 H   0  0  0  0  0  0  0  0  0  0  0  0
  147.6798  131.9456  151.1969 H   0  0  0  0  0  0  0  0  0  0  0  0
  145.8192  134.2287  150.6219 H   0  0  0  0  0  0  0  0  0  0  0  0
  145.6609  132.5358  150.1623 H   0  0  0  0  0  0  0  0  0  0  0  0
  144.5367  133.9054  152.4734 H   0  0  0  0  0  0  0  0  0  0  0  0
  144.3295  132.1994  152.0874 H   0  0  0  0  0  0  0  0  0  0  0  0
  146.1122  131.5520  153.4687 H   0  0  0  0  0  0  0  0  0  0  0  0
  145.7739  133.0764  154.2909 H   0  0  0  0  0  0  0  0  0  0  0  0
  150.5261  138.1897  152.9838 H   0  0  0  0  0  0  0  0  0  0  0  0
  151.2630  139.7689  152.9824 H   0  0  0  0  0  0  0  0  0  0  0  0
  151.9254  137.6210  155.0253 H   0  0  0  0  0  0  0  0  0  0  0  0
  152.9102  138.1881  153.7013 H   0  0  0  0  0  0  0  0  0  0  0  0
  151.5143  139.2072  156.8888 H   0  0  0  0  0  0  0  0  0  0  0  0
  152.2053  140.8036  156.7578 H   0  0  0  0  0  0  0  0  0  0  0  0
  150.7013  141.4447  154.9607 H   0  0  0  0  0  0  0  0  0  0  0  0
  149.7587  140.8621  156.3087 H   0  0  0  0  0  0  0  0  0  0  0  0
  149.1067  140.7934  153.1672 H   0  0  0  0  0  0  0  0  0  0  0  0
  147.9746  130.7071  153.2093 H   0  0  0  0  0  0  0  0  0  0  0  0
  1  2  1  0  0  0  0
  1 26  1  0  0  0  0
  1 27  1  0  0  0  0
  1 28  1  0  0  0  0
  2  3  1  0  0  0  0
  2  4  1  0  0  0  0
  2 55  1  0  0  0  0
  3 29  1  0  0  0  0
  3 30  1  0  0  0  0
  3 31  1  0  0  0  0
  4 25  1  0  0  0  0
  4  5  1  0  0  0  0
  4 21  1  0  0  0  0
  5  6  1  0  0  0  0
  5 32  1  0  0  0  0
  5 33  1  0  0  0  0
  6  7  1  0  0  0  0
  6 34  1  0  0  0  0
  7  8  2  0  0  0  0
  7  9  1  0  0  0  0
  9 10  1  0  0  0  0
  9 35  1  0  0  0  0
 10 15  1  0  0  0  0
 10 11  2  0  0  0  0
 11 12  1  0  0  0  0
 11 36  1  0  0  0  0
 12 13  2  0  0  0  0
 12 37  1  0  0  0  0
 13 14  1  0  0  0  0
 13 38  1  0  0  0  0
 14 15  2  0  0  0  0
 14 56  1  0  0  0  0
 15 16  1  0  0  0  0
 16 20  1  0  0  0  0
 16 17  1  0  0  0  0
 17 18  1  0  0  0  0
 17 39  1  0  0  0  0
 17 40  1  0  0  0  0
 18 19  1  0  0  0  0
 18 41  1  0  0  0  0
 18 42  1  0  0  0  0
 19 20  1  0  0  0  0
 19 43  1  0  0  0  0
 19 44  1  0  0  0  0
 20 45  1  0  0  0  0
 20 46  1  0  0  0  0
 21 22  1  0  0  0  0
 21 47  1  0  0  0  0
 21 48  1  0  0  0  0
 22 23  1  0  0  0  0
 22 49  1  0  0  0  0
 22 50  1  0  0  0  0
 23 24  1  0  0  0  0
 24 25  1  0  0  0  0
 24 51  1  0  0  0  0
 24 52  1  0  0  0  0
 25 53  1  0  0  0  0
 25 54  1  0  0  0  0
M  CHG  1   2   1
M  CHG  1  14   1
M  END
> <s_m_source_file>
AV-unprocessed.smi

> <i_m_source_file_index>
1010

> <i_lp_mmshare_version>
43012

> <i_f3d_flags>
0

> <s_epik_input>
W0NIMl0xW0NIMl1PW0NIMl1bQ0gyXUMxKE4oW0NIM10pW0NIM10pW0NIMl1bTkhdQyg9TylbTkhdYzJbY0hdW2NIXVtjSF1uYzJOM1tDSDJdW0NIMl1bQ0gyXVtDSDJdMw==

> <s_epik_cmdline>
J2VwaWtfcHl0aG9uJywgJy1waCcsICc3LjAnLCAnLXRuJywgJzgnLCAnLW1hJywgJzIwMCcsICctbWV0YWxfYmluZGluZycsICctaW1hZScsICc8aW5maWxlLm1hZT4nLCAnLW9tYWUnLCAnPG91dGZpbGUubWFlPic=

> <r_lp_tautomer_probability>
0.999994

> <r_epik_Ionization_Penalty>
1.20932

> <r_epik_Ionization_Penalty_Charging>
1.2093

> <r_epik_Ionization_Penalty_Neutral>
2.0507e-05

> <r_epik_State_Penalty>
1.27047

> <r_epik_Charging_Adjusted_Penalty>
2.47977

> <i_epik_Tot_Q>
2

> <i_epik_Tot_abs_Q>
2

> <r_epik_Metal_State_Penalty>
1.34666

> <b_epik_Metal_Only>
0

> <s_lp_Force_Field>
OPLS_2005

> <r_lp_Energy>
72.2457

> <b_lp_Chiralities_Consistent>
1

> <s_lp_Variant>
AV-unprocessed.smi:1010-2

> <Gold.Version>
5.8.1

> <Gold.Id.Protein>
6NUR|6NUR_protein|mol2

> <Gold.PLP.Fitness>
42.5042

> <Gold.PLP.PLP>
-35.6981

> <Gold.PLP.part.hbond>
-4.0000

> <Gold.PLP.part.metal>
0.0000

> <Gold.PLP.part.buried>
1.3587

> <Gold.PLP.part.nonpolar>
-32.9422

> <Gold.PLP.part.repulsive>
0.2881

> <Gold.PLP.ligand.clash>
0.0083

> <Gold.PLP.ligand.torsion>
1.0807

> <Gold.PLP.Chemscore.Hbond>
2.9360

> <Gold.PLP.Chemscore.CHOScore>
0.0000

> <Gold.PLP.Chemscore.Metal>
0.0000

> <Gold.Chemscore.Hbonds>
donor molecule, donor type, donor heavy atom, donor atom, acceptor molecule, acceptor atom, score
      L1  H     2    55       P1  7957  0.21
      L1  H     6    34       P1  7948  0.73
      L1  H     9    35       P1  7948  1.00
      P1  H  7989  7998       L1    23  0.01
      P1  H  7997  8009       L1    23  1.00

> <Gold.PLP.Chemscore.Internal.Correction>
0.1678

> <Gold.Rescore>
     Score         DG    S(hbond)    S(metal)    S(lipo)     H(rot)  DE(clash)    DE(int)     intcor
     14.66     -19.18       2.13        0.00      92.00       1.63       1.94       2.57       ----

> <Gold.Chemscore.Fitness>
14.6607

> <Gold.Chemscore.DG>
-19.1751

> <Gold.Chemscore.ZeroCoef>
-5.4800

> <Gold.Chemscore.Hbond>
2.1294

> <Gold.Chemscore.Metal>
0.0000

> <Gold.Chemscore.Lipo>
91.9984

> <Gold.Chemscore.Internal_Hbond>
0.0000

> <Gold.Chemscore.DEClash>
1.9439

> <Gold.Chemscore.DEInternal>
2.5705

> <Gold.Chemscore.Rot>
1.6332

> <Gold.Chemscore.Internal.Correction>
   9.000000E+99

> <Gold.Chemscore.Hbonds>
donor molecule, donor type, donor heavy atom, donor atom, acceptor molecule, acceptor atom, score
      L1  H     2    55       P1  7957  0.21
      L1  H     6    34       P1  7948  0.69
      L1  H     9    35       P1  7948  0.49
      P1  H  7997  8009       L1    23  0.24

> <Gold.Chemscore.Hbond.Weighted>
-7.1123

> <Gold.Chemscore.Metal.Weighted>
-0.0000

> <Gold.Chemscore.Lipo.Weighted>
-10.7638

> <Gold.Chemscore.Internal_Hbond.Weighted>
0.0000

> <Gold.Chemscore.DEClash.Weighted>
1.9439

> <Gold.Chemscore.DEInternal.Weighted>
2.5705

> <Gold.Chemscore.Rot.Weighted>
4.1810

> <Gold.Chemscore.Internal.Correction.Weighted>
   9.000000E+99

> <Gold.Protein.RotatedTorsions>
[ 6907 6896 6895 6894 ] final   97.88 input  -60.11 | X-H torsion
[ 7974 7965 7964 7962 ] final   54.24 input  175.53 | X-H torsion
[ 8008 7997 7996 7995 ] final -144.64 input   59.86 | X-H torsion
[ 10167 10162 10161 10158 ] final -148.92 input  -65.29 | X-H torsion
[ 10718 10713 10712 10709 ] final   15.62 input   66.30 | X-H torsion
[ 10763 10752 10751 10750 ] final   49.81 input  -60.55 | X-H torsion
[ 11005 11000 10999 10996 ] final   -2.65 input  -57.11 | X-H torsion

> <Gold.Protein.ActiveResidues>
 VAL166  LYS551  ARG553  GLY616  TRP617  ASP618  TYR619  PRO620  LYS621  CYS622 
 ASP623  PHE694  ASN695  SER759  ASP760  ASP761  ALA762  ILE779  LEU786  VAL792 
 PHE793  MET794  SER795  GLU796  ALA797  LYS798  CYS799  TRP800  GLU811  SER814 

> <Gold.Protein.RotatedAtoms>
  152.5417  134.0665  159.8174 H   0  0  0  0  0  0  0  0  0  0  0  0  # atno 6907 bound_to 6896
  151.0786  133.5401  159.2629 H   0  0  0  0  0  0  0  0  0  0  0  0  # atno 6908 bound_to 6896
  151.2237  135.0536  159.9014 H   0  0  0  0  0  0  0  0  0  0  0  0  # atno 6909 bound_to 6896
  145.9629  139.4076  143.0237 H   0  0  0  0  0  0  0  0  0  0  0  0  # atno 7974 bound_to 7965
  155.5303  140.0599  157.2890 H   0  0  0  0  0  0  0  0  0  0  0  0  # atno 8008 bound_to 7997
  154.4487  140.1937  156.0532 H   0  0  0  0  0  0  0  0  0  0  0  0  # atno 8009 bound_to 7997
  156.0657  140.3266  155.7519 H   0  0  0  0  0  0  0  0  0  0  0  0  # atno 8010 bound_to 7997
  139.7489  143.8548  152.2581 H   0  0  0  0  0  0  0  0  0  0  0  0  # atno 10167 bound_to 10162
  157.0562  130.6290  149.5777 H   0  0  0  0  0  0  0  0  0  0  0  0  # atno 10718 bound_to 10713
  152.9786  135.5899  154.4149 H   0  0  0  0  0  0  0  0  0  0  0  0  # atno 10763 bound_to 10752
  154.3780  135.2767  155.2229 H   0  0  0  0  0  0  0  0  0  0  0  0  # atno 10764 bound_to 10752
  154.4155  135.6071  153.6033 H   0  0  0  0  0  0  0  0  0  0  0  0  # atno 10765 bound_to 10752
  140.6606  133.9323  155.8434 H   0  0  0  0  0  0  0  0  0  0  0  0  # atno 11005 bound_to 11000
  145.8015  140.9769  143.0996 LP  0  0  0  0  0  0  0  0  0  0  0  0  # atno 17320 bound_to 7965
  144.6819  139.9807  143.7483 LP  0  0  0  0  0  0  0  0  0  0  0  0  # atno 17321 bound_to 7965
  139.8521  144.7159  150.9202 LP  0  0  0  0  0  0  0  0  0  0  0  0  # atno 17342 bound_to 10162
  140.7795  143.3890  151.1343 LP  0  0  0  0  0  0  0  0  0  0  0  0  # atno 17343 bound_to 10162
  155.9992  130.5068  150.7600 LP  0  0  0  0  0  0  0  0  0  0  0  0  # atno 17370 bound_to 10713
  157.4991  131.0917  151.0335 LP  0  0  0  0  0  0  0  0  0  0  0  0  # atno 17371 bound_to 10713
  141.0468  134.0543  157.3834 LP  0  0  0  0  0  0  0  0  0  0  0  0  # atno 17394 bound_to 11000
  139.9014  135.0166  156.7286 LP  0  0  0  0  0  0  0  0  0  0  0  0  # atno 17395 bound_to 11000

$$$$
