AV-unprocessed.smi:1524|AV-procd|sdf|6139|dock7
  -GOLD-   22720 6283D 1   1.00000     0.00000
 Structure written by MMmdl.
 35 36  0  0  0  0  0  0  0  0  1 V2000
  141.7207  136.4965  153.7142 O   0  0  0  0  0  0  0  0  0  0  0  0
  142.1608  137.4992  153.1560 C   0  0  0  0  0  0  0  0  0  0  0  0
  143.2796  137.5422  152.4035 N   0  0  0  0  0  0  0  0  0  0  0  0
  144.1631  136.5068  152.0594 C   0  0  0  0  0  0  0  0  0  0  0  0
  143.7855  135.2754  151.6272 C   0  0  0  0  0  0  0  0  0  0  0  0
  144.7549  134.2504  151.2780 C   0  0  0  0  0  0  0  0  0  0  0  0
  144.3220  132.8497  150.8736 C   0  0  0  0  0  0  0  0  0  0  0  0
  144.8405  131.9292  151.6874 F   0  0  0  0  0  0  0  0  0  0  0  0
  142.9943  132.7323  150.9005 F   0  0  0  0  0  0  0  0  0  0  0  0
  144.7361  132.5887  149.6344 F   0  0  0  0  0  0  0  0  0  0  0  0
  146.0528  134.5809  151.4134 C   0  0  0  0  0  0  0  0  0  0  0  0
  146.4488  135.8525  151.8341 N   0  0  0  0  0  0  0  0  0  0  0  0
  145.5919  136.8447  152.1641 C   0  0  0  0  0  0  0  0  0  0  0  0
  146.0192  137.9415  152.5237 O   0  0  0  0  0  0  0  0  0  0  0  0
  141.5464  138.6890  153.2890 N   0  0  0  0  0  0  0  0  0  0  0  0
  140.3219  139.0039  154.0291 C   0  0  0  0  0  0  0  0  0  0  0  0
  139.0989  138.3136  153.3976 C   0  0  0  0  0  0  0  0  0  0  0  0
  137.7993  138.7877  154.0686 C   0  0  0  0  0  0  0  0  0  0  0  0
  137.6959  140.2049  153.9856 O   0  0  0  0  0  0  0  0  0  0  0  0
  138.7474  140.8777  154.6697 C   0  0  0  0  0  0  0  0  0  0  0  0
  140.1001  140.5239  154.0308 C   0  0  0  0  0  0  0  0  0  0  0  0
  147.4416  136.0284  151.8920 H   0  0  0  0  0  0  0  0  0  0  0  0
  143.5563  138.4550  152.0723 H   0  0  0  0  0  0  0  0  0  0  0  0
  142.7438  135.0255  151.5086 H   0  0  0  0  0  0  0  0  0  0  0  0
  146.8752  133.9085  151.2183 H   0  0  0  0  0  0  0  0  0  0  0  0
  141.9972  139.4747  152.8423 H   0  0  0  0  0  0  0  0  0  0  0  0
  140.4226  138.6803  155.0668 H   0  0  0  0  0  0  0  0  0  0  0  0
  139.0539  138.5410  152.3315 H   0  0  0  0  0  0  0  0  0  0  0  0
  139.1816  137.2294  153.4814 H   0  0  0  0  0  0  0  0  0  0  0  0
  136.9375  138.3424  153.5715 H   0  0  0  0  0  0  0  0  0  0  0  0
  137.7634  138.4710  155.1121 H   0  0  0  0  0  0  0  0  0  0  0  0
  138.5751  141.9523  154.6094 H   0  0  0  0  0  0  0  0  0  0  0  0
  138.7356  140.6124  155.7280 H   0  0  0  0  0  0  0  0  0  0  0  0
  140.9076  141.0231  154.5678 H   0  0  0  0  0  0  0  0  0  0  0  0
  140.1222  140.9045  153.0086 H   0  0  0  0  0  0  0  0  0  0  0  0
  1  2  2  0  0  0  0
  2  3  1  0  0  0  0
  2 15  1  0  0  0  0
  3  4  1  0  0  0  0
  3 23  1  0  0  0  0
  4 13  1  0  0  0  0
  4  5  2  0  0  0  0
  5  6  1  0  0  0  0
  5 24  1  0  0  0  0
  6  7  1  0  0  0  0
  6 11  2  0  0  0  0
  7  8  1  0  0  0  0
  7  9  1  0  0  0  0
  7 10  1  0  0  0  0
 11 12  1  0  0  0  0
 11 25  1  0  0  0  0
 12 22  1  0  0  0  0
 12 13  1  0  0  0  0
 13 14  2  0  0  0  0
 15 16  1  0  0  0  0
 15 26  1  0  0  0  0
 16 21  1  0  0  0  0
 16 17  1  0  0  0  0
 16 27  1  0  0  0  0
 17 18  1  0  0  0  0
 17 28  1  0  0  0  0
 17 29  1  0  0  0  0
 18 19  1  0  0  0  0
 18 30  1  0  0  0  0
 18 31  1  0  0  0  0
 19 20  1  0  0  0  0
 20 21  1  0  0  0  0
 20 32  1  0  0  0  0
 20 33  1  0  0  0  0
 21 34  1  0  0  0  0
 21 35  1  0  0  0  0
M  END
> <s_m_source_file>
AV-unprocessed.smi

> <i_m_source_file_index>
1524

> <i_lp_mmshare_version>
43012

> <i_f3d_flags>
0

> <s_epik_input>
W0NIMl0xW0NIMl1PW0NIMl1bQ0gyXVtDSF0xW05IXUMoPU8pW05IXWMyW2NIXWMoQyhGKShGKUYpW2NIXVtuSF1jMj1P

> <s_epik_cmdline>
J2VwaWtfcHl0aG9uJywgJy1waCcsICc3LjAnLCAnLXRuJywgJzgnLCAnLW1hJywgJzIwMCcsICctbWV0YWxfYmluZGluZycsICctaW1hZScsICc8aW5maWxlLm1hZT4nLCAnLW9tYWUnLCAnPG91dGZpbGUubWFlPic=

> <r_lp_tautomer_probability>
1

> <r_epik_Ionization_Penalty>
0.00380781

> <r_epik_Ionization_Penalty_Charging>
0.00378827

> <r_epik_Ionization_Penalty_Neutral>
1.95401e-05

> <r_epik_State_Penalty>
-0

> <r_epik_Charging_Adjusted_Penalty>
0.00378827

> <i_epik_Tot_Q>
0

> <i_epik_Tot_abs_Q>
0

> <r_epik_Metal_State_Penalty>
0.371078

> <b_epik_Metal_Only>
0

> <s_lp_Force_Field>
OPLS_2005

> <r_lp_Energy>
30.03

> <b_lp_Chiralities_Consistent>
1

> <s_lp_Variant>
AV-unprocessed.smi:1524-1

> <Gold.Version>
5.8.1

> <Gold.Id.Protein>
6NUR|6NUR_protein|mol2

> <Gold.PLP.Fitness>
43.0856

> <Gold.PLP.PLP>
-35.3457

> <Gold.PLP.part.hbond>
-4.1437

> <Gold.PLP.part.metal>
0.0000

> <Gold.PLP.part.buried>
-4.8426

> <Gold.PLP.part.nonpolar>
-27.5126

> <Gold.PLP.part.repulsive>
0.5371

> <Gold.PLP.ligand.clash>
0.0000

> <Gold.PLP.ligand.torsion>
0.4502

> <Gold.PLP.Chemscore.Hbond>
2.8700

> <Gold.PLP.Chemscore.CHOScore>
0.0000

> <Gold.PLP.Chemscore.Metal>
0.0000

> <Gold.Chemscore.Hbonds>
donor molecule, donor type, donor heavy atom, donor atom, acceptor molecule, acceptor atom, score
      L1  H     3    23       P1 10175  0.94
      L1  H    12    22       P1  7948  0.93
      L1  H    15    26       P1 10175  0.99

> <Gold.PLP.Chemscore.Internal.Correction>
0.0304

> <Gold.Rescore>
     Score         DG    S(hbond)    S(metal)    S(lipo)     H(rot)  DE(clash)    DE(int)     intcor
     16.29     -17.24       2.20        0.00      59.72       1.00       0.39       0.57       ----

> <Gold.Chemscore.Fitness>
16.2855

> <Gold.Chemscore.DG>
-17.2427

> <Gold.Chemscore.ZeroCoef>
-5.4800

> <Gold.Chemscore.Hbond>
2.1963

> <Gold.Chemscore.Metal>
0.0000

> <Gold.Chemscore.Lipo>
59.7192

> <Gold.Chemscore.Internal_Hbond>
0.0000

> <Gold.Chemscore.DEClash>
0.3861

> <Gold.Chemscore.DEInternal>
0.5711

> <Gold.Chemscore.Rot>
1.0000

> <Gold.Chemscore.Internal.Correction>
   9.000000E+99

> <Gold.Chemscore.Hbonds>
donor molecule, donor type, donor heavy atom, donor atom, acceptor molecule, acceptor atom, score
      L1  H     3    23       P1 10175  0.87
      L1  H    12    22       P1  7948  0.89
      L1  H    15    26       P1 10175  0.66

> <Gold.Chemscore.Hbond.Weighted>
-7.3356

> <Gold.Chemscore.Metal.Weighted>
-0.0000

> <Gold.Chemscore.Lipo.Weighted>
-6.9871

> <Gold.Chemscore.Internal_Hbond.Weighted>
0.0000

> <Gold.Chemscore.DEClash.Weighted>
0.3861

> <Gold.Chemscore.DEInternal.Weighted>
0.5711

> <Gold.Chemscore.Rot.Weighted>
2.5600

> <Gold.Chemscore.Internal.Correction.Weighted>
   9.000000E+99

> <Gold.Protein.RotatedTorsions>
[ 6907 6896 6895 6894 ] final   85.29 input  -60.11 | X-H torsion
[ 7974 7965 7964 7962 ] final  -26.20 input  175.53 | X-H torsion
[ 8008 7997 7996 7995 ] final    2.58 input   59.86 | X-H torsion
[ 10167 10162 10161 10158 ] final   43.80 input  -65.29 | X-H torsion
[ 10718 10713 10712 10709 ] final  108.69 input   66.30 | X-H torsion
[ 10763 10752 10751 10750 ] final  -59.46 input  -60.55 | X-H torsion
[ 11005 11000 10999 10996 ] final   75.78 input  -57.11 | X-H torsion

> <Gold.Protein.ActiveResidues>
 VAL166  LYS551  ARG553  GLY616  TRP617  ASP618  TYR619  PRO620  LYS621  CYS622 
 ASP623  PHE694  ASN695  SER759  ASP760  ASP761  ALA762  ILE779  LEU786  VAL792 
 PHE793  MET794  SER795  GLU796  ALA797  LYS798  CYS799  TRP800  GLU811  SER814 

> <Gold.Protein.RotatedAtoms>
  152.5371  134.2608  159.8934 H   0  0  0  0  0  0  0  0  0  0  0  0  # atno 6907 bound_to 6896
  151.2568  133.4315  159.2621 H   0  0  0  0  0  0  0  0  0  0  0  0  # atno 6908 bound_to 6896
  151.0489  134.9673  159.8257 H   0  0  0  0  0  0  0  0  0  0  0  0  # atno 6909 bound_to 6896
  146.1441  140.4988  142.8639 H   0  0  0  0  0  0  0  0  0  0  0  0  # atno 7974 bound_to 7965
  154.6933  140.2658  155.6790 H   0  0  0  0  0  0  0  0  0  0  0  0  # atno 8008 bound_to 7997
  156.2740  140.2786  156.1443 H   0  0  0  0  0  0  0  0  0  0  0  0  # atno 8009 bound_to 7997
  155.0866  140.0373  157.2645 H   0  0  0  0  0  0  0  0  0  0  0  0  # atno 8010 bound_to 7997
  140.3407  144.2473  150.6156 H   0  0  0  0  0  0  0  0  0  0  0  0  # atno 10167 bound_to 10162
  157.6575  131.0899  150.6343 H   0  0  0  0  0  0  0  0  0  0  0  0  # atno 10718 bound_to 10713
  154.2541  135.6320  153.5251 H   0  0  0  0  0  0  0  0  0  0  0  0  # atno 10763 bound_to 10752
  152.9907  135.5572  154.5775 H   0  0  0  0  0  0  0  0  0  0  0  0  # atno 10764 bound_to 10752
  154.5310  135.2888  155.1155 H   0  0  0  0  0  0  0  0  0  0  0  0  # atno 10765 bound_to 10752
  139.9328  134.7546  156.1313 H   0  0  0  0  0  0  0  0  0  0  0  0  # atno 11005 bound_to 11000
  144.7826  140.5871  143.6595 LP  0  0  0  0  0  0  0  0  0  0  0  0  # atno 17320 bound_to 7965
  145.4978  139.1485  143.3674 LP  0  0  0  0  0  0  0  0  0  0  0  0  # atno 17321 bound_to 7965
  140.5311  143.2243  151.8237 LP  0  0  0  0  0  0  0  0  0  0  0  0  # atno 17342 bound_to 10162
  139.4841  144.4719  151.9415 LP  0  0  0  0  0  0  0  0  0  0  0  0  # atno 17343 bound_to 10162
  156.6648  130.4522  149.5676 LP  0  0  0  0  0  0  0  0  0  0  0  0  # atno 17370 bound_to 10713
  156.2040  130.6638  151.1199 LP  0  0  0  0  0  0  0  0  0  0  0  0  # atno 17371 bound_to 10713
  141.0926  133.6708  156.2574 LP  0  0  0  0  0  0  0  0  0  0  0  0  # atno 17394 bound_to 11000
  140.6156  134.5414  157.5540 LP  0  0  0  0  0  0  0  0  0  0  0  0  # atno 17395 bound_to 11000

$$$$
