AV-unprocessed.smi:711|AV-procd|sdf|3465|dock8
  -GOLD-   22720 0453D 1   1.00000     0.00000
 Structure written by MMmdl.
 29 30  0  0  0  0  0  0  0  0  1 V2000
  147.0998  140.7208  152.8681 O   0  0  0  0  0  0  0  0  0  0  0  0
  147.6960  140.8295  153.9378 C   0  0  0  0  0  0  0  0  0  0  0  0
  149.0841  140.6676  153.9805 N   0  0  0  0  0  0  0  0  0  0  0  0
  149.8797  140.7667  155.1224 C   0  0  0  0  0  0  0  0  0  0  0  0
  151.0956  140.5961  155.0362 O   0  0  0  0  0  0  0  0  0  0  0  0
  149.2167  141.0645  156.3355 N   0  0  0  0  0  0  0  0  0  0  0  0
  150.0054  141.1681  157.5400 C   0  0  0  0  0  0  0  0  0  0  0  0
  151.1494  142.1998  157.4360 C   0  0  1  0  0  0  0  0  0  0  0  0
  150.6623  143.3785  156.8240 O   0  0  0  0  0  0  0  0  0  0  0  0
  151.7351  142.4893  158.8128 C   0  0  0  0  0  0  0  0  0  0  0  0
  151.4735  143.7198  159.4572 C   0  0  0  0  0  0  0  0  0  0  0  0
  152.0000  143.9801  160.7371 C   0  0  0  0  0  0  0  0  0  0  0  0
  152.7883  143.0104  161.3846 C   0  0  0  0  0  0  0  0  0  0  0  0
  153.2932  143.2593  162.6161 F   0  0  0  0  0  0  0  0  0  0  0  0
  153.0481  141.7802  160.7518 C   0  0  0  0  0  0  0  0  0  0  0  0
  152.5218  141.5171  159.4718 C   0  0  0  0  0  0  0  0  0  0  0  0
  152.7722  140.3223  158.8840 F   0  0  0  0  0  0  0  0  0  0  0  0
  147.8392  141.2232  156.3418 C   0  0  0  0  0  0  0  0  0  0  0  0
  147.0741  141.1222  155.2284 C   0  0  0  0  0  0  0  0  0  0  0  0
  145.3623  141.3352  155.3182 Cl  0  0  0  0  0  0  0  0  0  0  0  0
  149.5514  140.4600  153.1099 H   0  0  0  0  0  0  0  0  0  0  0  0
  149.3477  141.3232  158.3979 H   0  0  0  0  0  0  0  0  0  0  0  0
  150.4194  140.1665  157.6713 H   0  0  0  0  0  0  0  0  0  0  0  0
  151.9402  141.8085  156.7947 H   0  0  0  0  0  0  0  0  0  0  0  0
  149.7309  143.2864  156.6931 H   0  0  0  0  0  0  0  0  0  0  0  0
  150.8629  144.4688  158.9742 H   0  0  0  0  0  0  0  0  0  0  0  0
  151.7964  144.9229  161.2231 H   0  0  0  0  0  0  0  0  0  0  0  0
  153.6491  141.0343  161.2504 H   0  0  0  0  0  0  0  0  0  0  0  0
  147.3484  141.4367  157.2813 H   0  0  0  0  0  0  0  0  0  0  0  0
  1  2  2  0  0  0  0
  2 19  1  0  0  0  0
  2  3  1  0  0  0  0
  3 21  1  0  0  0  0
  3  4  1  0  0  0  0
  4  5  2  0  0  0  0
  4  6  1  0  0  0  0
  6  7  1  0  0  0  0
  6 18  1  0  0  0  0
  7  8  1  0  0  0  0
  7 22  1  0  0  0  0
  7 23  1  0  0  0  0
  8  9  1  0  0  0  0
  8 10  1  0  0  0  0
  8 24  1  0  0  0  0
  9 25  1  0  0  0  0
 10 16  1  0  0  0  0
 10 11  2  0  0  0  0
 11 12  1  0  0  0  0
 11 26  1  0  0  0  0
 12 13  2  0  0  0  0
 12 27  1  0  0  0  0
 13 14  1  0  0  0  0
 13 15  1  0  0  0  0
 15 16  2  0  0  0  0
 15 28  1  0  0  0  0
 16 17  1  0  0  0  0
 18 19  2  0  0  0  0
 18 29  1  0  0  0  0
 19 20  1  0  0  0  0
M  END
> <s_m_source_file>
AV-unprocessed.smi

> <i_m_source_file_index>
711

> <i_lp_mmshare_version>
43012

> <i_f3d_flags>
0

> <s_epik_input>
Tz1jMVtuSF1jKD1PKW4oW2NIXWMxQ2wpW0NIMl1bQ0BIXShbT0hdKWMyW2NIXVtjSF1jKEYpW2NIXWMyRg==

> <s_epik_cmdline>
J2VwaWtfcHl0aG9uJywgJy1waCcsICc3LjAnLCAnLXRuJywgJzgnLCAnLW1hJywgJzIwMCcsICctbWV0YWxfYmluZGluZycsICctaW1hZScsICc8aW5maWxlLm1hZT4nLCAnLW9tYWUnLCAnPG91dGZpbGUubWFlPic=

> <r_lp_tautomer_probability>
0.999537

> <r_epik_Ionization_Penalty>
0.0292058

> <r_epik_Ionization_Penalty_Charging>
0.0292057

> <r_epik_Ionization_Penalty_Neutral>
9.07348e-08

> <r_epik_State_Penalty>
0.0240115

> <r_epik_Charging_Adjusted_Penalty>
0.0532172

> <i_epik_Tot_Q>
0

> <i_epik_Tot_abs_Q>
0

> <r_epik_Metal_State_Penalty>
2.21956

> <b_epik_Metal_Only>
0

> <s_lp_Force_Field>
OPLS_2005

> <r_lp_Energy>
13.2316

> <b_lp_Chiralities_Consistent>
1

> <s_lp_Variant>
AV-unprocessed.smi:711-2

> <Gold.Version>
5.8.1

> <Gold.Id.Protein>
6NUR|6NUR_protein|mol2

> <Gold.PLP.Fitness>
48.6213

> <Gold.PLP.PLP>
-41.2977

> <Gold.PLP.part.hbond>
-3.0000

> <Gold.PLP.part.metal>
0.0000

> <Gold.PLP.part.buried>
-5.0502

> <Gold.PLP.part.nonpolar>
-33.9660

> <Gold.PLP.part.repulsive>
1.0591

> <Gold.PLP.ligand.clash>
0.0000

> <Gold.PLP.ligand.torsion>
0.4265

> <Gold.PLP.Chemscore.Hbond>
2.7200

> <Gold.PLP.Chemscore.CHOScore>
0.0000

> <Gold.PLP.Chemscore.Metal>
0.0000

> <Gold.Chemscore.Hbonds>
donor molecule, donor type, donor heavy atom, donor atom, acceptor molecule, acceptor atom, score
      L1  H     3    21       P1  7957  1.00
      L1  H     9    25       P1  8028  0.30
      P1  H  7989  7998       L1     5  0.94

> <Gold.PLP.Chemscore.Internal.Correction>
0.0166

> <Gold.Rescore>
     Score         DG    S(hbond)    S(metal)    S(lipo)     H(rot)  DE(clash)    DE(int)     intcor
     14.54     -18.21       2.58        0.00      86.80       2.37       1.47       2.20       ----

> <Gold.Chemscore.Fitness>
14.5440

> <Gold.Chemscore.DG>
-18.2132

> <Gold.Chemscore.ZeroCoef>
-5.4800

> <Gold.Chemscore.Hbond>
2.5845

> <Gold.Chemscore.Metal>
0.0000

> <Gold.Chemscore.Lipo>
86.8019

> <Gold.Chemscore.Internal_Hbond>
0.0000

> <Gold.Chemscore.DEClash>
1.4725

> <Gold.Chemscore.DEInternal>
2.1968

> <Gold.Chemscore.Rot>
2.3652

> <Gold.Chemscore.Internal.Correction>
   9.000000E+99

> <Gold.Chemscore.Hbonds>
donor molecule, donor type, donor heavy atom, donor atom, acceptor molecule, acceptor atom, score
      L1  H     3    21       P1  7957  0.94
      L1  H     9    25       P1  8028  0.30
      P1  H  7989  7998       L1     5  0.74

> <Gold.Chemscore.Hbond.Weighted>
-8.6322

> <Gold.Chemscore.Metal.Weighted>
-0.0000

> <Gold.Chemscore.Lipo.Weighted>
-10.1558

> <Gold.Chemscore.Internal_Hbond.Weighted>
0.0000

> <Gold.Chemscore.DEClash.Weighted>
1.4725

> <Gold.Chemscore.DEInternal.Weighted>
2.1968

> <Gold.Chemscore.Rot.Weighted>
6.0548

> <Gold.Chemscore.Internal.Correction.Weighted>
   9.000000E+99

> <Gold.Protein.RotatedTorsions>
[ 6907 6896 6895 6894 ] final -103.55 input  -60.11 | X-H torsion
[ 7974 7965 7964 7962 ] final  -31.38 input  175.53 | X-H torsion
[ 8008 7997 7996 7995 ] final  -89.00 input   59.86 | X-H torsion
[ 10167 10162 10161 10158 ] final  146.96 input  -65.29 | X-H torsion
[ 10718 10713 10712 10709 ] final -103.71 input   66.30 | X-H torsion
[ 10763 10752 10751 10750 ] final  130.90 input  -60.55 | X-H torsion
[ 11005 11000 10999 10996 ] final  -19.72 input  -57.11 | X-H torsion

> <Gold.Protein.ActiveResidues>
 VAL166  LYS551  ARG553  GLY616  TRP617  ASP618  TYR619  PRO620  LYS621  CYS622 
 ASP623  PHE694  ASN695  SER759  ASP760  ASP761  ALA762  ILE779  LEU786  VAL792 
 PHE793  MET794  SER795  GLU796  ALA797  LYS798  CYS799  TRP800  GLU811  SER814 

> <Gold.Protein.RotatedAtoms>
  150.7245  134.0413  159.3766 H   0  0  0  0  0  0  0  0  0  0  0  0  # atno 6907 bound_to 6896
  151.8386  135.0595  160.0455 H   0  0  0  0  0  0  0  0  0  0  0  0  # atno 6908 bound_to 6896
  152.2880  133.5497  159.5575 H   0  0  0  0  0  0  0  0  0  0  0  0  # atno 6909 bound_to 6896
  146.1072  140.5660  142.8794 H   0  0  0  0  0  0  0  0  0  0  0  0  # atno 7974 bound_to 7965
  154.6814  140.0547  157.0270 H   0  0  0  0  0  0  0  0  0  0  0  0  # atno 8008 bound_to 7997
  155.0946  140.3223  155.4545 H   0  0  0  0  0  0  0  0  0  0  0  0  # atno 8009 bound_to 7997
  156.2695  140.2042  156.6073 H   0  0  0  0  0  0  0  0  0  0  0  0  # atno 8010 bound_to 7997
  139.4898  144.5791  151.6907 H   0  0  0  0  0  0  0  0  0  0  0  0  # atno 10167 bound_to 10162
  156.0276  130.5480  150.7291 H   0  0  0  0  0  0  0  0  0  0  0  0  # atno 10718 bound_to 10713
  153.7655  135.3189  155.3344 H   0  0  0  0  0  0  0  0  0  0  0  0  # atno 10763 bound_to 10752
  154.8215  135.4600  154.0795 H   0  0  0  0  0  0  0  0  0  0  0  0  # atno 10764 bound_to 10752
  153.2039  135.6926  153.8281 H   0  0  0  0  0  0  0  0  0  0  0  0  # atno 10765 bound_to 10752
  140.8394  133.7937  155.9844 H   0  0  0  0  0  0  0  0  0  0  0  0  # atno 11005 bound_to 11000
  144.7480  140.5119  143.6822 LP  0  0  0  0  0  0  0  0  0  0  0  0  # atno 17320 bound_to 7965
  145.5738  139.1485  143.3274 LP  0  0  0  0  0  0  0  0  0  0  0  0  # atno 17321 bound_to 7965
  140.5393  144.0604  150.6082 LP  0  0  0  0  0  0  0  0  0  0  0  0  # atno 17342 bound_to 10162
  140.3621  143.2902  152.0372 LP  0  0  0  0  0  0  0  0  0  0  0  0  # atno 17343 bound_to 10162
  157.4888  131.0909  151.0451 LP  0  0  0  0  0  0  0  0  0  0  0  0  # atno 17370 bound_to 10713
  157.0863  130.5924  149.5430 LP  0  0  0  0  0  0  0  0  0  0  0  0  # atno 17371 bound_to 10713
  140.8912  134.2493  157.5093 LP  0  0  0  0  0  0  0  0  0  0  0  0  # atno 17394 bound_to 11000
  139.8703  134.9662  156.4555 LP  0  0  0  0  0  0  0  0  0  0  0  0  # atno 17395 bound_to 11000

$$$$
