AV-unprocessed.smi:197|AV-procd|sdf|1546|dock5
  -GOLD-   2262019403D 1   1.00000     0.00000
 Structure written by MMmdl.
 54 57  0  0  0  0  0  0  0  0  1 V2000
  150.0735  134.1326  155.1307 C   0  0  0  0  0  0  0  0  0  0  0  0
  151.0923  135.0701  155.4417 O   0  0  0  0  0  0  0  0  0  0  0  0
  150.6197  136.2847  156.0107 C   0  0  0  0  0  0  0  0  0  0  0  0
  149.9317  137.1974  154.9772 C   0  0  0  0  0  0  0  0  0  0  0  0
  150.2414  138.7087  155.1469 C   0  0  2  0  0  0  0  0  0  0  0  0
  151.7096  139.0281  154.7781 C   0  0  0  0  0  0  0  0  0  0  0  0
  151.9838  140.4119  154.9676 O   0  0  0  0  0  0  0  0  0  0  0  0
  151.8131  140.8072  156.3220 C   0  0  0  0  0  0  0  0  0  0  0  0
  150.3513  140.5769  156.7274 C   0  0  0  0  0  0  0  0  0  0  0  0
  149.9818  139.1827  156.5129 N   0  0  0  0  0  0  0  0  0  0  0  0
  148.7555  138.9296  157.0230 C   0  0  0  0  0  0  0  0  0  0  0  0
  147.7681  139.8037  156.7100 N   0  0  0  0  0  0  0  0  0  0  0  0
  146.5358  139.6201  157.1930 C   0  0  0  0  0  0  0  0  0  0  0  0
  146.0875  138.6481  157.9903 N   0  0  0  0  0  0  0  0  0  0  0  0
  147.0778  137.7630  158.3006 C   0  0  0  0  0  0  0  0  0  0  0  0
  148.4286  137.8219  157.8564 C   0  0  0  0  0  0  0  0  0  0  0  0
  149.1405  136.7413  158.3621 N   0  0  0  0  0  0  0  0  0  0  0  0
  148.2658  136.0911  159.0794 C   0  0  0  0  0  0  0  0  0  0  0  0
  147.0038  136.6409  159.1074 N   0  0  0  0  0  0  0  0  0  0  0  0
  145.8498  136.1307  159.8317 C   0  0  0  0  0  0  0  0  0  0  0  0
  146.0628  136.0588  161.3641 C   0  0  2  0  0  0  0  0  0  0  0  0
  146.3416  137.3663  161.8372 O   0  0  0  0  0  0  0  0  0  0  0  0
  147.2417  135.1537  161.7397 C   0  0  0  0  0  0  0  0  0  0  0  0
  146.5928  133.9707  162.4491 C   0  0  0  0  0  0  0  0  0  0  0  0
  145.4673  134.5570  163.0769 O   0  0  0  0  0  0  0  0  0  0  0  0
  144.8695  135.4235  162.1244 C   0  0  1  0  0  0  0  0  0  0  0  0
  143.8781  136.3799  162.8072 C   0  0  0  0  0  0  0  0  0  0  0  0
  150.5284  133.2083  154.7750 H   0  0  0  0  0  0  0  0  0  0  0  0
  149.4170  134.4975  154.3425 H   0  0  0  0  0  0  0  0  0  0  0  0
  149.4711  133.8933  156.0075 H   0  0  0  0  0  0  0  0  0  0  0  0
  149.9415  136.0715  156.8383 H   0  0  0  0  0  0  0  0  0  0  0  0
  151.4706  136.8010  156.4536 H   0  0  0  0  0  0  0  0  0  0  0  0
  150.2205  136.8529  153.9850 H   0  0  0  0  0  0  0  0  0  0  0  0
  148.8534  137.0433  155.0303 H   0  0  0  0  0  0  0  0  0  0  0  0
  149.6029  139.2738  154.4684 H   0  0  0  0  0  0  0  0  0  0  0  0
  152.4020  138.4283  155.3711 H   0  0  0  0  0  0  0  0  0  0  0  0
  151.9043  138.7966  153.7317 H   0  0  0  0  0  0  0  0  0  0  0  0
  152.4922  140.2492  156.9684 H   0  0  0  0  0  0  0  0  0  0  0  0
  152.0702  141.8618  156.4206 H   0  0  0  0  0  0  0  0  0  0  0  0
  150.2137  140.8448  157.7762 H   0  0  0  0  0  0  0  0  0  0  0  0
  149.6977  141.2241  156.1406 H   0  0  0  0  0  0  0  0  0  0  0  0
  145.8049  140.3599  156.9018 H   0  0  0  0  0  0  0  0  0  0  0  0
  148.5204  135.1904  159.6186 H   0  0  0  0  0  0  0  0  0  0  0  0
  144.9921  136.7643  159.6014 H   0  0  0  0  0  0  0  0  0  0  0  0
  145.6110  135.1423  159.4362 H   0  0  0  0  0  0  0  0  0  0  0  0
  146.5561  137.3104  162.7559 H   0  0  0  0  0  0  0  0  0  0  0  0
  147.8370  134.8376  160.8823 H   0  0  0  0  0  0  0  0  0  0  0  0
  147.9181  135.6549  162.4342 H   0  0  0  0  0  0  0  0  0  0  0  0
  146.2637  133.2163  161.7327 H   0  0  0  0  0  0  0  0  0  0  0  0
  147.2569  133.4953  163.1714 H   0  0  0  0  0  0  0  0  0  0  0  0
  144.3122  134.7792  161.4434 H   0  0  0  0  0  0  0  0  0  0  0  0
  143.4174  137.0501  162.0826 H   0  0  0  0  0  0  0  0  0  0  0  0
  144.3621  136.9874  163.5719 H   0  0  0  0  0  0  0  0  0  0  0  0
  143.0777  135.8210  163.2920 H   0  0  0  0  0  0  0  0  0  0  0  0
  1  2  1  0  0  0  0
  1 28  1  0  0  0  0
  1 29  1  0  0  0  0
  1 30  1  0  0  0  0
  2  3  1  0  0  0  0
  3  4  1  0  0  0  0
  3 31  1  0  0  0  0
  3 32  1  0  0  0  0
  4  5  1  0  0  0  0
  4 33  1  0  0  0  0
  4 34  1  0  0  0  0
  5 10  1  0  0  0  0
  5  6  1  0  0  0  0
  5 35  1  0  0  0  0
  6  7  1  0  0  0  0
  6 36  1  0  0  0  0
  6 37  1  0  0  0  0
  7  8  1  0  0  0  0
  8  9  1  0  0  0  0
  8 38  1  0  0  0  0
  8 39  1  0  0  0  0
  9 10  1  0  0  0  0
  9 40  1  0  0  0  0
  9 41  1  0  0  0  0
 10 11  1  0  0  0  0
 11 16  1  0  0  0  0
 11 12  2  0  0  0  0
 12 13  1  0  0  0  0
 13 14  2  0  0  0  0
 13 42  1  0  0  0  0
 14 15  1  0  0  0  0
 15 19  1  0  0  0  0
 15 16  2  0  0  0  0
 16 17  1  0  0  0  0
 17 18  2  0  0  0  0
 18 19  1  0  0  0  0
 18 43  1  0  0  0  0
 19 20  1  0  0  0  0
 20 21  1  0  0  0  0
 20 44  1  0  0  0  0
 20 45  1  0  0  0  0
 21 26  1  0  0  0  0
 21 22  1  0  0  0  0
 21 23  1  0  0  0  0
 22 46  1  0  0  0  0
 23 24  1  0  0  0  0
 23 47  1  0  0  0  0
 23 48  1  0  0  0  0
 24 25  1  0  0  0  0
 24 49  1  0  0  0  0
 24 50  1  0  0  0  0
 25 26  1  0  0  0  0
 26 27  1  0  0  0  0
 26 51  1  0  0  0  0
 27 52  1  0  0  0  0
 27 53  1  0  0  0  0
 27 54  1  0  0  0  0
M  END
> <s_m_source_file>
AV-unprocessed.smi

> <i_m_source_file_index>
197

> <i_lp_mmshare_version>
43012

> <i_f3d_flags>
0

> <s_epik_input>
W0NIM11PW0NIMl1bQ0gyXVtDQEBIXTFbQ0gyXU9bQ0gyXVtDSDJdTjFjKG5bY0hdbjIpYyhjMjMpbltjSF1uM1tDSDJdW0NAQF00KFtPSF0pW0NIMl1bQ0gyXU9bQ0BIXTRbQ0gzXQ==

> <s_epik_cmdline>
J2VwaWtfcHl0aG9uJywgJy1waCcsICc3LjAnLCAnLXRuJywgJzgnLCAnLW1hJywgJzIwMCcsICctbWV0YWxfYmluZGluZycsICctaW1hZScsICc8aW5maWxlLm1hZT4nLCAnLW9tYWUnLCAnPG91dGZpbGUubWFlPic=

> <r_lp_tautomer_probability>
1

> <r_epik_Ionization_Penalty>
0.000106218

> <r_epik_Ionization_Penalty_Charging>
0

> <r_epik_Ionization_Penalty_Neutral>
0.000106218

> <r_epik_State_Penalty>
-0

> <r_epik_Charging_Adjusted_Penalty>
0

> <i_epik_Tot_Q>
0

> <i_epik_Tot_abs_Q>
0

> <r_epik_Metal_State_Penalty>
-0

> <b_epik_Metal_Only>
0

> <s_lp_Force_Field>
OPLS_2005

> <r_lp_Energy>
42.2513

> <b_lp_Chiralities_Consistent>
1

> <s_lp_Variant>
AV-unprocessed.smi:197-3

> <Gold.Version>
5.8.1

> <Gold.Id.Protein>
6NUR|6NUR_protein|mol2

> <Gold.PLP.Fitness>
36.9494

> <Gold.PLP.PLP>
-30.7864

> <Gold.PLP.part.hbond>
-3.1932

> <Gold.PLP.part.metal>
0.0000

> <Gold.PLP.part.buried>
-3.0714

> <Gold.PLP.part.nonpolar>
-22.7795

> <Gold.PLP.part.repulsive>
0.1517

> <Gold.PLP.ligand.clash>
0.0000

> <Gold.PLP.ligand.torsion>
0.8328

> <Gold.PLP.Chemscore.Hbond>
2.5204

> <Gold.PLP.Chemscore.CHOScore>
0.0000

> <Gold.PLP.Chemscore.Metal>
0.0000

> <Gold.Chemscore.Hbonds>
donor molecule, donor type, donor heavy atom, donor atom, acceptor molecule, acceptor atom, score
      P1  H  6934  6947       L1    22  0.87
      P1  H  7989  7998       L1     7  0.63
      P1  H 10752 10763       L1     2  0.83

> <Gold.PLP.Chemscore.Internal.Correction>
0.2674

> <Gold.Rescore>
     Score         DG    S(hbond)    S(metal)    S(lipo)     H(rot)  DE(clash)    DE(int)     intcor
      8.30     -11.60       1.36        0.00      75.40       2.84       0.21       3.10       ----

> <Gold.Chemscore.Fitness>
8.2978

> <Gold.Chemscore.DG>
-11.6014

> <Gold.Chemscore.ZeroCoef>
-5.4800

> <Gold.Chemscore.Hbond>
1.3649

> <Gold.Chemscore.Metal>
0.0000

> <Gold.Chemscore.Lipo>
75.4039

> <Gold.Chemscore.Internal_Hbond>
0.0000

> <Gold.Chemscore.DEClash>
0.2056

> <Gold.Chemscore.DEInternal>
3.0980

> <Gold.Chemscore.Rot>
2.8358

> <Gold.Chemscore.Internal.Correction>
   9.000000E+99

> <Gold.Chemscore.Hbonds>
donor molecule, donor type, donor heavy atom, donor atom, acceptor molecule, acceptor atom, score
      P1  H  6934  6947       L1    22  0.66
      P1  H  7989  7998       L1     7  0.12
      P1  H 10752 10763       L1     2  0.39

> <Gold.Chemscore.Hbond.Weighted>
-4.5587

> <Gold.Chemscore.Metal.Weighted>
-0.0000

> <Gold.Chemscore.Lipo.Weighted>
-8.8223

> <Gold.Chemscore.Internal_Hbond.Weighted>
0.0000

> <Gold.Chemscore.DEClash.Weighted>
0.2056

> <Gold.Chemscore.DEInternal.Weighted>
3.0980

> <Gold.Chemscore.Rot.Weighted>
7.2596

> <Gold.Chemscore.Internal.Correction.Weighted>
   9.000000E+99

> <Gold.Protein.RotatedTorsions>
[ 6907 6896 6895 6894 ] final  -72.06 input  -60.11 | X-H torsion
[ 7974 7965 7964 7962 ] final   89.13 input  175.53 | X-H torsion
[ 8008 7997 7996 7995 ] final  124.16 input   59.86 | X-H torsion
[ 10167 10162 10161 10158 ] final -146.36 input  -65.29 | X-H torsion
[ 10718 10713 10712 10709 ] final  103.70 input   66.30 | X-H torsion
[ 10763 10752 10751 10750 ] final   63.16 input  -60.55 | X-H torsion
[ 11005 11000 10999 10996 ] final   24.24 input  -57.11 | X-H torsion

> <Gold.Protein.ActiveResidues>
 VAL166  LYS551  ARG553  GLY616  TRP617  ASP618  TYR619  PRO620  LYS621  CYS622 
 ASP623  PHE694  ASN695  SER759  ASP760  ASP761  ALA762  ILE779  LEU786  VAL792 
 PHE793  MET794  SER795  GLU796  ALA797  LYS798  CYS799  TRP800  GLU811  SER814 

> <Gold.Protein.RotatedAtoms>
  150.7185  134.5217  159.5656 H   0  0  0  0  0  0  0  0  0  0  0  0  # atno 6907 bound_to 6896
  152.2771  134.7867  160.0412 H   0  0  0  0  0  0  0  0  0  0  0  0  # atno 6908 bound_to 6896
  151.8526  133.3407  159.3715 H   0  0  0  0  0  0  0  0  0  0  0  0  # atno 6909 bound_to 6896
  145.5364  139.2286  143.2590 H   0  0  0  0  0  0  0  0  0  0  0  0  # atno 7974 bound_to 7965
  156.2791  140.2746  156.1743 H   0  0  0  0  0  0  0  0  0  0  0  0  # atno 8008 bound_to 7997
  155.0622  140.0386  157.2598 H   0  0  0  0  0  0  0  0  0  0  0  0  # atno 8009 bound_to 7997
  154.7108  140.2668  155.6637 H   0  0  0  0  0  0  0  0  0  0  0  0  # atno 8010 bound_to 7997
  139.7720  143.8223  152.2626 H   0  0  0  0  0  0  0  0  0  0  0  0  # atno 10167 bound_to 10162
  157.6764  131.0785  150.5595 H   0  0  0  0  0  0  0  0  0  0  0  0  # atno 10718 bound_to 10713
  153.0008  135.5439  154.6308 H   0  0  0  0  0  0  0  0  0  0  0  0  # atno 10763 bound_to 10752
  154.5586  135.2832  155.0943 H   0  0  0  0  0  0  0  0  0  0  0  0  # atno 10764 bound_to 10752
  154.2155  135.6460  153.5181 H   0  0  0  0  0  0  0  0  0  0  0  0  # atno 10765 bound_to 10752
  140.3609  134.2127  155.7672 H   0  0  0  0  0  0  0  0  0  0  0  0  # atno 11005 bound_to 11000
  146.2010  140.6182  142.9102 LP  0  0  0  0  0  0  0  0  0  0  0  0  # atno 17320 bound_to 7965
  144.7599  140.5398  143.6742 LP  0  0  0  0  0  0  0  0  0  0  0  0  # atno 17321 bound_to 7965
  139.8261  144.7274  150.9510 LP  0  0  0  0  0  0  0  0  0  0  0  0  # atno 17342 bound_to 10162
  140.7814  143.4113  151.0987 LP  0  0  0  0  0  0  0  0  0  0  0  0  # atno 17343 bound_to 10162
  156.5898  130.4326  149.5941 LP  0  0  0  0  0  0  0  0  0  0  0  0  # atno 17370 bound_to 10713
  156.2592  130.6952  151.1716 LP  0  0  0  0  0  0  0  0  0  0  0  0  # atno 17371 bound_to 10713
  141.1984  133.8036  157.0583 LP  0  0  0  0  0  0  0  0  0  0  0  0  # atno 17394 bound_to 11000
  140.0627  134.9745  157.1333 LP  0  0  0  0  0  0  0  0  0  0  0  0  # atno 17395 bound_to 11000

$$$$
