AV-unprocessed.smi:2424|AV-procd|sdf|9561|dock1
  -GOLD-   2272013193D 1   1.00000     0.00000
 Structure written by MMmdl.
 50 51  0  0  0  0  0  0  0  0  1 V2000
  150.6745  139.2356  154.7468 C   0  0  0  0  0  0  0  0  0  0  0  0
  149.3010  138.6025  154.4562 C   0  0  0  0  0  0  0  0  0  0  0  0
  148.0794  139.5669  154.4146 C   0  0  0  0  0  0  0  0  0  0  0  0
  148.5071  140.9255  153.8268 C   0  0  0  0  0  0  0  0  0  0  0  0
  147.4254  142.0159  153.8806 C   0  0  0  0  0  0  0  0  0  0  0  0
  146.7390  139.0080  153.8586 C   0  0  1  0  0  0  0  0  0  0  0  0
  146.8613  137.8925  152.9263 N   0  0  0  0  0  0  0  0  0  0  0  0
  145.8483  137.0997  152.5515 C   0  0  0  0  0  0  0  0  0  0  0  0
  144.6974  137.2359  152.9655 O   0  0  0  0  0  0  0  0  0  0  0  0
  146.2672  136.1725  151.6700 N   0  0  0  0  0  0  0  0  0  0  0  0
  145.5380  135.1552  151.0363 C   0  0  0  0  0  0  0  0  0  0  0  0
  144.3963  135.3268  150.3359 C   0  0  0  0  0  0  0  0  0  0  0  0
  143.7402  134.2452  149.7419 N   0  0  0  0  0  0  0  0  0  0  0  0
  144.1669  132.9634  149.8077 C   0  0  0  0  0  0  0  0  0  0  0  0
  143.5334  132.0656  149.2553 O   0  0  0  0  0  0  0  0  0  0  0  0
  145.4076  132.7493  150.5696 C   0  0  0  0  0  0  0  0  0  0  0  0
  145.9424  131.3333  150.6850 C   0  0  0  0  0  0  0  0  0  0  0  0
  146.0405  133.7982  151.1431 C   0  0  0  0  0  0  0  0  0  0  0  0
  146.3527  138.5488  155.2686 C   0  0  2  0  0  0  0  0  0  0  0  0
  144.8819  138.5614  155.6641 C   0  0  0  0  0  0  0  0  0  0  0  0
  147.2864  139.6712  155.7457 C   0  0  1  0  0  0  0  0  0  0  0  0
  148.0745  139.3582  156.8853 O   0  0  0  0  0  0  0  0  0  0  0  0
  149.1068  140.2970  157.1285 C   0  0  0  0  0  0  0  0  0  0  0  0
  142.8932  134.4484  149.2312 H   0  0  0  0  0  0  0  0  0  0  0  0
  151.4625  138.4892  154.6453 H   0  0  0  0  0  0  0  0  0  0  0  0
  150.7362  139.6216  155.7638 H   0  0  0  0  0  0  0  0  0  0  0  0
  150.9109  140.0497  154.0652 H   0  0  0  0  0  0  0  0  0  0  0  0
  149.3819  138.0644  153.5118 H   0  0  0  0  0  0  0  0  0  0  0  0
  149.1337  137.8216  155.1980 H   0  0  0  0  0  0  0  0  0  0  0  0
  149.4190  141.2861  154.3022 H   0  0  0  0  0  0  0  0  0  0  0  0
  148.7835  140.7943  152.7799 H   0  0  0  0  0  0  0  0  0  0  0  0
  147.7704  142.9223  153.3832 H   0  0  0  0  0  0  0  0  0  0  0  0
  147.1712  142.2859  154.9053 H   0  0  0  0  0  0  0  0  0  0  0  0
  146.5117  141.6936  153.3806 H   0  0  0  0  0  0  0  0  0  0  0  0
  146.0709  139.8014  153.5137 H   0  0  0  0  0  0  0  0  0  0  0  0
  147.7770  137.7190  152.5381 H   0  0  0  0  0  0  0  0  0  0  0  0
  147.2434  136.2109  151.4163 H   0  0  0  0  0  0  0  0  0  0  0  0
  143.8872  136.2624  150.1681 H   0  0  0  0  0  0  0  0  0  0  0  0
  146.8584  131.3002  151.2755 H   0  0  0  0  0  0  0  0  0  0  0  0
  146.1636  130.9283  149.6970 H   0  0  0  0  0  0  0  0  0  0  0  0
  145.2081  130.6859  151.1656 H   0  0  0  0  0  0  0  0  0  0  0  0
  146.9510  133.6225  151.6977 H   0  0  0  0  0  0  0  0  0  0  0  0
  146.8027  137.5791  155.4899 H   0  0  0  0  0  0  0  0  0  0  0  0
  144.4388  139.5471  155.5205 H   0  0  0  0  0  0  0  0  0  0  0  0
  144.7461  138.2875  156.7097 H   0  0  0  0  0  0  0  0  0  0  0  0
  144.3091  137.8544  155.0638 H   0  0  0  0  0  0  0  0  0  0  0  0
  146.7723  140.6310  155.8411 H   0  0  0  0  0  0  0  0  0  0  0  0
  149.7084  139.9648  157.9743 H   0  0  0  0  0  0  0  0  0  0  0  0
  148.7013  141.2779  157.3749 H   0  0  0  0  0  0  0  0  0  0  0  0
  149.7658  140.3945  156.2646 H   0  0  0  0  0  0  0  0  0  0  0  0
  1  2  1  0  0  0  0
  1 25  1  0  0  0  0
  1 26  1  0  0  0  0
  1 27  1  0  0  0  0
  2  3  1  0  0  0  0
  2 28  1  0  0  0  0
  2 29  1  0  0  0  0
  3 21  1  0  0  0  0
  3  4  1  0  0  0  0
  3  6  1  0  0  0  0
  4  5  1  0  0  0  0
  4 30  1  0  0  0  0
  4 31  1  0  0  0  0
  5 32  1  0  0  0  0
  5 33  1  0  0  0  0
  5 34  1  0  0  0  0
  6  7  1  0  0  0  0
  6 19  1  0  0  0  0
  6 35  1  0  0  0  0
  7  8  1  0  0  0  0
  7 36  1  0  0  0  0
  8  9  2  0  0  0  0
  8 10  1  0  0  0  0
 10 11  1  0  0  0  0
 10 37  1  0  0  0  0
 11 18  1  0  0  0  0
 11 12  2  0  0  0  0
 12 13  1  0  0  0  0
 12 38  1  0  0  0  0
 13 24  1  0  0  0  0
 13 14  1  0  0  0  0
 14 15  2  0  0  0  0
 14 16  1  0  0  0  0
 16 17  1  0  0  0  0
 16 18  2  0  0  0  0
 17 39  1  0  0  0  0
 17 40  1  0  0  0  0
 17 41  1  0  0  0  0
 18 42  1  0  0  0  0
 19 20  1  0  0  0  0
 19 21  1  0  0  0  0
 19 43  1  0  0  0  0
 20 44  1  0  0  0  0
 20 45  1  0  0  0  0
 20 46  1  0  0  0  0
 21 22  1  0  0  0  0
 21 47  1  0  0  0  0
 22 23  1  0  0  0  0
 23 48  1  0  0  0  0
 23 49  1  0  0  0  0
 23 50  1  0  0  0  0
M  END
> <s_m_source_file>
AV-unprocessed.smi

> <i_m_source_file_index>
2424

> <i_lp_mmshare_version>
43012

> <i_f3d_flags>
0

> <s_epik_input>
W0NIM11PW0NAQEhdMVtDQEhdKFtDSDNdKVtDQEBIXShDMShbQ0gyXVtDSDNdKVtDSDJdW0NIM10pW05IXUMoPU8pW05IXWMyW2NIXVtuSF1jKD1PKWMoW0NIM10pW2NIXTI=

> <s_epik_cmdline>
J2VwaWtfcHl0aG9uJywgJy1waCcsICc3LjAnLCAnLXRuJywgJzgnLCAnLW1hJywgJzIwMCcsICctbWV0YWxfYmluZGluZycsICctaW1hZScsICc8aW5maWxlLm1hZT4nLCAnLW9tYWUnLCAnPG91dGZpbGUubWFlPic=

> <r_lp_tautomer_probability>
1

> <r_epik_Ionization_Penalty>
4.7326e-05

> <r_epik_Ionization_Penalty_Charging>
2.70169e-05

> <r_epik_Ionization_Penalty_Neutral>
2.0309e-05

> <r_epik_State_Penalty>
-0

> <r_epik_Charging_Adjusted_Penalty>
2.70169e-05

> <i_epik_Tot_Q>
0

> <i_epik_Tot_abs_Q>
0

> <r_epik_Metal_State_Penalty>
0.0198736

> <b_epik_Metal_Only>
0

> <s_lp_Force_Field>
OPLS_2005

> <r_lp_Energy>
35.9396

> <b_lp_Chiralities_Consistent>
1

> <s_lp_Variant>
AV-unprocessed.smi:2424-3

> <Gold.Version>
5.8.1

> <Gold.Id.Protein>
6NUR|6NUR_protein|mol2

> <Gold.PLP.Fitness>
48.2961

> <Gold.PLP.PLP>
-36.2810

> <Gold.PLP.part.hbond>
-4.4135

> <Gold.PLP.part.metal>
0.0000

> <Gold.PLP.part.buried>
-5.6776

> <Gold.PLP.part.nonpolar>
-27.7327

> <Gold.PLP.part.repulsive>
0.6290

> <Gold.PLP.ligand.clash>
0.0000

> <Gold.PLP.ligand.torsion>
1.1401

> <Gold.PLP.Chemscore.Hbond>
3.5516

> <Gold.PLP.Chemscore.CHOScore>
1.0000

> <Gold.PLP.Chemscore.Metal>
0.0000

> <Gold.Chemscore.Hbonds>
donor molecule, donor type, donor heavy atom, donor atom, acceptor molecule, acceptor atom, score
      L1  H     7    36       P1  7948  0.85
      L1  H    10    37       P1  7948  1.00
      L1  H    13    24       P1 10186  0.77
      P1  H 10785 10796       L1    15  0.94
      L1  C    12    38       P1 10171  1.00

> <Gold.PLP.Chemscore.Internal.Correction>
0.6405

> <Gold.Rescore>
     Score         DG    S(hbond)    S(metal)    S(lipo)     H(rot)  DE(clash)    DE(int)     intcor
     20.28     -22.56       3.61        0.00      76.91       1.55       0.15       2.14       ----

> <Gold.Chemscore.Fitness>
20.2752

> <Gold.Chemscore.DG>
-22.5638

> <Gold.Chemscore.ZeroCoef>
-5.4800

> <Gold.Chemscore.Hbond>
3.6088

> <Gold.Chemscore.Metal>
0.0000

> <Gold.Chemscore.Lipo>
76.9121

> <Gold.Chemscore.Internal_Hbond>
0.0000

> <Gold.Chemscore.DEClash>
0.1483

> <Gold.Chemscore.DEInternal>
2.1403

> <Gold.Chemscore.Rot>
1.5502

> <Gold.Chemscore.Internal.Correction>
   9.000000E+99

> <Gold.Chemscore.Hbonds>
donor molecule, donor type, donor heavy atom, donor atom, acceptor molecule, acceptor atom, score
      L1  H     7    36       P1  7948  0.82
      L1  H    10    37       P1  7948  0.97
      L1  H    13    24       P1 10186  0.77
      P1  H 10785 10796       L1    15  0.87

> <Gold.Chemscore.Hbond.Weighted>
-12.0536

> <Gold.Chemscore.Metal.Weighted>
-0.0000

> <Gold.Chemscore.Lipo.Weighted>
-8.9987

> <Gold.Chemscore.Internal_Hbond.Weighted>
0.0000

> <Gold.Chemscore.DEClash.Weighted>
0.1483

> <Gold.Chemscore.DEInternal.Weighted>
2.1403

> <Gold.Chemscore.Rot.Weighted>
3.9685

> <Gold.Chemscore.Internal.Correction.Weighted>
   9.000000E+99

> <Gold.Protein.RotatedTorsions>
[ 6907 6896 6895 6894 ] final  143.43 input  -60.11 | X-H torsion
[ 7974 7965 7964 7962 ] final  -96.69 input  175.53 | X-H torsion
[ 8008 7997 7996 7995 ] final -134.84 input   59.86 | X-H torsion
[ 10167 10162 10161 10158 ] final -127.31 input  -65.29 | X-H torsion
[ 10718 10713 10712 10709 ] final   94.63 input   66.30 | X-H torsion
[ 10763 10752 10751 10750 ] final  -62.08 input  -60.55 | X-H torsion
[ 11005 11000 10999 10996 ] final -166.77 input  -57.11 | X-H torsion

> <Gold.Protein.ActiveResidues>
 VAL166  LYS551  ARG553  GLY616  TRP617  ASP618  TYR619  PRO620  LYS621  CYS622 
 ASP623  PHE694  ASN695  SER759  ASP760  ASP761  ALA762  ILE779  LEU786  VAL792 
 PHE793  MET794  SER795  GLU796  ALA797  LYS798  CYS799  TRP800  GLU811  SER814 

> <Gold.Protein.RotatedAtoms>
  152.2064  133.4878  159.5085 H   0  0  0  0  0  0  0  0  0  0  0  0  # atno 6907 bound_to 6896
  150.6980  134.1524  159.4154 H   0  0  0  0  0  0  0  0  0  0  0  0  # atno 6908 bound_to 6896
  151.9442  135.0199  160.0588 H   0  0  0  0  0  0  0  0  0  0  0  0  # atno 6909 bound_to 6896
  145.3435  140.9464  143.2594 H   0  0  0  0  0  0  0  0  0  0  0  0  # atno 7974 bound_to 7965
  155.3688  140.0487  157.3045 H   0  0  0  0  0  0  0  0  0  0  0  0  # atno 8008 bound_to 7997
  154.5140  140.2202  155.9064 H   0  0  0  0  0  0  0  0  0  0  0  0  # atno 8009 bound_to 7997
  156.1616  140.3115  155.8822 H   0  0  0  0  0  0  0  0  0  0  0  0  # atno 8010 bound_to 7997
  139.9622  143.5937  152.2441 H   0  0  0  0  0  0  0  0  0  0  0  0  # atno 10167 bound_to 10162
  157.6946  131.0519  150.4216 H   0  0  0  0  0  0  0  0  0  0  0  0  # atno 10718 bound_to 10713
  154.2944  135.6247  153.5398 H   0  0  0  0  0  0  0  0  0  0  0  0  # atno 10763 bound_to 10752
  152.9848  135.5663  154.5354 H   0  0  0  0  0  0  0  0  0  0  0  0  # atno 10764 bound_to 10752
  154.4972  135.2870  155.1426 H   0  0  0  0  0  0  0  0  0  0  0  0  # atno 10765 bound_to 10752
  140.5607  134.5336  157.5142 H   0  0  0  0  0  0  0  0  0  0  0  0  # atno 11005 bound_to 11000
  144.8772  139.4954  143.6740 LP  0  0  0  0  0  0  0  0  0  0  0  0  # atno 17320 bound_to 7965
  146.2998  139.7389  142.9100 LP  0  0  0  0  0  0  0  0  0  0  0  0  # atno 17321 bound_to 7965
  139.6545  144.7662  151.2083 LP  0  0  0  0  0  0  0  0  0  0  0  0  # atno 17342 bound_to 10162
  140.7549  143.6108  150.8608 LP  0  0  0  0  0  0  0  0  0  0  0  0  # atno 17343 bound_to 10162
  156.4591  130.4028  149.6588 LP  0  0  0  0  0  0  0  0  0  0  0  0  # atno 17370 bound_to 10713
  156.3709  130.7530  151.2513 LP  0  0  0  0  0  0  0  0  0  0  0  0  # atno 17371 bound_to 10713
  139.9409  134.7789  156.0681 LP  0  0  0  0  0  0  0  0  0  0  0  0  # atno 17394 bound_to 11000
  141.1116  133.6641  156.2993 LP  0  0  0  0  0  0  0  0  0  0  0  0  # atno 17395 bound_to 11000

$$$$
