AV-unprocessed.smi:2520|AV-procd|sdf|9914|dock8
  -GOLD-   2272013553D 1   1.00000     0.00000
 Structure written by MMmdl.
 41 44  0  0  0  0  0  0  0  0  1 V2000
  151.5349  140.9484  157.4011 O   0  0  0  0  0  0  0  0  0  0  0  0
  150.8384  141.9615  157.3968 C   0  0  0  0  0  0  0  0  0  0  0  0
  150.9048  142.8559  158.4060 N   0  0  0  0  0  0  0  0  0  0  0  0
  151.6869  142.8768  159.5981 C   0  0  0  0  0  0  0  0  0  0  0  0
  151.4747  144.0013  160.4242 C   0  0  0  0  0  0  0  0  0  0  0  0
  152.2042  144.1008  161.6213 C   0  0  0  0  0  0  0  0  0  0  0  0
  153.1022  143.0613  161.9159 C   0  0  0  0  0  0  0  0  0  0  0  0
  153.2736  142.0000  161.0990 N   0  0  0  0  0  0  0  0  0  0  0  0
  152.5747  141.9135  159.9624 N   0  0  0  0  0  0  0  0  0  0  0  0
  149.9813  142.2479  156.4050 N   0  0  0  0  0  0  0  0  0  0  0  0
  149.8001  141.4585  155.1934 C   0  0  1  0  0  0  0  0  0  0  0  0
  149.8465  139.9562  155.4721 C   0  0  2  0  0  0  0  0  0  0  0  0
  150.7923  138.8625  155.1256 C   0  0  0  0  0  0  0  0  0  0  0  0
  149.7494  137.8244  154.6335 C   0  0  0  0  0  0  0  0  0  0  0  0
  148.4946  138.5398  154.5302 O   0  0  0  0  0  0  0  0  0  0  0  0
  148.8835  139.8801  154.3053 C   0  0  1  0  0  0  0  0  0  0  0  0
  148.2896  141.2099  154.8136 C   0  0  0  0  0  0  0  0  0  0  0  0
  147.6816  142.1439  153.7577 C   0  0  0  0  0  0  0  0  0  0  0  0
  146.3008  142.5947  154.2403 C   0  0  0  0  0  0  0  0  0  0  0  0
  146.3253  142.3784  155.7465 C   0  0  0  0  0  0  0  0  0  0  0  0
  147.2160  141.1528  155.9202 C   0  0  0  0  0  0  0  0  0  0  0  0
  150.2670  143.6330  158.3144 H   0  0  0  0  0  0  0  0  0  0  0  0
  150.7703  144.7728  160.1491 H   0  0  0  0  0  0  0  0  0  0  0  0
  152.0801  144.9413  162.2877 H   0  0  0  0  0  0  0  0  0  0  0  0
  153.6925  143.0794  162.8201 H   0  0  0  0  0  0  0  0  0  0  0  0
  149.4400  143.0977  156.4802 H   0  0  0  0  0  0  0  0  0  0  0  0
  150.4341  141.7669  154.3569 H   0  0  0  0  0  0  0  0  0  0  0  0
  149.3638  139.7306  156.4282 H   0  0  0  0  0  0  0  0  0  0  0  0
  151.4825  139.1558  154.3334 H   0  0  0  0  0  0  0  0  0  0  0  0
  151.3634  138.5086  155.9841 H   0  0  0  0  0  0  0  0  0  0  0  0
  150.0356  137.4153  153.6638 H   0  0  0  0  0  0  0  0  0  0  0  0
  149.6388  136.9948  155.3323 H   0  0  0  0  0  0  0  0  0  0  0  0
  149.3623  139.9858  153.3249 H   0  0  0  0  0  0  0  0  0  0  0  0
  148.3175  143.0179  153.6170 H   0  0  0  0  0  0  0  0  0  0  0  0
  147.6044  141.6618  152.7825 H   0  0  0  0  0  0  0  0  0  0  0  0
  146.0759  143.6263  153.9678 H   0  0  0  0  0  0  0  0  0  0  0  0
  145.5343  141.9588  153.7955 H   0  0  0  0  0  0  0  0  0  0  0  0
  146.7853  143.2392  156.2340 H   0  0  0  0  0  0  0  0  0  0  0  0
  145.3306  142.2430  156.1716 H   0  0  0  0  0  0  0  0  0  0  0  0
  146.6117  140.2527  155.8009 H   0  0  0  0  0  0  0  0  0  0  0  0
  147.6268  141.1182  156.9292 H   0  0  0  0  0  0  0  0  0  0  0  0
  1  2  2  0  0  0  0
  2  3  1  0  0  0  0
  2 10  1  0  0  0  0
  3  4  1  0  0  0  0
  3 22  1  0  0  0  0
  4  9  1  0  0  0  0
  4  5  2  0  0  0  0
  5  6  1  0  0  0  0
  5 23  1  0  0  0  0
  6  7  2  0  0  0  0
  6 24  1  0  0  0  0
  7  8  1  0  0  0  0
  7 25  1  0  0  0  0
  8  9  2  0  0  0  0
 10 11  1  0  0  0  0
 10 26  1  0  0  0  0
 11 17  1  0  0  0  0
 11 12  1  0  0  0  0
 11 27  1  0  0  0  0
 12 16  1  0  0  0  0
 12 13  1  0  0  0  0
 12 28  1  0  0  0  0
 13 14  1  0  0  0  0
 13 29  1  0  0  0  0
 13 30  1  0  0  0  0
 14 15  1  0  0  0  0
 14 31  1  0  0  0  0
 14 32  1  0  0  0  0
 15 16  1  0  0  0  0
 16 17  1  0  0  0  0
 16 33  1  0  0  0  0
 17 21  1  0  0  0  0
 17 18  1  0  0  0  0
 18 19  1  0  0  0  0
 18 34  1  0  0  0  0
 18 35  1  0  0  0  0
 19 20  1  0  0  0  0
 19 36  1  0  0  0  0
 19 37  1  0  0  0  0
 20 21  1  0  0  0  0
 20 38  1  0  0  0  0
 20 39  1  0  0  0  0
 21 40  1  0  0  0  0
 21 41  1  0  0  0  0
M  END
> <s_m_source_file>
AV-unprocessed.smi

> <i_m_source_file_index>
2520

> <i_lp_mmshare_version>
43012

> <i_f3d_flags>
0

> <s_epik_input>
bjFuW2NIXVtjSF1bY0hdYzFbTkhdQyg9TylbTkhdW0NAQEhdMltDQEBIXShbQ0gyXVtDSDJdTzMpW0NASF0zQzI0W0NIMl1bQ0gyXVtDSDJdW0NIMl00

> <s_epik_cmdline>
J2VwaWtfcHl0aG9uJywgJy1waCcsICc3LjAnLCAnLXRuJywgJzgnLCAnLW1hJywgJzIwMCcsICctbWV0YWxfYmluZGluZycsICctaW1hZScsICc8aW5maWxlLm1hZT4nLCAnLW9tYWUnLCAnPG91dGZpbGUubWFlPic=

> <r_lp_tautomer_probability>
1

> <r_epik_Ionization_Penalty>
0.00552561

> <r_epik_Ionization_Penalty_Charging>
0

> <r_epik_Ionization_Penalty_Neutral>
0.00552561

> <r_epik_State_Penalty>
-0

> <r_epik_Charging_Adjusted_Penalty>
0

> <i_epik_Tot_Q>
0

> <i_epik_Tot_abs_Q>
0

> <r_epik_Metal_State_Penalty>
-0

> <b_epik_Metal_Only>
0

> <s_lp_Force_Field>
OPLS_2005

> <r_lp_Energy>
83.483

> <b_lp_Chiralities_Consistent>
1

> <s_lp_Variant>
AV-unprocessed.smi:2520-8

> <Gold.Version>
5.8.1

> <Gold.Id.Protein>
6NUR|6NUR_protein|mol2

> <Gold.PLP.Fitness>
40.7195

> <Gold.PLP.PLP>
-38.0595

> <Gold.PLP.part.hbond>
-1.0000

> <Gold.PLP.part.metal>
0.0000

> <Gold.PLP.part.buried>
-6.5786

> <Gold.PLP.part.nonpolar>
-30.7104

> <Gold.PLP.part.repulsive>
0.2785

> <Gold.PLP.ligand.clash>
0.0384

> <Gold.PLP.ligand.torsion>
0.2318

> <Gold.PLP.Chemscore.Hbond>
0.9600

> <Gold.PLP.Chemscore.CHOScore>
0.0000

> <Gold.PLP.Chemscore.Metal>
0.0000

> <Gold.Chemscore.Hbonds>
donor molecule, donor type, donor heavy atom, donor atom, acceptor molecule, acceptor atom, score
      L1  H    10    26       P1  8028  0.96

> <Gold.PLP.Chemscore.Internal.Correction>
0.2821

> <Gold.Rescore>
     Score         DG    S(hbond)    S(metal)    S(lipo)     H(rot)  DE(clash)    DE(int)     intcor
     13.79     -17.13       0.98        0.00      93.64       1.00       0.39       2.95       ----

> <Gold.Chemscore.Fitness>
13.7926

> <Gold.Chemscore.DG>
-17.1339

> <Gold.Chemscore.ZeroCoef>
-5.4800

> <Gold.Chemscore.Hbond>
0.9754

> <Gold.Chemscore.Metal>
0.0000

> <Gold.Chemscore.Lipo>
93.6415

> <Gold.Chemscore.Internal_Hbond>
0.0000

> <Gold.Chemscore.DEClash>
0.3879

> <Gold.Chemscore.DEInternal>
2.9534

> <Gold.Chemscore.Rot>
1.0000

> <Gold.Chemscore.Internal.Correction>
   9.000000E+99

> <Gold.Chemscore.Hbonds>
donor molecule, donor type, donor heavy atom, donor atom, acceptor molecule, acceptor atom, score
      L1  H    10    26       P1  8028  0.92

> <Gold.Chemscore.Hbond.Weighted>
-3.2579

> <Gold.Chemscore.Metal.Weighted>
-0.0000

> <Gold.Chemscore.Lipo.Weighted>
-10.9561

> <Gold.Chemscore.Internal_Hbond.Weighted>
0.0000

> <Gold.Chemscore.DEClash.Weighted>
0.3879

> <Gold.Chemscore.DEInternal.Weighted>
2.9534

> <Gold.Chemscore.Rot.Weighted>
2.5600

> <Gold.Chemscore.Internal.Correction.Weighted>
   9.000000E+99

> <Gold.Protein.RotatedTorsions>
[ 6907 6896 6895 6894 ] final   83.24 input  -60.11 | X-H torsion
[ 7974 7965 7964 7962 ] final -168.83 input  175.53 | X-H torsion
[ 8008 7997 7996 7995 ] final   71.21 input   59.86 | X-H torsion
[ 10167 10162 10161 10158 ] final -138.00 input  -65.29 | X-H torsion
[ 10718 10713 10712 10709 ] final   52.38 input   66.30 | X-H torsion
[ 10763 10752 10751 10750 ] final  -47.88 input  -60.55 | X-H torsion
[ 11005 11000 10999 10996 ] final  150.18 input  -57.11 | X-H torsion

> <Gold.Protein.ActiveResidues>
 VAL166  LYS551  ARG553  GLY616  TRP617  ASP618  TYR619  PRO620  LYS621  CYS622 
 ASP623  PHE694  ASN695  SER759  ASP760  ASP761  ALA762  ILE779  LEU786  VAL792 
 PHE793  MET794  SER795  GLU796  ALA797  LYS798  CYS799  TRP800  GLU811  SER814 

> <Gold.Protein.RotatedAtoms>
  152.5322  134.2926  159.9048 H   0  0  0  0  0  0  0  0  0  0  0  0  # atno 6907 bound_to 6896
  151.2878  133.4173  159.2638 H   0  0  0  0  0  0  0  0  0  0  0  0  # atno 6908 bound_to 6896
  151.0227  134.9497  159.8125 H   0  0  0  0  0  0  0  0  0  0  0  0  # atno 6909 bound_to 6896
  144.7196  140.2312  143.6304 H   0  0  0  0  0  0  0  0  0  0  0  0  # atno 7974 bound_to 7965
  155.7504  140.3488  155.5147 H   0  0  0  0  0  0  0  0  0  0  0  0  # atno 8008 bound_to 7997
  155.9010  140.1034  157.1371 H   0  0  0  0  0  0  0  0  0  0  0  0  # atno 8009 bound_to 7997
  154.4044  140.1286  156.4423 H   0  0  0  0  0  0  0  0  0  0  0  0  # atno 8010 bound_to 7997
  139.8521  143.7185  152.2657 H   0  0  0  0  0  0  0  0  0  0  0  0  # atno 10167 bound_to 10162
  157.5069  130.8475  149.8386 H   0  0  0  0  0  0  0  0  0  0  0  0  # atno 10718 bound_to 10713
  154.0687  135.6608  153.4821 H   0  0  0  0  0  0  0  0  0  0  0  0  # atno 10763 bound_to 10752
  153.0399  135.5152  154.7588 H   0  0  0  0  0  0  0  0  0  0  0  0  # atno 10764 bound_to 10752
  154.6647  135.3020  154.9788 H   0  0  0  0  0  0  0  0  0  0  0  0  # atno 10765 bound_to 10752
  140.1109  134.8925  157.1934 H   0  0  0  0  0  0  0  0  0  0  0  0  # atno 11005 bound_to 11000
  145.8409  139.2129  143.1828 LP  0  0  0  0  0  0  0  0  0  0  0  0  # atno 17320 bound_to 7965
  146.0347  140.8223  142.9858 LP  0  0  0  0  0  0  0  0  0  0  0  0  # atno 17321 bound_to 7965
  139.7455  144.7548  151.0587 LP  0  0  0  0  0  0  0  0  0  0  0  0  # atno 17342 bound_to 10162
  140.7786  143.4922  150.9879 LP  0  0  0  0  0  0  0  0  0  0  0  0  # atno 17343 bound_to 10162
  156.0264  130.3778  150.1811 LP  0  0  0  0  0  0  0  0  0  0  0  0  # atno 17370 bound_to 10713
  157.0001  130.9920  151.3393 LP  0  0  0  0  0  0  0  0  0  0  0  0  # atno 17371 bound_to 10713
  140.3093  134.3042  155.7270 LP  0  0  0  0  0  0  0  0  0  0  0  0  # atno 17394 bound_to 11000
  141.2130  133.7640  156.9753 LP  0  0  0  0  0  0  0  0  0  0  0  0  # atno 17395 bound_to 11000

$$$$
