AV-unprocessed.smi:1867|AV-procd|sdf|7561|dock8
  -GOLD-   22720 9273D 1   1.00000     0.00000
 Structure written by MMmdl.
 52 55  0  0  0  0  0  0  0  0  2 V2000
  147.3084  140.1584  154.2446 O   0  0  0  0  0  0  0  0  0  0  0  0
  147.7465  139.0674  154.6008 C   0  0  0  0  0  0  0  0  0  0  0  0
  148.7357  138.8927  155.4987 N   0  0  0  0  0  0  0  0  0  0  0  0
  149.5173  139.8770  156.1602 C   0  0  0  0  0  0  0  0  0  0  0  0
  149.8493  141.0456  155.4484 C   0  0  0  0  0  0  0  0  0  0  0  0
  150.6067  142.0476  156.0831 C   0  0  0  0  0  0  0  0  0  0  0  0
  151.0110  141.8563  157.4253 C   0  0  0  0  0  0  0  0  0  0  0  0
  151.7703  142.8334  158.0993 N   0  0  0  0  0  0  0  0  0  0  0  0
  152.1871  142.6530  159.4836 C   0  0  0  0  0  0  0  0  0  0  0  0
  152.3484  144.0657  160.0573 C   0  0  0  0  0  0  0  0  0  0  0  0
  152.5064  144.9560  158.8247 C   0  0  0  0  0  0  0  0  0  0  0  0
  151.6536  144.2468  157.7746 C   0  0  0  0  0  0  0  0  0  0  0  0
  150.6727  140.7429  158.1181 N   0  0  0  0  0  0  0  0  0  0  0  0
  149.9486  139.7836  157.5046 C   0  0  0  0  0  0  0  0  0  0  0  0
  147.2391  137.9231  154.1067 N   0  0  0  0  0  0  0  0  0  0  0  0
  146.1663  137.7454  153.1229 C   0  0  1  0  0  0  0  0  0  0  0  0
  146.5028  138.3777  151.7584 C   0  0  0  0  0  0  0  0  0  0  0  0
  145.9847  137.3727  150.7254 C   0  0  0  0  0  0  0  0  0  0  0  0
  146.1948  136.0828  151.3915 N   0  3  2  0  0  0  0  0  0  0  0  0
  145.5910  134.8736  150.7962 C   0  0  0  0  0  0  0  0  0  0  0  0
  146.1125  133.6403  151.5644 C   0  0  0  0  0  0  0  0  0  0  0  0
  145.9095  133.7727  153.0909 C   0  0  0  0  0  0  0  0  0  0  0  0
  146.4471  135.1169  153.6285 C   0  0  0  0  0  0  0  0  0  0  0  0
  145.8326  136.2659  152.8079 C   0  0  1  0  0  0  0  0  0  0  0  0
  148.9270  137.9390  155.7676 H   0  0  0  0  0  0  0  0  0  0  0  0
  149.5298  141.1762  154.4246 H   0  0  0  0  0  0  0  0  0  0  0  0
  150.8590  142.9456  155.5389 H   0  0  0  0  0  0  0  0  0  0  0  0
  151.4601  142.0810  160.0611 H   0  0  0  0  0  0  0  0  0  0  0  0
  153.1369  142.1178  159.4996 H   0  0  0  0  0  0  0  0  0  0  0  0
  151.4416  144.3459  160.5945 H   0  0  0  0  0  0  0  0  0  0  0  0
  153.1859  144.1468  160.7507 H   0  0  0  0  0  0  0  0  0  0  0  0
  152.1961  145.9867  158.9978 H   0  0  0  0  0  0  0  0  0  0  0  0
  153.5504  144.9650  158.5087 H   0  0  0  0  0  0  0  0  0  0  0  0
  152.0007  144.4582  156.7626 H   0  0  0  0  0  0  0  0  0  0  0  0
  150.6101  144.5545  157.8545 H   0  0  0  0  0  0  0  0  0  0  0  0
  149.7008  138.9396  158.1289 H   0  0  0  0  0  0  0  0  0  0  0  0
  147.6586  137.0715  154.4514 H   0  0  0  0  0  0  0  0  0  0  0  0
  145.2598  138.2334  153.4855 H   0  0  0  0  0  0  0  0  0  0  0  0
  146.0630  139.3678  151.6331 H   0  0  0  0  0  0  0  0  0  0  0  0
  147.5834  138.4819  151.6451 H   0  0  0  0  0  0  0  0  0  0  0  0
  144.9200  137.5248  150.5402 H   0  0  0  0  0  0  0  0  0  0  0  0
  146.5152  137.4335  149.7747 H   0  0  0  0  0  0  0  0  0  0  0  0
  144.5026  134.9326  150.8452 H   0  0  0  0  0  0  0  0  0  0  0  0
  145.8657  134.8040  149.7431 H   0  0  0  0  0  0  0  0  0  0  0  0
  145.6226  132.7375  151.1986 H   0  0  0  0  0  0  0  0  0  0  0  0
  147.1762  133.5153  151.3578 H   0  0  0  0  0  0  0  0  0  0  0  0
  144.8453  133.6955  153.3180 H   0  0  0  0  0  0  0  0  0  0  0  0
  146.3932  132.9424  153.6065 H   0  0  0  0  0  0  0  0  0  0  0  0
  146.1912  135.2151  154.6835 H   0  0  0  0  0  0  0  0  0  0  0  0
  147.5356  135.1394  153.5606 H   0  0  0  0  0  0  0  0  0  0  0  0
  144.7460  136.1793  152.8802 H   0  0  0  0  0  0  0  0  0  0  0  0
  147.1943  135.9370  151.3788 H   0  0  0  0  0  0  0  0  0  0  0  0
  1  2  2  0  0  0  0
  2  3  1  0  0  0  0
  2 15  1  0  0  0  0
  3  4  1  0  0  0  0
  3 25  1  0  0  0  0
  4 14  1  0  0  0  0
  4  5  2  0  0  0  0
  5  6  1  0  0  0  0
  5 26  1  0  0  0  0
  6  7  2  0  0  0  0
  6 27  1  0  0  0  0
  7  8  1  0  0  0  0
  7 13  1  0  0  0  0
  8 12  1  0  0  0  0
  8  9  1  0  0  0  0
  9 10  1  0  0  0  0
  9 28  1  0  0  0  0
  9 29  1  0  0  0  0
 10 11  1  0  0  0  0
 10 30  1  0  0  0  0
 10 31  1  0  0  0  0
 11 12  1  0  0  0  0
 11 32  1  0  0  0  0
 11 33  1  0  0  0  0
 12 34  1  0  0  0  0
 12 35  1  0  0  0  0
 13 14  2  0  0  0  0
 14 36  1  0  0  0  0
 15 16  1  0  0  0  0
 15 37  1  0  0  0  0
 16 24  1  0  0  0  0
 16 17  1  0  0  0  0
 16 38  1  0  0  0  0
 17 18  1  0  0  0  0
 17 39  1  0  0  0  0
 17 40  1  0  0  0  0
 18 19  1  0  0  0  0
 18 41  1  0  0  0  0
 18 42  1  0  0  0  0
 19 24  1  0  0  0  0
 19 20  1  0  0  0  0
 19 52  1  0  0  0  0
 20 21  1  0  0  0  0
 20 43  1  0  0  0  0
 20 44  1  0  0  0  0
 21 22  1  0  0  0  0
 21 45  1  0  0  0  0
 21 46  1  0  0  0  0
 22 23  1  0  0  0  0
 22 47  1  0  0  0  0
 22 48  1  0  0  0  0
 23 24  1  0  0  0  0
 23 49  1  0  0  0  0
 23 50  1  0  0  0  0
 24 51  1  0  0  0  0
M  CHG  1  19   1
M  END
> <s_m_source_file>
AV-unprocessed.smi

> <i_m_source_file_index>
1867

> <i_lp_mmshare_version>
43012

> <i_f3d_flags>
0

> <s_epik_input>
W0NIMl0xW0NIMl1bQ0gyXVtDSDJdW0NASF0oTjEyKVtDQEBIXShbQ0gyXVtDSDJdMilbTkhdQyg9TylbTkhdYzNbY0hdW2NIXWMobltjSF0zKU40W0NIMl1bQ0gyXVtDSDJdW0NIMl00

> <s_epik_cmdline>
J2VwaWtfcHl0aG9uJywgJy1waCcsICc3LjAnLCAnLXRuJywgJzgnLCAnLW1hJywgJzIwMCcsICctbWV0YWxfYmluZGluZycsICctaW1hZScsICc8aW5maWxlLm1hZT4nLCAnLW9tYWUnLCAnPG91dGZpbGUubWFlPic=

> <r_lp_tautomer_probability>
1

> <r_epik_Ionization_Penalty>
0.0751123

> <r_epik_Ionization_Penalty_Charging>
0.000974069

> <r_epik_Ionization_Penalty_Neutral>
0.0741382

> <r_epik_State_Penalty>
0.0647261

> <r_epik_Charging_Adjusted_Penalty>
0.0657002

> <i_epik_Tot_Q>
1

> <i_epik_Tot_abs_Q>
1

> <r_epik_Metal_State_Penalty>
0.0580571

> <b_epik_Metal_Only>
0

> <s_lp_Force_Field>
OPLS_2005

> <r_lp_Energy>
77.0679

> <b_lp_Chiralities_Consistent>
1

> <s_lp_Variant>
AV-unprocessed.smi:1867-2

> <Gold.Version>
5.8.1

> <Gold.Id.Protein>
6NUR|6NUR_protein|mol2

> <Gold.PLP.Fitness>
46.8199

> <Gold.PLP.PLP>
-41.5182

> <Gold.PLP.part.hbond>
-1.1282

> <Gold.PLP.part.metal>
0.0000

> <Gold.PLP.part.buried>
0.7020

> <Gold.PLP.part.nonpolar>
-41.2733

> <Gold.PLP.part.repulsive>
0.2020

> <Gold.PLP.ligand.clash>
0.0000

> <Gold.PLP.ligand.torsion>
0.4508

> <Gold.PLP.Chemscore.Hbond>
2.0000

> <Gold.PLP.Chemscore.CHOScore>
0.0000

> <Gold.PLP.Chemscore.Metal>
0.0000

> <Gold.Chemscore.Hbonds>
donor molecule, donor type, donor heavy atom, donor atom, acceptor molecule, acceptor atom, score
      L1  H    19    52       P1  7948  2.00

> <Gold.PLP.Chemscore.Internal.Correction>
0.2033

> <Gold.Rescore>
     Score         DG    S(hbond)    S(metal)    S(lipo)     H(rot)  DE(clash)    DE(int)     intcor
     16.67     -19.98       0.99        0.00     117.47       1.00       1.67       1.64       ----

> <Gold.Chemscore.Fitness>
16.6668

> <Gold.Chemscore.DG>
-19.9804

> <Gold.Chemscore.ZeroCoef>
-5.4800

> <Gold.Chemscore.Hbond>
0.9928

> <Gold.Chemscore.Metal>
0.0000

> <Gold.Chemscore.Lipo>
117.4737

> <Gold.Chemscore.Internal_Hbond>
0.0000

> <Gold.Chemscore.DEClash>
1.6715

> <Gold.Chemscore.DEInternal>
1.6421

> <Gold.Chemscore.Rot>
1.0000

> <Gold.Chemscore.Internal.Correction>
   9.000000E+99

> <Gold.Chemscore.Hbonds>
donor molecule, donor type, donor heavy atom, donor atom, acceptor molecule, acceptor atom, score
      L1  H    19    52       P1  7948  0.99

> <Gold.Chemscore.Hbond.Weighted>
-3.3160

> <Gold.Chemscore.Metal.Weighted>
-0.0000

> <Gold.Chemscore.Lipo.Weighted>
-13.7444

> <Gold.Chemscore.Internal_Hbond.Weighted>
0.0000

> <Gold.Chemscore.DEClash.Weighted>
1.6715

> <Gold.Chemscore.DEInternal.Weighted>
1.6421

> <Gold.Chemscore.Rot.Weighted>
2.5600

> <Gold.Chemscore.Internal.Correction.Weighted>
   9.000000E+99

> <Gold.Protein.RotatedTorsions>
[ 6907 6896 6895 6894 ] final  -58.13 input  -60.11 | X-H torsion
[ 7974 7965 7964 7962 ] final   68.32 input  175.53 | X-H torsion
[ 8008 7997 7996 7995 ] final -106.55 input   59.86 | X-H torsion
[ 10167 10162 10161 10158 ] final  -18.78 input  -65.29 | X-H torsion
[ 10718 10713 10712 10709 ] final  123.39 input   66.30 | X-H torsion
[ 10763 10752 10751 10750 ] final  -68.52 input  -60.55 | X-H torsion
[ 11005 11000 10999 10996 ] final  -26.22 input  -57.11 | X-H torsion

> <Gold.Protein.ActiveResidues>
 VAL166  LYS551  ARG553  GLY616  TRP617  ASP618  TYR619  PRO620  LYS621  CYS622 
 ASP623  PHE694  ASN695  SER759  ASP760  ASP761  ALA762  ILE779  LEU786  VAL792 
 PHE793  MET794  SER795  GLU796  ALA797  LYS798  CYS799  TRP800  GLU811  SER814 

> <Gold.Protein.RotatedAtoms>
  150.8031  134.7138  159.6618 H   0  0  0  0  0  0  0  0  0  0  0  0  # atno 6907 bound_to 6896
  152.4149  134.6056  160.0021 H   0  0  0  0  0  0  0  0  0  0  0  0  # atno 6908 bound_to 6896
  151.6288  133.3296  159.3140 H   0  0  0  0  0  0  0  0  0  0  0  0  # atno 6909 bound_to 6896
  145.8040  139.2997  143.1138 H   0  0  0  0  0  0  0  0  0  0  0  0  # atno 7974 bound_to 7965
  154.9163  140.0408  157.1973 H   0  0  0  0  0  0  0  0  0  0  0  0  # atno 8008 bound_to 7997
  154.8298  140.2897  155.5708 H   0  0  0  0  0  0  0  0  0  0  0  0  # atno 8009 bound_to 7997
  156.2986  140.2503  156.3222 H   0  0  0  0  0  0  0  0  0  0  0  0  # atno 8010 bound_to 7997
  140.7262  143.4882  151.0026 H   0  0  0  0  0  0  0  0  0  0  0  0  # atno 10167 bound_to 10162
  157.5668  131.1086  150.8440 H   0  0  0  0  0  0  0  0  0  0  0  0  # atno 10718 bound_to 10713
  154.3902  135.6054  153.5839 H   0  0  0  0  0  0  0  0  0  0  0  0  # atno 10763 bound_to 10752
  152.9787  135.5882  154.4306 H   0  0  0  0  0  0  0  0  0  0  0  0  # atno 10764 bound_to 10752
  154.4089  135.2844  155.2027 H   0  0  0  0  0  0  0  0  0  0  0  0  # atno 10765 bound_to 10752
  140.9009  133.7525  156.0542 H   0  0  0  0  0  0  0  0  0  0  0  0  # atno 11005 bound_to 11000
  145.9847  140.8653  143.0096 LP  0  0  0  0  0  0  0  0  0  0  0  0  # atno 17320 bound_to 7965
  144.6765  140.2131  143.7375 LP  0  0  0  0  0  0  0  0  0  0  0  0  # atno 17321 bound_to 7965
  139.8585  143.7345  152.3174 LP  0  0  0  0  0  0  0  0  0  0  0  0  # atno 17342 bound_to 10162
  139.7552  144.7523  151.0446 LP  0  0  0  0  0  0  0  0  0  0  0  0  # atno 17343 bound_to 10162
  156.8922  130.5217  149.5286 LP  0  0  0  0  0  0  0  0  0  0  0  0  # atno 17370 bound_to 10713
  156.0716  130.5747  150.9394 LP  0  0  0  0  0  0  0  0  0  0  0  0  # atno 17371 bound_to 10713
  140.8231  134.3266  157.5375 LP  0  0  0  0  0  0  0  0  0  0  0  0  # atno 17394 bound_to 11000
  139.8742  134.9321  156.3544 LP  0  0  0  0  0  0  0  0  0  0  0  0  # atno 17395 bound_to 11000

$$$$
