AV-unprocessed.smi:1385|AV-procd|sdf|5635|dock6
  -GOLD-   22720 5253D 1   1.00000     0.00000
 Structure written by MMmdl.
 38 39  0  0  0  0  0  0  0  0  3 V2000
  150.9554  141.9263  156.3676 C   0  0  0  0  0  0  0  0  0  0  0  0
  150.5315  140.7257  155.5929 C   0  0  0  0  0  0  0  0  0  0  0  0
  151.4018  139.9156  154.9777 N   0  0  0  0  0  0  0  0  0  0  0  0
  150.7714  138.8677  154.3213 N   0  0  0  0  0  0  0  0  0  0  0  0
  149.4400  138.9178  154.4637 C   0  0  0  0  0  0  0  0  0  0  0  0
  148.5487  137.9716  153.8925 N   0  0  0  0  0  0  0  0  0  0  0  0
  147.2754  137.7121  154.2382 C   0  0  0  0  0  0  0  0  0  0  0  0
  146.6478  138.2827  155.1306 O   0  0  0  0  0  0  0  0  0  0  0  0
  146.7577  136.7339  153.4807 N   0  0  0  0  0  0  0  0  0  0  0  0
  145.3977  136.2073  153.5927 C   0  0  2  0  0  0  0  0  0  0  0  0
  145.3927  134.7008  153.9177 C   0  0  0  0  0  0  0  0  0  0  0  0
  145.8764  133.8526  152.7280 C   0  0  0  0  0  0  0  0  0  0  0  0
  145.0723  134.1292  151.5066 N   0  3  2  0  0  0  0  0  0  0  0  0
  145.4239  133.2490  150.3643 C   0  0  0  0  0  0  0  0  0  0  0  0
  144.1945  132.9988  149.4841 C   0  0  0  0  0  0  0  0  0  0  0  0
  143.7974  134.1063  148.8289 N   0  5  0  0  0  0  0  0  0  0  0  0
  143.7021  131.8734  149.4338 O   0  0  0  0  0  0  0  0  0  0  0  0
  145.1121  135.5674  151.1380 C   0  0  0  0  0  0  0  0  0  0  0  0
  144.6154  136.4574  152.2923 C   0  0  0  0  0  0  0  0  0  0  0  0
  148.8431  140.2609  155.4232 S   0  0  0  0  0  0  0  0  0  0  0  0
  151.9413  142.2624  156.0446 H   0  0  0  0  0  0  0  0  0  0  0  0
  150.9971  141.6870  157.4302 H   0  0  0  0  0  0  0  0  0  0  0  0
  150.2446  142.7393  156.2181 H   0  0  0  0  0  0  0  0  0  0  0  0
  148.9297  137.4218  153.1367 H   0  0  0  0  0  0  0  0  0  0  0  0
  147.3466  136.3252  152.7699 H   0  0  0  0  0  0  0  0  0  0  0  0
  144.8929  136.7434  154.3985 H   0  0  0  0  0  0  0  0  0  0  0  0
  146.0041  134.4944  154.7970 H   0  0  0  0  0  0  0  0  0  0  0  0
  144.3786  134.3963  154.1798 H   0  0  0  0  0  0  0  0  0  0  0  0
  146.9300  134.0511  152.5259 H   0  0  0  0  0  0  0  0  0  0  0  0
  145.8040  132.7984  152.9960 H   0  0  0  0  0  0  0  0  0  0  0  0
  146.1672  133.7373  149.7328 H   0  0  0  0  0  0  0  0  0  0  0  0
  145.8824  132.3249  150.7236 H   0  0  0  0  0  0  0  0  0  0  0  0
  142.8436  134.4550  148.9827 H   0  0  0  0  0  0  0  0  0  0  0  0
  146.1295  135.8424  150.8552 H   0  0  0  0  0  0  0  0  0  0  0  0
  144.4846  135.7390  150.2628 H   0  0  0  0  0  0  0  0  0  0  0  0
  143.5581  136.2537  152.4673 H   0  0  0  0  0  0  0  0  0  0  0  0
  144.6776  137.5089  152.0092 H   0  0  0  0  0  0  0  0  0  0  0  0
  144.1108  133.9170  151.7324 H   0  0  0  0  0  0  0  0  0  0  0  0
  1  2  1  0  0  0  0
  1 21  1  0  0  0  0
  1 22  1  0  0  0  0
  1 23  1  0  0  0  0
  2 20  1  0  0  0  0
  2  3  2  0  0  0  0
  3  4  1  0  0  0  0
  4  5  2  0  0  0  0
  5  6  1  0  0  0  0
  5 20  1  0  0  0  0
  6  7  1  0  0  0  0
  6 24  1  0  0  0  0
  7  8  2  0  0  0  0
  7  9  1  0  0  0  0
  9 10  1  0  0  0  0
  9 25  1  0  0  0  0
 10 19  1  0  0  0  0
 10 11  1  0  0  0  0
 10 26  1  0  0  0  0
 11 12  1  0  0  0  0
 11 27  1  0  0  0  0
 11 28  1  0  0  0  0
 12 13  1  0  0  0  0
 12 29  1  0  0  0  0
 12 30  1  0  0  0  0
 13 14  1  0  0  0  0
 13 18  1  0  0  0  0
 13 38  1  0  0  0  0
 14 15  1  0  0  0  0
 14 31  1  0  0  0  0
 14 32  1  0  0  0  0
 15 16  1  0  0  0  0
 15 17  2  0  0  0  0
 16 33  1  0  0  0  0
 18 19  1  0  0  0  0
 18 34  1  0  0  0  0
 18 35  1  0  0  0  0
 19 36  1  0  0  0  0
 19 37  1  0  0  0  0
M  CHG  1  13   1
M  CHG  1  16  -1
M  END
> <s_m_source_file>
AV-unprocessed.smi

> <i_m_source_file_index>
1385

> <i_lp_mmshare_version>
43012

> <i_f3d_flags>
0

> <s_epik_input>
W0NIM11jMW5uYyhzMSlbTkhdQyg9TylbTkhdW0NIXTJbQ0gyXVtDSDJdTihbQ0gyXVtDSDJdMilbQ0gyXUMoPU8pW05IMl0=

> <s_epik_cmdline>
J2VwaWtfcHl0aG9uJywgJy1waCcsICc3LjAnLCAnLXRuJywgJzgnLCAnLW1hJywgJzIwMCcsICctbWV0YWxfYmluZGluZycsICctaW1hZScsICc8aW5maWxlLm1hZT4nLCAnLW9tYWUnLCAnPG91dGZpbGUubWFlPic=

> <r_lp_tautomer_probability>
1

> <r_epik_Ionization_Penalty>
5.73549

> <r_epik_Ionization_Penalty_Charging>
5.73152

> <r_epik_Ionization_Penalty_Neutral>
0.00396448

> <r_epik_State_Penalty>
6.57436

> <r_epik_Charging_Adjusted_Penalty>
12.3059

> <i_epik_Tot_Q>
0

> <i_epik_Tot_abs_Q>
2

> <r_epik_Metal_State_Penalty>
2.87628

> <b_epik_Metal_Only>
1

> <s_lp_Force_Field>
OPLS_2005

> <r_lp_Energy>
6.46457

> <b_lp_Chiralities_Consistent>
1

> <s_lp_Variant>
AV-unprocessed.smi:1385-8

> <Gold.Version>
5.8.1

> <Gold.Id.Protein>
6NUR|6NUR_protein|mol2

> <Gold.PLP.Fitness>
43.2035

> <Gold.PLP.PLP>
-30.2403

> <Gold.PLP.part.hbond>
-6.2225

> <Gold.PLP.part.metal>
0.0000

> <Gold.PLP.part.buried>
-6.7999

> <Gold.PLP.part.nonpolar>
-18.1927

> <Gold.PLP.part.repulsive>
0.5010

> <Gold.PLP.ligand.clash>
0.0000

> <Gold.PLP.ligand.torsion>
0.4755

> <Gold.PLP.Chemscore.Hbond>
4.6300

> <Gold.PLP.Chemscore.CHOScore>
0.0000

> <Gold.PLP.Chemscore.Metal>
0.0000

> <Gold.Chemscore.Hbonds>
donor molecule, donor type, donor heavy atom, donor atom, acceptor molecule, acceptor atom, score
      L1  H     6    24       P1  7948  1.00
      L1  H     9    25       P1  7948  1.00
      L1  H    16    33       P1 10186  1.00
      P1  H  7989  7998       L1     3  0.67
      P1  H 10785 10796       L1    17  0.88

> <Gold.PLP.Chemscore.Internal.Correction>
0.0242

> <Gold.Rescore>
     Score         DG    S(hbond)    S(metal)    S(lipo)     H(rot)  DE(clash)    DE(int)     intcor
     17.18     -18.48       3.83        0.00      46.18       2.04       0.03       1.27       ----

> <Gold.Chemscore.Fitness>
17.1846

> <Gold.Chemscore.DG>
-18.4770

> <Gold.Chemscore.ZeroCoef>
-5.4800

> <Gold.Chemscore.Hbond>
3.8347

> <Gold.Chemscore.Metal>
0.0000

> <Gold.Chemscore.Lipo>
46.1823

> <Gold.Chemscore.Internal_Hbond>
0.0000

> <Gold.Chemscore.DEClash>
0.0259

> <Gold.Chemscore.DEInternal>
1.2665

> <Gold.Chemscore.Rot>
2.0369

> <Gold.Chemscore.Internal.Correction>
   9.000000E+99

> <Gold.Chemscore.Hbonds>
donor molecule, donor type, donor heavy atom, donor atom, acceptor molecule, acceptor atom, score
      L1  H     6    24       P1  7948  0.99
      L1  H     9    25       P1  7948  0.96
      L1  H    16    33       P1 10186  0.99
      P1  H  7989  7998       L1     3  0.02
      P1  H 10785 10796       L1    17  0.86

> <Gold.Chemscore.Hbond.Weighted>
-12.8081

> <Gold.Chemscore.Metal.Weighted>
-0.0000

> <Gold.Chemscore.Lipo.Weighted>
-5.4033

> <Gold.Chemscore.Internal_Hbond.Weighted>
0.0000

> <Gold.Chemscore.DEClash.Weighted>
0.0259

> <Gold.Chemscore.DEInternal.Weighted>
1.2665

> <Gold.Chemscore.Rot.Weighted>
5.2144

> <Gold.Chemscore.Internal.Correction.Weighted>
   9.000000E+99

> <Gold.Protein.RotatedTorsions>
[ 6907 6896 6895 6894 ] final  104.73 input  -60.11 | X-H torsion
[ 7974 7965 7964 7962 ] final   44.73 input  175.53 | X-H torsion
[ 8008 7997 7996 7995 ] final -126.10 input   59.86 | X-H torsion
[ 10167 10162 10161 10158 ] final -167.13 input  -65.29 | X-H torsion
[ 10718 10713 10712 10709 ] final   65.06 input   66.30 | X-H torsion
[ 10763 10752 10751 10750 ] final   60.35 input  -60.55 | X-H torsion
[ 11005 11000 10999 10996 ] final  -88.64 input  -57.11 | X-H torsion

> <Gold.Protein.ActiveResidues>
 VAL166  LYS551  ARG553  GLY616  TRP617  ASP618  TYR619  PRO620  LYS621  CYS622 
 ASP623  PHE694  ASN695  SER759  ASP760  ASP761  ALA762  ILE779  LEU786  VAL792 
 PHE793  MET794  SER795  GLU796  ALA797  LYS798  CYS799  TRP800  GLU811  SER814 

> <Gold.Protein.RotatedAtoms>
  152.5254  133.9633  159.7727 H   0  0  0  0  0  0  0  0  0  0  0  0  # atno 6907 bound_to 6896
  150.9919  133.6132  159.2714 H   0  0  0  0  0  0  0  0  0  0  0  0  # atno 6908 bound_to 6896
  151.3273  135.0839  159.9379 H   0  0  0  0  0  0  0  0  0  0  0  0  # atno 6909 bound_to 6896
  146.0543  139.5043  142.9698 H   0  0  0  0  0  0  0  0  0  0  0  0  # atno 7974 bound_to 7965
  155.2242  140.0423  157.2953 H   0  0  0  0  0  0  0  0  0  0  0  0  # atno 8008 bound_to 7997
  154.5930  140.2432  155.7866 H   0  0  0  0  0  0  0  0  0  0  0  0  # atno 8009 bound_to 7997
  156.2271  140.2951  156.0104 H   0  0  0  0  0  0  0  0  0  0  0  0  # atno 8010 bound_to 7997
  139.6069  144.0894  152.1802 H   0  0  0  0  0  0  0  0  0  0  0  0  # atno 10167 bound_to 10162
  157.6080  130.9193  149.9926 H   0  0  0  0  0  0  0  0  0  0  0  0  # atno 10718 bound_to 10713
  152.9919  135.5539  154.5860 H   0  0  0  0  0  0  0  0  0  0  0  0  # atno 10763 bound_to 10752
  154.5231  135.2809  155.1247 H   0  0  0  0  0  0  0  0  0  0  0  0  # atno 10764 bound_to 10752
  154.2592  135.6384  153.5321 H   0  0  0  0  0  0  0  0  0  0  0  0  # atno 10765 bound_to 10752
  141.1598  133.7582  156.9480 H   0  0  0  0  0  0  0  0  0  0  0  0  # atno 11005 bound_to 11000
  145.6670  141.0226  143.1678 LP  0  0  0  0  0  0  0  0  0  0  0  0  # atno 17320 bound_to 7965
  144.7139  139.8267  143.7405 LP  0  0  0  0  0  0  0  0  0  0  0  0  # atno 17321 bound_to 7965
  140.0503  144.5938  150.7341 LP  0  0  0  0  0  0  0  0  0  0  0  0  # atno 17342 bound_to 10162
  140.7291  143.2669  151.4015 LP  0  0  0  0  0  0  0  0  0  0  0  0  # atno 17343 bound_to 10162
  156.1173  130.3647  149.9946 LP  0  0  0  0  0  0  0  0  0  0  0  0  # atno 17370 bound_to 10713
  156.8033  130.9298  151.3645 LP  0  0  0  0  0  0  0  0  0  0  0  0  # atno 17371 bound_to 10713
  140.1276  134.9376  157.2292 LP  0  0  0  0  0  0  0  0  0  0  0  0  # atno 17394 bound_to 11000
  140.2993  134.3150  155.7294 LP  0  0  0  0  0  0  0  0  0  0  0  0  # atno 17395 bound_to 11000

$$$$
