AV-unprocessed.smi:229|AV-procd|sdf|1753|dock10
  -GOLD-   2262020273D 1   1.00000     0.00000
 Structure written by MMmdl.
 58 62  0  0  0  0  0  0  0  0  1 V2000
  148.7488  141.4662  156.6703 C   0  0  0  0  0  0  0  0  0  0  0  0
  150.0488  142.0380  156.0913 C   0  0  0  0  0  0  0  0  0  0  0  0
  151.0792  142.3979  157.1720 C   0  0  2  0  0  0  0  0  0  0  0  0
  151.6452  141.1441  157.8608 C   0  0  0  0  0  0  0  0  0  0  0  0
  152.5332  141.5322  158.9517 N   0  0  0  0  0  0  0  0  0  0  0  0
  153.3577  140.5915  159.4792 C   0  0  0  0  0  0  0  0  0  0  0  0
  153.8466  139.5978  158.6895 N   0  0  0  0  0  0  0  0  0  0  0  0
  154.6617  138.6693  159.1975 C   0  0  0  0  0  0  0  0  0  0  0  0
  155.1104  138.5477  160.4477 N   0  0  0  0  0  0  0  0  0  0  0  0
  154.6259  139.5405  161.2476 C   0  0  0  0  0  0  0  0  0  0  0  0
  153.7565  140.5945  160.8466 C   0  0  0  0  0  0  0  0  0  0  0  0
  153.5022  141.4308  161.9267 N   0  0  0  0  0  0  0  0  0  0  0  0
  154.1736  140.8973  162.9099 C   0  0  0  0  0  0  0  0  0  0  0  0
  154.8653  139.7476  162.5963 N   0  0  0  0  0  0  0  0  0  0  0  0
  155.7072  138.9545  163.4838 C   0  0  0  0  0  0  0  0  0  0  0  0
  155.0157  138.4973  164.7915 C   0  0  1  0  0  0  0  0  0  0  0  0
  155.4330  137.1752  165.0699 O   0  0  0  0  0  0  0  0  0  0  0  0
  155.3238  139.3624  166.0331 C   0  0  1  0  0  0  0  0  0  0  0  0
  154.7622  140.7895  165.9814 C   0  0  0  0  0  0  0  0  0  0  0  0
  154.4070  141.1191  167.4247 C   0  0  0  0  0  0  0  0  0  0  0  0
  154.6673  139.8160  168.1759 C   0  0  0  0  0  0  0  0  0  0  0  0
  154.6430  138.8282  167.1600 O   0  0  0  0  0  0  0  0  0  0  0  0
  151.8865  142.4096  159.9205 C   0  0  0  0  0  0  0  0  0  0  0  0
  151.2854  143.6500  159.2208 C   0  0  1  0  0  0  0  0  0  0  0  0
  150.4346  144.4653  160.1892 C   0  0  0  0  0  0  0  0  0  0  0  0
  151.3983  145.5324  160.6859 C   0  0  0  0  0  0  0  0  0  0  0  0
  152.1026  145.8735  159.5071 O   0  0  0  0  0  0  0  0  0  0  0  0
  152.3551  144.6771  158.7794 C   0  0  0  0  0  0  0  0  0  0  0  0
  150.4409  143.2256  158.1469 O   0  0  0  0  0  0  0  0  0  0  0  0
  148.0377  141.2398  155.8757 H   0  0  0  0  0  0  0  0  0  0  0  0
  148.2744  142.1754  157.3491 H   0  0  0  0  0  0  0  0  0  0  0  0
  148.9330  140.5448  157.2230 H   0  0  0  0  0  0  0  0  0  0  0  0
  150.4828  141.3220  155.3925 H   0  0  0  0  0  0  0  0  0  0  0  0
  149.8098  142.9288  155.5093 H   0  0  0  0  0  0  0  0  0  0  0  0
  151.8987  142.9401  156.6995 H   0  0  0  0  0  0  0  0  0  0  0  0
  150.8339  140.5305  158.2555 H   0  0  0  0  0  0  0  0  0  0  0  0
  152.1868  140.5405  157.1312 H   0  0  0  0  0  0  0  0  0  0  0  0
  155.0040  137.9167  158.5027 H   0  0  0  0  0  0  0  0  0  0  0  0
  154.1807  141.3370  163.8961 H   0  0  0  0  0  0  0  0  0  0  0  0
  156.0533  138.0783  162.9356 H   0  0  0  0  0  0  0  0  0  0  0  0
  156.6033  139.5333  163.7111 H   0  0  0  0  0  0  0  0  0  0  0  0
  153.9383  138.4782  164.6234 H   0  0  0  0  0  0  0  0  0  0  0  0
  154.7870  136.5783  164.7248 H   0  0  0  0  0  0  0  0  0  0  0  0
  156.3962  139.3958  166.2373 H   0  0  0  0  0  0  0  0  0  0  0  0
  155.4807  141.4964  165.5690 H   0  0  0  0  0  0  0  0  0  0  0  0
  153.8619  140.8302  165.3671 H   0  0  0  0  0  0  0  0  0  0  0  0
  155.0078  141.9362  167.8252 H   0  0  0  0  0  0  0  0  0  0  0  0
  153.3574  141.4062  167.4973 H   0  0  0  0  0  0  0  0  0  0  0  0
  155.6525  139.8277  168.6448 H   0  0  0  0  0  0  0  0  0  0  0  0
  153.9221  139.6167  168.9464 H   0  0  0  0  0  0  0  0  0  0  0  0
  151.0942  141.8411  160.4098 H   0  0  0  0  0  0  0  0  0  0  0  0
  152.5710  142.7226  160.7079 H   0  0  0  0  0  0  0  0  0  0  0  0
  149.6155  144.9489  159.6548 H   0  0  0  0  0  0  0  0  0  0  0  0
  149.9997  143.8757  160.9967 H   0  0  0  0  0  0  0  0  0  0  0  0
  150.8901  146.3951  161.1168 H   0  0  0  0  0  0  0  0  0  0  0  0
  152.0894  145.1275  161.4270 H   0  0  0  0  0  0  0  0  0  0  0  0
  153.3628  144.3255  159.0043 H   0  0  0  0  0  0  0  0  0  0  0  0
  152.3136  144.9036  157.7145 H   0  0  0  0  0  0  0  0  0  0  0  0
  1  2  1  0  0  0  0
  1 30  1  0  0  0  0
  1 31  1  0  0  0  0
  1 32  1  0  0  0  0
  2  3  1  0  0  0  0
  2 33  1  0  0  0  0
  2 34  1  0  0  0  0
  3 29  1  0  0  0  0
  3  4  1  0  0  0  0
  3 35  1  0  0  0  0
  4  5  1  0  0  0  0
  4 36  1  0  0  0  0
  4 37  1  0  0  0  0
  5  6  1  0  0  0  0
  5 23  1  0  0  0  0
  6 11  1  0  0  0  0
  6  7  2  0  0  0  0
  7  8  1  0  0  0  0
  8  9  2  0  0  0  0
  8 38  1  0  0  0  0
  9 10  1  0  0  0  0
 10 14  1  0  0  0  0
 10 11  2  0  0  0  0
 11 12  1  0  0  0  0
 12 13  2  0  0  0  0
 13 14  1  0  0  0  0
 13 39  1  0  0  0  0
 14 15  1  0  0  0  0
 15 16  1  0  0  0  0
 15 40  1  0  0  0  0
 15 41  1  0  0  0  0
 16 17  1  0  0  0  0
 16 18  1  0  0  0  0
 16 42  1  0  0  0  0
 17 43  1  0  0  0  0
 18 22  1  0  0  0  0
 18 19  1  0  0  0  0
 18 44  1  0  0  0  0
 19 20  1  0  0  0  0
 19 45  1  0  0  0  0
 19 46  1  0  0  0  0
 20 21  1  0  0  0  0
 20 47  1  0  0  0  0
 20 48  1  0  0  0  0
 21 22  1  0  0  0  0
 21 49  1  0  0  0  0
 21 50  1  0  0  0  0
 23 24  1  0  0  0  0
 23 51  1  0  0  0  0
 23 52  1  0  0  0  0
 24 28  1  0  0  0  0
 24 25  1  0  0  0  0
 24 29  1  0  0  0  0
 25 26  1  0  0  0  0
 25 53  1  0  0  0  0
 25 54  1  0  0  0  0
 26 27  1  0  0  0  0
 26 55  1  0  0  0  0
 26 56  1  0  0  0  0
 27 28  1  0  0  0  0
 28 57  1  0  0  0  0
 28 58  1  0  0  0  0
M  END
> <s_m_source_file>
AV-unprocessed.smi

> <i_m_source_file_index>
229

> <i_lp_mmshare_version>
43012

> <i_f3d_flags>
0

> <s_epik_input>
W0NIMl0xT1tDSDJdW0NIMl1bQ0BdMTJbQ0gyXU4oW0NIMl1bQ0BIXShPMilbQ0gyXVtDSDNdKWMobltjSF1uMyljKGMzNCluW2NIXW40W0NIMl1bQ0BIXShbT0hdKVtDQEBIXTVbQ0gyXVtDSDJdW0NIMl1PNQ==

> <s_epik_cmdline>
J2VwaWtfcHl0aG9uJywgJy1waCcsICc3LjAnLCAnLXRuJywgJzgnLCAnLW1hJywgJzIwMCcsICctbWV0YWxfYmluZGluZycsICctaW1hZScsICc8aW5maWxlLm1hZT4nLCAnLW9tYWUnLCAnPG91dGZpbGUubWFlPic=

> <r_lp_tautomer_probability>
1

> <r_epik_Ionization_Penalty>
0.00318402

> <r_epik_Ionization_Penalty_Charging>
0

> <r_epik_Ionization_Penalty_Neutral>
0.00318402

> <r_epik_State_Penalty>
0.00215642

> <r_epik_Charging_Adjusted_Penalty>
0.00215642

> <i_epik_Tot_Q>
0

> <i_epik_Tot_abs_Q>
0

> <r_epik_Metal_State_Penalty>
-0

> <b_epik_Metal_Only>
0

> <s_lp_Force_Field>
OPLS_2005

> <r_lp_Energy>
56.4777

> <b_lp_Chiralities_Consistent>
1

> <s_lp_Variant>
AV-unprocessed.smi:229-7

> <Gold.Version>
5.8.1

> <Gold.Id.Protein>
6NUR|6NUR_protein|mol2

> <Gold.PLP.Fitness>
53.1785

> <Gold.PLP.PLP>
-52.0847

> <Gold.PLP.part.hbond>
-3.1847

> <Gold.PLP.part.metal>
0.0000

> <Gold.PLP.part.buried>
-2.8562

> <Gold.PLP.part.nonpolar>
-46.0140

> <Gold.PLP.part.repulsive>
0.3593

> <Gold.PLP.ligand.clash>
0.0000

> <Gold.PLP.ligand.torsion>
1.1337

> <Gold.PLP.Chemscore.Hbond>
1.0000

> <Gold.PLP.Chemscore.CHOScore>
0.0000

> <Gold.PLP.Chemscore.Metal>
0.0000

> <Gold.Chemscore.Hbonds>
donor molecule, donor type, donor heavy atom, donor atom, acceptor molecule, acceptor atom, score
      P1  H  7997  8010       L1     7  1.00

> <Gold.PLP.Chemscore.Internal.Correction>
0.3613

> <Gold.Rescore>
     Score         DG    S(hbond)    S(metal)    S(lipo)     H(rot)  DE(clash)    DE(int)     intcor
     11.14     -14.52       0.41        0.00     119.31       2.46       0.29       3.09       ----

> <Gold.Chemscore.Fitness>
11.1410

> <Gold.Chemscore.DG>
-14.5154

> <Gold.Chemscore.ZeroCoef>
-5.4800

> <Gold.Chemscore.Hbond>
0.4105

> <Gold.Chemscore.Metal>
0.0000

> <Gold.Chemscore.Lipo>
119.3125

> <Gold.Chemscore.Internal_Hbond>
0.0000

> <Gold.Chemscore.DEClash>
0.2863

> <Gold.Chemscore.DEInternal>
3.0880

> <Gold.Chemscore.Rot>
2.4591

> <Gold.Chemscore.Internal.Correction>
   9.000000E+99

> <Gold.Chemscore.Hbonds>
donor molecule, donor type, donor heavy atom, donor atom, acceptor molecule, acceptor atom, score
      P1  H  7997  8010       L1     7  0.25

> <Gold.Chemscore.Hbond.Weighted>
-1.3711

> <Gold.Chemscore.Metal.Weighted>
-0.0000

> <Gold.Chemscore.Lipo.Weighted>
-13.9596

> <Gold.Chemscore.Internal_Hbond.Weighted>
0.0000

> <Gold.Chemscore.DEClash.Weighted>
0.2863

> <Gold.Chemscore.DEInternal.Weighted>
3.0880

> <Gold.Chemscore.Rot.Weighted>
6.2953

> <Gold.Chemscore.Internal.Correction.Weighted>
   9.000000E+99

> <Gold.Protein.RotatedTorsions>
[ 6907 6896 6895 6894 ] final   35.15 input  -60.11 | X-H torsion
[ 7974 7965 7964 7962 ] final -116.68 input  175.53 | X-H torsion
[ 8008 7997 7996 7995 ] final   21.61 input   59.86 | X-H torsion
[ 10167 10162 10161 10158 ] final -111.20 input  -65.29 | X-H torsion
[ 10718 10713 10712 10709 ] final   -1.48 input   66.30 | X-H torsion
[ 10763 10752 10751 10750 ] final  -52.34 input  -60.55 | X-H torsion
[ 11005 11000 10999 10996 ] final  126.90 input  -57.11 | X-H torsion

> <Gold.Protein.ActiveResidues>
 VAL166  LYS551  ARG553  GLY616  TRP617  ASP618  TYR619  PRO620  LYS621  CYS622 
 ASP623  PHE694  ASN695  SER759  ASP760  ASP761  ALA762  ILE779  LEU786  VAL792 
 PHE793  MET794  SER795  GLU796  ALA797  LYS798  CYS799  TRP800  GLU811  SER814 

> <Gold.Protein.RotatedAtoms>
  152.1123  134.9266  160.0565 H   0  0  0  0  0  0  0  0  0  0  0  0  # atno 6907 bound_to 6896
  152.0439  133.3984  159.4356 H   0  0  0  0  0  0  0  0  0  0  0  0  # atno 6908 bound_to 6896
  150.6844  134.3305  159.4868 H   0  0  0  0  0  0  0  0  0  0  0  0  # atno 6909 bound_to 6896
  145.0939  140.8508  143.3966 H   0  0  0  0  0  0  0  0  0  0  0  0  # atno 7974 bound_to 7965
  154.9532  140.3068  155.5065 H   0  0  0  0  0  0  0  0  0  0  0  0  # atno 8008 bound_to 7997
  156.2985  140.2315  156.4549 H   0  0  0  0  0  0  0  0  0  0  0  0  # atno 8009 bound_to 7997
  154.8035  140.0432  157.1279 H   0  0  0  0  0  0  0  0  0  0  0  0  # atno 8010 bound_to 7997
  140.1362  143.4318  152.1594 H   0  0  0  0  0  0  0  0  0  0  0  0  # atno 10167 bound_to 10162
  156.8050  130.5405  149.5716 H   0  0  0  0  0  0  0  0  0  0  0  0  # atno 10718 bound_to 10713
  154.1412  135.6505  153.4942 H   0  0  0  0  0  0  0  0  0  0  0  0  # atno 10763 bound_to 10752
  153.0165  135.5316  154.6903 H   0  0  0  0  0  0  0  0  0  0  0  0  # atno 10764 bound_to 10752
  154.6165  135.2959  155.0345 H   0  0  0  0  0  0  0  0  0  0  0  0  # atno 10765 bound_to 10752
  139.9480  134.9627  156.8775 H   0  0  0  0  0  0  0  0  0  0  0  0  # atno 11005 bound_to 11000
  145.1033  139.2807  143.5675 LP  0  0  0  0  0  0  0  0  0  0  0  0  # atno 17320 bound_to 7965
  146.3531  140.0607  142.8629 LP  0  0  0  0  0  0  0  0  0  0  0  0  # atno 17321 bound_to 7965
  139.5495  144.7326  151.4479 LP  0  0  0  0  0  0  0  0  0  0  0  0  # atno 17342 bound_to 10162
  140.6788  143.8129  150.7093 LP  0  0  0  0  0  0  0  0  0  0  0  0  # atno 17343 bound_to 10162
  156.1078  130.6018  150.9999 LP  0  0  0  0  0  0  0  0  0  0  0  0  # atno 17370 bound_to 10713
  157.6535  131.0893  150.8000 LP  0  0  0  0  0  0  0  0  0  0  0  0  # atno 17371 bound_to 10713
  140.5788  134.0372  155.7456 LP  0  0  0  0  0  0  0  0  0  0  0  0  # atno 17394 bound_to 11000
  141.1135  133.9578  157.2866 LP  0  0  0  0  0  0  0  0  0  0  0  0  # atno 17395 bound_to 11000

$$$$
