AV-unprocessed.smi:1239|AV-procd|sdf|5185|dock8
  -GOLD-   22720 4263D 1   1.00000     0.00000
 Structure written by MMmdl.
 48 49  0  0  0  0  0  0  0  0  2 V2000
  146.9152  142.3637  155.2234 C   0  0  0  0  0  0  0  0  0  0  0  0
  147.2627  140.9091  154.8318 C   0  0  2  0  0  0  0  0  0  0  0  0
  146.0873  140.0008  155.2731 C   0  0  0  0  0  0  0  0  0  0  0  0
  145.4631  139.3325  154.1335 N   0  0  0  0  0  0  0  0  0  0  0  0
  145.6263  138.0439  153.8041 C   0  0  0  0  0  0  0  0  0  0  0  0
  146.3270  137.2620  154.4458 O   0  0  0  0  0  0  0  0  0  0  0  0
  144.9416  137.7381  152.6880 N   0  0  0  0  0  0  0  0  0  0  0  0
  144.8581  136.4931  152.0046 C   0  0  0  0  0  0  0  0  0  0  0  0
  145.9236  135.5833  152.1686 C   0  0  0  0  0  0  0  0  0  0  0  0
  145.8939  134.3378  151.5080 C   0  0  0  0  0  0  0  0  0  0  0  0
  144.7960  134.0072  150.6763 C   0  0  0  0  0  0  0  0  0  0  0  0
  144.6913  132.7819  149.9832 N   0  0  0  0  0  0  0  0  0  0  0  0
  143.9240  132.7129  148.7445 C   0  0  0  0  0  0  0  0  0  0  0  0
  145.3296  131.5874  150.5210 C   0  0  0  0  0  0  0  0  0  0  0  0
  143.8013  134.9175  150.5411 N   0  3  0  0  0  0  0  0  0  0  0  0
  143.7892  136.1208  151.1545 C   0  0  0  0  0  0  0  0  0  0  0  0
  148.5876  140.4667  155.3199 N   0  0  0  0  0  0  0  0  0  0  0  0
  149.1829  139.4308  154.4701 C   0  0  0  0  0  0  0  0  0  0  0  0
  150.5714  138.9869  154.9621 C   0  0  0  0  0  0  0  0  0  0  0  0
  151.4345  140.1136  155.0399 O   0  0  0  0  0  0  0  0  0  0  0  0
  150.9293  141.1182  155.9094 C   0  0  0  0  0  0  0  0  0  0  0  0
  149.5425  141.5742  155.4241 C   0  0  0  0  0  0  0  0  0  0  0  0
  145.8921  142.6150  154.9427 H   0  0  0  0  0  0  0  0  0  0  0  0
  147.5535  143.0886  154.7193 H   0  0  0  0  0  0  0  0  0  0  0  0
  147.0087  142.5221  156.2982 H   0  0  0  0  0  0  0  0  0  0  0  0
  147.2810  140.8776  153.7413 H   0  0  0  0  0  0  0  0  0  0  0  0
  146.4559  139.2702  155.9953 H   0  0  0  0  0  0  0  0  0  0  0  0
  145.3263  140.5637  155.8126 H   0  0  0  0  0  0  0  0  0  0  0  0
  144.8736  139.9051  153.5468 H   0  0  0  0  0  0  0  0  0  0  0  0
  144.4529  138.5051  152.2496 H   0  0  0  0  0  0  0  0  0  0  0  0
  146.7624  135.8333  152.8020 H   0  0  0  0  0  0  0  0  0  0  0  0
  146.7175  133.6546  151.6524 H   0  0  0  0  0  0  0  0  0  0  0  0
  144.3543  133.3723  147.9900 H   0  0  0  0  0  0  0  0  0  0  0  0
  142.8893  133.0111  148.9170 H   0  0  0  0  0  0  0  0  0  0  0  0
  143.9161  131.7017  148.3374 H   0  0  0  0  0  0  0  0  0  0  0  0
  144.9151  131.3384  151.4984 H   0  0  0  0  0  0  0  0  0  0  0  0
  146.4040  131.7406  150.6254 H   0  0  0  0  0  0  0  0  0  0  0  0
  145.1792  130.7287  149.8665 H   0  0  0  0  0  0  0  0  0  0  0  0
  142.9279  136.7300  150.9277 H   0  0  0  0  0  0  0  0  0  0  0  0
  148.5491  138.5459  154.4440 H   0  0  0  0  0  0  0  0  0  0  0  0
  149.2617  139.7940  153.4442 H   0  0  0  0  0  0  0  0  0  0  0  0
  150.4994  138.5050  155.9385 H   0  0  0  0  0  0  0  0  0  0  0  0
  151.0010  138.2571  154.2758 H   0  0  0  0  0  0  0  0  0  0  0  0
  150.8753  140.7344  156.9295 H   0  0  0  0  0  0  0  0  0  0  0  0
  151.6220  141.9599  155.9206 H   0  0  0  0  0  0  0  0  0  0  0  0
  149.6432  142.0677  154.4561 H   0  0  0  0  0  0  0  0  0  0  0  0
  149.1819  142.3255  156.1252 H   0  0  0  0  0  0  0  0  0  0  0  0
  143.0133  134.6819  149.9376 H   0  0  0  0  0  0  0  0  0  0  0  0
  1  2  1  0  0  0  0
  1 23  1  0  0  0  0
  1 24  1  0  0  0  0
  1 25  1  0  0  0  0
  2  3  1  0  0  0  0
  2 17  1  0  0  0  0
  2 26  1  0  0  0  0
  3  4  1  0  0  0  0
  3 27  1  0  0  0  0
  3 28  1  0  0  0  0
  4  5  1  0  0  0  0
  4 29  1  0  0  0  0
  5  6  2  0  0  0  0
  5  7  1  0  0  0  0
  7  8  1  0  0  0  0
  7 30  1  0  0  0  0
  8 16  1  0  0  0  0
  8  9  2  0  0  0  0
  9 10  1  0  0  0  0
  9 31  1  0  0  0  0
 10 11  2  0  0  0  0
 10 32  1  0  0  0  0
 11 12  1  0  0  0  0
 11 15  1  0  0  0  0
 12 13  1  0  0  0  0
 12 14  1  0  0  0  0
 13 33  1  0  0  0  0
 13 34  1  0  0  0  0
 13 35  1  0  0  0  0
 14 36  1  0  0  0  0
 14 37  1  0  0  0  0
 14 38  1  0  0  0  0
 15 16  2  0  0  0  0
 15 48  1  0  0  0  0
 16 39  1  0  0  0  0
 17 22  1  0  0  0  0
 17 18  1  0  0  0  0
 18 19  1  0  0  0  0
 18 40  1  0  0  0  0
 18 41  1  0  0  0  0
 19 20  1  0  0  0  0
 19 42  1  0  0  0  0
 19 43  1  0  0  0  0
 20 21  1  0  0  0  0
 21 22  1  0  0  0  0
 21 44  1  0  0  0  0
 21 45  1  0  0  0  0
 22 46  1  0  0  0  0
 22 47  1  0  0  0  0
M  CHG  1  15   1
M  END
> <s_m_source_file>
AV-unprocessed.smi

> <i_m_source_file_index>
1239

> <i_lp_mmshare_version>
43012

> <i_f3d_flags>
0

> <s_epik_input>
W0NIMl0xW0NIMl1PW0NIMl1bQ0gyXU4xW0NASF0oW0NIM10pW0NIMl1bTkhdQyg9TylbTkhdYzJbY0hdW2NIXWMoTihbQ0gzXSlbQ0gzXSluW2NIXTI=

> <s_epik_cmdline>
J2VwaWtfcHl0aG9uJywgJy1waCcsICc3LjAnLCAnLXRuJywgJzgnLCAnLW1hJywgJzIwMCcsICctbWV0YWxfYmluZGluZycsICctaW1hZScsICc8aW5maWxlLm1hZT4nLCAnLW9tYWUnLCAnPG91dGZpbGUubWFlPic=

> <r_lp_tautomer_probability>
0.999994

> <r_epik_Ionization_Penalty>
0.528791

> <r_epik_Ionization_Penalty_Charging>
0.26278

> <r_epik_Ionization_Penalty_Neutral>
0.26601

> <r_epik_State_Penalty>
0.520375

> <r_epik_Charging_Adjusted_Penalty>
0.783156

> <i_epik_Tot_Q>
1

> <i_epik_Tot_abs_Q>
1

> <r_epik_Metal_State_Penalty>
0.806531

> <b_epik_Metal_Only>
0

> <s_lp_Force_Field>
OPLS_2005

> <r_lp_Energy>
44.5879

> <b_lp_Chiralities_Consistent>
1

> <s_lp_Variant>
AV-unprocessed.smi:1239-1

> <Gold.Version>
5.8.1

> <Gold.Id.Protein>
6NUR|6NUR_protein|mol2

> <Gold.PLP.Fitness>
45.4294

> <Gold.PLP.PLP>
-35.0398

> <Gold.PLP.part.hbond>
-4.4690

> <Gold.PLP.part.metal>
0.0000

> <Gold.PLP.part.buried>
-1.1018

> <Gold.PLP.part.nonpolar>
-29.2211

> <Gold.PLP.part.repulsive>
0.2363

> <Gold.PLP.ligand.clash>
0.0000

> <Gold.PLP.ligand.torsion>
1.9105

> <Gold.PLP.Chemscore.Hbond>
4.7176

> <Gold.PLP.Chemscore.CHOScore>
0.0000

> <Gold.PLP.Chemscore.Metal>
0.0000

> <Gold.Chemscore.Hbonds>
donor molecule, donor type, donor heavy atom, donor atom, acceptor molecule, acceptor atom, score
      L1  H     4    29       P1 10175  1.00
      L1  H     7    30       P1 10175  0.80
      L1  H    15    48       P1 10186  1.92
      P1  H  7989  7998       L1    20  1.00

> <Gold.PLP.Chemscore.Internal.Correction>
0.0578

> <Gold.Rescore>
     Score         DG    S(hbond)    S(metal)    S(lipo)     H(rot)  DE(clash)    DE(int)     intcor
     17.49     -20.67       2.99        0.00      76.48       1.46       0.08       3.10       ----

> <Gold.Chemscore.Fitness>
17.4934

> <Gold.Chemscore.DG>
-20.6724

> <Gold.Chemscore.ZeroCoef>
-5.4800

> <Gold.Chemscore.Hbond>
2.9889

> <Gold.Chemscore.Metal>
0.0000

> <Gold.Chemscore.Lipo>
76.4788

> <Gold.Chemscore.Internal_Hbond>
0.0000

> <Gold.Chemscore.DEClash>
0.0826

> <Gold.Chemscore.DEInternal>
3.0965

> <Gold.Chemscore.Rot>
1.4604

> <Gold.Chemscore.Internal.Correction>
   9.000000E+99

> <Gold.Chemscore.Hbonds>
donor molecule, donor type, donor heavy atom, donor atom, acceptor molecule, acceptor atom, score
      L1  H     4    29       P1 10175  1.00
      L1  H     7    30       P1 10175  0.74
      L1  H    15    48       P1 10186  0.68
      P1  H  7989  7998       L1    20  0.44

> <Gold.Chemscore.Hbond.Weighted>
-9.9829

> <Gold.Chemscore.Metal.Weighted>
-0.0000

> <Gold.Chemscore.Lipo.Weighted>
-8.9480

> <Gold.Chemscore.Internal_Hbond.Weighted>
0.0000

> <Gold.Chemscore.DEClash.Weighted>
0.0826

> <Gold.Chemscore.DEInternal.Weighted>
3.0965

> <Gold.Chemscore.Rot.Weighted>
3.7385

> <Gold.Chemscore.Internal.Correction.Weighted>
   9.000000E+99

> <Gold.Protein.RotatedTorsions>
[ 6907 6896 6895 6894 ] final   36.26 input  -60.11 | X-H torsion
[ 7974 7965 7964 7962 ] final -126.25 input  175.53 | X-H torsion
[ 8008 7997 7996 7995 ] final  131.64 input   59.86 | X-H torsion
[ 10167 10162 10161 10158 ] final   35.11 input  -65.29 | X-H torsion
[ 10718 10713 10712 10709 ] final  -95.29 input   66.30 | X-H torsion
[ 10763 10752 10751 10750 ] final -116.59 input  -60.55 | X-H torsion
[ 11005 11000 10999 10996 ] final  -80.55 input  -57.11 | X-H torsion

> <Gold.Protein.ActiveResidues>
 VAL166  LYS551  ARG553  GLY616  TRP617  ASP618  TYR619  PRO620  LYS621  CYS622 
 ASP623  PHE694  ASN695  SER759  ASP760  ASP761  ALA762  ILE779  LEU786  VAL792 
 PHE793  MET794  SER795  GLU796  ALA797  LYS798  CYS799  TRP800  GLU811  SER814 

> <Gold.Protein.RotatedAtoms>
  152.1273  134.9161  160.0560 H   0  0  0  0  0  0  0  0  0  0  0  0  # atno 6907 bound_to 6896
  152.0278  133.3920  159.4293 H   0  0  0  0  0  0  0  0  0  0  0  0  # atno 6908 bound_to 6896
  150.6853  134.3475  159.4938 H   0  0  0  0  0  0  0  0  0  0  0  0  # atno 6909 bound_to 6896
  144.9892  140.7715  143.4565 H   0  0  0  0  0  0  0  0  0  0  0  0  # atno 7974 bound_to 7965
  156.2972  140.2566  156.2959 H   0  0  0  0  0  0  0  0  0  0  0  0  # atno 8008 bound_to 7997
  154.9465  140.0395  157.2141 H   0  0  0  0  0  0  0  0  0  0  0  0  # atno 8009 bound_to 7997
  154.8077  140.2839  155.5880 H   0  0  0  0  0  0  0  0  0  0  0  0  # atno 8010 bound_to 7997
  140.4252  144.1403  150.6152 H   0  0  0  0  0  0  0  0  0  0  0  0  # atno 10167 bound_to 10162
  156.0041  130.5103  150.6054 H   0  0  0  0  0  0  0  0  0  0  0  0  # atno 10718 bound_to 10713
  154.8525  135.4340  154.1845 H   0  0  0  0  0  0  0  0  0  0  0  0  # atno 10763 bound_to 10752
  153.2927  135.6963  153.7283 H   0  0  0  0  0  0  0  0  0  0  0  0  # atno 10764 bound_to 10752
  153.6444  135.3462  155.3055 H   0  0  0  0  0  0  0  0  0  0  0  0  # atno 10765 bound_to 10752
  141.1668  133.7155  156.8289 H   0  0  0  0  0  0  0  0  0  0  0  0  # atno 11005 bound_to 11000
  145.2310  139.2115  143.5043 LP  0  0  0  0  0  0  0  0  0  0  0  0  # atno 17320 bound_to 7965
  146.3427  140.2187  142.8591 LP  0  0  0  0  0  0  0  0  0  0  0  0  # atno 17321 bound_to 7965
  140.4489  143.2495  151.9374 LP  0  0  0  0  0  0  0  0  0  0  0  0  # atno 17342 bound_to 10162
  139.4783  144.5581  151.8281 LP  0  0  0  0  0  0  0  0  0  0  0  0  # atno 17343 bound_to 10162
  157.3896  131.0793  151.1405 LP  0  0  0  0  0  0  0  0  0  0  0  0  # atno 17370 bound_to 10713
  157.2101  130.6434  149.5771 LP  0  0  0  0  0  0  0  0  0  0  0  0  # atno 17371 bound_to 10713
  140.2065  134.8859  157.3227 LP  0  0  0  0  0  0  0  0  0  0  0  0  # atno 17394 bound_to 11000
  140.2131  134.4114  155.7602 LP  0  0  0  0  0  0  0  0  0  0  0  0  # atno 17395 bound_to 11000

$$$$
