AV-unprocessed.smi:2212|AV-procd|sdf|8954|dock3
  -GOLD-   2272012173D 1   1.00000     0.00000
 Structure written by MMmdl.
 31 32  0  0  0  0  0  0  0  0  1 V2000
  153.7816  141.8629  160.2449 C   0  0  0  0  0  0  0  0  0  0  0  0
  153.5089  142.9408  159.3591 O   0  0  0  0  0  0  0  0  0  0  0  0
  152.2247  143.5513  159.4921 C   0  0  0  0  0  0  0  0  0  0  0  0
  151.0856  142.5640  159.2023 C   0  0  0  0  0  0  0  0  0  0  0  0
  151.1919  142.0361  157.8485 N   0  0  0  0  0  0  0  0  0  0  0  0
  151.6223  140.8067  157.5349 C   0  0  0  0  0  0  0  0  0  0  0  0
  151.9942  140.0103  158.4027 O   0  0  0  0  0  0  0  0  0  0  0  0
  151.6005  140.6275  156.1598 N   0  0  0  0  0  0  0  0  0  0  0  0
  150.7679  139.7801  155.6372 C   0  0  0  0  0  0  0  0  0  0  0  0
  149.8264  138.9142  156.1875 N   0  0  0  0  0  0  0  0  0  0  0  0
  149.2234  138.2357  155.1655 C   0  0  0  0  0  0  0  0  0  0  0  0
  149.7595  138.6519  154.0222 C   0  0  0  0  0  0  0  0  0  0  0  0
  150.7080  139.5959  154.2790 O   0  0  0  0  0  0  0  0  0  0  0  0
  152.1934  144.3032  160.8362 C   0  0  0  0  0  0  0  0  0  0  0  0
  151.5817  145.5014  160.1080 C   0  0  0  0  0  0  0  0  0  0  0  0
  152.1907  144.9396  158.8223 C   0  0  0  0  0  0  0  0  0  0  0  0
  154.7413  141.4187  159.9816 H   0  0  0  0  0  0  0  0  0  0  0  0
  153.0254  141.0803  160.1799 H   0  0  0  0  0  0  0  0  0  0  0  0
  153.8533  142.1975  161.2795 H   0  0  0  0  0  0  0  0  0  0  0  0
  151.1204  141.7355  159.9115 H   0  0  0  0  0  0  0  0  0  0  0  0
  150.1098  143.0318  159.3346 H   0  0  0  0  0  0  0  0  0  0  0  0
  150.9079  142.6482  157.0967 H   0  0  0  0  0  0  0  0  0  0  0  0
  149.5968  138.7781  157.1616 H   0  0  0  0  0  0  0  0  0  0  0  0
  148.4534  137.5069  155.3718 H   0  0  0  0  0  0  0  0  0  0  0  0
  149.5829  138.3872  152.9900 H   0  0  0  0  0  0  0  0  0  0  0  0
  151.5491  143.8609  161.5966 H   0  0  0  0  0  0  0  0  0  0  0  0
  153.1874  144.5189  161.2328 H   0  0  0  0  0  0  0  0  0  0  0  0
  150.4906  145.4848  160.1045 H   0  0  0  0  0  0  0  0  0  0  0  0
  151.9731  146.4718  160.4143 H   0  0  0  0  0  0  0  0  0  0  0  0
  153.1827  145.3482  158.6207 H   0  0  0  0  0  0  0  0  0  0  0  0
  151.5437  145.0103  157.9475 H   0  0  0  0  0  0  0  0  0  0  0  0
  1  2  1  0  0  0  0
  1 17  1  0  0  0  0
  1 18  1  0  0  0  0
  1 19  1  0  0  0  0
  2  3  1  0  0  0  0
  3 16  1  0  0  0  0
  3  4  1  0  0  0  0
  3 14  1  0  0  0  0
  4  5  1  0  0  0  0
  4 20  1  0  0  0  0
  4 21  1  0  0  0  0
  5 22  1  0  0  0  0
  5  6  1  0  0  0  0
  6  8  1  0  0  0  0
  6  7  2  0  0  0  0
  8  9  2  0  0  0  0
  9 13  1  0  0  0  0
  9 10  1  0  0  0  0
 10 23  1  0  0  0  0
 10 11  1  0  0  0  0
 11 24  1  0  0  0  0
 11 12  2  0  0  0  0
 12 25  1  0  0  0  0
 12 13  1  0  0  0  0
 14 15  1  0  0  0  0
 14 26  1  0  0  0  0
 14 27  1  0  0  0  0
 15 16  1  0  0  0  0
 15 28  1  0  0  0  0
 15 29  1  0  0  0  0
 16 30  1  0  0  0  0
 16 31  1  0  0  0  0
M  END
> <s_m_source_file>
AV-unprocessed.smi

> <i_m_source_file_index>
2212

> <i_lp_mmshare_version>
43012

> <i_f3d_flags>
0

> <s_epik_input>
W0NIMl0xW0NIMl1bQ0gyXUMxKE9bQ0gzXSlbQ0gyXVtOSF1DKD1PKVtOSF1jMm5bY0hdW2NIXW8y

> <s_epik_cmdline>
J2VwaWtfcHl0aG9uJywgJy1waCcsICc3LjAnLCAnLXRuJywgJzgnLCAnLW1hJywgJzIwMCcsICctbWV0YWxfYmluZGluZycsICctaW1hZScsICc8aW5maWxlLm1hZT4nLCAnLW9tYWUnLCAnPG91dGZpbGUubWFlPic=

> <r_lp_tautomer_probability>
0.107061

> <r_epik_Ionization_Penalty>
1.29244

> <r_epik_Ionization_Penalty_Charging>
1.29208

> <r_epik_Ionization_Penalty_Neutral>
0.000357989

> <r_epik_State_Penalty>
2.59896

> <r_epik_Charging_Adjusted_Penalty>
3.89105

> <i_epik_Tot_Q>
0

> <i_epik_Tot_abs_Q>
0

> <r_epik_Metal_State_Penalty>
3.62496

> <b_epik_Metal_Only>
0

> <s_lp_Force_Field>
OPLS_2005

> <r_lp_Energy>
41.2438

> <b_lp_Chiralities_Consistent>
1

> <s_lp_Variant>
AV-unprocessed.smi:2212-4

> <Gold.Version>
5.8.1

> <Gold.Id.Protein>
6NUR|6NUR_protein|mol2

> <Gold.PLP.Fitness>
40.2154

> <Gold.PLP.PLP>
-33.0233

> <Gold.PLP.part.hbond>
-1.0000

> <Gold.PLP.part.metal>
0.0000

> <Gold.PLP.part.buried>
-5.2921

> <Gold.PLP.part.nonpolar>
-27.1861

> <Gold.PLP.part.repulsive>
0.1912

> <Gold.PLP.ligand.clash>
0.0000

> <Gold.PLP.ligand.torsion>
0.8837

> <Gold.PLP.Chemscore.Hbond>
1.0000

> <Gold.PLP.Chemscore.CHOScore>
1.8918

> <Gold.PLP.Chemscore.Metal>
0.0000

> <Gold.Chemscore.Hbonds>
donor molecule, donor type, donor heavy atom, donor atom, acceptor molecule, acceptor atom, score
      P1  H  7989  7998       L1    13  1.00
      L1  C    12    25       P1  7948  1.00
      L1  C    12    25       P1  7957  0.88

> <Gold.PLP.Chemscore.Internal.Correction>
0.2841

> <Gold.Rescore>
     Score         DG    S(hbond)    S(metal)    S(lipo)     H(rot)  DE(clash)    DE(int)     intcor
     13.09     -13.92       0.98        0.00      80.17       1.64       0.02       0.81       ----

> <Gold.Chemscore.Fitness>
13.0878

> <Gold.Chemscore.DG>
-13.9194

> <Gold.Chemscore.ZeroCoef>
-5.4800

> <Gold.Chemscore.Hbond>
0.9762

> <Gold.Chemscore.Metal>
0.0000

> <Gold.Chemscore.Lipo>
80.1709

> <Gold.Chemscore.Internal_Hbond>
0.0000

> <Gold.Chemscore.DEClash>
0.0191

> <Gold.Chemscore.DEInternal>
0.8125

> <Gold.Chemscore.Rot>
1.6411

> <Gold.Chemscore.Internal.Correction>
   9.000000E+99

> <Gold.Chemscore.Hbonds>
donor molecule, donor type, donor heavy atom, donor atom, acceptor molecule, acceptor atom, score
      P1  H  7989  7998       L1    13  0.70

> <Gold.Chemscore.Hbond.Weighted>
-3.2605

> <Gold.Chemscore.Metal.Weighted>
-0.0000

> <Gold.Chemscore.Lipo.Weighted>
-9.3800

> <Gold.Chemscore.Internal_Hbond.Weighted>
0.0000

> <Gold.Chemscore.DEClash.Weighted>
0.0191

> <Gold.Chemscore.DEInternal.Weighted>
0.8125

> <Gold.Chemscore.Rot.Weighted>
4.2011

> <Gold.Chemscore.Internal.Correction.Weighted>
   9.000000E+99

> <Gold.Protein.RotatedTorsions>
[ 6907 6896 6895 6894 ] final   74.81 input  -60.11 | X-H torsion
[ 7974 7965 7964 7962 ] final  110.39 input  175.53 | X-H torsion
[ 8008 7997 7996 7995 ] final    2.26 input   59.86 | X-H torsion
[ 10167 10162 10161 10158 ] final   79.92 input  -65.29 | X-H torsion
[ 10718 10713 10712 10709 ] final  -34.75 input   66.30 | X-H torsion
[ 10763 10752 10751 10750 ] final -159.02 input  -60.55 | X-H torsion
[ 11005 11000 10999 10996 ] final   24.47 input  -57.11 | X-H torsion

> <Gold.Protein.ActiveResidues>
 VAL166  LYS551  ARG553  GLY616  TRP617  ASP618  TYR619  PRO620  LYS621  CYS622 
 ASP623  PHE694  ASN695  SER759  ASP760  ASP761  ALA762  ILE779  LEU786  VAL792 
 PHE793  MET794  SER795  GLU796  ALA797  LYS798  CYS799  TRP800  GLU811  SER814 

> <Gold.Protein.RotatedAtoms>
  152.4995  134.4215  159.9481 H   0  0  0  0  0  0  0  0  0  0  0  0  # atno 6907 bound_to 6896
  151.4188  133.3698  159.2761 H   0  0  0  0  0  0  0  0  0  0  0  0  # atno 6908 bound_to 6896
  150.9237  134.8677  159.7565 H   0  0  0  0  0  0  0  0  0  0  0  0  # atno 6909 bound_to 6896
  145.2556  139.2722  143.4044 H   0  0  0  0  0  0  0  0  0  0  0  0  # atno 7974 bound_to 7965
  154.6895  140.2650  155.6827 H   0  0  0  0  0  0  0  0  0  0  0  0  # atno 8008 bound_to 7997
  156.2727  140.2794  156.1391 H   0  0  0  0  0  0  0  0  0  0  0  0  # atno 8009 bound_to 7997
  155.0917  140.0373  157.2660 H   0  0  0  0  0  0  0  0  0  0  0  0  # atno 8010 bound_to 7997
  139.9553  144.5998  150.8123 H   0  0  0  0  0  0  0  0  0  0  0  0  # atno 10167 bound_to 10162
  156.3468  130.4302  149.7739 H   0  0  0  0  0  0  0  0  0  0  0  0  # atno 10718 bound_to 10713
  154.7509  135.3092  154.8559 H   0  0  0  0  0  0  0  0  0  0  0  0  # atno 10763 bound_to 10752
  153.9347  135.6781  153.4749 H   0  0  0  0  0  0  0  0  0  0  0  0  # atno 10764 bound_to 10752
  153.1105  135.4869  154.8955 H   0  0  0  0  0  0  0  0  0  0  0  0  # atno 10765 bound_to 10752
  140.3584  134.2152  155.7674 H   0  0  0  0  0  0  0  0  0  0  0  0  # atno 11005 bound_to 11000
  146.3290  140.2959  142.8618 LP  0  0  0  0  0  0  0  0  0  0  0  0  # atno 17320 bound_to 7965
  144.9464  140.8132  143.5599 LP  0  0  0  0  0  0  0  0  0  0  0  0  # atno 17321 bound_to 7965
  140.7570  143.3078  151.2920 LP  0  0  0  0  0  0  0  0  0  0  0  0  # atno 17342 bound_to 10162
  139.6596  144.0213  152.2683 LP  0  0  0  0  0  0  0  0  0  0  0  0  # atno 17343 bound_to 10162
  156.4954  130.8104  151.3111 LP  0  0  0  0  0  0  0  0  0  0  0  0  # atno 17370 bound_to 10713
  157.7455  130.9962  150.2770 LP  0  0  0  0  0  0  0  0  0  0  0  0  # atno 17371 bound_to 10713
  141.1991  133.8018  157.0550 LP  0  0  0  0  0  0  0  0  0  0  0  0  # atno 17394 bound_to 11000
  140.0647  134.9736  157.1365 LP  0  0  0  0  0  0  0  0  0  0  0  0  # atno 17395 bound_to 11000

$$$$
