AV-unprocessed.smi:2328|AV-procd|sdf|9301|dock4
  -GOLD-   2272012523D 1   1.00000     0.00000
 Structure written by MMmdl.
 40 40  0  0  0  0  0  0  0  0  1 V2000
  147.8317  141.0705  153.6272 C   0  0  0  0  0  0  0  0  0  0  0  0
  148.8150  141.8908  154.4887 C   0  0  0  0  0  0  0  0  0  0  0  0
  149.4488  141.2075  155.7530 C   0  0  2  0  0  0  0  0  0  0  0  0
  150.2036  142.2191  156.5272 N   0  0  0  0  0  0  0  0  0  0  0  0
  151.0788  142.1421  157.5520 C   0  0  0  0  0  0  0  0  0  0  0  0
  151.3859  141.0406  158.0050 O   0  0  0  0  0  0  0  0  0  0  0  0
  151.7111  143.4079  158.1581 C   0  0  0  0  0  0  0  0  0  0  0  0
  152.3787  143.1162  159.4920 C   0  0  0  0  0  0  0  0  0  0  0  0
  152.0416  143.8481  160.6497 C   0  0  0  0  0  0  0  0  0  0  0  0
  152.6898  143.5378  161.8607 C   0  0  0  0  0  0  0  0  0  0  0  0
  153.6497  142.5060  161.8623 C   0  0  0  0  0  0  0  0  0  0  0  0
  153.9810  141.7989  160.7604 N   0  0  0  0  0  0  0  0  0  0  0  0
  153.3551  142.1031  159.6034 C   0  0  0  0  0  0  0  0  0  0  0  0
  150.3575  140.0104  155.3331 C   0  0  0  0  0  0  0  0  0  0  0  0
  150.9040  139.2439  156.2847 N   0  0  0  0  0  0  0  0  0  0  0  0
  150.5505  139.7538  154.1472 O   0  0  0  0  0  0  0  0  0  0  0  0
  148.3264  140.6713  156.7169 C   0  0  0  0  0  0  0  0  0  0  0  0
  147.5479  139.4626  156.1482 C   0  0  0  0  0  0  0  0  0  0  0  0
  147.2988  141.7426  157.1556 C   0  0  0  0  0  0  0  0  0  0  0  0
  147.4686  141.6783  152.7983 H   0  0  0  0  0  0  0  0  0  0  0  0
  146.9548  140.7498  154.1875 H   0  0  0  0  0  0  0  0  0  0  0  0
  148.2917  140.1872  153.1883 H   0  0  0  0  0  0  0  0  0  0  0  0
  149.6001  142.2149  153.8088 H   0  0  0  0  0  0  0  0  0  0  0  0
  148.3092  142.8092  154.7894 H   0  0  0  0  0  0  0  0  0  0  0  0
  150.0602  143.1591  156.1874 H   0  0  0  0  0  0  0  0  0  0  0  0
  152.4665  143.8364  157.5030 H   0  0  0  0  0  0  0  0  0  0  0  0
  150.9362  144.1628  158.2943 H   0  0  0  0  0  0  0  0  0  0  0  0
  151.2990  144.6316  160.6127 H   0  0  0  0  0  0  0  0  0  0  0  0
  152.4565  144.0768  162.7669 H   0  0  0  0  0  0  0  0  0  0  0  0
  154.1656  142.2422  162.7737 H   0  0  0  0  0  0  0  0  0  0  0  0
  153.6410  141.5197  158.7403 H   0  0  0  0  0  0  0  0  0  0  0  0
  151.4986  138.4694  156.0268 H   0  0  0  0  0  0  0  0  0  0  0  0
  150.7239  139.4469  157.2573 H   0  0  0  0  0  0  0  0  0  0  0  0
  148.8044  140.3322  157.6365 H   0  0  0  0  0  0  0  0  0  0  0  0
  147.0038  139.7212  155.2396 H   0  0  0  0  0  0  0  0  0  0  0  0
  146.8157  139.0998  156.8698 H   0  0  0  0  0  0  0  0  0  0  0  0
  148.1969  138.6197  155.9154 H   0  0  0  0  0  0  0  0  0  0  0  0
  146.7662  142.1674  156.3043 H   0  0  0  0  0  0  0  0  0  0  0  0
  147.7611  142.5637  157.7032 H   0  0  0  0  0  0  0  0  0  0  0  0
  146.5506  141.3122  157.8217 H   0  0  0  0  0  0  0  0  0  0  0  0
  1  2  1  0  0  0  0
  1 20  1  0  0  0  0
  1 21  1  0  0  0  0
  1 22  1  0  0  0  0
  2  3  1  0  0  0  0
  2 23  1  0  0  0  0
  2 24  1  0  0  0  0
  3  4  1  0  0  0  0
  3 14  1  0  0  0  0
  3 17  1  0  0  0  0
  4  5  1  0  0  0  0
  4 25  1  0  0  0  0
  5  6  2  0  0  0  0
  5  7  1  0  0  0  0
  7  8  1  0  0  0  0
  7 26  1  0  0  0  0
  7 27  1  0  0  0  0
  8 13  1  0  0  0  0
  8  9  2  0  0  0  0
  9 10  1  0  0  0  0
  9 28  1  0  0  0  0
 10 11  2  0  0  0  0
 10 29  1  0  0  0  0
 11 12  1  0  0  0  0
 11 30  1  0  0  0  0
 12 13  2  0  0  0  0
 13 31  1  0  0  0  0
 14 15  1  0  0  0  0
 14 16  2  0  0  0  0
 15 32  1  0  0  0  0
 15 33  1  0  0  0  0
 17 18  1  0  0  0  0
 17 19  1  0  0  0  0
 17 34  1  0  0  0  0
 18 35  1  0  0  0  0
 18 36  1  0  0  0  0
 18 37  1  0  0  0  0
 19 38  1  0  0  0  0
 19 39  1  0  0  0  0
 19 40  1  0  0  0  0
M  END
> <s_m_source_file>
AV-unprocessed.smi

> <i_m_source_file_index>
2328

> <i_lp_mmshare_version>
43012

> <i_f3d_flags>
0

> <s_epik_input>
W0NIM11bQ0gyXVtDQEBdKEMoPU8pW05IMl0pKFtDSF0oW0NIM10pW0NIM10pW05IXUMoPU8pW0NIMl1jMVtjSF1bY0hdW2NIXW5bY0hdMQ==

> <s_epik_cmdline>
J2VwaWtfcHl0aG9uJywgJy1waCcsICc3LjAnLCAnLXRuJywgJzgnLCAnLW1hJywgJzIwMCcsICctbWV0YWxfYmluZGluZycsICctaW1hZScsICc8aW5maWxlLm1hZT4nLCAnLW9tYWUnLCAnPG91dGZpbGUubWFlPic=

> <r_epik_Ionization_Penalty>
0.00378489

> <r_epik_Ionization_Penalty_Charging>
0

> <r_epik_Ionization_Penalty_Neutral>
0.00378489

> <r_epik_State_Penalty>
0.00269972

> <r_epik_Charging_Adjusted_Penalty>
0.00269972

> <i_epik_Tot_Q>
0

> <i_epik_Tot_abs_Q>
0

> <r_epik_Metal_State_Penalty>
-0

> <b_epik_Metal_Only>
0

> <s_lp_Force_Field>
OPLS_2005

> <r_lp_Energy>
16.0565

> <b_lp_Chiralities_Consistent>
1

> <s_lp_Variant>
AV-unprocessed.smi:2328-2

> <Gold.Version>
5.8.1

> <Gold.Id.Protein>
6NUR|6NUR_protein|mol2

> <Gold.PLP.Fitness>
43.2128

> <Gold.PLP.PLP>
-38.2320

> <Gold.PLP.part.hbond>
-2.0000

> <Gold.PLP.part.metal>
0.0000

> <Gold.PLP.part.buried>
-3.3053

> <Gold.PLP.part.nonpolar>
-32.0920

> <Gold.PLP.part.repulsive>
0.2479

> <Gold.PLP.ligand.clash>
0.0051

> <Gold.PLP.ligand.torsion>
0.5683

> <Gold.PLP.Chemscore.Hbond>
1.9920

> <Gold.PLP.Chemscore.CHOScore>
0.0000

> <Gold.PLP.Chemscore.Metal>
0.0000

> <Gold.Chemscore.Hbonds>
donor molecule, donor type, donor heavy atom, donor atom, acceptor molecule, acceptor atom, score
      L1  H     4    25       P1  8028  1.00
      P1  H  7989  7998       L1    16  1.00

> <Gold.PLP.Chemscore.Internal.Correction>
0.1466

> <Gold.Rescore>
     Score         DG    S(hbond)    S(metal)    S(lipo)     H(rot)  DE(clash)    DE(int)     intcor
     14.88     -17.09       1.95        0.00      93.76       2.29       0.15       2.07       ----

> <Gold.Chemscore.Fitness>
14.8779

> <Gold.Chemscore.DG>
-17.0915

> <Gold.Chemscore.ZeroCoef>
-5.4800

> <Gold.Chemscore.Hbond>
1.9489

> <Gold.Chemscore.Metal>
0.0000

> <Gold.Chemscore.Lipo>
93.7593

> <Gold.Chemscore.Internal_Hbond>
0.0000

> <Gold.Chemscore.DEClash>
0.1462

> <Gold.Chemscore.DEInternal>
2.0674

> <Gold.Chemscore.Rot>
2.2921

> <Gold.Chemscore.Internal.Correction>
   9.000000E+99

> <Gold.Chemscore.Hbonds>
donor molecule, donor type, donor heavy atom, donor atom, acceptor molecule, acceptor atom, score
      L1  H     4    25       P1  8028  0.92
      P1  H  7989  7998       L1    16  0.74

> <Gold.Chemscore.Hbond.Weighted>
-6.5094

> <Gold.Chemscore.Metal.Weighted>
-0.0000

> <Gold.Chemscore.Lipo.Weighted>
-10.9698

> <Gold.Chemscore.Internal_Hbond.Weighted>
0.0000

> <Gold.Chemscore.DEClash.Weighted>
0.1462

> <Gold.Chemscore.DEInternal.Weighted>
2.0674

> <Gold.Chemscore.Rot.Weighted>
5.8677

> <Gold.Chemscore.Internal.Correction.Weighted>
   9.000000E+99

> <Gold.Protein.RotatedTorsions>
[ 6907 6896 6895 6894 ] final  146.48 input  -60.11 | X-H torsion
[ 7974 7965 7964 7962 ] final  -88.10 input  175.53 | X-H torsion
[ 8008 7997 7996 7995 ] final  -64.45 input   59.86 | X-H torsion
[ 10167 10162 10161 10158 ] final  168.20 input  -65.29 | X-H torsion
[ 10718 10713 10712 10709 ] final  -51.41 input   66.30 | X-H torsion
[ 10763 10752 10751 10750 ] final -168.80 input  -60.55 | X-H torsion
[ 11005 11000 10999 10996 ] final   82.93 input  -57.11 | X-H torsion

> <Gold.Protein.ActiveResidues>
 VAL166  LYS551  ARG553  GLY616  TRP617  ASP618  TYR619  PRO620  LYS621  CYS622 
 ASP623  PHE694  ASN695  SER759  ASP760  ASP761  ALA762  ILE779  LEU786  VAL792 
 PHE793  MET794  SER795  GLU796  ALA797  LYS798  CYS799  TRP800  GLU811  SER814 

> <Gold.Protein.RotatedAtoms>
  152.1674  133.4621  159.4891 H   0  0  0  0  0  0  0  0  0  0  0  0  # atno 6907 bound_to 6896
  150.6915  134.1996  159.4326 H   0  0  0  0  0  0  0  0  0  0  0  0  # atno 6908 bound_to 6896
  151.9901  134.9983  160.0612 H   0  0  0  0  0  0  0  0  0  0  0  0  # atno 6909 bound_to 6896
  145.4577  140.9561  143.1987 H   0  0  0  0  0  0  0  0  0  0  0  0  # atno 7974 bound_to 7965
  154.4612  140.0953  156.6899 H   0  0  0  0  0  0  0  0  0  0  0  0  # atno 8008 bound_to 7997
  155.4988  140.3473  155.4349 H   0  0  0  0  0  0  0  0  0  0  0  0  # atno 8009 bound_to 7997
  156.0874  140.1388  156.9624 H   0  0  0  0  0  0  0  0  0  0  0  0  # atno 8010 bound_to 7997
  139.4962  144.3839  151.9591 H   0  0  0  0  0  0  0  0  0  0  0  0  # atno 10167 bound_to 10162
  156.1712  130.4149  149.9644 H   0  0  0  0  0  0  0  0  0  0  0  0  # atno 10718 bound_to 10713
  154.6591  135.2922  154.9890 H   0  0  0  0  0  0  0  0  0  0  0  0  # atno 10763 bound_to 10752
  154.0956  135.6584  153.4863 H   0  0  0  0  0  0  0  0  0  0  0  0  # atno 10764 bound_to 10752
  153.0419  135.5230  154.7533 H   0  0  0  0  0  0  0  0  0  0  0  0  # atno 10765 bound_to 10752
  139.9047  134.8107  156.2240 H   0  0  0  0  0  0  0  0  0  0  0  0  # atno 11005 bound_to 11000
  144.8022  139.6119  143.7066 LP  0  0  0  0  0  0  0  0  0  0  0  0  # atno 17320 bound_to 7965
  146.2469  139.6116  142.9454 LP  0  0  0  0  0  0  0  0  0  0  0  0  # atno 17321 bound_to 7965
  140.3276  144.3354  150.5994 LP  0  0  0  0  0  0  0  0  0  0  0  0  # atno 17342 bound_to 10162
  140.5671  143.2185  151.7664 LP  0  0  0  0  0  0  0  0  0  0  0  0  # atno 17343 bound_to 10162
  156.7443  130.9091  151.3634 LP  0  0  0  0  0  0  0  0  0  0  0  0  # atno 17370 bound_to 10713
  157.6804  130.9134  150.0253 LP  0  0  0  0  0  0  0  0  0  0  0  0  # atno 17371 bound_to 10713
  141.0387  133.6949  156.1559 LP  0  0  0  0  0  0  0  0  0  0  0  0  # atno 17394 bound_to 11000
  140.6988  134.4587  157.5587 LP  0  0  0  0  0  0  0  0  0  0  0  0  # atno 17395 bound_to 11000

$$$$
