AV-unprocessed.smi:2154|AV-procd|sdf|8775|dock4
  -GOLD-   2272011553D 1   1.00000     0.00000
 Structure written by MMmdl.
 31 32  0  0  0  0  0  0  0  0  2 V2000
  152.9864  142.3710  159.4771 C   0  0  0  0  0  0  0  0  0  0  0  0
  152.8020  143.8753  159.4511 C   0  0  1  0  0  0  0  0  0  0  0  0
  152.5670  144.6009  158.1467 C   0  0  0  0  0  0  0  0  0  0  0  0
  151.4609  144.5251  159.1740 C   0  0  1  0  0  0  0  0  0  0  0  0
  150.2073  143.7064  158.9145 C   0  0  0  0  0  0  0  0  0  0  0  0
  150.0712  143.2076  157.5523 N   0  0  0  0  0  0  0  0  0  0  0  0
  150.4835  142.0038  157.1277 C   0  0  0  0  0  0  0  0  0  0  0  0
  151.0161  141.1743  157.8664 O   0  0  0  0  0  0  0  0  0  0  0  0
  150.2224  141.6841  155.6493 C   0  0  0  0  0  0  0  0  0  0  0  0
  150.5019  140.2802  155.3066 N   0  0  0  0  0  0  0  0  0  0  0  0
  151.7807  139.7764  155.6033 C   0  0  0  0  0  0  0  0  0  0  0  0
  152.1258  138.5053  155.3230 C   0  0  0  0  0  0  0  0  0  0  0  0
  151.1327  137.6426  154.6953 C   0  0  0  0  0  0  0  0  0  0  0  0
  151.4285  136.4773  154.4380 O   0  0  0  0  0  0  0  0  0  0  0  0
  149.9077  138.1795  154.4219 N   0  5  0  0  0  0  0  0  0  0  0  0
  149.5715  139.4753  154.7099 C   0  0  0  0  0  0  0  0  0  0  0  0
  148.4606  139.9406  154.4525 O   0  0  0  0  0  0  0  0  0  0  0  0
  152.4465  141.8906  158.6615 H   0  0  0  0  0  0  0  0  0  0  0  0
  152.6252  141.9658  160.4225 H   0  0  0  0  0  0  0  0  0  0  0  0
  154.0436  142.1252  159.3764 H   0  0  0  0  0  0  0  0  0  0  0  0
  153.4239  144.3929  160.1789 H   0  0  0  0  0  0  0  0  0  0  0  0
  153.0588  145.5619  158.0105 H   0  0  0  0  0  0  0  0  0  0  0  0
  152.4624  144.0016  157.2443 H   0  0  0  0  0  0  0  0  0  0  0  0
  151.2733  145.4307  159.7483 H   0  0  0  0  0  0  0  0  0  0  0  0
  150.1881  142.8463  159.5834 H   0  0  0  0  0  0  0  0  0  0  0  0
  149.3359  144.3117  159.1691 H   0  0  0  0  0  0  0  0  0  0  0  0
  149.6401  143.8248  156.8795 H   0  0  0  0  0  0  0  0  0  0  0  0
  149.1827  141.9290  155.4294 H   0  0  0  0  0  0  0  0  0  0  0  0
  150.8126  142.3494  155.0162 H   0  0  0  0  0  0  0  0  0  0  0  0
  152.4582  140.4818  156.0610 H   0  0  0  0  0  0  0  0  0  0  0  0
  153.1136  138.1345  155.5539 H   0  0  0  0  0  0  0  0  0  0  0  0
  1  2  1  0  0  0  0
  1 18  1  0  0  0  0
  1 19  1  0  0  0  0
  1 20  1  0  0  0  0
  2  4  1  0  0  0  0
  2  3  1  0  0  0  0
  2 21  1  0  0  0  0
  3  4  1  0  0  0  0
  3 22  1  0  0  0  0
  3 23  1  0  0  0  0
  4  5  1  0  0  0  0
  4 24  1  0  0  0  0
  5  6  1  0  0  0  0
  5 25  1  0  0  0  0
  5 26  1  0  0  0  0
  6  7  1  0  0  0  0
  6 27  1  0  0  0  0
  7  8  2  0  0  0  0
  7  9  1  0  0  0  0
  9 10  1  0  0  0  0
  9 28  1  0  0  0  0
  9 29  1  0  0  0  0
 10 16  1  0  0  0  0
 10 11  1  0  0  0  0
 11 12  2  0  0  0  0
 11 30  1  0  0  0  0
 12 13  1  0  0  0  0
 12 31  1  0  0  0  0
 13 14  2  0  0  0  0
 13 15  1  0  0  0  0
 15 16  1  0  0  0  0
 16 17  2  0  0  0  0
M  CHG  1  15  -1
M  END
> <s_m_source_file>
AV-unprocessed.smi

> <i_m_source_file_index>
2154

> <i_lp_mmshare_version>
43012

> <i_f3d_flags>
0

> <s_epik_input>
W0NIM11bQ0BASF0xW0NIMl1bQ0BIXTFbQ0gyXVtOSF1DKD1PKVtDSDJdbjJbY0hdW2NIXWMoPU8pW25IXWMyPU8=

> <s_epik_cmdline>
J2VwaWtfcHl0aG9uJywgJy1waCcsICc3LjAnLCAnLXRuJywgJzgnLCAnLW1hJywgJzIwMCcsICctbWV0YWxfYmluZGluZycsICctaW1hZScsICc8aW5maWxlLm1hZT4nLCAnLW9tYWUnLCAnPG91dGZpbGUubWFlPic=

> <r_lp_tautomer_probability>
0.999537

> <r_epik_Ionization_Penalty>
3.12283

> <r_epik_Ionization_Penalty_Charging>
2.83566e-08

> <r_epik_Ionization_Penalty_Neutral>
3.12283

> <r_epik_State_Penalty>
3.12192

> <r_epik_Charging_Adjusted_Penalty>
3.12192

> <i_epik_Tot_Q>
-1

> <i_epik_Tot_abs_Q>
1

> <r_epik_Metal_State_Penalty>
0.463748

> <b_epik_Metal_Only>
1

> <s_lp_Force_Field>
OPLS_2005

> <r_lp_Energy>
25.8954

> <b_lp_Chiralities_Consistent>
1

> <s_lp_Variant>
AV-unprocessed.smi:2154-6

> <Gold.Version>
5.8.1

> <Gold.Id.Protein>
6NUR|6NUR_protein|mol2

> <Gold.PLP.Fitness>
45.4065

> <Gold.PLP.PLP>
-40.3223

> <Gold.PLP.part.hbond>
-2.0000

> <Gold.PLP.part.metal>
0.0000

> <Gold.PLP.part.buried>
-4.5019

> <Gold.PLP.part.nonpolar>
-34.7583

> <Gold.PLP.part.repulsive>
1.1780

> <Gold.PLP.ligand.clash>
0.0000

> <Gold.PLP.ligand.torsion>
0.7303

> <Gold.PLP.Chemscore.Hbond>
2.0000

> <Gold.PLP.Chemscore.CHOScore>
0.0000

> <Gold.PLP.Chemscore.Metal>
0.0000

> <Gold.Chemscore.Hbonds>
donor molecule, donor type, donor heavy atom, donor atom, acceptor molecule, acceptor atom, score
      L1  H     6    27       P1  8028  1.00
      P1  H 10752 10765       L1    14  1.00

> <Gold.PLP.Chemscore.Internal.Correction>
0.5447

> <Gold.Rescore>
     Score         DG    S(hbond)    S(metal)    S(lipo)     H(rot)  DE(clash)    DE(int)     intcor
     14.77     -16.93       1.98        0.00      84.15       1.96       0.11       2.05       ----

> <Gold.Chemscore.Fitness>
14.7701

> <Gold.Chemscore.DG>
-16.9276

> <Gold.Chemscore.ZeroCoef>
-5.4800

> <Gold.Chemscore.Hbond>
1.9825

> <Gold.Chemscore.Metal>
0.0000

> <Gold.Chemscore.Lipo>
84.1545

> <Gold.Chemscore.Internal_Hbond>
0.0000

> <Gold.Chemscore.DEClash>
0.1096

> <Gold.Chemscore.DEInternal>
2.0479

> <Gold.Chemscore.Rot>
1.9609

> <Gold.Chemscore.Internal.Correction>
   9.000000E+99

> <Gold.Chemscore.Hbonds>
donor molecule, donor type, donor heavy atom, donor atom, acceptor molecule, acceptor atom, score
      L1  H     6    27       P1  8028  0.94
      P1  H 10752 10765       L1    14  1.00

> <Gold.Chemscore.Hbond.Weighted>
-6.6215

> <Gold.Chemscore.Metal.Weighted>
-0.0000

> <Gold.Chemscore.Lipo.Weighted>
-9.8461

> <Gold.Chemscore.Internal_Hbond.Weighted>
0.0000

> <Gold.Chemscore.DEClash.Weighted>
0.1096

> <Gold.Chemscore.DEInternal.Weighted>
2.0479

> <Gold.Chemscore.Rot.Weighted>
5.0200

> <Gold.Chemscore.Internal.Correction.Weighted>
   9.000000E+99

> <Gold.Protein.RotatedTorsions>
[ 6907 6896 6895 6894 ] final -142.85 input  -60.11 | X-H torsion
[ 7974 7965 7964 7962 ] final   30.90 input  175.53 | X-H torsion
[ 8008 7997 7996 7995 ] final  -35.01 input   59.86 | X-H torsion
[ 10167 10162 10161 10158 ] final   36.90 input  -65.29 | X-H torsion
[ 10718 10713 10712 10709 ] final  107.06 input   66.30 | X-H torsion
[ 10763 10752 10751 10750 ] final  169.28 input  -60.55 | X-H torsion
[ 11005 11000 10999 10996 ] final   43.89 input  -57.11 | X-H torsion

> <Gold.Protein.ActiveResidues>
 VAL166  LYS551  ARG553  GLY616  TRP617  ASP618  TYR619  PRO620  LYS621  CYS622 
 ASP623  PHE694  ASN695  SER759  ASP760  ASP761  ALA762  ILE779  LEU786  VAL792 
 PHE793  MET794  SER795  GLU796  ALA797  LYS798  CYS799  TRP800  GLU811  SER814 

> <Gold.Protein.RotatedAtoms>
  151.0926  133.5304  159.2613 H   0  0  0  0  0  0  0  0  0  0  0  0  # atno 6907 bound_to 6896
  151.2166  135.0501  159.8942 H   0  0  0  0  0  0  0  0  0  0  0  0  # atno 6908 bound_to 6896
  152.5435  134.0734  159.8257 H   0  0  0  0  0  0  0  0  0  0  0  0  # atno 6909 bound_to 6896
  146.1584  139.6728  142.9051 H   0  0  0  0  0  0  0  0  0  0  0  0  # atno 7974 bound_to 7965
  154.4106  140.1669  156.2142 H   0  0  0  0  0  0  0  0  0  0  0  0  # atno 8008 bound_to 7997
  155.9419  140.3407  155.6311 H   0  0  0  0  0  0  0  0  0  0  0  0  # atno 8009 bound_to 7997
  155.6979  140.0741  157.2413 H   0  0  0  0  0  0  0  0  0  0  0  0  # atno 8010 bound_to 7997
  140.4083  144.1627  150.6137 H   0  0  0  0  0  0  0  0  0  0  0  0  # atno 10167 bound_to 10162
  157.6644  131.0864  150.6099 H   0  0  0  0  0  0  0  0  0  0  0  0  # atno 10718 bound_to 10713
  154.3808  135.2753  155.2212 H   0  0  0  0  0  0  0  0  0  0  0  0  # atno 10763 bound_to 10752
  154.4320  135.5975  153.6078 H   0  0  0  0  0  0  0  0  0  0  0  0  # atno 10764 bound_to 10752
  152.9834  135.5998  154.4051 H   0  0  0  0  0  0  0  0  0  0  0  0  # atno 10765 bound_to 10752
  140.1602  134.4350  155.8322 H   0  0  0  0  0  0  0  0  0  0  0  0  # atno 11005 bound_to 11000
  145.4651  141.0434  143.2730 LP  0  0  0  0  0  0  0  0  0  0  0  0  # atno 17320 bound_to 7965
  144.7993  139.6171  143.7078 LP  0  0  0  0  0  0  0  0  0  0  0  0  # atno 17321 bound_to 7965
  140.4665  143.2429  151.9148 LP  0  0  0  0  0  0  0  0  0  0  0  0  # atno 17342 bound_to 10162
  139.4783  144.5414  151.8523 LP  0  0  0  0  0  0  0  0  0  0  0  0  # atno 17343 bound_to 10162
  156.6400  130.4456  149.5755 LP  0  0  0  0  0  0  0  0  0  0  0  0  # atno 17370 bound_to 10713
  156.2216  130.6740  151.1374 LP  0  0  0  0  0  0  0  0  0  0  0  0  # atno 17371 bound_to 10713
  141.2208  133.6910  156.7580 LP  0  0  0  0  0  0  0  0  0  0  0  0  # atno 17394 bound_to 11000
  140.2499  134.8549  157.3656 LP  0  0  0  0  0  0  0  0  0  0  0  0  # atno 17395 bound_to 11000

$$$$
