AV-unprocessed.smi:1211|AV-procd|sdf|5079|dock1
  -GOLD-   22720 4133D 1   1.00000     0.00000
 Structure written by MMmdl.
 47 49  0  0  0  0  0  0  0  0  1 V2000
  146.8611  132.8019  152.6558 C   0  0  0  0  0  0  0  0  0  0  0  0
  145.7855  133.1148  151.6283 C   0  0  0  0  0  0  0  0  0  0  0  0
  145.0995  132.0529  151.0015 C   0  0  0  0  0  0  0  0  0  0  0  0
  144.1066  132.3440  150.0506 C   0  0  0  0  0  0  0  0  0  0  0  0
  143.8396  133.6939  149.7658 C   0  0  0  0  0  0  0  0  0  0  0  0
  144.4897  134.7149  150.3604 N   0  0  0  0  0  0  0  0  0  0  0  0
  145.4520  134.4513  151.2798 C   0  0  0  0  0  0  0  0  0  0  0  0
  146.1776  135.4775  151.9478 N   0  0  0  0  0  0  0  0  0  0  0  0
  145.7137  136.4208  152.7863 C   0  0  0  0  0  0  0  0  0  0  0  0
  144.5378  136.5586  153.1245 O   0  0  0  0  0  0  0  0  0  0  0  0
  146.7070  137.2096  153.2205 N   0  0  0  0  0  0  0  0  0  0  0  0
  146.5644  138.3355  154.1431 C   0  0  0  0  0  0  0  0  0  0  0  0
  147.9392  138.9500  154.5703 C   0  0  2  0  0  0  0  0  0  0  0  0
  148.9127  137.8647  154.9056 N   0  0  0  0  0  0  0  0  0  0  0  0
  148.4581  136.8690  155.8873 C   0  0  0  0  0  0  0  0  0  0  0  0
  149.4902  135.7500  156.1098 C   0  0  0  0  0  0  0  0  0  0  0  0
  150.7325  136.3117  156.5100 O   0  0  0  0  0  0  0  0  0  0  0  0
  151.2442  137.2212  155.5457 C   0  0  0  0  0  0  0  0  0  0  0  0
  150.2333  138.3579  155.3199 C   0  0  0  0  0  0  0  0  0  0  0  0
  147.6823  139.9350  155.7479 C   0  0  0  0  0  0  0  0  0  0  0  0
  146.9429  141.1699  155.2219 C   0  0  0  0  0  0  0  0  0  0  0  0
  147.5106  141.4544  153.5286 S   0  0  0  0  0  0  0  0  0  0  0  0
  148.4216  139.8879  153.4341 C   0  0  0  0  0  0  0  0  0  0  0  0
  146.9862  131.7265  152.7847 H   0  0  0  0  0  0  0  0  0  0  0  0
  146.5988  133.2281  153.6247 H   0  0  0  0  0  0  0  0  0  0  0  0
  147.8201  133.2155  152.3426 H   0  0  0  0  0  0  0  0  0  0  0  0
  145.3292  131.0257  151.2440 H   0  0  0  0  0  0  0  0  0  0  0  0
  143.5646  131.5537  149.5528 H   0  0  0  0  0  0  0  0  0  0  0  0
  143.0845  133.9621  149.0419 H   0  0  0  0  0  0  0  0  0  0  0  0
  147.1687  135.4969  151.7592 H   0  0  0  0  0  0  0  0  0  0  0  0
  147.6425  137.0124  152.8970 H   0  0  0  0  0  0  0  0  0  0  0  0
  145.9401  139.0811  153.6530 H   0  0  0  0  0  0  0  0  0  0  0  0
  145.9669  138.0402  155.0051 H   0  0  0  0  0  0  0  0  0  0  0  0
  148.2448  137.3423  156.8450 H   0  0  0  0  0  0  0  0  0  0  0  0
  147.5435  136.3823  155.5574 H   0  0  0  0  0  0  0  0  0  0  0  0
  149.1442  135.0656  156.8844 H   0  0  0  0  0  0  0  0  0  0  0  0
  149.6238  135.1621  155.2005 H   0  0  0  0  0  0  0  0  0  0  0  0
  152.1916  137.6235  155.9044 H   0  0  0  0  0  0  0  0  0  0  0  0
  151.4516  136.6967  154.6116 H   0  0  0  0  0  0  0  0  0  0  0  0
  150.6582  139.0211  154.5699 H   0  0  0  0  0  0  0  0  0  0  0  0
  150.1425  138.9384  156.2386 H   0  0  0  0  0  0  0  0  0  0  0  0
  147.1555  139.4734  156.5828 H   0  0  0  0  0  0  0  0  0  0  0  0
  148.6167  140.3174  156.1522 H   0  0  0  0  0  0  0  0  0  0  0  0
  145.8659  141.0028  155.2099 H   0  0  0  0  0  0  0  0  0  0  0  0
  147.1267  142.0469  155.8427 H   0  0  0  0  0  0  0  0  0  0  0  0
  149.4744  140.1415  153.5449 H   0  0  0  0  0  0  0  0  0  0  0  0
  148.3062  139.4432  152.4452 H   0  0  0  0  0  0  0  0  0  0  0  0
  1  2  1  0  0  0  0
  1 24  1  0  0  0  0
  1 25  1  0  0  0  0
  1 26  1  0  0  0  0
  2  7  1  0  0  0  0
  2  3  2  0  0  0  0
  3  4  1  0  0  0  0
  3 27  1  0  0  0  0
  4  5  2  0  0  0  0
  4 28  1  0  0  0  0
  5  6  1  0  0  0  0
  5 29  1  0  0  0  0
  6  7  2  0  0  0  0
  7  8  1  0  0  0  0
  8  9  1  0  0  0  0
  8 30  1  0  0  0  0
  9 10  2  0  0  0  0
  9 11  1  0  0  0  0
 11 12  1  0  0  0  0
 11 31  1  0  0  0  0
 12 13  1  0  0  0  0
 12 32  1  0  0  0  0
 12 33  1  0  0  0  0
 13 23  1  0  0  0  0
 13 14  1  0  0  0  0
 13 20  1  0  0  0  0
 14 19  1  0  0  0  0
 14 15  1  0  0  0  0
 15 16  1  0  0  0  0
 15 34  1  0  0  0  0
 15 35  1  0  0  0  0
 16 17  1  0  0  0  0
 16 36  1  0  0  0  0
 16 37  1  0  0  0  0
 17 18  1  0  0  0  0
 18 19  1  0  0  0  0
 18 38  1  0  0  0  0
 18 39  1  0  0  0  0
 19 40  1  0  0  0  0
 19 41  1  0  0  0  0
 20 21  1  0  0  0  0
 20 42  1  0  0  0  0
 20 43  1  0  0  0  0
 21 22  1  0  0  0  0
 21 44  1  0  0  0  0
 21 45  1  0  0  0  0
 22 23  1  0  0  0  0
 23 46  1  0  0  0  0
 23 47  1  0  0  0  0
M  END
> <s_m_source_file>
AV-unprocessed.smi

> <i_m_source_file_index>
1211

> <i_lp_mmshare_version>
43012

> <i_f3d_flags>
0

> <s_epik_input>
W0NIM11jMVtjSF1bY0hdW2NIXW5jMVtOSF1DKD1PKVtOSF1bQ0gyXVtDQF0yKFtDSDJdW0NIMl1TW0NIMl0yKU4zW0NIMl1bQ0gyXU9bQ0gyXVtDSDJdMw==

> <s_epik_cmdline>
J2VwaWtfcHl0aG9uJywgJy1waCcsICc3LjAnLCAnLXRuJywgJzgnLCAnLW1hJywgJzIwMCcsICctbWV0YWxfYmluZGluZycsICctaW1hZScsICc8aW5maWxlLm1hZT4nLCAnLW9tYWUnLCAnPG91dGZpbGUubWFlPic=

> <r_epik_Ionization_Penalty>
0.0195636

> <r_epik_Ionization_Penalty_Charging>
0

> <r_epik_Ionization_Penalty_Neutral>
0.0195636

> <r_epik_State_Penalty>
0.0155843

> <r_epik_Charging_Adjusted_Penalty>
0.0155843

> <i_epik_Tot_Q>
0

> <i_epik_Tot_abs_Q>
0

> <r_epik_Metal_State_Penalty>
0.0155842

> <b_epik_Metal_Only>
0

> <s_lp_Force_Field>
OPLS_2005

> <r_lp_Energy>
55.6776

> <b_lp_Chiralities_Consistent>
1

> <s_lp_Variant>
AV-unprocessed.smi:1211-2

> <Gold.Version>
5.8.1

> <Gold.Id.Protein>
6NUR|6NUR_protein|mol2

> <Gold.PLP.Fitness>
42.6563

> <Gold.PLP.PLP>
-32.5693

> <Gold.PLP.part.hbond>
-3.0000

> <Gold.PLP.part.metal>
0.0000

> <Gold.PLP.part.buried>
-2.3957

> <Gold.PLP.part.nonpolar>
-28.6731

> <Gold.PLP.part.repulsive>
0.4938

> <Gold.PLP.ligand.clash>
0.0000

> <Gold.PLP.ligand.torsion>
0.8466

> <Gold.PLP.Chemscore.Hbond>
2.9000

> <Gold.PLP.Chemscore.CHOScore>
1.0000

> <Gold.PLP.Chemscore.Metal>
0.0000

> <Gold.Chemscore.Hbonds>
donor molecule, donor type, donor heavy atom, donor atom, acceptor molecule, acceptor atom, score
      L1  H     8    30       P1  7948  1.00
      L1  H    11    31       P1  7948  1.00
      L1  C     5    29       P1 10186  0.90

> <Gold.PLP.Chemscore.Internal.Correction>
0.0800

> <Gold.Rescore>
     Score         DG    S(hbond)    S(metal)    S(lipo)     H(rot)  DE(clash)    DE(int)     intcor
     16.87     -19.08       1.93        0.00      92.72       1.44       1.48       0.74       ----

> <Gold.Chemscore.Fitness>
16.8682

> <Gold.Chemscore.DG>
-19.0836

> <Gold.Chemscore.ZeroCoef>
-5.4800

> <Gold.Chemscore.Hbond>
1.9289

> <Gold.Chemscore.Metal>
0.0000

> <Gold.Chemscore.Lipo>
92.7239

> <Gold.Chemscore.Internal_Hbond>
0.0000

> <Gold.Chemscore.DEClash>
1.4801

> <Gold.Chemscore.DEInternal>
0.7353

> <Gold.Chemscore.Rot>
1.4405

> <Gold.Chemscore.Internal.Correction>
   9.000000E+99

> <Gold.Chemscore.Hbonds>
donor molecule, donor type, donor heavy atom, donor atom, acceptor molecule, acceptor atom, score
      L1  H     8    30       P1  7948  0.98
      L1  H    11    31       P1  7948  0.99

> <Gold.Chemscore.Hbond.Weighted>
-6.4425

> <Gold.Chemscore.Metal.Weighted>
-0.0000

> <Gold.Chemscore.Lipo.Weighted>
-10.8487

> <Gold.Chemscore.Internal_Hbond.Weighted>
0.0000

> <Gold.Chemscore.DEClash.Weighted>
1.4801

> <Gold.Chemscore.DEInternal.Weighted>
0.7353

> <Gold.Chemscore.Rot.Weighted>
3.6876

> <Gold.Chemscore.Internal.Correction.Weighted>
   9.000000E+99

> <Gold.Protein.RotatedTorsions>
[ 6907 6896 6895 6894 ] final   48.16 input  -60.11 | X-H torsion
[ 7974 7965 7964 7962 ] final  -10.57 input  175.53 | X-H torsion
[ 8008 7997 7996 7995 ] final -179.81 input   59.86 | X-H torsion
[ 10167 10162 10161 10158 ] final  -22.69 input  -65.29 | X-H torsion
[ 10718 10713 10712 10709 ] final -164.08 input   66.30 | X-H torsion
[ 10763 10752 10751 10750 ] final   80.61 input  -60.55 | X-H torsion
[ 11005 11000 10999 10996 ] final   25.15 input  -57.11 | X-H torsion

> <Gold.Protein.ActiveResidues>
 VAL166  LYS551  ARG553  GLY616  TRP617  ASP618  TYR619  PRO620  LYS621  CYS622 
 ASP623  PHE694  ASN695  SER759  ASP760  ASP761  ALA762  ILE779  LEU786  VAL792 
 PHE793  MET794  SER795  GLU796  ALA797  LYS798  CYS799  TRP800  GLU811  SER814 

> <Gold.Protein.RotatedAtoms>
  152.2764  134.7877  160.0404 H   0  0  0  0  0  0  0  0  0  0  0  0  # atno 6907 bound_to 6896
  151.8472  133.3428  159.3670 H   0  0  0  0  0  0  0  0  0  0  0  0  # atno 6908 bound_to 6896
  150.7172  134.5262  159.5722 H   0  0  0  0  0  0  0  0  0  0  0  0  # atno 6909 bound_to 6896
  146.2216  140.2783  142.8361 H   0  0  0  0  0  0  0  0  0  0  0  0  # atno 7974 bound_to 7965
  156.0347  140.1290  157.0220 H   0  0  0  0  0  0  0  0  0  0  0  0  # atno 8008 bound_to 7997
  154.4365  140.1042  156.6221 H   0  0  0  0  0  0  0  0  0  0  0  0  # atno 8009 bound_to 7997
  155.5755  140.3467  155.4528 H   0  0  0  0  0  0  0  0  0  0  0  0  # atno 8010 bound_to 7997
  140.7286  143.4511  151.0514 H   0  0  0  0  0  0  0  0  0  0  0  0  # atno 10167 bound_to 10162
  156.6339  130.8941  151.2983 H   0  0  0  0  0  0  0  0  0  0  0  0  # atno 10718 bound_to 10713
  153.1048  135.4796  154.8931 H   0  0  0  0  0  0  0  0  0  0  0  0  # atno 10763 bound_to 10752
  154.7418  135.3084  154.8717 H   0  0  0  0  0  0  0  0  0  0  0  0  # atno 10764 bound_to 10752
  153.9323  135.6843  153.4799 H   0  0  0  0  0  0  0  0  0  0  0  0  # atno 10765 bound_to 10752
  140.3509  134.2230  155.7680 H   0  0  0  0  0  0  0  0  0  0  0  0  # atno 11005 bound_to 11000
  144.9216  140.7874  143.5745 LP  0  0  0  0  0  0  0  0  0  0  0  0  # atno 17320 bound_to 7965
  145.2720  139.1951  143.4836 LP  0  0  0  0  0  0  0  0  0  0  0  0  # atno 17321 bound_to 7965
  139.8188  143.7849  152.3176 LP  0  0  0  0  0  0  0  0  0  0  0  0  # atno 17342 bound_to 10162
  139.7924  144.7405  150.9936 LP  0  0  0  0  0  0  0  0  0  0  0  0  # atno 17343 bound_to 10162
  157.7191  130.9535  150.1370 LP  0  0  0  0  0  0  0  0  0  0  0  0  # atno 17370 bound_to 10713
  156.2212  130.3674  149.8553 LP  0  0  0  0  0  0  0  0  0  0  0  0  # atno 17371 bound_to 10713
  141.2012  133.7968  157.0451 LP  0  0  0  0  0  0  0  0  0  0  0  0  # atno 17394 bound_to 11000
  140.0704  134.9705  157.1457 LP  0  0  0  0  0  0  0  0  0  0  0  0  # atno 17395 bound_to 11000

$$$$
