AV-unprocessed.smi:156|AV-procd|sdf|1289|dock1
  -GOLD-   2262018563D 1   1.00000     0.00000
 Structure written by MMmdl.
 51 53  0  0  0  0  0  0  0  0  1 V2000
  146.9795  132.6068  160.3541 C   0  0  0  0  0  0  0  0  0  0  0  0
  147.4348  134.0770  160.4530 C   0  0  2  0  0  0  0  0  0  0  0  0
  146.6598  134.8990  161.5237 C   0  0  1  0  0  0  0  0  0  0  0  0
  147.4770  135.1260  162.8098 C   0  0  0  0  0  0  0  0  0  0  0  0
  146.0704  136.5487  160.8727 S   0  0  0  0  0  0  0  0  0  0  0  0
  145.2094  137.2978  162.3198 C   0  0  0  0  0  0  0  0  0  0  0  0
  147.2297  137.3961  160.5556 O   0  0  0  0  0  0  0  0  0  0  0  0
  145.0551  136.3035  159.8368 O   0  0  0  0  0  0  0  0  0  0  0  0
  147.3828  134.7115  159.1294 N   0  0  0  0  0  0  0  0  0  0  0  0
  146.3561  134.3386  158.1601 C   0  0  0  0  0  0  0  0  0  0  0  0
  148.4205  135.4731  158.6901 C   0  0  0  0  0  0  0  0  0  0  0  0
  149.1748  136.1521  159.5950 N   0  0  0  0  0  0  0  0  0  0  0  0
  150.2000  136.9086  159.1947 C   0  0  0  0  0  0  0  0  0  0  0  0
  150.6360  137.1325  157.9548 N   0  0  0  0  0  0  0  0  0  0  0  0
  149.8800  136.4650  157.0369 C   0  0  0  0  0  0  0  0  0  0  0  0
  148.7722  135.6136  157.3153 C   0  0  0  0  0  0  0  0  0  0  0  0
  148.2616  135.1089  156.1248 N   0  0  0  0  0  0  0  0  0  0  0  0
  149.0225  135.6278  155.2012 C   0  0  0  0  0  0  0  0  0  0  0  0
  150.0090  136.4722  155.6580 N   0  0  0  0  0  0  0  0  0  0  0  0
  150.9902  137.1896  154.8545 C   0  0  0  0  0  0  0  0  0  0  0  0
  150.9424  138.7318  154.9891 C   0  0  0  0  0  0  0  0  0  0  0  0
  149.6184  139.2228  154.3870 C   0  0  0  0  0  0  0  0  0  0  0  0
  149.3609  138.6098  153.1397 O   0  0  0  0  0  0  0  0  0  0  0  0
  151.2752  139.2980  156.3802 C   0  0  0  0  0  0  0  0  0  0  0  0
  152.6078  139.6694  155.9702 O   0  0  0  0  0  0  0  0  0  0  0  0
  152.2011  139.5237  154.5932 C   0  0  0  0  0  0  0  0  0  0  0  0
  147.2044  132.0548  161.2662 H   0  0  0  0  0  0  0  0  0  0  0  0
  147.4953  132.0922  159.5427 H   0  0  0  0  0  0  0  0  0  0  0  0
  145.9083  132.5240  160.1711 H   0  0  0  0  0  0  0  0  0  0  0  0
  148.4693  134.0473  160.7922 H   0  0  0  0  0  0  0  0  0  0  0  0
  145.7592  134.3539  161.8073 H   0  0  0  0  0  0  0  0  0  0  0  0
  147.7038  134.1868  163.3131 H   0  0  0  0  0  0  0  0  0  0  0  0
  146.9270  135.7330  163.5288 H   0  0  0  0  0  0  0  0  0  0  0  0
  148.4206  135.6300  162.6017 H   0  0  0  0  0  0  0  0  0  0  0  0
  144.7478  138.2355  162.0118 H   0  0  0  0  0  0  0  0  0  0  0  0
  145.9249  137.5064  163.1143 H   0  0  0  0  0  0  0  0  0  0  0  0
  144.4367  136.6232  162.6860 H   0  0  0  0  0  0  0  0  0  0  0  0
  146.7896  134.1743  157.1729 H   0  0  0  0  0  0  0  0  0  0  0  0
  145.6037  135.1230  158.0802 H   0  0  0  0  0  0  0  0  0  0  0  0
  145.8457  133.4216  158.4522 H   0  0  0  0  0  0  0  0  0  0  0  0
  150.7479  137.4078  159.9801 H   0  0  0  0  0  0  0  0  0  0  0  0
  148.8776  135.4093  154.1536 H   0  0  0  0  0  0  0  0  0  0  0  0
  151.9745  136.8071  155.1260 H   0  0  0  0  0  0  0  0  0  0  0  0
  150.8392  136.8987  153.8141 H   0  0  0  0  0  0  0  0  0  0  0  0
  148.7829  139.0245  155.0592 H   0  0  0  0  0  0  0  0  0  0  0  0
  149.6391  140.3017  154.2285 H   0  0  0  0  0  0  0  0  0  0  0  0
  149.6293  139.2005  152.4524 H   0  0  0  0  0  0  0  0  0  0  0  0
  150.6836  140.1725  156.6567 H   0  0  0  0  0  0  0  0  0  0  0  0
  151.2655  138.5660  157.1865 H   0  0  0  0  0  0  0  0  0  0  0  0
  152.9218  138.9723  153.9921 H   0  0  0  0  0  0  0  0  0  0  0  0
  151.9854  140.4903  154.1344 H   0  0  0  0  0  0  0  0  0  0  0  0
  1  2  1  0  0  0  0
  1 27  1  0  0  0  0
  1 28  1  0  0  0  0
  1 29  1  0  0  0  0
  2  3  1  0  0  0  0
  2  9  1  0  0  0  0
  2 30  1  0  0  0  0
  3  4  1  0  0  0  0
  3  5  1  0  0  0  0
  3 31  1  0  0  0  0
  4 32  1  0  0  0  0
  4 33  1  0  0  0  0
  4 34  1  0  0  0  0
  5  6  1  0  0  0  0
  5  7  2  0  0  0  0
  5  8  2  0  0  0  0
  6 35  1  0  0  0  0
  6 36  1  0  0  0  0
  6 37  1  0  0  0  0
  9 10  1  0  0  0  0
  9 11  1  0  0  0  0
 10 38  1  0  0  0  0
 10 39  1  0  0  0  0
 10 40  1  0  0  0  0
 11 16  1  0  0  0  0
 11 12  2  0  0  0  0
 12 13  1  0  0  0  0
 13 14  2  0  0  0  0
 13 41  1  0  0  0  0
 14 15  1  0  0  0  0
 15 19  1  0  0  0  0
 15 16  2  0  0  0  0
 16 17  1  0  0  0  0
 17 18  2  0  0  0  0
 18 19  1  0  0  0  0
 18 42  1  0  0  0  0
 19 20  1  0  0  0  0
 20 21  1  0  0  0  0
 20 43  1  0  0  0  0
 20 44  1  0  0  0  0
 21 26  1  0  0  0  0
 21 22  1  0  0  0  0
 21 24  1  0  0  0  0
 22 23  1  0  0  0  0
 22 45  1  0  0  0  0
 22 46  1  0  0  0  0
 23 47  1  0  0  0  0
 24 25  1  0  0  0  0
 24 48  1  0  0  0  0
 24 49  1  0  0  0  0
 25 26  1  0  0  0  0
 26 50  1  0  0  0  0
 26 51  1  0  0  0  0
M  END
> <s_m_source_file>
AV-unprocessed.smi

> <i_m_source_file_index>
156

> <i_lp_mmshare_version>
43012

> <i_f3d_flags>
0

> <s_epik_input>
W0NIM11TKD1PKSg9TylbQ0BASF0oW0NIM10pW0NAQEhdKFtDSDNdKU4oW0NIM10pYyhuW2NIXW4xKWMoYzEyKW5bY0hdbjJbQ0gyXUMzKFtDSDJdW09IXSlbQ0gyXU9bQ0gyXTM=

> <s_epik_cmdline>
J2VwaWtfcHl0aG9uJywgJy1waCcsICc3LjAnLCAnLXRuJywgJzgnLCAnLW1hJywgJzIwMCcsICctbWV0YWxfYmluZGluZycsICctaW1hZScsICc8aW5maWxlLm1hZT4nLCAnLW9tYWUnLCAnPG91dGZpbGUubWFlPic=

> <r_lp_tautomer_probability>
1

> <r_epik_Ionization_Penalty>
0.00107697

> <r_epik_Ionization_Penalty_Charging>
0

> <r_epik_Ionization_Penalty_Neutral>
0.00107697

> <r_epik_State_Penalty>
0.000614712

> <r_epik_Charging_Adjusted_Penalty>
0.000614712

> <i_epik_Tot_Q>
0

> <i_epik_Tot_abs_Q>
0

> <r_epik_Metal_State_Penalty>
-0

> <b_epik_Metal_Only>
0

> <s_lp_Force_Field>
OPLS_2005

> <r_lp_Energy>
28.6083

> <b_lp_Chiralities_Consistent>
1

> <s_lp_Variant>
AV-unprocessed.smi:156-3

> <Gold.Version>
5.8.1

> <Gold.Id.Protein>
6NUR|6NUR_protein|mol2

> <Gold.PLP.Fitness>
42.8322

> <Gold.PLP.PLP>
-33.8909

> <Gold.PLP.part.hbond>
-5.7933

> <Gold.PLP.part.metal>
0.0000

> <Gold.PLP.part.buried>
-0.0203

> <Gold.PLP.part.nonpolar>
-27.5978

> <Gold.PLP.part.repulsive>
0.0226

> <Gold.PLP.ligand.clash>
0.0000

> <Gold.PLP.ligand.torsion>
2.6795

> <Gold.PLP.Chemscore.Hbond>
3.3754

> <Gold.PLP.Chemscore.CHOScore>
1.0000

> <Gold.PLP.Chemscore.Metal>
0.0000

> <Gold.Chemscore.Hbonds>
donor molecule, donor type, donor heavy atom, donor atom, acceptor molecule, acceptor atom, score
      L1  H    23    47       P1  7957  0.99
      P1  H  6931  6943       L1     7  0.04
      P1  H  6934  6947       L1     7  1.00
      P1  H  7997  8008       L1    25  1.00
      L1  C    18    42       P1  7948  1.00

> <Gold.PLP.Chemscore.Internal.Correction>
1.1739

> <Gold.Rescore>
     Score         DG    S(hbond)    S(metal)    S(lipo)     H(rot)  DE(clash)    DE(int)     intcor
      8.35     -17.38       3.60        0.00      69.11       3.21       1.41       7.62       ----

> <Gold.Chemscore.Fitness>
8.3506

> <Gold.Chemscore.DG>
-17.3763

> <Gold.Chemscore.ZeroCoef>
-5.4800

> <Gold.Chemscore.Hbond>
3.6025

> <Gold.Chemscore.Metal>
0.0000

> <Gold.Chemscore.Lipo>
69.1054

> <Gold.Chemscore.Internal_Hbond>
0.0000

> <Gold.Chemscore.DEClash>
1.4061

> <Gold.Chemscore.DEInternal>
7.6196

> <Gold.Chemscore.Rot>
3.2115

> <Gold.Chemscore.Internal.Correction>
   9.000000E+99

> <Gold.Chemscore.Hbonds>
donor molecule, donor type, donor heavy atom, donor atom, acceptor molecule, acceptor atom, score
      L1  H    23    47       P1  7957  0.87
      P1  H  6931  6943       L1     7  0.07
      P1  H  6934  6947       L1     7  0.97
      P1  H  7997  8008       L1    25  0.98

> <Gold.Chemscore.Hbond.Weighted>
-12.0325

> <Gold.Chemscore.Metal.Weighted>
-0.0000

> <Gold.Chemscore.Lipo.Weighted>
-8.0853

> <Gold.Chemscore.Internal_Hbond.Weighted>
0.0000

> <Gold.Chemscore.DEClash.Weighted>
1.4061

> <Gold.Chemscore.DEInternal.Weighted>
7.6196

> <Gold.Chemscore.Rot.Weighted>
8.2215

> <Gold.Chemscore.Internal.Correction.Weighted>
   9.000000E+99

> <Gold.Protein.RotatedTorsions>
[ 6907 6896 6895 6894 ] final -175.20 input  -60.11 | X-H torsion
[ 7974 7965 7964 7962 ] final   44.45 input  175.53 | X-H torsion
[ 8008 7997 7996 7995 ] final  -46.21 input   59.86 | X-H torsion
[ 10167 10162 10161 10158 ] final  114.39 input  -65.29 | X-H torsion
[ 10718 10713 10712 10709 ] final   48.95 input   66.30 | X-H torsion
[ 10763 10752 10751 10750 ] final  -53.08 input  -60.55 | X-H torsion
[ 11005 11000 10999 10996 ] final  163.68 input  -57.11 | X-H torsion

> <Gold.Protein.ActiveResidues>
 VAL166  LYS551  ARG553  GLY616  TRP617  ASP618  TYR619  PRO620  LYS621  CYS622 
 ASP623  PHE694  ASN695  SER759  ASP760  ASP761  ALA762  ILE779  LEU786  VAL792 
 PHE793  MET794  SER795  GLU796  ALA797  LYS798  CYS799  TRP800  GLU811  SER814 

> <Gold.Protein.RotatedAtoms>
  151.5847  133.3373  159.3015 H   0  0  0  0  0  0  0  0  0  0  0  0  # atno 6907 bound_to 6896
  150.8294  134.7543  159.6852 H   0  0  0  0  0  0  0  0  0  0  0  0  # atno 6908 bound_to 6896
  152.4379  134.5656  159.9958 H   0  0  0  0  0  0  0  0  0  0  0  0  # atno 6909 bound_to 6896
  146.0567  139.5073  142.9684 H   0  0  0  0  0  0  0  0  0  0  0  0  # atno 7974 bound_to 7965
  154.4006  140.1377  156.3974 H   0  0  0  0  0  0  0  0  0  0  0  0  # atno 8008 bound_to 7997
  155.7856  140.3480  155.5301 H   0  0  0  0  0  0  0  0  0  0  0  0  # atno 8009 bound_to 7997
  155.8630  140.0959  157.1591 H   0  0  0  0  0  0  0  0  0  0  0  0  # atno 8010 bound_to 7997
  139.6392  144.7122  151.2272 H   0  0  0  0  0  0  0  0  0  0  0  0  # atno 10167 bound_to 10162
  157.4738  130.8272  149.8017 H   0  0  0  0  0  0  0  0  0  0  0  0  # atno 10718 bound_to 10713
  154.1530  135.6487  153.4968 H   0  0  0  0  0  0  0  0  0  0  0  0  # atno 10763 bound_to 10752
  153.0132  135.5342  154.6788 H   0  0  0  0  0  0  0  0  0  0  0  0  # atno 10764 bound_to 10752
  154.6081  135.2951  155.0433 H   0  0  0  0  0  0  0  0  0  0  0  0  # atno 10765 bound_to 10752
  140.2383  134.8071  157.3385 H   0  0  0  0  0  0  0  0  0  0  0  0  # atno 11005 bound_to 11000
  145.6630  141.0235  143.1698 LP  0  0  0  0  0  0  0  0  0  0  0  0  # atno 17320 bound_to 7965
  144.7152  139.8223  143.7401 LP  0  0  0  0  0  0  0  0  0  0  0  0  # atno 17321 bound_to 7965
  140.7481  143.6342  150.8394 LP  0  0  0  0  0  0  0  0  0  0  0  0  # atno 17342 bound_to 10162
  139.9977  143.5777  152.2887 LP  0  0  0  0  0  0  0  0  0  0  0  0  # atno 17343 bound_to 10162
  156.0087  130.3843  150.2341 LP  0  0  0  0  0  0  0  0  0  0  0  0  # atno 17370 bound_to 10713
  157.0525  131.0066  151.3249 LP  0  0  0  0  0  0  0  0  0  0  0  0  # atno 17371 bound_to 10713
  140.1680  134.4645  155.7850 LP  0  0  0  0  0  0  0  0  0  0  0  0  # atno 17394 bound_to 11000
  141.2212  133.6929  156.7658 LP  0  0  0  0  0  0  0  0  0  0  0  0  # atno 17395 bound_to 11000

$$$$
