AV-unprocessed.smi:2583|AV-procd|sdf|10137|dock1
  -GOLD-   2272014153D 1   1.00000     0.00000
 Structure written by MMmdl.
 55 57  0  0  0  0  0  0  0  0  3 V2000
  153.4718  142.1458  160.8568 C   0  0  0  0  0  0  0  0  0  0  0  0
  152.4830  143.0313  160.1278 C   0  0  0  0  0  0  0  0  0  0  0  0
  152.2767  144.3696  160.5214 C   0  0  0  0  0  0  0  0  0  0  0  0
  151.4194  145.2020  159.8939 N   0  0  0  0  0  0  0  0  0  0  0  0
  150.7242  144.7184  158.8426 C   0  0  0  0  0  0  0  0  0  0  0  0
  150.8371  143.3927  158.3734 C   0  0  0  0  0  0  0  0  0  0  0  0
  150.0618  143.0116  157.2455 N   0  0  0  0  0  0  0  0  0  0  0  0
  149.9645  141.7957  156.6813 C   0  0  0  0  0  0  0  0  0  0  0  0
  150.5190  140.7761  157.0911 O   0  0  0  0  0  0  0  0  0  0  0  0
  149.1546  141.8160  155.6124 N   0  0  0  0  0  0  0  0  0  0  0  0
  148.8212  140.6526  154.7952 C   0  0  2  0  0  0  0  0  0  0  0  0
  147.5639  140.9300  153.9625 C   0  0  0  0  0  0  0  0  0  0  0  0
  147.1476  139.6933  153.1461 C   0  0  0  0  0  0  0  0  0  0  0  0
  146.9260  138.5002  154.0161 N   0  3  1  0  0  0  0  0  0  0  0  0
  146.4183  137.2749  153.3096 C   0  0  2  0  0  0  0  0  0  0  0  0
  145.0446  137.4264  152.6077 C   0  0  0  0  0  0  0  0  0  0  0  0
  143.8797  137.5462  153.6088 C   0  0  0  0  0  0  0  0  0  0  0  0
  143.8459  136.3822  154.5273 N   0  3  2  0  0  0  0  0  0  0  0  0
  142.6848  136.4196  155.4424 C   0  0  0  0  0  0  0  0  0  0  0  0
  145.1303  136.2041  155.2483 C   0  0  0  0  0  0  0  0  0  0  0  0
  146.3046  136.0601  154.2623 C   0  0  0  0  0  0  0  0  0  0  0  0
  148.1487  138.2133  154.8225 C   0  0  0  0  0  0  0  0  0  0  0  0
  148.5722  139.4191  155.6754 C   0  0  0  0  0  0  0  0  0  0  0  0
  151.7513  142.5347  159.0304 C   0  0  0  0  0  0  0  0  0  0  0  0
  153.8146  142.6122  161.7809 H   0  0  0  0  0  0  0  0  0  0  0  0
  154.3406  141.9540  160.2266 H   0  0  0  0  0  0  0  0  0  0  0  0
  153.0119  141.1898  161.1086 H   0  0  0  0  0  0  0  0  0  0  0  0
  152.8181  144.7887  161.3567 H   0  0  0  0  0  0  0  0  0  0  0  0
  150.0502  145.4136  158.3636 H   0  0  0  0  0  0  0  0  0  0  0  0
  149.4693  143.7336  156.8623 H   0  0  0  0  0  0  0  0  0  0  0  0
  148.7393  142.6975  155.3477 H   0  0  0  0  0  0  0  0  0  0  0  0
  149.6460  140.4452  154.1102 H   0  0  0  0  0  0  0  0  0  0  0  0
  146.7421  141.2258  154.6165 H   0  0  0  0  0  0  0  0  0  0  0  0
  147.7404  141.7706  153.2901 H   0  0  0  0  0  0  0  0  0  0  0  0
  146.2380  139.9663  152.6147 H   0  0  0  0  0  0  0  0  0  0  0  0
  147.9042  139.4626  152.3946 H   0  0  0  0  0  0  0  0  0  0  0  0
  147.1447  137.0375  152.5304 H   0  0  0  0  0  0  0  0  0  0  0  0
  145.0349  138.2480  151.8922 H   0  0  0  0  0  0  0  0  0  0  0  0
  144.8734  136.5383  151.9971 H   0  0  0  0  0  0  0  0  0  0  0  0
  143.9623  138.4660  154.1891 H   0  0  0  0  0  0  0  0  0  0  0  0
  142.9374  137.6017  153.0621 H   0  0  0  0  0  0  0  0  0  0  0  0
  142.7380  137.2814  156.1091 H   0  0  0  0  0  0  0  0  0  0  0  0
  142.6458  135.5166  156.0526 H   0  0  0  0  0  0  0  0  0  0  0  0
  141.7526  136.4796  154.8796 H   0  0  0  0  0  0  0  0  0  0  0  0
  145.2980  137.0496  155.9172 H   0  0  0  0  0  0  0  0  0  0  0  0
  145.0718  135.3129  155.8744 H   0  0  0  0  0  0  0  0  0  0  0  0
  146.1478  135.1596  153.6663 H   0  0  0  0  0  0  0  0  0  0  0  0
  147.2262  135.8766  154.8110 H   0  0  0  0  0  0  0  0  0  0  0  0
  147.9914  137.3697  155.4911 H   0  0  0  0  0  0  0  0  0  0  0  0
  148.9647  137.9299  154.1553 H   0  0  0  0  0  0  0  0  0  0  0  0
  149.4740  139.1699  156.2364 H   0  0  0  0  0  0  0  0  0  0  0  0
  147.7981  139.6347  156.4138 H   0  0  0  0  0  0  0  0  0  0  0  0
  151.9138  141.5189  158.7041 H   0  0  0  0  0  0  0  0  0  0  0  0
  146.2044  138.7700  154.6690 H   0  0  0  0  0  0  0  0  0  0  0  0
  143.7241  135.5624  153.9492 H   0  0  0  0  0  0  0  0  0  0  0  0
  1  2  1  0  0  0  0
  1 25  1  0  0  0  0
  1 26  1  0  0  0  0
  1 27  1  0  0  0  0
  2 24  1  0  0  0  0
  2  3  2  0  0  0  0
  3  4  1  0  0  0  0
  3 28  1  0  0  0  0
  4  5  2  0  0  0  0
  5  6  1  0  0  0  0
  5 29  1  0  0  0  0
  6  7  1  0  0  0  0
  6 24  2  0  0  0  0
  7  8  1  0  0  0  0
  7 30  1  0  0  0  0
  8  9  2  0  0  0  0
  8 10  1  0  0  0  0
 10 11  1  0  0  0  0
 10 31  1  0  0  0  0
 11 23  1  0  0  0  0
 11 12  1  0  0  0  0
 11 32  1  0  0  0  0
 12 13  1  0  0  0  0
 12 33  1  0  0  0  0
 12 34  1  0  0  0  0
 13 14  1  0  0  0  0
 13 35  1  0  0  0  0
 13 36  1  0  0  0  0
 14 15  1  0  0  0  0
 14 22  1  0  0  0  0
 14 54  1  0  0  0  0
 15 21  1  0  0  0  0
 15 16  1  0  0  0  0
 15 37  1  0  0  0  0
 16 17  1  0  0  0  0
 16 38  1  0  0  0  0
 16 39  1  0  0  0  0
 17 18  1  0  0  0  0
 17 40  1  0  0  0  0
 17 41  1  0  0  0  0
 18 19  1  0  0  0  0
 18 20  1  0  0  0  0
 18 55  1  0  0  0  0
 19 42  1  0  0  0  0
 19 43  1  0  0  0  0
 19 44  1  0  0  0  0
 20 21  1  0  0  0  0
 20 45  1  0  0  0  0
 20 46  1  0  0  0  0
 21 47  1  0  0  0  0
 21 48  1  0  0  0  0
 22 23  1  0  0  0  0
 22 49  1  0  0  0  0
 22 50  1  0  0  0  0
 23 51  1  0  0  0  0
 23 52  1  0  0  0  0
 24 53  1  0  0  0  0
M  CHG  1  14   1
M  CHG  1  18   1
M  END
> <s_m_source_file>
AV-unprocessed.smi

> <i_m_source_file_index>
2583

> <i_lp_mmshare_version>
43012

> <i_f3d_flags>
0

> <s_epik_input>
W0NIM11jMVtjSF1uW2NIXWMoW2NIXTEpW05IXUMoPU8pW05IXVtDSF0yW0NIMl1bQ0gyXU4oW0NIMl1bQ0gyXTIpW0NIXTNbQ0gyXVtDSDJdTihbQ0gzXSlbQ0gyXVtDSDJdMw==

> <s_epik_cmdline>
J2VwaWtfcHl0aG9uJywgJy1waCcsICc3LjAnLCAnLXRuJywgJzgnLCAnLW1hJywgJzIwMCcsICctbWV0YWxfYmluZGluZycsICctaW1hZScsICc8aW5maWxlLm1hZT4nLCAnLW9tYWUnLCAnPG91dGZpbGUubWFlPic=

> <r_epik_Ionization_Penalty>
0.188357

> <r_epik_Ionization_Penalty_Charging>
0.180787

> <r_epik_Ionization_Penalty_Neutral>
0.00756971

> <r_epik_State_Penalty>
0.157948

> <r_epik_Charging_Adjusted_Penalty>
0.338735

> <i_epik_Tot_Q>
2

> <i_epik_Tot_abs_Q>
2

> <r_epik_Metal_State_Penalty>
0.153874

> <b_epik_Metal_Only>
0

> <s_lp_Force_Field>
OPLS_2005

> <r_lp_Energy>
48.801

> <b_lp_Chiralities_Consistent>
1

> <s_lp_Variant>
AV-unprocessed.smi:2583-3

> <Gold.Version>
5.8.1

> <Gold.Id.Protein>
6NUR|6NUR_protein|mol2

> <Gold.PLP.Fitness>
41.1319

> <Gold.PLP.PLP>
-33.0922

> <Gold.PLP.part.hbond>
-2.0000

> <Gold.PLP.part.metal>
0.0000

> <Gold.PLP.part.buried>
-2.8694

> <Gold.PLP.part.nonpolar>
-28.7023

> <Gold.PLP.part.repulsive>
0.2940

> <Gold.PLP.ligand.clash>
0.0000

> <Gold.PLP.ligand.torsion>
0.3057

> <Gold.PLP.Chemscore.Hbond>
1.8723

> <Gold.PLP.Chemscore.CHOScore>
1.0000

> <Gold.PLP.Chemscore.Metal>
0.0000

> <Gold.Chemscore.Hbonds>
donor molecule, donor type, donor heavy atom, donor atom, acceptor molecule, acceptor atom, score
      L1  H     7    30       P1  8028  1.00
      L1  H    10    31       P1  8028  0.84
      L1  C     5    29       P1  8029  1.00

> <Gold.PLP.Chemscore.Internal.Correction>
0.0341

> <Gold.Rescore>
     Score         DG    S(hbond)    S(metal)    S(lipo)     H(rot)  DE(clash)    DE(int)     intcor
     17.16     -20.28       1.76        0.00     102.76       1.21       0.06       3.05       ----

> <Gold.Chemscore.Fitness>
17.1590

> <Gold.Chemscore.DG>
-20.2754

> <Gold.Chemscore.ZeroCoef>
-5.4800

> <Gold.Chemscore.Hbond>
1.7568

> <Gold.Chemscore.Metal>
0.0000

> <Gold.Chemscore.Lipo>
102.7625

> <Gold.Chemscore.Internal_Hbond>
0.0000

> <Gold.Chemscore.DEClash>
0.0640

> <Gold.Chemscore.DEInternal>
3.0525

> <Gold.Chemscore.Rot>
1.2092

> <Gold.Chemscore.Internal.Correction>
   9.000000E+99

> <Gold.Chemscore.Hbonds>
donor molecule, donor type, donor heavy atom, donor atom, acceptor molecule, acceptor atom, score
      L1  H     7    30       P1  8028  0.91
      L1  H    10    31       P1  8028  0.77

> <Gold.Chemscore.Hbond.Weighted>
-5.8676

> <Gold.Chemscore.Metal.Weighted>
-0.0000

> <Gold.Chemscore.Lipo.Weighted>
-12.0232

> <Gold.Chemscore.Internal_Hbond.Weighted>
0.0000

> <Gold.Chemscore.DEClash.Weighted>
0.0640

> <Gold.Chemscore.DEInternal.Weighted>
3.0525

> <Gold.Chemscore.Rot.Weighted>
3.0955

> <Gold.Chemscore.Internal.Correction.Weighted>
   9.000000E+99

> <Gold.Protein.RotatedTorsions>
[ 6907 6896 6895 6894 ] final  -13.65 input  -60.11 | X-H torsion
[ 7974 7965 7964 7962 ] final  -89.61 input  175.53 | X-H torsion
[ 8008 7997 7996 7995 ] final  -79.65 input   59.86 | X-H torsion
[ 10167 10162 10161 10158 ] final   76.74 input  -65.29 | X-H torsion
[ 10718 10713 10712 10709 ] final   32.19 input   66.30 | X-H torsion
[ 10763 10752 10751 10750 ] final  109.20 input  -60.55 | X-H torsion
[ 11005 11000 10999 10996 ] final -138.77 input  -57.11 | X-H torsion

> <Gold.Protein.ActiveResidues>
 VAL166  LYS551  ARG553  GLY616  TRP617  ASP618  TYR619  PRO620  LYS621  CYS622 
 ASP623  PHE694  ASN695  SER759  ASP760  ASP761  ALA762  ILE779  LEU786  VAL792 
 PHE793  MET794  SER795  GLU796  ALA797  LYS798  CYS799  TRP800  GLU811  SER814 

> <Gold.Protein.RotatedAtoms>
  151.3516  135.0885  159.9404 H   0  0  0  0  0  0  0  0  0  0  0  0  # atno 6907 bound_to 6896
  152.5186  133.9347  159.7608 H   0  0  0  0  0  0  0  0  0  0  0  0  # atno 6908 bound_to 6896
  150.9723  133.6277  159.2765 H   0  0  0  0  0  0  0  0  0  0  0  0  # atno 6909 bound_to 6896
  145.4374  140.9558  143.2094 H   0  0  0  0  0  0  0  0  0  0  0  0  # atno 7974 bound_to 7965
  154.5806  140.0675  156.9098 H   0  0  0  0  0  0  0  0  0  0  0  0  # atno 8008 bound_to 7997
  155.2470  140.3349  155.4268 H   0  0  0  0  0  0  0  0  0  0  0  0  # atno 8009 bound_to 7997
  156.2186  140.1789  156.7515 H   0  0  0  0  0  0  0  0  0  0  0  0  # atno 8010 bound_to 7997
  139.9890  144.5771  150.7834 H   0  0  0  0  0  0  0  0  0  0  0  0  # atno 10167 bound_to 10162
  157.2821  130.7260  149.6562 H   0  0  0  0  0  0  0  0  0  0  0  0  # atno 10718 bound_to 10713
  153.4313  135.3788  155.2172 H   0  0  0  0  0  0  0  0  0  0  0  0  # atno 10763 bound_to 10752
  154.8750  135.3841  154.4264 H   0  0  0  0  0  0  0  0  0  0  0  0  # atno 10764 bound_to 10752
  153.4797  135.7088  153.6008 H   0  0  0  0  0  0  0  0  0  0  0  0  # atno 10765 bound_to 10752
  140.8583  134.2200  157.4722 H   0  0  0  0  0  0  0  0  0  0  0  0  # atno 11005 bound_to 11000
  144.8143  139.5905  143.7015 LP  0  0  0  0  0  0  0  0  0  0  0  0  # atno 17320 bound_to 7965
  146.2574  139.6334  142.9385 LP  0  0  0  0  0  0  0  0  0  0  0  0  # atno 17321 bound_to 7965
  140.7461  143.2886  151.3393 LP  0  0  0  0  0  0  0  0  0  0  0  0  # atno 17342 bound_to 10162
  139.6354  144.0641  152.2511 LP  0  0  0  0  0  0  0  0  0  0  0  0  # atno 17343 bound_to 10162
  155.9664  130.4335  150.5008 LP  0  0  0  0  0  0  0  0  0  0  0  0  # atno 17370 bound_to 10713
  157.2954  131.0634  151.2105 LP  0  0  0  0  0  0  0  0  0  0  0  0  # atno 17371 bound_to 10713
  139.8706  134.9717  156.4747 LP  0  0  0  0  0  0  0  0  0  0  0  0  # atno 17394 bound_to 11000
  140.8711  133.7987  155.9366 LP  0  0  0  0  0  0  0  0  0  0  0  0  # atno 17395 bound_to 11000

$$$$
