AV-unprocessed.smi:1731|AV-procd|sdf|6974|dock1
  -GOLD-   22720 8183D 1   1.00000     0.00000
 Structure written by MMmdl.
 41 42  0  0  0  0  0  0  0  0  1 V2000
  153.3073  143.1506  162.0173 C   0  0  0  0  0  0  0  0  0  0  0  0
  152.2918  143.1046  160.8669 C   0  0  2  0  0  0  0  0  0  0  0  0
  152.3290  141.7490  160.1362 C   0  0  0  0  0  0  0  0  0  0  0  0
  151.3137  141.6984  158.9834 C   0  0  0  0  0  0  0  0  0  0  0  0
  151.5293  142.8561  157.9880 C   0  0  1  0  0  0  0  0  0  0  0  0
  150.5038  142.8348  156.9491 N   0  0  0  0  0  0  0  0  0  0  0  0
  150.0110  141.7309  156.3693 C   0  0  0  0  0  0  0  0  0  0  0  0
  150.3878  140.5909  156.6426 O   0  0  0  0  0  0  0  0  0  0  0  0
  149.0605  142.0348  155.4702 N   0  0  0  0  0  0  0  0  0  0  0  0
  148.3070  141.1330  154.6773 C   0  0  0  0  0  0  0  0  0  0  0  0
  147.0684  141.4397  154.0565 C   0  0  0  0  0  0  0  0  0  0  0  0
  146.6009  140.4009  153.3813 N   0  0  0  0  0  0  0  0  0  0  0  0
  147.5229  139.4213  153.5569 N   0  0  0  0  0  0  0  0  0  0  0  0
  147.3208  138.1229  152.9384 C   0  0  0  0  0  0  0  0  0  0  0  0
  146.3374  138.2150  151.7700 C   0  0  0  0  0  0  0  0  0  0  0  0
  145.0565  138.4493  152.0671 N   0  0  0  0  0  0  0  0  0  0  0  0
  146.7295  138.0809  150.6129 O   0  0  0  0  0  0  0  0  0  0  0  0
  148.5816  139.8377  154.3410 C   0  0  0  0  0  0  0  0  0  0  0  0
  151.4994  144.2123  158.7164 C   0  0  0  0  0  0  0  0  0  0  0  0
  152.5162  144.2561  159.8685 C   0  0  0  0  0  0  0  0  0  0  0  0
  154.3270  143.0255  161.6518 H   0  0  0  0  0  0  0  0  0  0  0  0
  153.1140  142.3599  162.7427 H   0  0  0  0  0  0  0  0  0  0  0  0
  153.2577  144.1023  162.5468 H   0  0  0  0  0  0  0  0  0  0  0  0
  151.2984  143.2253  161.3017 H   0  0  0  0  0  0  0  0  0  0  0  0
  153.3309  141.5680  159.7442 H   0  0  0  0  0  0  0  0  0  0  0  0
  152.1224  140.9406  160.8385 H   0  0  0  0  0  0  0  0  0  0  0  0
  151.3946  140.7397  158.4698 H   0  0  0  0  0  0  0  0  0  0  0  0
  150.3030  141.7446  159.3917 H   0  0  0  0  0  0  0  0  0  0  0  0
  152.5108  142.7445  157.5230 H   0  0  0  0  0  0  0  0  0  0  0  0
  150.1338  143.7283  156.6594 H   0  0  0  0  0  0  0  0  0  0  0  0
  148.8418  143.0130  155.3517 H   0  0  0  0  0  0  0  0  0  0  0  0
  146.5039  142.3602  154.0737 H   0  0  0  0  0  0  0  0  0  0  0  0
  148.2757  137.7337  152.5818 H   0  0  0  0  0  0  0  0  0  0  0  0
  146.9552  137.4280  153.6958 H   0  0  0  0  0  0  0  0  0  0  0  0
  144.3701  138.5161  151.3299 H   0  0  0  0  0  0  0  0  0  0  0  0
  144.7786  138.5567  153.0320 H   0  0  0  0  0  0  0  0  0  0  0  0
  149.4085  139.1856  154.5801 H   0  0  0  0  0  0  0  0  0  0  0  0
  151.7094  145.0187  158.0126 H   0  0  0  0  0  0  0  0  0  0  0  0
  150.4997  144.3998  159.1111 H   0  0  0  0  0  0  0  0  0  0  0  0
  152.4433  145.2150  160.3826 H   0  0  0  0  0  0  0  0  0  0  0  0
  153.5273  144.2005  159.4622 H   0  0  0  0  0  0  0  0  0  0  0  0
  1  2  1  0  0  0  0
  1 21  1  0  0  0  0
  1 22  1  0  0  0  0
  1 23  1  0  0  0  0
  2 20  1  0  0  0  0
  2  3  1  0  0  0  0
  2 24  1  0  0  0  0
  3  4  1  0  0  0  0
  3 25  1  0  0  0  0
  3 26  1  0  0  0  0
  4  5  1  0  0  0  0
  4 27  1  0  0  0  0
  4 28  1  0  0  0  0
  5  6  1  0  0  0  0
  5 19  1  0  0  0  0
  5 29  1  0  0  0  0
  6  7  1  0  0  0  0
  6 30  1  0  0  0  0
  7  8  2  0  0  0  0
  7  9  1  0  0  0  0
  9 10  1  0  0  0  0
  9 31  1  0  0  0  0
 10 18  2  0  0  0  0
 10 11  1  0  0  0  0
 11 12  2  0  0  0  0
 11 32  1  0  0  0  0
 12 13  1  0  0  0  0
 13 14  1  0  0  0  0
 13 18  1  0  0  0  0
 14 15  1  0  0  0  0
 14 33  1  0  0  0  0
 14 34  1  0  0  0  0
 15 16  1  0  0  0  0
 15 17  2  0  0  0  0
 16 35  1  0  0  0  0
 16 36  1  0  0  0  0
 18 37  1  0  0  0  0
 19 20  1  0  0  0  0
 19 38  1  0  0  0  0
 19 39  1  0  0  0  0
 20 40  1  0  0  0  0
 20 41  1  0  0  0  0
M  END
> <s_m_source_file>
AV-unprocessed.smi

> <i_m_source_file_index>
1731

> <i_lp_mmshare_version>
43012

> <i_f3d_flags>
0

> <s_epik_input>
W0NIM11bQ0BASF0xW0NIMl1bQ0gyXVtDQEhdKFtDSDJdW0NIMl0xKVtOSF1DKD1PKVtOSF1jMltjSF1ubihbY0hdMilbQ0gyXUMoPU8pW05IMl0=

> <s_epik_cmdline>
J2VwaWtfcHl0aG9uJywgJy1waCcsICc3LjAnLCAnLXRuJywgJzgnLCAnLW1hJywgJzIwMCcsICctbWV0YWxfYmluZGluZycsICctaW1hZScsICc8aW5maWxlLm1hZT4nLCAnLW9tYWUnLCAnPG91dGZpbGUubWFlPic=

> <r_lp_tautomer_probability>
1

> <r_epik_Ionization_Penalty>
4.81284e-05

> <r_epik_Ionization_Penalty_Charging>
0

> <r_epik_Ionization_Penalty_Neutral>
4.81284e-05

> <r_epik_State_Penalty>
-0

> <r_epik_Charging_Adjusted_Penalty>
0

> <i_epik_Tot_Q>
0

> <i_epik_Tot_abs_Q>
0

> <r_epik_Metal_State_Penalty>
-0

> <b_epik_Metal_Only>
0

> <s_lp_Force_Field>
OPLS_2005

> <r_lp_Energy>
12.4361

> <b_lp_Chiralities_Consistent>
1

> <s_lp_Variant>
AV-unprocessed.smi:1731-1

> <Gold.Version>
5.8.1

> <Gold.Id.Protein>
6NUR|6NUR_protein|mol2

> <Gold.PLP.Fitness>
47.4538

> <Gold.PLP.PLP>
-36.9739

> <Gold.PLP.part.hbond>
-4.5837

> <Gold.PLP.part.metal>
0.0000

> <Gold.PLP.part.buried>
-1.9281

> <Gold.PLP.part.nonpolar>
-33.5543

> <Gold.PLP.part.repulsive>
1.9352

> <Gold.PLP.ligand.clash>
0.0000

> <Gold.PLP.ligand.torsion>
0.7570

> <Gold.PLP.Chemscore.Hbond>
3.9920

> <Gold.PLP.Chemscore.CHOScore>
0.0000

> <Gold.PLP.Chemscore.Metal>
0.0000

> <Gold.Chemscore.Hbonds>
donor molecule, donor type, donor heavy atom, donor atom, acceptor molecule, acceptor atom, score
      L1  H     6    30       P1  8028  1.00
      L1  H     9    31       P1  8028  1.00
      L1  H    16    35       P1 10171  1.00
      P1  H  7954  7966       L1    17  1.00

> <Gold.PLP.Chemscore.Internal.Correction>
0.0179

> <Gold.Rescore>
     Score         DG    S(hbond)    S(metal)    S(lipo)     H(rot)  DE(clash)    DE(int)     intcor
     18.91     -25.20       3.88        0.00      99.40       1.90       3.30       2.99       ----

> <Gold.Chemscore.Fitness>
18.9101

> <Gold.Chemscore.DG>
-25.1978

> <Gold.Chemscore.ZeroCoef>
-5.4800

> <Gold.Chemscore.Hbond>
3.8802

> <Gold.Chemscore.Metal>
0.0000

> <Gold.Chemscore.Lipo>
99.3972

> <Gold.Chemscore.Internal_Hbond>
0.0000

> <Gold.Chemscore.DEClash>
3.2993

> <Gold.Chemscore.DEInternal>
2.9884

> <Gold.Chemscore.Rot>
1.9029

> <Gold.Chemscore.Internal.Correction>
   9.000000E+99

> <Gold.Chemscore.Hbonds>
donor molecule, donor type, donor heavy atom, donor atom, acceptor molecule, acceptor atom, score
      L1  H     6    30       P1  8028  0.95
      L1  H     9    31       P1  8028  0.99
      L1  H    16    35       P1 10171  0.97
      P1  H  7954  7966       L1    17  0.95

> <Gold.Chemscore.Hbond.Weighted>
-12.9597

> <Gold.Chemscore.Metal.Weighted>
-0.0000

> <Gold.Chemscore.Lipo.Weighted>
-11.6295

> <Gold.Chemscore.Internal_Hbond.Weighted>
0.0000

> <Gold.Chemscore.DEClash.Weighted>
3.2993

> <Gold.Chemscore.DEInternal.Weighted>
2.9884

> <Gold.Chemscore.Rot.Weighted>
4.8714

> <Gold.Chemscore.Internal.Correction.Weighted>
   9.000000E+99

> <Gold.Protein.RotatedTorsions>
[ 6907 6896 6895 6894 ] final  -92.74 input  -60.11 | X-H torsion
[ 7974 7965 7964 7962 ] final  107.12 input  175.53 | X-H torsion
[ 8008 7997 7996 7995 ] final  167.35 input   59.86 | X-H torsion
[ 10167 10162 10161 10158 ] final   30.81 input  -65.29 | X-H torsion
[ 10718 10713 10712 10709 ] final   10.11 input   66.30 | X-H torsion
[ 10763 10752 10751 10750 ] final  129.61 input  -60.55 | X-H torsion
[ 11005 11000 10999 10996 ] final  -95.91 input  -57.11 | X-H torsion

> <Gold.Protein.ActiveResidues>
 VAL166  LYS551  ARG553  GLY616  TRP617  ASP618  TYR619  PRO620  LYS621  CYS622 
 ASP623  PHE694  ASN695  SER759  ASP760  ASP761  ALA762  ILE779  LEU786  VAL792 
 PHE793  MET794  SER795  GLU796  ALA797  LYS798  CYS799  TRP800  GLU811  SER814 

> <Gold.Protein.RotatedAtoms>
  150.6911  134.2075  159.4346 H   0  0  0  0  0  0  0  0  0  0  0  0  # atno 6907 bound_to 6896
  152.0039  134.9911  160.0575 H   0  0  0  0  0  0  0  0  0  0  0  0  # atno 6908 bound_to 6896
  152.1553  133.4512  159.4870 H   0  0  0  0  0  0  0  0  0  0  0  0  # atno 6909 bound_to 6896
  145.2978  139.2579  143.3830 H   0  0  0  0  0  0  0  0  0  0  0  0  # atno 7974 bound_to 7965
  156.1641  140.1619  156.8561 H   0  0  0  0  0  0  0  0  0  0  0  0  # atno 8008 bound_to 7997
  154.5190  140.0782  156.8171 H   0  0  0  0  0  0  0  0  0  0  0  0  # atno 8009 bound_to 7997
  155.3647  140.3397  155.4244 H   0  0  0  0  0  0  0  0  0  0  0  0  # atno 8010 bound_to 7997
  140.4644  144.0857  150.6221 H   0  0  0  0  0  0  0  0  0  0  0  0  # atno 10167 bound_to 10162
  156.9762  130.5988  149.5673 H   0  0  0  0  0  0  0  0  0  0  0  0  # atno 10718 bound_to 10713
  153.7446  135.3219  155.3310 H   0  0  0  0  0  0  0  0  0  0  0  0  # atno 10763 bound_to 10752
  154.8284  135.4553  154.0993 H   0  0  0  0  0  0  0  0  0  0  0  0  # atno 10764 bound_to 10752
  153.2177  135.6944  153.8119 H   0  0  0  0  0  0  0  0  0  0  0  0  # atno 10765 bound_to 10752
  141.1428  133.8059  157.0499 H   0  0  0  0  0  0  0  0  0  0  0  0  # atno 11005 bound_to 11000
  146.3163  140.3484  142.8654 LP  0  0  0  0  0  0  0  0  0  0  0  0  # atno 17320 bound_to 7965
  144.9119  140.7767  143.5802 LP  0  0  0  0  0  0  0  0  0  0  0  0  # atno 17321 bound_to 7965
  140.4054  143.2683  151.9898 LP  0  0  0  0  0  0  0  0  0  0  0  0  # atno 17342 bound_to 10162
  139.4810  144.5962  151.7686 LP  0  0  0  0  0  0  0  0  0  0  0  0  # atno 17343 bound_to 10162
  156.0263  130.5356  150.8414 LP  0  0  0  0  0  0  0  0  0  0  0  0  # atno 17370 bound_to 10713
  157.5558  131.0945  150.9630 LP  0  0  0  0  0  0  0  0  0  0  0  0  # atno 17371 bound_to 10713
  140.0638  134.9740  157.1351 LP  0  0  0  0  0  0  0  0  0  0  0  0  # atno 17394 bound_to 11000
  140.3809  134.2288  155.7171 LP  0  0  0  0  0  0  0  0  0  0  0  0  # atno 17395 bound_to 11000

$$$$
