AV-unprocessed.smi:2367|AV-procd|sdf|9424|dock4
  -GOLD-   2272013 63D 1   1.00000     0.00000
 Structure written by MMmdl.
 34 35  0  0  0  0  0  0  0  0  1 V2000
  144.8727  138.8258  154.8339 C   0  0  0  0  0  0  0  0  0  0  0  0
  146.2843  138.6937  154.7279 O   0  0  0  0  0  0  0  0  0  0  0  0
  146.9163  139.5023  153.7349 C   0  0  0  0  0  0  0  0  0  0  0  0
  146.5408  139.0608  152.3126 C   0  0  0  0  0  0  0  0  0  0  0  0
  146.8238  137.6424  152.1153 N   0  0  0  0  0  0  0  0  0  0  0  0
  145.9066  136.6830  151.9307 C   0  0  0  0  0  0  0  0  0  0  0  0
  144.6921  136.8849  151.9274 O   0  0  0  0  0  0  0  0  0  0  0  0
  146.4837  135.4875  151.7265 N   0  0  0  0  0  0  0  0  0  0  0  0
  145.8194  134.2598  151.4757 C   0  0  0  0  0  0  0  0  0  0  0  0
  144.6268  134.2835  150.7235 C   0  0  0  0  0  0  0  0  0  0  0  0
  143.9723  133.0646  150.4558 C   0  0  0  0  0  0  0  0  0  0  0  0
  144.4366  131.8662  150.8692 N   0  0  0  0  0  0  0  0  0  0  0  0
  145.5927  131.8446  151.5666 C   0  0  0  0  0  0  0  0  0  0  0  0
  146.3273  133.0038  151.8886 C   0  0  0  0  0  0  0  0  0  0  0  0
  147.5034  132.8935  152.5521 F   0  0  0  0  0  0  0  0  0  0  0  0
  146.6911  140.9795  154.1106 C   0  0  0  0  0  0  0  0  0  0  0  0
  148.1733  141.2368  153.8328 C   0  0  0  0  0  0  0  0  0  0  0  0
  148.4026  139.7431  154.0687 C   0  0  0  0  0  0  0  0  0  0  0  0
  144.4980  138.0902  155.5452 H   0  0  0  0  0  0  0  0  0  0  0  0
  144.3725  138.6480  153.8818 H   0  0  0  0  0  0  0  0  0  0  0  0
  144.5829  139.8091  155.2025 H   0  0  0  0  0  0  0  0  0  0  0  0
  145.4730  139.2037  152.1452 H   0  0  0  0  0  0  0  0  0  0  0  0
  147.0327  139.6841  151.5652 H   0  0  0  0  0  0  0  0  0  0  0  0
  147.7974  137.3773  152.0924 H   0  0  0  0  0  0  0  0  0  0  0  0
  147.4875  135.4790  151.6225 H   0  0  0  0  0  0  0  0  0  0  0  0
  144.2122  135.2154  150.3675 H   0  0  0  0  0  0  0  0  0  0  0  0
  143.0511  133.0521  149.8920 H   0  0  0  0  0  0  0  0  0  0  0  0
  145.9512  130.8711  151.8668 H   0  0  0  0  0  0  0  0  0  0  0  0
  146.0101  141.5243  153.4562 H   0  0  0  0  0  0  0  0  0  0  0  0
  146.4332  141.1224  155.1616 H   0  0  0  0  0  0  0  0  0  0  0  0
  148.3666  141.5393  152.8025 H   0  0  0  0  0  0  0  0  0  0  0  0
  148.6661  141.8942  154.5495 H   0  0  0  0  0  0  0  0  0  0  0  0
  148.6554  139.5230  155.1074 H   0  0  0  0  0  0  0  0  0  0  0  0
  149.1078  139.2792  153.3783 H   0  0  0  0  0  0  0  0  0  0  0  0
  1  2  1  0  0  0  0
  1 19  1  0  0  0  0
  1 20  1  0  0  0  0
  1 21  1  0  0  0  0
  2  3  1  0  0  0  0
  3 18  1  0  0  0  0
  3  4  1  0  0  0  0
  3 16  1  0  0  0  0
  4  5  1  0  0  0  0
  4 22  1  0  0  0  0
  4 23  1  0  0  0  0
  5  6  1  0  0  0  0
  5 24  1  0  0  0  0
  6  7  2  0  0  0  0
  6  8  1  0  0  0  0
  8  9  1  0  0  0  0
  8 25  1  0  0  0  0
  9 14  1  0  0  0  0
  9 10  2  0  0  0  0
 10 11  1  0  0  0  0
 10 26  1  0  0  0  0
 11 12  2  0  0  0  0
 11 27  1  0  0  0  0
 12 13  1  0  0  0  0
 13 14  2  0  0  0  0
 13 28  1  0  0  0  0
 14 15  1  0  0  0  0
 16 17  1  0  0  0  0
 16 29  1  0  0  0  0
 16 30  1  0  0  0  0
 17 18  1  0  0  0  0
 17 31  1  0  0  0  0
 17 32  1  0  0  0  0
 18 33  1  0  0  0  0
 18 34  1  0  0  0  0
M  END
> <s_m_source_file>
AV-unprocessed.smi

> <i_m_source_file_index>
2367

> <i_lp_mmshare_version>
43012

> <i_f3d_flags>
0

> <s_epik_input>
W0NIMl0xW0NIMl1bQ0gyXUMxKE9bQ0gzXSlbQ0gyXVtOSF1DKD1PKVtOSF1jMltjSF1bY0hdbltjSF1jMkY=

> <s_epik_cmdline>
J2VwaWtfcHl0aG9uJywgJy1waCcsICc3LjAnLCAnLXRuJywgJzgnLCAnLW1hJywgJzIwMCcsICctbWV0YWxfYmluZGluZycsICctaW1hZScsICc8aW5maWxlLm1hZT4nLCAnLW9tYWUnLCAnPG91dGZpbGUubWFlPic=

> <r_epik_Ionization_Penalty>
0.00342397

> <r_epik_Ionization_Penalty_Charging>
0

> <r_epik_Ionization_Penalty_Neutral>
0.00342397

> <r_epik_State_Penalty>
0.00239946

> <r_epik_Charging_Adjusted_Penalty>
0.00239946

> <i_epik_Tot_Q>
0

> <i_epik_Tot_abs_Q>
0

> <r_epik_Metal_State_Penalty>
-0

> <b_epik_Metal_Only>
0

> <s_lp_Force_Field>
OPLS_2005

> <r_lp_Energy>
23.3759

> <b_lp_Chiralities_Consistent>
1

> <s_lp_Variant>
AV-unprocessed.smi:2367-1

> <Gold.Version>
5.8.1

> <Gold.Id.Protein>
6NUR|6NUR_protein|mol2

> <Gold.PLP.Fitness>
36.6509

> <Gold.PLP.PLP>
-28.1994

> <Gold.PLP.part.hbond>
-2.0000

> <Gold.PLP.part.metal>
0.0000

> <Gold.PLP.part.buried>
-2.5338

> <Gold.PLP.part.nonpolar>
-25.5576

> <Gold.PLP.part.repulsive>
1.3865

> <Gold.PLP.ligand.clash>
0.0000

> <Gold.PLP.ligand.torsion>
0.4759

> <Gold.PLP.Chemscore.Hbond>
1.9920

> <Gold.PLP.Chemscore.CHOScore>
1.0000

> <Gold.PLP.Chemscore.Metal>
0.0000

> <Gold.Chemscore.Hbonds>
donor molecule, donor type, donor heavy atom, donor atom, acceptor molecule, acceptor atom, score
      L1  H     5    24       P1  7948  1.00
      L1  H     8    25       P1  7948  1.00
      L1  C    11    27       P1 10186  1.00

> <Gold.PLP.Chemscore.Internal.Correction>
0.4274

> <Gold.Rescore>
     Score         DG    S(hbond)    S(metal)    S(lipo)     H(rot)  DE(clash)    DE(int)     intcor
     12.85     -15.84       1.89        0.00      67.59       1.51       1.24       1.75       ----

> <Gold.Chemscore.Fitness>
12.8486

> <Gold.Chemscore.DG>
-15.8396

> <Gold.Chemscore.ZeroCoef>
-5.4800

> <Gold.Chemscore.Hbond>
1.8885

> <Gold.Chemscore.Metal>
0.0000

> <Gold.Chemscore.Lipo>
67.5921

> <Gold.Chemscore.Internal_Hbond>
0.0000

> <Gold.Chemscore.DEClash>
1.2394

> <Gold.Chemscore.DEInternal>
1.7517

> <Gold.Chemscore.Rot>
1.5064

> <Gold.Chemscore.Internal.Correction>
   9.000000E+99

> <Gold.Chemscore.Hbonds>
donor molecule, donor type, donor heavy atom, donor atom, acceptor molecule, acceptor atom, score
      L1  H     5    24       P1  7948  0.94
      L1  H     8    25       P1  7948  0.91

> <Gold.Chemscore.Hbond.Weighted>
-6.3077

> <Gold.Chemscore.Metal.Weighted>
-0.0000

> <Gold.Chemscore.Lipo.Weighted>
-7.9083

> <Gold.Chemscore.Internal_Hbond.Weighted>
0.0000

> <Gold.Chemscore.DEClash.Weighted>
1.2394

> <Gold.Chemscore.DEInternal.Weighted>
1.7517

> <Gold.Chemscore.Rot.Weighted>
3.8563

> <Gold.Chemscore.Internal.Correction.Weighted>
   9.000000E+99

> <Gold.Protein.RotatedTorsions>
[ 6907 6896 6895 6894 ] final  -58.34 input  -60.11 | X-H torsion
[ 7974 7965 7964 7962 ] final   66.54 input  175.53 | X-H torsion
[ 8008 7997 7996 7995 ] final   12.29 input   59.86 | X-H torsion
[ 10167 10162 10161 10158 ] final -102.18 input  -65.29 | X-H torsion
[ 10718 10713 10712 10709 ] final -175.89 input   66.30 | X-H torsion
[ 10763 10752 10751 10750 ] final   81.14 input  -60.55 | X-H torsion
[ 11005 11000 10999 10996 ] final  119.63 input  -57.11 | X-H torsion

> <Gold.Protein.ActiveResidues>
 VAL166  LYS551  ARG553  GLY616  TRP617  ASP618  TYR619  PRO620  LYS621  CYS622 
 ASP623  PHE694  ASN695  SER759  ASP760  ASP761  ALA762  ILE779  LEU786  VAL792 
 PHE793  MET794  SER795  GLU796  ALA797  LYS798  CYS799  TRP800  GLU811  SER814 

> <Gold.Protein.RotatedAtoms>
  150.8014  134.7111  159.6603 H   0  0  0  0  0  0  0  0  0  0  0  0  # atno 6907 bound_to 6896
  152.4131  134.6085  160.0029 H   0  0  0  0  0  0  0  0  0  0  0  0  # atno 6908 bound_to 6896
  151.6323  133.3294  159.3147 H   0  0  0  0  0  0  0  0  0  0  0  0  # atno 6909 bound_to 6896
  145.8253  139.3108  143.1019 H   0  0  0  0  0  0  0  0  0  0  0  0  # atno 7974 bound_to 7965
  154.8186  140.2880  155.5803 H   0  0  0  0  0  0  0  0  0  0  0  0  # atno 8008 bound_to 7997
  156.2995  140.2554  156.3018 H   0  0  0  0  0  0  0  0  0  0  0  0  # atno 8009 bound_to 7997
  154.9365  140.0382  157.2064 H   0  0  0  0  0  0  0  0  0  0  0  0  # atno 8010 bound_to 7997
  140.2334  143.3590  152.0867 H   0  0  0  0  0  0  0  0  0  0  0  0  # atno 10167 bound_to 10162
  156.8066  130.9571  151.3117 H   0  0  0  0  0  0  0  0  0  0  0  0  # atno 10718 bound_to 10713
  153.1091  135.4776  154.9004 H   0  0  0  0  0  0  0  0  0  0  0  0  # atno 10763 bound_to 10752
  154.7462  135.3094  154.8643 H   0  0  0  0  0  0  0  0  0  0  0  0  # atno 10764 bound_to 10752
  153.9237  135.6852  153.4800 H   0  0  0  0  0  0  0  0  0  0  0  0  # atno 10765 bound_to 10752
  139.9154  134.9630  156.7684 H   0  0  0  0  0  0  0  0  0  0  0  0  # atno 11005 bound_to 11000
  145.9630  140.8821  143.0201 LP  0  0  0  0  0  0  0  0  0  0  0  0  # atno 17320 bound_to 7965
  144.6744  140.1839  143.7403 LP  0  0  0  0  0  0  0  0  0  0  0  0  # atno 17321 bound_to 7965
  139.5102  144.6880  151.5835 LP  0  0  0  0  0  0  0  0  0  0  0  0  # atno 17342 bound_to 10162
  140.6168  143.9333  150.6495 LP  0  0  0  0  0  0  0  0  0  0  0  0  # atno 17343 bound_to 10162
  157.6527  130.8898  149.9665 LP  0  0  0  0  0  0  0  0  0  0  0  0  # atno 17370 bound_to 10713
  156.1069  130.3652  150.0117 LP  0  0  0  0  0  0  0  0  0  0  0  0  # atno 17371 bound_to 10713
  140.6641  133.9619  155.7820 LP  0  0  0  0  0  0  0  0  0  0  0  0  # atno 17394 bound_to 11000
  141.0623  134.0328  157.3641 LP  0  0  0  0  0  0  0  0  0  0  0  0  # atno 17395 bound_to 11000

$$$$
