AV-unprocessed.smi:3311|AV-procd|sdf|12725|dock8
  -GOLD-   2272019 63D 1   1.00000     0.00000
 Structure written by MMmdl.
 43 44  0  0  0  0  0  0  0  0  1 V2000
  150.8254  140.2966  158.4611 C   0  0  0  0  0  0  0  0  0  0  0  0
  150.7994  141.8242  158.2274 C   0  0  2  0  0  0  0  0  0  0  0  0
  150.3074  142.1424  156.8815 N   0  0  0  0  0  0  0  0  0  0  0  0
  150.8275  141.3058  155.7972 C   0  0  0  0  0  0  0  0  0  0  0  0
  149.7014  140.6199  154.9911 C   0  0  0  0  0  0  0  0  0  0  0  0
  150.3206  139.8968  153.9419 O   0  0  0  0  0  0  0  0  0  0  0  0
  148.8479  139.6605  155.8599 C   0  0  0  0  0  0  0  0  0  0  0  0
  147.6351  139.0848  155.1066 C   0  0  0  0  0  0  0  0  0  0  0  0
  146.7631  140.1988  154.5118 C   0  0  0  0  0  0  0  0  0  0  0  0
  147.5907  141.1121  153.5975 C   0  0  0  0  0  0  0  0  0  0  0  0
  148.8013  141.7002  154.3447 C   0  0  0  0  0  0  0  0  0  0  0  0
  152.1833  142.4937  158.4445 C   0  0  1  0  0  0  0  0  0  0  0  0
  152.1498  144.0141  158.1997 C   0  0  0  0  0  0  0  0  0  0  0  0
  152.7208  142.2284  159.7738 N   0  0  0  0  0  0  0  0  0  0  0  0
  153.8753  141.5536  160.1190 C   0  0  0  0  0  0  0  0  0  0  0  0
  153.9601  141.5580  161.4818 C   0  0  0  0  0  0  0  0  0  0  0  0
  152.7951  142.2654  161.8895 C   0  0  0  0  0  0  0  0  0  0  0  0
  152.0558  142.6634  160.8670 N   0  0  0  0  0  0  0  0  0  0  0  0
  151.1738  140.0434  159.4618 H   0  0  0  0  0  0  0  0  0  0  0  0
  151.4845  139.8006  157.7479 H   0  0  0  0  0  0  0  0  0  0  0  0
  149.8358  139.8511  158.3680 H   0  0  0  0  0  0  0  0  0  0  0  0
  150.1132  142.2534  158.9588 H   0  0  0  0  0  0  0  0  0  0  0  0
  149.2929  142.1001  156.8745 H   0  0  0  0  0  0  0  0  0  0  0  0
  151.4226  141.9123  155.1152 H   0  0  0  0  0  0  0  0  0  0  0  0
  151.4986  140.5468  156.2019 H   0  0  0  0  0  0  0  0  0  0  0  0
  150.7903  139.1685  154.3189 H   0  0  0  0  0  0  0  0  0  0  0  0
  149.4557  138.8368  156.2360 H   0  0  0  0  0  0  0  0  0  0  0  0
  148.4912  140.1983  156.7395 H   0  0  0  0  0  0  0  0  0  0  0  0
  147.9757  138.4217  154.3106 H   0  0  0  0  0  0  0  0  0  0  0  0
  147.0393  138.4705  155.7821 H   0  0  0  0  0  0  0  0  0  0  0  0
  145.9331  139.7646  153.9533 H   0  0  0  0  0  0  0  0  0  0  0  0
  146.3210  140.7883  155.3161 H   0  0  0  0  0  0  0  0  0  0  0  0
  147.9288  140.5504  152.7260 H   0  0  0  0  0  0  0  0  0  0  0  0
  146.9642  141.9188  153.2164 H   0  0  0  0  0  0  0  0  0  0  0  0
  148.4332  142.3713  155.1221 H   0  0  0  0  0  0  0  0  0  0  0  0
  149.3848  142.3222  153.6644 H   0  0  0  0  0  0  0  0  0  0  0  0
  152.8790  142.0617  157.7220 H   0  0  0  0  0  0  0  0  0  0  0  0
  151.8673  144.2497  157.1735 H   0  0  0  0  0  0  0  0  0  0  0  0
  153.1301  144.4590  158.3737 H   0  0  0  0  0  0  0  0  0  0  0  0
  151.4379  144.5093  158.8607 H   0  0  0  0  0  0  0  0  0  0  0  0
  154.5340  141.1333  159.3732 H   0  0  0  0  0  0  0  0  0  0  0  0
  154.7355  141.1222  162.0940 H   0  0  0  0  0  0  0  0  0  0  0  0
  152.4668  142.4999  162.8913 H   0  0  0  0  0  0  0  0  0  0  0  0
  1  2  1  0  0  0  0
  1 19  1  0  0  0  0
  1 20  1  0  0  0  0
  1 21  1  0  0  0  0
  2  3  1  0  0  0  0
  2 12  1  0  0  0  0
  2 22  1  0  0  0  0
  3  4  1  0  0  0  0
  3 23  1  0  0  0  0
  4  5  1  0  0  0  0
  4 24  1  0  0  0  0
  4 25  1  0  0  0  0
  5 11  1  0  0  0  0
  5  6  1  0  0  0  0
  5  7  1  0  0  0  0
  6 26  1  0  0  0  0
  7  8  1  0  0  0  0
  7 27  1  0  0  0  0
  7 28  1  0  0  0  0
  8  9  1  0  0  0  0
  8 29  1  0  0  0  0
  8 30  1  0  0  0  0
  9 10  1  0  0  0  0
  9 31  1  0  0  0  0
  9 32  1  0  0  0  0
 10 11  1  0  0  0  0
 10 33  1  0  0  0  0
 10 34  1  0  0  0  0
 11 35  1  0  0  0  0
 11 36  1  0  0  0  0
 12 13  1  0  0  0  0
 12 14  1  0  0  0  0
 12 37  1  0  0  0  0
 13 38  1  0  0  0  0
 13 39  1  0  0  0  0
 13 40  1  0  0  0  0
 14 18  1  0  0  0  0
 14 15  1  0  0  0  0
 15 16  2  0  0  0  0
 15 41  1  0  0  0  0
 16 17  1  0  0  0  0
 16 42  1  0  0  0  0
 17 18  2  0  0  0  0
 17 43  1  0  0  0  0
M  END
> <s_m_source_file>
AV-unprocessed.smi

> <i_m_source_file_index>
3311

> <i_lp_mmshare_version>
43012

> <i_f3d_flags>
0

> <s_epik_input>
bjFbY0hdW2NIXVtjSF1uMVtDQEBIXShbQ0gzXSlbQ0BIXShbQ0gzXSlbTkhdW0NIMl1DMihbT0hdKVtDSDJdW0NIMl1bQ0gyXVtDSDJdW0NIMl0y

> <s_epik_cmdline>
J2VwaWtfcHl0aG9uJywgJy1waCcsICc3LjAnLCAnLXRuJywgJzgnLCAnLW1hJywgJzIwMCcsICctbWV0YWxfYmluZGluZycsICctaW1hZScsICc8aW5maWxlLm1hZT4nLCAnLW9tYWUnLCAnPG91dGZpbGUubWFlPic=

> <r_lp_tautomer_probability>
1

> <r_epik_Ionization_Penalty>
2.222

> <r_epik_Ionization_Penalty_Charging>
0

> <r_epik_Ionization_Penalty_Neutral>
2.222

> <r_epik_State_Penalty>
2.36562

> <r_epik_Charging_Adjusted_Penalty>
2.36562

> <i_epik_Tot_Q>
0

> <i_epik_Tot_abs_Q>
0

> <r_epik_Metal_State_Penalty>
2.36435

> <b_epik_Metal_Only>
0

> <s_lp_Force_Field>
OPLS_2005

> <r_lp_Energy>
27.677

> <b_lp_Chiralities_Consistent>
1

> <s_lp_Variant>
AV-unprocessed.smi:3311-7

> <Gold.Version>
5.8.1

> <Gold.Id.Protein>
6NUR|6NUR_protein|mol2

> <Gold.PLP.Fitness>
45.6260

> <Gold.PLP.PLP>
-43.7059

> <Gold.PLP.part.hbond>
-3.5746

> <Gold.PLP.part.metal>
0.0000

> <Gold.PLP.part.buried>
-3.9393

> <Gold.PLP.part.nonpolar>
-35.8816

> <Gold.PLP.part.repulsive>
0.0914

> <Gold.PLP.ligand.clash>
0.0000

> <Gold.PLP.ligand.torsion>
0.5862

> <Gold.PLP.Chemscore.Hbond>
1.0000

> <Gold.PLP.Chemscore.CHOScore>
0.0000

> <Gold.PLP.Chemscore.Metal>
0.0000

> <Gold.Chemscore.Hbonds>
donor molecule, donor type, donor heavy atom, donor atom, acceptor molecule, acceptor atom, score
      P1  H  7989  7998       L1     6  1.00

> <Gold.PLP.Chemscore.Internal.Correction>
0.0926

> <Gold.Rescore>
     Score         DG    S(hbond)    S(metal)    S(lipo)     H(rot)  DE(clash)    DE(int)     intcor
     14.51     -15.10       0.82        0.00     104.15       2.07       0.01       0.58       ----

> <Gold.Chemscore.Fitness>
14.5122

> <Gold.Chemscore.DG>
-15.0987

> <Gold.Chemscore.ZeroCoef>
-5.4800

> <Gold.Chemscore.Hbond>
0.8169

> <Gold.Chemscore.Metal>
0.0000

> <Gold.Chemscore.Lipo>
104.1530

> <Gold.Chemscore.Internal_Hbond>
0.0000

> <Gold.Chemscore.DEClash>
0.0077

> <Gold.Chemscore.DEInternal>
0.5787

> <Gold.Chemscore.Rot>
2.0686

> <Gold.Chemscore.Internal.Correction>
   9.000000E+99

> <Gold.Chemscore.Hbonds>
donor molecule, donor type, donor heavy atom, donor atom, acceptor molecule, acceptor atom, score
      P1  H  7989  7998       L1     6  0.12

> <Gold.Chemscore.Hbond.Weighted>
-2.7285

> <Gold.Chemscore.Metal.Weighted>
-0.0000

> <Gold.Chemscore.Lipo.Weighted>
-12.1859

> <Gold.Chemscore.Internal_Hbond.Weighted>
0.0000

> <Gold.Chemscore.DEClash.Weighted>
0.0077

> <Gold.Chemscore.DEInternal.Weighted>
0.5787

> <Gold.Chemscore.Rot.Weighted>
5.2957

> <Gold.Chemscore.Internal.Correction.Weighted>
   9.000000E+99

> <Gold.Protein.RotatedTorsions>
[ 6907 6896 6895 6894 ] final  101.91 input  -60.11 | X-H torsion
[ 7974 7965 7964 7962 ] final  -37.36 input  175.53 | X-H torsion
[ 8008 7997 7996 7995 ] final  113.60 input   59.86 | X-H torsion
[ 10167 10162 10161 10158 ] final   45.40 input  -65.29 | X-H torsion
[ 10718 10713 10712 10709 ] final   69.06 input   66.30 | X-H torsion
[ 10763 10752 10751 10750 ] final   45.80 input  -60.55 | X-H torsion
[ 11005 11000 10999 10996 ] final  106.94 input  -57.11 | X-H torsion

> <Gold.Protein.ActiveResidues>
 VAL166  LYS551  ARG553  GLY616  TRP617  ASP618  TYR619  PRO620  LYS621  CYS622 
 ASP623  PHE694  ASN695  SER759  ASP760  ASP761  ALA762  ILE779  LEU786  VAL792 
 PHE793  MET794  SER795  GLU796  ALA797  LYS798  CYS799  TRP800  GLU811  SER814 

> <Gold.Protein.RotatedAtoms>
  152.5337  134.0055  159.7914 H   0  0  0  0  0  0  0  0  0  0  0  0  # atno 6907 bound_to 6896
  151.0266  133.5820  159.2672 H   0  0  0  0  0  0  0  0  0  0  0  0  # atno 6908 bound_to 6896
  151.2840  135.0729  159.9233 H   0  0  0  0  0  0  0  0  0  0  0  0  # atno 6909 bound_to 6896
  146.0581  140.6387  142.9010 H   0  0  0  0  0  0  0  0  0  0  0  0  # atno 7974 bound_to 7965
  156.2269  140.2976  156.0088 H   0  0  0  0  0  0  0  0  0  0  0  0  # atno 8008 bound_to 7997
  155.2333  140.0419  157.2982 H   0  0  0  0  0  0  0  0  0  0  0  0  # atno 8009 bound_to 7997
  154.5930  140.2406  155.7903 H   0  0  0  0  0  0  0  0  0  0  0  0  # atno 8010 bound_to 7997
  140.3245  144.2664  150.6177 H   0  0  0  0  0  0  0  0  0  0  0  0  # atno 10167 bound_to 10162
  157.6324  130.9406  150.0461 H   0  0  0  0  0  0  0  0  0  0  0  0  # atno 10718 bound_to 10713
  152.9819  135.6028  154.3495 H   0  0  0  0  0  0  0  0  0  0  0  0  # atno 10763 bound_to 10752
  154.3186  135.2770  155.2533 H   0  0  0  0  0  0  0  0  0  0  0  0  # atno 10764 bound_to 10752
  154.4710  135.5942  153.6377 H   0  0  0  0  0  0  0  0  0  0  0  0  # atno 10765 bound_to 10752
  139.8821  134.9385  156.5744 H   0  0  0  0  0  0  0  0  0  0  0  0  # atno 11005 bound_to 11000
  144.7159  140.4209  143.7044 LP  0  0  0  0  0  0  0  0  0  0  0  0  # atno 17320 bound_to 7965
  145.6608  139.1581  143.2809 LP  0  0  0  0  0  0  0  0  0  0  0  0  # atno 17321 bound_to 7965
  140.5453  143.2216  151.8017 LP  0  0  0  0  0  0  0  0  0  0  0  0  # atno 17342 bound_to 10162
  139.4868  144.4547  151.9612 LP  0  0  0  0  0  0  0  0  0  0  0  0  # atno 17343 bound_to 10162
  156.1538  130.3643  149.9399 LP  0  0  0  0  0  0  0  0  0  0  0  0  # atno 17370 bound_to 10713
  156.7413  130.9080  151.3632 LP  0  0  0  0  0  0  0  0  0  0  0  0  # atno 17371 bound_to 10713
  140.8074  133.8456  155.8780 LP  0  0  0  0  0  0  0  0  0  0  0  0  # atno 17394 bound_to 11000
  140.9537  134.1745  157.4708 LP  0  0  0  0  0  0  0  0  0  0  0  0  # atno 17395 bound_to 11000

$$$$
