AV-unprocessed.smi:312|AV-procd|sdf|2307|dock2
  -GOLD-   2262022203D 1   1.00000     0.00000
 Structure written by MMmdl.
 35 36  0  0  0  0  0  0  0  0  1 V2000
  150.1052  139.5362  156.8409 C   0  0  0  0  0  0  0  0  0  0  0  0
  150.0759  141.0709  156.7960 C   0  0  2  0  0  0  0  0  0  0  0  0
  150.0556  141.5984  155.3490 C   0  0  0  0  0  0  0  0  0  0  0  0
  148.9267  141.0849  154.5946 N   0  0  0  0  0  0  0  0  0  0  0  0
  147.8061  141.7918  154.1786 C   0  0  0  0  0  0  0  0  0  0  0  0
  147.0117  140.9008  153.4927 C   0  0  0  0  0  0  0  0  0  0  0  0
  147.6190  139.6472  153.4766 N   0  0  0  0  0  0  0  0  0  0  0  0
  148.7472  139.8337  154.1492 C   0  0  0  0  0  0  0  0  0  0  0  0
  151.2350  141.6065  157.5068 N   0  0  0  0  0  0  0  0  0  0  0  0
  151.1930  142.3466  158.6252 C   0  0  0  0  0  0  0  0  0  0  0  0
  150.1463  142.6335  159.2073 O   0  0  0  0  0  0  0  0  0  0  0  0
  152.5454  142.8431  159.1623 C   0  0  0  0  0  0  0  0  0  0  0  0
  153.4624  141.6772  159.6003 C   0  0  0  0  0  0  0  0  0  0  0  0
  153.7169  141.8461  161.1043 C   0  0  0  0  0  0  0  0  0  0  0  0
  152.6148  142.7773  161.6021 C   0  0  0  0  0  0  0  0  0  0  0  0
  152.3672  143.7134  160.4205 C   0  0  0  0  0  0  0  0  0  0  0  0
  149.2395  139.1127  156.3314 H   0  0  0  0  0  0  0  0  0  0  0  0
  150.0906  139.1725  157.8690 H   0  0  0  0  0  0  0  0  0  0  0  0
  151.0008  139.1414  156.3600 H   0  0  0  0  0  0  0  0  0  0  0  0
  149.1578  141.4028  157.2848 H   0  0  0  0  0  0  0  0  0  0  0  0
  150.0243  142.6891  155.3352 H   0  0  0  0  0  0  0  0  0  0  0  0
  150.9680  141.3046  154.8284 H   0  0  0  0  0  0  0  0  0  0  0  0
  147.6724  142.8413  154.3962 H   0  0  0  0  0  0  0  0  0  0  0  0
  146.0577  141.0643  153.0137 H   0  0  0  0  0  0  0  0  0  0  0  0
  149.4626  139.0421  154.3176 H   0  0  0  0  0  0  0  0  0  0  0  0
  152.1409  141.4187  157.1022 H   0  0  0  0  0  0  0  0  0  0  0  0
  153.0386  143.4312  158.3863 H   0  0  0  0  0  0  0  0  0  0  0  0
  153.0047  140.7047  159.4098 H   0  0  0  0  0  0  0  0  0  0  0  0
  154.4034  141.6890  159.0493 H   0  0  0  0  0  0  0  0  0  0  0  0
  153.7288  140.8942  161.6358 H   0  0  0  0  0  0  0  0  0  0  0  0
  154.6873  142.3201  161.2576 H   0  0  0  0  0  0  0  0  0  0  0  0
  151.7129  142.2031  161.8179 H   0  0  0  0  0  0  0  0  0  0  0  0
  152.8951  143.3122  162.5099 H   0  0  0  0  0  0  0  0  0  0  0  0
  153.1148  144.5077  160.4202 H   0  0  0  0  0  0  0  0  0  0  0  0
  151.3901  144.1956  160.4822 H   0  0  0  0  0  0  0  0  0  0  0  0
  1  2  1  0  0  0  0
  1 17  1  0  0  0  0
  1 18  1  0  0  0  0
  1 19  1  0  0  0  0
  2  3  1  0  0  0  0
  2  9  1  0  0  0  0
  2 20  1  0  0  0  0
  3  4  1  0  0  0  0
  3 21  1  0  0  0  0
  3 22  1  0  0  0  0
  4  8  1  0  0  0  0
  4  5  1  0  0  0  0
  5  6  2  0  0  0  0
  5 23  1  0  0  0  0
  6  7  1  0  0  0  0
  6 24  1  0  0  0  0
  7  8  2  0  0  0  0
  8 25  1  0  0  0  0
  9 10  1  0  0  0  0
  9 26  1  0  0  0  0
 10 11  2  0  0  0  0
 10 12  1  0  0  0  0
 12 16  1  0  0  0  0
 12 13  1  0  0  0  0
 12 27  1  0  0  0  0
 13 14  1  0  0  0  0
 13 28  1  0  0  0  0
 13 29  1  0  0  0  0
 14 15  1  0  0  0  0
 14 30  1  0  0  0  0
 14 31  1  0  0  0  0
 15 16  1  0  0  0  0
 15 32  1  0  0  0  0
 15 33  1  0  0  0  0
 16 34  1  0  0  0  0
 16 35  1  0  0  0  0
M  END
> <s_m_source_file>
AV-unprocessed.smi

> <i_m_source_file_index>
312

> <i_lp_mmshare_version>
43012

> <i_f3d_flags>
0

> <s_epik_input>
W2NIXTFuW2NIXVtjSF1uMVtDSDJdW0NAQEhdKFtDSDNdKVtOSF1DKD1PKVtDSF0yW0NIMl1bQ0gyXVtDSDJdW0NIMl0y

> <s_epik_cmdline>
J2VwaWtfcHl0aG9uJywgJy1waCcsICc3LjAnLCAnLXRuJywgJzgnLCAnLW1hJywgJzIwMCcsICctbWV0YWxfYmluZGluZycsICctaW1hZScsICc8aW5maWxlLm1hZT4nLCAnLW9tYWUnLCAnPG91dGZpbGUubWFlPic=

> <r_lp_tautomer_probability>
1

> <r_epik_Ionization_Penalty>
0.642614

> <r_epik_Ionization_Penalty_Charging>
0.642614

> <r_epik_Ionization_Penalty_Neutral>
3.44135e-08

> <r_epik_State_Penalty>
0.660429

> <r_epik_Charging_Adjusted_Penalty>
1.30304

> <i_epik_Tot_Q>
0

> <i_epik_Tot_abs_Q>
0

> <r_epik_Metal_State_Penalty>
0.31224

> <b_epik_Metal_Only>
0

> <s_lp_Force_Field>
OPLS_2005

> <r_lp_Energy>
22.1454

> <b_lp_Chiralities_Consistent>
1

> <s_lp_Variant>
AV-unprocessed.smi:312-3

> <Gold.Version>
5.8.1

> <Gold.Id.Protein>
6NUR|6NUR_protein|mol2

> <Gold.PLP.Fitness>
43.2197

> <Gold.PLP.PLP>
-37.5101

> <Gold.PLP.part.hbond>
-1.0000

> <Gold.PLP.part.metal>
0.0000

> <Gold.PLP.part.buried>
-4.1939

> <Gold.PLP.part.nonpolar>
-33.0830

> <Gold.PLP.part.repulsive>
0.4637

> <Gold.PLP.ligand.clash>
0.0000

> <Gold.PLP.ligand.torsion>
0.1472

> <Gold.PLP.Chemscore.Hbond>
0.0000

> <Gold.PLP.Chemscore.CHOScore>
1.9924

> <Gold.PLP.Chemscore.Metal>
0.0000

> <Gold.Chemscore.Hbonds>
donor molecule, donor type, donor heavy atom, donor atom, acceptor molecule, acceptor atom, score
      L1  C     5    23       P1  8028  1.00
      L1  C     6    24       P1 10175  1.00

> <Gold.PLP.Chemscore.Internal.Correction>
0.0270

> <Gold.Rescore>
     Score         DG    S(hbond)    S(metal)    S(lipo)     H(rot)  DE(clash)    DE(int)     intcor
     11.44     -11.56       0.00        0.00      90.41       1.76       0.00       0.12       ----

> <Gold.Chemscore.Fitness>
11.4383

> <Gold.Chemscore.DG>
-11.5620

> <Gold.Chemscore.ZeroCoef>
-5.4800

> <Gold.Chemscore.Hbond>
0.0000

> <Gold.Chemscore.Metal>
0.0000

> <Gold.Chemscore.Lipo>
90.4127

> <Gold.Chemscore.Internal_Hbond>
0.0000

> <Gold.Chemscore.DEClash>
0.0038

> <Gold.Chemscore.DEInternal>
0.1199

> <Gold.Chemscore.Rot>
1.7563

> <Gold.Chemscore.Internal.Correction>
   9.000000E+99

> <Gold.Chemscore.Hbond.Weighted>
-0.0000

> <Gold.Chemscore.Metal.Weighted>
-0.0000

> <Gold.Chemscore.Lipo.Weighted>
-10.5783

> <Gold.Chemscore.Internal_Hbond.Weighted>
0.0000

> <Gold.Chemscore.DEClash.Weighted>
0.0038

> <Gold.Chemscore.DEInternal.Weighted>
0.1199

> <Gold.Chemscore.Rot.Weighted>
4.4962

> <Gold.Chemscore.Internal.Correction.Weighted>
   9.000000E+99

> <Gold.Protein.RotatedTorsions>
[ 6907 6896 6895 6894 ] final   39.26 input  -60.11 | X-H torsion
[ 7974 7965 7964 7962 ] final   78.19 input  175.53 | X-H torsion
[ 8008 7997 7996 7995 ] final   71.74 input   59.86 | X-H torsion
[ 10167 10162 10161 10158 ] final -139.45 input  -65.29 | X-H torsion
[ 10718 10713 10712 10709 ] final  113.50 input   66.30 | X-H torsion
[ 10763 10752 10751 10750 ] final  152.16 input  -60.55 | X-H torsion
[ 11005 11000 10999 10996 ] final  -65.61 input  -57.11 | X-H torsion

> <Gold.Protein.ActiveResidues>
 VAL166  LYS551  ARG553  GLY616  TRP617  ASP618  TYR619  PRO620  LYS621  CYS622 
 ASP623  PHE694  ASN695  SER759  ASP760  ASP761  ALA762  ILE779  LEU786  VAL792 
 PHE793  MET794  SER795  GLU796  ALA797  LYS798  CYS799  TRP800  GLU811  SER814 

> <Gold.Protein.RotatedAtoms>
  152.1672  134.8863  160.0536 H   0  0  0  0  0  0  0  0  0  0  0  0  # atno 6907 bound_to 6896
  151.9837  133.3761  159.4125 H   0  0  0  0  0  0  0  0  0  0  0  0  # atno 6908 bound_to 6896
  150.6896  134.3934  159.5130 H   0  0  0  0  0  0  0  0  0  0  0  0  # atno 6909 bound_to 6896
  145.6804  139.2522  143.1817 H   0  0  0  0  0  0  0  0  0  0  0  0  # atno 7974 bound_to 7965
  155.7585  140.3487  155.5186 H   0  0  0  0  0  0  0  0  0  0  0  0  # atno 8008 bound_to 7997
  155.8937  140.1022  157.1421 H   0  0  0  0  0  0  0  0  0  0  0  0  # atno 8009 bound_to 7997
  154.4036  140.1299  156.4335 H   0  0  0  0  0  0  0  0  0  0  0  0  # atno 8010 bound_to 7997
  139.8378  143.7361  152.2664 H   0  0  0  0  0  0  0  0  0  0  0  0  # atno 10167 bound_to 10162
  157.6334  131.0984  150.7050 H   0  0  0  0  0  0  0  0  0  0  0  0  # atno 10718 bound_to 10713
  154.1155  135.2836  155.3220 H   0  0  0  0  0  0  0  0  0  0  0  0  # atno 10763 bound_to 10752
  154.6459  135.5386  153.7848 H   0  0  0  0  0  0  0  0  0  0  0  0  # atno 10764 bound_to 10752
  153.0330  135.6498  154.1312 H   0  0  0  0  0  0  0  0  0  0  0  0  # atno 10765 bound_to 10752
  141.1459  133.6684  156.6013 H   0  0  0  0  0  0  0  0  0  0  0  0  # atno 11005 bound_to 11000
  146.0969  140.7590  142.9568 LP  0  0  0  0  0  0  0  0  0  0  0  0  # atno 17320 bound_to 7965
  144.7028  140.3726  143.7142 LP  0  0  0  0  0  0  0  0  0  0  0  0  # atno 17321 bound_to 7965
  139.7589  144.7512  151.0394 LP  0  0  0  0  0  0  0  0  0  0  0  0  # atno 17342 bound_to 10162
  140.7801  143.4774  151.0064 LP  0  0  0  0  0  0  0  0  0  0  0  0  # atno 17343 bound_to 10162
  156.7386  130.4732  149.5483 LP  0  0  0  0  0  0  0  0  0  0  0  0  # atno 17370 bound_to 10713
  156.1555  130.6339  151.0651 LP  0  0  0  0  0  0  0  0  0  0  0  0  # atno 17371 bound_to 10713
  140.3686  134.7625  157.4583 LP  0  0  0  0  0  0  0  0  0  0  0  0  # atno 17394 bound_to 11000
  140.0728  134.5838  155.8623 LP  0  0  0  0  0  0  0  0  0  0  0  0  # atno 17395 bound_to 11000

$$$$
