AV-unprocessed.smi:158|AV-procd|sdf|1334|dock5
  -GOLD-   2262019 33D 1   1.00000     0.00000
 Structure written by MMmdl.
 31 33  0  0  0  0  0  0  0  0  1 V2000
  152.1424  144.4025  159.1526 N   0  0  0  0  0  0  0  0  0  0  0  0
  152.2282  143.0721  159.0128 C   0  0  0  0  0  0  0  0  0  0  0  0
  153.1583  142.4079  159.7371 N   0  0  0  0  0  0  0  0  0  0  0  0
  153.2793  141.0804  159.6227 C   0  0  0  0  0  0  0  0  0  0  0  0
  154.4934  140.3310  160.5907 Cl  0  0  0  0  0  0  0  0  0  0  0  0
  152.5630  140.2666  158.8416 N   0  0  0  0  0  0  0  0  0  0  0  0
  151.6168  140.9269  158.1122 C   0  0  0  0  0  0  0  0  0  0  0  0
  151.3925  142.3305  158.1418 C   0  0  0  0  0  0  0  0  0  0  0  0
  150.3652  142.6667  157.2726 N   0  0  0  0  0  0  0  0  0  0  0  0
  150.0032  141.5216  156.7611 C   0  0  0  0  0  0  0  0  0  0  0  0
  150.6946  140.4180  157.2140 N   0  0  0  0  0  0  0  0  0  0  0  0
  150.4765  138.9919  156.7894 C   0  0  1  0  0  0  0  0  0  0  0  0
  149.1465  138.8278  156.3883 O   0  0  0  0  0  0  0  0  0  0  0  0
  149.0814  138.4021  155.0255 C   0  0  1  0  0  0  0  0  0  0  0  0
  147.8035  138.9046  154.3292 C   0  0  0  0  0  0  0  0  0  0  0  0
  147.8994  138.7090  152.9340 O   0  0  0  0  0  0  0  0  0  0  0  0
  150.4247  138.8079  154.4002 C   0  0  1  0  0  0  0  0  0  0  0  0
  150.4141  140.1463  153.9381 O   0  0  0  0  0  0  0  0  0  0  0  0
  151.3546  138.6198  155.5843 C   0  0  1  0  0  0  0  0  0  0  0  0
  152.4877  139.3230  155.5158 F   0  0  0  0  0  0  0  0  0  0  0  0
  150.6981  138.4112  157.6854 H   0  0  0  0  0  0  0  0  0  0  0  0
  149.0465  137.3119  155.0639 H   0  0  0  0  0  0  0  0  0  0  0  0
  150.6948  138.1600  153.5657 H   0  0  0  0  0  0  0  0  0  0  0  0
  151.6275  137.5681  155.6782 H   0  0  0  0  0  0  0  0  0  0  0  0
  151.4568  144.9202  158.6215 H   0  0  0  0  0  0  0  0  0  0  0  0
  152.7613  144.8840  159.7887 H   0  0  0  0  0  0  0  0  0  0  0  0
  149.2069  141.4464  156.0348 H   0  0  0  0  0  0  0  0  0  0  0  0
  146.9408  138.3454  154.6924 H   0  0  0  0  0  0  0  0  0  0  0  0
  147.6090  139.9560  154.5394 H   0  0  0  0  0  0  0  0  0  0  0  0
  148.5531  139.3002  152.5927 H   0  0  0  0  0  0  0  0  0  0  0  0
  150.4062  140.1366  152.9931 H   0  0  0  0  0  0  0  0  0  0  0  0
  1  2  1  0  0  0  0
  1 25  1  0  0  0  0
  1 26  1  0  0  0  0
  2  8  1  0  0  0  0
  2  3  2  0  0  0  0
  3  4  1  0  0  0  0
  4  5  1  0  0  0  0
  4  6  2  0  0  0  0
  6  7  1  0  0  0  0
  7 11  1  0  0  0  0
  7  8  2  0  0  0  0
  8  9  1  0  0  0  0
  9 10  2  0  0  0  0
 10 11  1  0  0  0  0
 10 27  1  0  0  0  0
 11 12  1  0  0  0  0
 12 21  1  0  0  0  0
 12 19  1  0  0  0  0
 12 13  1  0  0  0  0
 13 14  1  0  0  0  0
 14 22  1  0  0  0  0
 14 15  1  0  0  0  0
 14 17  1  0  0  0  0
 15 16  1  0  0  0  0
 15 28  1  0  0  0  0
 15 29  1  0  0  0  0
 16 30  1  0  0  0  0
 17 23  1  0  0  0  0
 17 18  1  0  0  0  0
 17 19  1  0  0  0  0
 18 31  1  0  0  0  0
 19 24  1  0  0  0  0
 19 20  1  0  0  0  0
M  END
> <s_m_source_file>
AV-unprocessed.smi

> <i_m_source_file_index>
158

> <i_lp_mmshare_version>
43012

> <i_f3d_flags>
0

> <s_epik_input>
Q2xjKG4xKW5jKFtOSDJdKWMoYzEyKW5bY0hdbjJbQ0BASF0zT1tDQEhdKFtDSDJdW09IXSlbQ0BASF0oW09IXSlbQ0BASF0zRg==

> <s_epik_cmdline>
J2VwaWtfcHl0aG9uJywgJy1waCcsICc3LjAnLCAnLXRuJywgJzgnLCAnLW1hJywgJzIwMCcsICctbWV0YWxfYmluZGluZycsICctaW1hZScsICc8aW5maWxlLm1hZT4nLCAnLW9tYWUnLCAnPG91dGZpbGUubWFlPic=

> <r_lp_tautomer_probability>
1

> <r_epik_Ionization_Penalty>
6.51543e-05

> <r_epik_Ionization_Penalty_Charging>
0

> <r_epik_Ionization_Penalty_Neutral>
6.51543e-05

> <r_epik_State_Penalty>
-0

> <r_epik_Charging_Adjusted_Penalty>
0

> <i_epik_Tot_Q>
0

> <i_epik_Tot_abs_Q>
0

> <r_epik_Metal_State_Penalty>
-0

> <b_epik_Metal_Only>
0

> <s_epik_Chemistry_Notes>
This compound contains an acetal/aminal-like group ( X-CH(R)-Y where X, Y are N, S, or O) that may be acid/base labile, releasing an aldehyde.

> <s_lp_Force_Field>
OPLS_2005

> <r_lp_Energy>
41.2986

> <b_lp_Chiralities_Consistent>
1

> <s_lp_Variant>
AV-unprocessed.smi:158-12

> <Gold.Version>
5.8.1

> <Gold.Id.Protein>
6NUR|6NUR_protein|mol2

> <Gold.PLP.Fitness>
36.6857

> <Gold.PLP.PLP>
-31.5507

> <Gold.PLP.part.hbond>
-3.5431

> <Gold.PLP.part.metal>
0.0000

> <Gold.PLP.part.buried>
-5.3006

> <Gold.PLP.part.nonpolar>
-23.1679

> <Gold.PLP.part.repulsive>
1.0162

> <Gold.PLP.ligand.clash>
0.0000

> <Gold.PLP.ligand.torsion>
0.8274

> <Gold.PLP.Chemscore.Hbond>
2.0000

> <Gold.PLP.Chemscore.CHOScore>
0.0000

> <Gold.PLP.Chemscore.Metal>
0.0000

> <Gold.Chemscore.Hbonds>
donor molecule, donor type, donor heavy atom, donor atom, acceptor molecule, acceptor atom, score
      L1  H    16    30       P1  7957  1.00
      L1  H    18    31       P1  7957  1.00

> <Gold.PLP.Chemscore.Internal.Correction>
0.7897

> <Gold.Rescore>
     Score         DG    S(hbond)    S(metal)    S(lipo)     H(rot)  DE(clash)    DE(int)     intcor
      7.25      -8.66       2.00        0.00      38.52       3.12       0.76       0.65       ----

> <Gold.Chemscore.Fitness>
7.2468

> <Gold.Chemscore.DG>
-8.6594

> <Gold.Chemscore.ZeroCoef>
-5.4800

> <Gold.Chemscore.Hbond>
1.9961

> <Gold.Chemscore.Metal>
0.0000

> <Gold.Chemscore.Lipo>
38.5247

> <Gold.Chemscore.Internal_Hbond>
0.0000

> <Gold.Chemscore.DEClash>
0.7596

> <Gold.Chemscore.DEInternal>
0.6530

> <Gold.Chemscore.Rot>
3.1230

> <Gold.Chemscore.Internal.Correction>
   9.000000E+99

> <Gold.Chemscore.Hbonds>
donor molecule, donor type, donor heavy atom, donor atom, acceptor molecule, acceptor atom, score
      L1  H    16    30       P1  7957  0.95
      L1  H    18    31       P1  7957  0.95

> <Gold.Chemscore.Hbond.Weighted>
-6.6670

> <Gold.Chemscore.Metal.Weighted>
-0.0000

> <Gold.Chemscore.Lipo.Weighted>
-4.5074

> <Gold.Chemscore.Internal_Hbond.Weighted>
0.0000

> <Gold.Chemscore.DEClash.Weighted>
0.7596

> <Gold.Chemscore.DEInternal.Weighted>
0.6530

> <Gold.Chemscore.Rot.Weighted>
7.9950

> <Gold.Chemscore.Internal.Correction.Weighted>
   9.000000E+99

> <Gold.Protein.RotatedTorsions>
[ 6907 6896 6895 6894 ] final  -43.13 input  -60.11 | X-H torsion
[ 7974 7965 7964 7962 ] final  130.09 input  175.53 | X-H torsion
[ 8008 7997 7996 7995 ] final   40.04 input   59.86 | X-H torsion
[ 10167 10162 10161 10158 ] final  -17.60 input  -65.29 | X-H torsion
[ 10718 10713 10712 10709 ] final  -48.25 input   66.30 | X-H torsion
[ 10763 10752 10751 10750 ] final -153.54 input  -60.55 | X-H torsion
[ 11005 11000 10999 10996 ] final  147.78 input  -57.11 | X-H torsion

> <Gold.Protein.ActiveResidues>
 VAL166  LYS551  ARG553  GLY616  TRP617  ASP618  TYR619  PRO620  LYS621  CYS622 
 ASP623  PHE694  ASN695  SER759  ASP760  ASP761  ALA762  ILE779  LEU786  VAL792 
 PHE793  MET794  SER795  GLU796  ALA797  LYS798  CYS799  TRP800  GLU811  SER814 

> <Gold.Protein.RotatedAtoms>
  150.9474  134.8877  159.7650 H   0  0  0  0  0  0  0  0  0  0  0  0  # atno 6907 bound_to 6896
  152.5105  134.3855  159.9376 H   0  0  0  0  0  0  0  0  0  0  0  0  # atno 6908 bound_to 6896
  151.3873  133.3760  159.2751 H   0  0  0  0  0  0  0  0  0  0  0  0  # atno 6909 bound_to 6896
  145.0216  139.4126  143.5194 H   0  0  0  0  0  0  0  0  0  0  0  0  # atno 7974 bound_to 7965
  155.2466  140.3349  155.4286 H   0  0  0  0  0  0  0  0  0  0  0  0  # atno 8008 bound_to 7997
  156.2233  140.1818  156.7468 H   0  0  0  0  0  0  0  0  0  0  0  0  # atno 8009 bound_to 7997
  154.5859  140.0646  156.9156 H   0  0  0  0  0  0  0  0  0  0  0  0  # atno 8010 bound_to 7997
  140.7249  143.4999  150.9883 H   0  0  0  0  0  0  0  0  0  0  0  0  # atno 10167 bound_to 10162
  156.2006  130.4156  149.9246 H   0  0  0  0  0  0  0  0  0  0  0  0  # atno 10718 bound_to 10713
  154.7921  135.3210  154.7753 H   0  0  0  0  0  0  0  0  0  0  0  0  # atno 10763 bound_to 10752
  153.8440  135.6868  153.4804 H   0  0  0  0  0  0  0  0  0  0  0  0  # atno 10764 bound_to 10752
  153.1595  135.4666  154.9693 H   0  0  0  0  0  0  0  0  0  0  0  0  # atno 10765 bound_to 10752
  140.0904  134.9044  157.1642 H   0  0  0  0  0  0  0  0  0  0  0  0  # atno 11005 bound_to 11000
  146.3486  139.9717  142.8705 LP  0  0  0  0  0  0  0  0  0  0  0  0  # atno 17320 bound_to 7965
  145.1888  140.9802  143.4223 LP  0  0  0  0  0  0  0  0  0  0  0  0  # atno 17321 bound_to 7965
  139.8708  143.7195  152.3166 LP  0  0  0  0  0  0  0  0  0  0  0  0  # atno 17342 bound_to 10162
  139.7443  144.7551  151.0604 LP  0  0  0  0  0  0  0  0  0  0  0  0  # atno 17343 bound_to 10162
  156.6957  130.8913  151.3593 LP  0  0  0  0  0  0  0  0  0  0  0  0  # atno 17370 bound_to 10713
  157.6983  130.9306  150.0710 LP  0  0  0  0  0  0  0  0  0  0  0  0  # atno 17371 bound_to 10713
  140.3360  134.2757  155.7220 LP  0  0  0  0  0  0  0  0  0  0  0  0  # atno 17394 bound_to 11000
  141.2076  133.7801  157.0109 LP  0  0  0  0  0  0  0  0  0  0  0  0  # atno 17395 bound_to 11000

$$$$
