AV-unprocessed.smi:1695|AV-procd|sdf|6793|dock5
  -GOLD-   22720 7553D 1   1.00000     0.00000
 Structure written by MMmdl.
 52 54  0  0  0  0  0  0  0  0  3 V2000
  152.2818  144.7116  160.1978 C   0  0  0  0  0  0  0  0  0  0  0  0
  152.0078  143.5194  159.2966 C   0  0  0  0  0  0  0  0  0  0  0  0
  151.2066  143.7118  158.1488 C   0  0  0  0  0  0  0  0  0  0  0  0
  150.9732  142.6028  157.3445 C   0  0  0  0  0  0  0  0  0  0  0  0
  150.2383  142.4691  156.1650 N   0  3  0  0  0  0  0  0  0  0  0  0
  150.2989  141.1787  155.7352 C   0  0  0  0  0  0  0  0  0  0  0  0
  151.0657  140.4857  156.6209 N   0  0  0  0  0  0  0  0  0  0  0  0
  151.4368  139.0635  156.6194 C   0  0  0  0  0  0  0  0  0  0  0  0
  151.9565  138.5799  155.2508 C   0  0  2  0  0  0  0  0  0  0  0  0
  152.9529  139.4873  154.8261 O   0  0  0  0  0  0  0  0  0  0  0  0
  150.8632  138.4960  154.1634 C   0  0  0  0  0  0  0  0  0  0  0  0
  149.8705  137.4229  154.4288 N   0  3  1  0  0  0  0  0  0  0  0  0
  150.4747  136.1985  155.0183 C   0  0  0  0  0  0  0  0  0  0  0  0
  149.4322  135.0738  155.1687 C   0  0  0  0  0  0  0  0  0  0  0  0
  148.1809  135.5021  155.9642 C   0  0  1  0  0  0  0  0  0  0  0  0
  148.4318  135.5703  157.4824 C   0  0  0  0  0  0  0  0  0  0  0  0
  147.3942  135.9057  158.2534 N   0  0  0  0  0  0  0  0  0  0  0  0
  149.5383  135.3259  157.9585 O   0  0  0  0  0  0  0  0  0  0  0  0
  147.6392  136.8270  155.3879 C   0  0  0  0  0  0  0  0  0  0  0  0
  148.7221  137.9123  155.2339 C   0  0  0  0  0  0  0  0  0  0  0  0
  151.5048  141.3333  157.6464 C   0  0  0  0  0  0  0  0  0  0  0  0
  152.2960  141.1272  158.7748 C   0  0  0  0  0  0  0  0  0  0  0  0
  152.5447  142.2430  159.6058 C   0  0  0  0  0  0  0  0  0  0  0  0
  153.4043  142.0470  160.8432 C   0  0  0  0  0  0  0  0  0  0  0  0
  151.8480  145.6262  159.7929 H   0  0  0  0  0  0  0  0  0  0  0  0
  153.3544  144.8739  160.3071 H   0  0  0  0  0  0  0  0  0  0  0  0
  151.8532  144.5486  161.1871 H   0  0  0  0  0  0  0  0  0  0  0  0
  150.7934  144.6805  157.9076 H   0  0  0  0  0  0  0  0  0  0  0  0
  149.8228  140.7777  154.8516 H   0  0  0  0  0  0  0  0  0  0  0  0
  152.1633  138.8751  157.4100 H   0  0  0  0  0  0  0  0  0  0  0  0
  150.5406  138.5049  156.8930 H   0  0  0  0  0  0  0  0  0  0  0  0
  152.4296  137.6086  155.3902 H   0  0  0  0  0  0  0  0  0  0  0  0
  153.4808  139.0724  154.1606 H   0  0  0  0  0  0  0  0  0  0  0  0
  150.3314  139.4429  154.0668 H   0  0  0  0  0  0  0  0  0  0  0  0
  151.3492  138.3229  153.2018 H   0  0  0  0  0  0  0  0  0  0  0  0
  151.2822  135.8355  154.3843 H   0  0  0  0  0  0  0  0  0  0  0  0
  150.9288  136.4380  155.9800 H   0  0  0  0  0  0  0  0  0  0  0  0
  149.1217  134.7467  154.1755 H   0  0  0  0  0  0  0  0  0  0  0  0
  149.8963  134.2035  155.6346 H   0  0  0  0  0  0  0  0  0  0  0  0
  147.4159  134.7400  155.8050 H   0  0  0  0  0  0  0  0  0  0  0  0
  147.5046  135.9648  159.2554 H   0  0  0  0  0  0  0  0  0  0  0  0
  146.4980  136.1000  157.8300 H   0  0  0  0  0  0  0  0  0  0  0  0
  147.1966  136.6303  154.4104 H   0  0  0  0  0  0  0  0  0  0  0  0
  146.8269  137.2053  156.0098 H   0  0  0  0  0  0  0  0  0  0  0  0
  149.0740  138.2559  156.2068 H   0  0  0  0  0  0  0  0  0  0  0  0
  148.2783  138.7793  154.7433 H   0  0  0  0  0  0  0  0  0  0  0  0
  152.7094  140.1591  159.0136 H   0  0  0  0  0  0  0  0  0  0  0  0
  153.6987  141.0041  160.9645 H   0  0  0  0  0  0  0  0  0  0  0  0
  152.8603  142.3442  161.7401 H   0  0  0  0  0  0  0  0  0  0  0  0
  154.3138  142.6443  160.7752 H   0  0  0  0  0  0  0  0  0  0  0  0
  149.4908  137.1615  153.5298 H   0  0  0  0  0  0  0  0  0  0  0  0
  149.7284  143.2022  155.6884 H   0  0  0  0  0  0  0  0  0  0  0  0
  1  2  1  0  0  0  0
  1 25  1  0  0  0  0
  1 26  1  0  0  0  0
  1 27  1  0  0  0  0
  2 23  1  0  0  0  0
  2  3  2  0  0  0  0
  3  4  1  0  0  0  0
  3 28  1  0  0  0  0
  4 21  2  0  0  0  0
  4  5  1  0  0  0  0
  5  6  2  0  0  0  0
  5 52  1  0  0  0  0
  6  7  1  0  0  0  0
  6 29  1  0  0  0  0
  7  8  1  0  0  0  0
  7 21  1  0  0  0  0
  8  9  1  0  0  0  0
  8 30  1  0  0  0  0
  8 31  1  0  0  0  0
  9 10  1  0  0  0  0
  9 11  1  0  0  0  0
  9 32  1  0  0  0  0
 10 33  1  0  0  0  0
 11 12  1  0  0  0  0
 11 34  1  0  0  0  0
 11 35  1  0  0  0  0
 12 20  1  0  0  0  0
 12 13  1  0  0  0  0
 12 51  1  0  0  0  0
 13 14  1  0  0  0  0
 13 36  1  0  0  0  0
 13 37  1  0  0  0  0
 14 15  1  0  0  0  0
 14 38  1  0  0  0  0
 14 39  1  0  0  0  0
 15 16  1  0  0  0  0
 15 19  1  0  0  0  0
 15 40  1  0  0  0  0
 16 17  1  0  0  0  0
 16 18  2  0  0  0  0
 17 41  1  0  0  0  0
 17 42  1  0  0  0  0
 19 20  1  0  0  0  0
 19 43  1  0  0  0  0
 19 44  1  0  0  0  0
 20 45  1  0  0  0  0
 20 46  1  0  0  0  0
 21 22  1  0  0  0  0
 22 23  2  0  0  0  0
 22 47  1  0  0  0  0
 23 24  1  0  0  0  0
 24 48  1  0  0  0  0
 24 49  1  0  0  0  0
 24 50  1  0  0  0  0
M  CHG  1   5   1
M  CHG  1  12   1
M  END
> <s_m_source_file>
AV-unprocessed.smi

> <i_m_source_file_index>
1695

> <i_lp_mmshare_version>
43012

> <i_f3d_flags>
0

> <s_epik_input>
W0NIM11jKFtjSF0xKWMoW0NIM10pW2NIXWMoYzEyKW4oW2NIXW4yKVtDSDJdW0NASF0oW09IXSlbQ0gyXU4zW0NIMl1bQ0gyXVtDSF0oQyg9TylbTkgyXSlbQ0gyXVtDSDJdMw==

> <s_epik_cmdline>
J2VwaWtfcHl0aG9uJywgJy1waCcsICc3LjAnLCAnLXRuJywgJzgnLCAnLW1hJywgJzIwMCcsICctbWV0YWxfYmluZGluZycsICctaW1hZScsICc8aW5maWxlLm1hZT4nLCAnLW9tYWUnLCAnPG91dGZpbGUubWFlPic=

> <r_epik_Ionization_Penalty>
1.20173

> <r_epik_Ionization_Penalty_Charging>
1.20172

> <r_epik_Ionization_Penalty_Neutral>
1.7852e-06

> <r_epik_State_Penalty>
1.28089

> <r_epik_Charging_Adjusted_Penalty>
2.48261

> <i_epik_Tot_Q>
2

> <i_epik_Tot_abs_Q>
2

> <r_epik_Metal_State_Penalty>
1.35652

> <b_epik_Metal_Only>
0

> <s_lp_Force_Field>
OPLS_2005

> <r_lp_Energy>
28.6872

> <b_lp_Chiralities_Consistent>
1

> <s_lp_Variant>
AV-unprocessed.smi:1695-5

> <Gold.Version>
5.8.1

> <Gold.Id.Protein>
6NUR|6NUR_protein|mol2

> <Gold.PLP.Fitness>
64.9620

> <Gold.PLP.PLP>
-47.5313

> <Gold.PLP.part.hbond>
-5.0000

> <Gold.PLP.part.metal>
0.0000

> <Gold.PLP.part.buried>
-7.2167

> <Gold.PLP.part.nonpolar>
-36.1099

> <Gold.PLP.part.repulsive>
0.1823

> <Gold.PLP.ligand.clash>
0.0000

> <Gold.PLP.ligand.torsion>
0.5345

> <Gold.PLP.Chemscore.Hbond>
6.1429

> <Gold.PLP.Chemscore.CHOScore>
0.0000

> <Gold.PLP.Chemscore.Metal>
0.0000

> <Gold.Chemscore.Hbonds>
donor molecule, donor type, donor heavy atom, donor atom, acceptor molecule, acceptor atom, score
      L1  H     5    52       P1  8028  2.00
      L1  H    12    51       P1  7948  2.00
      P1  H  6896  6907       L1    18  0.88
      P1  H  7989  7998       L1    10  0.16
      P1  H  7997  8009       L1    10  0.95

> <Gold.PLP.Chemscore.Internal.Correction>
0.0711

> <Gold.Rescore>
     Score         DG    S(hbond)    S(metal)    S(lipo)     H(rot)  DE(clash)    DE(int)     intcor
     23.28     -23.78       3.70        0.00     114.42       2.91       0.02       0.48       ----

> <Gold.Chemscore.Fitness>
23.2770

> <Gold.Chemscore.DG>
-23.7806

> <Gold.Chemscore.ZeroCoef>
-5.4800

> <Gold.Chemscore.Hbond>
3.7036

> <Gold.Chemscore.Metal>
0.0000

> <Gold.Chemscore.Lipo>
114.4201

> <Gold.Chemscore.Internal_Hbond>
0.0000

> <Gold.Chemscore.DEClash>
0.0234

> <Gold.Chemscore.DEInternal>
0.4802

> <Gold.Chemscore.Rot>
2.9127

> <Gold.Chemscore.Internal.Correction>
   9.000000E+99

> <Gold.Chemscore.Hbonds>
donor molecule, donor type, donor heavy atom, donor atom, acceptor molecule, acceptor atom, score
      L1  H     5    52       P1  8028  0.97
      L1  H    12    51       P1  7948  0.89
      P1  H  6896  6907       L1    18  0.84
      P1  H  7989  7998       L1    10  0.01
      P1  H  7997  8009       L1    10  0.21

> <Gold.Chemscore.Hbond.Weighted>
-12.3700

> <Gold.Chemscore.Metal.Weighted>
-0.0000

> <Gold.Chemscore.Lipo.Weighted>
-13.3871

> <Gold.Chemscore.Internal_Hbond.Weighted>
0.0000

> <Gold.Chemscore.DEClash.Weighted>
0.0234

> <Gold.Chemscore.DEInternal.Weighted>
0.4802

> <Gold.Chemscore.Rot.Weighted>
7.4565

> <Gold.Chemscore.Internal.Correction.Weighted>
   9.000000E+99

> <Gold.Protein.RotatedTorsions>
[ 6907 6896 6895 6894 ] final  -82.11 input  -60.11 | X-H torsion
[ 7974 7965 7964 7962 ] final -146.97 input  175.53 | X-H torsion
[ 8008 7997 7996 7995 ] final -142.02 input   59.86 | X-H torsion
[ 10167 10162 10161 10158 ] final  176.04 input  -65.29 | X-H torsion
[ 10718 10713 10712 10709 ] final  142.57 input   66.30 | X-H torsion
[ 10763 10752 10751 10750 ] final -170.47 input  -60.55 | X-H torsion
[ 11005 11000 10999 10996 ] final   10.71 input  -57.11 | X-H torsion

> <Gold.Protein.ActiveResidues>
 VAL166  LYS551  ARG553  GLY616  TRP617  ASP618  TYR619  PRO620  LYS621  CYS622 
 ASP623  PHE694  ASN695  SER759  ASP760  ASP761  ALA762  ILE779  LEU786  VAL792 
 PHE793  MET794  SER795  GLU796  ALA797  LYS798  CYS799  TRP800  GLU811  SER814 

> <Gold.Protein.RotatedAtoms>
  150.6902  134.3714  159.4993 H   0  0  0  0  0  0  0  0  0  0  0  0  # atno 6907 bound_to 6896
  152.1529  134.8971  160.0556 H   0  0  0  0  0  0  0  0  0  0  0  0  # atno 6908 bound_to 6896
  152.0061  133.3809  159.4238 H   0  0  0  0  0  0  0  0  0  0  0  0  # atno 6909 bound_to 6896
  144.8124  140.5387  143.5633 H   0  0  0  0  0  0  0  0  0  0  0  0  # atno 7974 bound_to 7965
  155.4874  140.0565  157.2958 H   0  0  0  0  0  0  0  0  0  0  0  0  # atno 8008 bound_to 7997
  154.4637  140.2008  156.0128 H   0  0  0  0  0  0  0  0  0  0  0  0  # atno 8009 bound_to 7997
  156.0935  140.3230  155.7852 H   0  0  0  0  0  0  0  0  0  0  0  0  # atno 8010 bound_to 7997
  139.5199  144.2962  152.0420 H   0  0  0  0  0  0  0  0  0  0  0  0  # atno 10167 bound_to 10162
  157.3791  131.0989  151.0756 H   0  0  0  0  0  0  0  0  0  0  0  0  # atno 10718 bound_to 10713
  154.6411  135.2899  155.0102 H   0  0  0  0  0  0  0  0  0  0  0  0  # atno 10763 bound_to 10752
  154.1228  135.6545  153.4910 H   0  0  0  0  0  0  0  0  0  0  0  0  # atno 10764 bound_to 10752
  153.0327  135.5291  154.7279 H   0  0  0  0  0  0  0  0  0  0  0  0  # atno 10765 bound_to 10752
  140.5115  134.0648  155.7819 H   0  0  0  0  0  0  0  0  0  0  0  0  # atno 11005 bound_to 11000
  145.5293  139.1475  143.3508 LP  0  0  0  0  0  0  0  0  0  0  0  0  # atno 17320 bound_to 7965
  146.2424  140.5434  142.8928 LP  0  0  0  0  0  0  0  0  0  0  0  0  # atno 17321 bound_to 7965
  140.2411  144.4268  150.6260 LP  0  0  0  0  0  0  0  0  0  0  0  0  # atno 17342 bound_to 10162
  140.6290  143.2185  151.6536 LP  0  0  0  0  0  0  0  0  0  0  0  0  # atno 17343 bound_to 10162
  157.1832  130.6318  149.5679 LP  0  0  0  0  0  0  0  0  0  0  0  0  # atno 17370 bound_to 10713
  155.9772  130.4747  150.6576 LP  0  0  0  0  0  0  0  0  0  0  0  0  # atno 17371 bound_to 10713
  141.1383  133.9183  157.2384 LP  0  0  0  0  0  0  0  0  0  0  0  0  # atno 17394 bound_to 11000
  139.9656  135.0142  156.9379 LP  0  0  0  0  0  0  0  0  0  0  0  0  # atno 17395 bound_to 11000

$$$$
