AV-unprocessed.smi:2210|AV-procd|sdf|8949|dock1
  -GOLD-   2272012163D 1   1.00000     0.00000
 Structure written by MMmdl.
 37 38  0  0  0  0  0  0  0  0  1 V2000
  143.1028  135.9520  153.2761 O   0  0  0  0  0  0  0  0  0  0  0  0
  143.1934  137.1594  153.0552 C   0  0  0  0  0  0  0  0  0  0  0  0
  144.3231  137.7522  152.6430 N   0  0  0  0  0  0  0  0  0  0  0  0
  145.5869  137.0672  152.3968 C   0  0  0  0  0  0  0  0  0  0  0  0
  145.5858  136.3496  151.0354 C   0  0  0  0  0  0  0  0  0  0  0  0
  145.4534  134.8413  151.1654 C   0  0  0  0  0  0  0  0  0  0  0  0
  146.3256  134.1088  151.8854 C   0  0  0  0  0  0  0  0  0  0  0  0
  146.2505  132.5998  152.0383 C   0  0  0  0  0  0  0  0  0  0  0  0
  145.2965  131.9544  151.0193 C   0  0  0  0  0  0  0  0  0  0  0  0
  143.9982  132.7601  150.8899 C   0  0  0  0  0  0  0  0  0  0  0  0
  144.2774  134.2034  150.4340 C   0  0  0  0  0  0  0  0  0  0  0  0
  142.2023  138.0547  153.2063 N   0  0  0  0  0  0  0  0  0  0  0  0
  140.8617  137.8286  153.6205 C   0  0  0  0  0  0  0  0  0  0  0  0
  139.7991  138.7419  153.4150 C   0  0  0  0  0  0  0  0  0  0  0  0
  138.5151  138.4078  153.8873 C   0  0  0  0  0  0  0  0  0  0  0  0
  138.3421  137.1793  154.5542 C   0  0  0  0  0  0  0  0  0  0  0  0
  139.3485  136.3065  154.7704 N   0  0  0  0  0  0  0  0  0  0  0  0
  140.5765  136.6334  154.3145 C   0  0  0  0  0  0  0  0  0  0  0  0
  144.3099  138.7504  152.4926 H   0  0  0  0  0  0  0  0  0  0  0  0
  146.3791  137.8150  152.4303 H   0  0  0  0  0  0  0  0  0  0  0  0
  145.7924  136.3597  153.2020 H   0  0  0  0  0  0  0  0  0  0  0  0
  144.7663  136.7276  150.4224 H   0  0  0  0  0  0  0  0  0  0  0  0
  146.5035  136.5736  150.4907 H   0  0  0  0  0  0  0  0  0  0  0  0
  147.1368  134.5970  152.4058 H   0  0  0  0  0  0  0  0  0  0  0  0
  147.2497  132.1772  151.9304 H   0  0  0  0  0  0  0  0  0  0  0  0
  145.9211  132.3809  153.0544 H   0  0  0  0  0  0  0  0  0  0  0  0
  145.7842  131.9042  150.0448 H   0  0  0  0  0  0  0  0  0  0  0  0
  145.0797  130.9259  151.3097 H   0  0  0  0  0  0  0  0  0  0  0  0
  143.3179  132.2743  150.1897 H   0  0  0  0  0  0  0  0  0  0  0  0
  143.4888  132.7750  151.8543 H   0  0  0  0  0  0  0  0  0  0  0  0
  143.3831  134.8096  150.5814 H   0  0  0  0  0  0  0  0  0  0  0  0
  144.4941  134.2139  149.3654 H   0  0  0  0  0  0  0  0  0  0  0  0
  142.4530  139.0223  153.0641 H   0  0  0  0  0  0  0  0  0  0  0  0
  139.9430  139.6902  152.9215 H   0  0  0  0  0  0  0  0  0  0  0  0
  137.6826  139.0809  153.7455 H   0  0  0  0  0  0  0  0  0  0  0  0
  137.3707  136.8934  154.9298 H   0  0  0  0  0  0  0  0  0  0  0  0
  141.3572  135.9119  154.5071 H   0  0  0  0  0  0  0  0  0  0  0  0
  1  2  2  0  0  0  0
  2  3  1  0  0  0  0
  2 12  1  0  0  0  0
  3  4  1  0  0  0  0
  3 19  1  0  0  0  0
  4  5  1  0  0  0  0
  4 20  1  0  0  0  0
  4 21  1  0  0  0  0
  5  6  1  0  0  0  0
  5 22  1  0  0  0  0
  5 23  1  0  0  0  0
  6 11  1  0  0  0  0
  6  7  2  0  0  0  0
  7  8  1  0  0  0  0
  7 24  1  0  0  0  0
  8  9  1  0  0  0  0
  8 25  1  0  0  0  0
  8 26  1  0  0  0  0
  9 10  1  0  0  0  0
  9 27  1  0  0  0  0
  9 28  1  0  0  0  0
 10 11  1  0  0  0  0
 10 29  1  0  0  0  0
 10 30  1  0  0  0  0
 11 31  1  0  0  0  0
 11 32  1  0  0  0  0
 12 13  1  0  0  0  0
 12 33  1  0  0  0  0
 13 18  1  0  0  0  0
 13 14  2  0  0  0  0
 14 15  1  0  0  0  0
 14 34  1  0  0  0  0
 15 16  2  0  0  0  0
 15 35  1  0  0  0  0
 16 17  1  0  0  0  0
 16 36  1  0  0  0  0
 17 18  2  0  0  0  0
 18 37  1  0  0  0  0
M  END
> <s_m_source_file>
AV-unprocessed.smi

> <i_m_source_file_index>
2210

> <i_lp_mmshare_version>
43012

> <i_f3d_flags>
0

> <s_epik_input>
W2NIXTFuW2NIXVtjSF1bY0hdYzFbTkhdQyg9TylbTkhdW0NIMl1bQ0gyXUMyPVtDSF1bQ0gyXVtDSDJdW0NIMl1bQ0gyXTI=

> <s_epik_cmdline>
J2VwaWtfcHl0aG9uJywgJy1waCcsICc3LjAnLCAnLXRuJywgJzgnLCAnLW1hJywgJzIwMCcsICctbWV0YWxfYmluZGluZycsICctaW1hZScsICc8aW5maWxlLm1hZT4nLCAnLW9tYWUnLCAnPG91dGZpbGUubWFlPic=

> <r_epik_Ionization_Penalty>
0.00482236

> <r_epik_Ionization_Penalty_Charging>
0

> <r_epik_Ionization_Penalty_Neutral>
0.00482236

> <r_epik_State_Penalty>
0.0034674

> <r_epik_Charging_Adjusted_Penalty>
0.0034674

> <i_epik_Tot_Q>
0

> <i_epik_Tot_abs_Q>
0

> <r_epik_Metal_State_Penalty>
-0

> <b_epik_Metal_Only>
0

> <s_lp_Force_Field>
OPLS_2005

> <r_lp_Energy>
10.3884

> <b_lp_Chiralities_Consistent>
1

> <s_lp_Variant>
AV-unprocessed.smi:2210-1

> <Gold.Version>
5.8.1

> <Gold.Id.Protein>
6NUR|6NUR_protein|mol2

> <Gold.PLP.Fitness>
45.6706

> <Gold.PLP.PLP>
-37.7665

> <Gold.PLP.part.hbond>
-4.0000

> <Gold.PLP.part.metal>
0.0000

> <Gold.PLP.part.buried>
-3.4578

> <Gold.PLP.part.nonpolar>
-31.2607

> <Gold.PLP.part.repulsive>
0.2867

> <Gold.PLP.ligand.clash>
0.0000

> <Gold.PLP.ligand.torsion>
0.5417

> <Gold.PLP.Chemscore.Hbond>
2.9913

> <Gold.PLP.Chemscore.CHOScore>
0.0000

> <Gold.PLP.Chemscore.Metal>
0.0000

> <Gold.Chemscore.Hbonds>
donor molecule, donor type, donor heavy atom, donor atom, acceptor molecule, acceptor atom, score
      L1  H     3    19       P1 10175  1.00
      L1  H    12    33       P1 10175  1.00
      P1  H 11000 11005       L1    17  0.80

> <Gold.PLP.Chemscore.Internal.Correction>
0.0137

> <Gold.Rescore>
     Score         DG    S(hbond)    S(metal)    S(lipo)     H(rot)  DE(clash)    DE(int)     intcor
     19.23     -21.28       2.81        0.00      84.75       1.37       0.15       1.90       ----

> <Gold.Chemscore.Fitness>
19.2295

> <Gold.Chemscore.DG>
-21.2752

> <Gold.Chemscore.ZeroCoef>
-5.4800

> <Gold.Chemscore.Hbond>
2.8141

> <Gold.Chemscore.Metal>
0.0000

> <Gold.Chemscore.Lipo>
84.7458

> <Gold.Chemscore.Internal_Hbond>
0.0000

> <Gold.Chemscore.DEClash>
0.1465

> <Gold.Chemscore.DEInternal>
1.8992

> <Gold.Chemscore.Rot>
1.3747

> <Gold.Chemscore.Internal.Correction>
   9.000000E+99

> <Gold.Chemscore.Hbonds>
donor molecule, donor type, donor heavy atom, donor atom, acceptor molecule, acceptor atom, score
      L1  H     3    19       P1 10175  0.99
      L1  H    12    33       P1 10175  0.98
      P1  H 11000 11005       L1    17  0.15

> <Gold.Chemscore.Hbond.Weighted>
-9.3992

> <Gold.Chemscore.Metal.Weighted>
-0.0000

> <Gold.Chemscore.Lipo.Weighted>
-9.9153

> <Gold.Chemscore.Internal_Hbond.Weighted>
0.0000

> <Gold.Chemscore.DEClash.Weighted>
0.1465

> <Gold.Chemscore.DEInternal.Weighted>
1.8992

> <Gold.Chemscore.Rot.Weighted>
3.5192

> <Gold.Chemscore.Internal.Correction.Weighted>
   9.000000E+99

> <Gold.Protein.RotatedTorsions>
[ 6907 6896 6895 6894 ] final -140.49 input  -60.11 | X-H torsion
[ 7974 7965 7964 7962 ] final  -55.70 input  175.53 | X-H torsion
[ 8008 7997 7996 7995 ] final  101.79 input   59.86 | X-H torsion
[ 10167 10162 10161 10158 ] final -104.74 input  -65.29 | X-H torsion
[ 10718 10713 10712 10709 ] final  158.88 input   66.30 | X-H torsion
[ 10763 10752 10751 10750 ] final    4.46 input  -60.55 | X-H torsion
[ 11005 11000 10999 10996 ] final   72.74 input  -57.11 | X-H torsion

> <Gold.Protein.ActiveResidues>
 VAL166  LYS551  ARG553  GLY616  TRP617  ASP618  TYR619  PRO620  LYS621  CYS622 
 ASP623  PHE694  ASN695  SER759  ASP760  ASP761  ALA762  ILE779  LEU786  VAL792 
 PHE793  MET794  SER795  GLU796  ALA797  LYS798  CYS799  TRP800  GLU811  SER814 

> <Gold.Protein.RotatedAtoms>
  151.0614  133.5541  159.2633 H   0  0  0  0  0  0  0  0  0  0  0  0  # atno 6907 bound_to 6896
  151.2515  135.0623  159.9073 H   0  0  0  0  0  0  0  0  0  0  0  0  # atno 6908 bound_to 6896
  152.5398  134.0374  159.8106 H   0  0  0  0  0  0  0  0  0  0  0  0  # atno 6909 bound_to 6896
  145.8711  140.8215  142.9887 H   0  0  0  0  0  0  0  0  0  0  0  0  # atno 7974 bound_to 7965
  156.1333  140.3192  155.8382 H   0  0  0  0  0  0  0  0  0  0  0  0  # atno 8008 bound_to 7997
  155.4292  140.0517  157.3037 H   0  0  0  0  0  0  0  0  0  0  0  0  # atno 8009 bound_to 7997
  154.4916  140.2094  155.9548 H   0  0  0  0  0  0  0  0  0  0  0  0  # atno 8010 bound_to 7997
  140.2060  143.3782  152.1090 H   0  0  0  0  0  0  0  0  0  0  0  0  # atno 10167 bound_to 10162
  157.1718  131.0612  151.2179 H   0  0  0  0  0  0  0  0  0  0  0  0  # atno 10718 bound_to 10713
  153.2710  135.6932  153.7481 H   0  0  0  0  0  0  0  0  0  0  0  0  # atno 10763 bound_to 10752
  153.6504  135.3377  155.3099 H   0  0  0  0  0  0  0  0  0  0  0  0  # atno 10764 bound_to 10752
  154.8464  135.4453  154.1732 H   0  0  0  0  0  0  0  0  0  0  0  0  # atno 10765 bound_to 10752
  139.9475  134.7286  156.0942 H   0  0  0  0  0  0  0  0  0  0  0  0  # atno 11005 bound_to 11000
  144.6726  140.1241  143.7448 LP  0  0  0  0  0  0  0  0  0  0  0  0  # atno 17320 bound_to 7965
  145.9135  139.2501  143.1423 LP  0  0  0  0  0  0  0  0  0  0  0  0  # atno 17321 bound_to 7965
  139.5198  144.7024  151.5453 LP  0  0  0  0  0  0  0  0  0  0  0  0  # atno 17342 bound_to 10162
  140.6357  143.8989  150.6645 LP  0  0  0  0  0  0  0  0  0  0  0  0  # atno 17343 bound_to 10162
  157.4036  130.7347  149.6786 LP  0  0  0  0  0  0  0  0  0  0  0  0  # atno 17370 bound_to 10713
  155.9737  130.4114  150.3979 LP  0  0  0  0  0  0  0  0  0  0  0  0  # atno 17371 bound_to 10713
  141.1130  133.6637  156.3024 LP  0  0  0  0  0  0  0  0  0  0  0  0  # atno 17394 bound_to 11000
  140.5798  134.5757  157.5477 LP  0  0  0  0  0  0  0  0  0  0  0  0  # atno 17395 bound_to 11000

$$$$
