AV-unprocessed.smi:3338|AV-procd|sdf|12872|dock2
  -GOLD-   2272019273D 1   1.00000     0.00000
 Structure written by MMmdl.
 44 45  0  0  0  0  0  0  0  0  2 V2000
  151.6593  145.6716  160.1414 C   0  0  0  0  0  0  0  0  0  0  0  0
  152.2254  144.2826  159.8149 C   0  0  1  0  0  0  0  0  0  0  0  0
  152.4238  143.4424  161.0874 C   0  0  0  0  0  0  0  0  0  0  0  0
  152.9710  142.0558  160.7270 C   0  0  0  0  0  0  0  0  0  0  0  0
  152.0648  141.3567  159.7012 C   0  0  0  0  0  0  0  0  0  0  0  0
  151.8931  142.1894  158.4824 N   0  3  1  0  0  0  0  0  0  0  0  0
  151.1358  141.4782  157.4217 C   0  0  0  0  0  0  0  0  0  0  0  0
  150.9501  142.3344  156.1539 C   0  0  0  0  0  0  0  0  0  0  0  0
  149.6958  142.0246  155.4787 N   0  0  0  0  0  0  0  0  0  0  0  0
  149.4975  140.9699  154.6710 C   0  0  0  0  0  0  0  0  0  0  0  0
  150.3720  140.1333  154.4414 O   0  0  0  0  0  0  0  0  0  0  0  0
  148.0987  140.8432  154.0417 C   0  0  2  0  0  0  0  0  0  0  0  0
  147.1506  141.9922  154.4418 C   0  0  0  0  0  0  0  0  0  0  0  0
  147.5159  139.5378  154.3332 N   0  0  0  0  0  0  0  0  0  0  0  0
  146.3294  139.0125  153.8628 C   0  0  0  0  0  0  0  0  0  0  0  0
  146.2031  137.7552  154.3801 C   0  0  0  0  0  0  0  0  0  0  0  0
  147.3800  137.5915  155.1620 C   0  0  0  0  0  0  0  0  0  0  0  0
  148.1652  138.6556  155.1284 N   0  0  0  0  0  0  0  0  0  0  0  0
  151.3308  143.5274  158.8113 C   0  0  0  0  0  0  0  0  0  0  0  0
  150.6788  145.6005  160.6133 H   0  0  0  0  0  0  0  0  0  0  0  0
  151.5519  146.2747  159.2394 H   0  0  0  0  0  0  0  0  0  0  0  0
  152.3177  146.2129  160.8216 H   0  0  0  0  0  0  0  0  0  0  0  0
  153.2021  144.4289  159.3511 H   0  0  0  0  0  0  0  0  0  0  0  0
  153.1080  143.9450  161.7721 H   0  0  0  0  0  0  0  0  0  0  0  0
  151.4752  143.3359  161.6159 H   0  0  0  0  0  0  0  0  0  0  0  0
  153.9788  142.1528  160.3208 H   0  0  0  0  0  0  0  0  0  0  0  0
  153.0573  141.4446  161.6258 H   0  0  0  0  0  0  0  0  0  0  0  0
  152.5064  140.3956  159.4346 H   0  0  0  0  0  0  0  0  0  0  0  0
  151.0887  141.1464  160.1412 H   0  0  0  0  0  0  0  0  0  0  0  0
  151.6804  140.5737  157.1469 H   0  0  0  0  0  0  0  0  0  0  0  0
  150.1717  141.1488  157.8125 H   0  0  0  0  0  0  0  0  0  0  0  0
  150.9284  143.3955  156.3990 H   0  0  0  0  0  0  0  0  0  0  0  0
  151.7873  142.1914  155.4684 H   0  0  0  0  0  0  0  0  0  0  0  0
  148.9293  142.6682  155.6153 H   0  0  0  0  0  0  0  0  0  0  0  0
  148.2347  140.9002  152.9606 H   0  0  0  0  0  0  0  0  0  0  0  0
  147.5669  142.9620  154.1668 H   0  0  0  0  0  0  0  0  0  0  0  0
  146.9575  142.0077  155.5152 H   0  0  0  0  0  0  0  0  0  0  0  0
  146.1897  141.8963  153.9356 H   0  0  0  0  0  0  0  0  0  0  0  0
  145.6793  139.5711  153.2055 H   0  0  0  0  0  0  0  0  0  0  0  0
  145.3940  137.0575  154.2227 H   0  0  0  0  0  0  0  0  0  0  0  0
  147.6870  136.7364  155.7461 H   0  0  0  0  0  0  0  0  0  0  0  0
  150.3241  143.4086  159.2160 H   0  0  0  0  0  0  0  0  0  0  0  0
  151.2363  144.1270  157.9069 H   0  0  0  0  0  0  0  0  0  0  0  0
  152.8218  142.3415  158.1157 H   0  0  0  0  0  0  0  0  0  0  0  0
  1  2  1  0  0  0  0
  1 20  1  0  0  0  0
  1 21  1  0  0  0  0
  1 22  1  0  0  0  0
  2 19  1  0  0  0  0
  2  3  1  0  0  0  0
  2 23  1  0  0  0  0
  3  4  1  0  0  0  0
  3 24  1  0  0  0  0
  3 25  1  0  0  0  0
  4  5  1  0  0  0  0
  4 26  1  0  0  0  0
  4 27  1  0  0  0  0
  5  6  1  0  0  0  0
  5 28  1  0  0  0  0
  5 29  1  0  0  0  0
  6  7  1  0  0  0  0
  6 19  1  0  0  0  0
  6 44  1  0  0  0  0
  7  8  1  0  0  0  0
  7 30  1  0  0  0  0
  7 31  1  0  0  0  0
  8  9  1  0  0  0  0
  8 32  1  0  0  0  0
  8 33  1  0  0  0  0
  9 10  1  0  0  0  0
  9 34  1  0  0  0  0
 10 11  2  0  0  0  0
 10 12  1  0  0  0  0
 12 13  1  0  0  0  0
 12 14  1  0  0  0  0
 12 35  1  0  0  0  0
 13 36  1  0  0  0  0
 13 37  1  0  0  0  0
 13 38  1  0  0  0  0
 14 18  1  0  0  0  0
 14 15  1  0  0  0  0
 15 16  2  0  0  0  0
 15 39  1  0  0  0  0
 16 17  1  0  0  0  0
 16 40  1  0  0  0  0
 17 18  2  0  0  0  0
 17 41  1  0  0  0  0
 19 42  1  0  0  0  0
 19 43  1  0  0  0  0
M  CHG  1   6   1
M  END
> <s_m_source_file>
AV-unprocessed.smi

> <i_m_source_file_index>
3338

> <i_lp_mmshare_version>
43012

> <i_f3d_flags>
0

> <s_epik_input>
W0NIM11bQ0BASF0xW0NIMl1bQ0gyXVtDSDJdTihbQ0gyXTEpW0NIMl1bQ0gyXVtOSF1DKD1PKVtDQEhdKFtDSDNdKW4yW2NIXVtjSF1bY0hdbjI=

> <s_epik_cmdline>
J2VwaWtfcHl0aG9uJywgJy1waCcsICc3LjAnLCAnLXRuJywgJzgnLCAnLW1hJywgJzIwMCcsICctbWV0YWxfYmluZGluZycsICctaW1hZScsICc8aW5maWxlLm1hZT4nLCAnLW9tYWUnLCAnPG91dGZpbGUubWFlPic=

> <r_lp_tautomer_probability>
1

> <r_epik_Ionization_Penalty>
0.00225707

> <r_epik_Ionization_Penalty_Charging>
0.00223709

> <r_epik_Ionization_Penalty_Neutral>
1.99775e-05

> <r_epik_State_Penalty>
0.00153978

> <r_epik_Charging_Adjusted_Penalty>
0.00377687

> <i_epik_Tot_Q>
1

> <i_epik_Tot_abs_Q>
1

> <r_epik_Metal_State_Penalty>
-0

> <b_epik_Metal_Only>
0

> <s_lp_Force_Field>
OPLS_2005

> <r_lp_Energy>
19.9397

> <b_lp_Chiralities_Consistent>
1

> <s_lp_Variant>
AV-unprocessed.smi:3338-4

> <Gold.Version>
5.8.1

> <Gold.Id.Protein>
6NUR|6NUR_protein|mol2

> <Gold.PLP.Fitness>
45.8324

> <Gold.PLP.PLP>
-38.5734

> <Gold.PLP.part.hbond>
-2.0000

> <Gold.PLP.part.metal>
0.0000

> <Gold.PLP.part.buried>
-5.9849

> <Gold.PLP.part.nonpolar>
-30.9401

> <Gold.PLP.part.repulsive>
0.4140

> <Gold.PLP.ligand.clash>
0.0563

> <Gold.PLP.ligand.torsion>
0.4170

> <Gold.PLP.Chemscore.Hbond>
1.6708

> <Gold.PLP.Chemscore.CHOScore>
1.0000

> <Gold.PLP.Chemscore.Metal>
0.0000

> <Gold.Chemscore.Hbonds>
donor molecule, donor type, donor heavy atom, donor atom, acceptor molecule, acceptor atom, score
      L1  H     9    34       P1  8028  0.60
      P1  H  7989  7998       L1    11  1.00
      L1  C    15    39       P1 10175  1.00

> <Gold.PLP.Chemscore.Internal.Correction>
0.1369

> <Gold.Rescore>
     Score         DG    S(hbond)    S(metal)    S(lipo)     H(rot)  DE(clash)    DE(int)     intcor
     15.81     -18.00       1.52        0.00     101.99       1.76       0.37       1.81       ----

> <Gold.Chemscore.Fitness>
15.8133

> <Gold.Chemscore.DG>
-17.9964

> <Gold.Chemscore.ZeroCoef>
-5.4800

> <Gold.Chemscore.Hbond>
1.5215

> <Gold.Chemscore.Metal>
0.0000

> <Gold.Chemscore.Lipo>
101.9870

> <Gold.Chemscore.Internal_Hbond>
0.0000

> <Gold.Chemscore.DEClash>
0.3696

> <Gold.Chemscore.DEInternal>
1.8135

> <Gold.Chemscore.Rot>
1.7570

> <Gold.Chemscore.Internal.Correction>
   9.000000E+99

> <Gold.Chemscore.Hbonds>
donor molecule, donor type, donor heavy atom, donor atom, acceptor molecule, acceptor atom, score
      L1  H     9    34       P1  8028  0.57
      P1  H  7989  7998       L1    11  0.69

> <Gold.Chemscore.Hbond.Weighted>
-5.0818

> <Gold.Chemscore.Metal.Weighted>
-0.0000

> <Gold.Chemscore.Lipo.Weighted>
-11.9325

> <Gold.Chemscore.Internal_Hbond.Weighted>
0.0000

> <Gold.Chemscore.DEClash.Weighted>
0.3696

> <Gold.Chemscore.DEInternal.Weighted>
1.8135

> <Gold.Chemscore.Rot.Weighted>
4.4979

> <Gold.Chemscore.Internal.Correction.Weighted>
   9.000000E+99

> <Gold.Protein.RotatedTorsions>
[ 6907 6896 6895 6894 ] final  -53.81 input  -60.11 | X-H torsion
[ 7974 7965 7964 7962 ] final  149.12 input  175.53 | X-H torsion
[ 8008 7997 7996 7995 ] final  110.94 input   59.86 | X-H torsion
[ 10167 10162 10161 10158 ] final  104.38 input  -65.29 | X-H torsion
[ 10718 10713 10712 10709 ] final  -32.77 input   66.30 | X-H torsion
[ 10763 10752 10751 10750 ] final  107.61 input  -60.55 | X-H torsion
[ 11005 11000 10999 10996 ] final  155.69 input  -57.11 | X-H torsion

> <Gold.Protein.ActiveResidues>
 VAL166  LYS551  ARG553  GLY616  TRP617  ASP618  TYR619  PRO620  LYS621  CYS622 
 ASP623  PHE694  ASN695  SER759  ASP760  ASP761  ALA762  ILE779  LEU786  VAL792 
 PHE793  MET794  SER795  GLU796  ALA797  LYS798  CYS799  TRP800  GLU811  SER814 

> <Gold.Protein.RotatedAtoms>
  150.8394  134.7680  159.6919 H   0  0  0  0  0  0  0  0  0  0  0  0  # atno 6907 bound_to 6896
  152.4484  134.5442  159.9858 H   0  0  0  0  0  0  0  0  0  0  0  0  # atno 6908 bound_to 6896
  151.5585  133.3369  159.3002 H   0  0  0  0  0  0  0  0  0  0  0  0  # atno 6909 bound_to 6896
  144.8462  139.6240  143.5994 H   0  0  0  0  0  0  0  0  0  0  0  0  # atno 7974 bound_to 7965
  156.2089  140.3029  155.9688 H   0  0  0  0  0  0  0  0  0  0  0  0  # atno 8008 bound_to 7997
  155.2773  140.0436  157.3029 H   0  0  0  0  0  0  0  0  0  0  0  0  # atno 8009 bound_to 7997
  154.5671  140.2337  155.8255 H   0  0  0  0  0  0  0  0  0  0  0  0  # atno 8010 bound_to 7997
  139.7182  144.7064  151.0916 H   0  0  0  0  0  0  0  0  0  0  0  0  # atno 10167 bound_to 10162
  156.3708  130.4339  149.7547 H   0  0  0  0  0  0  0  0  0  0  0  0  # atno 10718 bound_to 10713
  153.4091  135.3839  155.2038 H   0  0  0  0  0  0  0  0  0  0  0  0  # atno 10763 bound_to 10752
  154.8736  135.3790  154.4523 H   0  0  0  0  0  0  0  0  0  0  0  0  # atno 10764 bound_to 10752
  153.5029  135.7088  153.5884 H   0  0  0  0  0  0  0  0  0  0  0  0  # atno 10765 bound_to 10752
  140.1605  134.8613  157.2568 H   0  0  0  0  0  0  0  0  0  0  0  0  # atno 11005 bound_to 11000
  146.2746  139.6720  142.9272 LP  0  0  0  0  0  0  0  0  0  0  0  0  # atno 17320 bound_to 7965
  145.4592  141.0432  143.2761 LP  0  0  0  0  0  0  0  0  0  0  0  0  # atno 17321 bound_to 7965
  140.7748  143.5202  150.9546 LP  0  0  0  0  0  0  0  0  0  0  0  0  # atno 17342 bound_to 10162
  139.8888  143.6979  152.3148 LP  0  0  0  0  0  0  0  0  0  0  0  0  # atno 17343 bound_to 10162
  156.4675  130.7981  151.3000 LP  0  0  0  0  0  0  0  0  0  0  0  0  # atno 17370 bound_to 10713
  157.7483  131.0046  150.3082 LP  0  0  0  0  0  0  0  0  0  0  0  0  # atno 17371 bound_to 10713
  140.2496  134.3699  155.7447 LP  0  0  0  0  0  0  0  0  0  0  0  0  # atno 17394 bound_to 11000
  141.2209  133.7309  156.8914 LP  0  0  0  0  0  0  0  0  0  0  0  0  # atno 17395 bound_to 11000

$$$$
