AV-unprocessed.smi:3041|AV-procd|sdf|11598|dock3
  -GOLD-   2272016573D 1   1.00000     0.00000
 Structure written by MMmdl.
 38 39  0  0  0  0  0  0  0  0  1 V2000
  145.4944  130.2651  151.5421 C   0  0  0  0  0  0  0  0  0  0  0  0
  145.1286  131.5768  151.0528 N   0  0  0  0  0  0  0  0  0  0  0  0
  145.6778  132.7989  151.3751 C   0  0  0  0  0  0  0  0  0  0  0  0
  145.0066  133.7511  150.6607 C   0  0  0  0  0  0  0  0  0  0  0  0
  145.2257  135.2406  150.6364 C   0  0  0  0  0  0  0  0  0  0  0  0
  145.0501  135.8969  152.0183 C   0  0  0  0  0  0  0  0  0  0  0  0
  146.3291  136.1461  152.6792 N   0  0  0  0  0  0  0  0  0  0  0  0
  146.4851  136.5104  153.9603 C   0  0  0  0  0  0  0  0  0  0  0  0
  145.5548  136.6684  154.7509 O   0  0  0  0  0  0  0  0  0  0  0  0
  147.7768  136.6877  154.2696 N   0  0  0  0  0  0  0  0  0  0  0  0
  148.2878  137.0772  155.5797 C   0  0  0  0  0  0  0  0  0  0  0  0
  149.5691  137.9160  155.4421 C   0  0  1  0  0  0  0  0  0  0  0  0
  150.6993  137.2365  154.6933 C   0  0  0  0  0  0  0  0  0  0  0  0
  151.5777  138.4224  154.3060 C   0  0  0  0  0  0  0  0  0  0  0  0
  150.6932  139.5277  154.1440 O   0  0  0  0  0  0  0  0  0  0  0  0
  149.3921  139.1875  154.6134 C   0  0  0  0  0  0  0  0  0  0  0  0
  144.0484  132.9973  149.9246 C   0  0  0  0  0  0  0  0  0  0  0  0
  144.1230  131.6981  150.1624 N   0  0  0  0  0  0  0  0  0  0  0  0
  146.4395  130.3184  152.0833 H   0  0  0  0  0  0  0  0  0  0  0  0
  145.6051  129.5733  150.7063 H   0  0  0  0  0  0  0  0  0  0  0  0
  144.7200  129.8947  152.2143 H   0  0  0  0  0  0  0  0  0  0  0  0
  146.4967  132.8893  152.0732 H   0  0  0  0  0  0  0  0  0  0  0  0
  146.2262  135.4678  150.2671 H   0  0  0  0  0  0  0  0  0  0  0  0
  144.5421  135.7142  149.9307 H   0  0  0  0  0  0  0  0  0  0  0  0
  144.4746  136.8196  151.9254 H   0  0  0  0  0  0  0  0  0  0  0  0
  144.4639  135.2393  152.6604 H   0  0  0  0  0  0  0  0  0  0  0  0
  147.1582  136.0421  152.1128 H   0  0  0  0  0  0  0  0  0  0  0  0
  148.4620  136.5354  153.5441 H   0  0  0  0  0  0  0  0  0  0  0  0
  147.5136  137.6469  156.0949 H   0  0  0  0  0  0  0  0  0  0  0  0
  148.4957  136.2042  156.2006 H   0  0  0  0  0  0  0  0  0  0  0  0
  149.9259  138.1984  156.4343 H   0  0  0  0  0  0  0  0  0  0  0  0
  151.2296  136.4952  155.2919 H   0  0  0  0  0  0  0  0  0  0  0  0
  150.3204  136.7446  153.7960 H   0  0  0  0  0  0  0  0  0  0  0  0
  152.2790  138.6548  155.1084 H   0  0  0  0  0  0  0  0  0  0  0  0
  152.1518  138.2349  153.3985 H   0  0  0  0  0  0  0  0  0  0  0  0
  148.7538  139.0007  153.7487 H   0  0  0  0  0  0  0  0  0  0  0  0
  148.9509  140.0019  155.1885 H   0  0  0  0  0  0  0  0  0  0  0  0
  143.3081  133.3547  149.2243 H   0  0  0  0  0  0  0  0  0  0  0  0
  1  2  1  0  0  0  0
  1 19  1  0  0  0  0
  1 20  1  0  0  0  0
  1 21  1  0  0  0  0
  2 18  1  0  0  0  0
  2  3  1  0  0  0  0
  3  4  2  0  0  0  0
  3 22  1  0  0  0  0
  4  5  1  0  0  0  0
  4 17  1  0  0  0  0
  5  6  1  0  0  0  0
  5 23  1  0  0  0  0
  5 24  1  0  0  0  0
  6  7  1  0  0  0  0
  6 25  1  0  0  0  0
  6 26  1  0  0  0  0
  7  8  1  0  0  0  0
  7 27  1  0  0  0  0
  8  9  2  0  0  0  0
  8 10  1  0  0  0  0
 10 11  1  0  0  0  0
 10 28  1  0  0  0  0
 11 12  1  0  0  0  0
 11 29  1  0  0  0  0
 11 30  1  0  0  0  0
 12 16  1  0  0  0  0
 12 13  1  0  0  0  0
 12 31  1  0  0  0  0
 13 14  1  0  0  0  0
 13 32  1  0  0  0  0
 13 33  1  0  0  0  0
 14 15  1  0  0  0  0
 14 34  1  0  0  0  0
 14 35  1  0  0  0  0
 15 16  1  0  0  0  0
 16 36  1  0  0  0  0
 16 37  1  0  0  0  0
 17 18  2  0  0  0  0
 17 38  1  0  0  0  0
M  END
> <s_m_source_file>
AV-unprocessed.smi

> <i_m_source_file_index>
3041

> <i_lp_mmshare_version>
43012

> <i_f3d_flags>
0

> <s_epik_input>
W0NIM11uMVtjSF1jKFtjSF1uMSlbQ0gyXVtDSDJdW05IXUMoPU8pW05IXVtDSDJdW0NAQEhdMltDSDJdW0NIMl1PW0NIMl0y

> <s_epik_cmdline>
J2VwaWtfcHl0aG9uJywgJy1waCcsICc3LjAnLCAnLXRuJywgJzgnLCAnLW1hJywgJzIwMCcsICctbWV0YWxfYmluZGluZycsICctaW1hZScsICc8aW5maWxlLm1hZT4nLCAnLW9tYWUnLCAnPG91dGZpbGUubWFlPic=

> <r_lp_tautomer_probability>
1

> <r_epik_Ionization_Penalty>
0.000557811

> <r_epik_Ionization_Penalty_Charging>
0

> <r_epik_Ionization_Penalty_Neutral>
0.000557811

> <r_epik_State_Penalty>
-0

> <r_epik_Charging_Adjusted_Penalty>
0

> <i_epik_Tot_Q>
0

> <i_epik_Tot_abs_Q>
0

> <r_epik_Metal_State_Penalty>
-0

> <b_epik_Metal_Only>
0

> <s_lp_Force_Field>
OPLS_2005

> <r_lp_Energy>
14.3495

> <b_lp_Chiralities_Consistent>
1

> <s_lp_Variant>
AV-unprocessed.smi:3041-2

> <Gold.Version>
5.8.1

> <Gold.Id.Protein>
6NUR|6NUR_protein|mol2

> <Gold.PLP.Fitness>
42.9137

> <Gold.PLP.PLP>
-31.0532

> <Gold.PLP.part.hbond>
-3.8967

> <Gold.PLP.part.metal>
0.0000

> <Gold.PLP.part.buried>
-5.2102

> <Gold.PLP.part.nonpolar>
-22.4543

> <Gold.PLP.part.repulsive>
0.3524

> <Gold.PLP.ligand.clash>
0.0000

> <Gold.PLP.ligand.torsion>
0.5217

> <Gold.PLP.Chemscore.Hbond>
3.2974

> <Gold.PLP.Chemscore.CHOScore>
1.0000

> <Gold.PLP.Chemscore.Metal>
0.0000

> <Gold.Chemscore.Hbonds>
donor molecule, donor type, donor heavy atom, donor atom, acceptor molecule, acceptor atom, score
      L1  H     7    27       P1  7948  1.00
      L1  H    10    28       P1  7948  1.00
      P1  H  7989  7998       L1    15  1.00
      P1  H 10785 10796       L1    18  0.23
      L1  C    17    38       P1 10186  0.94

> <Gold.PLP.Chemscore.Internal.Correction>
0.0116

> <Gold.Rescore>
     Score         DG    S(hbond)    S(metal)    S(lipo)     H(rot)  DE(clash)    DE(int)     intcor
     19.39     -20.06       3.32        0.00      70.23       1.85       0.13       0.54       ----

> <Gold.Chemscore.Fitness>
19.3869

> <Gold.Chemscore.DG>
-20.0580

> <Gold.Chemscore.ZeroCoef>
-5.4800

> <Gold.Chemscore.Hbond>
3.3247

> <Gold.Chemscore.Metal>
0.0000

> <Gold.Chemscore.Lipo>
70.2301

> <Gold.Chemscore.Internal_Hbond>
0.0000

> <Gold.Chemscore.DEClash>
0.1346

> <Gold.Chemscore.DEInternal>
0.5366

> <Gold.Chemscore.Rot>
1.8528

> <Gold.Chemscore.Internal.Correction>
   9.000000E+99

> <Gold.Chemscore.Hbonds>
donor molecule, donor type, donor heavy atom, donor atom, acceptor molecule, acceptor atom, score
      L1  H     7    27       P1  7948  0.97
      L1  H    10    28       P1  7948  0.98
      P1  H  7989  7998       L1    15  0.60
      P1  H 10785 10796       L1    18  0.24

> <Gold.Chemscore.Hbond.Weighted>
-11.1043

> <Gold.Chemscore.Metal.Weighted>
-0.0000

> <Gold.Chemscore.Lipo.Weighted>
-8.2169

> <Gold.Chemscore.Internal_Hbond.Weighted>
0.0000

> <Gold.Chemscore.DEClash.Weighted>
0.1346

> <Gold.Chemscore.DEInternal.Weighted>
0.5366

> <Gold.Chemscore.Rot.Weighted>
4.7433

> <Gold.Chemscore.Internal.Correction.Weighted>
   9.000000E+99

> <Gold.Protein.RotatedTorsions>
[ 6907 6896 6895 6894 ] final  -51.60 input  -60.11 | X-H torsion
[ 7974 7965 7964 7962 ] final  -88.29 input  175.53 | X-H torsion
[ 8008 7997 7996 7995 ] final   37.55 input   59.86 | X-H torsion
[ 10167 10162 10161 10158 ] final -169.82 input  -65.29 | X-H torsion
[ 10718 10713 10712 10709 ] final  145.08 input   66.30 | X-H torsion
[ 10763 10752 10751 10750 ] final  155.57 input  -60.55 | X-H torsion
[ 11005 11000 10999 10996 ] final  178.76 input  -57.11 | X-H torsion

> <Gold.Protein.ActiveResidues>
 VAL166  LYS551  ARG553  GLY616  TRP617  ASP618  TYR619  PRO620  LYS621  CYS622 
 ASP623  PHE694  ASN695  SER759  ASP760  ASP761  ALA762  ILE779  LEU786  VAL792 
 PHE793  MET794  SER795  GLU796  ALA797  LYS798  CYS799  TRP800  GLU811  SER814 

> <Gold.Protein.RotatedAtoms>
  150.8596  134.7945  159.7072 H   0  0  0  0  0  0  0  0  0  0  0  0  # atno 6907 bound_to 6896
  152.4637  134.5121  159.9767 H   0  0  0  0  0  0  0  0  0  0  0  0  # atno 6908 bound_to 6896
  151.5227  133.3425  159.2940 H   0  0  0  0  0  0  0  0  0  0  0  0  # atno 6909 bound_to 6896
  145.4552  140.9561  143.2000 H   0  0  0  0  0  0  0  0  0  0  0  0  # atno 7974 bound_to 7965
  155.2055  140.3319  155.4336 H   0  0  0  0  0  0  0  0  0  0  0  0  # atno 8008 bound_to 7997
  156.2390  140.1886  156.7089 H   0  0  0  0  0  0  0  0  0  0  0  0  # atno 8009 bound_to 7997
  154.6112  140.0608  156.9482 H   0  0  0  0  0  0  0  0  0  0  0  0  # atno 8010 bound_to 7997
  139.5899  144.1236  152.1621 H   0  0  0  0  0  0  0  0  0  0  0  0  # atno 10167 bound_to 10162
  157.3495  131.0948  151.1012 H   0  0  0  0  0  0  0  0  0  0  0  0  # atno 10718 bound_to 10713
  154.1705  135.2805  155.3082 H   0  0  0  0  0  0  0  0  0  0  0  0  # atno 10763 bound_to 10752
  154.6079  135.5508  153.7445 H   0  0  0  0  0  0  0  0  0  0  0  0  # atno 10764 bound_to 10752
  153.0166  135.6408  154.1845 H   0  0  0  0  0  0  0  0  0  0  0  0  # atno 10765 bound_to 10752
  140.3987  134.6797  157.4549 H   0  0  0  0  0  0  0  0  0  0  0  0  # atno 11005 bound_to 11000
  144.8037  139.6092  143.7060 LP  0  0  0  0  0  0  0  0  0  0  0  0  # atno 17320 bound_to 7965
  146.2482  139.6143  142.9445 LP  0  0  0  0  0  0  0  0  0  0  0  0  # atno 17321 bound_to 7965
  140.0808  144.5702  150.7124 LP  0  0  0  0  0  0  0  0  0  0  0  0  # atno 17342 bound_to 10162
  140.7164  143.2548  151.4420 LP  0  0  0  0  0  0  0  0  0  0  0  0  # atno 17343 bound_to 10162
  157.2193  130.6474  149.5805 LP  0  0  0  0  0  0  0  0  0  0  0  0  # atno 17370 bound_to 10713
  155.9719  130.4634  150.6182 LP  0  0  0  0  0  0  0  0  0  0  0  0  # atno 17371 bound_to 10713
  140.0352  134.6347  155.9052 LP  0  0  0  0  0  0  0  0  0  0  0  0  # atno 17394 bound_to 11000
  141.1865  133.6557  156.5240 LP  0  0  0  0  0  0  0  0  0  0  0  0  # atno 17395 bound_to 11000

$$$$
