AV-unprocessed.smi:670|AV-procd|sdf|3266|dock6
  -GOLD-   22720 0223D 1   1.00000     0.00000
 Structure written by MMmdl.
 44 45  0  0  0  0  0  0  0  0  2 V2000
  147.9817  141.9125  154.3382 C   0  0  0  0  0  0  0  0  0  0  0  0
  149.2911  141.1175  154.4602 C   0  0  1  0  0  0  0  0  0  0  0  0
  150.0081  141.3984  155.7976 C   0  0  0  0  0  0  0  0  0  0  0  0
  151.3355  140.6307  155.9010 C   0  0  0  0  0  0  0  0  0  0  0  0
  151.1275  139.1255  155.6816 C   0  0  0  0  0  0  0  0  0  0  0  0
  150.4176  138.8483  154.3476 C   0  0  0  0  0  0  0  0  0  0  0  0
  149.0722  139.6013  154.2555 C   0  0  1  0  0  0  0  0  0  0  0  0
  148.1682  139.1550  155.2590 O   0  0  0  0  0  0  0  0  0  0  0  0
  147.5998  137.8714  155.0513 C   0  0  0  0  0  0  0  0  0  0  0  0
  146.7244  137.5156  156.2625 C   0  0  0  0  0  0  0  0  0  0  0  0
  147.4888  136.8161  157.2899 N   0  0  0  0  0  0  0  0  0  0  0  0
  147.9338  137.3622  158.4325 C   0  0  0  0  0  0  0  0  0  0  0  0
  147.6964  138.5245  158.7630 O   0  0  0  0  0  0  0  0  0  0  0  0
  148.7448  136.4440  159.3562 C   0  0  0  0  0  0  0  0  0  0  0  0
  148.0208  136.1109  160.5904 N   0  0  0  0  0  0  0  0  0  0  0  0
  147.7908  137.2641  161.4575 N   0  5  0  0  0  0  0  0  0  0  0  0
  147.0831  137.0996  162.6064 C   0  0  0  0  0  0  0  0  0  0  0  0
  146.8249  138.0283  163.3684 O   0  0  0  0  0  0  0  0  0  0  0  0
  146.6181  135.7633  162.9378 C   0  0  0  0  0  0  0  0  0  0  0  0
  146.8741  134.7109  162.1361 C   0  0  0  0  0  0  0  0  0  0  0  0
  147.6191  134.8421  160.8900 C   0  0  0  0  0  0  0  0  0  0  0  0
  147.8622  133.8815  160.1600 O   0  0  0  0  0  0  0  0  0  0  0  0
  147.2775  141.6455  155.1267 H   0  0  0  0  0  0  0  0  0  0  0  0
  147.4963  141.7257  153.3800 H   0  0  0  0  0  0  0  0  0  0  0  0
  148.1673  142.9844  154.4103 H   0  0  0  0  0  0  0  0  0  0  0  0
  149.9463  141.4634  153.6593 H   0  0  0  0  0  0  0  0  0  0  0  0
  150.1978  142.4670  155.9023 H   0  0  0  0  0  0  0  0  0  0  0  0
  149.3627  141.1192  156.6317 H   0  0  0  0  0  0  0  0  0  0  0  0
  152.0383  141.0139  155.1604 H   0  0  0  0  0  0  0  0  0  0  0  0
  151.7891  140.8037  156.8770 H   0  0  0  0  0  0  0  0  0  0  0  0
  152.0869  138.6088  155.7095 H   0  0  0  0  0  0  0  0  0  0  0  0
  150.5333  138.7178  156.4991 H   0  0  0  0  0  0  0  0  0  0  0  0
  151.0623  139.1660  153.5273 H   0  0  0  0  0  0  0  0  0  0  0  0
  150.2813  137.7759  154.2166 H   0  0  0  0  0  0  0  0  0  0  0  0
  148.6294  139.4404  153.2711 H   0  0  0  0  0  0  0  0  0  0  0  0
  146.9903  137.8902  154.1470 H   0  0  0  0  0  0  0  0  0  0  0  0
  148.3651  137.1083  154.9122 H   0  0  0  0  0  0  0  0  0  0  0  0
  146.2483  138.4086  156.6708 H   0  0  0  0  0  0  0  0  0  0  0  0
  145.9186  136.8538  155.9450 H   0  0  0  0  0  0  0  0  0  0  0  0
  147.7324  135.8540  157.1039 H   0  0  0  0  0  0  0  0  0  0  0  0
  148.9961  135.5336  158.8097 H   0  0  0  0  0  0  0  0  0  0  0  0
  149.7037  136.9106  159.5920 H   0  0  0  0  0  0  0  0  0  0  0  0
  146.0577  135.6107  163.8481 H   0  0  0  0  0  0  0  0  0  0  0  0
  146.5113  133.7351  162.4224 H   0  0  0  0  0  0  0  0  0  0  0  0
  1  2  1  0  0  0  0
  1 23  1  0  0  0  0
  1 24  1  0  0  0  0
  1 25  1  0  0  0  0
  2  7  1  0  0  0  0
  2  3  1  0  0  0  0
  2 26  1  0  0  0  0
  3  4  1  0  0  0  0
  3 27  1  0  0  0  0
  3 28  1  0  0  0  0
  4  5  1  0  0  0  0
  4 29  1  0  0  0  0
  4 30  1  0  0  0  0
  5  6  1  0  0  0  0
  5 31  1  0  0  0  0
  5 32  1  0  0  0  0
  6  7  1  0  0  0  0
  6 33  1  0  0  0  0
  6 34  1  0  0  0  0
  7  8  1  0  0  0  0
  7 35  1  0  0  0  0
  8  9  1  0  0  0  0
  9 10  1  0  0  0  0
  9 36  1  0  0  0  0
  9 37  1  0  0  0  0
 10 11  1  0  0  0  0
 10 38  1  0  0  0  0
 10 39  1  0  0  0  0
 11 12  1  0  0  0  0
 11 40  1  0  0  0  0
 12 13  2  0  0  0  0
 12 14  1  0  0  0  0
 14 41  1  0  0  0  0
 14 42  1  0  0  0  0
 14 15  1  0  0  0  0
 15 16  1  0  0  0  0
 15 21  1  0  0  0  0
 16 17  1  0  0  0  0
 17 18  2  0  0  0  0
 17 19  1  0  0  0  0
 19 43  1  0  0  0  0
 19 20  2  0  0  0  0
 20 44  1  0  0  0  0
 20 21  1  0  0  0  0
 21 22  2  0  0  0  0
M  CHG  1  16  -1
M  END
> <s_m_source_file>
AV-unprocessed.smi

> <i_m_source_file_index>
670

> <i_lp_mmshare_version>
43012

> <i_f3d_flags>
0

> <s_epik_input>
W0NIM11bQ0BASF0xW0NIMl1bQ0gyXVtDSDJdW0NIMl1bQ0BIXTFPW0NIMl1bQ0gyXVtOSF1DKD1PKVtDSDJdbjJbbkhdYyg9TylbY0hdW2NIXWMyPU8=

> <s_epik_cmdline>
J2VwaWtfcHl0aG9uJywgJy1waCcsICc3LjAnLCAnLXRuJywgJzgnLCAnLW1hJywgJzIwMCcsICctbWV0YWxfYmluZGluZycsICctaW1hZScsICc8aW5maWxlLm1hZT4nLCAnLW9tYWUnLCAnPG91dGZpbGUubWFlPic=

> <r_lp_tautomer_probability>
1

> <r_epik_Ionization_Penalty>
0.0975638

> <r_epik_Ionization_Penalty_Charging>
0.0975637

> <r_epik_Ionization_Penalty_Neutral>
2.78599e-08

> <r_epik_State_Penalty>
0.0343507

> <r_epik_Charging_Adjusted_Penalty>
0.131914

> <i_epik_Tot_Q>
-1

> <i_epik_Tot_abs_Q>
1

> <r_epik_Metal_State_Penalty>
0.0343507

> <b_epik_Metal_Only>
0

> <s_lp_Force_Field>
OPLS_2005

> <r_lp_Energy>
24.4617

> <b_lp_Chiralities_Consistent>
1

> <s_lp_Variant>
AV-unprocessed.smi:670-2

> <Gold.Version>
5.8.1

> <Gold.Id.Protein>
6NUR|6NUR_protein|mol2

> <Gold.PLP.Fitness>
48.4437

> <Gold.PLP.PLP>
-38.4876

> <Gold.PLP.part.hbond>
-3.9002

> <Gold.PLP.part.metal>
0.0000

> <Gold.PLP.part.buried>
-1.8072

> <Gold.PLP.part.nonpolar>
-34.4813

> <Gold.PLP.part.repulsive>
0.0617

> <Gold.PLP.ligand.clash>
0.0000

> <Gold.PLP.ligand.torsion>
0.4987

> <Gold.PLP.Chemscore.Hbond>
3.6320

> <Gold.PLP.Chemscore.CHOScore>
0.0000

> <Gold.PLP.Chemscore.Metal>
0.0000

> <Gold.Chemscore.Hbonds>
donor molecule, donor type, donor heavy atom, donor atom, acceptor molecule, acceptor atom, score
      P1  H  6931  6943       L1    16  1.98
      P1  H  6934  6947       L1    16  1.44

> <Gold.PLP.Chemscore.Internal.Correction>
0.0574

> <Gold.Rescore>
     Score         DG    S(hbond)    S(metal)    S(lipo)     H(rot)  DE(clash)    DE(int)     intcor
     10.39     -11.10       1.03        0.00      72.20       2.45       0.06       0.65       ----

> <Gold.Chemscore.Fitness>
10.3894

> <Gold.Chemscore.DG>
-11.0983

> <Gold.Chemscore.ZeroCoef>
-5.4800

> <Gold.Chemscore.Hbond>
1.0300

> <Gold.Chemscore.Metal>
0.0000

> <Gold.Chemscore.Lipo>
72.1996

> <Gold.Chemscore.Internal_Hbond>
0.0000

> <Gold.Chemscore.DEClash>
0.0604

> <Gold.Chemscore.DEInternal>
0.6484

> <Gold.Chemscore.Rot>
2.4490

> <Gold.Chemscore.Internal.Correction>
   9.000000E+99

> <Gold.Chemscore.Hbonds>
donor molecule, donor type, donor heavy atom, donor atom, acceptor molecule, acceptor atom, score
      P1  H  6931  6943       L1    16  0.37
      P1  H  6934  6947       L1    16  0.18

> <Gold.Chemscore.Hbond.Weighted>
-3.4403

> <Gold.Chemscore.Metal.Weighted>
-0.0000

> <Gold.Chemscore.Lipo.Weighted>
-8.4474

> <Gold.Chemscore.Internal_Hbond.Weighted>
0.0000

> <Gold.Chemscore.DEClash.Weighted>
0.0604

> <Gold.Chemscore.DEInternal.Weighted>
0.6484

> <Gold.Chemscore.Rot.Weighted>
6.2694

> <Gold.Chemscore.Internal.Correction.Weighted>
   9.000000E+99

> <Gold.Protein.RotatedTorsions>
[ 6907 6896 6895 6894 ] final -155.88 input  -60.11 | X-H torsion
[ 7974 7965 7964 7962 ] final  -76.70 input  175.53 | X-H torsion
[ 8008 7997 7996 7995 ] final  -58.39 input   59.86 | X-H torsion
[ 10167 10162 10161 10158 ] final   57.68 input  -65.29 | X-H torsion
[ 10718 10713 10712 10709 ] final -171.91 input   66.30 | X-H torsion
[ 10763 10752 10751 10750 ] final -176.63 input  -60.55 | X-H torsion
[ 11005 11000 10999 10996 ] final -144.29 input  -57.11 | X-H torsion

> <Gold.Protein.ActiveResidues>
 VAL166  LYS551  ARG553  GLY616  TRP617  ASP618  TYR619  PRO620  LYS621  CYS622 
 ASP623  PHE694  ASN695  SER759  ASP760  ASP761  ALA762  ILE779  LEU786  VAL792 
 PHE793  MET794  SER795  GLU796  ALA797  LYS798  CYS799  TRP800  GLU811  SER814 

> <Gold.Protein.RotatedAtoms>
  151.2791  133.4218  159.2625 H   0  0  0  0  0  0  0  0  0  0  0  0  # atno 6907 bound_to 6896
  151.0376  134.9585  159.8155 H   0  0  0  0  0  0  0  0  0  0  0  0  # atno 6908 bound_to 6896
  152.5358  134.2750  159.9038 H   0  0  0  0  0  0  0  0  0  0  0  0  # atno 6909 bound_to 6896
  145.6094  140.9390  143.1198 H   0  0  0  0  0  0  0  0  0  0  0  0  # atno 7974 bound_to 7965
  154.4307  140.1085  156.5949 H   0  0  0  0  0  0  0  0  0  0  0  0  # atno 8008 bound_to 7997
  155.5973  140.3493  155.4565 H   0  0  0  0  0  0  0  0  0  0  0  0  # atno 8009 bound_to 7997
  156.0200  140.1237  157.0356 H   0  0  0  0  0  0  0  0  0  0  0  0  # atno 8010 bound_to 7997
  140.1954  144.4043  150.6552 H   0  0  0  0  0  0  0  0  0  0  0  0  # atno 10167 bound_to 10162
  156.7479  130.9367  151.3113 H   0  0  0  0  0  0  0  0  0  0  0  0  # atno 10718 bound_to 10713
  154.5700  135.2827  155.0836 H   0  0  0  0  0  0  0  0  0  0  0  0  # atno 10763 bound_to 10752
  154.2212  135.6391  153.5149 H   0  0  0  0  0  0  0  0  0  0  0  0  # atno 10764 bound_to 10752
  153.0055  135.5515  154.6321 H   0  0  0  0  0  0  0  0  0  0  0  0  # atno 10765 bound_to 10752
  140.8039  134.2824  157.4968 H   0  0  0  0  0  0  0  0  0  0  0  0  # atno 11005 bound_to 11000
  144.7276  139.7826  143.7359 LP  0  0  0  0  0  0  0  0  0  0  0  0  # atno 17320 bound_to 7965
  146.1516  139.4601  143.0045 LP  0  0  0  0  0  0  0  0  0  0  0  0  # atno 17321 bound_to 7965
  140.6427  143.2207  151.6254 LP  0  0  0  0  0  0  0  0  0  0  0  0  # atno 17342 bound_to 10162
  139.5239  144.3120  152.0985 LP  0  0  0  0  0  0  0  0  0  0  0  0  # atno 17343 bound_to 10162
  157.6790  130.9122  150.0220 LP  0  0  0  0  0  0  0  0  0  0  0  0  # atno 17370 bound_to 10713
  156.1421  130.3642  149.9566 LP  0  0  0  0  0  0  0  0  0  0  0  0  # atno 17371 bound_to 10713
  139.8719  134.9445  156.3884 LP  0  0  0  0  0  0  0  0  0  0  0  0  # atno 17394 bound_to 11000
  140.9266  133.7608  155.9973 LP  0  0  0  0  0  0  0  0  0  0  0  0  # atno 17395 bound_to 11000

$$$$
