AV-unprocessed.smi:1978|AV-procd|sdf|7994|dock1
  -GOLD-   2272010173D 1   1.00000     0.00000
 Structure written by MMmdl.
 45 46  0  0  0  0  0  0  0  0  2 V2000
  138.8330  136.7312  153.5532 C   0  0  0  0  0  0  0  0  0  0  0  0
  140.1538  137.2082  154.0513 C   0  0  0  0  0  0  0  0  0  0  0  0
  141.0325  138.1521  153.5991 C   0  0  0  0  0  0  0  0  0  0  0  0
  142.0875  138.0865  154.5473 C   0  0  0  0  0  0  0  0  0  0  0  0
  143.2224  138.9291  154.4325 N   0  0  0  0  0  0  0  0  0  0  0  0
  144.3166  138.9365  155.2121 C   0  0  0  0  0  0  0  0  0  0  0  0
  144.5127  138.1873  156.1694 O   0  0  0  0  0  0  0  0  0  0  0  0
  145.1911  139.8744  154.8201 N   0  0  0  0  0  0  0  0  0  0  0  0
  146.4804  140.1244  155.4563 C   0  0  0  0  0  0  0  0  0  0  0  0
  147.0389  141.5346  155.1338 C   0  0  2  0  0  0  0  0  0  0  0  0
  147.3269  141.7270  153.6305 C   0  0  0  0  0  0  0  0  0  0  0  0
  148.2241  141.9013  155.9745 N   0  3  2  0  0  0  0  0  0  0  0  0
  149.5212  141.3843  155.4476 C   0  0  0  0  0  0  0  0  0  0  0  0
  150.7147  142.0158  156.1786 C   0  0  0  0  0  0  0  0  0  0  0  0
  150.6230  141.7560  157.6835 C   0  0  0  0  0  0  0  0  0  0  0  0
  149.2761  142.2605  158.2114 C   0  0  0  0  0  0  0  0  0  0  0  0
  148.0882  141.6371  157.4465 C   0  0  1  0  0  0  0  0  0  0  0  0
  146.7699  142.1596  158.0525 C   0  0  0  0  0  0  0  0  0  0  0  0
  141.8715  137.1866  155.4943 N   0  0  0  0  0  0  0  0  0  0  0  0
  140.6308  136.6191  155.1814 O   0  0  0  0  0  0  0  0  0  0  0  0
  138.5274  137.2874  152.6668 H   0  0  0  0  0  0  0  0  0  0  0  0
  138.0632  136.8595  154.3142 H   0  0  0  0  0  0  0  0  0  0  0  0
  138.8777  135.6741  153.2908 H   0  0  0  0  0  0  0  0  0  0  0  0
  140.9344  138.7831  152.7282 H   0  0  0  0  0  0  0  0  0  0  0  0
  143.1992  139.5934  153.6731 H   0  0  0  0  0  0  0  0  0  0  0  0
  144.9540  140.4479  154.0234 H   0  0  0  0  0  0  0  0  0  0  0  0
  146.3740  139.9785  156.5318 H   0  0  0  0  0  0  0  0  0  0  0  0
  147.1662  139.3524  155.1078 H   0  0  0  0  0  0  0  0  0  0  0  0
  146.2590  142.2647  155.3399 H   0  0  0  0  0  0  0  0  0  0  0  0
  146.4046  141.7047  153.0496 H   0  0  0  0  0  0  0  0  0  0  0  0
  147.9728  140.9473  153.2278 H   0  0  0  0  0  0  0  0  0  0  0  0
  147.8005  142.6907  153.4404 H   0  0  0  0  0  0  0  0  0  0  0  0
  149.5603  140.2998  155.5552 H   0  0  0  0  0  0  0  0  0  0  0  0
  149.6279  141.5995  154.3862 H   0  0  0  0  0  0  0  0  0  0  0  0
  151.6485  141.6109  155.7874 H   0  0  0  0  0  0  0  0  0  0  0  0
  150.7380  143.0898  155.9887 H   0  0  0  0  0  0  0  0  0  0  0  0
  150.7244  140.6885  157.8834 H   0  0  0  0  0  0  0  0  0  0  0  0
  151.4431  142.2519  158.2036 H   0  0  0  0  0  0  0  0  0  0  0  0
  149.2002  142.0314  159.2751 H   0  0  0  0  0  0  0  0  0  0  0  0
  149.2382  143.3477  158.1281 H   0  0  0  0  0  0  0  0  0  0  0  0
  148.1220  140.5585  157.6054 H   0  0  0  0  0  0  0  0  0  0  0  0
  146.7795  142.0724  159.1393 H   0  0  0  0  0  0  0  0  0  0  0  0
  145.9062  141.5891  157.7116 H   0  0  0  0  0  0  0  0  0  0  0  0
  146.6065  143.2100  157.8091 H   0  0  0  0  0  0  0  0  0  0  0  0
  148.2847  142.9065  155.8980 H   0  0  0  0  0  0  0  0  0  0  0  0
  1  2  1  0  0  0  0
  1 21  1  0  0  0  0
  1 22  1  0  0  0  0
  1 23  1  0  0  0  0
  2 20  1  0  0  0  0
  2  3  2  0  0  0  0
  3  4  1  0  0  0  0
  3 24  1  0  0  0  0
  4  5  1  0  0  0  0
  4 19  2  0  0  0  0
  5  6  1  0  0  0  0
  5 25  1  0  0  0  0
  6  7  2  0  0  0  0
  6  8  1  0  0  0  0
  8  9  1  0  0  0  0
  8 26  1  0  0  0  0
  9 10  1  0  0  0  0
  9 27  1  0  0  0  0
  9 28  1  0  0  0  0
 10 11  1  0  0  0  0
 10 12  1  0  0  0  0
 10 29  1  0  0  0  0
 11 30  1  0  0  0  0
 11 31  1  0  0  0  0
 11 32  1  0  0  0  0
 12 17  1  0  0  0  0
 12 13  1  0  0  0  0
 12 45  1  0  0  0  0
 13 14  1  0  0  0  0
 13 33  1  0  0  0  0
 13 34  1  0  0  0  0
 14 15  1  0  0  0  0
 14 35  1  0  0  0  0
 14 36  1  0  0  0  0
 15 16  1  0  0  0  0
 15 37  1  0  0  0  0
 15 38  1  0  0  0  0
 16 17  1  0  0  0  0
 16 39  1  0  0  0  0
 16 40  1  0  0  0  0
 17 18  1  0  0  0  0
 17 41  1  0  0  0  0
 18 42  1  0  0  0  0
 18 43  1  0  0  0  0
 18 44  1  0  0  0  0
 19 20  1  0  0  0  0
M  CHG  1  12   1
M  END
> <s_m_source_file>
AV-unprocessed.smi

> <i_m_source_file_index>
1978

> <i_lp_mmshare_version>
43012

> <i_f3d_flags>
0

> <s_epik_input>
W0NIM11jMVtjSF1jKG5vMSlbTkhdQyg9TylbTkhdW0NIMl1bQ0BIXShbQ0gzXSlOMltDSDJdW0NIMl1bQ0gyXVtDSDJdW0NASF0yW0NIM10=

> <s_epik_cmdline>
J2VwaWtfcHl0aG9uJywgJy1waCcsICc3LjAnLCAnLXRuJywgJzgnLCAnLW1hJywgJzIwMCcsICctbWV0YWxfYmluZGluZycsICctaW1hZScsICc8aW5maWxlLm1hZT4nLCAnLW9tYWUnLCAnPG91dGZpbGUubWFlPic=

> <r_epik_Ionization_Penalty>
0.00265971

> <r_epik_Ionization_Penalty_Charging>
0.00262393

> <r_epik_Ionization_Penalty_Neutral>
3.57846e-05

> <r_epik_State_Penalty>
0.00182566

> <r_epik_Charging_Adjusted_Penalty>
0.00444959

> <i_epik_Tot_Q>
1

> <i_epik_Tot_abs_Q>
1

> <r_epik_Metal_State_Penalty>
0.0216344

> <b_epik_Metal_Only>
0

> <s_lp_Force_Field>
OPLS_2005

> <r_lp_Energy>
19.2971

> <b_lp_Chiralities_Consistent>
1

> <s_lp_Variant>
AV-unprocessed.smi:1978-3

> <Gold.Version>
5.8.1

> <Gold.Id.Protein>
6NUR|6NUR_protein|mol2

> <Gold.PLP.Fitness>
41.4135

> <Gold.PLP.PLP>
-28.9483

> <Gold.PLP.part.hbond>
-4.0000

> <Gold.PLP.part.metal>
0.0000

> <Gold.PLP.part.buried>
-5.8766

> <Gold.PLP.part.nonpolar>
-19.4364

> <Gold.PLP.part.repulsive>
0.0651

> <Gold.PLP.ligand.clash>
0.0000

> <Gold.PLP.ligand.torsion>
0.4156

> <Gold.PLP.Chemscore.Hbond>
4.3822

> <Gold.PLP.Chemscore.CHOScore>
0.0000

> <Gold.PLP.Chemscore.Metal>
0.0000

> <Gold.Chemscore.Hbonds>
donor molecule, donor type, donor heavy atom, donor atom, acceptor molecule, acceptor atom, score
      L1  H     5    25       P1 10175  0.98
      L1  H     8    26       P1 10175  0.80
      L1  H    12    45       P1  8028  2.00
      P1  H 11000 11005       L1    20  0.51

> <Gold.PLP.Chemscore.Internal.Correction>
0.1500

> <Gold.Rescore>
     Score         DG    S(hbond)    S(metal)    S(lipo)     H(rot)  DE(clash)    DE(int)     intcor
     18.74     -20.54       3.52        0.00      62.02       1.55       0.11       1.70       ----

> <Gold.Chemscore.Fitness>
18.7355

> <Gold.Chemscore.DG>
-20.5434

> <Gold.Chemscore.ZeroCoef>
-5.4800

> <Gold.Chemscore.Hbond>
3.5233

> <Gold.Chemscore.Metal>
0.0000

> <Gold.Chemscore.Lipo>
62.0243

> <Gold.Chemscore.Internal_Hbond>
0.0000

> <Gold.Chemscore.DEClash>
0.1124

> <Gold.Chemscore.DEInternal>
1.6954

> <Gold.Chemscore.Rot>
1.5474

> <Gold.Chemscore.Internal.Correction>
   9.000000E+99

> <Gold.Chemscore.Hbonds>
donor molecule, donor type, donor heavy atom, donor atom, acceptor molecule, acceptor atom, score
      L1  H     5    25       P1 10175  0.91
      L1  H     8    26       P1 10175  0.77
      L1  H    12    45       P1  8028  0.92
      P1  H 11000 11005       L1    20  0.52

> <Gold.Chemscore.Hbond.Weighted>
-11.7678

> <Gold.Chemscore.Metal.Weighted>
-0.0000

> <Gold.Chemscore.Lipo.Weighted>
-7.2568

> <Gold.Chemscore.Internal_Hbond.Weighted>
0.0000

> <Gold.Chemscore.DEClash.Weighted>
0.1124

> <Gold.Chemscore.DEInternal.Weighted>
1.6954

> <Gold.Chemscore.Rot.Weighted>
3.9612

> <Gold.Chemscore.Internal.Correction.Weighted>
   9.000000E+99

> <Gold.Protein.RotatedTorsions>
[ 6907 6896 6895 6894 ] final  119.05 input  -60.11 | X-H torsion
[ 7974 7965 7964 7962 ] final -110.06 input  175.53 | X-H torsion
[ 8008 7997 7996 7995 ] final  -71.01 input   59.86 | X-H torsion
[ 10167 10162 10161 10158 ] final -113.13 input  -65.29 | X-H torsion
[ 10718 10713 10712 10709 ] final  -31.13 input   66.30 | X-H torsion
[ 10763 10752 10751 10750 ] final   34.96 input  -60.55 | X-H torsion
[ 11005 11000 10999 10996 ] final   79.85 input  -57.11 | X-H torsion

> <Gold.Protein.ActiveResidues>
 VAL166  LYS551  ARG553  GLY616  TRP617  ASP618  TYR619  PRO620  LYS621  CYS622 
 ASP623  PHE694  ASN695  SER759  ASP760  ASP761  ALA762  ILE779  LEU786  VAL792 
 PHE793  MET794  SER795  GLU796  ALA797  LYS798  CYS799  TRP800  GLU811  SER814 

> <Gold.Protein.RotatedAtoms>
  152.4500  133.7610  159.6746 H   0  0  0  0  0  0  0  0  0  0  0  0  # atno 6907 bound_to 6896
  150.8409  133.7927  159.3067 H   0  0  0  0  0  0  0  0  0  0  0  0  # atno 6908 bound_to 6896
  151.5552  135.1069  160.0011 H   0  0  0  0  0  0  0  0  0  0  0  0  # atno 6909 bound_to 6896
  145.1729  140.8934  143.3524 H   0  0  0  0  0  0  0  0  0  0  0  0  # atno 7974 bound_to 7965
  154.5055  140.0823  156.7886 H   0  0  0  0  0  0  0  0  0  0  0  0  # atno 8008 bound_to 7997
  155.3903  140.3432  155.4233 H   0  0  0  0  0  0  0  0  0  0  0  0  # atno 8009 bound_to 7997
  156.1510  140.1558  156.8757 H   0  0  0  0  0  0  0  0  0  0  0  0  # atno 8010 bound_to 7997
  140.1151  143.4492  152.1727 H   0  0  0  0  0  0  0  0  0  0  0  0  # atno 10167 bound_to 10162
  156.3911  130.4373  149.7394 H   0  0  0  0  0  0  0  0  0  0  0  0  # atno 10718 bound_to 10713
  153.0140  135.6346  154.1751 H   0  0  0  0  0  0  0  0  0  0  0  0  # atno 10763 bound_to 10752
  154.1491  135.2830  155.3142 H   0  0  0  0  0  0  0  0  0  0  0  0  # atno 10764 bound_to 10752
  154.6067  135.5570  153.7491 H   0  0  0  0  0  0  0  0  0  0  0  0  # atno 10765 bound_to 10752
  139.9156  134.7875  156.1833 H   0  0  0  0  0  0  0  0  0  0  0  0  # atno 11005 bound_to 11000
  145.0214  139.3421  143.6070 LP  0  0  0  0  0  0  0  0  0  0  0  0  # atno 17320 bound_to 7965
  146.3465  139.9516  142.8728 LP  0  0  0  0  0  0  0  0  0  0  0  0  # atno 17321 bound_to 7965
  139.5598  144.7398  151.4188 LP  0  0  0  0  0  0  0  0  0  0  0  0  # atno 17342 bound_to 10162
  140.6903  143.7876  150.7246 LP  0  0  0  0  0  0  0  0  0  0  0  0  # atno 17343 bound_to 10162
  156.4447  130.7878  151.2899 LP  0  0  0  0  0  0  0  0  0  0  0  0  # atno 17370 bound_to 10713
  157.7499  131.0114  150.3344 LP  0  0  0  0  0  0  0  0  0  0  0  0  # atno 17371 bound_to 10713
  141.0629  133.6833  156.1987 LP  0  0  0  0  0  0  0  0  0  0  0  0  # atno 17394 bound_to 11000
  140.6632  134.4946  157.5584 LP  0  0  0  0  0  0  0  0  0  0  0  0  # atno 17395 bound_to 11000

$$$$
