AV-unprocessed.smi:1278|AV-procd|sdf|5353|dock3
  -GOLD-   22720 4483D 1   1.00000     0.00000
 Structure written by MMmdl.
 38 39  0  0  0  0  0  0  0  0  3 V2000
  153.1060  142.6845  161.0406 C   0  0  0  0  0  0  0  0  0  0  0  0
  153.0821  143.2890  159.6255 C   0  0  2  0  0  0  0  0  0  0  0  0
  152.2690  144.5943  159.5475 C   0  0  0  0  0  0  0  0  0  0  0  0
  150.7609  144.3150  159.6135 C   0  0  0  0  0  0  0  0  0  0  0  0
  150.3430  143.2859  158.5515 C   0  0  0  0  0  0  0  0  0  0  0  0
  151.1244  142.0295  158.6840 N   0  3  1  0  0  0  0  0  0  0  0  0
  150.6406  140.9706  157.7642 C   0  0  0  0  0  0  0  0  0  0  0  0
  151.2976  139.6063  158.0461 C   0  0  0  0  0  0  0  0  0  0  0  0
  150.2987  138.5917  158.3588 N   0  0  0  0  0  0  0  0  0  0  0  0
  150.5449  137.4021  158.9259 C   0  0  0  0  0  0  0  0  0  0  0  0
  151.6998  137.0943  159.2301 O   0  0  0  0  0  0  0  0  0  0  0  0
  149.4396  136.6440  159.1003 N   0  5  0  0  0  0  0  0  0  0  0  0
  149.2500  135.9898  160.2578 C   0  0  0  0  0  0  0  0  0  0  0  0
  148.8979  136.6040  161.3930 N   0  0  0  0  0  0  0  0  0  0  0  0
  148.7508  135.7323  162.4735 C   0  0  0  0  0  0  0  0  0  0  0  0
  148.9881  134.4224  162.1510 C   0  0  0  0  0  0  0  0  0  0  0  0
  149.4059  134.2441  160.4708 S   0  0  0  0  0  0  0  0  0  0  0  0
  152.5873  142.2801  158.5680 C   0  0  0  0  0  0  0  0  0  0  0  0
  152.1138  142.3748  161.3690 H   0  0  0  0  0  0  0  0  0  0  0  0
  153.4862  143.4035  161.7668 H   0  0  0  0  0  0  0  0  0  0  0  0
  153.7530  141.8075  161.0799 H   0  0  0  0  0  0  0  0  0  0  0  0
  154.1160  143.5371  159.3813 H   0  0  0  0  0  0  0  0  0  0  0  0
  152.5637  145.2798  160.3429 H   0  0  0  0  0  0  0  0  0  0  0  0
  152.4946  145.1010  158.6082 H   0  0  0  0  0  0  0  0  0  0  0  0
  150.4916  143.9507  160.6053 H   0  0  0  0  0  0  0  0  0  0  0  0
  150.2062  145.2423  159.4688 H   0  0  0  0  0  0  0  0  0  0  0  0
  149.2789  143.0738  158.6636 H   0  0  0  0  0  0  0  0  0  0  0  0
  150.4808  143.6970  157.5501 H   0  0  0  0  0  0  0  0  0  0  0  0
  149.5625  140.8524  157.8832 H   0  0  0  0  0  0  0  0  0  0  0  0
  150.8014  141.2836  156.7314 H   0  0  0  0  0  0  0  0  0  0  0  0
  151.9003  139.2655  157.2042 H   0  0  0  0  0  0  0  0  0  0  0  0
  151.9732  139.6883  158.8978 H   0  0  0  0  0  0  0  0  0  0  0  0
  149.3386  138.8059  158.1310 H   0  0  0  0  0  0  0  0  0  0  0  0
  148.4734  136.1318  163.4377 H   0  0  0  0  0  0  0  0  0  0  0  0
  148.9419  133.5565  162.7938 H   0  0  0  0  0  0  0  0  0  0  0  0
  152.8028  142.6611  157.5685 H   0  0  0  0  0  0  0  0  0  0  0  0
  153.1474  141.3512  158.6684 H   0  0  0  0  0  0  0  0  0  0  0  0
  150.9559  141.6903  159.6202 H   0  0  0  0  0  0  0  0  0  0  0  0
  1  2  1  0  0  0  0
  1 19  1  0  0  0  0
  1 20  1  0  0  0  0
  1 21  1  0  0  0  0
  2 18  1  0  0  0  0
  2  3  1  0  0  0  0
  2 22  1  0  0  0  0
  3  4  1  0  0  0  0
  3 23  1  0  0  0  0
  3 24  1  0  0  0  0
  4  5  1  0  0  0  0
  4 25  1  0  0  0  0
  4 26  1  0  0  0  0
  5  6  1  0  0  0  0
  5 27  1  0  0  0  0
  5 28  1  0  0  0  0
  6  7  1  0  0  0  0
  6 18  1  0  0  0  0
  6 38  1  0  0  0  0
  7  8  1  0  0  0  0
  7 29  1  0  0  0  0
  7 30  1  0  0  0  0
  8  9  1  0  0  0  0
  8 31  1  0  0  0  0
  8 32  1  0  0  0  0
  9 10  1  0  0  0  0
  9 33  1  0  0  0  0
 10 11  2  0  0  0  0
 10 12  1  0  0  0  0
 12 13  1  0  0  0  0
 13 17  1  0  0  0  0
 13 14  2  0  0  0  0
 14 15  1  0  0  0  0
 15 16  2  0  0  0  0
 15 34  1  0  0  0  0
 16 17  1  0  0  0  0
 16 35  1  0  0  0  0
 18 36  1  0  0  0  0
 18 37  1  0  0  0  0
M  CHG  1   6   1
M  CHG  1  12  -1
M  END
> <s_m_source_file>
AV-unprocessed.smi

> <i_m_source_file_index>
1278

> <i_lp_mmshare_version>
43012

> <i_f3d_flags>
0

> <s_epik_input>
W0NIM11bQ0BASF0xW0NIMl1bQ0gyXVtDSDJdTihbQ0gyXTEpW0NIMl1bQ0gyXVtOSF1DKD1PKVtOSF1jMm5bY0hdW2NIXXMy

> <s_epik_cmdline>
J2VwaWtfcHl0aG9uJywgJy1waCcsICc3LjAnLCAnLXRuJywgJzgnLCAnLW1hJywgJzIwMCcsICctbWV0YWxfYmluZGluZycsICctaW1hZScsICc8aW5maWxlLm1hZT4nLCAnLW9tYWUnLCAnPG91dGZpbGUubWFlPic=

> <r_lp_tautomer_probability>
0.999

> <r_epik_Ionization_Penalty>
6.22019

> <r_epik_Ionization_Penalty_Charging>
5.38911

> <r_epik_Ionization_Penalty_Neutral>
0.831074

> <r_epik_State_Penalty>
5.38904

> <r_epik_Charging_Adjusted_Penalty>
10.7782

> <i_epik_Tot_Q>
0

> <i_epik_Tot_abs_Q>
2

> <r_epik_Metal_State_Penalty>
1.41502

> <b_epik_Metal_Only>
1

> <s_lp_Force_Field>
OPLS_2005

> <r_lp_Energy>
8.40837

> <b_lp_Chiralities_Consistent>
1

> <s_lp_Variant>
AV-unprocessed.smi:1278-7

> <Gold.Version>
5.8.1

> <Gold.Id.Protein>
6NUR|6NUR_protein|mol2

> <Gold.PLP.Fitness>
44.7992

> <Gold.PLP.PLP>
-39.4514

> <Gold.PLP.part.hbond>
-3.0000

> <Gold.PLP.part.metal>
0.0000

> <Gold.PLP.part.buried>
-5.1721

> <Gold.PLP.part.nonpolar>
-30.9041

> <Gold.PLP.part.repulsive>
0.2967

> <Gold.PLP.ligand.clash>
0.0000

> <Gold.PLP.ligand.torsion>
1.5425

> <Gold.PLP.Chemscore.Hbond>
2.7920

> <Gold.PLP.Chemscore.CHOScore>
0.0000

> <Gold.PLP.Chemscore.Metal>
0.0000

> <Gold.Chemscore.Hbonds>
donor molecule, donor type, donor heavy atom, donor atom, acceptor molecule, acceptor atom, score
      P1  H  6896  6908       L1    11  0.52
      P1  H  6931  6943       L1    14  1.00

> <Gold.PLP.Chemscore.Internal.Correction>
0.0568

> <Gold.Rescore>
     Score         DG    S(hbond)    S(metal)    S(lipo)     H(rot)  DE(clash)    DE(int)     intcor
     19.49     -20.99       2.55        0.00      93.94       1.57       0.03       1.47       ----

> <Gold.Chemscore.Fitness>
19.4932

> <Gold.Chemscore.DG>
-20.9909

> <Gold.Chemscore.ZeroCoef>
-5.4800

> <Gold.Chemscore.Hbond>
2.5549

> <Gold.Chemscore.Metal>
0.0000

> <Gold.Chemscore.Lipo>
93.9363

> <Gold.Chemscore.Internal_Hbond>
0.0000

> <Gold.Chemscore.DEClash>
0.0272

> <Gold.Chemscore.DEInternal>
1.4705

> <Gold.Chemscore.Rot>
1.5676

> <Gold.Chemscore.Internal.Correction>
   9.000000E+99

> <Gold.Chemscore.Hbonds>
donor molecule, donor type, donor heavy atom, donor atom, acceptor molecule, acceptor atom, score
      P1  H  6896  6908       L1    11  0.08
      P1  H  6931  6943       L1    14  0.82

> <Gold.Chemscore.Hbond.Weighted>
-8.5334

> <Gold.Chemscore.Metal.Weighted>
-0.0000

> <Gold.Chemscore.Lipo.Weighted>
-10.9905

> <Gold.Chemscore.Internal_Hbond.Weighted>
0.0000

> <Gold.Chemscore.DEClash.Weighted>
0.0272

> <Gold.Chemscore.DEInternal.Weighted>
1.4705

> <Gold.Chemscore.Rot.Weighted>
4.0130

> <Gold.Chemscore.Internal.Correction.Weighted>
   9.000000E+99

> <Gold.Protein.RotatedTorsions>
[ 6907 6896 6895 6894 ] final -143.48 input  -60.11 | X-H torsion
[ 7974 7965 7964 7962 ] final -129.12 input  175.53 | X-H torsion
[ 8008 7997 7996 7995 ] final  179.06 input   59.86 | X-H torsion
[ 10167 10162 10161 10158 ] final  -29.84 input  -65.29 | X-H torsion
[ 10718 10713 10712 10709 ] final   70.10 input   66.30 | X-H torsion
[ 10763 10752 10751 10750 ] final  -25.72 input  -60.55 | X-H torsion
[ 11005 11000 10999 10996 ] final   88.64 input  -57.11 | X-H torsion

> <Gold.Protein.ActiveResidues>
 VAL166  LYS551  ARG553  GLY616  TRP617  ASP618  TYR619  PRO620  LYS621  CYS622 
 ASP623  PHE694  ASN695  SER759  ASP760  ASP761  ALA762  ILE779  LEU786  VAL792 
 PHE793  MET794  SER795  GLU796  ALA797  LYS798  CYS799  TRP800  GLU811  SER814 

> <Gold.Protein.RotatedAtoms>
  151.1011  133.5243  159.2609 H   0  0  0  0  0  0  0  0  0  0  0  0  # atno 6907 bound_to 6896
  151.2074  135.0467  159.8907 H   0  0  0  0  0  0  0  0  0  0  0  0  # atno 6908 bound_to 6896
  152.5443  134.0831  159.8297 H   0  0  0  0  0  0  0  0  0  0  0  0  # atno 6909 bound_to 6896
  144.9603  140.7440  143.4733 H   0  0  0  0  0  0  0  0  0  0  0  0  # atno 7974 bound_to 7965
  156.0477  140.1318  157.0085 H   0  0  0  0  0  0  0  0  0  0  0  0  # atno 8008 bound_to 7997
  154.4420  140.1017  156.6400 H   0  0  0  0  0  0  0  0  0  0  0  0  # atno 8009 bound_to 7997
  155.5571  140.3464  155.4484 H   0  0  0  0  0  0  0  0  0  0  0  0  # atno 8010 bound_to 7997
  140.7256  143.3896  151.1453 H   0  0  0  0  0  0  0  0  0  0  0  0  # atno 10167 bound_to 10162
  157.6382  130.9460  150.0604 H   0  0  0  0  0  0  0  0  0  0  0  0  # atno 10718 bound_to 10713
  153.7044  135.6954  153.5054 H   0  0  0  0  0  0  0  0  0  0  0  0  # atno 10763 bound_to 10752
  153.2318  135.4335  155.0603 H   0  0  0  0  0  0  0  0  0  0  0  0  # atno 10764 bound_to 10752
  154.8334  135.3486  154.6583 H   0  0  0  0  0  0  0  0  0  0  0  0  # atno 10765 bound_to 10752
  139.8892  134.8501  156.3030 H   0  0  0  0  0  0  0  0  0  0  0  0  # atno 11005 bound_to 11000
  145.2710  139.1954  143.4841 LP  0  0  0  0  0  0  0  0  0  0  0  0  # atno 17320 bound_to 7965
  146.3351  140.2656  142.8603 LP  0  0  0  0  0  0  0  0  0  0  0  0  # atno 17321 bound_to 7965
  139.7499  143.8795  152.3074 LP  0  0  0  0  0  0  0  0  0  0  0  0  # atno 17342 bound_to 10162
  139.8645  144.7100  150.9060 LP  0  0  0  0  0  0  0  0  0  0  0  0  # atno 17343 bound_to 10162
  156.1638  130.3644  149.9261 LP  0  0  0  0  0  0  0  0  0  0  0  0  # atno 17370 bound_to 10713
  156.7252  130.9022  151.3621 LP  0  0  0  0  0  0  0  0  0  0  0  0  # atno 17371 bound_to 10713
  140.9901  133.7214  156.0801 LP  0  0  0  0  0  0  0  0  0  0  0  0  # atno 17394 bound_to 11000
  140.7636  134.3911  157.5521 LP  0  0  0  0  0  0  0  0  0  0  0  0  # atno 17395 bound_to 11000

$$$$
