AV-unprocessed.smi:1107|AV-procd|sdf|4782|dock1
  -GOLD-   22720 3323D 1   1.00000     0.00000
 Structure written by MMmdl.
 49 50  0  0  0  0  0  0  0  0  2 V2000
  150.8198  143.3215  158.0763 C   0  0  0  0  0  0  0  0  0  0  0  0
  150.8912  142.0570  157.2466 C   0  0  0  0  0  0  0  0  0  0  0  0
  151.5629  141.0066  157.5875 N   0  0  0  0  0  0  0  0  0  0  0  0
  151.5541  139.8933  156.7355 C   0  0  0  0  0  0  0  0  0  0  0  0
  152.3611  138.6981  157.2137 C   0  0  0  0  0  0  0  0  0  0  0  0
  150.8572  139.8981  155.5609 C   0  0  0  0  0  0  0  0  0  0  0  0
  150.8284  138.7130  154.5955 C   0  0  0  0  0  0  0  0  0  0  0  0
  150.4015  137.3674  155.1889 C   0  0  0  0  0  0  0  0  0  0  0  0
  150.0097  137.3111  156.3536 O   0  0  0  0  0  0  0  0  0  0  0  0
  150.4956  136.2903  154.3917 N   0  0  0  0  0  0  0  0  0  0  0  0
  150.1061  134.9228  154.7331 C   0  0  1  0  0  0  0  0  0  0  0  0
  150.8506  134.4999  156.0064 C   0  0  0  0  0  0  0  0  0  0  0  0
  148.5752  134.7994  154.9118 C   0  0  0  0  0  0  0  0  0  0  0  0
  147.8549  134.5699  153.6331 N   0  3  0  0  0  0  0  0  0  0  0  0
  146.4153  134.9276  153.7098 C   0  0  0  0  0  0  0  0  0  0  0  0
  145.7497  134.8308  152.3262 C   0  0  0  0  0  0  0  0  0  0  0  0
  145.9375  133.4338  151.7198 C   0  0  0  0  0  0  0  0  0  0  0  0
  147.4278  133.0698  151.6901 C   0  0  0  0  0  0  0  0  0  0  0  0
  148.0518  133.2000  153.0891 C   0  0  0  0  0  0  0  0  0  0  0  0
  150.0989  141.1047  155.1789 C   0  0  0  0  0  0  0  0  0  0  0  0
  149.4520  141.2184  154.1392 O   0  0  0  0  0  0  0  0  0  0  0  0
  150.1595  142.1257  156.0624 N   0  0  0  0  0  0  0  0  0  0  0  0
  149.6546  142.9729  155.8468 H   0  0  0  0  0  0  0  0  0  0  0  0
  150.2001  144.0823  157.5989 H   0  0  0  0  0  0  0  0  0  0  0  0
  151.8187  143.7352  158.2179 H   0  0  0  0  0  0  0  0  0  0  0  0
  150.3963  143.1030  159.0567 H   0  0  0  0  0  0  0  0  0  0  0  0
  151.7003  137.8629  157.4462 H   0  0  0  0  0  0  0  0  0  0  0  0
  152.9257  138.9375  158.1155 H   0  0  0  0  0  0  0  0  0  0  0  0
  153.0727  138.3761  156.4542 H   0  0  0  0  0  0  0  0  0  0  0  0
  150.1586  138.9308  153.7641 H   0  0  0  0  0  0  0  0  0  0  0  0
  151.8109  138.6005  154.1341 H   0  0  0  0  0  0  0  0  0  0  0  0
  150.8337  136.4383  153.4513 H   0  0  0  0  0  0  0  0  0  0  0  0
  150.4333  134.2503  153.9392 H   0  0  0  0  0  0  0  0  0  0  0  0
  150.6149  133.4697  156.2745 H   0  0  0  0  0  0  0  0  0  0  0  0
  150.5843  135.1332  156.8536 H   0  0  0  0  0  0  0  0  0  0  0  0
  151.9307  134.5641  155.8697 H   0  0  0  0  0  0  0  0  0  0  0  0
  148.3302  134.0033  155.6165 H   0  0  0  0  0  0  0  0  0  0  0  0
  148.2159  135.7244  155.3654 H   0  0  0  0  0  0  0  0  0  0  0  0
  145.9117  134.2704  154.4204 H   0  0  0  0  0  0  0  0  0  0  0  0
  146.3070  135.9459  154.0852 H   0  0  0  0  0  0  0  0  0  0  0  0
  144.6873  135.0629  152.4052 H   0  0  0  0  0  0  0  0  0  0  0  0
  146.1816  135.5794  151.6602 H   0  0  0  0  0  0  0  0  0  0  0  0
  145.3901  132.6983  152.3107 H   0  0  0  0  0  0  0  0  0  0  0  0
  145.5201  133.3998  150.7130 H   0  0  0  0  0  0  0  0  0  0  0  0
  147.5561  132.0534  151.3167 H   0  0  0  0  0  0  0  0  0  0  0  0
  147.9531  133.7242  150.9928 H   0  0  0  0  0  0  0  0  0  0  0  0
  149.1141  132.9662  153.0264 H   0  0  0  0  0  0  0  0  0  0  0  0
  147.6084  132.4693  153.7673 H   0  0  0  0  0  0  0  0  0  0  0  0
  148.2650  135.2078  152.9655 H   0  0  0  0  0  0  0  0  0  0  0  0
  1  2  1  0  0  0  0
  1 24  1  0  0  0  0
  1 25  1  0  0  0  0
  1 26  1  0  0  0  0
  2 22  1  0  0  0  0
  2  3  2  0  0  0  0
  3  4  1  0  0  0  0
  4  5  1  0  0  0  0
  4  6  2  0  0  0  0
  5 27  1  0  0  0  0
  5 28  1  0  0  0  0
  5 29  1  0  0  0  0
  6  7  1  0  0  0  0
  6 20  1  0  0  0  0
  7  8  1  0  0  0  0
  7 30  1  0  0  0  0
  7 31  1  0  0  0  0
  8  9  2  0  0  0  0
  8 10  1  0  0  0  0
 10 11  1  0  0  0  0
 10 32  1  0  0  0  0
 11 12  1  0  0  0  0
 11 13  1  0  0  0  0
 11 33  1  0  0  0  0
 12 34  1  0  0  0  0
 12 35  1  0  0  0  0
 12 36  1  0  0  0  0
 13 14  1  0  0  0  0
 13 37  1  0  0  0  0
 13 38  1  0  0  0  0
 14 19  1  0  0  0  0
 14 15  1  0  0  0  0
 14 49  1  0  0  0  0
 15 16  1  0  0  0  0
 15 39  1  0  0  0  0
 15 40  1  0  0  0  0
 16 17  1  0  0  0  0
 16 41  1  0  0  0  0
 16 42  1  0  0  0  0
 17 18  1  0  0  0  0
 17 43  1  0  0  0  0
 17 44  1  0  0  0  0
 18 19  1  0  0  0  0
 18 45  1  0  0  0  0
 18 46  1  0  0  0  0
 19 47  1  0  0  0  0
 19 48  1  0  0  0  0
 20 21  2  0  0  0  0
 20 22  1  0  0  0  0
 22 23  1  0  0  0  0
M  CHG  1  14   1
M  END
> <s_m_source_file>
AV-unprocessed.smi

> <i_m_source_file_index>
1107

> <i_lp_mmshare_version>
43012

> <i_f3d_flags>
0

> <s_epik_input>
W0NIM11jMW5jKFtDSDNdKWMoYyg9TylbbkhdMSlbQ0gyXUMoPU8pW05IXVtDQEhdKFtDSDNdKVtDSDJdTjJbQ0gyXVtDSDJdW0NIMl1bQ0gyXVtDSDJdMg==

> <s_epik_cmdline>
J2VwaWtfcHl0aG9uJywgJy1waCcsICc3LjAnLCAnLXRuJywgJzgnLCAnLW1hJywgJzIwMCcsICctbWV0YWxfYmluZGluZycsICctaW1hZScsICc8aW5maWxlLm1hZT4nLCAnLW9tYWUnLCAnPG91dGZpbGUubWFlPic=

> <r_lp_tautomer_probability>
0.839158

> <r_epik_Ionization_Penalty>
0.00280224

> <r_epik_Ionization_Penalty_Charging>
0.00277925

> <r_epik_Ionization_Penalty_Neutral>
2.29856e-05

> <r_epik_State_Penalty>
0.09125

> <r_epik_Charging_Adjusted_Penalty>
0.0940293

> <i_epik_Tot_Q>
1

> <i_epik_Tot_abs_Q>
1

> <r_epik_Metal_State_Penalty>
0.283823

> <b_epik_Metal_Only>
0

> <s_lp_Force_Field>
OPLS_2005

> <r_lp_Energy>
24.1298

> <b_lp_Chiralities_Consistent>
1

> <s_lp_Variant>
AV-unprocessed.smi:1107-2

> <Gold.Version>
5.8.1

> <Gold.Id.Protein>
6NUR|6NUR_protein|mol2

> <Gold.PLP.Fitness>
48.5482

> <Gold.PLP.PLP>
-36.0009

> <Gold.PLP.part.hbond>
-6.0000

> <Gold.PLP.part.metal>
0.0000

> <Gold.PLP.part.buried>
-1.5479

> <Gold.PLP.part.nonpolar>
-28.8677

> <Gold.PLP.part.repulsive>
0.3961

> <Gold.PLP.ligand.clash>
0.0000

> <Gold.PLP.ligand.torsion>
0.5398

> <Gold.PLP.Chemscore.Hbond>
4.4606

> <Gold.PLP.Chemscore.CHOScore>
0.0000

> <Gold.PLP.Chemscore.Metal>
0.0000

> <Gold.Chemscore.Hbonds>
donor molecule, donor type, donor heavy atom, donor atom, acceptor molecule, acceptor atom, score
      L1  H    10    32       P1  7949  0.74
      L1  H    14    49       P1  7948  2.00
      L1  H    22    23       P1  8028  1.00
      P1  H  8011  8017       L1    21  0.46

> <Gold.PLP.Chemscore.Internal.Correction>
0.2452

> <Gold.Rescore>
     Score         DG    S(hbond)    S(metal)    S(lipo)     H(rot)  DE(clash)    DE(int)     intcor
     14.47     -17.03       2.42        0.00      73.10       1.98       0.23       2.33       ----

> <Gold.Chemscore.Fitness>
14.4723

> <Gold.Chemscore.DG>
-17.0349

> <Gold.Chemscore.ZeroCoef>
-5.4800

> <Gold.Chemscore.Hbond>
2.4195

> <Gold.Chemscore.Metal>
0.0000

> <Gold.Chemscore.Lipo>
73.0953

> <Gold.Chemscore.Internal_Hbond>
0.0000

> <Gold.Chemscore.DEClash>
0.2297

> <Gold.Chemscore.DEInternal>
2.3329

> <Gold.Chemscore.Rot>
1.9837

> <Gold.Chemscore.Internal.Correction>
   9.000000E+99

> <Gold.Chemscore.Hbonds>
donor molecule, donor type, donor heavy atom, donor atom, acceptor molecule, acceptor atom, score
      L1  H    10    32       P1  7949  0.09
      L1  H    14    49       P1  7948  0.95
      L1  H    22    23       P1  8028  1.00
      P1  H  8011  8017       L1    21  0.46

> <Gold.Chemscore.Hbond.Weighted>
-8.0811

> <Gold.Chemscore.Metal.Weighted>
-0.0000

> <Gold.Chemscore.Lipo.Weighted>
-8.5522

> <Gold.Chemscore.Internal_Hbond.Weighted>
0.0000

> <Gold.Chemscore.DEClash.Weighted>
0.2297

> <Gold.Chemscore.DEInternal.Weighted>
2.3329

> <Gold.Chemscore.Rot.Weighted>
5.0783

> <Gold.Chemscore.Internal.Correction.Weighted>
   9.000000E+99

> <Gold.Protein.RotatedTorsions>
[ 6907 6896 6895 6894 ] final  -35.67 input  -60.11 | X-H torsion
[ 7974 7965 7964 7962 ] final   43.78 input  175.53 | X-H torsion
[ 8008 7997 7996 7995 ] final   -8.06 input   59.86 | X-H torsion
[ 10167 10162 10161 10158 ] final -109.85 input  -65.29 | X-H torsion
[ 10718 10713 10712 10709 ] final -120.95 input   66.30 | X-H torsion
[ 10763 10752 10751 10750 ] final  132.67 input  -60.55 | X-H torsion
[ 11005 11000 10999 10996 ] final  139.91 input  -57.11 | X-H torsion

> <Gold.Protein.ActiveResidues>
 VAL166  LYS551  ARG553  GLY616  TRP617  ASP618  TYR619  PRO620  LYS621  CYS622 
 ASP623  PHE694  ASN695  SER759  ASP760  ASP761  ALA762  ILE779  LEU786  VAL792 
 PHE793  MET794  SER795  GLU796  ALA797  LYS798  CYS799  TRP800  GLU811  SER814 

> <Gold.Protein.RotatedAtoms>
  151.0369  134.9579  159.8140 H   0  0  0  0  0  0  0  0  0  0  0  0  # atno 6907 bound_to 6896
  152.5356  134.2708  159.8981 H   0  0  0  0  0  0  0  0  0  0  0  0  # atno 6908 bound_to 6896
  151.2719  133.4208  159.2656 H   0  0  0  0  0  0  0  0  0  0  0  0  # atno 6909 bound_to 6896
  146.0625  139.5148  142.9649 H   0  0  0  0  0  0  0  0  0  0  0  0  # atno 7974 bound_to 7965
  154.5778  140.2391  155.8097 H   0  0  0  0  0  0  0  0  0  0  0  0  # atno 8008 bound_to 7997
  156.2156  140.3013  155.9789 H   0  0  0  0  0  0  0  0  0  0  0  0  # atno 8009 bound_to 7997
  155.2596  140.0414  157.2986 H   0  0  0  0  0  0  0  0  0  0  0  0  # atno 8010 bound_to 7997
  140.1508  143.4200  152.1496 H   0  0  0  0  0  0  0  0  0  0  0  0  # atno 10167 bound_to 10162
  156.1298  130.6387  150.9603 H   0  0  0  0  0  0  0  0  0  0  0  0  # atno 10718 bound_to 10713
  153.7946  135.3150  155.3383 H   0  0  0  0  0  0  0  0  0  0  0  0  # atno 10763 bound_to 10752
  154.8112  135.4665  154.0526 H   0  0  0  0  0  0  0  0  0  0  0  0  # atno 10764 bound_to 10752
  153.1854  135.6900  153.8509 H   0  0  0  0  0  0  0  0  0  0  0  0  # atno 10765 bound_to 10752
  140.0288  134.9361  157.0622 H   0  0  0  0  0  0  0  0  0  0  0  0  # atno 11005 bound_to 11000
  145.6534  141.0258  143.1748 LP  0  0  0  0  0  0  0  0  0  0  0  0  # atno 17320 bound_to 7965
  144.7183  139.8118  143.7391 LP  0  0  0  0  0  0  0  0  0  0  0  0  # atno 17321 bound_to 7965
  139.5427  144.7271  151.4683 LP  0  0  0  0  0  0  0  0  0  0  0  0  # atno 17342 bound_to 10162
  140.6703  143.8307  150.6992 LP  0  0  0  0  0  0  0  0  0  0  0  0  # atno 17343 bound_to 10162
  157.6477  131.0901  150.8118 LP  0  0  0  0  0  0  0  0  0  0  0  0  # atno 17370 bound_to 10713
  156.8204  130.4982  149.5344 LP  0  0  0  0  0  0  0  0  0  0  0  0  # atno 17371 bound_to 10713
  140.4260  134.1830  155.7166 LP  0  0  0  0  0  0  0  0  0  0  0  0  # atno 17394 bound_to 11000
  141.1819  133.8396  157.1228 LP  0  0  0  0  0  0  0  0  0  0  0  0  # atno 17395 bound_to 11000

$$$$
