AV-unprocessed.smi:1540|AV-procd|sdf|6198|dock3
  -GOLD-   22720 6363D 1   1.00000     0.00000
 Structure written by MMmdl.
 33 33  0  0  0  0  0  0  0  0  1 V2000
  150.5023  144.9486  160.0898 C   0  0  0  0  0  0  0  0  0  0  0  0
  151.8069  145.2137  159.9255 C   0  0  0  0  0  0  0  0  0  0  0  0
  152.6555  144.6758  158.7952 C   0  0  0  0  0  0  0  0  0  0  0  0
  153.3542  143.5113  159.2179 O   0  0  0  0  0  0  0  0  0  0  0  0
  152.5415  142.4612  159.7365 C   0  0  2  0  0  0  0  0  0  0  0  0
  153.4559  141.2540  159.9921 C   0  0  0  0  0  0  0  0  0  0  0  0
  151.4184  142.1115  158.7464 C   0  0  0  0  0  0  0  0  0  0  0  0
  150.2452  142.2786  159.0787 O   0  0  0  0  0  0  0  0  0  0  0  0
  151.8272  141.6378  157.5526 N   0  0  0  0  0  0  0  0  0  0  0  0
  151.0627  141.1938  156.4608 C   0  0  0  0  0  0  0  0  0  0  0  0
  149.7455  141.4691  156.2722 C   0  0  0  0  0  0  0  0  0  0  0  0
  149.0098  140.9697  155.1225 C   0  0  0  0  0  0  0  0  0  0  0  0
  147.5218  141.2369  154.9537 C   0  0  0  0  0  0  0  0  0  0  0  0
  146.8352  140.1001  154.8299 F   0  0  0  0  0  0  0  0  0  0  0  0
  147.0361  141.9073  155.9987 F   0  0  0  0  0  0  0  0  0  0  0  0
  147.3143  141.9687  153.8599 F   0  0  0  0  0  0  0  0  0  0  0  0
  149.6945  140.1924  154.2634 C   0  0  0  0  0  0  0  0  0  0  0  0
  151.0482  139.9038  154.4505 N   0  0  0  0  0  0  0  0  0  0  0  0
  151.7826  140.3468  155.4954 C   0  0  0  0  0  0  0  0  0  0  0  0
  152.9699  140.0391  155.5952 O   0  0  0  0  0  0  0  0  0  0  0  0
  151.4932  139.3198  153.7571 H   0  0  0  0  0  0  0  0  0  0  0  0
  149.9669  144.3138  159.3992 H   0  0  0  0  0  0  0  0  0  0  0  0
  149.9521  145.3650  160.9207 H   0  0  0  0  0  0  0  0  0  0  0  0
  152.3104  145.8533  160.6357 H   0  0  0  0  0  0  0  0  0  0  0  0
  152.0216  144.4445  157.9377 H   0  0  0  0  0  0  0  0  0  0  0  0
  153.3487  145.4601  158.4905 H   0  0  0  0  0  0  0  0  0  0  0  0
  152.1135  142.7743  160.6909 H   0  0  0  0  0  0  0  0  0  0  0  0
  152.8921  140.4051  160.3807 H   0  0  0  0  0  0  0  0  0  0  0  0
  154.2246  141.5011  160.7246 H   0  0  0  0  0  0  0  0  0  0  0  0
  153.9622  140.9323  159.0810 H   0  0  0  0  0  0  0  0  0  0  0  0
  152.8251  141.6276  157.3966 H   0  0  0  0  0  0  0  0  0  0  0  0
  149.1948  142.0615  156.9844 H   0  0  0  0  0  0  0  0  0  0  0  0
  149.2666  139.7330  153.3844 H   0  0  0  0  0  0  0  0  0  0  0  0
  1  2  2  0  0  0  0
  1 22  1  0  0  0  0
  1 23  1  0  0  0  0
  2  3  1  0  0  0  0
  2 24  1  0  0  0  0
  3  4  1  0  0  0  0
  3 25  1  0  0  0  0
  3 26  1  0  0  0  0
  4  5  1  0  0  0  0
  5  6  1  0  0  0  0
  5  7  1  0  0  0  0
  5 27  1  0  0  0  0
  6 28  1  0  0  0  0
  6 29  1  0  0  0  0
  6 30  1  0  0  0  0
  7  8  2  0  0  0  0
  7  9  1  0  0  0  0
  9 10  1  0  0  0  0
  9 31  1  0  0  0  0
 10 19  1  0  0  0  0
 10 11  2  0  0  0  0
 11 12  1  0  0  0  0
 11 32  1  0  0  0  0
 12 13  1  0  0  0  0
 12 17  2  0  0  0  0
 13 14  1  0  0  0  0
 13 15  1  0  0  0  0
 13 16  1  0  0  0  0
 17 18  1  0  0  0  0
 17 33  1  0  0  0  0
 18 21  1  0  0  0  0
 18 19  1  0  0  0  0
 19 20  2  0  0  0  0
M  END
> <s_m_source_file>
AV-unprocessed.smi

> <i_m_source_file_index>
1540

> <i_lp_mmshare_version>
43012

> <i_f3d_flags>
0

> <s_epik_input>
W0NIMl09W0NIXVtDSDJdT1tDQEhdKFtDSDNdKUMoPU8pW05IXWMxW2NIXWMoQyhGKShGKUYpW2NIXVtuSF1jMT1P

> <s_epik_cmdline>
J2VwaWtfcHl0aG9uJywgJy1waCcsICc3LjAnLCAnLXRuJywgJzgnLCAnLW1hJywgJzIwMCcsICctbWV0YWxfYmluZGluZycsICctaW1hZScsICc8aW5maWxlLm1hZT4nLCAnLW9tYWUnLCAnPG91dGZpbGUubWFlPic=

> <r_lp_tautomer_probability>
0.999

> <r_epik_Ionization_Penalty>
0.0086731

> <r_epik_Ionization_Penalty_Charging>
0.00867296

> <r_epik_Ionization_Penalty_Neutral>
1.3954e-07

> <r_epik_State_Penalty>
0.00654787

> <r_epik_Charging_Adjusted_Penalty>
0.0152208

> <i_epik_Tot_Q>
0

> <i_epik_Tot_abs_Q>
0

> <r_epik_Metal_State_Penalty>
0.320056

> <b_epik_Metal_Only>
0

> <s_lp_Force_Field>
OPLS_2005

> <r_lp_Energy>
17.7944

> <b_lp_Chiralities_Consistent>
1

> <s_lp_Variant>
AV-unprocessed.smi:1540-1

> <Gold.Version>
5.8.1

> <Gold.Id.Protein>
6NUR|6NUR_protein|mol2

> <Gold.PLP.Fitness>
48.2506

> <Gold.PLP.PLP>
-43.4560

> <Gold.PLP.part.hbond>
-1.6028

> <Gold.PLP.part.metal>
0.0000

> <Gold.PLP.part.buried>
-5.7159

> <Gold.PLP.part.nonpolar>
-35.5477

> <Gold.PLP.part.repulsive>
1.2266

> <Gold.PLP.ligand.clash>
0.0000

> <Gold.PLP.ligand.torsion>
0.3862

> <Gold.PLP.Chemscore.Hbond>
1.0000

> <Gold.PLP.Chemscore.CHOScore>
0.8396

> <Gold.PLP.Chemscore.Metal>
0.0000

> <Gold.Chemscore.Hbonds>
donor molecule, donor type, donor heavy atom, donor atom, acceptor molecule, acceptor atom, score
      P1  H  7997  8008       L1    20  0.96
      L1  C    17    33       P1  7957  1.00

> <Gold.PLP.Chemscore.Internal.Correction>
0.0484

> <Gold.Rescore>
     Score         DG    S(hbond)    S(metal)    S(lipo)     H(rot)  DE(clash)    DE(int)     intcor
     12.83     -14.33       1.00        0.00      86.77       1.81       0.04       1.47       ----

> <Gold.Chemscore.Fitness>
12.8251

> <Gold.Chemscore.DG>
-14.3309

> <Gold.Chemscore.ZeroCoef>
-5.4800

> <Gold.Chemscore.Hbond>
0.9964

> <Gold.Chemscore.Metal>
0.0000

> <Gold.Chemscore.Lipo>
86.7726

> <Gold.Chemscore.Internal_Hbond>
0.0000

> <Gold.Chemscore.DEClash>
0.0375

> <Gold.Chemscore.DEInternal>
1.4683

> <Gold.Chemscore.Rot>
1.8084

> <Gold.Chemscore.Internal.Correction>
   9.000000E+99

> <Gold.Chemscore.Hbonds>
donor molecule, donor type, donor heavy atom, donor atom, acceptor molecule, acceptor atom, score
      P1  H  7997  8008       L1    20  0.89

> <Gold.Chemscore.Hbond.Weighted>
-3.3280

> <Gold.Chemscore.Metal.Weighted>
-0.0000

> <Gold.Chemscore.Lipo.Weighted>
-10.1524

> <Gold.Chemscore.Internal_Hbond.Weighted>
0.0000

> <Gold.Chemscore.DEClash.Weighted>
0.0375

> <Gold.Chemscore.DEInternal.Weighted>
1.4683

> <Gold.Chemscore.Rot.Weighted>
4.6296

> <Gold.Chemscore.Internal.Correction.Weighted>
   9.000000E+99

> <Gold.Protein.RotatedTorsions>
[ 6907 6896 6895 6894 ] final   34.73 input  -60.11 | X-H torsion
[ 7974 7965 7964 7962 ] final   61.99 input  175.53 | X-H torsion
[ 8008 7997 7996 7995 ] final  -16.36 input   59.86 | X-H torsion
[ 10167 10162 10161 10158 ] final -117.75 input  -65.29 | X-H torsion
[ 10718 10713 10712 10709 ] final  -65.89 input   66.30 | X-H torsion
[ 10763 10752 10751 10750 ] final  134.27 input  -60.55 | X-H torsion
[ 11005 11000 10999 10996 ] final  167.31 input  -57.11 | X-H torsion

> <Gold.Protein.ActiveResidues>
 VAL166  LYS551  ARG553  GLY616  TRP617  ASP618  TYR619  PRO620  LYS621  CYS622 
 ASP623  PHE694  ASN695  SER759  ASP760  ASP761  ALA762  ILE779  LEU786  VAL792 
 PHE793  MET794  SER795  GLU796  ALA797  LYS798  CYS799  TRP800  GLU811  SER814 

> <Gold.Protein.RotatedAtoms>
  152.1064  134.9305  160.0567 H   0  0  0  0  0  0  0  0  0  0  0  0  # atno 6907 bound_to 6896
  152.0500  133.4010  159.4381 H   0  0  0  0  0  0  0  0  0  0  0  0  # atno 6908 bound_to 6896
  150.6841  134.3239  159.4842 H   0  0  0  0  0  0  0  0  0  0  0  0  # atno 6909 bound_to 6896
  145.8785  139.3426  143.0720 H   0  0  0  0  0  0  0  0  0  0  0  0  # atno 7974 bound_to 7965
  154.5059  140.2171  155.9253 H   0  0  0  0  0  0  0  0  0  0  0  0  # atno 8008 bound_to 7997
  156.1492  140.3164  155.8587 H   0  0  0  0  0  0  0  0  0  0  0  0  # atno 8009 bound_to 7997
  155.3971  140.0482  157.3029 H   0  0  0  0  0  0  0  0  0  0  0  0  # atno 8010 bound_to 7997
  140.0649  143.4932  152.2011 H   0  0  0  0  0  0  0  0  0  0  0  0  # atno 10167 bound_to 10162
  156.0643  130.4254  150.1630 H   0  0  0  0  0  0  0  0  0  0  0  0  # atno 10718 bound_to 10713
  153.8208  135.3116  155.3410 H   0  0  0  0  0  0  0  0  0  0  0  0  # atno 10763 bound_to 10752
  154.8013  135.4725  154.0286 H   0  0  0  0  0  0  0  0  0  0  0  0  # atno 10764 bound_to 10752
  153.1695  135.6875  153.8718 H   0  0  0  0  0  0  0  0  0  0  0  0  # atno 10765 bound_to 10752
  140.2755  134.7792  157.3712 H   0  0  0  0  0  0  0  0  0  0  0  0  # atno 11005 bound_to 11000
  145.9052  140.9216  143.0482 LP  0  0  0  0  0  0  0  0  0  0  0  0  # atno 17320 bound_to 7965
  144.6727  140.1086  143.7456 LP  0  0  0  0  0  0  0  0  0  0  0  0  # atno 17321 bound_to 7965
  139.5871  144.7535  151.3493 LP  0  0  0  0  0  0  0  0  0  0  0  0  # atno 17342 bound_to 10162
  140.7154  143.7281  150.7644 LP  0  0  0  0  0  0  0  0  0  0  0  0  # atno 17343 bound_to 10162
  156.9693  130.9829  151.3462 LP  0  0  0  0  0  0  0  0  0  0  0  0  # atno 17370 bound_to 10713
  157.5674  130.8287  149.8346 LP  0  0  0  0  0  0  0  0  0  0  0  0  # atno 17371 bound_to 10713
  140.1333  134.5067  155.8088 LP  0  0  0  0  0  0  0  0  0  0  0  0  # atno 17394 bound_to 11000
  141.2171  133.6798  156.7078 LP  0  0  0  0  0  0  0  0  0  0  0  0  # atno 17395 bound_to 11000

$$$$
