AV-unprocessed.smi:1550|AV-procd|sdf|6229|dock2
  -GOLD-   22720 6403D 1   1.00000     0.00000
 Structure written by MMmdl.
 42 43  0  0  0  0  0  0  0  0  2 V2000
  146.7033  141.0412  158.0347 C   0  0  0  0  0  0  0  0  0  0  0  0
  147.8817  140.0788  157.8257 C   0  0  1  0  0  0  0  0  0  0  0  0
  149.0339  140.6802  158.4111 O   0  0  0  0  0  0  0  0  0  0  0  0
  149.5458  141.8182  157.7263 C   0  0  0  0  0  0  0  0  0  0  0  0
  150.7181  142.3902  158.5333 C   0  0  2  0  0  0  0  0  0  0  0  0
  151.2793  143.6774  157.8981 C   0  0  0  0  0  0  0  0  0  0  0  0
  152.5062  144.1710  158.6737 C   0  0  0  0  0  0  0  0  0  0  0  0
  153.5297  143.0372  158.7954 C   0  0  0  0  0  0  0  0  0  0  0  0
  152.8642  141.7774  159.3714 C   0  0  0  0  0  0  0  0  0  0  0  0
  151.7506  141.4065  158.5649 O   0  0  0  0  0  0  0  0  0  0  0  0
  147.6079  138.7115  158.4729 C   0  0  0  0  0  0  0  0  0  0  0  0
  146.5204  138.5034  159.0110 O   0  0  0  0  0  0  0  0  0  0  0  0
  148.6174  137.8226  158.3954 N   0  0  0  0  0  0  0  0  0  0  0  0
  148.7099  136.5344  158.9476 C   0  0  0  0  0  0  0  0  0  0  0  0
  148.5606  136.2494  160.2708 C   0  0  0  0  0  0  0  0  0  0  0  0
  148.6925  134.8954  160.7948 C   0  0  0  0  0  0  0  0  0  0  0  0
  148.5355  134.5238  162.2579 C   0  0  0  0  0  0  0  0  0  0  0  0
  149.4665  135.1341  162.9904 F   0  0  0  0  0  0  0  0  0  0  0  0
  147.3409  134.9092  162.7055 F   0  0  0  0  0  0  0  0  0  0  0  0
  148.6499  133.2085  162.4422 F   0  0  0  0  0  0  0  0  0  0  0  0
  148.9923  133.9770  159.8084 C   0  0  0  0  0  0  0  0  0  0  0  0
  149.1653  134.1770  158.4834 N   0  5  0  0  0  0  0  0  0  0  0  0
  149.0372  135.4461  158.0030 C   0  0  0  0  0  0  0  0  0  0  0  0
  149.1880  135.7012  156.8076 O   0  0  0  0  0  0  0  0  0  0  0  0
  145.7809  140.6339  157.6195 H   0  0  0  0  0  0  0  0  0  0  0  0
  146.8923  141.9952  157.5423 H   0  0  0  0  0  0  0  0  0  0  0  0
  146.5341  141.2458  159.0926 H   0  0  0  0  0  0  0  0  0  0  0  0
  148.0421  139.9595  156.7522 H   0  0  0  0  0  0  0  0  0  0  0  0
  149.8751  141.5759  156.7152 H   0  0  0  0  0  0  0  0  0  0  0  0
  148.7538  142.5639  157.6421 H   0  0  0  0  0  0  0  0  0  0  0  0
  150.3804  142.6039  159.5490 H   0  0  0  0  0  0  0  0  0  0  0  0
  151.5581  143.4839  156.8613 H   0  0  0  0  0  0  0  0  0  0  0  0
  150.5151  144.4549  157.8762 H   0  0  0  0  0  0  0  0  0  0  0  0
  152.9504  145.0337  158.1765 H   0  0  0  0  0  0  0  0  0  0  0  0
  152.2037  144.5023  159.6677 H   0  0  0  0  0  0  0  0  0  0  0  0
  153.9449  142.8112  157.8124 H   0  0  0  0  0  0  0  0  0  0  0  0
  154.3640  143.3468  159.4253 H   0  0  0  0  0  0  0  0  0  0  0  0
  153.5764  140.9521  159.3885 H   0  0  0  0  0  0  0  0  0  0  0  0
  152.5428  141.9416  160.4011 H   0  0  0  0  0  0  0  0  0  0  0  0
  149.4162  138.0971  157.8422 H   0  0  0  0  0  0  0  0  0  0  0  0
  148.3620  137.0348  160.9817 H   0  0  0  0  0  0  0  0  0  0  0  0
  149.1136  132.9227  160.1369 H   0  0  0  0  0  0  0  0  0  0  0  0
  1  2  1  0  0  0  0
  1 25  1  0  0  0  0
  1 26  1  0  0  0  0
  1 27  1  0  0  0  0
  2  3  1  0  0  0  0
  2 11  1  0  0  0  0
  2 28  1  0  0  0  0
  3  4  1  0  0  0  0
  4  5  1  0  0  0  0
  4 29  1  0  0  0  0
  4 30  1  0  0  0  0
  5 10  1  0  0  0  0
  5  6  1  0  0  0  0
  5 31  1  0  0  0  0
  6  7  1  0  0  0  0
  6 32  1  0  0  0  0
  6 33  1  0  0  0  0
  7  8  1  0  0  0  0
  7 34  1  0  0  0  0
  7 35  1  0  0  0  0
  8  9  1  0  0  0  0
  8 36  1  0  0  0  0
  8 37  1  0  0  0  0
  9 10  1  0  0  0  0
  9 38  1  0  0  0  0
  9 39  1  0  0  0  0
 11 12  2  0  0  0  0
 11 13  1  0  0  0  0
 13 14  1  0  0  0  0
 13 40  1  0  0  0  0
 14 23  1  0  0  0  0
 14 15  2  0  0  0  0
 15 16  1  0  0  0  0
 15 41  1  0  0  0  0
 16 17  1  0  0  0  0
 16 21  2  0  0  0  0
 17 18  1  0  0  0  0
 17 19  1  0  0  0  0
 17 20  1  0  0  0  0
 21 22  1  0  0  0  0
 21 42  1  0  0  0  0
 22 23  1  0  0  0  0
 23 24  2  0  0  0  0
M  CHG  1  22  -1
M  END
> <s_m_source_file>
AV-unprocessed.smi

> <i_m_source_file_index>
1550

> <i_lp_mmshare_version>
43012

> <i_f3d_flags>
0

> <s_epik_input>
TzFbQ0gyXVtDSDJdW0NIMl1bQ0gyXVtDQEhdMVtDSDJdT1tDQEBIXShbQ0gzXSlDKD1PKVtOSF1jMltjSF1jKEMoRikoRilGKVtjSF1bbkhdYzI9Tw==

> <s_epik_cmdline>
J2VwaWtfcHl0aG9uJywgJy1waCcsICc3LjAnLCAnLXRuJywgJzgnLCAnLW1hJywgJzIwMCcsICctbWV0YWxfYmluZGluZycsICctaW1hZScsICc8aW5maWxlLm1hZT4nLCAnLW9tYWUnLCAnPG91dGZpbGUubWFlPic=

> <r_epik_Ionization_Penalty>
2.54933

> <r_epik_Ionization_Penalty_Charging>
0.0583423

> <r_epik_Ionization_Penalty_Neutral>
2.49099

> <r_epik_State_Penalty>
2.65532

> <r_epik_Charging_Adjusted_Penalty>
2.71366

> <i_epik_Tot_Q>
-1

> <i_epik_Tot_abs_Q>
1

> <r_epik_Metal_State_Penalty>
0.516364

> <b_epik_Metal_Only>
0

> <s_lp_Force_Field>
OPLS_2005

> <r_lp_Energy>
27.7266

> <b_lp_Chiralities_Consistent>
1

> <s_lp_Variant>
AV-unprocessed.smi:1550-6

> <Gold.Version>
5.8.1

> <Gold.Id.Protein>
6NUR|6NUR_protein|mol2

> <Gold.PLP.Fitness>
47.9191

> <Gold.PLP.PLP>
-43.0782

> <Gold.PLP.part.hbond>
-1.0000

> <Gold.PLP.part.metal>
0.0000

> <Gold.PLP.part.buried>
-5.9559

> <Gold.PLP.part.nonpolar>
-37.6676

> <Gold.PLP.part.repulsive>
0.1476

> <Gold.PLP.ligand.clash>
0.0000

> <Gold.PLP.ligand.torsion>
0.6197

> <Gold.PLP.Chemscore.Hbond>
2.0000

> <Gold.PLP.Chemscore.CHOScore>
0.0000

> <Gold.PLP.Chemscore.Metal>
0.0000

> <Gold.Chemscore.Hbonds>
donor molecule, donor type, donor heavy atom, donor atom, acceptor molecule, acceptor atom, score
      P1  H  6934  6947       L1    12  0.26

> <Gold.PLP.Chemscore.Internal.Correction>
0.0803

> <Gold.Rescore>
     Score         DG    S(hbond)    S(metal)    S(lipo)     H(rot)  DE(clash)    DE(int)     intcor
     11.58     -12.66       0.26        0.00      93.92       1.82       0.03       1.05       ----

> <Gold.Chemscore.Fitness>
11.5773

> <Gold.Chemscore.DG>
-12.6570

> <Gold.Chemscore.ZeroCoef>
-5.4800

> <Gold.Chemscore.Hbond>
0.2566

> <Gold.Chemscore.Metal>
0.0000

> <Gold.Chemscore.Lipo>
93.9173

> <Gold.Chemscore.Internal_Hbond>
0.0000

> <Gold.Chemscore.DEClash>
0.0281

> <Gold.Chemscore.DEInternal>
1.0516

> <Gold.Chemscore.Rot>
1.8236

> <Gold.Chemscore.Internal.Correction>
   9.000000E+99

> <Gold.Chemscore.Hbonds>
donor molecule, donor type, donor heavy atom, donor atom, acceptor molecule, acceptor atom, score
      P1  H  6934  6947       L1    12  0.03

> <Gold.Chemscore.Hbond.Weighted>
-0.8570

> <Gold.Chemscore.Metal.Weighted>
-0.0000

> <Gold.Chemscore.Lipo.Weighted>
-10.9883

> <Gold.Chemscore.Internal_Hbond.Weighted>
0.0000

> <Gold.Chemscore.DEClash.Weighted>
0.0281

> <Gold.Chemscore.DEInternal.Weighted>
1.0516

> <Gold.Chemscore.Rot.Weighted>
4.6684

> <Gold.Chemscore.Internal.Correction.Weighted>
   9.000000E+99

> <Gold.Protein.RotatedTorsions>
[ 6907 6896 6895 6894 ] final   20.73 input  -60.11 | X-H torsion
[ 7974 7965 7964 7962 ] final   89.30 input  175.53 | X-H torsion
[ 8008 7997 7996 7995 ] final   -9.98 input   59.86 | X-H torsion
[ 10167 10162 10161 10158 ] final  -99.95 input  -65.29 | X-H torsion
[ 10718 10713 10712 10709 ] final  -96.50 input   66.30 | X-H torsion
[ 10763 10752 10751 10750 ] final  -58.05 input  -60.55 | X-H torsion
[ 11005 11000 10999 10996 ] final -109.03 input  -57.11 | X-H torsion

> <Gold.Protein.ActiveResidues>
 VAL166  LYS551  ARG553  GLY616  TRP617  ASP618  TYR619  PRO620  LYS621  CYS622 
 ASP623  PHE694  ASN695  SER759  ASP760  ASP761  ALA762  ILE779  LEU786  VAL792 
 PHE793  MET794  SER795  GLU796  ALA797  LYS798  CYS799  TRP800  GLU811  SER814 

> <Gold.Protein.RotatedAtoms>
  151.9009  135.0378  160.0506 H   0  0  0  0  0  0  0  0  0  0  0  0  # atno 6907 bound_to 6896
  152.2359  133.5091  159.5250 H   0  0  0  0  0  0  0  0  0  0  0  0  # atno 6908 bound_to 6896
  150.7039  134.1071  159.4029 H   0  0  0  0  0  0  0  0  0  0  0  0  # atno 6909 bound_to 6896
  145.5342  139.2285  143.2601 H   0  0  0  0  0  0  0  0  0  0  0  0  # atno 7974 bound_to 7965
  154.5597  140.2341  155.8355 H   0  0  0  0  0  0  0  0  0  0  0  0  # atno 8008 bound_to 7997
  156.2018  140.3050  155.9503 H   0  0  0  0  0  0  0  0  0  0  0  0  # atno 8009 bound_to 7997
  155.2913  140.0427  157.3014 H   0  0  0  0  0  0  0  0  0  0  0  0  # atno 8010 bound_to 7997
  140.2571  143.3433  152.0661 H   0  0  0  0  0  0  0  0  0  0  0  0  # atno 10167 bound_to 10162
  156.0063  130.5154  150.6234 H   0  0  0  0  0  0  0  0  0  0  0  0  # atno 10718 bound_to 10713
  154.2320  135.6359  153.5178 H   0  0  0  0  0  0  0  0  0  0  0  0  # atno 10763 bound_to 10752
  152.9947  135.5521  154.6002 H   0  0  0  0  0  0  0  0  0  0  0  0  # atno 10764 bound_to 10752
  154.5487  135.2900  155.1002 H   0  0  0  0  0  0  0  0  0  0  0  0  # atno 10765 bound_to 10752
  141.0870  133.9122  157.2163 H   0  0  0  0  0  0  0  0  0  0  0  0  # atno 11005 bound_to 11000
  146.2024  140.6160  142.9096 LP  0  0  0  0  0  0  0  0  0  0  0  0  # atno 17320 bound_to 7965
  144.7610  140.5421  143.6736 LP  0  0  0  0  0  0  0  0  0  0  0  0  # atno 17321 bound_to 7965
  139.5028  144.6742  151.6168 LP  0  0  0  0  0  0  0  0  0  0  0  0  # atno 17342 bound_to 10162
  140.5995  143.9635  150.6377 LP  0  0  0  0  0  0  0  0  0  0  0  0  # atno 17343 bound_to 10162
  157.4046  131.0815  151.1277 LP  0  0  0  0  0  0  0  0  0  0  0  0  # atno 17370 bound_to 10713
  157.1928  130.6360  149.5710 LP  0  0  0  0  0  0  0  0  0  0  0  0  # atno 17371 bound_to 10713
  139.9689  135.0134  156.9461 LP  0  0  0  0  0  0  0  0  0  0  0  0  # atno 17394 bound_to 11000
  140.5340  134.0785  155.7323 LP  0  0  0  0  0  0  0  0  0  0  0  0  # atno 17395 bound_to 11000

$$$$
