AV-unprocessed.smi:25|AV-procd|sdf|179|dock9
  -GOLD-   2262015443D 1   1.00000     0.00000
 Structure written by MMmdl.
 47 50  0  0  0  0  0  0  0  0  1 V2000
  149.9903  139.8279  155.7156 C   0  0  0  0  0  0  0  0  0  0  0  0
  149.7485  140.3654  157.1404 C   0  0  2  0  0  0  0  0  0  0  0  0
  150.2358  141.8248  157.2835 C   0  0  0  0  0  0  0  0  0  0  0  0
  151.3553  141.7158  158.2720 C   0  0  0  0  0  0  0  0  0  0  0  0
  152.2029  142.7609  158.6781 C   0  0  0  0  0  0  0  0  0  0  0  0
  153.2284  142.4706  159.6001 C   0  0  0  0  0  0  0  0  0  0  0  0
  153.3924  141.1549  160.0860 C   0  0  0  0  0  0  0  0  0  0  0  0
  152.5314  140.1174  159.6661 C   0  0  0  0  0  0  0  0  0  0  0  0
  151.4893  140.4149  158.7546 C   0  0  0  0  0  0  0  0  0  0  0  0
  150.4884  139.5868  158.1608 N   0  0  0  0  0  0  0  0  0  0  0  0
  150.0744  138.3370  158.5094 C   0  0  0  0  0  0  0  0  0  0  0  0
  150.6641  137.6944  159.3818 O   0  0  0  0  0  0  0  0  0  0  0  0
  148.8751  137.6669  157.8111 C   0  0  0  0  0  0  0  0  0  0  0  0
  148.4830  136.3690  158.4088 N   0  0  0  0  0  0  0  0  0  0  0  0
  148.5234  135.2069  157.5976 C   0  0  0  0  0  0  0  0  0  0  0  0
  148.8663  135.2645  156.4157 O   0  0  0  0  0  0  0  0  0  0  0  0
  148.1475  133.9624  158.2592 C   0  0  0  0  0  0  0  0  0  0  0  0
  148.1646  132.8096  157.5688 F   0  0  0  0  0  0  0  0  0  0  0  0
  147.7858  133.9484  159.5584 C   0  0  0  0  0  0  0  0  0  0  0  0
  147.7458  135.0903  160.3365 N   0  0  0  0  0  0  0  0  0  0  0  0
  147.3509  135.0276  161.7942 C   0  0  2  0  0  0  0  0  0  0  0  0
  147.1013  133.5743  162.2152 C   0  0  0  0  0  0  0  0  0  0  0  0
  145.5937  133.4726  162.1246 C   0  0  0  0  0  0  0  0  0  0  0  0
  145.1677  134.8783  162.5298 C   0  0  0  0  0  0  0  0  0  0  0  0
  146.1573  135.7355  161.9708 O   0  0  0  0  0  0  0  0  0  0  0  0
  148.1158  136.3318  159.7760 C   0  0  0  0  0  0  0  0  0  0  0  0
  148.1303  137.3540  160.4652 O   0  0  0  0  0  0  0  0  0  0  0  0
  149.4853  140.4493  154.9757 H   0  0  0  0  0  0  0  0  0  0  0  0
  149.6146  138.8125  155.5917 H   0  0  0  0  0  0  0  0  0  0  0  0
  151.0534  139.8206  155.4723 H   0  0  0  0  0  0  0  0  0  0  0  0
  148.6785  140.3357  157.3551 H   0  0  0  0  0  0  0  0  0  0  0  0
  150.5910  142.2501  156.3440 H   0  0  0  0  0  0  0  0  0  0  0  0
  149.4534  142.4708  157.6829 H   0  0  0  0  0  0  0  0  0  0  0  0
  152.0758  143.7608  158.2899 H   0  0  0  0  0  0  0  0  0  0  0  0
  153.8961  143.2535  159.9284 H   0  0  0  0  0  0  0  0  0  0  0  0
  154.1887  140.9390  160.7831 H   0  0  0  0  0  0  0  0  0  0  0  0
  152.7201  139.1337  160.0557 H   0  0  0  0  0  0  0  0  0  0  0  0
  148.0308  138.3550  157.8438 H   0  0  0  0  0  0  0  0  0  0  0  0
  149.1092  137.5306  156.7549 H   0  0  0  0  0  0  0  0  0  0  0  0
  147.5239  132.9981  159.9993 H   0  0  0  0  0  0  0  0  0  0  0  0
  148.1479  135.5180  162.3552 H   0  0  0  0  0  0  0  0  0  0  0  0
  147.6340  132.8603  161.5856 H   0  0  0  0  0  0  0  0  0  0  0  0
  147.4310  133.4501  163.2474 H   0  0  0  0  0  0  0  0  0  0  0  0
  145.2893  133.2657  161.0981 H   0  0  0  0  0  0  0  0  0  0  0  0
  145.1767  132.6978  162.7682 H   0  0  0  0  0  0  0  0  0  0  0  0
  144.1688  135.1351  162.1773 H   0  0  0  0  0  0  0  0  0  0  0  0
  145.1842  134.9823  163.6154 H   0  0  0  0  0  0  0  0  0  0  0  0
  1  2  1  0  0  0  0
  1 28  1  0  0  0  0
  1 29  1  0  0  0  0
  1 30  1  0  0  0  0
  2 10  1  0  0  0  0
  2  3  1  0  0  0  0
  2 31  1  0  0  0  0
  3  4  1  0  0  0  0
  3 32  1  0  0  0  0
  3 33  1  0  0  0  0
  4  9  2  0  0  0  0
  4  5  1  0  0  0  0
  5  6  2  0  0  0  0
  5 34  1  0  0  0  0
  6  7  1  0  0  0  0
  6 35  1  0  0  0  0
  7  8  2  0  0  0  0
  7 36  1  0  0  0  0
  8  9  1  0  0  0  0
  8 37  1  0  0  0  0
  9 10  1  0  0  0  0
 10 11  1  0  0  0  0
 11 12  2  0  0  0  0
 11 13  1  0  0  0  0
 13 14  1  0  0  0  0
 13 38  1  0  0  0  0
 13 39  1  0  0  0  0
 14 26  1  0  0  0  0
 14 15  1  0  0  0  0
 15 16  2  0  0  0  0
 15 17  1  0  0  0  0
 17 18  1  0  0  0  0
 17 19  2  0  0  0  0
 19 20  1  0  0  0  0
 19 40  1  0  0  0  0
 20 21  1  0  0  0  0
 20 26  1  0  0  0  0
 21 25  1  0  0  0  0
 21 22  1  0  0  0  0
 21 41  1  0  0  0  0
 22 23  1  0  0  0  0
 22 42  1  0  0  0  0
 22 43  1  0  0  0  0
 23 24  1  0  0  0  0
 23 44  1  0  0  0  0
 23 45  1  0  0  0  0
 24 25  1  0  0  0  0
 24 46  1  0  0  0  0
 24 47  1  0  0  0  0
 26 27  2  0  0  0  0
M  END
> <s_m_source_file>
AV-unprocessed.smi

> <i_m_source_file_index>
25

> <i_lp_mmshare_version>
43012

> <i_f3d_flags>
0

> <s_epik_input>
W2NIXTFbY0hdW2NIXVtjSF1jKGMxMilOKFtDQEhdKFtDSDNdKVtDSDJdMilDKD1PKVtDSDJdbjNjKD1PKWMoRilbY0hdbihjMz1PKVtDQEBIXTRbQ0gyXVtDSDJdW0NIMl1PNA==

> <s_epik_cmdline>
J2VwaWtfcHl0aG9uJywgJy1waCcsICc3LjAnLCAnLXRuJywgJzgnLCAnLW1hJywgJzIwMCcsICctbWV0YWxfYmluZGluZycsICctaW1hZScsICc8aW5maWxlLm1hZT4nLCAnLW9tYWUnLCAnPG91dGZpbGUubWFlPic=

> <r_lp_tautomer_probability>
1

> <r_epik_Ionization_Penalty>
1.67943e-06

> <r_epik_Ionization_Penalty_Charging>
3.79603e-09

> <r_epik_Ionization_Penalty_Neutral>
1.67563e-06

> <r_epik_State_Penalty>
-0

> <r_epik_Charging_Adjusted_Penalty>
3.79603e-09

> <i_epik_Tot_Q>
0

> <i_epik_Tot_abs_Q>
0

> <r_epik_Metal_State_Penalty>
-0

> <b_epik_Metal_Only>
0

> <s_epik_Chemistry_Notes>
This compound contains an acetal/aminal-like group ( X-CH(R)-Y where X, Y are N, S, or O) that may be acid/base labile, releasing an aldehyde.

> <s_lp_Force_Field>
OPLS_2005

> <r_lp_Energy>
56.1974

> <b_lp_Chiralities_Consistent>
1

> <s_lp_Variant>
AV-unprocessed.smi:25-1

> <Gold.Version>
5.8.1

> <Gold.Id.Protein>
6NUR|6NUR_protein|mol2

> <Gold.PLP.Fitness>
48.9465

> <Gold.PLP.PLP>
-45.7043

> <Gold.PLP.part.hbond>
-2.5072

> <Gold.PLP.part.metal>
0.0000

> <Gold.PLP.part.buried>
-5.1503

> <Gold.PLP.part.nonpolar>
-38.4381

> <Gold.PLP.part.repulsive>
0.0044

> <Gold.PLP.ligand.clash>
0.0000

> <Gold.PLP.ligand.torsion>
0.0994

> <Gold.PLP.Chemscore.Hbond>
1.1360

> <Gold.PLP.Chemscore.CHOScore>
0.0000

> <Gold.PLP.Chemscore.Metal>
0.0000

> <Gold.Chemscore.Hbonds>
donor molecule, donor type, donor heavy atom, donor atom, acceptor molecule, acceptor atom, score
      P1  H  6931  6943       L1    27  0.67
      P1  H  6934  6947       L1    27  0.66

> <Gold.PLP.Chemscore.Internal.Correction>
0.0329

> <Gold.Rescore>
     Score         DG    S(hbond)    S(metal)    S(lipo)     H(rot)  DE(clash)    DE(int)     intcor
     19.57     -20.94       2.51        0.00      94.40       1.55       0.10       1.27       ----

> <Gold.Chemscore.Fitness>
19.5653

> <Gold.Chemscore.DG>
-20.9373

> <Gold.Chemscore.ZeroCoef>
-5.4800

> <Gold.Chemscore.Hbond>
2.5083

> <Gold.Chemscore.Metal>
0.0000

> <Gold.Chemscore.Lipo>
94.3982

> <Gold.Chemscore.Internal_Hbond>
0.0000

> <Gold.Chemscore.DEClash>
0.1030

> <Gold.Chemscore.DEInternal>
1.2689

> <Gold.Chemscore.Rot>
1.5489

> <Gold.Chemscore.Internal.Correction>
   9.000000E+99

> <Gold.Chemscore.Hbonds>
donor molecule, donor type, donor heavy atom, donor atom, acceptor molecule, acceptor atom, score
      P1  H  6931  6943       L1    27  0.68
      P1  H  6934  6947       L1    27  0.65

> <Gold.Chemscore.Hbond.Weighted>
-8.3778

> <Gold.Chemscore.Metal.Weighted>
-0.0000

> <Gold.Chemscore.Lipo.Weighted>
-11.0446

> <Gold.Chemscore.Internal_Hbond.Weighted>
0.0000

> <Gold.Chemscore.DEClash.Weighted>
0.1030

> <Gold.Chemscore.DEInternal.Weighted>
1.2689

> <Gold.Chemscore.Rot.Weighted>
3.9651

> <Gold.Chemscore.Internal.Correction.Weighted>
   9.000000E+99

> <Gold.Protein.RotatedTorsions>
[ 6907 6896 6895 6894 ] final  -19.99 input  -60.11 | X-H torsion
[ 7974 7965 7964 7962 ] final  -82.08 input  175.53 | X-H torsion
[ 8008 7997 7996 7995 ] final -164.18 input   59.86 | X-H torsion
[ 10167 10162 10161 10158 ] final  -84.33 input  -65.29 | X-H torsion
[ 10718 10713 10712 10709 ] final  -39.35 input   66.30 | X-H torsion
[ 10763 10752 10751 10750 ] final -177.02 input  -60.55 | X-H torsion
[ 11005 11000 10999 10996 ] final  166.55 input  -57.11 | X-H torsion

> <Gold.Protein.ActiveResidues>
 VAL166  LYS551  ARG553  GLY616  TRP617  ASP618  TYR619  PRO620  LYS621  CYS622 
 ASP623  PHE694  ASN695  SER759  ASP760  ASP761  ALA762  ILE779  LEU786  VAL792 
 PHE793  MET794  SER795  GLU796  ALA797  LYS798  CYS799  TRP800  GLU811  SER814 

> <Gold.Protein.RotatedAtoms>
  151.2548  135.0634  159.9075 H   0  0  0  0  0  0  0  0  0  0  0  0  # atno 6907 bound_to 6896
  152.5375  134.0293  159.8028 H   0  0  0  0  0  0  0  0  0  0  0  0  # atno 6908 bound_to 6896
  151.0507  133.5577  159.2674 H   0  0  0  0  0  0  0  0  0  0  0  0  # atno 6909 bound_to 6896
  145.5381  140.9513  143.1566 H   0  0  0  0  0  0  0  0  0  0  0  0  # atno 7974 bound_to 7965
  155.8319  140.0935  157.1787 H   0  0  0  0  0  0  0  0  0  0  0  0  # atno 8008 bound_to 7997
  154.3980  140.1417  156.3685 H   0  0  0  0  0  0  0  0  0  0  0  0  # atno 8009 bound_to 7997
  155.8156  140.3448  155.5486 H   0  0  0  0  0  0  0  0  0  0  0  0  # atno 8010 bound_to 7997
  140.4142  143.2610  151.8977 H   0  0  0  0  0  0  0  0  0  0  0  0  # atno 10167 bound_to 10162
  156.2934  130.4231  149.8215 H   0  0  0  0  0  0  0  0  0  0  0  0  # atno 10718 bound_to 10713
  154.5653  135.2823  155.0880 H   0  0  0  0  0  0  0  0  0  0  0  0  # atno 10763 bound_to 10752
  154.2274  135.6380  153.5168 H   0  0  0  0  0  0  0  0  0  0  0  0  # atno 10764 bound_to 10752
  153.0041  135.5529  154.6259 H   0  0  0  0  0  0  0  0  0  0  0  0  # atno 10765 bound_to 10752
  140.2676  134.7852  157.3646 H   0  0  0  0  0  0  0  0  0  0  0  0  # atno 11005 bound_to 11000
  144.7591  139.7001  143.7242 LP  0  0  0  0  0  0  0  0  0  0  0  0  # atno 17320 bound_to 7965
  146.1999  139.5288  142.9750 LP  0  0  0  0  0  0  0  0  0  0  0  0  # atno 17321 bound_to 7965
  139.4782  144.5505  151.8393 LP  0  0  0  0  0  0  0  0  0  0  0  0  # atno 17342 bound_to 10162
  140.4604  144.1730  150.5906 LP  0  0  0  0  0  0  0  0  0  0  0  0  # atno 17343 bound_to 10162
  156.5620  130.8387  151.3331 LP  0  0  0  0  0  0  0  0  0  0  0  0  # atno 17370 bound_to 10713
  157.7349  130.9753  150.2051 LP  0  0  0  0  0  0  0  0  0  0  0  0  # atno 17371 bound_to 10713
  140.1404  134.4979  155.8036 LP  0  0  0  0  0  0  0  0  0  0  0  0  # atno 17394 bound_to 11000
  141.2182  133.6823  156.7200 LP  0  0  0  0  0  0  0  0  0  0  0  0  # atno 17395 bound_to 11000

$$$$
