AV-unprocessed.smi:3341|AV-procd|sdf|12884|dock5
  -GOLD-   2272019293D 1   1.00000     0.00000
 Structure written by MMmdl.
 46 47  0  0  0  0  0  0  0  0  2 V2000
  152.6851  142.2514  158.7547 C   0  0  0  0  0  0  0  0  0  0  0  0
  151.8187  142.8497  157.6403 C   0  0  0  0  0  0  0  0  0  0  0  0
  151.3917  141.8396  156.6921 N   0  0  0  0  0  0  0  0  0  0  0  0
  150.3652  141.9127  155.7713 C   0  0  0  0  0  0  0  0  0  0  0  0
  150.3705  140.7137  155.1163 C   0  0  0  0  0  0  0  0  0  0  0  0
  149.5270  140.2539  154.0735 N   0  0  0  0  0  0  0  0  0  0  0  0
  148.2330  139.9067  154.1653 C   0  0  0  0  0  0  0  0  0  0  0  0
  147.5628  139.9333  155.1977 O   0  0  0  0  0  0  0  0  0  0  0  0
  147.7450  139.5177  152.9787 N   0  0  0  0  0  0  0  0  0  0  0  0
  146.3699  139.0934  152.7413 C   0  0  0  0  0  0  0  0  0  0  0  0
  145.9566  137.9522  153.6911 C   0  0  0  0  0  0  0  0  0  0  0  0
  145.6276  136.7019  152.9613 N   0  3  2  0  0  0  0  0  0  0  0  0
  144.6499  136.9307  151.8665 C   0  0  0  0  0  0  0  0  0  0  0  0
  144.4483  135.6587  151.0282 C   0  0  0  0  0  0  0  0  0  0  0  0
  144.0187  134.4791  151.9113 C   0  0  0  0  0  0  0  0  0  0  0  0
  144.9955  134.2751  153.0839 C   0  0  1  0  0  0  0  0  0  0  0  0
  146.3317  133.6499  152.6462 C   0  0  0  0  0  0  0  0  0  0  0  0
  145.1953  135.5949  153.8576 C   0  0  0  0  0  0  0  0  0  0  0  0
  151.4273  139.9624  155.6932 C   0  0  0  0  0  0  0  0  0  0  0  0
  152.0405  140.6499  156.6445 N   0  0  0  0  0  0  0  0  0  0  0  0
  153.0037  143.0238  159.4548 H   0  0  0  0  0  0  0  0  0  0  0  0
  153.5807  141.7814  158.3471 H   0  0  0  0  0  0  0  0  0  0  0  0
  152.1368  141.4969  159.3194 H   0  0  0  0  0  0  0  0  0  0  0  0
  150.9363  143.3325  158.0627 H   0  0  0  0  0  0  0  0  0  0  0  0
  152.3746  143.6192  157.1035 H   0  0  0  0  0  0  0  0  0  0  0  0
  149.7455  142.7914  155.6729 H   0  0  0  0  0  0  0  0  0  0  0  0
  149.9543  140.1873  153.1611 H   0  0  0  0  0  0  0  0  0  0  0  0
  148.3655  139.5274  152.1820 H   0  0  0  0  0  0  0  0  0  0  0  0
  145.6946  139.9441  152.8497 H   0  0  0  0  0  0  0  0  0  0  0  0
  146.3055  138.7775  151.7009 H   0  0  0  0  0  0  0  0  0  0  0  0
  146.7365  137.7576  154.4292 H   0  0  0  0  0  0  0  0  0  0  0  0
  145.0781  138.2752  154.2519 H   0  0  0  0  0  0  0  0  0  0  0  0
  143.6990  137.2604  152.2882 H   0  0  0  0  0  0  0  0  0  0  0  0
  145.0027  137.7311  151.2149 H   0  0  0  0  0  0  0  0  0  0  0  0
  143.6971  135.8371  150.2583 H   0  0  0  0  0  0  0  0  0  0  0  0
  145.3714  135.4144  150.5016 H   0  0  0  0  0  0  0  0  0  0  0  0
  143.0209  134.6759  152.3059 H   0  0  0  0  0  0  0  0  0  0  0  0
  143.9367  133.5687  151.3166 H   0  0  0  0  0  0  0  0  0  0  0  0
  144.5342  133.5619  153.7683 H   0  0  0  0  0  0  0  0  0  0  0  0
  146.8910  134.3069  151.9802 H   0  0  0  0  0  0  0  0  0  0  0  0
  146.1703  132.7069  152.1230 H   0  0  0  0  0  0  0  0  0  0  0  0
  146.9653  133.4401  153.5083 H   0  0  0  0  0  0  0  0  0  0  0  0
  145.9225  135.4364  154.6532 H   0  0  0  0  0  0  0  0  0  0  0  0
  144.2619  135.8792  154.3462 H   0  0  0  0  0  0  0  0  0  0  0  0
  151.7639  138.9635  155.4587 H   0  0  0  0  0  0  0  0  0  0  0  0
  146.4818  136.4020  152.5133 H   0  0  0  0  0  0  0  0  0  0  0  0
  1  2  1  0  0  0  0
  1 21  1  0  0  0  0
  1 22  1  0  0  0  0
  1 23  1  0  0  0  0
  2  3  1  0  0  0  0
  2 24  1  0  0  0  0
  2 25  1  0  0  0  0
  3 20  1  0  0  0  0
  3  4  1  0  0  0  0
  4  5  2  0  0  0  0
  4 26  1  0  0  0  0
  5  6  1  0  0  0  0
  5 19  1  0  0  0  0
  6  7  1  0  0  0  0
  6 27  1  0  0  0  0
  7  8  2  0  0  0  0
  7  9  1  0  0  0  0
  9 10  1  0  0  0  0
  9 28  1  0  0  0  0
 10 11  1  0  0  0  0
 10 29  1  0  0  0  0
 10 30  1  0  0  0  0
 11 12  1  0  0  0  0
 11 31  1  0  0  0  0
 11 32  1  0  0  0  0
 12 18  1  0  0  0  0
 12 13  1  0  0  0  0
 12 46  1  0  0  0  0
 13 14  1  0  0  0  0
 13 33  1  0  0  0  0
 13 34  1  0  0  0  0
 14 15  1  0  0  0  0
 14 35  1  0  0  0  0
 14 36  1  0  0  0  0
 15 16  1  0  0  0  0
 15 37  1  0  0  0  0
 15 38  1  0  0  0  0
 16 17  1  0  0  0  0
 16 18  1  0  0  0  0
 16 39  1  0  0  0  0
 17 40  1  0  0  0  0
 17 41  1  0  0  0  0
 17 42  1  0  0  0  0
 18 43  1  0  0  0  0
 18 44  1  0  0  0  0
 19 20  2  0  0  0  0
 19 45  1  0  0  0  0
M  CHG  1  12   1
M  END
> <s_m_source_file>
AV-unprocessed.smi

> <i_m_source_file_index>
3341

> <i_lp_mmshare_version>
43012

> <i_f3d_flags>
0

> <s_epik_input>
W0NIM11bQ0gyXW4xW2NIXWMoW2NIXW4xKVtOSF1DKD1PKVtOSF1bQ0gyXVtDSDJdTjJbQ0gyXVtDSDJdW0NIMl1bQ0BASF0oW0NIM10pW0NIMl0y

> <s_epik_cmdline>
J2VwaWtfcHl0aG9uJywgJy1waCcsICc3LjAnLCAnLXRuJywgJzgnLCAnLW1hJywgJzIwMCcsICctbWV0YWxfYmluZGluZycsICctaW1hZScsICc8aW5maWxlLm1hZT4nLCAnLW9tYWUnLCAnPG91dGZpbGUubWFlPic=

> <r_lp_tautomer_probability>
1

> <r_epik_Ionization_Penalty>
0.00203389

> <r_epik_Ionization_Penalty_Charging>
0.00188267

> <r_epik_Ionization_Penalty_Neutral>
0.000151224

> <r_epik_State_Penalty>
0.0012808

> <r_epik_Charging_Adjusted_Penalty>
0.00316346

> <i_epik_Tot_Q>
1

> <i_epik_Tot_abs_Q>
1

> <r_epik_Metal_State_Penalty>
-0

> <b_epik_Metal_Only>
0

> <s_lp_Force_Field>
OPLS_2005

> <r_lp_Energy>
23.1402

> <b_lp_Chiralities_Consistent>
1

> <s_lp_Variant>
AV-unprocessed.smi:3341-2

> <Gold.Version>
5.8.1

> <Gold.Id.Protein>
6NUR|6NUR_protein|mol2

> <Gold.PLP.Fitness>
48.0522

> <Gold.PLP.PLP>
-34.4986

> <Gold.PLP.part.hbond>
-4.0944

> <Gold.PLP.part.metal>
0.0000

> <Gold.PLP.part.buried>
-1.5603

> <Gold.PLP.part.nonpolar>
-28.4832

> <Gold.PLP.part.repulsive>
0.2552

> <Gold.PLP.ligand.clash>
0.0000

> <Gold.PLP.ligand.torsion>
1.3197

> <Gold.PLP.Chemscore.Hbond>
4.3955

> <Gold.PLP.Chemscore.CHOScore>
0.9939

> <Gold.PLP.Chemscore.Metal>
0.0000

> <Gold.Chemscore.Hbonds>
donor molecule, donor type, donor heavy atom, donor atom, acceptor molecule, acceptor atom, score
      L1  H     6    27       P1  7957  0.90
      L1  H     9    28       P1  7957  1.00
      P1  H  7997  8008       L1    20  0.16
      L1  C     4    26       P1  8028  1.00

> <Gold.PLP.Chemscore.Internal.Correction>
0.0248

> <Gold.Rescore>
     Score         DG    S(hbond)    S(metal)    S(lipo)     H(rot)  DE(clash)    DE(int)     intcor
     17.81     -20.19       2.68        0.00      83.98       1.59       0.21       2.17       ----

> <Gold.Chemscore.Fitness>
17.8143

> <Gold.Chemscore.DG>
-20.1941

> <Gold.Chemscore.ZeroCoef>
-5.4800

> <Gold.Chemscore.Hbond>
2.6829

> <Gold.Chemscore.Metal>
0.0000

> <Gold.Chemscore.Lipo>
83.9836

> <Gold.Chemscore.Internal_Hbond>
0.0000

> <Gold.Chemscore.DEClash>
0.2107

> <Gold.Chemscore.DEInternal>
2.1691

> <Gold.Chemscore.Rot>
1.5909

> <Gold.Chemscore.Internal.Correction>
   9.000000E+99

> <Gold.Chemscore.Hbonds>
donor molecule, donor type, donor heavy atom, donor atom, acceptor molecule, acceptor atom, score
      L1  H     6    27       P1  7957  0.84
      L1  H     9    28       P1  7957  0.99
      P1  H  7997  8008       L1    20  0.09

> <Gold.Chemscore.Hbond.Weighted>
-8.9608

> <Gold.Chemscore.Metal.Weighted>
-0.0000

> <Gold.Chemscore.Lipo.Weighted>
-9.8261

> <Gold.Chemscore.Internal_Hbond.Weighted>
0.0000

> <Gold.Chemscore.DEClash.Weighted>
0.2107

> <Gold.Chemscore.DEInternal.Weighted>
2.1691

> <Gold.Chemscore.Rot.Weighted>
4.0728

> <Gold.Chemscore.Internal.Correction.Weighted>
   9.000000E+99

> <Gold.Protein.RotatedTorsions>
[ 6907 6896 6895 6894 ] final -172.16 input  -60.11 | X-H torsion
[ 7974 7965 7964 7962 ] final -147.20 input  175.53 | X-H torsion
[ 8008 7997 7996 7995 ] final  -46.27 input   59.86 | X-H torsion
[ 10167 10162 10161 10158 ] final  -12.48 input  -65.29 | X-H torsion
[ 10718 10713 10712 10709 ] final  145.85 input   66.30 | X-H torsion
[ 10763 10752 10751 10750 ] final   82.88 input  -60.55 | X-H torsion
[ 11005 11000 10999 10996 ] final   71.93 input  -57.11 | X-H torsion

> <Gold.Protein.ActiveResidues>
 VAL166  LYS551  ARG553  GLY616  TRP617  ASP618  TYR619  PRO620  LYS621  CYS622 
 ASP623  PHE694  ASN695  SER759  ASP760  ASP761  ALA762  ILE779  LEU786  VAL792 
 PHE793  MET794  SER795  GLU796  ALA797  LYS798  CYS799  TRP800  GLU811  SER814 

> <Gold.Protein.RotatedAtoms>
  151.5355  133.3441  159.2925 H   0  0  0  0  0  0  0  0  0  0  0  0  # atno 6907 bound_to 6896
  150.8567  134.7910  159.7062 H   0  0  0  0  0  0  0  0  0  0  0  0  # atno 6908 bound_to 6896
  152.4598  134.5217  159.9836 H   0  0  0  0  0  0  0  0  0  0  0  0  # atno 6909 bound_to 6896
  144.8109  140.5357  143.5643 H   0  0  0  0  0  0  0  0  0  0  0  0  # atno 7974 bound_to 7965
  154.4006  140.1376  156.3983 H   0  0  0  0  0  0  0  0  0  0  0  0  # atno 8008 bound_to 7997
  155.7848  140.3480  155.5296 H   0  0  0  0  0  0  0  0  0  0  0  0  # atno 8009 bound_to 7997
  155.8638  140.0960  157.1586 H   0  0  0  0  0  0  0  0  0  0  0  0  # atno 8010 bound_to 7997
  140.7162  143.5528  150.9282 H   0  0  0  0  0  0  0  0  0  0  0  0  # atno 10167 bound_to 10162
  157.3403  131.0935  151.1088 H   0  0  0  0  0  0  0  0  0  0  0  0  # atno 10718 bound_to 10713
  153.1242  135.4712  154.9244 H   0  0  0  0  0  0  0  0  0  0  0  0  # atno 10763 bound_to 10752
  154.7604  135.3130  154.8392 H   0  0  0  0  0  0  0  0  0  0  0  0  # atno 10764 bound_to 10752
  153.8949  135.6881  153.4812 H   0  0  0  0  0  0  0  0  0  0  0  0  # atno 10765 bound_to 10752
  139.9517  134.7215  156.0847 H   0  0  0  0  0  0  0  0  0  0  0  0  # atno 11005 bound_to 11000
  145.5327  139.1475  143.3490 LP  0  0  0  0  0  0  0  0  0  0  0  0  # atno 17320 bound_to 7965
  146.2407  140.5468  142.8935 LP  0  0  0  0  0  0  0  0  0  0  0  0  # atno 17321 bound_to 7965
  139.9253  143.6558  152.3088 LP  0  0  0  0  0  0  0  0  0  0  0  0  # atno 17342 bound_to 10162
  139.6989  144.7637  151.1308 LP  0  0  0  0  0  0  0  0  0  0  0  0  # atno 17343 bound_to 10162
  157.2302  130.6521  149.5846 LP  0  0  0  0  0  0  0  0  0  0  0  0  # atno 17370 bound_to 10713
  155.9707  130.4601  150.6061 LP  0  0  0  0  0  0  0  0  0  0  0  0  # atno 17371 bound_to 10713
  141.1181  133.6621  156.3145 LP  0  0  0  0  0  0  0  0  0  0  0  0  # atno 17394 bound_to 11000
  140.5703  134.5847  157.5456 LP  0  0  0  0  0  0  0  0  0  0  0  0  # atno 17395 bound_to 11000

$$$$
