AV-unprocessed.smi:22|AV-procd|sdf|172|dock6
  -GOLD-   2262015423D 1   1.00000     0.00000
 Structure written by MMmdl.
 56 59  0  0  0  0  0  0  0  0  2 V2000
  146.3293  131.9787  149.9004 C   0  0  0  0  0  0  0  0  0  0  0  0
  145.5099  133.2175  149.8356 N   0  3  1  0  0  0  0  0  0  0  0  0
  144.0456  132.9243  149.7948 C   0  0  0  0  0  0  0  0  0  0  0  0
  143.4768  132.7440  148.3739 C   0  0  0  0  0  0  0  0  0  0  0  0
  143.5883  133.9488  147.6453 O   0  0  0  0  0  0  0  0  0  0  0  0
  145.9454  134.2122  150.8705 C   0  0  0  0  0  0  0  0  0  0  0  0
  145.7446  133.7636  152.3409 C   0  0  0  0  0  0  0  0  0  0  0  0
  146.1817  134.8539  153.3330 C   0  0  0  0  0  0  0  0  0  0  0  0
  145.4918  136.1134  153.0658 N   0  0  0  0  0  0  0  0  0  0  0  0
  145.5609  137.0206  154.0743 C   0  0  0  0  0  0  0  0  0  0  0  0
  144.8028  136.8517  155.1912 N   0  0  0  0  0  0  0  0  0  0  0  0
  144.8533  137.7442  156.1843 C   0  0  0  0  0  0  0  0  0  0  0  0
  145.5823  138.8580  156.2680 N   0  0  0  0  0  0  0  0  0  0  0  0
  146.3540  139.0292  155.1570 C   0  0  0  0  0  0  0  0  0  0  0  0
  146.4024  138.1686  154.0237 C   0  0  0  0  0  0  0  0  0  0  0  0
  147.3071  138.6660  153.0928 N   0  0  0  0  0  0  0  0  0  0  0  0
  147.7575  139.7625  153.6392 C   0  0  0  0  0  0  0  0  0  0  0  0
  147.2460  140.0519  154.8841 N   0  0  0  0  0  0  0  0  0  0  0  0
  147.5699  141.1985  155.7202 C   0  0  0  0  0  0  0  0  0  0  0  0
  148.9834  141.1329  156.3487 C   0  0  2  0  0  0  0  0  0  0  0  0
  149.1554  142.2398  157.2149 O   0  0  0  0  0  0  0  0  0  0  0  0
  150.0926  141.1503  155.2941 C   0  0  0  0  0  0  0  0  0  0  0  0
  150.6548  139.7346  155.3373 C   0  0  0  0  0  0  0  0  0  0  0  0
  150.5335  139.3936  156.7064 O   0  0  0  0  0  0  0  0  0  0  0  0
  149.2514  139.8320  157.1315 C   0  0  0  0  0  0  0  0  0  0  0  0
  145.6388  136.6093  151.6979 C   0  0  0  0  0  0  0  0  0  0  0  0
  145.1938  135.5503  150.6772 C   0  0  0  0  0  0  0  0  0  0  0  0
  146.0344  131.3632  150.7512 H   0  0  0  0  0  0  0  0  0  0  0  0
  147.3916  132.1934  150.0024 H   0  0  0  0  0  0  0  0  0  0  0  0
  146.2277  131.3847  148.9931 H   0  0  0  0  0  0  0  0  0  0  0  0
  143.8416  132.0319  150.3884 H   0  0  0  0  0  0  0  0  0  0  0  0
  143.4844  133.7419  150.2456 H   0  0  0  0  0  0  0  0  0  0  0  0
  143.9554  131.9294  147.8315 H   0  0  0  0  0  0  0  0  0  0  0  0
  142.4194  132.4856  148.4375 H   0  0  0  0  0  0  0  0  0  0  0  0
  144.5050  134.1291  147.4980 H   0  0  0  0  0  0  0  0  0  0  0  0
  147.0150  134.3853  150.7360 H   0  0  0  0  0  0  0  0  0  0  0  0
  144.6963  133.5198  152.5194 H   0  0  0  0  0  0  0  0  0  0  0  0
  146.3245  132.8666  152.5586 H   0  0  0  0  0  0  0  0  0  0  0  0
  145.9974  134.5059  154.3487 H   0  0  0  0  0  0  0  0  0  0  0  0
  147.2567  135.0202  153.2528 H   0  0  0  0  0  0  0  0  0  0  0  0
  144.2196  137.5355  157.0336 H   0  0  0  0  0  0  0  0  0  0  0  0
  148.4831  140.3920  153.1448 H   0  0  0  0  0  0  0  0  0  0  0  0
  147.4696  142.1004  155.1148 H   0  0  0  0  0  0  0  0  0  0  0  0
  146.8139  141.2734  156.5031 H   0  0  0  0  0  0  0  0  0  0  0  0
  148.8332  143.0141  156.7793 H   0  0  0  0  0  0  0  0  0  0  0  0
  149.7427  141.4258  154.2986 H   0  0  0  0  0  0  0  0  0  0  0  0
  150.8821  141.8528  155.5670 H   0  0  0  0  0  0  0  0  0  0  0  0
  150.0532  139.0545  154.7318 H   0  0  0  0  0  0  0  0  0  0  0  0
  151.6889  139.6804  154.9964 H   0  0  0  0  0  0  0  0  0  0  0  0
  149.2077  139.9542  158.2147 H   0  0  0  0  0  0  0  0  0  0  0  0
  148.5359  139.0556  156.8591 H   0  0  0  0  0  0  0  0  0  0  0  0
  145.0415  137.5122  151.5627 H   0  0  0  0  0  0  0  0  0  0  0  0
  146.6804  136.8813  151.5207 H   0  0  0  0  0  0  0  0  0  0  0  0
  145.3447  135.9529  149.6767 H   0  0  0  0  0  0  0  0  0  0  0  0
  144.1202  135.3831  150.7776 H   0  0  0  0  0  0  0  0  0  0  0  0
  145.7134  133.6496  148.9451 H   0  0  0  0  0  0  0  0  0  0  0  0
  1  2  1  0  0  0  0
  1 28  1  0  0  0  0
  1 29  1  0  0  0  0
  1 30  1  0  0  0  0
  2  3  1  0  0  0  0
  2  6  1  0  0  0  0
  2 56  1  0  0  0  0
  3  4  1  0  0  0  0
  3 31  1  0  0  0  0
  3 32  1  0  0  0  0
  4  5  1  0  0  0  0
  4 33  1  0  0  0  0
  4 34  1  0  0  0  0
  5 35  1  0  0  0  0
  6 27  1  0  0  0  0
  6  7  1  0  0  0  0
  6 36  1  0  0  0  0
  7  8  1  0  0  0  0
  7 37  1  0  0  0  0
  7 38  1  0  0  0  0
  8  9  1  0  0  0  0
  8 39  1  0  0  0  0
  8 40  1  0  0  0  0
  9 10  1  0  0  0  0
  9 26  1  0  0  0  0
 10 15  1  0  0  0  0
 10 11  2  0  0  0  0
 11 12  1  0  0  0  0
 12 13  2  0  0  0  0
 12 41  1  0  0  0  0
 13 14  1  0  0  0  0
 14 18  1  0  0  0  0
 14 15  2  0  0  0  0
 15 16  1  0  0  0  0
 16 17  2  0  0  0  0
 17 18  1  0  0  0  0
 17 42  1  0  0  0  0
 18 19  1  0  0  0  0
 19 20  1  0  0  0  0
 19 43  1  0  0  0  0
 19 44  1  0  0  0  0
 20 25  1  0  0  0  0
 20 21  1  0  0  0  0
 20 22  1  0  0  0  0
 21 45  1  0  0  0  0
 22 23  1  0  0  0  0
 22 46  1  0  0  0  0
 22 47  1  0  0  0  0
 23 24  1  0  0  0  0
 23 48  1  0  0  0  0
 23 49  1  0  0  0  0
 24 25  1  0  0  0  0
 25 50  1  0  0  0  0
 25 51  1  0  0  0  0
 26 27  1  0  0  0  0
 26 52  1  0  0  0  0
 26 53  1  0  0  0  0
 27 54  1  0  0  0  0
 27 55  1  0  0  0  0
M  CHG  1   2   1
M  END
> <s_m_source_file>
AV-unprocessed.smi

> <i_m_source_file_index>
22

> <i_lp_mmshare_version>
43012

> <i_f3d_flags>
0

> <s_epik_input>
W09IXVtDSDJdW0NIMl1OKFtDSDNdKVtDSF0xW0NIMl1bQ0gyXU4oW0NIMl1bQ0gyXTEpYyhuW2NIXW4yKWMoYzIzKW5bY0hdbjNbQ0gyXVtDQEBdNChbT0hdKVtDSDJdW0NIMl1PW0NIMl00

> <s_epik_cmdline>
J2VwaWtfcHl0aG9uJywgJy1waCcsICc3LjAnLCAnLXRuJywgJzgnLCAnLW1hJywgJzIwMCcsICctbWV0YWxfYmluZGluZycsICctaW1hZScsICc8aW5maWxlLm1hZT4nLCAnLW9tYWUnLCAnPG91dGZpbGUubWFlPic=

> <r_lp_tautomer_probability>
1

> <r_epik_Ionization_Penalty>
0.00317524

> <r_epik_Ionization_Penalty_Charging>
0.00191487

> <r_epik_Ionization_Penalty_Neutral>
0.00126037

> <r_epik_State_Penalty>
-0

> <r_epik_Charging_Adjusted_Penalty>
0.00191487

> <i_epik_Tot_Q>
1

> <i_epik_Tot_abs_Q>
1

> <r_epik_Metal_State_Penalty>
-0

> <b_epik_Metal_Only>
0

> <s_lp_Force_Field>
OPLS_2005

> <r_lp_Energy>
50.3895

> <b_lp_Chiralities_Consistent>
1

> <s_lp_Variant>
AV-unprocessed.smi:22-4

> <Gold.Version>
5.8.1

> <Gold.Id.Protein>
6NUR|6NUR_protein|mol2

> <Gold.PLP.Fitness>
50.0721

> <Gold.PLP.PLP>
-36.9923

> <Gold.PLP.part.hbond>
-5.7324

> <Gold.PLP.part.metal>
0.0000

> <Gold.PLP.part.buried>
-1.1450

> <Gold.PLP.part.nonpolar>
-30.3304

> <Gold.PLP.part.repulsive>
0.5378

> <Gold.PLP.ligand.clash>
0.0000

> <Gold.PLP.ligand.torsion>
1.1728

> <Gold.PLP.Chemscore.Hbond>
4.0000

> <Gold.PLP.Chemscore.CHOScore>
0.9581

> <Gold.PLP.Chemscore.Metal>
0.0000

> <Gold.Chemscore.Hbonds>
donor molecule, donor type, donor heavy atom, donor atom, acceptor molecule, acceptor atom, score
      L1  H     2    56       P1  7921  0.90
      L1  H     5    35       P1  7921  1.00
      L1  H    21    45       P1  8028  0.99
      P1  H 10192 10197       L1     5  0.98
      L1  C    17    42       P1  7957  0.98

> <Gold.PLP.Chemscore.Internal.Correction>
0.5511

> <Gold.Rescore>
     Score         DG    S(hbond)    S(metal)    S(lipo)     H(rot)  DE(clash)    DE(int)     intcor
     15.20     -18.79       3.83        0.00      86.57       3.76       1.51       2.09       ----

> <Gold.Chemscore.Fitness>
15.1993

> <Gold.Chemscore.DG>
-18.7923

> <Gold.Chemscore.ZeroCoef>
-5.4800

> <Gold.Chemscore.Hbond>
3.8336

> <Gold.Chemscore.Metal>
0.0000

> <Gold.Chemscore.Lipo>
86.5746

> <Gold.Chemscore.Internal_Hbond>
0.0000

> <Gold.Chemscore.DEClash>
1.5068

> <Gold.Chemscore.DEInternal>
2.0862

> <Gold.Chemscore.Rot>
3.7583

> <Gold.Chemscore.Internal.Correction>
   9.000000E+99

> <Gold.Chemscore.Hbonds>
donor molecule, donor type, donor heavy atom, donor atom, acceptor molecule, acceptor atom, score
      L1  H     2    56       P1  7921  0.18
      L1  H     5    35       P1  7921  1.00
      L1  H    21    45       P1  8028  0.81
      P1  H 10192 10197       L1     5  0.91

> <Gold.Chemscore.Hbond.Weighted>
-12.8044

> <Gold.Chemscore.Metal.Weighted>
-0.0000

> <Gold.Chemscore.Lipo.Weighted>
-10.1292

> <Gold.Chemscore.Internal_Hbond.Weighted>
0.0000

> <Gold.Chemscore.DEClash.Weighted>
1.5068

> <Gold.Chemscore.DEInternal.Weighted>
2.0862

> <Gold.Chemscore.Rot.Weighted>
9.6213

> <Gold.Chemscore.Internal.Correction.Weighted>
   9.000000E+99

> <Gold.Protein.RotatedTorsions>
[ 6907 6896 6895 6894 ] final  -99.92 input  -60.11 | X-H torsion
[ 7974 7965 7964 7962 ] final   22.25 input  175.53 | X-H torsion
[ 8008 7997 7996 7995 ] final  136.32 input   59.86 | X-H torsion
[ 10167 10162 10161 10158 ] final  -92.38 input  -65.29 | X-H torsion
[ 10718 10713 10712 10709 ] final   77.50 input   66.30 | X-H torsion
[ 10763 10752 10751 10750 ] final   83.60 input  -60.55 | X-H torsion
[ 11005 11000 10999 10996 ] final  -73.92 input  -57.11 | X-H torsion

> <Gold.Protein.ActiveResidues>
 VAL166  LYS551  ARG553  GLY616  TRP617  ASP618  TYR619  PRO620  LYS621  CYS622 
 ASP623  PHE694  ASN695  SER759  ASP760  ASP761  ALA762  ILE779  LEU786  VAL792 
 PHE793  MET794  SER795  GLU796  ALA797  LYS798  CYS799  TRP800  GLU811  SER814 

> <Gold.Protein.RotatedAtoms>
  150.7097  134.0967  159.3950 H   0  0  0  0  0  0  0  0  0  0  0  0  # atno 6907 bound_to 6896
  151.8953  135.0398  160.0511 H   0  0  0  0  0  0  0  0  0  0  0  0  # atno 6908 bound_to 6896
  152.2458  133.5138  159.5333 H   0  0  0  0  0  0  0  0  0  0  0  0  # atno 6909 bound_to 6896
  146.2037  139.7912  142.8742 H   0  0  0  0  0  0  0  0  0  0  0  0  # atno 7974 bound_to 7965
  156.3004  140.2448  156.3727 H   0  0  0  0  0  0  0  0  0  0  0  0  # atno 8008 bound_to 7997
  154.8774  140.0414  157.1781 H   0  0  0  0  0  0  0  0  0  0  0  0  # atno 8009 bound_to 7997
  154.8731  140.2938  155.5473 H   0  0  0  0  0  0  0  0  0  0  0  0  # atno 8010 bound_to 7997
  140.3354  143.2971  151.9895 H   0  0  0  0  0  0  0  0  0  0  0  0  # atno 10167 bound_to 10162
  157.6712  130.9824  150.1650 H   0  0  0  0  0  0  0  0  0  0  0  0  # atno 10718 bound_to 10713
  153.1306  135.4685  154.9342 H   0  0  0  0  0  0  0  0  0  0  0  0  # atno 10763 bound_to 10752
  154.7660  135.3145  154.8287 H   0  0  0  0  0  0  0  0  0  0  0  0  # atno 10764 bound_to 10752
  153.8831  135.6892  153.4819 H   0  0  0  0  0  0  0  0  0  0  0  0  # atno 10765 bound_to 10752
  141.1629  133.6894  156.7285 H   0  0  0  0  0  0  0  0  0  0  0  0  # atno 11005 bound_to 11000
  145.3395  141.0284  143.3400 LP  0  0  0  0  0  0  0  0  0  0  0  0  # atno 17320 bound_to 7965
  144.8742  139.4995  143.6753 LP  0  0  0  0  0  0  0  0  0  0  0  0  # atno 17321 bound_to 7965
  139.4849  144.6200  151.7272 LP  0  0  0  0  0  0  0  0  0  0  0  0  # atno 17342 bound_to 10162
  140.5358  144.0658  150.6070 LP  0  0  0  0  0  0  0  0  0  0  0  0  # atno 17343 bound_to 10162
  156.2417  130.3691  149.8329 LP  0  0  0  0  0  0  0  0  0  0  0  0  # atno 17370 bound_to 10713
  156.6127  130.8593  151.3458 LP  0  0  0  0  0  0  0  0  0  0  0  0  # atno 17371 bound_to 10713
  140.2762  134.8353  157.3892 LP  0  0  0  0  0  0  0  0  0  0  0  0  # atno 17394 bound_to 11000
  140.1475  134.4892  155.7985 LP  0  0  0  0  0  0  0  0  0  0  0  0  # atno 17395 bound_to 11000

$$$$
