AV-unprocessed.smi:1703|AV-procd|sdf|6856|dock10
  -GOLD-   22720 8 43D 1   1.00000     0.00000
 Structure written by MMmdl.
 48 50  0  0  0  0  0  0  0  0  1 V2000
  145.2531  138.0419  156.6531 C   0  0  0  0  0  0  0  0  0  0  0  0
  146.3978  138.4689  157.5775 C   0  0  2  0  0  0  0  0  0  0  0  0
  147.0295  139.8063  157.1451 C   0  0  0  0  0  0  0  0  0  0  0  0
  148.1694  140.1679  157.9854 N   0  0  0  0  0  0  0  0  0  0  0  0
  148.7963  141.4288  157.5838 C   0  0  0  0  0  0  0  0  0  0  0  0
  149.6967  141.3548  156.3345 C   0  0  1  0  0  0  0  0  0  0  0  0
  148.9789  141.8775  155.2341 O   0  0  0  0  0  0  0  0  0  0  0  0
  150.9942  142.1641  156.5245 C   0  0  0  0  0  0  0  0  0  0  0  0
  151.5687  142.0056  157.8549 N   0  0  0  0  0  0  0  0  0  0  0  0
  152.0726  140.8800  158.4218 C   0  0  0  0  0  0  0  0  0  0  0  0
  152.1002  139.5710  157.6843 C   0  0  0  0  0  0  0  0  0  0  0  0
  153.3958  139.0259  157.5393 O   0  0  0  0  0  0  0  0  0  0  0  0
  152.5479  141.0220  159.6615 N   0  0  0  0  0  0  0  0  0  0  0  0
  152.3253  142.3591  159.9243 C   0  0  0  0  0  0  0  0  0  0  0  0
  152.6071  143.1276  161.0765 C   0  0  0  0  0  0  0  0  0  0  0  0
  152.2874  144.5006  161.1142 C   0  0  0  0  0  0  0  0  0  0  0  0
  151.6839  145.1236  160.0027 C   0  0  0  0  0  0  0  0  0  0  0  0
  151.3946  144.3756  158.8452 C   0  0  0  0  0  0  0  0  0  0  0  0
  151.7139  143.0048  158.8131 C   0  0  0  0  0  0  0  0  0  0  0  0
  149.1358  139.0756  157.9611 C   0  0  0  0  0  0  0  0  0  0  0  0
  148.5081  137.7384  158.3983 C   0  0  2  0  0  0  0  0  0  0  0  0
  149.4968  136.5719  158.3014 C   0  0  0  0  0  0  0  0  0  0  0  0
  147.3953  137.4521  157.5559 O   0  0  0  0  0  0  0  0  0  0  0  0
  144.4520  138.7813  156.6538 H   0  0  0  0  0  0  0  0  0  0  0  0
  144.8275  137.0907  156.9740 H   0  0  0  0  0  0  0  0  0  0  0  0
  145.5986  137.9225  155.6257 H   0  0  0  0  0  0  0  0  0  0  0  0
  146.0103  138.5610  158.5937 H   0  0  0  0  0  0  0  0  0  0  0  0
  147.3463  139.7398  156.1028 H   0  0  0  0  0  0  0  0  0  0  0  0
  146.2630  140.5784  157.1898 H   0  0  0  0  0  0  0  0  0  0  0  0
  148.0198  142.1715  157.3933 H   0  0  0  0  0  0  0  0  0  0  0  0
  149.3766  141.8192  158.4214 H   0  0  0  0  0  0  0  0  0  0  0  0
  149.9619  140.3228  156.1119 H   0  0  0  0  0  0  0  0  0  0  0  0
  148.8308  142.7986  155.3868 H   0  0  0  0  0  0  0  0  0  0  0  0
  151.7381  141.8606  155.7869 H   0  0  0  0  0  0  0  0  0  0  0  0
  150.8111  143.2224  156.3413 H   0  0  0  0  0  0  0  0  0  0  0  0
  151.4889  138.8402  158.2131 H   0  0  0  0  0  0  0  0  0  0  0  0
  151.6661  139.7096  156.6942 H   0  0  0  0  0  0  0  0  0  0  0  0
  153.3201  138.1945  157.0964 H   0  0  0  0  0  0  0  0  0  0  0  0
  153.0708  142.6598  161.9325 H   0  0  0  0  0  0  0  0  0  0  0  0
  152.5077  145.0789  161.9996 H   0  0  0  0  0  0  0  0  0  0  0  0
  151.4442  146.1761  160.0384 H   0  0  0  0  0  0  0  0  0  0  0  0
  150.9367  144.8512  157.9905 H   0  0  0  0  0  0  0  0  0  0  0  0
  149.5499  138.9722  156.9565 H   0  0  0  0  0  0  0  0  0  0  0  0
  149.9730  139.3110  158.6193 H   0  0  0  0  0  0  0  0  0  0  0  0
  148.1602  137.8181  159.4297 H   0  0  0  0  0  0  0  0  0  0  0  0
  150.3673  136.7410  158.9355 H   0  0  0  0  0  0  0  0  0  0  0  0
  149.8482  136.4362  157.2783 H   0  0  0  0  0  0  0  0  0  0  0  0
  149.0300  135.6396  158.6200 H   0  0  0  0  0  0  0  0  0  0  0  0
  1  2  1  0  0  0  0
  1 24  1  0  0  0  0
  1 25  1  0  0  0  0
  1 26  1  0  0  0  0
  2 23  1  0  0  0  0
  2  3  1  0  0  0  0
  2 27  1  0  0  0  0
  3  4  1  0  0  0  0
  3 28  1  0  0  0  0
  3 29  1  0  0  0  0
  4  5  1  0  0  0  0
  4 20  1  0  0  0  0
  5  6  1  0  0  0  0
  5 30  1  0  0  0  0
  5 31  1  0  0  0  0
  6  7  1  0  0  0  0
  6  8  1  0  0  0  0
  6 32  1  0  0  0  0
  7 33  1  0  0  0  0
  8  9  1  0  0  0  0
  8 34  1  0  0  0  0
  8 35  1  0  0  0  0
  9 19  1  0  0  0  0
  9 10  1  0  0  0  0
 10 11  1  0  0  0  0
 10 13  2  0  0  0  0
 11 12  1  0  0  0  0
 11 36  1  0  0  0  0
 11 37  1  0  0  0  0
 12 38  1  0  0  0  0
 13 14  1  0  0  0  0
 14 19  2  0  0  0  0
 14 15  1  0  0  0  0
 15 16  2  0  0  0  0
 15 39  1  0  0  0  0
 16 17  1  0  0  0  0
 16 40  1  0  0  0  0
 17 18  2  0  0  0  0
 17 41  1  0  0  0  0
 18 19  1  0  0  0  0
 18 42  1  0  0  0  0
 20 21  1  0  0  0  0
 20 43  1  0  0  0  0
 20 44  1  0  0  0  0
 21 22  1  0  0  0  0
 21 23  1  0  0  0  0
 21 45  1  0  0  0  0
 22 46  1  0  0  0  0
 22 47  1  0  0  0  0
 22 48  1  0  0  0  0
M  END
> <s_m_source_file>
AV-unprocessed.smi

> <i_m_source_file_index>
1703

> <i_lp_mmshare_version>
43012

> <i_f3d_flags>
0

> <s_epik_input>
W0NIM11bQ0BASF0xW0NIMl1OKFtDSDJdW0NASF0oTzEpW0NIM10pW0NIMl1bQ0BIXShbT0hdKVtDSDJdbihjKG4yKVtDSDJdW09IXSljKGMyMylbY0hdW2NIXVtjSF1bY0hdMw==

> <s_epik_cmdline>
J2VwaWtfcHl0aG9uJywgJy1waCcsICc3LjAnLCAnLXRuJywgJzgnLCAnLW1hJywgJzIwMCcsICctbWV0YWxfYmluZGluZycsICctaW1hZScsICc8aW5maWxlLm1hZT4nLCAnLW9tYWUnLCAnPG91dGZpbGUubWFlPic=

> <r_epik_Ionization_Penalty>
0.307685

> <r_epik_Ionization_Penalty_Charging>
0

> <r_epik_Ionization_Penalty_Neutral>
0.307685

> <r_epik_State_Penalty>
0.277856

> <r_epik_Charging_Adjusted_Penalty>
0.277856

> <i_epik_Tot_Q>
0

> <i_epik_Tot_abs_Q>
0

> <r_epik_Metal_State_Penalty>
0.238959

> <b_epik_Metal_Only>
0

> <s_lp_Force_Field>
OPLS_2005

> <r_lp_Energy>
30.3815

> <b_lp_Chiralities_Consistent>
1

> <s_lp_Variant>
AV-unprocessed.smi:1703-4

> <Gold.Version>
5.8.1

> <Gold.Id.Protein>
6NUR|6NUR_protein|mol2

> <Gold.PLP.Fitness>
44.2209

> <Gold.PLP.PLP>
-39.9883

> <Gold.PLP.part.hbond>
-2.8255

> <Gold.PLP.part.metal>
0.0000

> <Gold.PLP.part.buried>
-7.5186

> <Gold.PLP.part.nonpolar>
-30.0826

> <Gold.PLP.part.repulsive>
0.0000

> <Gold.PLP.ligand.clash>
0.0000

> <Gold.PLP.ligand.torsion>
0.9109

> <Gold.PLP.Chemscore.Hbond>
2.0000

> <Gold.PLP.Chemscore.CHOScore>
0.0000

> <Gold.PLP.Chemscore.Metal>
0.0000

> <Gold.Chemscore.Hbonds>
donor molecule, donor type, donor heavy atom, donor atom, acceptor molecule, acceptor atom, score
      L1  H     7    33       P1  8028  1.00
      P1  H  7997  8009       L1    12  1.00

> <Gold.PLP.Chemscore.Internal.Correction>
0.0544

> <Gold.Rescore>
     Score         DG    S(hbond)    S(metal)    S(lipo)     H(rot)  DE(clash)    DE(int)     intcor
     14.91     -15.79       1.95        0.00      95.34       2.88       0.02       0.86       ----

> <Gold.Chemscore.Fitness>
14.9070

> <Gold.Chemscore.DG>
-15.7912

> <Gold.Chemscore.ZeroCoef>
-5.4800

> <Gold.Chemscore.Hbond>
1.9533

> <Gold.Chemscore.Metal>
0.0000

> <Gold.Chemscore.Lipo>
95.3353

> <Gold.Chemscore.Internal_Hbond>
0.0000

> <Gold.Chemscore.DEClash>
0.0238

> <Gold.Chemscore.DEInternal>
0.8604

> <Gold.Chemscore.Rot>
2.8778

> <Gold.Chemscore.Internal.Correction>
   9.000000E+99

> <Gold.Chemscore.Hbonds>
donor molecule, donor type, donor heavy atom, donor atom, acceptor molecule, acceptor atom, score
      L1  H     7    33       P1  8028  0.99
      P1  H  7997  8009       L1    12  0.72

> <Gold.Chemscore.Hbond.Weighted>
-6.5241

> <Gold.Chemscore.Metal.Weighted>
-0.0000

> <Gold.Chemscore.Lipo.Weighted>
-11.1542

> <Gold.Chemscore.Internal_Hbond.Weighted>
0.0000

> <Gold.Chemscore.DEClash.Weighted>
0.0238

> <Gold.Chemscore.DEInternal.Weighted>
0.8604

> <Gold.Chemscore.Rot.Weighted>
7.3671

> <Gold.Chemscore.Internal.Correction.Weighted>
   9.000000E+99

> <Gold.Protein.RotatedTorsions>
[ 6907 6896 6895 6894 ] final -104.13 input  -60.11 | X-H torsion
[ 7974 7965 7964 7962 ] final -141.91 input  175.53 | X-H torsion
[ 8008 7997 7996 7995 ] final  170.89 input   59.86 | X-H torsion
[ 10167 10162 10161 10158 ] final  -98.18 input  -65.29 | X-H torsion
[ 10718 10713 10712 10709 ] final  135.95 input   66.30 | X-H torsion
[ 10763 10752 10751 10750 ] final    5.99 input  -60.55 | X-H torsion
[ 11005 11000 10999 10996 ] final -137.32 input  -57.11 | X-H torsion

> <Gold.Protein.ActiveResidues>
 VAL166  LYS551  ARG553  GLY616  TRP617  ASP618  TYR619  PRO620  LYS621  CYS622 
 ASP623  PHE694  ASN695  SER759  ASP760  ASP761  ALA762  ILE779  LEU786  VAL792 
 PHE793  MET794  SER795  GLU796  ALA797  LYS798  CYS799  TRP800  GLU811  SER814 

> <Gold.Protein.RotatedAtoms>
  150.7273  134.0324  159.3737 H   0  0  0  0  0  0  0  0  0  0  0  0  # atno 6907 bound_to 6896
  151.8293  135.0624  160.0444 H   0  0  0  0  0  0  0  0  0  0  0  0  # atno 6908 bound_to 6896
  152.2945  133.5558  159.5615 H   0  0  0  0  0  0  0  0  0  0  0  0  # atno 6909 bound_to 6896
  144.8483  140.6022  143.5407 H   0  0  0  0  0  0  0  0  0  0  0  0  # atno 7974 bound_to 7965
  156.1323  140.1526  156.9047 H   0  0  0  0  0  0  0  0  0  0  0  0  # atno 8008 bound_to 7997
  154.4919  140.0849  156.7652 H   0  0  0  0  0  0  0  0  0  0  0  0  # atno 8009 bound_to 7997
  155.4233  140.3424  155.4275 H   0  0  0  0  0  0  0  0  0  0  0  0  # atno 8010 bound_to 7997
  140.2756  143.3315  152.0491 H   0  0  0  0  0  0  0  0  0  0  0  0  # atno 10167 bound_to 10162
  157.4517  131.1066  151.0025 H   0  0  0  0  0  0  0  0  0  0  0  0  # atno 10718 bound_to 10713
  153.2529  135.6915  153.7660 H   0  0  0  0  0  0  0  0  0  0  0  0  # atno 10763 bound_to 10752
  153.6748  135.3338  155.3164 H   0  0  0  0  0  0  0  0  0  0  0  0  # atno 10764 bound_to 10752
  154.8401  135.4508  154.1492 H   0  0  0  0  0  0  0  0  0  0  0  0  # atno 10765 bound_to 10752
  140.8722  134.2037  157.4644 H   0  0  0  0  0  0  0  0  0  0  0  0  # atno 11005 bound_to 11000
  145.4552  139.1519  143.3896 LP  0  0  0  0  0  0  0  0  0  0  0  0  # atno 17320 bound_to 7965
  146.2763  140.4679  142.8794 LP  0  0  0  0  0  0  0  0  0  0  0  0  # atno 17321 bound_to 7965
  139.4976  144.6626  151.6429 LP  0  0  0  0  0  0  0  0  0  0  0  0  # atno 17342 bound_to 10162
  140.5854  143.9874  150.6292 LP  0  0  0  0  0  0  0  0  0  0  0  0  # atno 17343 bound_to 10162
  157.0852  130.5919  149.5428 LP  0  0  0  0  0  0  0  0  0  0  0  0  # atno 17370 bound_to 10713
  155.9990  130.5065  150.7591 LP  0  0  0  0  0  0  0  0  0  0  0  0  # atno 17371 bound_to 10713
  139.8713  134.9779  156.4977 LP  0  0  0  0  0  0  0  0  0  0  0  0  # atno 17394 bound_to 11000
  140.8560  133.8096  155.9217 LP  0  0  0  0  0  0  0  0  0  0  0  0  # atno 17395 bound_to 11000

$$$$
