AV-unprocessed.smi:110|AV-procd|sdf|1067|dock3
  -GOLD-   2262018143D 1   1.00000     0.00000
 Structure written by MMmdl.
 46 50  0  0  0  0  0  0  0  0  1 V2000
  144.2194  140.2936  154.9740 O   0  0  0  0  0  0  0  0  0  0  0  0
  145.0905  139.2610  154.5654 C   0  0  0  0  0  0  0  0  0  0  0  0
  146.2842  139.8521  153.7987 C   0  0  1  0  0  0  0  0  0  0  0  0
  147.0749  140.6095  154.7118 O   0  0  0  0  0  0  0  0  0  0  0  0
  148.4161  140.4460  154.3981 C   0  0  1  0  0  0  0  0  0  0  0  0
  149.2398  140.7617  155.6021 N   0  0  0  0  0  0  0  0  0  0  0  0
  148.9080  141.5025  156.7149 C   0  0  0  0  0  0  0  0  0  0  0  0
  149.8477  141.5986  157.6167 N   0  0  0  0  0  0  0  0  0  0  0  0
  150.9125  140.8802  157.0831 C   0  0  0  0  0  0  0  0  0  0  0  0
  152.2328  140.5701  157.5189 C   0  0  0  0  0  0  0  0  0  0  0  0
  152.7740  140.9790  158.6906 N   0  0  0  0  0  0  0  0  0  0  0  0
  153.6128  140.0532  159.4650 C   0  0  0  0  0  0  0  0  0  0  0  0
  153.7054  140.6023  160.9011 C   0  0  0  0  0  0  0  0  0  0  0  0
  153.0042  141.9137  160.7498 C   0  0  0  0  0  0  0  0  0  0  0  0
  152.8536  142.9159  161.7239 C   0  0  0  0  0  0  0  0  0  0  0  0
  152.1743  144.0986  161.3613 C   0  0  0  0  0  0  0  0  0  0  0  0
  151.6733  144.2611  160.0488 C   0  0  0  0  0  0  0  0  0  0  0  0
  151.8379  143.2410  159.0860 C   0  0  0  0  0  0  0  0  0  0  0  0
  152.4986  142.0529  159.4607 C   0  0  0  0  0  0  0  0  0  0  0  0
  152.9830  139.7643  156.7238 N   0  0  0  0  0  0  0  0  0  0  0  0
  152.4955  139.3229  155.5609 C   0  0  0  0  0  0  0  0  0  0  0  0
  151.2986  139.5513  155.0174 N   0  0  0  0  0  0  0  0  0  0  0  0
  150.5294  140.3371  155.8244 C   0  0  0  0  0  0  0  0  0  0  0  0
  148.5584  138.9929  153.9445 C   0  0  1  0  0  0  0  0  0  0  0  0
  148.7091  138.0892  155.0248 O   0  0  0  0  0  0  0  0  0  0  0  0
  147.2310  138.7714  153.2281 C   0  0  2  0  0  0  0  0  0  0  0  0
  147.3968  138.9802  151.8384 O   0  0  0  0  0  0  0  0  0  0  0  0
  145.9336  140.5098  153.0005 H   0  0  0  0  0  0  0  0  0  0  0  0
  148.7150  141.1686  153.6371 H   0  0  0  0  0  0  0  0  0  0  0  0
  149.4242  138.8910  153.2887 H   0  0  0  0  0  0  0  0  0  0  0  0
  146.8550  137.7575  153.3740 H   0  0  0  0  0  0  0  0  0  0  0  0
  143.6993  140.5601  154.2313 H   0  0  0  0  0  0  0  0  0  0  0  0
  145.4196  138.6761  155.4250 H   0  0  0  0  0  0  0  0  0  0  0  0
  144.5193  138.5951  153.9180 H   0  0  0  0  0  0  0  0  0  0  0  0
  147.9417  141.9686  156.8415 H   0  0  0  0  0  0  0  0  0  0  0  0
  153.1957  139.0452  159.4556 H   0  0  0  0  0  0  0  0  0  0  0  0
  154.6038  140.0089  159.0113 H   0  0  0  0  0  0  0  0  0  0  0  0
  153.1749  139.9704  161.6141 H   0  0  0  0  0  0  0  0  0  0  0  0
  154.7362  140.7360  161.2301 H   0  0  0  0  0  0  0  0  0  0  0  0
  153.2515  142.7873  162.7196 H   0  0  0  0  0  0  0  0  0  0  0  0
  152.0444  144.8872  162.0877 H   0  0  0  0  0  0  0  0  0  0  0  0
  151.1657  145.1751  159.7782 H   0  0  0  0  0  0  0  0  0  0  0  0
  151.4681  143.3807  158.0812 H   0  0  0  0  0  0  0  0  0  0  0  0
  153.1595  138.6970  154.9834 H   0  0  0  0  0  0  0  0  0  0  0  0
  149.5476  138.2463  155.4309 H   0  0  0  0  0  0  0  0  0  0  0  0
  148.0865  139.6129  151.7080 H   0  0  0  0  0  0  0  0  0  0  0  0
  1  2  1  0  0  0  0
  1 32  1  0  0  0  0
  2  3  1  0  0  0  0
  2 33  1  0  0  0  0
  2 34  1  0  0  0  0
  3 28  1  0  0  0  0
  3 26  1  0  0  0  0
  3  4  1  0  0  0  0
  4  5  1  0  0  0  0
  5 29  1  0  0  0  0
  5  6  1  0  0  0  0
  5 24  1  0  0  0  0
  6 23  1  0  0  0  0
  6  7  1  0  0  0  0
  7  8  2  0  0  0  0
  7 35  1  0  0  0  0
  8  9  1  0  0  0  0
  9 23  2  0  0  0  0
  9 10  1  0  0  0  0
 10 11  1  0  0  0  0
 10 20  2  0  0  0  0
 11 19  1  0  0  0  0
 11 12  1  0  0  0  0
 12 13  1  0  0  0  0
 12 36  1  0  0  0  0
 12 37  1  0  0  0  0
 13 14  1  0  0  0  0
 13 38  1  0  0  0  0
 13 39  1  0  0  0  0
 14 19  2  0  0  0  0
 14 15  1  0  0  0  0
 15 16  2  0  0  0  0
 15 40  1  0  0  0  0
 16 17  1  0  0  0  0
 16 41  1  0  0  0  0
 17 18  2  0  0  0  0
 17 42  1  0  0  0  0
 18 19  1  0  0  0  0
 18 43  1  0  0  0  0
 20 21  1  0  0  0  0
 21 22  2  0  0  0  0
 21 44  1  0  0  0  0
 22 23  1  0  0  0  0
 24 30  1  0  0  0  0
 24 25  1  0  0  0  0
 24 26  1  0  0  0  0
 25 45  1  0  0  0  0
 26 31  1  0  0  0  0
 26 27  1  0  0  0  0
 27 46  1  0  0  0  0
M  END
> <s_m_source_file>
AV-unprocessed.smi

> <i_m_source_file_index>
110

> <i_lp_mmshare_version>
43012

> <i_f3d_flags>
0

> <s_epik_input>
W09IXVtDSDJdW0NASF0xT1tDQEhdKFtDQEhdKFtPSF0pW0NAQEhdMVtPSF0pbihbY0hdbjIpYyhjMjMpbltjSF1uYzNOKFtDSDJdW0NIMl00KWMoYzQ1KVtjSF1bY0hdW2NIXVtjSF01

> <s_epik_cmdline>
J2VwaWtfcHl0aG9uJywgJy1waCcsICc3LjAnLCAnLXRuJywgJzgnLCAnLW1hJywgJzIwMCcsICctbWV0YWxfYmluZGluZycsICctaW1hZScsICc8aW5maWxlLm1hZT4nLCAnLW9tYWUnLCAnPG91dGZpbGUubWFlPic=

> <r_lp_tautomer_probability>
1

> <r_epik_Ionization_Penalty>
0.00068475

> <r_epik_Ionization_Penalty_Charging>
0

> <r_epik_Ionization_Penalty_Neutral>
0.00068475

> <r_epik_State_Penalty>
0.000417442

> <r_epik_Charging_Adjusted_Penalty>
0.000417442

> <i_epik_Tot_Q>
0

> <i_epik_Tot_abs_Q>
0

> <r_epik_Metal_State_Penalty>
-0

> <b_epik_Metal_Only>
0

> <s_epik_Chemistry_Notes>
This compound contains an acetal/aminal-like group ( X-CH(R)-Y where X, Y are N, S, or O) that may be acid/base labile, releasing an aldehyde.

> <s_lp_Force_Field>
OPLS_2005

> <r_lp_Energy>
58.5768

> <b_lp_Chiralities_Consistent>
1

> <s_lp_Variant>
AV-unprocessed.smi:110-5

> <Gold.Version>
5.8.1

> <Gold.Id.Protein>
6NUR|6NUR_protein|mol2

> <Gold.PLP.Fitness>
55.2737

> <Gold.PLP.PLP>
-45.7247

> <Gold.PLP.part.hbond>
-4.5499

> <Gold.PLP.part.metal>
0.0000

> <Gold.PLP.part.buried>
1.1749

> <Gold.PLP.part.nonpolar>
-41.6205

> <Gold.PLP.part.repulsive>
0.2093

> <Gold.PLP.ligand.clash>
0.0000

> <Gold.PLP.ligand.torsion>
0.9865

> <Gold.PLP.Chemscore.Hbond>
3.8191

> <Gold.PLP.Chemscore.CHOScore>
0.0000

> <Gold.PLP.Chemscore.Metal>
0.0000

> <Gold.Chemscore.Hbonds>
donor molecule, donor type, donor heavy atom, donor atom, acceptor molecule, acceptor atom, score
      L1  H     1    32       P1 10175  0.86
      L1  H    27    46       P1  7957  1.00
      P1  H  7954  7966       L1    27  0.06
      P1  H  7989  7998       L1    22  0.99
      P1  H  7997  8008       L1    20  0.90

> <Gold.PLP.Chemscore.Internal.Correction>
0.0647

> <Gold.Rescore>
     Score         DG    S(hbond)    S(metal)    S(lipo)     H(rot)  DE(clash)    DE(int)     intcor
     14.53     -17.77       2.53        0.00     106.99       3.38       2.38       0.86       ----

> <Gold.Chemscore.Fitness>
14.5292

> <Gold.Chemscore.DG>
-17.7715

> <Gold.Chemscore.ZeroCoef>
-5.4800

> <Gold.Chemscore.Hbond>
2.5259

> <Gold.Chemscore.Metal>
0.0000

> <Gold.Chemscore.Lipo>
106.9860

> <Gold.Chemscore.Internal_Hbond>
0.0000

> <Gold.Chemscore.DEClash>
2.3817

> <Gold.Chemscore.DEInternal>
0.8606

> <Gold.Chemscore.Rot>
3.3837

> <Gold.Chemscore.Internal.Correction>
   9.000000E+99

> <Gold.Chemscore.Hbonds>
donor molecule, donor type, donor heavy atom, donor atom, acceptor molecule, acceptor atom, score
      L1  H     1    32       P1 10175  0.84
      L1  H    27    46       P1  7957  0.95
      P1  H  7989  7998       L1    22  0.12
      P1  H  7997  8008       L1    20  0.67

> <Gold.Chemscore.Hbond.Weighted>
-8.4364

> <Gold.Chemscore.Metal.Weighted>
-0.0000

> <Gold.Chemscore.Lipo.Weighted>
-12.5174

> <Gold.Chemscore.Internal_Hbond.Weighted>
0.0000

> <Gold.Chemscore.DEClash.Weighted>
2.3817

> <Gold.Chemscore.DEInternal.Weighted>
0.8606

> <Gold.Chemscore.Rot.Weighted>
8.6622

> <Gold.Chemscore.Internal.Correction.Weighted>
   9.000000E+99

> <Gold.Protein.RotatedTorsions>
[ 6907 6896 6895 6894 ] final -114.72 input  -60.11 | X-H torsion
[ 7974 7965 7964 7962 ] final  -71.20 input  175.53 | X-H torsion
[ 8008 7997 7996 7995 ] final  -71.96 input   59.86 | X-H torsion
[ 10167 10162 10161 10158 ] final   15.36 input  -65.29 | X-H torsion
[ 10718 10713 10712 10709 ] final -155.05 input   66.30 | X-H torsion
[ 10763 10752 10751 10750 ] final  174.39 input  -60.55 | X-H torsion
[ 11005 11000 10999 10996 ] final   64.84 input  -57.11 | X-H torsion

> <Gold.Protein.ActiveResidues>
 VAL166  LYS551  ARG553  GLY616  TRP617  ASP618  TYR619  PRO620  LYS621  CYS622 
 ASP623  PHE694  ASN695  SER759  ASP760  ASP761  ALA762  ILE779  LEU786  VAL792 
 PHE793  MET794  SER795  GLU796  ALA797  LYS798  CYS799  TRP800  GLU811  SER814 

> <Gold.Protein.RotatedAtoms>
  150.7923  133.8760  159.3272 H   0  0  0  0  0  0  0  0  0  0  0  0  # atno 6907 bound_to 6896
  151.6595  135.0989  160.0186 H   0  0  0  0  0  0  0  0  0  0  0  0  # atno 6908 bound_to 6896
  152.4000  133.6764  159.6343 H   0  0  0  0  0  0  0  0  0  0  0  0  # atno 6909 bound_to 6896
  145.6811  140.9187  143.0831 H   0  0  0  0  0  0  0  0  0  0  0  0  # atno 7974 bound_to 7965
  154.5128  140.0806  156.8024 H   0  0  0  0  0  0  0  0  0  0  0  0  # atno 8008 bound_to 7997
  155.3746  140.3424  155.4226 H   0  0  0  0  0  0  0  0  0  0  0  0  # atno 8009 bound_to 7997
  156.1593  140.1583  156.8626 H   0  0  0  0  0  0  0  0  0  0  0  0  # atno 8010 bound_to 7997
  140.5872  143.8866  150.6841 H   0  0  0  0  0  0  0  0  0  0  0  0  # atno 10167 bound_to 10162
  156.5075  130.8420  151.2633 H   0  0  0  0  0  0  0  0  0  0  0  0  # atno 10718 bound_to 10713
  154.4533  135.2765  155.1765 H   0  0  0  0  0  0  0  0  0  0  0  0  # atno 10763 bound_to 10752
  154.3583  135.6135  153.5681 H   0  0  0  0  0  0  0  0  0  0  0  0  # atno 10764 bound_to 10752
  152.9849  135.5828  154.4882 H   0  0  0  0  0  0  0  0  0  0  0  0  # atno 10765 bound_to 10752
  139.9932  134.6558  156.0054 H   0  0  0  0  0  0  0  0  0  0  0  0  # atno 11005 bound_to 11000
  144.7026  139.8698  143.7440 LP  0  0  0  0  0  0  0  0  0  0  0  0  # atno 17320 bound_to 7965
  146.0963  139.3955  143.0374 LP  0  0  0  0  0  0  0  0  0  0  0  0  # atno 17321 bound_to 7965
  140.2380  143.3685  152.1511 LP  0  0  0  0  0  0  0  0  0  0  0  0  # atno 17342 bound_to 10162
  139.5205  144.7034  151.5427 LP  0  0  0  0  0  0  0  0  0  0  0  0  # atno 17343 bound_to 10162
  157.7455  130.9961  150.2766 LP  0  0  0  0  0  0  0  0  0  0  0  0  # atno 17370 bound_to 10713
  156.3272  130.3795  149.7523 LP  0  0  0  0  0  0  0  0  0  0  0  0  # atno 17371 bound_to 10713
  141.1583  133.6541  156.4235 LP  0  0  0  0  0  0  0  0  0  0  0  0  # atno 17394 bound_to 11000
  140.4867  134.6613  157.5194 LP  0  0  0  0  0  0  0  0  0  0  0  0  # atno 17395 bound_to 11000

$$$$
