AV-unprocessed.smi:893|AV-procd|sdf|4071|dock3
  -GOLD-   22720 1553D 1   1.00000     0.00000
 Structure written by MMmdl.
 26 27  0  0  0  0  0  0  0  0  2 V2000
  148.2732  141.5419  155.4144 C   0  0  0  0  0  0  0  0  0  0  0  0
  149.5658  141.0004  154.7737 C   0  0  0  0  0  0  0  0  0  0  0  0
  150.4646  140.1095  155.6751 C   0  0  2  0  0  0  0  0  0  0  0  0
  151.0312  140.9224  156.8288 C   0  0  0  0  0  0  0  0  0  0  0  0
  150.8450  142.3127  157.0924 C   0  0  0  0  0  0  0  0  0  0  0  0
  151.4728  142.7282  158.1803 N   0  0  0  0  0  0  0  0  0  0  0  0
  152.0861  141.6246  158.6517 N   0  0  0  0  0  0  0  0  0  0  0  0
  152.8822  141.7094  159.8571 C   0  0  0  0  0  0  0  0  0  0  0  0
  151.8411  140.5250  157.8591 C   0  0  0  0  0  0  0  0  0  0  0  0
  151.5148  139.4792  154.8849 N   0  5  0  0  0  0  0  0  0  0  0  0
  151.4154  138.1352  155.0204 C   0  0  0  0  0  0  0  0  0  0  0  0
  152.1335  137.2738  154.5182 O   0  0  0  0  0  0  0  0  0  0  0  0
  150.3833  137.8148  155.8071 N   0  0  0  0  0  0  0  0  0  0  0  0
  149.7359  138.8941  156.2357 C   0  0  0  0  0  0  0  0  0  0  0  0
  148.7315  138.9253  156.9466 O   0  0  0  0  0  0  0  0  0  0  0  0
  147.7066  142.1307  154.6930 H   0  0  0  0  0  0  0  0  0  0  0  0
  148.4828  142.1877  156.2668 H   0  0  0  0  0  0  0  0  0  0  0  0
  147.6262  140.7335  155.7551 H   0  0  0  0  0  0  0  0  0  0  0  0
  149.2991  140.4406  153.8762 H   0  0  0  0  0  0  0  0  0  0  0  0
  150.1449  141.8553  154.4224 H   0  0  0  0  0  0  0  0  0  0  0  0
  150.2692  143.0285  156.5244 H   0  0  0  0  0  0  0  0  0  0  0  0
  153.2948  140.7302  160.1020 H   0  0  0  0  0  0  0  0  0  0  0  0
  152.2618  142.0497  160.6866 H   0  0  0  0  0  0  0  0  0  0  0  0
  153.7022  142.4127  159.7092 H   0  0  0  0  0  0  0  0  0  0  0  0
  152.2578  139.5554  158.0899 H   0  0  0  0  0  0  0  0  0  0  0  0
  150.1192  136.8679  156.0346 H   0  0  0  0  0  0  0  0  0  0  0  0
  1  2  1  0  0  0  0
  1 16  1  0  0  0  0
  1 17  1  0  0  0  0
  1 18  1  0  0  0  0
  2  3  1  0  0  0  0
  2 19  1  0  0  0  0
  2 20  1  0  0  0  0
  3 14  1  0  0  0  0
  3  4  1  0  0  0  0
  3 10  1  0  0  0  0
  4  9  2  0  0  0  0
  4  5  1  0  0  0  0
  5  6  2  0  0  0  0
  5 21  1  0  0  0  0
  6  7  1  0  0  0  0
  7  8  1  0  0  0  0
  7  9  1  0  0  0  0
  8 22  1  0  0  0  0
  8 23  1  0  0  0  0
  8 24  1  0  0  0  0
  9 25  1  0  0  0  0
 10 11  1  0  0  0  0
 11 12  2  0  0  0  0
 11 13  1  0  0  0  0
 13 14  1  0  0  0  0
 13 26  1  0  0  0  0
 14 15  2  0  0  0  0
M  CHG  1  10  -1
M  END
> <s_m_source_file>
AV-unprocessed.smi

> <i_m_source_file_index>
893

> <i_lp_mmshare_version>
43012

> <i_f3d_flags>
0

> <s_epik_input>
Tz1DMVtOSF1DKD1PKVtOSF1bQ0BAXTEoW0NIMl1bQ0gzXSljMltjSF1ubihbQ0gzXSlbY0hdMg==

> <s_epik_cmdline>
J2VwaWtfcHl0aG9uJywgJy1waCcsICc3LjAnLCAnLXRuJywgJzgnLCAnLW1hJywgJzIwMCcsICctbWV0YWxfYmluZGluZycsICctaW1hZScsICc8aW5maWxlLm1hZT4nLCAnLW9tYWUnLCAnPG91dGZpbGUubWFlPic=

> <r_lp_tautomer_probability>
1

> <r_epik_Ionization_Penalty>
4.97057

> <r_epik_Ionization_Penalty_Charging>
4.97009

> <r_epik_Ionization_Penalty_Neutral>
0.000472554

> <r_epik_State_Penalty>
4.98892

> <r_epik_Charging_Adjusted_Penalty>
9.95901

> <i_epik_Tot_Q>
-1

> <i_epik_Tot_abs_Q>
1

> <r_epik_Metal_State_Penalty>
1.41037

> <b_epik_Metal_Only>
1

> <s_lp_Force_Field>
OPLS_2005

> <r_lp_Energy>
9.72866

> <b_lp_Chiralities_Consistent>
1

> <s_lp_Variant>
AV-unprocessed.smi:893-6

> <Gold.Version>
5.8.1

> <Gold.Id.Protein>
6NUR|6NUR_protein|mol2

> <Gold.PLP.Fitness>
34.0719

> <Gold.PLP.PLP>
-25.9931

> <Gold.PLP.part.hbond>
-2.0000

> <Gold.PLP.part.metal>
0.0000

> <Gold.PLP.part.buried>
-4.0564

> <Gold.PLP.part.nonpolar>
-21.0618

> <Gold.PLP.part.repulsive>
0.3024

> <Gold.PLP.ligand.clash>
0.0000

> <Gold.PLP.ligand.torsion>
0.0844

> <Gold.PLP.Chemscore.Hbond>
1.7200

> <Gold.PLP.Chemscore.CHOScore>
1.0000

> <Gold.PLP.Chemscore.Metal>
0.0000

> <Gold.Chemscore.Hbonds>
donor molecule, donor type, donor heavy atom, donor atom, acceptor molecule, acceptor atom, score
      P1  H  7989  7998       L1    10  0.90
      P1  H 10752 10763       L1    12  0.72
      L1  C     5    21       P1  8028  1.00

> <Gold.PLP.Chemscore.Internal.Correction>
0.0876

> <Gold.Rescore>
     Score         DG    S(hbond)    S(metal)    S(lipo)     H(rot)  DE(clash)    DE(int)     intcor
     12.78     -12.92       1.61        0.00      45.77       1.28       0.05       0.09       ----

> <Gold.Chemscore.Fitness>
12.7811

> <Gold.Chemscore.DG>
-12.9180

> <Gold.Chemscore.ZeroCoef>
-5.4800

> <Gold.Chemscore.Hbond>
1.6052

> <Gold.Chemscore.Metal>
0.0000

> <Gold.Chemscore.Lipo>
45.7684

> <Gold.Chemscore.Internal_Hbond>
0.0000

> <Gold.Chemscore.DEClash>
0.0491

> <Gold.Chemscore.DEInternal>
0.0877

> <Gold.Chemscore.Rot>
1.2805

> <Gold.Chemscore.Internal.Correction>
   9.000000E+99

> <Gold.Chemscore.Hbonds>
donor molecule, donor type, donor heavy atom, donor atom, acceptor molecule, acceptor atom, score
      P1  H  7989  7998       L1    10  0.18
      P1  H 10752 10763       L1    12  0.72

> <Gold.Chemscore.Hbond.Weighted>
-5.3613

> <Gold.Chemscore.Metal.Weighted>
-0.0000

> <Gold.Chemscore.Lipo.Weighted>
-5.3549

> <Gold.Chemscore.Internal_Hbond.Weighted>
0.0000

> <Gold.Chemscore.DEClash.Weighted>
0.0491

> <Gold.Chemscore.DEInternal.Weighted>
0.0877

> <Gold.Chemscore.Rot.Weighted>
3.2782

> <Gold.Chemscore.Internal.Correction.Weighted>
   9.000000E+99

> <Gold.Protein.RotatedTorsions>
[ 6907 6896 6895 6894 ] final   65.69 input  -60.11 | X-H torsion
[ 7974 7965 7964 7962 ] final   72.82 input  175.53 | X-H torsion
[ 8008 7997 7996 7995 ] final  150.48 input   59.86 | X-H torsion
[ 10167 10162 10161 10158 ] final  -36.13 input  -65.29 | X-H torsion
[ 10718 10713 10712 10709 ] final  -40.84 input   66.30 | X-H torsion
[ 10763 10752 10751 10750 ] final   24.50 input  -60.55 | X-H torsion
[ 11005 11000 10999 10996 ] final   25.78 input  -57.11 | X-H torsion

> <Gold.Protein.ActiveResidues>
 VAL166  LYS551  ARG553  GLY616  TRP617  ASP618  TYR619  PRO620  LYS621  CYS622 
 ASP623  PHE694  ASN695  SER759  ASP760  ASP761  ALA762  ILE779  LEU786  VAL792 
 PHE793  MET794  SER795  GLU796  ALA797  LYS798  CYS799  TRP800  GLU811  SER814 

> <Gold.Protein.RotatedAtoms>
  152.4426  134.5560  159.9880 H   0  0  0  0  0  0  0  0  0  0  0  0  # atno 6907 bound_to 6896
  151.5653  133.3391  159.2987 H   0  0  0  0  0  0  0  0  0  0  0  0  # atno 6908 bound_to 6896
  150.8335  134.7632  159.6937 H   0  0  0  0  0  0  0  0  0  0  0  0  # atno 6909 bound_to 6896
  145.7485  139.2750  143.1445 H   0  0  0  0  0  0  0  0  0  0  0  0  # atno 7974 bound_to 7965
  156.2714  140.2074  156.6023 H   0  0  0  0  0  0  0  0  0  0  0  0  # atno 8008 bound_to 7997
  154.6896  140.0531  157.0374 H   0  0  0  0  0  0  0  0  0  0  0  0  # atno 8009 bound_to 7997
  155.0884  140.3194  155.4583 H   0  0  0  0  0  0  0  0  0  0  0  0  # atno 8010 bound_to 7997
  140.7150  143.3430  151.2317 H   0  0  0  0  0  0  0  0  0  0  0  0  # atno 10167 bound_to 10162
  156.2770  130.4213  149.8377 H   0  0  0  0  0  0  0  0  0  0  0  0  # atno 10718 bound_to 10713
  153.0759  135.6604  154.0146 H   0  0  0  0  0  0  0  0  0  0  0  0  # atno 10763 bound_to 10752
  153.9780  135.2958  155.3424 H   0  0  0  0  0  0  0  0  0  0  0  0  # atno 10764 bound_to 10752
  154.7147  135.5190  153.8791 H   0  0  0  0  0  0  0  0  0  0  0  0  # atno 10765 bound_to 10752
  140.3442  134.2300  155.7686 H   0  0  0  0  0  0  0  0  0  0  0  0  # atno 11005 bound_to 11000
  146.0379  140.8194  142.9843 LP  0  0  0  0  0  0  0  0  0  0  0  0  # atno 17320 bound_to 7965
  144.6855  140.2866  143.7284 LP  0  0  0  0  0  0  0  0  0  0  0  0  # atno 17321 bound_to 7965
  139.6942  143.9641  152.2874 LP  0  0  0  0  0  0  0  0  0  0  0  0  # atno 17342 bound_to 10162
  139.9312  144.6740  150.8361 LP  0  0  0  0  0  0  0  0  0  0  0  0  # atno 17343 bound_to 10162
  156.5839  130.8477  151.3390 LP  0  0  0  0  0  0  0  0  0  0  0  0  # atno 17370 bound_to 10713
  157.7302  130.9682  150.1823 LP  0  0  0  0  0  0  0  0  0  0  0  0  # atno 17371 bound_to 10713
  141.2030  133.7923  157.0361 LP  0  0  0  0  0  0  0  0  0  0  0  0  # atno 17394 bound_to 11000
  140.0756  134.9677  157.1540 LP  0  0  0  0  0  0  0  0  0  0  0  0  # atno 17395 bound_to 11000

$$$$
