AV-unprocessed.smi:287|AV-procd|sdf|2185|dock2
  -GOLD-   2262021563D 1   1.00000     0.00000
 Structure written by MMmdl.
 55 58  0  0  0  0  0  0  0  0  1 V2000
  151.9038  145.6693  159.8630 C   0  0  0  0  0  0  0  0  0  0  0  0
  152.0327  144.2134  159.5723 C   0  0  0  0  0  0  0  0  0  0  0  0
  151.5372  143.3964  158.5979 C   0  0  0  0  0  0  0  0  0  0  0  0
  152.0127  142.0772  158.8648 C   0  0  0  0  0  0  0  0  0  0  0  0
  151.7272  140.8273  158.0424 C   0  0  1  0  0  0  0  0  0  0  0  0
  151.1750  141.2289  156.6652 C   0  0  0  0  0  0  0  0  0  0  0  0
  152.8949  140.0741  157.7766 O   0  0  0  0  0  0  0  0  0  0  0  0
  150.7502  139.8531  158.7411 C   0  0  0  0  0  0  0  0  0  0  0  0
  150.2746  138.7920  157.8596 N   0  0  0  0  0  0  0  0  0  0  0  0
  149.0114  138.8179  157.3863 C   0  0  0  0  0  0  0  0  0  0  0  0
  147.9521  138.9681  158.2238 N   0  0  0  0  0  0  0  0  0  0  0  0
  146.7106  138.9987  157.7298 C   0  0  0  0  0  0  0  0  0  0  0  0
  146.3160  138.8975  156.4586 N   0  0  0  0  0  0  0  0  0  0  0  0
  147.3767  138.7419  155.6142 C   0  0  0  0  0  0  0  0  0  0  0  0
  148.7455  138.6926  155.9986 C   0  0  0  0  0  0  0  0  0  0  0  0
  149.5451  138.5264  154.8756 N   0  0  0  0  0  0  0  0  0  0  0  0
  148.6936  138.4838  153.8861 C   0  0  0  0  0  0  0  0  0  0  0  0
  147.3682  138.6038  154.2413 N   0  0  0  0  0  0  0  0  0  0  0  0
  146.1790  138.5967  153.3384 C   0  0  2  0  0  0  0  0  0  0  0  0
  145.3054  137.6082  153.7827 O   0  0  0  0  0  0  0  0  0  0  0  0
  144.6477  137.0497  152.6564 C   0  0  2  0  0  0  0  0  0  0  0  0
  143.9748  135.7122  153.0133 C   0  0  0  0  0  0  0  0  0  0  0  0
  143.4101  135.1251  151.8603 O   0  0  0  0  0  0  0  0  0  0  0  0
  145.7407  137.0210  151.5766 C   0  0  2  0  0  0  0  0  0  0  0  0
  146.5335  135.8524  151.6661 O   0  0  0  0  0  0  0  0  0  0  0  0
  146.5789  138.2602  151.8891 C   0  0  1  0  0  0  0  0  0  0  0  0
  146.2178  139.3060  151.0093 O   0  0  0  0  0  0  0  0  0  0  0  0
  152.7914  142.2077  159.9893 C   0  0  0  0  0  0  0  0  0  0  0  0
  153.6092  141.2556  160.7981 C   0  0  0  0  0  0  0  0  0  0  0  0
  152.8024  143.4969  160.4290 O   0  0  0  0  0  0  0  0  0  0  0  0
  145.7276  139.5837  153.4525 H   0  0  0  0  0  0  0  0  0  0  0  0
  143.8795  137.7647  152.3555 H   0  0  0  0  0  0  0  0  0  0  0  0
  145.3084  137.0466  150.5752 H   0  0  0  0  0  0  0  0  0  0  0  0
  147.6508  138.0729  151.8031 H   0  0  0  0  0  0  0  0  0  0  0  0
  151.2661  146.1589  159.1267 H   0  0  0  0  0  0  0  0  0  0  0  0
  152.8793  146.1555  159.8421 H   0  0  0  0  0  0  0  0  0  0  0  0
  151.4663  145.8296  160.8485 H   0  0  0  0  0  0  0  0  0  0  0  0
  150.8977  143.7089  157.7857 H   0  0  0  0  0  0  0  0  0  0  0  0
  150.2464  141.7929  156.7624 H   0  0  0  0  0  0  0  0  0  0  0  0
  150.9636  140.3550  156.0477 H   0  0  0  0  0  0  0  0  0  0  0  0
  151.8829  141.8551  156.1206 H   0  0  0  0  0  0  0  0  0  0  0  0
  152.6685  139.1568  157.7875 H   0  0  0  0  0  0  0  0  0  0  0  0
  151.2692  139.3686  159.5695 H   0  0  0  0  0  0  0  0  0  0  0  0
  149.9092  140.3960  159.1758 H   0  0  0  0  0  0  0  0  0  0  0  0
  150.9241  138.0391  157.6807 H   0  0  0  0  0  0  0  0  0  0  0  0
  145.9212  139.1249  158.4560 H   0  0  0  0  0  0  0  0  0  0  0  0
  149.0130  138.3618  152.8614 H   0  0  0  0  0  0  0  0  0  0  0  0
  144.6754  135.0184  153.4784 H   0  0  0  0  0  0  0  0  0  0  0  0
  143.1751  135.8820  153.7345 H   0  0  0  0  0  0  0  0  0  0  0  0
  142.5504  135.4940  151.7257 H   0  0  0  0  0  0  0  0  0  0  0  0
  147.4439  136.1058  151.6248 H   0  0  0  0  0  0  0  0  0  0  0  0
  145.3712  139.1074  150.6395 H   0  0  0  0  0  0  0  0  0  0  0  0
  154.2690  140.6714  160.1566 H   0  0  0  0  0  0  0  0  0  0  0  0
  152.9686  140.5643  161.3455 H   0  0  0  0  0  0  0  0  0  0  0  0
  154.2296  141.7847  161.5220 H   0  0  0  0  0  0  0  0  0  0  0  0
  1  2  1  0  0  0  0
  1 35  1  0  0  0  0
  1 36  1  0  0  0  0
  1 37  1  0  0  0  0
  2 30  1  0  0  0  0
  2  3  2  0  0  0  0
  3  4  1  0  0  0  0
  3 38  1  0  0  0  0
  4  5  1  0  0  0  0
  4 28  2  0  0  0  0
  5  6  1  0  0  0  0
  5  7  1  0  0  0  0
  5  8  1  0  0  0  0
  6 39  1  0  0  0  0
  6 40  1  0  0  0  0
  6 41  1  0  0  0  0
  7 42  1  0  0  0  0
  8  9  1  0  0  0  0
  8 43  1  0  0  0  0
  8 44  1  0  0  0  0
  9 10  1  0  0  0  0
  9 45  1  0  0  0  0
 10 15  1  0  0  0  0
 10 11  2  0  0  0  0
 11 12  1  0  0  0  0
 12 13  2  0  0  0  0
 12 46  1  0  0  0  0
 13 14  1  0  0  0  0
 14 18  1  0  0  0  0
 14 15  2  0  0  0  0
 15 16  1  0  0  0  0
 16 17  2  0  0  0  0
 17 18  1  0  0  0  0
 17 47  1  0  0  0  0
 18 19  1  0  0  0  0
 19 31  1  0  0  0  0
 19 26  1  0  0  0  0
 19 20  1  0  0  0  0
 20 21  1  0  0  0  0
 21 32  1  0  0  0  0
 21 22  1  0  0  0  0
 21 24  1  0  0  0  0
 22 23  1  0  0  0  0
 22 48  1  0  0  0  0
 22 49  1  0  0  0  0
 23 50  1  0  0  0  0
 24 33  1  0  0  0  0
 24 25  1  0  0  0  0
 24 26  1  0  0  0  0
 25 51  1  0  0  0  0
 26 34  1  0  0  0  0
 26 27  1  0  0  0  0
 27 52  1  0  0  0  0
 28 29  1  0  0  0  0
 28 30  1  0  0  0  0
 29 53  1  0  0  0  0
 29 54  1  0  0  0  0
 29 55  1  0  0  0  0
M  END
> <s_m_source_file>
AV-unprocessed.smi

> <i_m_source_file_index>
287

> <i_lp_mmshare_version>
43012

> <i_f3d_flags>
0

> <s_epik_input>
W0NIM11jMVtjSF1jKGMobzEpW0NIM10pW0NAQF0oW0NIM10pKFtPSF0pW0NIMl1bTkhdYyhuW2NIXW4yKWMoYzIzKW5bY0hdbjNbQ0BASF00T1tDQEhdKFtDSDJdW09IXSlbQ0BASF0oW09IXSlbQ0BIXTRbT0hd

> <s_epik_cmdline>
J2VwaWtfcHl0aG9uJywgJy1waCcsICc3LjAnLCAnLXRuJywgJzgnLCAnLW1hJywgJzIwMCcsICctbWV0YWxfYmluZGluZycsICctaW1hZScsICc8aW5maWxlLm1hZT4nLCAnLW9tYWUnLCAnPG91dGZpbGUubWFlPic=

> <r_lp_tautomer_probability>
1

> <r_epik_Ionization_Penalty>
0.000992612

> <r_epik_Ionization_Penalty_Charging>
0

> <r_epik_Ionization_Penalty_Neutral>
0.000992612

> <r_epik_State_Penalty>
-0

> <r_epik_Charging_Adjusted_Penalty>
0

> <i_epik_Tot_Q>
0

> <i_epik_Tot_abs_Q>
0

> <r_epik_Metal_State_Penalty>
-0

> <b_epik_Metal_Only>
0

> <s_epik_Chemistry_Notes>
This compound contains an acetal/aminal-like group ( X-CH(R)-Y where X, Y are N, S, or O) that may be acid/base labile, releasing an aldehyde.

> <s_lp_Force_Field>
OPLS_2005

> <r_lp_Energy>
37.4731

> <b_lp_Chiralities_Consistent>
1

> <s_lp_Variant>
AV-unprocessed.smi:287-9

> <Gold.Version>
5.8.1

> <Gold.Id.Protein>
6NUR|6NUR_protein|mol2

> <Gold.PLP.Fitness>
54.1823

> <Gold.PLP.PLP>
-42.0333

> <Gold.PLP.part.hbond>
-4.4920

> <Gold.PLP.part.metal>
0.0000

> <Gold.PLP.part.buried>
-0.3924

> <Gold.PLP.part.nonpolar>
-38.0386

> <Gold.PLP.part.repulsive>
0.3713

> <Gold.PLP.ligand.clash>
0.0000

> <Gold.PLP.ligand.torsion>
1.2424

> <Gold.PLP.Chemscore.Hbond>
3.0000

> <Gold.PLP.Chemscore.CHOScore>
1.8217

> <Gold.PLP.Chemscore.Metal>
0.0000

> <Gold.Chemscore.Hbonds>
donor molecule, donor type, donor heavy atom, donor atom, acceptor molecule, acceptor atom, score
      L1  H    25    51       P1  7948  0.91
      L1  H    27    52       P1 10171  1.00
      P1  H  7997  8010       L1     7  1.00
      L1  C    17    47       P1  7948  0.82
      L1  C    17    47       P1  7957  1.00

> <Gold.PLP.Chemscore.Internal.Correction>
0.1687

> <Gold.Rescore>
     Score         DG    S(hbond)    S(metal)    S(lipo)     H(rot)  DE(clash)    DE(int)     intcor
     12.69     -14.22       2.90        0.00     107.16       5.27       0.40       1.13       ----

> <Gold.Chemscore.Fitness>
12.6881

> <Gold.Chemscore.DG>
-14.2155

> <Gold.Chemscore.ZeroCoef>
-5.4800

> <Gold.Chemscore.Hbond>
2.8989

> <Gold.Chemscore.Metal>
0.0000

> <Gold.Chemscore.Lipo>
107.1556

> <Gold.Chemscore.Internal_Hbond>
0.0000

> <Gold.Chemscore.DEClash>
0.3966

> <Gold.Chemscore.DEInternal>
1.1308

> <Gold.Chemscore.Rot>
5.2672

> <Gold.Chemscore.Internal.Correction>
   9.000000E+99

> <Gold.Chemscore.Hbonds>
donor molecule, donor type, donor heavy atom, donor atom, acceptor molecule, acceptor atom, score
      L1  H    25    51       P1  7948  0.89
      L1  H    27    52       P1 10171  1.00
      P1  H  7997  8010       L1     7  0.33

> <Gold.Chemscore.Hbond.Weighted>
-9.6822

> <Gold.Chemscore.Metal.Weighted>
-0.0000

> <Gold.Chemscore.Lipo.Weighted>
-12.5372

> <Gold.Chemscore.Internal_Hbond.Weighted>
0.0000

> <Gold.Chemscore.DEClash.Weighted>
0.3966

> <Gold.Chemscore.DEInternal.Weighted>
1.1308

> <Gold.Chemscore.Rot.Weighted>
13.4839

> <Gold.Chemscore.Internal.Correction.Weighted>
   9.000000E+99

> <Gold.Protein.RotatedTorsions>
[ 6907 6896 6895 6894 ] final -103.41 input  -60.11 | X-H torsion
[ 7974 7965 7964 7962 ] final  -30.79 input  175.53 | X-H torsion
[ 8008 7997 7996 7995 ] final   53.13 input   59.86 | X-H torsion
[ 10167 10162 10161 10158 ] final   51.91 input  -65.29 | X-H torsion
[ 10718 10713 10712 10709 ] final   44.44 input   66.30 | X-H torsion
[ 10763 10752 10751 10750 ] final  -57.97 input  -60.55 | X-H torsion
[ 11005 11000 10999 10996 ] final -127.68 input  -57.11 | X-H torsion

> <Gold.Protein.ActiveResidues>
 VAL166  LYS551  ARG553  GLY616  TRP617  ASP618  TYR619  PRO620  LYS621  CYS622 
 ASP623  PHE694  ASN695  SER759  ASP760  ASP761  ALA762  ILE779  LEU786  VAL792 
 PHE793  MET794  SER795  GLU796  ALA797  LYS798  CYS799  TRP800  GLU811  SER814 

> <Gold.Protein.RotatedAtoms>
  150.7239  134.0434  159.3773 H   0  0  0  0  0  0  0  0  0  0  0  0  # atno 6907 bound_to 6896
  151.8408  135.0588  160.0457 H   0  0  0  0  0  0  0  0  0  0  0  0  # atno 6908 bound_to 6896
  152.2864  133.5483  159.5566 H   0  0  0  0  0  0  0  0  0  0  0  0  # atno 6909 bound_to 6896
  146.1116  140.5585  142.8775 H   0  0  0  0  0  0  0  0  0  0  0  0  # atno 7974 bound_to 7965
  155.4632  140.3462  155.4315 H   0  0  0  0  0  0  0  0  0  0  0  0  # atno 8008 bound_to 7997
  156.1147  140.1470  156.9318 H   0  0  0  0  0  0  0  0  0  0  0  0  # atno 8009 bound_to 7997
  154.4781  140.0878  156.7290 H   0  0  0  0  0  0  0  0  0  0  0  0  # atno 8010 bound_to 7997
  140.2569  144.3417  150.6330 H   0  0  0  0  0  0  0  0  0  0  0  0  # atno 10167 bound_to 10162
  157.4268  130.8001  149.7566 H   0  0  0  0  0  0  0  0  0  0  0  0  # atno 10718 bound_to 10713
  154.2308  135.6361  153.5174 H   0  0  0  0  0  0  0  0  0  0  0  0  # atno 10763 bound_to 10752
  152.9949  135.5519  154.6015 H   0  0  0  0  0  0  0  0  0  0  0  0  # atno 10764 bound_to 10752
  154.5497  135.2900  155.0994 H   0  0  0  0  0  0  0  0  0  0  0  0  # atno 10765 bound_to 10752
  140.9579  134.0976  157.3997 H   0  0  0  0  0  0  0  0  0  0  0  0  # atno 11005 bound_to 11000
  144.7517  140.5206  143.6797 LP  0  0  0  0  0  0  0  0  0  0  0  0  # atno 17320 bound_to 7965
  145.5651  139.1481  143.3319 LP  0  0  0  0  0  0  0  0  0  0  0  0  # atno 17321 bound_to 7965
  140.5997  143.2167  151.7096 LP  0  0  0  0  0  0  0  0  0  0  0  0  # atno 17342 bound_to 10162
  139.5029  144.3812  152.0373 LP  0  0  0  0  0  0  0  0  0  0  0  0  # atno 17343 bound_to 10162
  155.9899  130.3948  150.3051 LP  0  0  0  0  0  0  0  0  0  0  0  0  # atno 17370 bound_to 10713
  157.1204  131.0245  151.3011 LP  0  0  0  0  0  0  0  0  0  0  0  0  # atno 17371 bound_to 10713
  139.8868  135.0085  156.6523 LP  0  0  0  0  0  0  0  0  0  0  0  0  # atno 17394 bound_to 11000
  140.7509  133.8898  155.8346 LP  0  0  0  0  0  0  0  0  0  0  0  0  # atno 17395 bound_to 11000

$$$$
