AV-unprocessed.smi:767|AV-procd|sdf|3669|dock5
  -GOLD-   22720 1 83D 1   1.00000     0.00000
 Structure written by MMmdl.
 48 50  0  0  0  0  0  0  0  0  2 V2000
  150.9188  142.2145  156.5337 C   0  0  0  0  0  0  0  0  0  0  0  0
  149.9611  141.5196  155.5889 C   0  0  0  0  0  0  0  0  0  0  0  0
  150.0777  140.1497  155.2694 C   0  0  0  0  0  0  0  0  0  0  0  0
  149.1501  139.5686  154.3800 C   0  0  0  0  0  0  0  0  0  0  0  0
  148.1252  140.3680  153.8284 C   0  0  0  0  0  0  0  0  0  0  0  0
  147.1094  139.7718  152.8740 C   0  0  0  0  0  0  0  0  0  0  0  0
  146.2602  138.6798  153.5442 C   0  0  0  0  0  0  0  0  0  0  0  0
  146.6573  137.3474  153.1067 N   0  0  0  0  0  0  0  0  0  0  0  0
  145.8651  136.2667  153.1297 C   0  0  0  0  0  0  0  0  0  0  0  0
  144.6977  136.2758  153.5211 O   0  0  0  0  0  0  0  0  0  0  0  0
  146.4949  135.1777  152.6704 N   0  0  0  0  0  0  0  0  0  0  0  0
  145.8915  133.8515  152.5859 C   0  0  2  0  0  0  0  0  0  0  0  0
  146.8302  132.8197  151.9413 C   0  0  1  0  0  0  0  0  0  0  0  0
  147.3499  131.6671  152.7565 C   0  0  0  0  0  0  0  0  0  0  0  0
  146.3625  130.5436  152.4271 C   0  0  0  0  0  0  0  0  0  0  0  0
  145.1914  131.2152  151.9685 O   0  0  0  0  0  0  0  0  0  0  0  0
  145.6146  132.3213  151.1749 C   0  0  1  0  0  0  0  0  0  0  0  0
  144.8928  133.6643  151.4151 C   0  0  0  0  0  0  0  0  0  0  0  0
  143.4146  133.5716  151.7970 C   0  0  0  0  0  0  0  0  0  0  0  0
  144.9854  134.6465  150.2386 C   0  0  0  0  0  0  0  0  0  0  0  0
  148.0568  141.7318  154.1852 C   0  0  0  0  0  0  0  0  0  0  0  0
  148.9651  142.2510  155.0402 N   0  3  0  0  0  0  0  0  0  0  0  0
  151.6644  141.5185  156.9197 H   0  0  0  0  0  0  0  0  0  0  0  0
  150.3779  142.6374  157.3808 H   0  0  0  0  0  0  0  0  0  0  0  0
  151.4411  143.0217  156.0197 H   0  0  0  0  0  0  0  0  0  0  0  0
  150.8668  139.5491  155.6983 H   0  0  0  0  0  0  0  0  0  0  0  0
  149.2252  138.5210  154.1270 H   0  0  0  0  0  0  0  0  0  0  0  0
  146.4704  140.5713  152.4963 H   0  0  0  0  0  0  0  0  0  0  0  0
  147.6314  139.3623  152.0082 H   0  0  0  0  0  0  0  0  0  0  0  0
  146.3772  138.7288  154.6271 H   0  0  0  0  0  0  0  0  0  0  0  0
  145.2002  138.8380  153.3380 H   0  0  0  0  0  0  0  0  0  0  0  0
  147.6025  137.2395  152.7685 H   0  0  0  0  0  0  0  0  0  0  0  0
  147.4543  135.2662  152.3694 H   0  0  0  0  0  0  0  0  0  0  0  0
  145.4869  133.4924  153.5350 H   0  0  0  0  0  0  0  0  0  0  0  0
  147.5647  133.2754  151.2744 H   0  0  0  0  0  0  0  0  0  0  0  0
  148.3718  131.3935  152.4933 H   0  0  0  0  0  0  0  0  0  0  0  0
  147.3296  131.9031  153.8208 H   0  0  0  0  0  0  0  0  0  0  0  0
  146.7495  129.9170  151.6221 H   0  0  0  0  0  0  0  0  0  0  0  0
  146.1489  129.9054  153.2847 H   0  0  0  0  0  0  0  0  0  0  0  0
  145.8188  132.0614  150.1349 H   0  0  0  0  0  0  0  0  0  0  0  0
  142.8135  133.1770  150.9773 H   0  0  0  0  0  0  0  0  0  0  0  0
  143.0087  134.5472  152.0661 H   0  0  0  0  0  0  0  0  0  0  0  0
  143.2613  132.9154  152.6540 H   0  0  0  0  0  0  0  0  0  0  0  0
  144.4049  134.2982  149.3838 H   0  0  0  0  0  0  0  0  0  0  0  0
  146.0128  134.7717  149.8954 H   0  0  0  0  0  0  0  0  0  0  0  0
  144.6099  135.6345  150.5070 H   0  0  0  0  0  0  0  0  0  0  0  0
  147.3085  142.4186  153.8165 H   0  0  0  0  0  0  0  0  0  0  0  0
  148.8960  143.2398  155.2826 H   0  0  0  0  0  0  0  0  0  0  0  0
  1  2  1  0  0  0  0
  1 23  1  0  0  0  0
  1 24  1  0  0  0  0
  1 25  1  0  0  0  0
  2 22  1  0  0  0  0
  2  3  2  0  0  0  0
  3  4  1  0  0  0  0
  3 26  1  0  0  0  0
  4  5  2  0  0  0  0
  4 27  1  0  0  0  0
  5  6  1  0  0  0  0
  5 21  1  0  0  0  0
  6  7  1  0  0  0  0
  6 28  1  0  0  0  0
  6 29  1  0  0  0  0
  7  8  1  0  0  0  0
  7 30  1  0  0  0  0
  7 31  1  0  0  0  0
  8  9  1  0  0  0  0
  8 32  1  0  0  0  0
  9 10  2  0  0  0  0
  9 11  1  0  0  0  0
 11 12  1  0  0  0  0
 11 33  1  0  0  0  0
 12 18  1  0  0  0  0
 12 13  1  0  0  0  0
 12 34  1  0  0  0  0
 13 17  1  0  0  0  0
 13 14  1  0  0  0  0
 13 35  1  0  0  0  0
 14 15  1  0  0  0  0
 14 36  1  0  0  0  0
 14 37  1  0  0  0  0
 15 16  1  0  0  0  0
 15 38  1  0  0  0  0
 15 39  1  0  0  0  0
 16 17  1  0  0  0  0
 17 18  1  0  0  0  0
 17 40  1  0  0  0  0
 18 19  1  0  0  0  0
 18 20  1  0  0  0  0
 19 41  1  0  0  0  0
 19 42  1  0  0  0  0
 19 43  1  0  0  0  0
 20 44  1  0  0  0  0
 20 45  1  0  0  0  0
 20 46  1  0  0  0  0
 21 22  2  0  0  0  0
 21 47  1  0  0  0  0
 22 48  1  0  0  0  0
M  CHG  1  22   1
M  END
> <s_m_source_file>
AV-unprocessed.smi

> <i_m_source_file_index>
767

> <i_lp_mmshare_version>
43012

> <i_f3d_flags>
0

> <s_epik_input>
W0NIM11jMVtjSF1bY0hdYyhbY0hdbjEpW0NIMl1bQ0gyXVtOSF1DKD1PKVtOSF1bQ0BIXTJDKFtDSDNdKShbQ0gzXSlbQ0BIXShbQ0BASF0yMylPW0NIMl1bQ0gyXTM=

> <s_epik_cmdline>
J2VwaWtfcHl0aG9uJywgJy1waCcsICc3LjAnLCAnLXRuJywgJzgnLCAnLW1hJywgJzIwMCcsICctbWV0YWxfYmluZGluZycsICctaW1hZScsICc8aW5maWxlLm1hZT4nLCAnLW9tYWUnLCAnPG91dGZpbGUubWFlPic=

> <r_epik_Ionization_Penalty>
1.41853

> <r_epik_Ionization_Penalty_Charging>
1.41848

> <r_epik_Ionization_Penalty_Neutral>
5.17407e-05

> <r_epik_State_Penalty>
1.50205

> <r_epik_Charging_Adjusted_Penalty>
2.92053

> <i_epik_Tot_Q>
1

> <i_epik_Tot_abs_Q>
1

> <r_epik_Metal_State_Penalty>
1.5544

> <b_epik_Metal_Only>
0

> <s_lp_Force_Field>
OPLS_2005

> <r_lp_Energy>
38.5293

> <b_lp_Chiralities_Consistent>
1

> <s_lp_Variant>
AV-unprocessed.smi:767-13

> <Gold.Version>
5.8.1

> <Gold.Id.Protein>
6NUR|6NUR_protein|mol2

> <Gold.PLP.Fitness>
48.0500

> <Gold.PLP.PLP>
-37.0872

> <Gold.PLP.part.hbond>
-3.0000

> <Gold.PLP.part.metal>
0.0000

> <Gold.PLP.part.buried>
-1.2504

> <Gold.PLP.part.nonpolar>
-33.7374

> <Gold.PLP.part.repulsive>
0.4636

> <Gold.PLP.ligand.clash>
0.0000

> <Gold.PLP.ligand.torsion>
0.6108

> <Gold.PLP.Chemscore.Hbond>
4.0000

> <Gold.PLP.Chemscore.CHOScore>
0.0000

> <Gold.PLP.Chemscore.Metal>
0.0000

> <Gold.Chemscore.Hbonds>
donor molecule, donor type, donor heavy atom, donor atom, acceptor molecule, acceptor atom, score
      L1  H     8    32       P1  7948  1.00
      L1  H    11    33       P1  7948  1.00
      L1  H    22    48       P1  8028  1.92

> <Gold.PLP.Chemscore.Internal.Correction>
0.1843

> <Gold.Rescore>
     Score         DG    S(hbond)    S(metal)    S(lipo)     H(rot)  DE(clash)    DE(int)     intcor
     21.47     -22.14       2.86        0.00      93.93       1.52       0.03       0.64       ----

> <Gold.Chemscore.Fitness>
21.4690

> <Gold.Chemscore.DG>
-22.1378

> <Gold.Chemscore.ZeroCoef>
-5.4800

> <Gold.Chemscore.Hbond>
2.8644

> <Gold.Chemscore.Metal>
0.0000

> <Gold.Chemscore.Lipo>
93.9342

> <Gold.Chemscore.Internal_Hbond>
0.0000

> <Gold.Chemscore.DEClash>
0.0329

> <Gold.Chemscore.DEInternal>
0.6359

> <Gold.Chemscore.Rot>
1.5233

> <Gold.Chemscore.Internal.Correction>
   9.000000E+99

> <Gold.Chemscore.Hbonds>
donor molecule, donor type, donor heavy atom, donor atom, acceptor molecule, acceptor atom, score
      L1  H     8    32       P1  7948  0.95
      L1  H    11    33       P1  7948  0.98
      L1  H    22    48       P1  8028  0.91

> <Gold.Chemscore.Hbond.Weighted>
-9.5670

> <Gold.Chemscore.Metal.Weighted>
-0.0000

> <Gold.Chemscore.Lipo.Weighted>
-10.9903

> <Gold.Chemscore.Internal_Hbond.Weighted>
0.0000

> <Gold.Chemscore.DEClash.Weighted>
0.0329

> <Gold.Chemscore.DEInternal.Weighted>
0.6359

> <Gold.Chemscore.Rot.Weighted>
3.8995

> <Gold.Chemscore.Internal.Correction.Weighted>
   9.000000E+99

> <Gold.Protein.RotatedTorsions>
[ 6907 6896 6895 6894 ] final -132.06 input  -60.11 | X-H torsion
[ 7974 7965 7964 7962 ] final  175.54 input  175.53 | X-H torsion
[ 8008 7997 7996 7995 ] final    7.95 input   59.86 | X-H torsion
[ 10167 10162 10161 10158 ] final -167.14 input  -65.29 | X-H torsion
[ 10718 10713 10712 10709 ] final   22.93 input   66.30 | X-H torsion
[ 10763 10752 10751 10750 ] final   -2.57 input  -60.55 | X-H torsion
[ 11005 11000 10999 10996 ] final    3.90 input  -57.11 | X-H torsion

> <Gold.Protein.ActiveResidues>
 VAL166  LYS551  ARG553  GLY616  TRP617  ASP618  TYR619  PRO620  LYS621  CYS622 
 ASP623  PHE694  ASN695  SER759  ASP760  ASP761  ALA762  ILE779  LEU786  VAL792 
 PHE793  MET794  SER795  GLU796  ALA797  LYS798  CYS799  TRP800  GLU811  SER814 

> <Gold.Protein.RotatedAtoms>
  150.9581  133.6475  159.2759 H   0  0  0  0  0  0  0  0  0  0  0  0  # atno 6907 bound_to 6896
  151.3808  135.0938  159.9505 H   0  0  0  0  0  0  0  0  0  0  0  0  # atno 6908 bound_to 6896
  152.5137  133.9116  159.7545 H   0  0  0  0  0  0  0  0  0  0  0  0  # atno 6909 bound_to 6896
  144.7200  139.9961  143.6440 H   0  0  0  0  0  0  0  0  0  0  0  0  # atno 7974 bound_to 7965
  154.7605  140.2783  155.6218 H   0  0  0  0  0  0  0  0  0  0  0  0  # atno 8008 bound_to 7997
  156.2914  140.2661  156.2309 H   0  0  0  0  0  0  0  0  0  0  0  0  # atno 8009 bound_to 7997
  155.0024  140.0372  157.2355 H   0  0  0  0  0  0  0  0  0  0  0  0  # atno 8010 bound_to 7997
  139.6069  144.0895  152.1802 H   0  0  0  0  0  0  0  0  0  0  0  0  # atno 10167 bound_to 10162
  157.1591  130.6709  149.6038 H   0  0  0  0  0  0  0  0  0  0  0  0  # atno 10718 bound_to 10713
  153.3597  135.6990  153.6722 H   0  0  0  0  0  0  0  0  0  0  0  0  # atno 10763 bound_to 10752
  153.5415  135.3572  155.2721 H   0  0  0  0  0  0  0  0  0  0  0  0  # atno 10764 bound_to 10752
  154.8666  135.4204  154.2852 H   0  0  0  0  0  0  0  0  0  0  0  0  # atno 10765 bound_to 10752
  140.5880  133.9951  155.8076 H   0  0  0  0  0  0  0  0  0  0  0  0  # atno 11005 bound_to 11000
  146.0372  139.3389  143.0719 LP  0  0  0  0  0  0  0  0  0  0  0  0  # atno 17320 bound_to 7965
  145.8379  140.9596  143.0814 LP  0  0  0  0  0  0  0  0  0  0  0  0  # atno 17321 bound_to 7965
  140.0504  144.5937  150.7340 LP  0  0  0  0  0  0  0  0  0  0  0  0  # atno 17342 bound_to 10162
  140.7291  143.2669  151.4016 LP  0  0  0  0  0  0  0  0  0  0  0  0  # atno 17343 bound_to 10162
  155.9757  130.4718  150.6477 LP  0  0  0  0  0  0  0  0  0  0  0  0  # atno 17370 bound_to 10713
  157.4149  131.0829  151.1186 LP  0  0  0  0  0  0  0  0  0  0  0  0  # atno 17371 bound_to 10713
  141.0953  133.9852  157.3169 LP  0  0  0  0  0  0  0  0  0  0  0  0  # atno 17394 bound_to 11000
  139.9287  135.0201  156.8325 LP  0  0  0  0  0  0  0  0  0  0  0  0  # atno 17395 bound_to 11000

$$$$
