AV-unprocessed.smi:1749|AV-procd|sdf|7048|dock10
  -GOLD-   22720 8263D 1   1.00000     0.00000
 Structure written by MMmdl.
 31 32  0  0  0  0  0  0  0  0  2 V2000
  151.5679  145.6155  159.8560 C   0  0  0  0  0  0  0  0  0  0  0  0
  151.8189  144.1078  159.9999 C   0  0  2  0  0  0  0  0  0  0  0  0
  152.3159  143.7517  161.4141 C   0  0  0  0  0  0  0  0  0  0  0  0
  152.5734  142.2436  161.5597 C   0  0  0  0  0  0  0  0  0  0  0  0
  153.5617  141.7397  160.4941 C   0  0  0  0  0  0  0  0  0  0  0  0
  153.0974  142.0881  159.0645 C   0  0  1  0  0  0  0  0  0  0  0  0
  151.9079  141.3237  158.6949 N   0  0  0  0  0  0  0  0  0  0  0  0
  151.8534  140.2532  157.8790 C   0  0  0  0  0  0  0  0  0  0  0  0
  152.8901  139.8500  157.3532 O   0  0  0  0  0  0  0  0  0  0  0  0
  150.6408  139.6710  157.6826 N   0  5  0  0  0  0  0  0  0  0  0  0
  150.2096  139.2946  156.4640 C   0  0  0  0  0  0  0  0  0  0  0  0
  148.9307  138.9624  156.2232 N   0  0  0  0  0  0  0  0  0  0  0  0
  148.6961  138.6196  154.8986 N   0  0  0  0  0  0  0  0  0  0  0  0
  149.8119  138.6909  154.1732 C   0  0  0  0  0  0  0  0  0  0  0  0
  151.2503  139.1838  155.0418 S   0  0  0  0  0  0  0  0  0  0  0  0
  152.8119  143.5976  158.9336 C   0  0  0  0  0  0  0  0  0  0  0  0
  152.4852  146.1864  160.0031 H   0  0  0  0  0  0  0  0  0  0  0  0
  150.8377  145.9634  160.5869 H   0  0  0  0  0  0  0  0  0  0  0  0
  151.1814  145.8553  158.8650 H   0  0  0  0  0  0  0  0  0  0  0  0
  150.8631  143.6051  159.8442 H   0  0  0  0  0  0  0  0  0  0  0  0
  153.2347  144.2987  161.6308 H   0  0  0  0  0  0  0  0  0  0  0  0
  151.5848  144.0700  162.1579 H   0  0  0  0  0  0  0  0  0  0  0  0
  152.9616  142.0282  162.5555 H   0  0  0  0  0  0  0  0  0  0  0  0
  151.6310  141.7007  161.4744 H   0  0  0  0  0  0  0  0  0  0  0  0
  154.5379  142.1922  160.6718 H   0  0  0  0  0  0  0  0  0  0  0  0
  153.7057  140.6635  160.5974 H   0  0  0  0  0  0  0  0  0  0  0  0
  153.8964  141.8377  158.3646 H   0  0  0  0  0  0  0  0  0  0  0  0
  151.0391  141.6231  159.1124 H   0  0  0  0  0  0  0  0  0  0  0  0
  149.7885  138.4492  153.1210 H   0  0  0  0  0  0  0  0  0  0  0  0
  152.4332  143.8160  157.9339 H   0  0  0  0  0  0  0  0  0  0  0  0
  153.7511  144.1446  159.0265 H   0  0  0  0  0  0  0  0  0  0  0  0
  1  2  1  0  0  0  0
  1 17  1  0  0  0  0
  1 18  1  0  0  0  0
  1 19  1  0  0  0  0
  2 16  1  0  0  0  0
  2  3  1  0  0  0  0
  2 20  1  0  0  0  0
  3  4  1  0  0  0  0
  3 21  1  0  0  0  0
  3 22  1  0  0  0  0
  4  5  1  0  0  0  0
  4 23  1  0  0  0  0
  4 24  1  0  0  0  0
  5  6  1  0  0  0  0
  5 25  1  0  0  0  0
  5 26  1  0  0  0  0
  6  7  1  0  0  0  0
  6 16  1  0  0  0  0
  6 27  1  0  0  0  0
  7  8  1  0  0  0  0
  7 28  1  0  0  0  0
  8  9  2  0  0  0  0
  8 10  1  0  0  0  0
 10 11  1  0  0  0  0
 11 15  1  0  0  0  0
 11 12  2  0  0  0  0
 12 13  1  0  0  0  0
 13 14  2  0  0  0  0
 14 15  1  0  0  0  0
 14 29  1  0  0  0  0
 16 30  1  0  0  0  0
 16 31  1  0  0  0  0
M  CHG  1  10  -1
M  END
> <s_m_source_file>
AV-unprocessed.smi

> <i_m_source_file_index>
1749

> <i_lp_mmshare_version>
43012

> <i_f3d_flags>
0

> <s_epik_input>
W0NIM11bQ0BASF0xW0NIMl1bQ0gyXVtDSDJdW0NASF0oW0NIMl0xKVtOSF1DKD1PKVtOSF1jMm5uW2NIXXMy

> <s_epik_cmdline>
J2VwaWtfcHl0aG9uJywgJy1waCcsICc3LjAnLCAnLXRuJywgJzgnLCAnLW1hJywgJzIwMCcsICctbWV0YWxfYmluZGluZycsICctaW1hZScsICc8aW5maWxlLm1hZT4nLCAnLW9tYWUnLCAnPG91dGZpbGUubWFlPic=

> <r_lp_tautomer_probability>
1

> <r_epik_Ionization_Penalty>
4.55442

> <r_epik_Ionization_Penalty_Charging>
4.5081

> <r_epik_Ionization_Penalty_Neutral>
0.0463156

> <r_epik_State_Penalty>
4.50781

> <r_epik_Charging_Adjusted_Penalty>
9.01591

> <i_epik_Tot_Q>
-1

> <i_epik_Tot_abs_Q>
1

> <r_epik_Metal_State_Penalty>
0.823335

> <b_epik_Metal_Only>
1

> <s_lp_Force_Field>
OPLS_2005

> <r_lp_Energy>
7.79414

> <b_lp_Chiralities_Consistent>
1

> <s_lp_Variant>
AV-unprocessed.smi:1749-5

> <Gold.Version>
5.8.1

> <Gold.Id.Protein>
6NUR|6NUR_protein|mol2

> <Gold.PLP.Fitness>
42.3215

> <Gold.PLP.PLP>
-35.3714

> <Gold.PLP.part.hbond>
-1.0000

> <Gold.PLP.part.metal>
0.0000

> <Gold.PLP.part.buried>
-3.1549

> <Gold.PLP.part.nonpolar>
-31.3733

> <Gold.PLP.part.repulsive>
0.2167

> <Gold.PLP.ligand.clash>
0.0000

> <Gold.PLP.ligand.torsion>
0.5892

> <Gold.PLP.Chemscore.Hbond>
1.0000

> <Gold.PLP.Chemscore.CHOScore>
1.7074

> <Gold.PLP.Chemscore.Metal>
0.0000

> <Gold.Chemscore.Hbonds>
donor molecule, donor type, donor heavy atom, donor atom, acceptor molecule, acceptor atom, score
      P1  H  7997  8008       L1     9  1.00
      L1  C    14    29       P1  7948  0.73
      L1  C    14    29       P1  7957  0.98

> <Gold.PLP.Chemscore.Internal.Correction>
0.0063

> <Gold.Rescore>
     Score         DG    S(hbond)    S(metal)    S(lipo)     H(rot)  DE(clash)    DE(int)     intcor
     15.53     -17.32       0.99        0.00      94.74       1.00       0.07       1.72       ----

> <Gold.Chemscore.Fitness>
15.5320

> <Gold.Chemscore.DG>
-17.3237

> <Gold.Chemscore.ZeroCoef>
-5.4800

> <Gold.Chemscore.Hbond>
0.9937

> <Gold.Chemscore.Metal>
0.0000

> <Gold.Chemscore.Lipo>
94.7412

> <Gold.Chemscore.Internal_Hbond>
0.0000

> <Gold.Chemscore.DEClash>
0.0699

> <Gold.Chemscore.DEInternal>
1.7219

> <Gold.Chemscore.Rot>
1.0000

> <Gold.Chemscore.Internal.Correction>
   9.000000E+99

> <Gold.Chemscore.Hbonds>
donor molecule, donor type, donor heavy atom, donor atom, acceptor molecule, acceptor atom, score
      P1  H  7997  8008       L1     9  0.98

> <Gold.Chemscore.Hbond.Weighted>
-3.3190

> <Gold.Chemscore.Metal.Weighted>
-0.0000

> <Gold.Chemscore.Lipo.Weighted>
-11.0847

> <Gold.Chemscore.Internal_Hbond.Weighted>
0.0000

> <Gold.Chemscore.DEClash.Weighted>
0.0699

> <Gold.Chemscore.DEInternal.Weighted>
1.7219

> <Gold.Chemscore.Rot.Weighted>
2.5600

> <Gold.Chemscore.Internal.Correction.Weighted>
   9.000000E+99

> <Gold.Protein.RotatedTorsions>
[ 6907 6896 6895 6894 ] final -163.72 input  -60.11 | X-H torsion
[ 7974 7965 7964 7962 ] final   36.24 input  175.53 | X-H torsion
[ 8008 7997 7996 7995 ] final  -54.58 input   59.86 | X-H torsion
[ 10167 10162 10161 10158 ] final   70.46 input  -65.29 | X-H torsion
[ 10718 10713 10712 10709 ] final  158.34 input   66.30 | X-H torsion
[ 10763 10752 10751 10750 ] final  -52.60 input  -60.55 | X-H torsion
[ 11005 11000 10999 10996 ] final -112.22 input  -57.11 | X-H torsion

> <Gold.Protein.ActiveResidues>
 VAL166  LYS551  ARG553  GLY616  TRP617  ASP618  TYR619  PRO620  LYS621  CYS622 
 ASP623  PHE694  ASN695  SER759  ASP760  ASP761  ALA762  ILE779  LEU786  VAL792 
 PHE793  MET794  SER795  GLU796  ALA797  LYS798  CYS799  TRP800  GLU811  SER814 

> <Gold.Protein.RotatedAtoms>
  151.4004  133.3759  159.2731 H   0  0  0  0  0  0  0  0  0  0  0  0  # atno 6907 bound_to 6896
  150.9438  134.8846  159.7639 H   0  0  0  0  0  0  0  0  0  0  0  0  # atno 6908 bound_to 6896
  152.5082  134.3956  159.9451 H   0  0  0  0  0  0  0  0  0  0  0  0  # atno 6909 bound_to 6896
  146.1225  139.6042  142.9280 H   0  0  0  0  0  0  0  0  0  0  0  0  # atno 7974 bound_to 7965
  154.4167  140.1173  156.5339 H   0  0  0  0  0  0  0  0  0  0  0  0  # atno 8008 bound_to 7997
  155.6578  140.3496  155.4752 H   0  0  0  0  0  0  0  0  0  0  0  0  # atno 8009 bound_to 7997
  155.9739  140.1147  157.0777 H   0  0  0  0  0  0  0  0  0  0  0  0  # atno 8010 bound_to 7997
  140.0567  144.5267  150.7324 H   0  0  0  0  0  0  0  0  0  0  0  0  # atno 10167 bound_to 10162
  157.1792  131.0628  151.2141 H   0  0  0  0  0  0  0  0  0  0  0  0  # atno 10718 bound_to 10713
  154.1454  135.6498  153.4951 H   0  0  0  0  0  0  0  0  0  0  0  0  # atno 10763 bound_to 10752
  153.0153  135.5325  154.6862 H   0  0  0  0  0  0  0  0  0  0  0  0  # atno 10764 bound_to 10752
  154.6135  135.2956  155.0377 H   0  0  0  0  0  0  0  0  0  0  0  0  # atno 10765 bound_to 10752
  141.0688  133.9414  157.2526 H   0  0  0  0  0  0  0  0  0  0  0  0  # atno 11005 bound_to 11000
  145.5435  141.0419  143.2318 LP  0  0  0  0  0  0  0  0  0  0  0  0  # atno 17320 bound_to 7965
  144.7611  139.6955  143.7234 LP  0  0  0  0  0  0  0  0  0  0  0  0  # atno 17321 bound_to 7965
  140.7191  143.2572  151.4337 LP  0  0  0  0  0  0  0  0  0  0  0  0  # atno 17342 bound_to 10162
  139.5919  144.1480  152.2098 LP  0  0  0  0  0  0  0  0  0  0  0  0  # atno 17343 bound_to 10162
  157.3969  130.7312  149.6738 LP  0  0  0  0  0  0  0  0  0  0  0  0  # atno 17370 bound_to 10713
  155.9727  130.4131  150.4066 LP  0  0  0  0  0  0  0  0  0  0  0  0  # atno 17371 bound_to 10713
  139.9503  135.0176  156.8974 LP  0  0  0  0  0  0  0  0  0  0  0  0  # atno 17394 bound_to 11000
  140.5717  134.0437  155.7432 LP  0  0  0  0  0  0  0  0  0  0  0  0  # atno 17395 bound_to 11000

$$$$
