AV-unprocessed.smi:2397|AV-procd|sdf|9495|dock6
  -GOLD-   2272013123D 1   1.00000     0.00000
 Structure written by MMmdl.
 37 38  0  0  0  0  0  0  0  0  2 V2000
  149.5029  141.1888  156.0250 C   0  0  0  0  0  0  0  0  0  0  0  0
  149.2624  141.5854  157.4898 C   0  0  0  0  0  0  0  0  0  0  0  0
  147.9365  142.3320  157.7007 C   0  0  0  0  0  0  0  0  0  0  0  0
  150.4438  142.3489  158.0699 C   0  0  0  0  0  0  0  0  0  0  0  0
  150.8204  143.5034  157.4980 N   0  3  0  0  0  0  0  0  0  0  0  0
  151.8651  144.1970  158.0115 C   0  0  0  0  0  0  0  0  0  0  0  0
  152.5526  143.7167  159.1415 C   0  0  0  0  0  0  0  0  0  0  0  0
  152.1050  142.5034  159.6989 C   0  0  0  0  0  0  0  0  0  0  0  0
  152.7523  141.9619  160.8308 N   0  0  0  0  0  0  0  0  0  0  0  0
  152.9774  142.9988  161.8376 C   0  0  0  0  0  0  0  0  0  0  0  0
  153.5382  142.3973  163.1331 C   0  0  0  0  0  0  0  0  0  0  0  0
  154.7282  141.6844  162.8318 O   0  0  0  0  0  0  0  0  0  0  0  0
  154.4704  140.5865  161.9663 C   0  0  0  0  0  0  0  0  0  0  0  0
  153.9114  141.0754  160.6085 C   0  0  1  0  0  0  0  0  0  0  0  0
  153.6567  139.8284  159.7358 C   0  0  0  0  0  0  0  0  0  0  0  0
  153.3261  138.6834  160.3423 N   0  0  0  0  0  0  0  0  0  0  0  0
  153.7425  139.9094  158.5129 O   0  0  0  0  0  0  0  0  0  0  0  0
  151.0649  141.8415  159.1430 N   0  0  0  0  0  0  0  0  0  0  0  0
  150.4135  140.5978  155.9235 H   0  0  0  0  0  0  0  0  0  0  0  0
  149.6024  142.0664  155.3849 H   0  0  0  0  0  0  0  0  0  0  0  0
  148.6769  140.5907  155.6394 H   0  0  0  0  0  0  0  0  0  0  0  0
  149.1808  140.6526  158.0504 H   0  0  0  0  0  0  0  0  0  0  0  0
  147.7643  142.5348  158.7582 H   0  0  0  0  0  0  0  0  0  0  0  0
  147.0930  141.7448  157.3362 H   0  0  0  0  0  0  0  0  0  0  0  0
  147.9274  143.2859  157.1722 H   0  0  0  0  0  0  0  0  0  0  0  0
  152.1146  145.1166  157.5028 H   0  0  0  0  0  0  0  0  0  0  0  0
  153.3837  144.2628  159.5640 H   0  0  0  0  0  0  0  0  0  0  0  0
  153.6766  143.7382  161.4428 H   0  0  0  0  0  0  0  0  0  0  0  0
  152.0517  143.5279  162.0668 H   0  0  0  0  0  0  0  0  0  0  0  0
  153.7704  143.1891  163.8454 H   0  0  0  0  0  0  0  0  0  0  0  0
  152.8097  141.7406  163.6119 H   0  0  0  0  0  0  0  0  0  0  0  0
  155.4055  140.0442  161.8205 H   0  0  0  0  0  0  0  0  0  0  0  0
  153.7800  139.8944  162.4529 H   0  0  0  0  0  0  0  0  0  0  0  0
  154.6945  141.6627  160.1249 H   0  0  0  0  0  0  0  0  0  0  0  0
  153.1338  137.8587  159.7926 H   0  0  0  0  0  0  0  0  0  0  0  0
  153.2495  138.6543  161.3490 H   0  0  0  0  0  0  0  0  0  0  0  0
  150.3274  143.8646  156.6810 H   0  0  0  0  0  0  0  0  0  0  0  0
  1  2  1  0  0  0  0
  1 19  1  0  0  0  0
  1 20  1  0  0  0  0
  1 21  1  0  0  0  0
  2  3  1  0  0  0  0
  2  4  1  0  0  0  0
  2 22  1  0  0  0  0
  3 23  1  0  0  0  0
  3 24  1  0  0  0  0
  3 25  1  0  0  0  0
  4 18  1  0  0  0  0
  4  5  2  0  0  0  0
  5  6  1  0  0  0  0
  5 37  1  0  0  0  0
  6  7  2  0  0  0  0
  6 26  1  0  0  0  0
  7  8  1  0  0  0  0
  7 27  1  0  0  0  0
  8  9  1  0  0  0  0
  8 18  2  0  0  0  0
  9 14  1  0  0  0  0
  9 10  1  0  0  0  0
 10 11  1  0  0  0  0
 10 28  1  0  0  0  0
 10 29  1  0  0  0  0
 11 12  1  0  0  0  0
 11 30  1  0  0  0  0
 11 31  1  0  0  0  0
 12 13  1  0  0  0  0
 13 14  1  0  0  0  0
 13 32  1  0  0  0  0
 13 33  1  0  0  0  0
 14 15  1  0  0  0  0
 14 34  1  0  0  0  0
 15 16  1  0  0  0  0
 15 17  2  0  0  0  0
 16 35  1  0  0  0  0
 16 36  1  0  0  0  0
M  CHG  1   5   1
M  END
> <s_m_source_file>
AV-unprocessed.smi

> <i_m_source_file_index>
2397

> <i_lp_mmshare_version>
43012

> <i_f3d_flags>
0

> <s_epik_input>
W0NIM11bQ0hdKFtDSDNdKWMxbltjSF1bY0hdYyhuMSlOMltDSDJdW0NIMl1PW0NIMl1bQ0BIXTJDKD1PKVtOSDJd

> <s_epik_cmdline>
J2VwaWtfcHl0aG9uJywgJy1waCcsICc3LjAnLCAnLXRuJywgJzgnLCAnLW1hJywgJzIwMCcsICctbWV0YWxfYmluZGluZycsICctaW1hZScsICc8aW5maWxlLm1hZT4nLCAnLW9tYWUnLCAnPG91dGZpbGUubWFlPic=

> <r_lp_tautomer_probability>
0.999336

> <r_epik_Ionization_Penalty>
1.74009

> <r_epik_Ionization_Penalty_Charging>
1.74009

> <r_epik_Ionization_Penalty_Neutral>
2.46902e-07

> <r_epik_State_Penalty>
1.8491

> <r_epik_Charging_Adjusted_Penalty>
3.5892

> <i_epik_Tot_Q>
1

> <i_epik_Tot_abs_Q>
1

> <r_epik_Metal_State_Penalty>
1.87997

> <b_epik_Metal_Only>
0

> <s_lp_Force_Field>
OPLS_2005

> <r_lp_Energy>
12.3684

> <b_lp_Chiralities_Consistent>
1

> <s_lp_Variant>
AV-unprocessed.smi:2397-3

> <Gold.Version>
5.8.1

> <Gold.Id.Protein>
6NUR|6NUR_protein|mol2

> <Gold.PLP.Fitness>
44.3890

> <Gold.PLP.PLP>
-37.8256

> <Gold.PLP.part.hbond>
-3.1856

> <Gold.PLP.part.metal>
0.0000

> <Gold.PLP.part.buried>
-4.1531

> <Gold.PLP.part.nonpolar>
-29.9593

> <Gold.PLP.part.repulsive>
0.0669

> <Gold.PLP.ligand.clash>
0.0000

> <Gold.PLP.ligand.torsion>
1.3535

> <Gold.PLP.Chemscore.Hbond>
3.0000

> <Gold.PLP.Chemscore.CHOScore>
0.0000

> <Gold.PLP.Chemscore.Metal>
0.0000

> <Gold.Chemscore.Hbonds>
donor molecule, donor type, donor heavy atom, donor atom, acceptor molecule, acceptor atom, score
      L1  H     5    37       P1  8028  2.00
      P1  H  7997  8008       L1    17  1.00

> <Gold.PLP.Chemscore.Internal.Correction>
0.2704

> <Gold.Rescore>
     Score         DG    S(hbond)    S(metal)    S(lipo)     H(rot)  DE(clash)    DE(int)     intcor
     14.08     -16.76       1.98        0.00      78.73       1.77       1.27       1.41       ----

> <Gold.Chemscore.Fitness>
14.0770

> <Gold.Chemscore.DG>
-16.7572

> <Gold.Chemscore.ZeroCoef>
-5.4800

> <Gold.Chemscore.Hbond>
1.9766

> <Gold.Chemscore.Metal>
0.0000

> <Gold.Chemscore.Lipo>
78.7279

> <Gold.Chemscore.Internal_Hbond>
0.0000

> <Gold.Chemscore.DEClash>
1.2722

> <Gold.Chemscore.DEInternal>
1.4080

> <Gold.Chemscore.Rot>
1.7717

> <Gold.Chemscore.Internal.Correction>
   9.000000E+99

> <Gold.Chemscore.Hbonds>
donor molecule, donor type, donor heavy atom, donor atom, acceptor molecule, acceptor atom, score
      L1  H     5    37       P1  8028  0.98
      P1  H  7997  8008       L1    17  0.96

> <Gold.Chemscore.Hbond.Weighted>
-6.6017

> <Gold.Chemscore.Metal.Weighted>
-0.0000

> <Gold.Chemscore.Lipo.Weighted>
-9.2112

> <Gold.Chemscore.Internal_Hbond.Weighted>
0.0000

> <Gold.Chemscore.DEClash.Weighted>
1.2722

> <Gold.Chemscore.DEInternal.Weighted>
1.4080

> <Gold.Chemscore.Rot.Weighted>
4.5357

> <Gold.Chemscore.Internal.Correction.Weighted>
   9.000000E+99

> <Gold.Protein.RotatedTorsions>
[ 6907 6896 6895 6894 ] final  -78.56 input  -60.11 | X-H torsion
[ 7974 7965 7964 7962 ] final  105.24 input  175.53 | X-H torsion
[ 8008 7997 7996 7995 ] final -107.39 input   59.86 | X-H torsion
[ 10167 10162 10161 10158 ] final   11.40 input  -65.29 | X-H torsion
[ 10718 10713 10712 10709 ] final   21.73 input   66.30 | X-H torsion
[ 10763 10752 10751 10750 ] final  175.91 input  -60.55 | X-H torsion
[ 11005 11000 10999 10996 ] final -100.98 input  -57.11 | X-H torsion

> <Gold.Protein.ActiveResidues>
 VAL166  LYS551  ARG553  GLY616  TRP617  ASP618  TYR619  PRO620  LYS621  CYS622 
 ASP623  PHE694  ASN695  SER759  ASP760  ASP761  ALA762  ILE779  LEU786  VAL792 
 PHE793  MET794  SER795  GLU796  ALA797  LYS798  CYS799  TRP800  GLU811  SER814 

> <Gold.Protein.RotatedAtoms>
  150.6970  134.4253  159.5223 H   0  0  0  0  0  0  0  0  0  0  0  0  # atno 6907 bound_to 6896
  152.1989  134.8603  160.0519 H   0  0  0  0  0  0  0  0  0  0  0  0  # atno 6908 bound_to 6896
  151.9531  133.3637  159.4044 H   0  0  0  0  0  0  0  0  0  0  0  0  # atno 6909 bound_to 6896
  145.3222  139.2509  143.3705 H   0  0  0  0  0  0  0  0  0  0  0  0  # atno 7974 bound_to 7965
  154.9287  140.0405  157.2036 H   0  0  0  0  0  0  0  0  0  0  0  0  # atno 8008 bound_to 7997
  154.8182  140.2879  155.5783 H   0  0  0  0  0  0  0  0  0  0  0  0  # atno 8009 bound_to 7997
  156.2977  140.2524  156.3084 H   0  0  0  0  0  0  0  0  0  0  0  0  # atno 8010 bound_to 7997
  140.6134  143.8359  150.7091 H   0  0  0  0  0  0  0  0  0  0  0  0  # atno 10167 bound_to 10162
  157.1424  130.6638  149.5985 H   0  0  0  0  0  0  0  0  0  0  0  0  # atno 10718 bound_to 10713
  154.4740  135.2772  155.1621 H   0  0  0  0  0  0  0  0  0  0  0  0  # atno 10763 bound_to 10752
  154.3359  135.6180  153.5577 H   0  0  0  0  0  0  0  0  0  0  0  0  # atno 10764 bound_to 10752
  152.9867  135.5777  154.5126 H   0  0  0  0  0  0  0  0  0  0  0  0  # atno 10765 bound_to 10752
  141.1249  133.8442  157.1173 H   0  0  0  0  0  0  0  0  0  0  0  0  # atno 11005 bound_to 11000
  146.3078  140.3782  142.8681 LP  0  0  0  0  0  0  0  0  0  0  0  0  # atno 17320 bound_to 7965
  144.8930  140.7547  143.5915 LP  0  0  0  0  0  0  0  0  0  0  0  0  # atno 17321 bound_to 7965
  140.1932  143.4019  152.1847 LP  0  0  0  0  0  0  0  0  0  0  0  0  # atno 17342 bound_to 10162
  139.5379  144.7228  151.4830 LP  0  0  0  0  0  0  0  0  0  0  0  0  # atno 17343 bound_to 10162
  155.9786  130.4773  150.6664 LP  0  0  0  0  0  0  0  0  0  0  0  0  # atno 17370 bound_to 10713
  157.4295  131.0847  151.1053 LP  0  0  0  0  0  0  0  0  0  0  0  0  # atno 17371 bound_to 10713
  140.0238  134.9933  157.0645 LP  0  0  0  0  0  0  0  0  0  0  0  0  # atno 17394 bound_to 11000
  140.4396  134.1695  155.7173 LP  0  0  0  0  0  0  0  0  0  0  0  0  # atno 17395 bound_to 11000

$$$$
