AV-unprocessed.smi:2346|AV-procd|sdf|9365|dock3
  -GOLD-   2272012583D 1   1.00000     0.00000
 Structure written by MMmdl.
 44 46  0  0  0  0  0  0  0  0  1 V2000
  154.6760  134.5849  161.1169 C   0  0  0  0  0  0  0  0  0  0  0  0
  153.9095  135.7196  160.7401 O   0  0  0  0  0  0  0  0  0  0  0  0
  154.1505  136.9170  161.3824 C   0  0  0  0  0  0  0  0  0  0  0  0
  154.6075  137.0107  162.7218 C   0  0  0  0  0  0  0  0  0  0  0  0
  154.8345  138.2678  163.3148 C   0  0  0  0  0  0  0  0  0  0  0  0
  155.3033  138.3525  164.6879 C   0  0  0  0  0  0  0  0  0  0  0  0
  155.6764  138.4199  165.7810 N   0  0  0  0  0  0  0  0  0  0  0  0
  154.6062  139.4421  162.5748 C   0  0  0  0  0  0  0  0  0  0  0  0
  154.1523  139.3596  161.2463 C   0  0  0  0  0  0  0  0  0  0  0  0
  153.9213  138.0987  160.6400 C   0  0  0  0  0  0  0  0  0  0  0  0
  153.4770  137.9443  159.3427 O   0  0  0  0  0  0  0  0  0  0  0  0
  153.2970  139.1059  158.5455 C   0  0  0  0  0  0  0  0  0  0  0  0
  151.7955  139.4001  158.4456 C   0  0  0  0  0  0  0  0  0  0  0  0
  151.5362  140.7319  157.9175 N   0  0  0  0  0  0  0  0  0  0  0  0
  150.9861  141.0844  156.7248 C   0  0  0  0  0  0  0  0  0  0  0  0
  150.5485  140.0796  155.6927 C   0  0  2  0  0  0  0  0  0  0  0  0
  151.7141  139.2023  155.2143 C   0  0  0  0  0  0  0  0  0  0  0  0
  149.9685  140.6992  154.5631 O   0  0  0  0  0  0  0  0  0  0  0  0
  150.8588  142.3971  156.5168 N   0  0  0  0  0  0  0  0  0  0  0  0
  151.3818  142.9453  157.6701 C   0  0  0  0  0  0  0  0  0  0  0  0
  151.5343  144.2961  158.0565 C   0  0  0  0  0  0  0  0  0  0  0  0
  152.1076  144.6215  159.3032 C   0  0  0  0  0  0  0  0  0  0  0  0
  152.5365  143.6030  160.1784 C   0  0  0  0  0  0  0  0  0  0  0  0
  152.3927  142.2506  159.8126 C   0  0  0  0  0  0  0  0  0  0  0  0
  151.8181  141.9306  158.5673 C   0  0  0  0  0  0  0  0  0  0  0  0
  154.3634  133.7269  160.5221 H   0  0  0  0  0  0  0  0  0  0  0  0
  154.5222  134.3310  162.1666 H   0  0  0  0  0  0  0  0  0  0  0  0
  155.7398  134.7419  160.9336 H   0  0  0  0  0  0  0  0  0  0  0  0
  154.7909  136.1253  163.3124 H   0  0  0  0  0  0  0  0  0  0  0  0
  154.7775  140.4118  163.0201 H   0  0  0  0  0  0  0  0  0  0  0  0
  153.9887  140.2833  160.7126 H   0  0  0  0  0  0  0  0  0  0  0  0
  153.8097  139.9565  158.9976 H   0  0  0  0  0  0  0  0  0  0  0  0
  153.7120  138.9438  157.5508 H   0  0  0  0  0  0  0  0  0  0  0  0
  151.2891  138.6583  157.8288 H   0  0  0  0  0  0  0  0  0  0  0  0
  151.3407  139.3219  159.4334 H   0  0  0  0  0  0  0  0  0  0  0  0
  149.7829  139.4270  156.1069 H   0  0  0  0  0  0  0  0  0  0  0  0
  152.1752  138.6694  156.0456 H   0  0  0  0  0  0  0  0  0  0  0  0
  152.4902  139.8000  154.7350 H   0  0  0  0  0  0  0  0  0  0  0  0
  151.3755  138.4582  154.4927 H   0  0  0  0  0  0  0  0  0  0  0  0
  149.4026  140.0738  154.1371 H   0  0  0  0  0  0  0  0  0  0  0  0
  151.2101  145.0832  157.3921 H   0  0  0  0  0  0  0  0  0  0  0  0
  152.2193  145.6572  159.5890 H   0  0  0  0  0  0  0  0  0  0  0  0
  152.9758  143.8605  161.1310 H   0  0  0  0  0  0  0  0  0  0  0  0
  152.7215  141.4706  160.4828 H   0  0  0  0  0  0  0  0  0  0  0  0
  1  2  1  0  0  0  0
  1 26  1  0  0  0  0
  1 27  1  0  0  0  0
  1 28  1  0  0  0  0
  2  3  1  0  0  0  0
  3 10  1  0  0  0  0
  3  4  2  0  0  0  0
  4  5  1  0  0  0  0
  4 29  1  0  0  0  0
  5  6  1  0  0  0  0
  5  8  2  0  0  0  0
  6  7  3  0  0  0  0
  8  9  1  0  0  0  0
  8 30  1  0  0  0  0
  9 10  2  0  0  0  0
  9 31  1  0  0  0  0
 10 11  1  0  0  0  0
 11 12  1  0  0  0  0
 12 13  1  0  0  0  0
 12 32  1  0  0  0  0
 12 33  1  0  0  0  0
 13 14  1  0  0  0  0
 13 34  1  0  0  0  0
 13 35  1  0  0  0  0
 14 25  1  0  0  0  0
 14 15  1  0  0  0  0
 15 16  1  0  0  0  0
 15 19  2  0  0  0  0
 16 17  1  0  0  0  0
 16 18  1  0  0  0  0
 16 36  1  0  0  0  0
 17 37  1  0  0  0  0
 17 38  1  0  0  0  0
 17 39  1  0  0  0  0
 18 40  1  0  0  0  0
 19 20  1  0  0  0  0
 20 25  2  0  0  0  0
 20 21  1  0  0  0  0
 21 22  2  0  0  0  0
 21 41  1  0  0  0  0
 22 23  1  0  0  0  0
 22 42  1  0  0  0  0
 23 24  2  0  0  0  0
 23 43  1  0  0  0  0
 24 25  1  0  0  0  0
 24 44  1  0  0  0  0
M  END
> <s_m_source_file>
AV-unprocessed.smi

> <i_m_source_file_index>
2346

> <i_lp_mmshare_version>
43012

> <i_f3d_flags>
0

> <s_epik_input>
W0NIM11PYzFbY0hdYyhDI04pW2NIXVtjSF1jMU9bQ0gyXVtDSDJdbihjKG4yKVtDQEhdKFtDSDNdKVtPSF0pYyhjMjMpW2NIXVtjSF1bY0hdW2NIXTM=

> <s_epik_cmdline>
J2VwaWtfcHl0aG9uJywgJy1waCcsICc3LjAnLCAnLXRuJywgJzgnLCAnLW1hJywgJzIwMCcsICctbWV0YWxfYmluZGluZycsICctaW1hZScsICc8aW5maWxlLm1hZT4nLCAnLW9tYWUnLCAnPG91dGZpbGUubWFlPic=

> <r_epik_Ionization_Penalty>
0.0419826

> <r_epik_Ionization_Penalty_Charging>
0

> <r_epik_Ionization_Penalty_Neutral>
0.0419826

> <r_epik_State_Penalty>
0.0354317

> <r_epik_Charging_Adjusted_Penalty>
0.0354317

> <i_epik_Tot_Q>
0

> <i_epik_Tot_abs_Q>
0

> <r_epik_Metal_State_Penalty>
3.65115e-05

> <b_epik_Metal_Only>
0

> <s_lp_Force_Field>
OPLS_2005

> <r_lp_Energy>
19.3722

> <b_lp_Chiralities_Consistent>
1

> <s_lp_Variant>
AV-unprocessed.smi:2346-1

> <Gold.Version>
5.8.1

> <Gold.Id.Protein>
6NUR|6NUR_protein|mol2

> <Gold.PLP.Fitness>
52.6261

> <Gold.PLP.PLP>
-48.5601

> <Gold.PLP.part.hbond>
-2.0000

> <Gold.PLP.part.metal>
0.0000

> <Gold.PLP.part.buried>
-5.3581

> <Gold.PLP.part.nonpolar>
-41.7825

> <Gold.PLP.part.repulsive>
0.1810

> <Gold.PLP.ligand.clash>
0.0000

> <Gold.PLP.ligand.torsion>
0.8127

> <Gold.PLP.Chemscore.Hbond>
1.8640

> <Gold.PLP.Chemscore.CHOScore>
0.0000

> <Gold.PLP.Chemscore.Metal>
0.0000

> <Gold.Chemscore.Hbonds>
donor molecule, donor type, donor heavy atom, donor atom, acceptor molecule, acceptor atom, score
      P1  H  6896  6907       L1     2  0.70
      P1  H  7989  7998       L1    18  0.69

> <Gold.PLP.Chemscore.Internal.Correction>
0.0994

> <Gold.Rescore>
     Score         DG    S(hbond)    S(metal)    S(lipo)     H(rot)  DE(clash)    DE(int)     intcor
     17.49     -19.57       1.85        0.00     123.83       2.57       0.00       2.07       ----

> <Gold.Chemscore.Fitness>
17.4926

> <Gold.Chemscore.DG>
-19.5676

> <Gold.Chemscore.ZeroCoef>
-5.4800

> <Gold.Chemscore.Hbond>
1.8484

> <Gold.Chemscore.Metal>
0.0000

> <Gold.Chemscore.Lipo>
123.8304

> <Gold.Chemscore.Internal_Hbond>
0.0000

> <Gold.Chemscore.DEClash>
0.0042

> <Gold.Chemscore.DEInternal>
2.0708

> <Gold.Chemscore.Rot>
2.5681

> <Gold.Chemscore.Internal.Correction>
   9.000000E+99

> <Gold.Chemscore.Hbonds>
donor molecule, donor type, donor heavy atom, donor atom, acceptor molecule, acceptor atom, score
      P1  H  6896  6907       L1     2  0.07
      P1  H  7989  7998       L1    18  0.10

> <Gold.Chemscore.Hbond.Weighted>
-6.1737

> <Gold.Chemscore.Metal.Weighted>
-0.0000

> <Gold.Chemscore.Lipo.Weighted>
-14.4882

> <Gold.Chemscore.Internal_Hbond.Weighted>
0.0000

> <Gold.Chemscore.DEClash.Weighted>
0.0042

> <Gold.Chemscore.DEInternal.Weighted>
2.0708

> <Gold.Chemscore.Rot.Weighted>
6.5743

> <Gold.Chemscore.Internal.Correction.Weighted>
   9.000000E+99

> <Gold.Protein.RotatedTorsions>
[ 6907 6896 6895 6894 ] final   60.49 input  -60.11 | X-H torsion
[ 7974 7965 7964 7962 ] final  130.42 input  175.53 | X-H torsion
[ 8008 7997 7996 7995 ] final  121.62 input   59.86 | X-H torsion
[ 10167 10162 10161 10158 ] final  114.68 input  -65.29 | X-H torsion
[ 10718 10713 10712 10709 ] final   41.63 input   66.30 | X-H torsion
[ 10763 10752 10751 10750 ] final   -4.86 input  -60.55 | X-H torsion
[ 11005 11000 10999 10996 ] final -147.94 input  -57.11 | X-H torsion

> <Gold.Protein.ActiveResidues>
 VAL166  LYS551  ARG553  GLY616  TRP617  ASP618  TYR619  PRO620  LYS621  CYS622 
 ASP623  PHE694  ASN695  SER759  ASP760  ASP761  ALA762  ILE779  LEU786  VAL792 
 PHE793  MET794  SER795  GLU796  ALA797  LYS798  CYS799  TRP800  GLU811  SER814 

> <Gold.Protein.RotatedAtoms>
  152.4007  134.6290  160.0070 H   0  0  0  0  0  0  0  0  0  0  0  0  # atno 6907 bound_to 6896
  151.6496  133.3316  159.3157 H   0  0  0  0  0  0  0  0  0  0  0  0  # atno 6908 bound_to 6896
  150.7908  134.6973  159.6575 H   0  0  0  0  0  0  0  0  0  0  0  0  # atno 6909 bound_to 6896
  145.0181  139.4157  143.5211 H   0  0  0  0  0  0  0  0  0  0  0  0  # atno 7974 bound_to 7965
  156.2694  140.2804  156.1337 H   0  0  0  0  0  0  0  0  0  0  0  0  # atno 8008 bound_to 7997
  155.1027  140.0390  157.2719 H   0  0  0  0  0  0  0  0  0  0  0  0  # atno 8009 bound_to 7997
  154.6803  140.2607  155.6921 H   0  0  0  0  0  0  0  0  0  0  0  0  # atno 8010 bound_to 7997
  139.6371  144.7121  151.2313 H   0  0  0  0  0  0  0  0  0  0  0  0  # atno 10167 bound_to 10162
  157.3957  130.7832  149.7306 H   0  0  0  0  0  0  0  0  0  0  0  0  # atno 10718 bound_to 10713
  153.3907  135.7001  153.6497 H   0  0  0  0  0  0  0  0  0  0  0  0  # atno 10763 bound_to 10752
  153.5071  135.3640  155.2569 H   0  0  0  0  0  0  0  0  0  0  0  0  # atno 10764 bound_to 10752
  154.8702  135.4126  154.3223 H   0  0  0  0  0  0  0  0  0  0  0  0  # atno 10765 bound_to 10752
  140.7664  134.3239  157.5087 H   0  0  0  0  0  0  0  0  0  0  0  0  # atno 11005 bound_to 11000
  146.3481  139.9664  142.8711 LP  0  0  0  0  0  0  0  0  0  0  0  0  # atno 17320 bound_to 7965
  145.1932  140.9821  143.4199 LP  0  0  0  0  0  0  0  0  0  0  0  0  # atno 17321 bound_to 7965
  140.7471  143.6377  150.8364 LP  0  0  0  0  0  0  0  0  0  0  0  0  # atno 17342 bound_to 10162
  140.0010  143.5744  152.2875 LP  0  0  0  0  0  0  0  0  0  0  0  0  # atno 17343 bound_to 10162
  155.9810  130.4024  150.3497 LP  0  0  0  0  0  0  0  0  0  0  0  0  # atno 17370 bound_to 10713
  157.1619  131.0347  151.2837 LP  0  0  0  0  0  0  0  0  0  0  0  0  # atno 17371 bound_to 10713
  139.8762  134.9234  156.3323 LP  0  0  0  0  0  0  0  0  0  0  0  0  # atno 17394 bound_to 11000
  140.9615  133.7385  156.0408 LP  0  0  0  0  0  0  0  0  0  0  0  0  # atno 17395 bound_to 11000

$$$$
