AV-unprocessed.smi:903|AV-procd|sdf|4095|dock2
  -GOLD-   22720 1583D 1   1.00000     0.00000
 Structure written by MMmdl.
 28 29  0  0  0  0  0  0  0  0  2 V2000
  154.4293  140.4536  161.3217 O   0  0  0  0  0  0  0  0  0  0  0  0
  153.9113  140.6713  160.2050 C   0  0  0  0  0  0  0  0  0  0  0  0
  154.1880  139.9542  159.2158 O   0  5  0  0  0  0  0  0  0  0  0  0
  152.9327  141.8116  160.0176 C   0  0  0  0  0  0  0  0  0  0  0  0
  152.3505  141.8723  158.7936 N   0  0  0  0  0  0  0  0  0  0  0  0
  151.4593  142.8519  158.5141 C   0  0  0  0  0  0  0  0  0  0  0  0
  150.8828  142.8928  157.2614 O   0  0  0  0  0  0  0  0  0  0  0  0
  151.1320  141.8136  156.3655 C   0  0  0  0  0  0  0  0  0  0  0  0
  149.9900  141.7448  155.3446 C   0  0  2  0  0  0  0  0  0  0  0  0
  148.6075  141.6268  155.9819 C   0  0  0  0  0  0  0  0  0  0  0  0
  147.8070  141.0106  154.8575 C   0  0  0  0  0  0  0  0  0  0  0  0
  148.8165  140.0445  154.2426 C   0  0  0  0  0  0  0  0  0  0  0  0
  150.1067  140.5739  154.5405 O   0  0  0  0  0  0  0  0  0  0  0  0
  151.0989  143.8308  159.4556 C   0  0  0  0  0  0  0  0  0  0  0  0
  151.6921  143.7842  160.7286 C   0  0  0  0  0  0  0  0  0  0  0  0
  152.6222  142.7694  161.0299 C   0  0  0  0  0  0  0  0  0  0  0  0
  153.3099  142.7781  162.6198 Cl  0  0  0  0  0  0  0  0  0  0  0  0
  152.0877  141.9367  155.8529 H   0  0  0  0  0  0  0  0  0  0  0  0
  151.1701  140.8795  156.9289 H   0  0  0  0  0  0  0  0  0  0  0  0
  150.0082  142.6194  154.6922 H   0  0  0  0  0  0  0  0  0  0  0  0
  148.6338  140.9492  156.8367 H   0  0  0  0  0  0  0  0  0  0  0  0
  148.2095  142.5851  156.3162 H   0  0  0  0  0  0  0  0  0  0  0  0
  146.8958  140.5176  155.1971 H   0  0  0  0  0  0  0  0  0  0  0  0
  147.5315  141.7777  154.1323 H   0  0  0  0  0  0  0  0  0  0  0  0
  148.7335  139.0589  154.7017 H   0  0  0  0  0  0  0  0  0  0  0  0
  148.6739  139.9301  153.1677 H   0  0  0  0  0  0  0  0  0  0  0  0
  150.3847  144.6016  159.2068 H   0  0  0  0  0  0  0  0  0  0  0  0
  151.4342  144.5253  161.4708 H   0  0  0  0  0  0  0  0  0  0  0  0
  1  2  2  0  0  0  0
  2  3  1  0  0  0  0
  2  4  1  0  0  0  0
  4 16  1  0  0  0  0
  4  5  2  0  0  0  0
  5  6  1  0  0  0  0
  6  7  1  0  0  0  0
  6 14  2  0  0  0  0
  7  8  1  0  0  0  0
  8  9  1  0  0  0  0
  8 18  1  0  0  0  0
  8 19  1  0  0  0  0
  9 13  1  0  0  0  0
  9 10  1  0  0  0  0
  9 20  1  0  0  0  0
 10 11  1  0  0  0  0
 10 21  1  0  0  0  0
 10 22  1  0  0  0  0
 11 12  1  0  0  0  0
 11 23  1  0  0  0  0
 11 24  1  0  0  0  0
 12 13  1  0  0  0  0
 12 25  1  0  0  0  0
 12 26  1  0  0  0  0
 14 15  1  0  0  0  0
 14 27  1  0  0  0  0
 15 16  2  0  0  0  0
 15 28  1  0  0  0  0
 16 17  1  0  0  0  0
M  CHG  1   3  -1
M  END
> <s_m_source_file>
AV-unprocessed.smi

> <i_m_source_file_index>
903

> <i_lp_mmshare_version>
43012

> <i_f3d_flags>
0

> <s_epik_input>
Tz1DKFtPSF0pYzFuYyhbY0hdW2NIXWMxQ2wpT1tDSDJdW0NAQEhdMltDSDJdW0NIMl1bQ0gyXU8y

> <s_epik_cmdline>
J2VwaWtfcHl0aG9uJywgJy1waCcsICc3LjAnLCAnLXRuJywgJzgnLCAnLW1hJywgJzIwMCcsICctbWV0YWxfYmluZGluZycsICctaW1hZScsICc8aW5maWxlLm1hZT4nLCAnLW9tYWUnLCAnPG91dGZpbGUubWFlPic=

> <r_lp_tautomer_probability>
1

> <r_epik_Ionization_Penalty>
1.22588e-05

> <r_epik_Ionization_Penalty_Charging>
1.01343e-05

> <r_epik_Ionization_Penalty_Neutral>
2.12445e-06

> <r_epik_State_Penalty>
-0

> <r_epik_Charging_Adjusted_Penalty>
1.01343e-05

> <i_epik_Tot_Q>
-1

> <i_epik_Tot_abs_Q>
1

> <r_epik_Metal_State_Penalty>
-0

> <b_epik_Metal_Only>
0

> <s_lp_Force_Field>
OPLS_2005

> <r_lp_Energy>
26.032

> <b_lp_Chiralities_Consistent>
1

> <s_lp_Variant>
AV-unprocessed.smi:903-1

> <Gold.Version>
5.8.1

> <Gold.Id.Protein>
6NUR|6NUR_protein|mol2

> <Gold.PLP.Fitness>
43.2405

> <Gold.PLP.PLP>
-34.7614

> <Gold.PLP.part.hbond>
-2.0000

> <Gold.PLP.part.metal>
0.0000

> <Gold.PLP.part.buried>
-5.2594

> <Gold.PLP.part.nonpolar>
-26.1574

> <Gold.PLP.part.repulsive>
0.2335

> <Gold.PLP.ligand.clash>
0.0000

> <Gold.PLP.ligand.torsion>
0.2140

> <Gold.PLP.Chemscore.Hbond>
2.9600

> <Gold.PLP.Chemscore.CHOScore>
0.0000

> <Gold.PLP.Chemscore.Metal>
0.0000

> <Gold.Chemscore.Hbonds>
donor molecule, donor type, donor heavy atom, donor atom, acceptor molecule, acceptor atom, score
      P1  H  7989  7998       L1    13  0.86
      P1  H  7997  8008       L1     3  1.72

> <Gold.PLP.Chemscore.Internal.Correction>
0.0271

> <Gold.Rescore>
     Score         DG    S(hbond)    S(metal)    S(lipo)     H(rot)  DE(clash)    DE(int)     intcor
     15.75     -17.41       1.72        0.00      85.90       1.51       0.17       1.49       ----

> <Gold.Chemscore.Fitness>
15.7459

> <Gold.Chemscore.DG>
-17.4140

> <Gold.Chemscore.ZeroCoef>
-5.4800

> <Gold.Chemscore.Hbond>
1.7210

> <Gold.Chemscore.Metal>
0.0000

> <Gold.Chemscore.Lipo>
85.8971

> <Gold.Chemscore.Internal_Hbond>
0.0000

> <Gold.Chemscore.DEClash>
0.1736

> <Gold.Chemscore.DEInternal>
1.4945

> <Gold.Chemscore.Rot>
1.5094

> <Gold.Chemscore.Internal.Correction>
   9.000000E+99

> <Gold.Chemscore.Hbonds>
donor molecule, donor type, donor heavy atom, donor atom, acceptor molecule, acceptor atom, score
      P1  H  7989  7998       L1    13  0.38
      P1  H  7997  8008       L1     3  0.80

> <Gold.Chemscore.Hbond.Weighted>
-5.7481

> <Gold.Chemscore.Metal.Weighted>
-0.0000

> <Gold.Chemscore.Lipo.Weighted>
-10.0500

> <Gold.Chemscore.Internal_Hbond.Weighted>
0.0000

> <Gold.Chemscore.DEClash.Weighted>
0.1736

> <Gold.Chemscore.DEInternal.Weighted>
1.4945

> <Gold.Chemscore.Rot.Weighted>
3.8641

> <Gold.Chemscore.Internal.Correction.Weighted>
   9.000000E+99

> <Gold.Protein.RotatedTorsions>
[ 6907 6896 6895 6894 ] final  -95.89 input  -60.11 | X-H torsion
[ 7974 7965 7964 7962 ] final   83.95 input  175.53 | X-H torsion
[ 8008 7997 7996 7995 ] final -119.47 input   59.86 | X-H torsion
[ 10167 10162 10161 10158 ] final   16.80 input  -65.29 | X-H torsion
[ 10718 10713 10712 10709 ] final   -5.75 input   66.30 | X-H torsion
[ 10763 10752 10751 10750 ] final -160.21 input  -60.55 | X-H torsion
[ 11005 11000 10999 10996 ] final  -85.18 input  -57.11 | X-H torsion

> <Gold.Protein.ActiveResidues>
 VAL166  LYS551  ARG553  GLY616  TRP617  ASP618  TYR619  PRO620  LYS621  CYS622 
 ASP623  PHE694  ASN695  SER759  ASP760  ASP761  ALA762  ILE779  LEU786  VAL792 
 PHE793  MET794  SER795  GLU796  ALA797  LYS798  CYS799  TRP800  GLU811  SER814 

> <Gold.Protein.RotatedAtoms>
  150.6975  134.1587  159.4167 H   0  0  0  0  0  0  0  0  0  0  0  0  # atno 6907 bound_to 6896
  151.9568  135.0140  160.0554 H   0  0  0  0  0  0  0  0  0  0  0  0  # atno 6908 bound_to 6896
  152.1962  133.4773  159.5071 H   0  0  0  0  0  0  0  0  0  0  0  0  # atno 6909 bound_to 6896
  145.6052  139.2359  143.2223 H   0  0  0  0  0  0  0  0  0  0  0  0  # atno 7974 bound_to 7965
  155.1163  140.0398  157.2738 H   0  0  0  0  0  0  0  0  0  0  0  0  # atno 8008 bound_to 7997
  154.6647  140.2599  155.7045 H   0  0  0  0  0  0  0  0  0  0  0  0  # atno 8009 bound_to 7997
  156.2634  140.2810  156.1133 H   0  0  0  0  0  0  0  0  0  0  0  0  # atno 8010 bound_to 7997
  140.5772  143.9050  150.6759 H   0  0  0  0  0  0  0  0  0  0  0  0  # atno 10167 bound_to 10162
  156.7420  130.5212  149.5822 H   0  0  0  0  0  0  0  0  0  0  0  0  # atno 10718 bound_to 10713
  154.7409  135.3068  154.8729 H   0  0  0  0  0  0  0  0  0  0  0  0  # atno 10763 bound_to 10752
  153.9544  135.6760  153.4748 H   0  0  0  0  0  0  0  0  0  0  0  0  # atno 10764 bound_to 10752
  153.1008  135.4913  154.8788 H   0  0  0  0  0  0  0  0  0  0  0  0  # atno 10765 bound_to 10752
  141.1643  133.7386  156.8978 H   0  0  0  0  0  0  0  0  0  0  0  0  # atno 11005 bound_to 11000
  146.1546  140.6876  142.9306 LP  0  0  0  0  0  0  0  0  0  0  0  0  # atno 17320 bound_to 7965
  144.7293  140.4622  143.6950 LP  0  0  0  0  0  0  0  0  0  0  0  0  # atno 17321 bound_to 7965
  140.2540  143.3572  152.1380 LP  0  0  0  0  0  0  0  0  0  0  0  0  # atno 17342 bound_to 10162
  139.5149  144.6955  151.5642 LP  0  0  0  0  0  0  0  0  0  0  0  0  # atno 17343 bound_to 10162
  156.1458  130.6276  151.0530 LP  0  0  0  0  0  0  0  0  0  0  0  0  # atno 17370 bound_to 10713
  157.6814  131.0837  150.7359 LP  0  0  0  0  0  0  0  0  0  0  0  0  # atno 17371 bound_to 10713
  140.1604  134.9169  157.2707 LP  0  0  0  0  0  0  0  0  0  0  0  0  # atno 17394 bound_to 11000
  140.2618  134.3562  155.7404 LP  0  0  0  0  0  0  0  0  0  0  0  0  # atno 17395 bound_to 11000

$$$$
