AV-unprocessed.smi:1377|AV-procd|sdf|5595|dock7
  -GOLD-   22720 5203D 1   1.00000     0.00000
 Structure written by MMmdl.
 28 29  0  0  0  0  0  0  0  0  2 V2000
  149.8648  137.8762  152.9710 N   0  0  0  0  0  0  0  0  0  0  0  0
  150.3053  138.3149  154.1529 C   0  0  0  0  0  0  0  0  0  0  0  0
  150.4736  139.5126  154.3780 O   0  0  0  0  0  0  0  0  0  0  0  0
  150.5937  137.2425  155.2124 C   0  0  0  0  0  0  0  0  0  0  0  0
  149.6519  137.3240  156.3820 C   0  0  0  0  0  0  0  0  0  0  0  0
  148.5561  138.1394  156.5066 C   0  0  0  0  0  0  0  0  0  0  0  0
  147.7457  137.9017  158.0280 S   0  0  0  0  0  0  0  0  0  0  0  0
  148.9267  136.6601  158.4502 C   0  0  0  0  0  0  0  0  0  0  0  0
  148.9339  135.9634  159.5973 N   0  5  0  0  0  0  0  0  0  0  0  0
  147.8370  135.9711  160.3916 C   0  0  0  0  0  0  0  0  0  0  0  0
  147.0720  136.9053  160.6386 O   0  0  0  0  0  0  0  0  0  0  0  0
  147.5895  134.5852  161.0081 C   0  0  0  0  0  0  0  0  0  0  0  0
  146.2094  133.9581  160.7306 C   0  0  0  0  0  0  0  0  0  0  0  0
  146.1618  133.5272  162.2000 C   0  0  0  0  0  0  0  0  0  0  0  0
  147.2048  134.6083  162.4977 C   0  0  0  0  0  0  0  0  0  0  0  0
  149.8439  136.4948  157.4911 N   0  0  0  0  0  0  0  0  0  0  0  0
  149.6628  138.5384  152.2361 H   0  0  0  0  0  0  0  0  0  0  0  0
  149.7389  136.8870  152.8148 H   0  0  0  0  0  0  0  0  0  0  0  0
  150.5242  136.2583  154.7479 H   0  0  0  0  0  0  0  0  0  0  0  0
  151.6272  137.3544  155.5424 H   0  0  0  0  0  0  0  0  0  0  0  0
  148.1825  138.8674  155.8026 H   0  0  0  0  0  0  0  0  0  0  0  0
  148.4010  133.8839  160.8043 H   0  0  0  0  0  0  0  0  0  0  0  0
  145.4246  134.6759  160.4861 H   0  0  0  0  0  0  0  0  0  0  0  0
  146.2253  133.1282  160.0239 H   0  0  0  0  0  0  0  0  0  0  0  0
  145.1987  133.6767  162.6885 H   0  0  0  0  0  0  0  0  0  0  0  0
  146.5445  132.5175  162.3558 H   0  0  0  0  0  0  0  0  0  0  0  0
  147.9989  134.2894  163.1731 H   0  0  0  0  0  0  0  0  0  0  0  0
  146.7590  135.5511  162.8208 H   0  0  0  0  0  0  0  0  0  0  0  0
  1  2  1  0  0  0  0
  1 17  1  0  0  0  0
  1 18  1  0  0  0  0
  2  3  2  0  0  0  0
  2  4  1  0  0  0  0
  4  5  1  0  0  0  0
  4 19  1  0  0  0  0
  4 20  1  0  0  0  0
  5 16  1  0  0  0  0
  5  6  2  0  0  0  0
  6  7  1  0  0  0  0
  6 21  1  0  0  0  0
  7  8  1  0  0  0  0
  8  9  1  0  0  0  0
  8 16  2  0  0  0  0
  9 10  1  0  0  0  0
 10 11  2  0  0  0  0
 10 12  1  0  0  0  0
 12 15  1  0  0  0  0
 12 13  1  0  0  0  0
 12 22  1  0  0  0  0
 13 14  1  0  0  0  0
 13 23  1  0  0  0  0
 13 24  1  0  0  0  0
 14 15  1  0  0  0  0
 14 25  1  0  0  0  0
 14 26  1  0  0  0  0
 15 27  1  0  0  0  0
 15 28  1  0  0  0  0
M  CHG  1   9  -1
M  END
> <s_m_source_file>
AV-unprocessed.smi

> <i_m_source_file_index>
1377

> <i_lp_mmshare_version>
43012

> <i_f3d_flags>
0

> <s_epik_input>
W05IMl1DKD1PKVtDSDJdYzFbY0hdc2MobjEpW05IXUMoPU8pW0NIXTJbQ0gyXVtDSDJdW0NIMl0y

> <s_epik_cmdline>
J2VwaWtfcHl0aG9uJywgJy1waCcsICc3LjAnLCAnLXRuJywgJzgnLCAnLW1hJywgJzIwMCcsICctbWV0YWxfYmluZGluZycsICctaW1hZScsICc8aW5maWxlLm1hZT4nLCAnLW9tYWUnLCAnPG91dGZpbGUubWFlPic=

> <r_lp_tautomer_probability>
1

> <r_epik_Ionization_Penalty>
5.13356

> <r_epik_Ionization_Penalty_Charging>
4.74096

> <r_epik_Ionization_Penalty_Neutral>
0.392596

> <r_epik_State_Penalty>
4.74076

> <r_epik_Charging_Adjusted_Penalty>
9.48173

> <i_epik_Tot_Q>
-1

> <i_epik_Tot_abs_Q>
1

> <r_epik_Metal_State_Penalty>
0.951691

> <b_epik_Metal_Only>
1

> <s_lp_Force_Field>
OPLS_2005

> <r_lp_Energy>
7.89776

> <b_lp_Chiralities_Consistent>
1

> <s_lp_Variant>
AV-unprocessed.smi:1377-2

> <Gold.Version>
5.8.1

> <Gold.Id.Protein>
6NUR|6NUR_protein|mol2

> <Gold.PLP.Fitness>
45.9863

> <Gold.PLP.PLP>
-26.4606

> <Gold.PLP.part.hbond>
-6.8341

> <Gold.PLP.part.metal>
0.0000

> <Gold.PLP.part.buried>
-1.5220

> <Gold.PLP.part.nonpolar>
-17.4746

> <Gold.PLP.part.repulsive>
0.1712

> <Gold.PLP.ligand.clash>
0.0000

> <Gold.PLP.ligand.torsion>
0.6491

> <Gold.PLP.Chemscore.Hbond>
6.8080

> <Gold.PLP.Chemscore.CHOScore>
0.0000

> <Gold.PLP.Chemscore.Metal>
0.0000

> <Gold.Chemscore.Hbonds>
donor molecule, donor type, donor heavy atom, donor atom, acceptor molecule, acceptor atom, score
      L1  H     1    17       P1  7957  0.90
      L1  H     1    18       P1  7948  0.29
      P1  H  6896  6908       L1     9  1.17
      P1  H  6934  6947       L1    11  0.73
      P1  H  7989  7998       L1     3  1.00

> <Gold.PLP.Chemscore.Internal.Correction>
0.4000

> <Gold.Rescore>
     Score         DG    S(hbond)    S(metal)    S(lipo)     H(rot)  DE(clash)    DE(int)     intcor
     21.05     -23.09       5.40        0.00      37.86       1.89       0.00       2.04       ----

> <Gold.Chemscore.Fitness>
21.0535

> <Gold.Chemscore.DG>
-23.0907

> <Gold.Chemscore.ZeroCoef>
-5.4800

> <Gold.Chemscore.Hbond>
5.3977

> <Gold.Chemscore.Metal>
0.0000

> <Gold.Chemscore.Lipo>
37.8633

> <Gold.Chemscore.Internal_Hbond>
0.0000

> <Gold.Chemscore.DEClash>
0.0000

> <Gold.Chemscore.DEInternal>
2.0373

> <Gold.Chemscore.Rot>
1.8935

> <Gold.Chemscore.Internal.Correction>
   9.000000E+99

> <Gold.Chemscore.Hbonds>
donor molecule, donor type, donor heavy atom, donor atom, acceptor molecule, acceptor atom, score
      L1  H     1    17       P1  7957  0.18
      L1  H     1    18       P1  7948  0.06
      P1  H  6896  6908       L1     9  0.41
      P1  H  6934  6947       L1    11  0.73
      P1  H  7989  7998       L1     3  0.97

> <Gold.Chemscore.Hbond.Weighted>
-18.0282

> <Gold.Chemscore.Metal.Weighted>
-0.0000

> <Gold.Chemscore.Lipo.Weighted>
-4.4300

> <Gold.Chemscore.Internal_Hbond.Weighted>
0.0000

> <Gold.Chemscore.DEClash.Weighted>
0.0000

> <Gold.Chemscore.DEInternal.Weighted>
2.0373

> <Gold.Chemscore.Rot.Weighted>
4.8475

> <Gold.Chemscore.Internal.Correction.Weighted>
   9.000000E+99

> <Gold.Protein.RotatedTorsions>
[ 6907 6896 6895 6894 ] final  173.19 input  -60.11 | X-H torsion
[ 7974 7965 7964 7962 ] final  117.17 input  175.53 | X-H torsion
[ 8008 7997 7996 7995 ] final  103.16 input   59.86 | X-H torsion
[ 10167 10162 10161 10158 ] final -117.93 input  -65.29 | X-H torsion
[ 10718 10713 10712 10709 ] final   18.62 input   66.30 | X-H torsion
[ 10763 10752 10751 10750 ] final -157.21 input  -60.55 | X-H torsion
[ 11005 11000 10999 10996 ] final   98.64 input  -57.11 | X-H torsion

> <Gold.Protein.ActiveResidues>
 VAL166  LYS551  ARG553  GLY616  TRP617  ASP618  TYR619  PRO620  LYS621  CYS622 
 ASP623  PHE694  ASN695  SER759  ASP760  ASP761  ALA762  ILE779  LEU786  VAL792 
 PHE793  MET794  SER795  GLU796  ALA797  LYS798  CYS799  TRP800  GLU811  SER814 

> <Gold.Protein.RotatedAtoms>
  151.7723  133.3342  159.3447 H   0  0  0  0  0  0  0  0  0  0  0  0  # atno 6907 bound_to 6896
  150.7457  134.6007  159.6044 H   0  0  0  0  0  0  0  0  0  0  0  0  # atno 6908 bound_to 6896
  152.3332  134.7233  160.0335 H   0  0  0  0  0  0  0  0  0  0  0  0  # atno 6909 bound_to 6896
  145.1706  139.3104  143.4469 H   0  0  0  0  0  0  0  0  0  0  0  0  # atno 7974 bound_to 7965
  156.1459  140.3169  155.8570 H   0  0  0  0  0  0  0  0  0  0  0  0  # atno 8008 bound_to 7997
  155.4065  140.0503  157.3051 H   0  0  0  0  0  0  0  0  0  0  0  0  # atno 8009 bound_to 7997
  154.5016  140.2131  155.9347 H   0  0  0  0  0  0  0  0  0  0  0  0  # atno 8010 bound_to 7997
  140.0630  143.4950  152.2021 H   0  0  0  0  0  0  0  0  0  0  0  0  # atno 10167 bound_to 10162
  157.0988  130.6459  149.5867 H   0  0  0  0  0  0  0  0  0  0  0  0  # atno 10718 bound_to 10713
  154.7653  135.3129  154.8298 H   0  0  0  0  0  0  0  0  0  0  0  0  # atno 10763 bound_to 10752
  153.9047  135.6812  153.4758 H   0  0  0  0  0  0  0  0  0  0  0  0  # atno 10764 bound_to 10752
  153.1259  135.4802  154.9203 H   0  0  0  0  0  0  0  0  0  0  0  0  # atno 10765 bound_to 10752
  139.8772  134.9058  156.4486 H   0  0  0  0  0  0  0  0  0  0  0  0  # atno 11005 bound_to 11000
  146.3469  140.1850  142.8589 LP  0  0  0  0  0  0  0  0  0  0  0  0  # atno 17320 bound_to 7965
  145.0237  140.8814  143.5151 LP  0  0  0  0  0  0  0  0  0  0  0  0  # atno 17321 bound_to 7965
  139.5882  144.7539  151.3467 LP  0  0  0  0  0  0  0  0  0  0  0  0  # atno 17342 bound_to 10162
  140.7163  143.7258  150.7661 LP  0  0  0  0  0  0  0  0  0  0  0  0  # atno 17343 bound_to 10162
  155.9879  130.4920  150.7145 LP  0  0  0  0  0  0  0  0  0  0  0  0  # atno 17370 bound_to 10713
  157.4658  131.0888  151.0696 LP  0  0  0  0  0  0  0  0  0  0  0  0  # atno 17371 bound_to 10713
  140.8948  133.7822  155.9613 LP  0  0  0  0  0  0  0  0  0  0  0  0  # atno 17394 bound_to 11000
  140.8714  134.2721  157.5188 LP  0  0  0  0  0  0  0  0  0  0  0  0  # atno 17395 bound_to 11000

$$$$
