AV-unprocessed.smi:314|AV-procd|sdf|2313|dock1
  -GOLD-   2262022213D 1   1.00000     0.00000
 Structure written by MMmdl.
 48 49  0  0  0  0  0  0  0  0  1 V2000
  146.9000  128.7839  152.2969 C   0  0  0  0  0  0  0  0  0  0  0  0
  147.5903  129.1590  153.4837 O   0  0  0  0  0  0  0  0  0  0  0  0
  148.0358  130.4599  153.5988 C   0  0  0  0  0  0  0  0  0  0  0  0
  149.1514  130.7208  154.4186 C   0  0  0  0  0  0  0  0  0  0  0  0
  149.6126  132.0454  154.5425 C   0  0  0  0  0  0  0  0  0  0  0  0
  148.9430  133.0730  153.8346 C   0  0  0  0  0  0  0  0  0  0  0  0
  149.2940  134.4515  153.8714 N   0  0  0  0  0  0  0  0  0  0  0  0
  150.0920  135.1078  154.7316 C   0  0  0  0  0  0  0  0  0  0  0  0
  150.6900  134.6058  155.6824 O   0  0  0  0  0  0  0  0  0  0  0  0
  150.1699  136.4087  154.4182 N   0  0  0  0  0  0  0  0  0  0  0  0
  150.9399  137.4048  155.1547 C   0  0  0  0  0  0  0  0  0  0  0  0
  150.5420  138.8423  154.7593 C   0  0  0  0  0  0  0  0  0  0  0  0
  151.3165  139.9317  155.5217 C   0  0  0  0  0  0  0  0  0  0  0  0
  152.5028  139.7407  155.7944 O   0  0  0  0  0  0  0  0  0  0  0  0
  150.6717  141.0700  155.8741 N   0  0  0  0  0  0  0  0  0  0  0  0
  151.2293  142.1716  156.6639 C   0  0  0  0  0  0  0  0  0  0  0  0
  150.4794  142.2284  158.0099 C   0  0  1  0  0  0  0  0  0  0  0  0
  150.9538  143.3883  158.8918 C   0  0  0  0  0  0  0  0  0  0  0  0
  149.0852  142.4026  157.7594 O   0  0  0  0  0  0  0  0  0  0  0  0
  148.5094  141.3686  156.9618 C   0  0  1  0  0  0  0  0  0  0  0  0
  147.0172  141.6729  156.7906 C   0  0  0  0  0  0  0  0  0  0  0  0
  149.2491  141.3006  155.6108 C   0  0  0  0  0  0  0  0  0  0  0  0
  147.8328  132.7058  153.0460 C   0  0  0  0  0  0  0  0  0  0  0  0
  147.3851  131.4386  152.9233 N   0  0  0  0  0  0  0  0  0  0  0  0
  146.6200  127.7325  152.3596 H   0  0  0  0  0  0  0  0  0  0  0  0
  147.5288  128.9064  151.4139 H   0  0  0  0  0  0  0  0  0  0  0  0
  145.9843  129.3627  152.1673 H   0  0  0  0  0  0  0  0  0  0  0  0
  149.6446  129.9181  154.9467 H   0  0  0  0  0  0  0  0  0  0  0  0
  150.4599  132.2348  155.1811 H   0  0  0  0  0  0  0  0  0  0  0  0
  148.9035  135.0094  153.1261 H   0  0  0  0  0  0  0  0  0  0  0  0
  149.6482  136.7381  153.6192 H   0  0  0  0  0  0  0  0  0  0  0  0
  150.7556  137.2403  156.2172 H   0  0  0  0  0  0  0  0  0  0  0  0
  152.0067  137.2400  154.9930 H   0  0  0  0  0  0  0  0  0  0  0  0
  150.7088  138.9812  153.6904 H   0  0  0  0  0  0  0  0  0  0  0  0
  149.4761  138.9823  154.9428 H   0  0  0  0  0  0  0  0  0  0  0  0
  152.3004  142.0873  156.8398 H   0  0  0  0  0  0  0  0  0  0  0  0
  151.0938  143.1064  156.1175 H   0  0  0  0  0  0  0  0  0  0  0  0
  150.6290  141.2935  158.5533 H   0  0  0  0  0  0  0  0  0  0  0  0
  152.0145  143.2957  159.1265 H   0  0  0  0  0  0  0  0  0  0  0  0
  150.4058  143.4098  159.8340 H   0  0  0  0  0  0  0  0  0  0  0  0
  150.8026  144.3483  158.3974 H   0  0  0  0  0  0  0  0  0  0  0  0
  148.6139  140.4168  157.4860 H   0  0  0  0  0  0  0  0  0  0  0  0
  146.5249  140.9024  156.1970 H   0  0  0  0  0  0  0  0  0  0  0  0
  146.8652  142.6298  156.2906 H   0  0  0  0  0  0  0  0  0  0  0  0
  146.5157  141.7192  157.7574 H   0  0  0  0  0  0  0  0  0  0  0  0
  149.1311  142.2374  155.0641 H   0  0  0  0  0  0  0  0  0  0  0  0
  148.8043  140.5278  154.9824 H   0  0  0  0  0  0  0  0  0  0  0  0
  147.2839  133.4528  152.4914 H   0  0  0  0  0  0  0  0  0  0  0  0
  1  2  1  0  0  0  0
  1 25  1  0  0  0  0
  1 26  1  0  0  0  0
  1 27  1  0  0  0  0
  2  3  1  0  0  0  0
  3 24  1  0  0  0  0
  3  4  2  0  0  0  0
  4  5  1  0  0  0  0
  4 28  1  0  0  0  0
  5  6  2  0  0  0  0
  5 29  1  0  0  0  0
  6  7  1  0  0  0  0
  6 23  1  0  0  0  0
  7  8  1  0  0  0  0
  7 30  1  0  0  0  0
  8  9  2  0  0  0  0
  8 10  1  0  0  0  0
 10 11  1  0  0  0  0
 10 31  1  0  0  0  0
 11 12  1  0  0  0  0
 11 32  1  0  0  0  0
 11 33  1  0  0  0  0
 12 13  1  0  0  0  0
 12 34  1  0  0  0  0
 12 35  1  0  0  0  0
 13 14  2  0  0  0  0
 13 15  1  0  0  0  0
 15 22  1  0  0  0  0
 15 16  1  0  0  0  0
 16 17  1  0  0  0  0
 16 36  1  0  0  0  0
 16 37  1  0  0  0  0
 17 18  1  0  0  0  0
 17 19  1  0  0  0  0
 17 38  1  0  0  0  0
 18 39  1  0  0  0  0
 18 40  1  0  0  0  0
 18 41  1  0  0  0  0
 19 20  1  0  0  0  0
 20 21  1  0  0  0  0
 20 22  1  0  0  0  0
 20 42  1  0  0  0  0
 21 43  1  0  0  0  0
 21 44  1  0  0  0  0
 21 45  1  0  0  0  0
 22 46  1  0  0  0  0
 22 47  1  0  0  0  0
 23 24  2  0  0  0  0
 23 48  1  0  0  0  0
M  END
> <s_m_source_file>
AV-unprocessed.smi

> <i_m_source_file_index>
314

> <i_lp_mmshare_version>
43012

> <i_f3d_flags>
0

> <s_epik_input>
W0NIM11PYzFbY0hdW2NIXWMoW2NIXW4xKVtOSF1DKD1PKVtOSF1bQ0gyXVtDSDJdQyg9TylOMltDSDJdW0NAQEhdKFtDSDNdKU9bQ0BASF0oW0NIM10pW0NIMl0y

> <s_epik_cmdline>
J2VwaWtfcHl0aG9uJywgJy1waCcsICc3LjAnLCAnLXRuJywgJzgnLCAnLW1hJywgJzIwMCcsICctbWV0YWxfYmluZGluZycsICctaW1hZScsICc8aW5maWxlLm1hZT4nLCAnLW9tYWUnLCAnPG91dGZpbGUubWFlPic=

> <r_lp_tautomer_probability>
1

> <r_epik_Ionization_Penalty>
8.55977e-05

> <r_epik_Ionization_Penalty_Charging>
0

> <r_epik_Ionization_Penalty_Neutral>
8.55977e-05

> <r_epik_State_Penalty>
-0

> <r_epik_Charging_Adjusted_Penalty>
0

> <i_epik_Tot_Q>
0

> <i_epik_Tot_abs_Q>
0

> <r_epik_Metal_State_Penalty>
-0

> <b_epik_Metal_Only>
0

> <s_lp_Force_Field>
OPLS_2005

> <r_lp_Energy>
24.2957

> <b_lp_Chiralities_Consistent>
1

> <s_lp_Variant>
AV-unprocessed.smi:314-1

> <Gold.Version>
5.8.1

> <Gold.Id.Protein>
6NUR|6NUR_protein|mol2

> <Gold.PLP.Fitness>
47.2820

> <Gold.PLP.PLP>
-40.3538

> <Gold.PLP.part.hbond>
-3.7587

> <Gold.PLP.part.metal>
0.0000

> <Gold.PLP.part.buried>
-4.3204

> <Gold.PLP.part.nonpolar>
-32.8620

> <Gold.PLP.part.repulsive>
0.6547

> <Gold.PLP.ligand.clash>
0.0000

> <Gold.PLP.ligand.torsion>
0.8424

> <Gold.PLP.Chemscore.Hbond>
2.8640

> <Gold.PLP.Chemscore.CHOScore>
0.0000

> <Gold.PLP.Chemscore.Metal>
0.0000

> <Gold.Chemscore.Hbonds>
donor molecule, donor type, donor heavy atom, donor atom, acceptor molecule, acceptor atom, score
      L1  H     7    30       P1  7948  1.00
      L1  H    10    31       P1  7948  0.86
      P1  H  7997  8008       L1    14  1.00

> <Gold.PLP.Chemscore.Internal.Correction>
0.0210

> <Gold.Rescore>
     Score         DG    S(hbond)    S(metal)    S(lipo)     H(rot)  DE(clash)    DE(int)     intcor
     15.70     -17.95       2.44        0.00      76.52       1.81       0.38       1.87       ----

> <Gold.Chemscore.Fitness>
15.7021

> <Gold.Chemscore.DG>
-17.9520

> <Gold.Chemscore.ZeroCoef>
-5.4800

> <Gold.Chemscore.Hbond>
2.4385

> <Gold.Chemscore.Metal>
0.0000

> <Gold.Chemscore.Lipo>
76.5184

> <Gold.Chemscore.Internal_Hbond>
0.0000

> <Gold.Chemscore.DEClash>
0.3835

> <Gold.Chemscore.DEInternal>
1.8664

> <Gold.Chemscore.Rot>
1.8067

> <Gold.Chemscore.Internal.Correction>
   9.000000E+99

> <Gold.Chemscore.Hbonds>
donor molecule, donor type, donor heavy atom, donor atom, acceptor molecule, acceptor atom, score
      L1  H     7    30       P1  7948  0.25
      L1  H    10    31       P1  7948  0.55
      P1  H  7997  8008       L1    14  0.99

> <Gold.Chemscore.Hbond.Weighted>
-8.1445

> <Gold.Chemscore.Metal.Weighted>
-0.0000

> <Gold.Chemscore.Lipo.Weighted>
-8.9527

> <Gold.Chemscore.Internal_Hbond.Weighted>
0.0000

> <Gold.Chemscore.DEClash.Weighted>
0.3835

> <Gold.Chemscore.DEInternal.Weighted>
1.8664

> <Gold.Chemscore.Rot.Weighted>
4.6252

> <Gold.Chemscore.Internal.Correction.Weighted>
   9.000000E+99

> <Gold.Protein.RotatedTorsions>
[ 6907 6896 6895 6894 ] final  -53.03 input  -60.11 | X-H torsion
[ 7974 7965 7964 7962 ] final  -91.68 input  175.53 | X-H torsion
[ 8008 7997 7996 7995 ] final  -25.37 input   59.86 | X-H torsion
[ 10167 10162 10161 10158 ] final    7.67 input  -65.29 | X-H torsion
[ 10718 10713 10712 10709 ] final  -74.22 input   66.30 | X-H torsion
[ 10763 10752 10751 10750 ] final   24.49 input  -60.55 | X-H torsion
[ 11005 11000 10999 10996 ] final  -62.80 input  -57.11 | X-H torsion

> <Gold.Protein.ActiveResidues>
 VAL166  LYS551  ARG553  GLY616  TRP617  ASP618  TYR619  PRO620  LYS621  CYS622 
 ASP623  PHE694  ASN695  SER759  ASP760  ASP761  ALA762  ILE779  LEU786  VAL792 
 PHE793  MET794  SER795  GLU796  ALA797  LYS798  CYS799  TRP800  GLU811  SER814 

> <Gold.Protein.RotatedAtoms>
  150.8463  134.7774  159.6973 H   0  0  0  0  0  0  0  0  0  0  0  0  # atno 6907 bound_to 6896
  152.4539  134.5330  159.9826 H   0  0  0  0  0  0  0  0  0  0  0  0  # atno 6908 bound_to 6896
  151.5460  133.3387  159.2980 H   0  0  0  0  0  0  0  0  0  0  0  0  # atno 6909 bound_to 6896
  145.4099  140.9544  143.2240 H   0  0  0  0  0  0  0  0  0  0  0  0  # atno 7974 bound_to 7965
  154.4479  140.1928  156.0609 H   0  0  0  0  0  0  0  0  0  0  0  0  # atno 8008 bound_to 7997
  156.0583  140.3300  155.7405 H   0  0  0  0  0  0  0  0  0  0  0  0  # atno 8009 bound_to 7997
  155.5451  140.0590  157.2853 H   0  0  0  0  0  0  0  0  0  0  0  0  # atno 8010 bound_to 7997
  140.6359  143.7888  150.7358 H   0  0  0  0  0  0  0  0  0  0  0  0  # atno 10167 bound_to 10162
  156.0250  130.4412  150.2860 H   0  0  0  0  0  0  0  0  0  0  0  0  # atno 10718 bound_to 10713
  153.0760  135.6604  154.0145 H   0  0  0  0  0  0  0  0  0  0  0  0  # atno 10763 bound_to 10752
  153.9779  135.2958  155.3424 H   0  0  0  0  0  0  0  0  0  0  0  0  # atno 10764 bound_to 10752
  154.7148  135.5190  153.8791 H   0  0  0  0  0  0  0  0  0  0  0  0  # atno 10765 bound_to 10752
  141.1372  133.6644  156.5583 H   0  0  0  0  0  0  0  0  0  0  0  0  # atno 11005 bound_to 11000
  144.8316  139.5619  143.6941 LP  0  0  0  0  0  0  0  0  0  0  0  0  # atno 17320 bound_to 7965
  146.2710  139.6635  142.9296 LP  0  0  0  0  0  0  0  0  0  0  0  0  # atno 17321 bound_to 7965
  140.1509  143.4358  152.2132 LP  0  0  0  0  0  0  0  0  0  0  0  0  # atno 17342 bound_to 10162
  139.5569  144.7379  151.4268 LP  0  0  0  0  0  0  0  0  0  0  0  0  # atno 17343 bound_to 10162
  157.0964  131.0183  151.3102 LP  0  0  0  0  0  0  0  0  0  0  0  0  # atno 17370 bound_to 10713
  157.4814  130.7767  149.7418 LP  0  0  0  0  0  0  0  0  0  0  0  0  # atno 17371 bound_to 10713
  140.4008  134.7358  157.4779 LP  0  0  0  0  0  0  0  0  0  0  0  0  # atno 17394 bound_to 11000
  140.0497  134.6148  155.8877 LP  0  0  0  0  0  0  0  0  0  0  0  0  # atno 17395 bound_to 11000

$$$$
