AV-unprocessed.smi:2973|AV-procd|sdf|11342|dock3
  -GOLD-   2272016253D 1   1.00000     0.00000
 Structure written by MMmdl.
 50 52  0  0  0  0  0  0  0  0  2 V2000
  152.3975  138.1763  158.7333 C   0  0  0  0  0  0  0  0  0  0  0  0
  151.9645  139.6456  158.9238 C   0  0  1  0  0  0  0  0  0  0  0  0
  153.1867  140.5173  159.2862 C   0  0  0  0  0  0  0  0  0  0  0  0
  152.7932  141.9790  159.5524 C   0  0  0  0  0  0  0  0  0  0  0  0
  152.0464  142.5830  158.3551 C   0  0  0  0  0  0  0  0  0  0  0  0
  150.8168  141.7353  157.9927 C   0  0  0  0  0  0  0  0  0  0  0  0
  151.1920  140.2594  157.7152 C   0  0  1  0  0  0  0  0  0  0  0  0
  151.9305  140.1382  156.4690 N   0  0  0  0  0  0  0  0  0  0  0  0
  151.2700  139.4413  155.5358 C   0  0  0  0  0  0  0  0  0  0  0  0
  151.6763  139.2212  154.3963 O   0  0  0  0  0  0  0  0  0  0  0  0
  150.0971  139.0402  156.0588 N   0  0  0  0  0  0  0  0  0  0  0  0
  149.0794  138.2739  155.3236 C   0  0  0  0  0  0  0  0  0  0  0  0
  148.9484  136.7995  155.7453 C   0  0  0  0  0  0  0  0  0  0  0  0
  148.6470  136.5352  156.9085 O   0  0  0  0  0  0  0  0  0  0  0  0
  149.1623  135.8487  154.8195 N   0  0  0  0  0  0  0  0  0  0  0  0
  149.0588  134.4135  155.0473 C   0  0  0  0  0  0  0  0  0  0  0  0
  149.4907  133.6144  153.8065 C   0  0  0  0  0  0  0  0  0  0  0  0
  148.3131  132.9698  153.1026 C   0  0  0  0  0  0  0  0  0  0  0  0
  147.8925  131.6534  153.3920 C   0  0  0  0  0  0  0  0  0  0  0  0
  146.7821  131.1189  152.7059 C   0  0  0  0  0  0  0  0  0  0  0  0
  146.1168  131.9106  151.7469 C   0  0  0  0  0  0  0  0  0  0  0  0
  146.5800  133.2185  151.4970 C   0  0  0  0  0  0  0  0  0  0  0  0
  147.6470  133.6950  152.1752 N   0  3  0  0  0  0  0  0  0  0  0  0
  149.9539  139.4631  157.3228 C   0  0  0  0  0  0  0  0  0  0  0  0
  148.9897  139.2738  158.0646 O   0  0  0  0  0  0  0  0  0  0  0  0
  153.0818  138.0635  157.8921 H   0  0  0  0  0  0  0  0  0  0  0  0
  151.5446  137.5199  158.5606 H   0  0  0  0  0  0  0  0  0  0  0  0
  152.9089  137.8050  159.6218 H   0  0  0  0  0  0  0  0  0  0  0  0
  151.2936  139.6655  159.7846 H   0  0  0  0  0  0  0  0  0  0  0  0
  153.6824  140.1137  160.1698 H   0  0  0  0  0  0  0  0  0  0  0  0
  153.9216  140.4799  158.4811 H   0  0  0  0  0  0  0  0  0  0  0  0
  152.1623  142.0313  160.4407 H   0  0  0  0  0  0  0  0  0  0  0  0
  153.6835  142.5696  159.7710 H   0  0  0  0  0  0  0  0  0  0  0  0
  151.7382  143.6029  158.5863 H   0  0  0  0  0  0  0  0  0  0  0  0
  152.7174  142.6514  157.4980 H   0  0  0  0  0  0  0  0  0  0  0  0
  150.1023  141.7839  158.8161 H   0  0  0  0  0  0  0  0  0  0  0  0
  150.3131  142.1737  157.1295 H   0  0  0  0  0  0  0  0  0  0  0  0
  152.8407  140.5530  156.3314 H   0  0  0  0  0  0  0  0  0  0  0  0
  148.1035  138.7492  155.4355 H   0  0  0  0  0  0  0  0  0  0  0  0
  149.2972  138.3072  154.2547 H   0  0  0  0  0  0  0  0  0  0  0  0
  149.4095  136.1460  153.8866 H   0  0  0  0  0  0  0  0  0  0  0  0
  149.6982  134.1599  155.8936 H   0  0  0  0  0  0  0  0  0  0  0  0
  148.0393  134.1553  155.3389 H   0  0  0  0  0  0  0  0  0  0  0  0
  150.0084  134.2623  153.0976 H   0  0  0  0  0  0  0  0  0  0  0  0
  150.2043  132.8403  154.0921 H   0  0  0  0  0  0  0  0  0  0  0  0
  148.4114  131.0599  154.1307 H   0  0  0  0  0  0  0  0  0  0  0  0
  146.4439  130.1142  152.9138 H   0  0  0  0  0  0  0  0  0  0  0  0
  145.2640  131.5197  151.2113 H   0  0  0  0  0  0  0  0  0  0  0  0
  146.1319  133.8933  150.7823 H   0  0  0  0  0  0  0  0  0  0  0  0
  147.9644  134.6449  151.9799 H   0  0  0  0  0  0  0  0  0  0  0  0
  1  2  1  0  0  0  0
  1 26  1  0  0  0  0
  1 27  1  0  0  0  0
  1 28  1  0  0  0  0
  2  7  1  0  0  0  0
  2  3  1  0  0  0  0
  2 29  1  0  0  0  0
  3  4  1  0  0  0  0
  3 30  1  0  0  0  0
  3 31  1  0  0  0  0
  4  5  1  0  0  0  0
  4 32  1  0  0  0  0
  4 33  1  0  0  0  0
  5  6  1  0  0  0  0
  5 34  1  0  0  0  0
  5 35  1  0  0  0  0
  6  7  1  0  0  0  0
  6 36  1  0  0  0  0
  6 37  1  0  0  0  0
  7 24  1  0  0  0  0
  7  8  1  0  0  0  0
  8  9  1  0  0  0  0
  8 38  1  0  0  0  0
  9 10  2  0  0  0  0
  9 11  1  0  0  0  0
 11 12  1  0  0  0  0
 11 24  1  0  0  0  0
 12 13  1  0  0  0  0
 12 39  1  0  0  0  0
 12 40  1  0  0  0  0
 13 14  2  0  0  0  0
 13 15  1  0  0  0  0
 15 16  1  0  0  0  0
 15 41  1  0  0  0  0
 16 17  1  0  0  0  0
 16 42  1  0  0  0  0
 16 43  1  0  0  0  0
 17 18  1  0  0  0  0
 17 44  1  0  0  0  0
 17 45  1  0  0  0  0
 18 23  1  0  0  0  0
 18 19  2  0  0  0  0
 19 20  1  0  0  0  0
 19 46  1  0  0  0  0
 20 21  2  0  0  0  0
 20 47  1  0  0  0  0
 21 22  1  0  0  0  0
 21 48  1  0  0  0  0
 22 23  2  0  0  0  0
 22 49  1  0  0  0  0
 23 50  1  0  0  0  0
 24 25  2  0  0  0  0
M  CHG  1  23   1
M  END
> <s_m_source_file>
AV-unprocessed.smi

> <i_m_source_file_index>
2973

> <i_lp_mmshare_version>
43012

> <i_f3d_flags>
0

> <s_epik_input>
W0NIMl0xW0NIMl1bQ0gyXVtDSDJdW0NAQEhdKFtDSDNdKVtDQF0xMltOSF1DKD1PKU4oQzI9TylbQ0gyXUMoPU8pW05IXVtDSDJdW0NIMl1jM1tjSF1bY0hdW2NIXVtjSF1uMw==

> <s_epik_cmdline>
J2VwaWtfcHl0aG9uJywgJy1waCcsICc3LjAnLCAnLXRuJywgJzgnLCAnLW1hJywgJzIwMCcsICctbWV0YWxfYmluZGluZycsICctaW1hZScsICc8aW5maWxlLm1hZT4nLCAnLW9tYWUnLCAnPG91dGZpbGUubWFlPic=

> <r_lp_tautomer_probability>
1

> <r_epik_Ionization_Penalty>
1.90043

> <r_epik_Ionization_Penalty_Charging>
1.90039

> <r_epik_Ionization_Penalty_Neutral>
4.65525e-05

> <r_epik_State_Penalty>
2.02162

> <r_epik_Charging_Adjusted_Penalty>
3.922

> <i_epik_Tot_Q>
1

> <i_epik_Tot_abs_Q>
1

> <r_epik_Metal_State_Penalty>
2.06631

> <b_epik_Metal_Only>
0

> <s_lp_Force_Field>
OPLS_2005

> <r_lp_Energy>
28.0299

> <b_lp_Chiralities_Consistent>
1

> <s_lp_Variant>
AV-unprocessed.smi:2973-6

> <Gold.Version>
5.8.1

> <Gold.Id.Protein>
6NUR|6NUR_protein|mol2

> <Gold.PLP.Fitness>
47.2396

> <Gold.PLP.PLP>
-37.0656

> <Gold.PLP.part.hbond>
-3.0000

> <Gold.PLP.part.metal>
0.0000

> <Gold.PLP.part.buried>
-3.0720

> <Gold.PLP.part.nonpolar>
-29.9401

> <Gold.PLP.part.repulsive>
0.3075

> <Gold.PLP.ligand.clash>
0.0000

> <Gold.PLP.ligand.torsion>
0.8740

> <Gold.PLP.Chemscore.Hbond>
3.9588

> <Gold.PLP.Chemscore.CHOScore>
0.0000

> <Gold.PLP.Chemscore.Metal>
0.0000

> <Gold.Chemscore.Hbonds>
donor molecule, donor type, donor heavy atom, donor atom, acceptor molecule, acceptor atom, score
      L1  H    15    41       P1  7948  0.96
      L1  H    23    50       P1  7948  2.00
      P1  H  7989  7998       L1    10  1.00

> <Gold.PLP.Chemscore.Internal.Correction>
0.0458

> <Gold.Rescore>
     Score         DG    S(hbond)    S(metal)    S(lipo)     H(rot)  DE(clash)    DE(int)     intcor
     16.03     -17.93       1.96        0.00      93.28       1.96       0.01       1.88       ----

> <Gold.Chemscore.Fitness>
16.0326

> <Gold.Chemscore.DG>
-17.9252

> <Gold.Chemscore.ZeroCoef>
-5.4800

> <Gold.Chemscore.Hbond>
1.9638

> <Gold.Chemscore.Metal>
0.0000

> <Gold.Chemscore.Lipo>
93.2775

> <Gold.Chemscore.Internal_Hbond>
0.0000

> <Gold.Chemscore.DEClash>
0.0132

> <Gold.Chemscore.DEInternal>
1.8794

> <Gold.Chemscore.Rot>
1.9638

> <Gold.Chemscore.Internal.Correction>
   9.000000E+99

> <Gold.Chemscore.Hbonds>
donor molecule, donor type, donor heavy atom, donor atom, acceptor molecule, acceptor atom, score
      L1  H    15    41       P1  7948  0.63
      L1  H    23    50       P1  7948  0.26
      P1  H  7989  7998       L1    10  0.58

> <Gold.Chemscore.Hbond.Weighted>
-6.5591

> <Gold.Chemscore.Metal.Weighted>
-0.0000

> <Gold.Chemscore.Lipo.Weighted>
-10.9135

> <Gold.Chemscore.Internal_Hbond.Weighted>
0.0000

> <Gold.Chemscore.DEClash.Weighted>
0.0132

> <Gold.Chemscore.DEInternal.Weighted>
1.8794

> <Gold.Chemscore.Rot.Weighted>
5.0274

> <Gold.Chemscore.Internal.Correction.Weighted>
   9.000000E+99

> <Gold.Protein.RotatedTorsions>
[ 6907 6896 6895 6894 ] final  163.58 input  -60.11 | X-H torsion
[ 7974 7965 7964 7962 ] final  -63.65 input  175.53 | X-H torsion
[ 8008 7997 7996 7995 ] final   58.78 input   59.86 | X-H torsion
[ 10167 10162 10161 10158 ] final   41.62 input  -65.29 | X-H torsion
[ 10718 10713 10712 10709 ] final  -73.49 input   66.30 | X-H torsion
[ 10763 10752 10751 10750 ] final   51.65 input  -60.55 | X-H torsion
[ 11005 11000 10999 10996 ] final  136.92 input  -57.11 | X-H torsion

> <Gold.Protein.ActiveResidues>
 VAL166  LYS551  ARG553  GLY616  TRP617  ASP618  TYR619  PRO620  LYS621  CYS622 
 ASP623  PHE694  ASN695  SER759  ASP760  ASP761  ALA762  ILE779  LEU786  VAL792 
 PHE793  MET794  SER795  GLU796  ALA797  LYS798  CYS799  TRP800  GLU811  SER814 

> <Gold.Protein.RotatedAtoms>
  151.9230  133.3590  159.3903 H   0  0  0  0  0  0  0  0  0  0  0  0  # atno 6907 bound_to 6896
  150.7033  134.4615  159.5392 H   0  0  0  0  0  0  0  0  0  0  0  0  # atno 6908 bound_to 6896
  152.2242  134.8384  160.0533 H   0  0  0  0  0  0  0  0  0  0  0  0  # atno 6909 bound_to 6896
  145.7765  140.8785  143.0353 H   0  0  0  0  0  0  0  0  0  0  0  0  # atno 7974 bound_to 7965
  155.5556  140.3487  155.4479 H   0  0  0  0  0  0  0  0  0  0  0  0  # atno 8008 bound_to 7997
  156.0552  140.1327  157.0031 H   0  0  0  0  0  0  0  0  0  0  0  0  # atno 8009 bound_to 7997
  154.4453  140.0996  156.6420 H   0  0  0  0  0  0  0  0  0  0  0  0  # atno 8010 bound_to 7997
  140.3625  144.2210  150.6137 H   0  0  0  0  0  0  0  0  0  0  0  0  # atno 10167 bound_to 10162
  156.0278  130.4395  150.2750 H   0  0  0  0  0  0  0  0  0  0  0  0  # atno 10718 bound_to 10713
  152.9786  135.5839  154.4450 H   0  0  0  0  0  0  0  0  0  0  0  0  # atno 10763 bound_to 10752
  154.4046  135.2769  155.2077 H   0  0  0  0  0  0  0  0  0  0  0  0  # atno 10764 bound_to 10752
  154.3893  135.6129  153.5888 H   0  0  0  0  0  0  0  0  0  0  0  0  # atno 10765 bound_to 10752
  140.0079  134.9451  157.0214 H   0  0  0  0  0  0  0  0  0  0  0  0  # atno 11005 bound_to 11000
  144.6803  139.9928  143.7484 LP  0  0  0  0  0  0  0  0  0  0  0  0  # atno 17320 bound_to 7965
  146.0117  139.3176  143.0866 LP  0  0  0  0  0  0  0  0  0  0  0  0  # atno 17321 bound_to 7965
  140.5113  143.2290  151.8531 LP  0  0  0  0  0  0  0  0  0  0  0  0  # atno 17342 bound_to 10162
  139.4812  144.4946  151.9140 LP  0  0  0  0  0  0  0  0  0  0  0  0  # atno 17343 bound_to 10162
  157.0853  131.0155  151.3141 LP  0  0  0  0  0  0  0  0  0  0  0  0  # atno 17370 bound_to 10713
  157.4896  130.7814  149.7494 LP  0  0  0  0  0  0  0  0  0  0  0  0  # atno 17371 bound_to 10713
  140.4608  134.1486  155.7191 LP  0  0  0  0  0  0  0  0  0  0  0  0  # atno 17394 bound_to 11000
  141.1690  133.8646  157.1629 LP  0  0  0  0  0  0  0  0  0  0  0  0  # atno 17395 bound_to 11000

$$$$
