AV-unprocessed.smi:243|AV-procd|sdf|1850|dock4
  -GOLD-   2262020473D 1   1.00000     0.00000
 Structure written by MMmdl.
 58 61  0  0  0  0  0  0  0  0  2 V2000
  144.3200  132.6526  151.6158 C   0  0  0  0  0  0  0  0  0  0  0  0
  143.8305  134.0594  151.9873 C   0  0  0  0  0  0  0  0  0  0  0  0
  143.6378  134.2306  153.4524 N   0  3  2  0  0  0  0  0  0  0  0  0
  142.8180  135.4154  153.8065 C   0  0  0  0  0  0  0  0  0  0  0  0
  143.6032  136.7219  153.6140 C   0  0  0  0  0  0  0  0  0  0  0  0
  144.9153  136.7219  154.4319 C   0  0  2  0  0  0  0  0  0  0  0  0
  145.6607  137.9825  154.2913 N   0  0  0  0  0  0  0  0  0  0  0  0
  146.5329  138.1066  153.1289 C   0  0  0  0  0  0  0  0  0  0  0  0
  146.1609  138.5460  155.4196 C   0  0  0  0  0  0  0  0  0  0  0  0
  145.9028  137.9280  156.5993 N   0  0  0  0  0  0  0  0  0  0  0  0
  146.3650  138.4400  157.7436 C   0  0  0  0  0  0  0  0  0  0  0  0
  147.0894  139.5446  157.9303 N   0  0  0  0  0  0  0  0  0  0  0  0
  147.3437  140.1770  156.7492 C   0  0  0  0  0  0  0  0  0  0  0  0
  146.9229  139.7501  155.4577 C   0  0  0  0  0  0  0  0  0  0  0  0
  147.3856  140.6390  154.4943 N   0  0  0  0  0  0  0  0  0  0  0  0
  148.0352  141.5414  155.1768 C   0  0  0  0  0  0  0  0  0  0  0  0
  148.0511  141.3483  156.5397 N   0  0  0  0  0  0  0  0  0  0  0  0
  148.6915  142.1959  157.5343 C   0  0  0  0  0  0  0  0  0  0  0  0
  150.2364  142.1957  157.4454 C   0  0  1  0  0  0  0  0  0  0  0  0
  150.6266  142.6830  156.1731 O   0  0  0  0  0  0  0  0  0  0  0  0
  150.8925  143.0612  158.5130 C   0  0  0  0  0  0  0  0  0  0  0  0
  152.2488  142.3937  158.6983 C   0  0  0  0  0  0  0  0  0  0  0  0
  151.9402  141.0121  158.6189 O   0  0  0  0  0  0  0  0  0  0  0  0
  150.8986  140.8200  157.6653 C   0  0  0  0  0  0  0  0  0  0  0  0
  145.7521  135.4510  154.1201 C   0  0  1  0  0  0  0  0  0  0  0  0
  146.9823  135.3317  155.0382 C   0  0  0  0  0  0  0  0  0  0  0  0
  144.8840  134.1786  154.2623 C   0  0  0  0  0  0  0  0  0  0  0  0
  144.3395  132.5296  150.5328 H   0  0  0  0  0  0  0  0  0  0  0  0
  143.6620  131.8846  152.0231 H   0  0  0  0  0  0  0  0  0  0  0  0
  145.3297  132.4611  151.9781 H   0  0  0  0  0  0  0  0  0  0  0  0
  144.5087  134.8138  151.5888 H   0  0  0  0  0  0  0  0  0  0  0  0
  142.8742  134.2181  151.4877 H   0  0  0  0  0  0  0  0  0  0  0  0
  141.9004  135.4302  153.2172 H   0  0  0  0  0  0  0  0  0  0  0  0
  142.5081  135.3261  154.8485 H   0  0  0  0  0  0  0  0  0  0  0  0
  143.8137  136.8572  152.5531 H   0  0  0  0  0  0  0  0  0  0  0  0
  142.9733  137.5613  153.9088 H   0  0  0  0  0  0  0  0  0  0  0  0
  144.6311  136.6589  155.4835 H   0  0  0  0  0  0  0  0  0  0  0  0
  147.0475  139.0687  153.1214 H   0  0  0  0  0  0  0  0  0  0  0  0
  145.9436  138.0410  152.2141 H   0  0  0  0  0  0  0  0  0  0  0  0
  147.2823  137.3159  153.1031 H   0  0  0  0  0  0  0  0  0  0  0  0
  146.1169  137.8869  158.6376 H   0  0  0  0  0  0  0  0  0  0  0  0
  148.5223  142.3795  154.7000 H   0  0  0  0  0  0  0  0  0  0  0  0
  148.3081  143.2108  157.4199 H   0  0  0  0  0  0  0  0  0  0  0  0
  148.3724  141.8589  158.5214 H   0  0  0  0  0  0  0  0  0  0  0  0
  150.0057  143.3407  155.8998 H   0  0  0  0  0  0  0  0  0  0  0  0
  150.9653  144.1151  158.2413 H   0  0  0  0  0  0  0  0  0  0  0  0
  150.3338  142.9970  159.4479 H   0  0  0  0  0  0  0  0  0  0  0  0
  152.9318  142.6636  157.8911 H   0  0  0  0  0  0  0  0  0  0  0  0
  152.7192  142.6468  159.6486 H   0  0  0  0  0  0  0  0  0  0  0  0
  150.2031  140.0919  158.0811 H   0  0  0  0  0  0  0  0  0  0  0  0
  151.2990  140.3988  156.7417 H   0  0  0  0  0  0  0  0  0  0  0  0
  146.1088  135.4965  153.0917 H   0  0  0  0  0  0  0  0  0  0  0  0
  146.6891  135.2716  156.0867 H   0  0  0  0  0  0  0  0  0  0  0  0
  147.6528  136.1841  154.9342 H   0  0  0  0  0  0  0  0  0  0  0  0
  147.5601  134.4374  154.8038 H   0  0  0  0  0  0  0  0  0  0  0  0
  144.5949  134.0545  155.3070 H   0  0  0  0  0  0  0  0  0  0  0  0
  145.4637  133.2910  154.0118 H   0  0  0  0  0  0  0  0  0  0  0  0
  143.0885  133.4316  153.7357 H   0  0  0  0  0  0  0  0  0  0  0  0
  1  2  1  0  0  0  0
  1 28  1  0  0  0  0
  1 29  1  0  0  0  0
  1 30  1  0  0  0  0
  2  3  1  0  0  0  0
  2 31  1  0  0  0  0
  2 32  1  0  0  0  0
  3 27  1  0  0  0  0
  3  4  1  0  0  0  0
  3 58  1  0  0  0  0
  4  5  1  0  0  0  0
  4 33  1  0  0  0  0
  4 34  1  0  0  0  0
  5  6  1  0  0  0  0
  5 35  1  0  0  0  0
  5 36  1  0  0  0  0
  6  7  1  0  0  0  0
  6 25  1  0  0  0  0
  6 37  1  0  0  0  0
  7  8  1  0  0  0  0
  7  9  1  0  0  0  0
  8 38  1  0  0  0  0
  8 39  1  0  0  0  0
  8 40  1  0  0  0  0
  9 14  1  0  0  0  0
  9 10  2  0  0  0  0
 10 11  1  0  0  0  0
 11 12  2  0  0  0  0
 11 41  1  0  0  0  0
 12 13  1  0  0  0  0
 13 17  1  0  0  0  0
 13 14  2  0  0  0  0
 14 15  1  0  0  0  0
 15 16  2  0  0  0  0
 16 17  1  0  0  0  0
 16 42  1  0  0  0  0
 17 18  1  0  0  0  0
 18 19  1  0  0  0  0
 18 43  1  0  0  0  0
 18 44  1  0  0  0  0
 19 24  1  0  0  0  0
 19 20  1  0  0  0  0
 19 21  1  0  0  0  0
 20 45  1  0  0  0  0
 21 22  1  0  0  0  0
 21 46  1  0  0  0  0
 21 47  1  0  0  0  0
 22 23  1  0  0  0  0
 22 48  1  0  0  0  0
 22 49  1  0  0  0  0
 23 24  1  0  0  0  0
 24 50  1  0  0  0  0
 24 51  1  0  0  0  0
 25 26  1  0  0  0  0
 25 27  1  0  0  0  0
 25 52  1  0  0  0  0
 26 53  1  0  0  0  0
 26 54  1  0  0  0  0
 26 55  1  0  0  0  0
 27 56  1  0  0  0  0
 27 57  1  0  0  0  0
M  CHG  1   3   1
M  END
> <s_m_source_file>
AV-unprocessed.smi

> <i_m_source_file_index>
243

> <i_lp_mmshare_version>
43012

> <i_f3d_flags>
0

> <s_epik_input>
W0NIM11bQ0gyXU4xW0NIMl1bQ0gyXVtDQEhdKFtDQEBIXShbQ0gzXSlbQ0gyXTEpTihbQ0gzXSljKG5bY0hdbjIpYyhjMjMpbltjSF1uM1tDSDJdW0NAQF00KFtPSF0pW0NIMl1bQ0gyXU9bQ0gyXTQ=

> <s_epik_cmdline>
J2VwaWtfcHl0aG9uJywgJy1waCcsICc3LjAnLCAnLXRuJywgJzgnLCAnLW1hJywgJzIwMCcsICctbWV0YWxfYmluZGluZycsICctaW1hZScsICc8aW5maWxlLm1hZT4nLCAnLW9tYWUnLCAnPG91dGZpbGUubWFlPic=

> <r_lp_tautomer_probability>
1

> <r_epik_Ionization_Penalty>
0.00253099

> <r_epik_Ionization_Penalty_Charging>
0.00137877

> <r_epik_Ionization_Penalty_Neutral>
0.00115221

> <r_epik_State_Penalty>
-0

> <r_epik_Charging_Adjusted_Penalty>
0.00137877

> <i_epik_Tot_Q>
1

> <i_epik_Tot_abs_Q>
1

> <r_epik_Metal_State_Penalty>
-0

> <b_epik_Metal_Only>
0

> <s_lp_Force_Field>
OPLS_2005

> <r_lp_Energy>
49.0604

> <b_lp_Chiralities_Consistent>
1

> <s_lp_Variant>
AV-unprocessed.smi:243-3

> <Gold.Version>
5.8.1

> <Gold.Id.Protein>
6NUR|6NUR_protein|mol2

> <Gold.PLP.Fitness>
36.8543

> <Gold.PLP.PLP>
-26.5469

> <Gold.PLP.part.hbond>
-2.8268

> <Gold.PLP.part.metal>
0.0000

> <Gold.PLP.part.buried>
-6.6950

> <Gold.PLP.part.nonpolar>
-18.2287

> <Gold.PLP.part.repulsive>
0.2037

> <Gold.PLP.ligand.clash>
0.0000

> <Gold.PLP.ligand.torsion>
1.2576

> <Gold.PLP.Chemscore.Hbond>
3.0000

> <Gold.PLP.Chemscore.CHOScore>
1.0000

> <Gold.PLP.Chemscore.Metal>
0.0000

> <Gold.Chemscore.Hbonds>
donor molecule, donor type, donor heavy atom, donor atom, acceptor molecule, acceptor atom, score
      L1  H     3    58       P1 10957  2.00
      L1  H    20    45       P1  8028  1.00
      L1  C    16    42       P1  8028  0.95

> <Gold.PLP.Chemscore.Internal.Correction>
0.8226

> <Gold.Rescore>
     Score         DG    S(hbond)    S(metal)    S(lipo)     H(rot)  DE(clash)    DE(int)     intcor
     10.94     -12.98       1.97        0.00      63.19       2.53       0.02       2.01       ----

> <Gold.Chemscore.Fitness>
10.9438

> <Gold.Chemscore.DG>
-12.9751

> <Gold.Chemscore.ZeroCoef>
-5.4800

> <Gold.Chemscore.Hbond>
1.9701

> <Gold.Chemscore.Metal>
0.0000

> <Gold.Chemscore.Lipo>
63.1871

> <Gold.Chemscore.Internal_Hbond>
0.0000

> <Gold.Chemscore.DEClash>
0.0174

> <Gold.Chemscore.DEInternal>
2.0139

> <Gold.Chemscore.Rot>
2.5305

> <Gold.Chemscore.Internal.Correction>
   9.000000E+99

> <Gold.Chemscore.Hbonds>
donor molecule, donor type, donor heavy atom, donor atom, acceptor molecule, acceptor atom, score
      L1  H     3    58       P1 10957  0.94
      L1  H    20    45       P1  8028  1.00

> <Gold.Chemscore.Hbond.Weighted>
-6.5802

> <Gold.Chemscore.Metal.Weighted>
-0.0000

> <Gold.Chemscore.Lipo.Weighted>
-7.3929

> <Gold.Chemscore.Internal_Hbond.Weighted>
0.0000

> <Gold.Chemscore.DEClash.Weighted>
0.0174

> <Gold.Chemscore.DEInternal.Weighted>
2.0139

> <Gold.Chemscore.Rot.Weighted>
6.4780

> <Gold.Chemscore.Internal.Correction.Weighted>
   9.000000E+99

> <Gold.Protein.RotatedTorsions>
[ 6907 6896 6895 6894 ] final   28.52 input  -60.11 | X-H torsion
[ 7974 7965 7964 7962 ] final    8.40 input  175.53 | X-H torsion
[ 8008 7997 7996 7995 ] final  106.95 input   59.86 | X-H torsion
[ 10167 10162 10161 10158 ] final  143.82 input  -65.29 | X-H torsion
[ 10718 10713 10712 10709 ] final  168.20 input   66.30 | X-H torsion
[ 10763 10752 10751 10750 ] final   68.56 input  -60.55 | X-H torsion
[ 11005 11000 10999 10996 ] final  -95.27 input  -57.11 | X-H torsion

> <Gold.Protein.ActiveResidues>
 VAL166  LYS551  ARG553  GLY616  TRP617  ASP618  TYR619  PRO620  LYS621  CYS622 
 ASP623  PHE694  ASN695  SER759  ASP760  ASP761  ALA762  ILE779  LEU786  VAL792 
 PHE793  MET794  SER795  GLU796  ALA797  LYS798  CYS799  TRP800  GLU811  SER814 

> <Gold.Protein.RotatedAtoms>
  152.0182  134.9838  160.0569 H   0  0  0  0  0  0  0  0  0  0  0  0  # atno 6907 bound_to 6896
  152.1363  133.4432  159.4753 H   0  0  0  0  0  0  0  0  0  0  0  0  # atno 6908 bound_to 6896
  150.6861  134.2278  159.4465 H   0  0  0  0  0  0  0  0  0  0  0  0  # atno 6909 bound_to 6896
  146.2416  139.9939  142.8423 H   0  0  0  0  0  0  0  0  0  0  0  0  # atno 7974 bound_to 7965
  156.1785  140.3103  155.9104 H   0  0  0  0  0  0  0  0  0  0  0  0  # atno 8008 bound_to 7997
  155.3435  140.0467  157.3062 H   0  0  0  0  0  0  0  0  0  0  0  0  # atno 8009 bound_to 7997
  154.5316  140.2232  155.8804 H   0  0  0  0  0  0  0  0  0  0  0  0  # atno 8010 bound_to 7997
  139.4961  144.6014  151.6473 H   0  0  0  0  0  0  0  0  0  0  0  0  # atno 10167 bound_to 10162
  157.0405  131.0285  151.2715 H   0  0  0  0  0  0  0  0  0  0  0  0  # atno 10718 bound_to 10713
  153.0241  135.5243  154.7153 H   0  0  0  0  0  0  0  0  0  0  0  0  # atno 10763 bound_to 10752
  154.6223  135.2890  155.0313 H   0  0  0  0  0  0  0  0  0  0  0  0  # atno 10764 bound_to 10752
  154.1295  135.6595  153.4971 H   0  0  0  0  0  0  0  0  0  0  0  0  # atno 10765 bound_to 10752
  141.1446  133.8014  157.0412 H   0  0  0  0  0  0  0  0  0  0  0  0  # atno 11005 bound_to 11000
  145.1477  140.9606  143.4451 LP  0  0  0  0  0  0  0  0  0  0  0  0  # atno 17320 bound_to 7965
  145.0235  139.3403  143.6060 LP  0  0  0  0  0  0  0  0  0  0  0  0  # atno 17321 bound_to 7965
  140.5665  144.0182  150.6195 LP  0  0  0  0  0  0  0  0  0  0  0  0  # atno 17342 bound_to 10162
  140.3285  143.3092  152.0712 LP  0  0  0  0  0  0  0  0  0  0  0  0  # atno 17343 bound_to 10162
  157.5108  130.7937  149.7703 LP  0  0  0  0  0  0  0  0  0  0  0  0  # atno 17370 bound_to 10713
  156.0039  130.3865  150.2501 LP  0  0  0  0  0  0  0  0  0  0  0  0  # atno 17371 bound_to 10713
  140.0691  134.9712  157.1437 LP  0  0  0  0  0  0  0  0  0  0  0  0  # atno 17394 bound_to 11000
  140.3736  134.2363  155.7176 LP  0  0  0  0  0  0  0  0  0  0  0  0  # atno 17395 bound_to 11000

$$$$
