AV-unprocessed.smi:3303|AV-procd|sdf|12670|dock3
  -GOLD-   2272019 03D 1   1.00000     0.00000
 Structure written by MMmdl.
 45 46  0  0  0  0  0  0  0  0  3 V2000
  150.3710  139.0043  154.0288 C   0  0  0  0  0  0  0  0  0  0  0  0
  149.1047  139.8029  154.3852 C   0  0  1  0  0  0  0  0  0  0  0  0
  149.4923  141.2352  154.8232 C   0  0  0  0  0  0  0  0  0  0  0  0
  148.3104  142.0700  155.1601 N   0  3  2  0  0  0  0  0  0  0  0  0
  147.7093  141.7190  156.4722 C   0  0  0  0  0  0  0  0  0  0  0  0
  147.3565  142.1519  154.0169 C   0  0  2  0  0  0  0  0  0  0  0  0
  146.1738  143.0977  154.2885 C   0  0  0  0  0  0  0  0  0  0  0  0
  146.8983  140.7487  153.5700 C   0  0  0  0  0  0  0  0  0  0  0  0
  148.0947  139.8469  153.2136 C   0  0  2  0  0  0  0  0  0  0  0  0
  147.6076  138.4881  152.8818 N   0  3  0  0  0  0  0  0  0  0  0  0
  146.9131  137.7919  153.9835 C   0  0  0  0  0  0  0  0  0  0  0  0
  145.4039  137.7107  153.7180 C   0  0  0  0  0  0  0  0  0  0  0  0
  145.0659  136.7100  152.6299 C   0  0  0  0  0  0  0  0  0  0  0  0
  143.9061  135.9111  152.7191 C   0  0  0  0  0  0  0  0  0  0  0  0
  143.6429  134.9937  151.6833 C   0  0  0  0  0  0  0  0  0  0  0  0
  144.5454  134.9107  150.6056 C   0  0  0  0  0  0  0  0  0  0  0  0
  145.6761  135.7515  150.6114 C   0  0  0  0  0  0  0  0  0  0  0  0
  145.9387  136.6336  151.6004 N   0  0  0  0  0  0  0  0  0  0  0  0
  150.8842  139.4363  153.1690 H   0  0  0  0  0  0  0  0  0  0  0  0
  150.1393  137.9660  153.7907 H   0  0  0  0  0  0  0  0  0  0  0  0
  151.0741  138.9936  154.8623 H   0  0  0  0  0  0  0  0  0  0  0  0
  148.6311  139.3024  155.2310 H   0  0  0  0  0  0  0  0  0  0  0  0
  150.1731  141.2042  155.6750 H   0  0  0  0  0  0  0  0  0  0  0  0
  150.0401  141.7290  154.0190 H   0  0  0  0  0  0  0  0  0  0  0  0
  147.2054  140.7532  156.4486 H   0  0  0  0  0  0  0  0  0  0  0  0
  146.9885  142.4712  156.7914 H   0  0  0  0  0  0  0  0  0  0  0  0
  148.4787  141.6758  157.2439 H   0  0  0  0  0  0  0  0  0  0  0  0
  147.9150  142.5923  153.1890 H   0  0  0  0  0  0  0  0  0  0  0  0
  145.5901  143.2554  153.3812 H   0  0  0  0  0  0  0  0  0  0  0  0
  146.5192  144.0751  154.6273 H   0  0  0  0  0  0  0  0  0  0  0  0
  145.4939  142.6984  155.0417 H   0  0  0  0  0  0  0  0  0  0  0  0
  146.2980  140.2836  154.3531 H   0  0  0  0  0  0  0  0  0  0  0  0
  146.2429  140.8389  152.7027 H   0  0  0  0  0  0  0  0  0  0  0  0
  148.5938  140.2788  152.3436 H   0  0  0  0  0  0  0  0  0  0  0  0
  146.9710  138.5603  152.1007 H   0  0  0  0  0  0  0  0  0  0  0  0
  147.3319  136.7904  154.0921 H   0  0  0  0  0  0  0  0  0  0  0  0
  147.0959  138.3235  154.9185 H   0  0  0  0  0  0  0  0  0  0  0  0
  144.8781  137.4348  154.6331 H   0  0  0  0  0  0  0  0  0  0  0  0
  145.0207  138.6901  153.4270 H   0  0  0  0  0  0  0  0  0  0  0  0
  143.2321  135.9962  153.5589 H   0  0  0  0  0  0  0  0  0  0  0  0
  142.7657  134.3644  151.7154 H   0  0  0  0  0  0  0  0  0  0  0  0
  144.3753  134.2191  149.7937 H   0  0  0  0  0  0  0  0  0  0  0  0
  146.3891  135.7138  149.8011 H   0  0  0  0  0  0  0  0  0  0  0  0
  148.3963  137.9234  152.5991 H   0  0  0  0  0  0  0  0  0  0  0  0
  148.6693  143.0064  155.2847 H   0  0  0  0  0  0  0  0  0  0  0  0
  1  2  1  0  0  0  0
  1 19  1  0  0  0  0
  1 20  1  0  0  0  0
  1 21  1  0  0  0  0
  2  9  1  0  0  0  0
  2  3  1  0  0  0  0
  2 22  1  0  0  0  0
  3  4  1  0  0  0  0
  3 23  1  0  0  0  0
  3 24  1  0  0  0  0
  4  5  1  0  0  0  0
  4  6  1  0  0  0  0
  4 45  1  0  0  0  0
  5 25  1  0  0  0  0
  5 26  1  0  0  0  0
  5 27  1  0  0  0  0
  6  7  1  0  0  0  0
  6  8  1  0  0  0  0
  6 28  1  0  0  0  0
  7 29  1  0  0  0  0
  7 30  1  0  0  0  0
  7 31  1  0  0  0  0
  8  9  1  0  0  0  0
  8 32  1  0  0  0  0
  8 33  1  0  0  0  0
  9 10  1  0  0  0  0
  9 34  1  0  0  0  0
 10 11  1  0  0  0  0
 10 35  1  0  0  0  0
 10 44  1  0  0  0  0
 11 12  1  0  0  0  0
 11 36  1  0  0  0  0
 11 37  1  0  0  0  0
 12 13  1  0  0  0  0
 12 38  1  0  0  0  0
 12 39  1  0  0  0  0
 13 18  1  0  0  0  0
 13 14  2  0  0  0  0
 14 15  1  0  0  0  0
 14 40  1  0  0  0  0
 15 16  2  0  0  0  0
 15 41  1  0  0  0  0
 16 17  1  0  0  0  0
 16 42  1  0  0  0  0
 17 18  2  0  0  0  0
 17 43  1  0  0  0  0
M  CHG  1   4   1
M  CHG  1  10   1
M  END
> <s_m_source_file>
AV-unprocessed.smi

> <i_m_source_file_index>
3303

> <i_lp_mmshare_version>
43012

> <i_f3d_flags>
0

> <s_epik_input>
W0NIM11bQ0BASF0xW0NIMl1OKFtDSDNdKVtDQEBIXShbQ0gzXSlbQ0gyXVtDQEhdMVtOSF1bQ0gyXVtDSDJdYzJbY0hdW2NIXVtjSF1bY0hdbjI=

> <s_epik_cmdline>
J2VwaWtfcHl0aG9uJywgJy1waCcsICc3LjAnLCAnLXRuJywgJzgnLCAnLW1hJywgJzIwMCcsICctbWV0YWxfYmluZGluZycsICctaW1hZScsICc8aW5maWxlLm1hZT4nLCAnLW9tYWUnLCAnPG91dGZpbGUubWFlPic=

> <r_epik_Ionization_Penalty>
0.0769462

> <r_epik_Ionization_Penalty_Charging>
0.0759813

> <r_epik_Ionization_Penalty_Neutral>
0.000964829

> <r_epik_State_Penalty>
0.0654373

> <r_epik_Charging_Adjusted_Penalty>
0.141419

> <i_epik_Tot_Q>
2

> <i_epik_Tot_abs_Q>
2

> <r_epik_Metal_State_Penalty>
0.0656439

> <b_epik_Metal_Only>
0

> <s_lp_Force_Field>
OPLS_2005

> <r_lp_Energy>
31.8581

> <b_lp_Chiralities_Consistent>
1

> <s_lp_Variant>
AV-unprocessed.smi:3303-14

> <Gold.Version>
5.8.1

> <Gold.Id.Protein>
6NUR|6NUR_protein|mol2

> <Gold.PLP.Fitness>
46.3750

> <Gold.PLP.PLP>
-32.8217

> <Gold.PLP.part.hbond>
-2.6666

> <Gold.PLP.part.metal>
0.0000

> <Gold.PLP.part.buried>
-1.9408

> <Gold.PLP.part.nonpolar>
-29.5387

> <Gold.PLP.part.repulsive>
0.5070

> <Gold.PLP.ligand.clash>
0.0000

> <Gold.PLP.ligand.torsion>
0.7068

> <Gold.PLP.Chemscore.Hbond>
3.9840

> <Gold.PLP.Chemscore.CHOScore>
1.0000

> <Gold.PLP.Chemscore.Metal>
0.0000

> <Gold.Chemscore.Hbonds>
donor molecule, donor type, donor heavy atom, donor atom, acceptor molecule, acceptor atom, score
      L1  H     4    45       P1  8028  2.00
      L1  H    10    44       P1  7948  1.86
      L1  C    17    43       P1  7921  1.00

> <Gold.PLP.Chemscore.Internal.Correction>
0.0149

> <Gold.Rescore>
     Score         DG    S(hbond)    S(metal)    S(lipo)     H(rot)  DE(clash)    DE(int)     intcor
     14.89     -18.64       1.95        0.00      86.87       1.37       1.59       2.16       ----

> <Gold.Chemscore.Fitness>
14.8922

> <Gold.Chemscore.DG>
-18.6402

> <Gold.Chemscore.ZeroCoef>
-5.4800

> <Gold.Chemscore.Hbond>
1.9506

> <Gold.Chemscore.Metal>
0.0000

> <Gold.Chemscore.Lipo>
86.8680

> <Gold.Chemscore.Internal_Hbond>
0.0000

> <Gold.Chemscore.DEClash>
1.5924

> <Gold.Chemscore.DEInternal>
2.1556

> <Gold.Chemscore.Rot>
1.3744

> <Gold.Chemscore.Internal.Correction>
   9.000000E+99

> <Gold.Chemscore.Hbonds>
donor molecule, donor type, donor heavy atom, donor atom, acceptor molecule, acceptor atom, score
      L1  H     4    45       P1  8028  1.00
      L1  H    10    44       P1  7948  0.89

> <Gold.Chemscore.Hbond.Weighted>
-6.5151

> <Gold.Chemscore.Metal.Weighted>
-0.0000

> <Gold.Chemscore.Lipo.Weighted>
-10.1636

> <Gold.Chemscore.Internal_Hbond.Weighted>
0.0000

> <Gold.Chemscore.DEClash.Weighted>
1.5924

> <Gold.Chemscore.DEInternal.Weighted>
2.1556

> <Gold.Chemscore.Rot.Weighted>
3.5185

> <Gold.Chemscore.Internal.Correction.Weighted>
   9.000000E+99

> <Gold.Protein.RotatedTorsions>
[ 6907 6896 6895 6894 ] final -169.18 input  -60.11 | X-H torsion
[ 7974 7965 7964 7962 ] final -152.86 input  175.53 | X-H torsion
[ 8008 7997 7996 7995 ] final  -60.26 input   59.86 | X-H torsion
[ 10167 10162 10161 10158 ] final   78.85 input  -65.29 | X-H torsion
[ 10718 10713 10712 10709 ] final -124.73 input   66.30 | X-H torsion
[ 10763 10752 10751 10750 ] final  -55.04 input  -60.55 | X-H torsion
[ 11005 11000 10999 10996 ] final -174.95 input  -57.11 | X-H torsion

> <Gold.Protein.ActiveResidues>
 VAL166  LYS551  ARG553  GLY616  TRP617  ASP618  TYR619  PRO620  LYS621  CYS622 
 ASP623  PHE694  ASN695  SER759  ASP760  ASP761  ALA762  ILE779  LEU786  VAL792 
 PHE793  MET794  SER795  GLU796  ALA797  LYS798  CYS799  TRP800  GLU811  SER814 

> <Gold.Protein.RotatedAtoms>
  151.4875  133.3532  159.2847 H   0  0  0  0  0  0  0  0  0  0  0  0  # atno 6907 bound_to 6896
  150.8856  134.8256  159.7268 H   0  0  0  0  0  0  0  0  0  0  0  0  # atno 6908 bound_to 6896
  152.4791  134.4778  159.9708 H   0  0  0  0  0  0  0  0  0  0  0  0  # atno 6909 bound_to 6896
  144.7771  140.4604  143.5865 H   0  0  0  0  0  0  0  0  0  0  0  0  # atno 7974 bound_to 7965
  154.4390  140.1043  156.6245 H   0  0  0  0  0  0  0  0  0  0  0  0  # atno 8008 bound_to 7997
  155.5671  140.3488  155.4487 H   0  0  0  0  0  0  0  0  0  0  0  0  # atno 8009 bound_to 7997
  156.0417  140.1283  157.0138 H   0  0  0  0  0  0  0  0  0  0  0  0  # atno 8010 bound_to 7997
  139.9665  144.5924  150.8024 H   0  0  0  0  0  0  0  0  0  0  0  0  # atno 10167 bound_to 10162
  156.1614  130.6604  151.0054 H   0  0  0  0  0  0  0  0  0  0  0  0  # atno 10718 bound_to 10713
  154.1845  135.6437  153.5043 H   0  0  0  0  0  0  0  0  0  0  0  0  # atno 10763 bound_to 10752
  153.0050  135.5414  154.6479 H   0  0  0  0  0  0  0  0  0  0  0  0  # atno 10764 bound_to 10752
  154.5852  135.2929  155.0665 H   0  0  0  0  0  0  0  0  0  0  0  0  # atno 10765 bound_to 10752
  140.4687  134.6185  157.4873 H   0  0  0  0  0  0  0  0  0  0  0  0  # atno 11005 bound_to 11000
  145.6155  139.1518  143.3052 LP  0  0  0  0  0  0  0  0  0  0  0  0  # atno 17320 bound_to 7965
  146.1957  140.6268  142.9125 LP  0  0  0  0  0  0  0  0  0  0  0  0  # atno 17321 bound_to 7965
  140.7536  143.3011  151.3078 LP  0  0  0  0  0  0  0  0  0  0  0  0  # atno 17342 bound_to 10162
  139.6513  144.0356  152.2628 LP  0  0  0  0  0  0  0  0  0  0  0  0  # atno 17343 bound_to 10162
  157.6735  131.0856  150.7554 LP  0  0  0  0  0  0  0  0  0  0  0  0  # atno 17370 bound_to 10713
  156.7616  130.4800  149.5436 LP  0  0  0  0  0  0  0  0  0  0  0  0  # atno 17371 bound_to 10713
  139.9899  134.7002  155.9708 LP  0  0  0  0  0  0  0  0  0  0  0  0  # atno 17394 bound_to 11000
  141.1587  133.6540  156.4246 LP  0  0  0  0  0  0  0  0  0  0  0  0  # atno 17395 bound_to 11000

$$$$
