AV-unprocessed.smi:1554|AV-procd|sdf|6246|dock1
  -GOLD-   22720 6433D 1   1.00000     0.00000
 Structure written by MMmdl.
 48 50  0  0  0  0  0  0  0  0  2 V2000
  152.6796  143.3364  161.4895 C   0  0  0  0  0  0  0  0  0  0  0  0
  152.1997  142.8912  160.1191 C   0  0  0  0  0  0  0  0  0  0  0  0
  152.6613  141.6624  159.5956 C   0  0  0  0  0  0  0  0  0  0  0  0
  152.2369  141.2105  158.3271 C   0  0  0  0  0  0  0  0  0  0  0  0
  152.5560  140.0581  157.6294 N   0  0  0  0  0  0  0  0  0  0  0  0
  151.8432  140.2114  156.5175 C   0  0  0  0  0  0  0  0  0  0  0  0
  151.0962  141.3276  156.4132 N   0  0  0  0  0  0  0  0  0  0  0  0
  150.2365  141.7106  155.3078 C   0  0  0  0  0  0  0  0  0  0  0  0
  149.2425  140.5965  154.9274 C   0  0  2  0  0  0  0  0  0  0  0  0
  149.7423  139.8841  153.8114 O   0  0  0  0  0  0  0  0  0  0  0  0
  147.8524  141.1613  154.5762 C   0  0  0  0  0  0  0  0  0  0  0  0
  147.4500  142.2740  155.4785 N   0  3  2  0  0  0  0  0  0  0  0  0
  147.5631  141.9443  156.9201 C   0  0  0  0  0  0  0  0  0  0  0  0
  146.3787  141.0802  157.3878 C   0  0  0  0  0  0  0  0  0  0  0  0
  145.1604  141.7596  157.1113 O   0  0  0  0  0  0  0  0  0  0  0  0
  144.9678  141.9903  155.7201 C   0  0  1  0  0  0  0  0  0  0  0  0
  143.6022  142.6605  155.5342 C   0  0  0  0  0  0  0  0  0  0  0  0
  146.1202  142.8679  155.1828 C   0  0  0  0  0  0  0  0  0  0  0  0
  151.3290  142.0273  157.5918 C   0  0  0  0  0  0  0  0  0  0  0  0
  150.8638  143.2526  158.1007 C   0  0  0  0  0  0  0  0  0  0  0  0
  151.2994  143.6900  159.3691 C   0  0  0  0  0  0  0  0  0  0  0  0
  150.7921  145.0145  159.9111 C   0  0  0  0  0  0  0  0  0  0  0  0
  153.3674  142.6113  161.9256 H   0  0  0  0  0  0  0  0  0  0  0  0
  151.8363  143.4486  162.1710 H   0  0  0  0  0  0  0  0  0  0  0  0
  153.2005  144.2916  161.4216 H   0  0  0  0  0  0  0  0  0  0  0  0
  153.3472  141.0540  160.1665 H   0  0  0  0  0  0  0  0  0  0  0  0
  151.8612  139.4667  155.7354 H   0  0  0  0  0  0  0  0  0  0  0  0
  149.6979  142.6137  155.5975 H   0  0  0  0  0  0  0  0  0  0  0  0
  150.8601  141.9793  154.4538 H   0  0  0  0  0  0  0  0  0  0  0  0
  149.1669  139.9022  155.7635 H   0  0  0  0  0  0  0  0  0  0  0  0
  149.7154  140.4481  153.0533 H   0  0  0  0  0  0  0  0  0  0  0  0
  147.8311  141.4966  153.5393 H   0  0  0  0  0  0  0  0  0  0  0  0
  147.1259  140.3499  154.6418 H   0  0  0  0  0  0  0  0  0  0  0  0
  148.5126  141.4511  157.1313 H   0  0  0  0  0  0  0  0  0  0  0  0
  147.5722  142.8773  157.4850 H   0  0  0  0  0  0  0  0  0  0  0  0
  146.3857  140.1016  156.9054 H   0  0  0  0  0  0  0  0  0  0  0  0
  146.4455  140.9044  158.4616 H   0  0  0  0  0  0  0  0  0  0  0  0
  144.9475  141.0319  155.1998 H   0  0  0  0  0  0  0  0  0  0  0  0
  143.3981  142.8492  154.4801 H   0  0  0  0  0  0  0  0  0  0  0  0
  143.5546  143.6144  156.0602 H   0  0  0  0  0  0  0  0  0  0  0  0
  142.8017  142.0284  155.9191 H   0  0  0  0  0  0  0  0  0  0  0  0
  146.0794  143.8474  155.6611 H   0  0  0  0  0  0  0  0  0  0  0  0
  145.9987  143.0483  154.1155 H   0  0  0  0  0  0  0  0  0  0  0  0
  150.1772  143.8503  157.5195 H   0  0  0  0  0  0  0  0  0  0  0  0
  150.1352  145.5113  159.1968 H   0  0  0  0  0  0  0  0  0  0  0  0
  151.6243  145.6865  160.1221 H   0  0  0  0  0  0  0  0  0  0  0  0
  150.2301  144.8588  160.8321 H   0  0  0  0  0  0  0  0  0  0  0  0
  148.1332  142.9993  155.3093 H   0  0  0  0  0  0  0  0  0  0  0  0
  1  2  1  0  0  0  0
  1 23  1  0  0  0  0
  1 24  1  0  0  0  0
  1 25  1  0  0  0  0
  2 21  1  0  0  0  0
  2  3  2  0  0  0  0
  3  4  1  0  0  0  0
  3 26  1  0  0  0  0
  4 19  2  0  0  0  0
  4  5  1  0  0  0  0
  5  6  2  0  0  0  0
  6  7  1  0  0  0  0
  6 27  1  0  0  0  0
  7  8  1  0  0  0  0
  7 19  1  0  0  0  0
  8  9  1  0  0  0  0
  8 28  1  0  0  0  0
  8 29  1  0  0  0  0
  9 10  1  0  0  0  0
  9 11  1  0  0  0  0
  9 30  1  0  0  0  0
 10 31  1  0  0  0  0
 11 12  1  0  0  0  0
 11 32  1  0  0  0  0
 11 33  1  0  0  0  0
 12 18  1  0  0  0  0
 12 13  1  0  0  0  0
 12 48  1  0  0  0  0
 13 14  1  0  0  0  0
 13 34  1  0  0  0  0
 13 35  1  0  0  0  0
 14 15  1  0  0  0  0
 14 36  1  0  0  0  0
 14 37  1  0  0  0  0
 15 16  1  0  0  0  0
 16 17  1  0  0  0  0
 16 18  1  0  0  0  0
 16 38  1  0  0  0  0
 17 39  1  0  0  0  0
 17 40  1  0  0  0  0
 17 41  1  0  0  0  0
 18 42  1  0  0  0  0
 18 43  1  0  0  0  0
 19 20  1  0  0  0  0
 20 21  2  0  0  0  0
 20 44  1  0  0  0  0
 21 22  1  0  0  0  0
 22 45  1  0  0  0  0
 22 46  1  0  0  0  0
 22 47  1  0  0  0  0
M  CHG  1  12   1
M  END
> <s_m_source_file>
AV-unprocessed.smi

> <i_m_source_file_index>
1554

> <i_lp_mmshare_version>
43012

> <i_f3d_flags>
0

> <s_epik_input>
W0NIM11jKFtjSF0xKWMoW0NIM10pW2NIXWMoYzEyKW4oW2NIXW4yKVtDSDJdW0NASF0oW09IXSlbQ0gyXU4zW0NIMl1bQ0gyXU9bQ0BASF0oW0NIM10pW0NIMl0z

> <s_epik_cmdline>
J2VwaWtfcHl0aG9uJywgJy1waCcsICc3LjAnLCAnLXRuJywgJzgnLCAnLW1hJywgJzIwMCcsICctbWV0YWxfYmluZGluZycsICctaW1hZScsICc8aW5maWxlLm1hZT4nLCAnLW9tYWUnLCAnPG91dGZpbGUubWFlPic=

> <r_epik_Ionization_Penalty>
0.695251

> <r_epik_Ionization_Penalty_Charging>
0.608065

> <r_epik_Ionization_Penalty_Neutral>
0.0871863

> <r_epik_State_Penalty>
0.731955

> <r_epik_Charging_Adjusted_Penalty>
1.34002

> <i_epik_Tot_Q>
1

> <i_epik_Tot_abs_Q>
1

> <r_epik_Metal_State_Penalty>
0.652186

> <b_epik_Metal_Only>
0

> <s_lp_Force_Field>
OPLS_2005

> <r_lp_Energy>
22.7175

> <b_lp_Chiralities_Consistent>
1

> <s_lp_Variant>
AV-unprocessed.smi:1554-7

> <Gold.Version>
5.8.1

> <Gold.Id.Protein>
6NUR|6NUR_protein|mol2

> <Gold.PLP.Fitness>
52.0142

> <Gold.PLP.PLP>
-42.6428

> <Gold.PLP.part.hbond>
-4.0000

> <Gold.PLP.part.metal>
0.0000

> <Gold.PLP.part.buried>
-5.6208

> <Gold.PLP.part.nonpolar>
-32.6725

> <Gold.PLP.part.repulsive>
0.0753

> <Gold.PLP.ligand.clash>
0.0000

> <Gold.PLP.ligand.torsion>
0.8010

> <Gold.PLP.Chemscore.Hbond>
3.6400

> <Gold.PLP.Chemscore.CHOScore>
0.0000

> <Gold.PLP.Chemscore.Metal>
0.0000

> <Gold.Chemscore.Hbonds>
donor molecule, donor type, donor heavy atom, donor atom, acceptor molecule, acceptor atom, score
      L1  H    10    31       P1  7957  0.64
      L1  H    12    48       P1  8028  2.00
      P1  H  7997  8010       L1     5  0.93

> <Gold.PLP.Chemscore.Internal.Correction>
0.0533

> <Gold.Rescore>
     Score         DG    S(hbond)    S(metal)    S(lipo)     H(rot)  DE(clash)    DE(int)     intcor
     18.62     -19.75       2.03        0.00     109.07       2.05       0.30       0.83       ----

> <Gold.Chemscore.Fitness>
18.6217

> <Gold.Chemscore.DG>
-19.7461

> <Gold.Chemscore.ZeroCoef>
-5.4800

> <Gold.Chemscore.Hbond>
2.0253

> <Gold.Chemscore.Metal>
0.0000

> <Gold.Chemscore.Lipo>
109.0700

> <Gold.Chemscore.Internal_Hbond>
0.0000

> <Gold.Chemscore.DEClash>
0.2969

> <Gold.Chemscore.DEInternal>
0.8276

> <Gold.Chemscore.Rot>
2.0546

> <Gold.Chemscore.Internal.Correction>
   9.000000E+99

> <Gold.Chemscore.Hbonds>
donor molecule, donor type, donor heavy atom, donor atom, acceptor molecule, acceptor atom, score
      L1  H    10    31       P1  7957  0.64
      L1  H    12    48       P1  8028  0.90
      P1  H  7997  8010       L1     5  0.19

> <Gold.Chemscore.Hbond.Weighted>
-6.7646

> <Gold.Chemscore.Metal.Weighted>
-0.0000

> <Gold.Chemscore.Lipo.Weighted>
-12.7612

> <Gold.Chemscore.Internal_Hbond.Weighted>
0.0000

> <Gold.Chemscore.DEClash.Weighted>
0.2969

> <Gold.Chemscore.DEInternal.Weighted>
0.8276

> <Gold.Chemscore.Rot.Weighted>
5.2597

> <Gold.Chemscore.Internal.Correction.Weighted>
   9.000000E+99

> <Gold.Protein.RotatedTorsions>
[ 6907 6896 6895 6894 ] final -150.39 input  -60.11 | X-H torsion
[ 7974 7965 7964 7962 ] final  151.76 input  175.53 | X-H torsion
[ 8008 7997 7996 7995 ] final   46.90 input   59.86 | X-H torsion
[ 10167 10162 10161 10158 ] final  -46.57 input  -65.29 | X-H torsion
[ 10718 10713 10712 10709 ] final -104.67 input   66.30 | X-H torsion
[ 10763 10752 10751 10750 ] final -118.38 input  -60.55 | X-H torsion
[ 11005 11000 10999 10996 ] final   76.33 input  -57.11 | X-H torsion

> <Gold.Protein.ActiveResidues>
 VAL166  LYS551  ARG553  GLY616  TRP617  ASP618  TYR619  PRO620  LYS621  CYS622 
 ASP623  PHE694  ASN695  SER759  ASP760  ASP761  ALA762  ILE779  LEU786  VAL792 
 PHE793  MET794  SER795  GLU796  ALA797  LYS798  CYS799  TRP800  GLU811  SER814 

> <Gold.Protein.RotatedAtoms>
  151.1978  133.4628  159.2595 H   0  0  0  0  0  0  0  0  0  0  0  0  # atno 6907 bound_to 6896
  151.1099  135.0021  159.8499 H   0  0  0  0  0  0  0  0  0  0  0  0  # atno 6908 bound_to 6896
  152.5449  134.1898  159.8722 H   0  0  0  0  0  0  0  0  0  0  0  0  # atno 6909 bound_to 6896
  144.8270  139.6579  143.6075 H   0  0  0  0  0  0  0  0  0  0  0  0  # atno 7974 bound_to 7965
  155.3602  140.3418  155.4240 H   0  0  0  0  0  0  0  0  0  0  0  0  # atno 8008 bound_to 7997
  156.1718  140.1634  156.8469 H   0  0  0  0  0  0  0  0  0  0  0  0  # atno 8009 bound_to 7997
  154.5241  140.0760  156.8208 H   0  0  0  0  0  0  0  0  0  0  0  0  # atno 8010 bound_to 7997
  140.6812  143.2825  151.3802 H   0  0  0  0  0  0  0  0  0  0  0  0  # atno 10167 bound_to 10162
  156.0314  130.5526  150.7429 H   0  0  0  0  0  0  0  0  0  0  0  0  # atno 10718 bound_to 10713
  154.8585  135.4276  154.2129 H   0  0  0  0  0  0  0  0  0  0  0  0  # atno 10763 bound_to 10752
  153.3151  135.6978  153.7086 H   0  0  0  0  0  0  0  0  0  0  0  0  # atno 10764 bound_to 10752
  153.6164  135.3510  155.2970 H   0  0  0  0  0  0  0  0  0  0  0  0  # atno 10765 bound_to 10752
  139.9303  134.7592  156.1382 H   0  0  0  0  0  0  0  0  0  0  0  0  # atno 11005 bound_to 11000
  146.2575  139.6334  142.9385 LP  0  0  0  0  0  0  0  0  0  0  0  0  # atno 17320 bound_to 7965
  145.4979  141.0438  143.2557 LP  0  0  0  0  0  0  0  0  0  0  0  0  # atno 17321 bound_to 7965
  139.6136  144.1049  152.2323 LP  0  0  0  0  0  0  0  0  0  0  0  0  # atno 17342 bound_to 10162
  140.0471  144.5962  150.7365 LP  0  0  0  0  0  0  0  0  0  0  0  0  # atno 17343 bound_to 10162
  157.4993  131.0917  151.0333 LP  0  0  0  0  0  0  0  0  0  0  0  0  # atno 17370 bound_to 10713
  157.0718  130.5867  149.5404 LP  0  0  0  0  0  0  0  0  0  0  0  0  # atno 17371 bound_to 10713
  141.0887  133.6723  156.2493 LP  0  0  0  0  0  0  0  0  0  0  0  0  # atno 17394 bound_to 11000
  140.6221  134.5351  157.5549 LP  0  0  0  0  0  0  0  0  0  0  0  0  # atno 17395 bound_to 11000

$$$$
