AV-unprocessed.smi:2572|AV-procd|sdf|10110|dock5
  -GOLD-   2272014123D 1   1.00000     0.00000
 Structure written by MMmdl.
 38 39  0  0  0  0  0  0  0  0  1 V2000
  147.5008  135.7848  161.3543 C   0  0  0  0  0  0  0  0  0  0  0  0
  147.9327  137.0328  160.8157 O   0  0  0  0  0  0  0  0  0  0  0  0
  148.8877  136.9854  159.8151 C   0  0  0  0  0  0  0  0  0  0  0  0
  148.5265  136.3879  158.5470 C   0  0  0  0  0  0  0  0  0  0  0  0
  149.4476  136.3376  157.5606 C   0  0  0  0  0  0  0  0  0  0  0  0
  150.7974  136.8718  157.7384 C   0  0  0  0  0  0  0  0  0  0  0  0
  151.6531  136.8455  156.8541 O   0  0  0  0  0  0  0  0  0  0  0  0
  151.0205  137.4043  158.9767 N   0  0  0  0  0  0  0  0  0  0  0  0
  152.3164  137.9970  159.3287 C   0  0  0  0  0  0  0  0  0  0  0  0
  152.5127  139.3842  158.6793 C   0  0  2  0  0  0  0  0  0  0  0  0
  152.7130  139.2130  157.2894 O   0  0  0  0  0  0  0  0  0  0  0  0
  153.7456  140.1105  159.2489 C   0  0  0  0  0  0  0  0  0  0  0  0
  153.4992  140.7483  160.6267 C   0  0  0  0  0  0  0  0  0  0  0  0
  152.9302  142.1497  160.5119 C   0  0  0  0  0  0  0  0  0  0  0  0
  152.5983  142.8775  161.6741 C   0  0  0  0  0  0  0  0  0  0  0  0
  152.0780  144.1822  161.5671 C   0  0  0  0  0  0  0  0  0  0  0  0
  151.8889  144.7636  160.2983 C   0  0  0  0  0  0  0  0  0  0  0  0
  152.2187  144.0396  159.1362 C   0  0  0  0  0  0  0  0  0  0  0  0
  152.7383  142.7346  159.2425 C   0  0  0  0  0  0  0  0  0  0  0  0
  150.0807  137.4592  159.9928 N   0  0  0  0  0  0  0  0  0  0  0  0
  146.7561  135.9706  162.1281 H   0  0  0  0  0  0  0  0  0  0  0  0
  148.3223  135.2363  161.8185 H   0  0  0  0  0  0  0  0  0  0  0  0
  147.0321  135.1550  160.5960 H   0  0  0  0  0  0  0  0  0  0  0  0
  147.5324  135.9913  158.4034 H   0  0  0  0  0  0  0  0  0  0  0  0
  149.1821  135.8915  156.6135 H   0  0  0  0  0  0  0  0  0  0  0  0
  152.3427  138.1019  160.4149 H   0  0  0  0  0  0  0  0  0  0  0  0
  153.1518  137.3337  159.0961 H   0  0  0  0  0  0  0  0  0  0  0  0
  151.6292  140.0036  158.8396 H   0  0  0  0  0  0  0  0  0  0  0  0
  151.9261  138.8494  156.9131 H   0  0  0  0  0  0  0  0  0  0  0  0
  154.5629  139.3945  159.3463 H   0  0  0  0  0  0  0  0  0  0  0  0
  154.0899  140.8688  158.5440 H   0  0  0  0  0  0  0  0  0  0  0  0
  152.8132  140.1358  161.2128 H   0  0  0  0  0  0  0  0  0  0  0  0
  154.4313  140.7888  161.1914 H   0  0  0  0  0  0  0  0  0  0  0  0
  152.7446  142.4384  162.6501 H   0  0  0  0  0  0  0  0  0  0  0  0
  151.8260  144.7374  162.4587 H   0  0  0  0  0  0  0  0  0  0  0  0
  151.4917  145.7648  160.2164 H   0  0  0  0  0  0  0  0  0  0  0  0
  152.0743  144.4852  158.1630 H   0  0  0  0  0  0  0  0  0  0  0  0
  152.9915  142.1851  158.3473 H   0  0  0  0  0  0  0  0  0  0  0  0
  1  2  1  0  0  0  0
  1 21  1  0  0  0  0
  1 22  1  0  0  0  0
  1 23  1  0  0  0  0
  2  3  1  0  0  0  0
  3 20  2  0  0  0  0
  3  4  1  0  0  0  0
  4  5  2  0  0  0  0
  4 24  1  0  0  0  0
  5  6  1  0  0  0  0
  5 25  1  0  0  0  0
  6  7  2  0  0  0  0
  6  8  1  0  0  0  0
  8  9  1  0  0  0  0
  8 20  1  0  0  0  0
  9 10  1  0  0  0  0
  9 26  1  0  0  0  0
  9 27  1  0  0  0  0
 10 11  1  0  0  0  0
 10 12  1  0  0  0  0
 10 28  1  0  0  0  0
 11 29  1  0  0  0  0
 12 13  1  0  0  0  0
 12 30  1  0  0  0  0
 12 31  1  0  0  0  0
 13 14  1  0  0  0  0
 13 32  1  0  0  0  0
 13 33  1  0  0  0  0
 14 19  1  0  0  0  0
 14 15  2  0  0  0  0
 15 16  1  0  0  0  0
 15 34  1  0  0  0  0
 16 17  2  0  0  0  0
 16 35  1  0  0  0  0
 17 18  1  0  0  0  0
 17 36  1  0  0  0  0
 18 19  2  0  0  0  0
 18 37  1  0  0  0  0
 19 38  1  0  0  0  0
M  END
> <s_m_source_file>
AV-unprocessed.smi

> <i_m_source_file_index>
2572

> <i_lp_mmshare_version>
43012

> <i_f3d_flags>
0

> <s_epik_input>
W0NIM11PYzFbY0hdW2NIXWMoPU8pbihuMSlbQ0gyXVtDQEhdKFtPSF0pW0NIMl1bQ0gyXWMyW2NIXVtjSF1bY0hdW2NIXVtjSF0y

> <s_epik_cmdline>
J2VwaWtfcHl0aG9uJywgJy1waCcsICc3LjAnLCAnLXRuJywgJzgnLCAnLW1hJywgJzIwMCcsICctbWV0YWxfYmluZGluZycsICctaW1hZScsICc8aW5maWxlLm1hZT4nLCAnLW9tYWUnLCAnPG91dGZpbGUubWFlPic=

> <r_lp_tautomer_probability>
1

> <r_epik_Ionization_Penalty>
8.48543e-06

> <r_epik_Ionization_Penalty_Charging>
6.90219e-06

> <r_epik_Ionization_Penalty_Neutral>
1.58323e-06

> <r_epik_State_Penalty>
-0

> <r_epik_Charging_Adjusted_Penalty>
6.90219e-06

> <i_epik_Tot_Q>
0

> <i_epik_Tot_abs_Q>
0

> <r_epik_Metal_State_Penalty>
-0

> <b_epik_Metal_Only>
0

> <s_lp_Force_Field>
OPLS_2005

> <r_lp_Energy>
29.9707

> <b_lp_Chiralities_Consistent>
1

> <s_lp_Variant>
AV-unprocessed.smi:2572-1

> <Gold.Version>
5.8.1

> <Gold.Id.Protein>
6NUR|6NUR_protein|mol2

> <Gold.PLP.Fitness>
49.1608

> <Gold.PLP.PLP>
-43.1504

> <Gold.PLP.part.hbond>
-4.0000

> <Gold.PLP.part.metal>
0.0000

> <Gold.PLP.part.buried>
-2.9898

> <Gold.PLP.part.nonpolar>
-35.5572

> <Gold.PLP.part.repulsive>
0.0000

> <Gold.PLP.ligand.clash>
0.0000

> <Gold.PLP.ligand.torsion>
0.6150

> <Gold.PLP.Chemscore.Hbond>
2.3913

> <Gold.PLP.Chemscore.CHOScore>
0.0000

> <Gold.PLP.Chemscore.Metal>
0.0000

> <Gold.Chemscore.Hbonds>
donor molecule, donor type, donor heavy atom, donor atom, acceptor molecule, acceptor atom, score
      P1  H  6931  6943       L1     2  0.56
      P1  H  6934  6947       L1     2  0.62
      P1  H  7997  8008       L1    11  0.96

> <Gold.PLP.Chemscore.Internal.Correction>
0.0667

> <Gold.Rescore>
     Score         DG    S(hbond)    S(metal)    S(lipo)     H(rot)  DE(clash)    DE(int)     intcor
     17.31     -18.10       1.81        0.00     111.43       2.52       0.03       0.76       ----

> <Gold.Chemscore.Fitness>
17.3056

> <Gold.Chemscore.DG>
-18.1003

> <Gold.Chemscore.ZeroCoef>
-5.4800

> <Gold.Chemscore.Hbond>
1.8077

> <Gold.Chemscore.Metal>
0.0000

> <Gold.Chemscore.Lipo>
111.4273

> <Gold.Chemscore.Internal_Hbond>
0.0000

> <Gold.Chemscore.DEClash>
0.0310

> <Gold.Chemscore.DEInternal>
0.7638

> <Gold.Chemscore.Rot>
2.5212

> <Gold.Chemscore.Internal.Correction>
   9.000000E+99

> <Gold.Chemscore.Hbonds>
donor molecule, donor type, donor heavy atom, donor atom, acceptor molecule, acceptor atom, score
      P1  H  6931  6943       L1     2  0.04
      P1  H  6934  6947       L1     2  0.40
      P1  H  7997  8008       L1    11  0.85

> <Gold.Chemscore.Hbond.Weighted>
-6.0376

> <Gold.Chemscore.Metal.Weighted>
-0.0000

> <Gold.Chemscore.Lipo.Weighted>
-13.0370

> <Gold.Chemscore.Internal_Hbond.Weighted>
0.0000

> <Gold.Chemscore.DEClash.Weighted>
0.0310

> <Gold.Chemscore.DEInternal.Weighted>
0.7638

> <Gold.Chemscore.Rot.Weighted>
6.4543

> <Gold.Chemscore.Internal.Correction.Weighted>
   9.000000E+99

> <Gold.Protein.RotatedTorsions>
[ 6907 6896 6895 6894 ] final   25.21 input  -60.11 | X-H torsion
[ 7974 7965 7964 7962 ] final  -33.10 input  175.53 | X-H torsion
[ 8008 7997 7996 7995 ] final  -46.97 input   59.86 | X-H torsion
[ 10167 10162 10161 10158 ] final  -61.78 input  -65.29 | X-H torsion
[ 10718 10713 10712 10709 ] final  125.56 input   66.30 | X-H torsion
[ 10763 10752 10751 10750 ] final -137.40 input  -60.55 | X-H torsion
[ 11005 11000 10999 10996 ] final   -8.58 input  -57.11 | X-H torsion

> <Gold.Protein.ActiveResidues>
 VAL166  LYS551  ARG553  GLY616  TRP617  ASP618  TYR619  PRO620  LYS621  CYS622 
 ASP623  PHE694  ASN695  SER759  ASP760  ASP761  ALA762  ILE779  LEU786  VAL792 
 PHE793  MET794  SER795  GLU796  ALA797  LYS798  CYS799  TRP800  GLU811  SER814 

> <Gold.Protein.RotatedAtoms>
  151.9691  135.0085  160.0551 H   0  0  0  0  0  0  0  0  0  0  0  0  # atno 6907 bound_to 6896
  152.1799  133.4695  159.4961 H   0  0  0  0  0  0  0  0  0  0  0  0  # atno 6908 bound_to 6896
  150.6915  134.1764  159.4275 H   0  0  0  0  0  0  0  0  0  0  0  0  # atno 6909 bound_to 6896
  146.0937  140.5875  142.8852 H   0  0  0  0  0  0  0  0  0  0  0  0  # atno 7974 bound_to 7965
  154.4012  140.1358  156.4099 H   0  0  0  0  0  0  0  0  0  0  0  0  # atno 8008 bound_to 7997
  155.7743  140.3483  155.5243 H   0  0  0  0  0  0  0  0  0  0  0  0  # atno 8009 bound_to 7997
  155.8736  140.0976  157.1524 H   0  0  0  0  0  0  0  0  0  0  0  0  # atno 8010 bound_to 7997
  140.5983  143.2355  151.5987 H   0  0  0  0  0  0  0  0  0  0  0  0  # atno 10167 bound_to 10162
  157.5493  131.1094  150.8729 H   0  0  0  0  0  0  0  0  0  0  0  0  # atno 10718 bound_to 10713
  154.8662  135.3643  154.5217 H   0  0  0  0  0  0  0  0  0  0  0  0  # atno 10763 bound_to 10752
  153.5847  135.7017  153.5453 H   0  0  0  0  0  0  0  0  0  0  0  0  # atno 10764 bound_to 10752
  153.3426  135.4094  155.1546 H   0  0  0  0  0  0  0  0  0  0  0  0  # atno 10765 bound_to 10752
  140.7250  133.8797  155.8849 H   0  0  0  0  0  0  0  0  0  0  0  0  # atno 11005 bound_to 11000
  144.7379  140.4861  143.6890 LP  0  0  0  0  0  0  0  0  0  0  0  0  # atno 17320 bound_to 7965
  145.5989  139.1502  143.3140 LP  0  0  0  0  0  0  0  0  0  0  0  0  # atno 17321 bound_to 7965
  139.5273  144.3021  152.1065 LP  0  0  0  0  0  0  0  0  0  0  0  0  # atno 17342 bound_to 10162
  140.2197  144.4479  150.6348 LP  0  0  0  0  0  0  0  0  0  0  0  0  # atno 17343 bound_to 10162
  156.9259  130.5332  149.5279 LP  0  0  0  0  0  0  0  0  0  0  0  0  # atno 17370 bound_to 10713
  156.0563  130.5623  150.9097 LP  0  0  0  0  0  0  0  0  0  0  0  0  # atno 17371 bound_to 10713
  140.9971  134.1201  157.4353 LP  0  0  0  0  0  0  0  0  0  0  0  0  # atno 17394 bound_to 11000
  139.8839  135.0057  156.6334 LP  0  0  0  0  0  0  0  0  0  0  0  0  # atno 17395 bound_to 11000

$$$$
