AV-unprocessed.smi:1690|AV-procd|sdf|6773|dock4
  -GOLD-   22720 7533D 1   1.00000     0.00000
 Structure written by MMmdl.
 37 38  0  0  0  0  0  0  0  0  1 V2000
  148.2506  141.3959  154.2066 C   0  0  0  0  0  0  0  0  0  0  0  0
  148.5149  139.8832  154.2086 C   0  0  0  0  0  0  0  0  0  0  0  0
  147.2650  139.0535  154.5372 C   0  0  0  0  0  0  0  0  0  0  0  0
  149.6762  139.5150  155.0770 C   0  0  0  0  0  0  0  0  0  0  0  0
  149.7232  139.7527  156.3912 N   0  0  0  0  0  0  0  0  0  0  0  0
  150.9062  139.2973  156.9829 C   0  0  0  0  0  0  0  0  0  0  0  0
  151.1171  139.4636  158.4606 C   0  0  0  0  0  0  0  0  0  0  0  0
  152.2078  140.5025  158.7326 C   0  0  0  0  0  0  0  0  0  0  0  0
  153.3942  140.1932  158.6229 O   0  0  0  0  0  0  0  0  0  0  0  0
  151.7920  141.7315  159.0775 N   0  0  0  0  0  0  0  0  0  0  0  0
  152.6596  142.8622  159.3933 C   0  0  0  0  0  0  0  0  0  0  0  0
  152.3322  143.4242  160.7906 C   0  0  0  0  0  0  0  0  0  0  0  0
  152.1554  144.9336  160.6123 C   0  0  0  0  0  0  0  0  0  0  0  0
  151.6736  145.0927  159.1738 C   0  0  0  0  0  0  0  0  0  0  0  0
  152.4474  144.0232  158.4029 C   0  0  0  0  0  0  0  0  0  0  0  0
  151.7707  138.7208  156.0856 C   0  0  0  0  0  0  0  0  0  0  0  0
  151.1218  138.7154  154.4688 S   0  0  0  0  0  0  0  0  0  0  0  0
  149.1357  141.9480  153.8887 H   0  0  0  0  0  0  0  0  0  0  0  0
  147.9744  141.7518  155.1995 H   0  0  0  0  0  0  0  0  0  0  0  0
  147.4391  141.6520  153.5250 H   0  0  0  0  0  0  0  0  0  0  0  0
  148.7988  139.6199  153.1889 H   0  0  0  0  0  0  0  0  0  0  0  0
  147.4682  137.9860  154.4461 H   0  0  0  0  0  0  0  0  0  0  0  0
  146.4451  139.2929  153.8599 H   0  0  0  0  0  0  0  0  0  0  0  0
  146.9203  139.2414  155.5546 H   0  0  0  0  0  0  0  0  0  0  0  0
  150.1910  139.7749  158.9457 H   0  0  0  0  0  0  0  0  0  0  0  0
  151.4039  138.5183  158.9232 H   0  0  0  0  0  0  0  0  0  0  0  0
  150.7966  141.8910  159.1401 H   0  0  0  0  0  0  0  0  0  0  0  0
  153.7041  142.5453  159.3659 H   0  0  0  0  0  0  0  0  0  0  0  0
  151.4015  142.9986  161.1701 H   0  0  0  0  0  0  0  0  0  0  0  0
  153.1100  143.1916  161.5186 H   0  0  0  0  0  0  0  0  0  0  0  0
  151.4644  145.3635  161.3380 H   0  0  0  0  0  0  0  0  0  0  0  0
  153.1177  145.4331  160.7325 H   0  0  0  0  0  0  0  0  0  0  0  0
  150.6041  144.8849  159.1185 H   0  0  0  0  0  0  0  0  0  0  0  0
  151.8402  146.0966  158.7822 H   0  0  0  0  0  0  0  0  0  0  0  0
  153.4183  144.4254  158.1100 H   0  0  0  0  0  0  0  0  0  0  0  0
  151.9357  143.7265  157.4862 H   0  0  0  0  0  0  0  0  0  0  0  0
  152.7434  138.2933  156.2792 H   0  0  0  0  0  0  0  0  0  0  0  0
  1  2  1  0  0  0  0
  1 18  1  0  0  0  0
  1 19  1  0  0  0  0
  1 20  1  0  0  0  0
  2  3  1  0  0  0  0
  2  4  1  0  0  0  0
  2 21  1  0  0  0  0
  3 22  1  0  0  0  0
  3 23  1  0  0  0  0
  3 24  1  0  0  0  0
  4 17  1  0  0  0  0
  4  5  2  0  0  0  0
  5  6  1  0  0  0  0
  6  7  1  0  0  0  0
  6 16  2  0  0  0  0
  7  8  1  0  0  0  0
  7 25  1  0  0  0  0
  7 26  1  0  0  0  0
  8  9  2  0  0  0  0
  8 10  1  0  0  0  0
 10 11  1  0  0  0  0
 10 27  1  0  0  0  0
 11 15  1  0  0  0  0
 11 12  1  0  0  0  0
 11 28  1  0  0  0  0
 12 13  1  0  0  0  0
 12 29  1  0  0  0  0
 12 30  1  0  0  0  0
 13 14  1  0  0  0  0
 13 31  1  0  0  0  0
 13 32  1  0  0  0  0
 14 15  1  0  0  0  0
 14 33  1  0  0  0  0
 14 34  1  0  0  0  0
 15 35  1  0  0  0  0
 15 36  1  0  0  0  0
 16 17  1  0  0  0  0
 16 37  1  0  0  0  0
M  END
> <s_m_source_file>
AV-unprocessed.smi

> <i_m_source_file_index>
1690

> <i_lp_mmshare_version>
43012

> <i_f3d_flags>
0

> <s_epik_input>
W0NIM11bQ0hdKFtDSDNdKWMxbmMoW2NIXXMxKVtDSDJdQyg9TylbTkhdW0NIXTJbQ0gyXVtDSDJdW0NIMl1bQ0gyXTI=

> <s_epik_cmdline>
J2VwaWtfcHl0aG9uJywgJy1waCcsICc3LjAnLCAnLXRuJywgJzgnLCAnLW1hJywgJzIwMCcsICctbWV0YWxfYmluZGluZycsICctaW1hZScsICc8aW5maWxlLm1hZT4nLCAnLW9tYWUnLCAnPG91dGZpbGUubWFlPic=

> <r_lp_tautomer_probability>
1

> <r_epik_Ionization_Penalty>
4.81312e-05

> <r_epik_Ionization_Penalty_Charging>
0

> <r_epik_Ionization_Penalty_Neutral>
4.81312e-05

> <r_epik_State_Penalty>
-0

> <r_epik_Charging_Adjusted_Penalty>
0

> <i_epik_Tot_Q>
0

> <i_epik_Tot_abs_Q>
0

> <r_epik_Metal_State_Penalty>
-0

> <b_epik_Metal_Only>
0

> <s_lp_Force_Field>
OPLS_2005

> <r_lp_Energy>
9.48899

> <b_lp_Chiralities_Consistent>
1

> <s_lp_Variant>
AV-unprocessed.smi:1690-1

> <Gold.Version>
5.8.1

> <Gold.Id.Protein>
6NUR|6NUR_protein|mol2

> <Gold.PLP.Fitness>
39.5697

> <Gold.PLP.PLP>
-37.5173

> <Gold.PLP.part.hbond>
-1.0000

> <Gold.PLP.part.metal>
0.0000

> <Gold.PLP.part.buried>
-2.4957

> <Gold.PLP.part.nonpolar>
-33.1772

> <Gold.PLP.part.repulsive>
0.1139

> <Gold.PLP.ligand.clash>
0.0000

> <Gold.PLP.ligand.torsion>
0.4285

> <Gold.PLP.Chemscore.Hbond>
0.9440

> <Gold.PLP.Chemscore.CHOScore>
0.0000

> <Gold.PLP.Chemscore.Metal>
0.0000

> <Gold.Chemscore.Hbonds>
donor molecule, donor type, donor heavy atom, donor atom, acceptor molecule, acceptor atom, score
      P1  H  7997  8010       L1     9  0.94

> <Gold.PLP.Chemscore.Internal.Correction>
0.0774

> <Gold.Rescore>
     Score         DG    S(hbond)    S(metal)    S(lipo)     H(rot)  DE(clash)    DE(int)     intcor
     17.38     -17.85       0.97        0.00     107.58       1.35       0.03       0.44       ----

> <Gold.Chemscore.Fitness>
17.3799

> <Gold.Chemscore.DG>
-17.8508

> <Gold.Chemscore.ZeroCoef>
-5.4800

> <Gold.Chemscore.Hbond>
0.9693

> <Gold.Chemscore.Metal>
0.0000

> <Gold.Chemscore.Lipo>
107.5783

> <Gold.Chemscore.Internal_Hbond>
0.0000

> <Gold.Chemscore.DEClash>
0.0343

> <Gold.Chemscore.DEInternal>
0.4366

> <Gold.Chemscore.Rot>
1.3489

> <Gold.Chemscore.Internal.Correction>
   9.000000E+99

> <Gold.Chemscore.Hbonds>
donor molecule, donor type, donor heavy atom, donor atom, acceptor molecule, acceptor atom, score
      P1  H  7997  8010       L1     9  0.89

> <Gold.Chemscore.Hbond.Weighted>
-3.2373

> <Gold.Chemscore.Metal.Weighted>
-0.0000

> <Gold.Chemscore.Lipo.Weighted>
-12.5867

> <Gold.Chemscore.Internal_Hbond.Weighted>
0.0000

> <Gold.Chemscore.DEClash.Weighted>
0.0343

> <Gold.Chemscore.DEInternal.Weighted>
0.4366

> <Gold.Chemscore.Rot.Weighted>
3.4532

> <Gold.Chemscore.Internal.Correction.Weighted>
   9.000000E+99

> <Gold.Protein.RotatedTorsions>
[ 6907 6896 6895 6894 ] final  128.49 input  -60.11 | X-H torsion
[ 7974 7965 7964 7962 ] final  -43.18 input  175.53 | X-H torsion
[ 8008 7997 7996 7995 ] final   23.55 input   59.86 | X-H torsion
[ 10167 10162 10161 10158 ] final   95.76 input  -65.29 | X-H torsion
[ 10718 10713 10712 10709 ] final  145.18 input   66.30 | X-H torsion
[ 10763 10752 10751 10750 ] final  -34.70 input  -60.55 | X-H torsion
[ 11005 11000 10999 10996 ] final  -59.86 input  -57.11 | X-H torsion

> <Gold.Protein.ActiveResidues>
 VAL166  LYS551  ARG553  GLY616  TRP617  ASP618  TYR619  PRO620  LYS621  CYS622 
 ASP623  PHE694  ASN695  SER759  ASP760  ASP761  ALA762  ILE779  LEU786  VAL792 
 PHE793  MET794  SER795  GLU796  ALA797  LYS798  CYS799  TRP800  GLU811  SER814 

> <Gold.Protein.RotatedAtoms>
  152.3714  133.6424  159.6089 H   0  0  0  0  0  0  0  0  0  0  0  0  # atno 6907 bound_to 6896
  150.7671  133.9264  159.3422 H   0  0  0  0  0  0  0  0  0  0  0  0  # atno 6908 bound_to 6896
  151.7086  135.0918  160.0315 H   0  0  0  0  0  0  0  0  0  0  0  0  # atno 6909 bound_to 6896
  146.0043  140.7038  142.9255 H   0  0  0  0  0  0  0  0  0  0  0  0  # atno 7974 bound_to 7965
  154.9826  140.3104  155.4940 H   0  0  0  0  0  0  0  0  0  0  0  0  # atno 8008 bound_to 7997
  156.2951  140.2264  156.4866 H   0  0  0  0  0  0  0  0  0  0  0  0  # atno 8009 bound_to 7997
  154.7775  140.0448  157.1089 H   0  0  0  0  0  0  0  0  0  0  0  0  # atno 8010 bound_to 7997
  139.7958  144.6834  150.9831 H   0  0  0  0  0  0  0  0  0  0  0  0  # atno 10167 bound_to 10162
  157.3484  131.0947  151.1022 H   0  0  0  0  0  0  0  0  0  0  0  0  # atno 10718 bound_to 10713
  153.8510  135.6849  153.4792 H   0  0  0  0  0  0  0  0  0  0  0  0  # atno 10763 bound_to 10752
  153.1397  135.4662  154.9475 H   0  0  0  0  0  0  0  0  0  0  0  0  # atno 10764 bound_to 10752
  154.7802  135.3266  154.7954 H   0  0  0  0  0  0  0  0  0  0  0  0  # atno 10765 bound_to 10752
  141.1265  133.6618  156.5136 H   0  0  0  0  0  0  0  0  0  0  0  0  # atno 11005 bound_to 11000
  144.6930  140.3288  143.7219 LP  0  0  0  0  0  0  0  0  0  0  0  0  # atno 17320 bound_to 7965
  145.7439  139.1772  143.2360 LP  0  0  0  0  0  0  0  0  0  0  0  0  # atno 17321 bound_to 7965
  140.7820  143.4333  151.0662 LP  0  0  0  0  0  0  0  0  0  0  0  0  # atno 17342 bound_to 10162
  139.8007  143.8087  152.3162 LP  0  0  0  0  0  0  0  0  0  0  0  0  # atno 17343 bound_to 10162
  157.2207  130.6480  149.5810 LP  0  0  0  0  0  0  0  0  0  0  0  0  # atno 17370 bound_to 10713
  155.9718  130.4630  150.6166 LP  0  0  0  0  0  0  0  0  0  0  0  0  # atno 17371 bound_to 10713
  140.4349  134.7068  157.4961 LP  0  0  0  0  0  0  0  0  0  0  0  0  # atno 17394 bound_to 11000
  140.0269  134.6464  155.9161 LP  0  0  0  0  0  0  0  0  0  0  0  0  # atno 17395 bound_to 11000

$$$$
