AV-unprocessed.smi:2237|AV-procd|sdf|9052|dock8
  -GOLD-   2272012253D 1   1.00000     0.00000
 Structure written by MMmdl.
 54 56  0  0  0  0  0  0  0  0  2 V2000
  153.5081  140.9822  160.0666 C   0  0  0  0  0  0  0  0  0  0  0  0
  152.8631  142.1990  159.4367 C   0  0  0  0  0  0  0  0  0  0  0  0
  153.1517  143.4959  159.9048 C   0  0  0  0  0  0  0  0  0  0  0  0
  152.5196  144.5834  159.2758 C   0  0  0  0  0  0  0  0  0  0  0  0
  151.6309  144.3310  158.2130 C   0  0  0  0  0  0  0  0  0  0  0  0
  151.3947  142.9986  157.8058 C   0  0  0  0  0  0  0  0  0  0  0  0
  150.4850  142.8512  156.7251 N   0  0  0  0  0  0  0  0  0  0  0  0
  150.1559  141.7275  156.0636 C   0  0  0  0  0  0  0  0  0  0  0  0
  150.5886  140.6010  156.3093 O   0  0  0  0  0  0  0  0  0  0  0  0
  149.2767  141.9813  155.0830 N   0  0  0  0  0  0  0  0  0  0  0  0
  148.7230  140.9826  154.1731 C   0  0  2  0  0  0  0  0  0  0  0  0
  147.4384  141.5186  153.5288 C   0  0  0  0  0  0  0  0  0  0  0  0
  146.7734  140.4632  152.6282 C   0  0  0  0  0  0  0  0  0  0  0  0
  146.4854  139.2014  153.3713 N   0  3  1  0  0  0  0  0  0  0  0  0
  145.7344  138.1590  152.5975 C   0  0  0  0  0  0  0  0  0  0  0  0
  145.3081  136.9284  153.4347 C   0  0  0  0  0  0  0  0  0  0  0  0
  144.6355  135.8499  152.5676 C   0  0  0  0  0  0  0  0  0  0  0  0
  145.5479  135.4105  151.5148 N   0  0  0  0  0  0  0  0  0  0  0  0
  144.9203  134.3449  150.7460 C   0  0  0  0  0  0  0  0  0  0  0  0
  145.8519  136.5319  150.6293 C   0  0  0  0  0  0  0  0  0  0  0  0
  146.5784  137.6400  151.4106 C   0  0  0  0  0  0  0  0  0  0  0  0
  147.7328  138.6588  153.9831 C   0  0  0  0  0  0  0  0  0  0  0  0
  148.4029  139.6778  154.9183 C   0  0  0  0  0  0  0  0  0  0  0  0
  152.0093  141.9565  158.4188 N   0  0  0  0  0  0  0  0  0  0  0  0
  154.3361  141.2670  160.7163 H   0  0  0  0  0  0  0  0  0  0  0  0
  153.8960  140.3131  159.2978 H   0  0  0  0  0  0  0  0  0  0  0  0
  152.7775  140.4347  160.6625 H   0  0  0  0  0  0  0  0  0  0  0  0
  153.8380  143.6559  160.7233 H   0  0  0  0  0  0  0  0  0  0  0  0
  152.7122  145.5947  159.6022 H   0  0  0  0  0  0  0  0  0  0  0  0
  151.1381  145.1560  157.7191 H   0  0  0  0  0  0  0  0  0  0  0  0
  150.0388  143.7020  156.4163 H   0  0  0  0  0  0  0  0  0  0  0  0
  148.9728  142.9354  154.9534 H   0  0  0  0  0  0  0  0  0  0  0  0
  149.4461  140.7767  153.3810 H   0  0  0  0  0  0  0  0  0  0  0  0
  146.7343  141.8241  154.3044 H   0  0  0  0  0  0  0  0  0  0  0  0
  147.6596  142.4125  152.9441 H   0  0  0  0  0  0  0  0  0  0  0  0
  145.8556  140.9113  152.2503 H   0  0  0  0  0  0  0  0  0  0  0  0
  147.4067  140.2450  151.7667 H   0  0  0  0  0  0  0  0  0  0  0  0
  144.8234  138.6182  152.2095 H   0  0  0  0  0  0  0  0  0  0  0  0
  146.1737  136.4969  153.9398 H   0  0  0  0  0  0  0  0  0  0  0  0
  144.5972  137.2159  154.2096 H   0  0  0  0  0  0  0  0  0  0  0  0
  144.3662  134.9981  153.1938 H   0  0  0  0  0  0  0  0  0  0  0  0
  143.7105  136.2329  152.1330 H   0  0  0  0  0  0  0  0  0  0  0  0
  145.5901  133.9949  149.9598 H   0  0  0  0  0  0  0  0  0  0  0  0
  143.9929  134.6810  150.2798 H   0  0  0  0  0  0  0  0  0  0  0  0
  144.6910  133.4937  151.3882 H   0  0  0  0  0  0  0  0  0  0  0  0
  146.4885  136.1876  149.8131 H   0  0  0  0  0  0  0  0  0  0  0  0
  144.9364  136.9208  150.1799 H   0  0  0  0  0  0  0  0  0  0  0  0
  146.8156  138.4403  150.7119 H   0  0  0  0  0  0  0  0  0  0  0  0
  147.5341  137.2593  151.7749 H   0  0  0  0  0  0  0  0  0  0  0  0
  147.5276  137.7587  154.5590 H   0  0  0  0  0  0  0  0  0  0  0  0
  148.4277  138.3692  153.1930 H   0  0  0  0  0  0  0  0  0  0  0  0
  149.3158  139.2469  155.3315 H   0  0  0  0  0  0  0  0  0  0  0  0
  147.7463  139.8817  155.7656 H   0  0  0  0  0  0  0  0  0  0  0  0
  145.8792  139.4686  154.1338 H   0  0  0  0  0  0  0  0  0  0  0  0
  1  2  1  0  0  0  0
  1 25  1  0  0  0  0
  1 26  1  0  0  0  0
  1 27  1  0  0  0  0
  2 24  1  0  0  0  0
  2  3  2  0  0  0  0
  3  4  1  0  0  0  0
  3 28  1  0  0  0  0
  4  5  2  0  0  0  0
  4 29  1  0  0  0  0
  5  6  1  0  0  0  0
  5 30  1  0  0  0  0
  6  7  1  0  0  0  0
  6 24  2  0  0  0  0
  7  8  1  0  0  0  0
  7 31  1  0  0  0  0
  8  9  2  0  0  0  0
  8 10  1  0  0  0  0
 10 11  1  0  0  0  0
 10 32  1  0  0  0  0
 11 23  1  0  0  0  0
 11 12  1  0  0  0  0
 11 33  1  0  0  0  0
 12 13  1  0  0  0  0
 12 34  1  0  0  0  0
 12 35  1  0  0  0  0
 13 14  1  0  0  0  0
 13 36  1  0  0  0  0
 13 37  1  0  0  0  0
 14 15  1  0  0  0  0
 14 22  1  0  0  0  0
 14 54  1  0  0  0  0
 15 21  1  0  0  0  0
 15 16  1  0  0  0  0
 15 38  1  0  0  0  0
 16 17  1  0  0  0  0
 16 39  1  0  0  0  0
 16 40  1  0  0  0  0
 17 18  1  0  0  0  0
 17 41  1  0  0  0  0
 17 42  1  0  0  0  0
 18 19  1  0  0  0  0
 18 20  1  0  0  0  0
 19 43  1  0  0  0  0
 19 44  1  0  0  0  0
 19 45  1  0  0  0  0
 20 21  1  0  0  0  0
 20 46  1  0  0  0  0
 20 47  1  0  0  0  0
 21 48  1  0  0  0  0
 21 49  1  0  0  0  0
 22 23  1  0  0  0  0
 22 50  1  0  0  0  0
 22 51  1  0  0  0  0
 23 52  1  0  0  0  0
 23 53  1  0  0  0  0
M  CHG  1  14   1
M  END
> <s_m_source_file>
AV-unprocessed.smi

> <i_m_source_file_index>
2237

> <i_lp_mmshare_version>
43012

> <i_f3d_flags>
0

> <s_epik_input>
W0NIM11jMVtjSF1bY0hdW2NIXWMobjEpW05IXUMoPU8pW05IXVtDSF0yW0NIMl1bQ0gyXU4oW0NIMl1bQ0gyXTIpW0NIXTNbQ0gyXVtDSDJdTihbQ0gzXSlbQ0gyXVtDSDJdMw==

> <s_epik_cmdline>
J2VwaWtfcHl0aG9uJywgJy1waCcsICc3LjAnLCAnLXRuJywgJzgnLCAnLW1hJywgJzIwMCcsICctbWV0YWxfYmluZGluZycsICctaW1hZScsICc8aW5maWxlLm1hZT4nLCAnLW9tYWUnLCAnPG91dGZpbGUubWFlPic=

> <r_epik_Ionization_Penalty>
1.37251

> <r_epik_Ionization_Penalty_Charging>
0.00081195

> <r_epik_Ionization_Penalty_Neutral>
1.3717

> <r_epik_State_Penalty>
1.55149

> <r_epik_Charging_Adjusted_Penalty>
1.5523

> <i_epik_Tot_Q>
1

> <i_epik_Tot_abs_Q>
1

> <r_epik_Metal_State_Penalty>
1.55149

> <b_epik_Metal_Only>
0

> <s_lp_Force_Field>
OPLS_2005

> <r_lp_Energy>
32.6589

> <b_lp_Chiralities_Consistent>
1

> <s_lp_Variant>
AV-unprocessed.smi:2237-7

> <Gold.Version>
5.8.1

> <Gold.Id.Protein>
6NUR|6NUR_protein|mol2

> <Gold.PLP.Fitness>
48.9114

> <Gold.PLP.PLP>
-43.5492

> <Gold.PLP.part.hbond>
-2.4348

> <Gold.PLP.part.metal>
0.0000

> <Gold.PLP.part.buried>
1.1207

> <Gold.PLP.part.nonpolar>
-42.8519

> <Gold.PLP.part.repulsive>
0.4570

> <Gold.PLP.ligand.clash>
0.0000

> <Gold.PLP.ligand.torsion>
0.2989

> <Gold.PLP.Chemscore.Hbond>
1.9760

> <Gold.PLP.Chemscore.CHOScore>
0.0000

> <Gold.PLP.Chemscore.Metal>
0.0000

> <Gold.Chemscore.Hbonds>
donor molecule, donor type, donor heavy atom, donor atom, acceptor molecule, acceptor atom, score
      L1  H     7    31       P1  8028  1.00
      L1  H    10    32       P1  8028  0.98

> <Gold.PLP.Chemscore.Internal.Correction>
0.0320

> <Gold.Rescore>
     Score         DG    S(hbond)    S(metal)    S(lipo)     H(rot)  DE(clash)    DE(int)     intcor
     19.17     -24.01       1.94        0.00     129.39       1.21       1.91       2.93       ----

> <Gold.Chemscore.Fitness>
19.1674

> <Gold.Chemscore.DG>
-24.0080

> <Gold.Chemscore.ZeroCoef>
-5.4800

> <Gold.Chemscore.Hbond>
1.9432

> <Gold.Chemscore.Metal>
0.0000

> <Gold.Chemscore.Lipo>
129.3884

> <Gold.Chemscore.Internal_Hbond>
0.0000

> <Gold.Chemscore.DEClash>
1.9091

> <Gold.Chemscore.DEInternal>
2.9316

> <Gold.Chemscore.Rot>
1.2113

> <Gold.Chemscore.Internal.Correction>
   9.000000E+99

> <Gold.Chemscore.Hbonds>
donor molecule, donor type, donor heavy atom, donor atom, acceptor molecule, acceptor atom, score
      L1  H     7    31       P1  8028  1.00
      L1  H    10    32       P1  8028  0.93

> <Gold.Chemscore.Hbond.Weighted>
-6.4904

> <Gold.Chemscore.Metal.Weighted>
-0.0000

> <Gold.Chemscore.Lipo.Weighted>
-15.1384

> <Gold.Chemscore.Internal_Hbond.Weighted>
0.0000

> <Gold.Chemscore.DEClash.Weighted>
1.9091

> <Gold.Chemscore.DEInternal.Weighted>
2.9316

> <Gold.Chemscore.Rot.Weighted>
3.1009

> <Gold.Chemscore.Internal.Correction.Weighted>
   9.000000E+99

> <Gold.Protein.RotatedTorsions>
[ 6907 6896 6895 6894 ] final   79.55 input  -60.11 | X-H torsion
[ 7974 7965 7964 7962 ] final  -16.68 input  175.53 | X-H torsion
[ 8008 7997 7996 7995 ] final  -38.45 input   59.86 | X-H torsion
[ 10167 10162 10161 10158 ] final -174.28 input  -65.29 | X-H torsion
[ 10718 10713 10712 10709 ] final -153.80 input   66.30 | X-H torsion
[ 10763 10752 10751 10750 ] final  176.41 input  -60.55 | X-H torsion
[ 11005 11000 10999 10996 ] final -159.85 input  -57.11 | X-H torsion

> <Gold.Protein.ActiveResidues>
 VAL166  LYS551  ARG553  GLY616  TRP617  ASP618  TYR619  PRO620  LYS621  CYS622 
 ASP623  PHE694  ASN695  SER759  ASP760  ASP761  ALA762  ILE779  LEU786  VAL792 
 PHE793  MET794  SER795  GLU796  ALA797  LYS798  CYS799  TRP800  GLU811  SER814 

> <Gold.Protein.RotatedAtoms>
  152.5203  134.3493  159.9245 H   0  0  0  0  0  0  0  0  0  0  0  0  # atno 6907 bound_to 6896
  151.3444  133.3943  159.2682 H   0  0  0  0  0  0  0  0  0  0  0  0  # atno 6908 bound_to 6896
  150.9777  134.9157  159.7884 H   0  0  0  0  0  0  0  0  0  0  0  0  # atno 6909 bound_to 6896
  146.1976  140.3671  142.8435 H   0  0  0  0  0  0  0  0  0  0  0  0  # atno 7974 bound_to 7965
  154.4037  140.1577  156.2701 H   0  0  0  0  0  0  0  0  0  0  0  0  # atno 8008 bound_to 7997
  155.8960  140.3436  155.5969 H   0  0  0  0  0  0  0  0  0  0  0  0  # atno 8009 bound_to 7997
  155.7503  140.0804  157.2195 H   0  0  0  0  0  0  0  0  0  0  0  0  # atno 8010 bound_to 7997
  139.5642  144.1796  152.1287 H   0  0  0  0  0  0  0  0  0  0  0  0  # atno 10167 bound_to 10162
  156.4907  130.8346  151.2569 H   0  0  0  0  0  0  0  0  0  0  0  0  # atno 10718 bound_to 10713
  154.4807  135.2775  155.1573 H   0  0  0  0  0  0  0  0  0  0  0  0  # atno 10763 bound_to 10752
  154.3284  135.6195  153.5544 H   0  0  0  0  0  0  0  0  0  0  0  0  # atno 10764 bound_to 10752
  152.9875  135.5759  154.5207 H   0  0  0  0  0  0  0  0  0  0  0  0  # atno 10765 bound_to 10752
  140.6380  134.4581  157.5232 H   0  0  0  0  0  0  0  0  0  0  0  0  # atno 11005 bound_to 11000
  144.8614  140.7144  143.6105 LP  0  0  0  0  0  0  0  0  0  0  0  0  # atno 17320 bound_to 7965
  145.3591  139.1686  143.4393 LP  0  0  0  0  0  0  0  0  0  0  0  0  # atno 17321 bound_to 7965
  140.1315  144.5284  150.6799 LP  0  0  0  0  0  0  0  0  0  0  0  0  # atno 17342 bound_to 10162
  140.6924  143.2384  151.5093 LP  0  0  0  0  0  0  0  0  0  0  0  0  # atno 17343 bound_to 10162
  157.7474  131.0014  150.2963 LP  0  0  0  0  0  0  0  0  0  0  0  0  # atno 17370 bound_to 10713
  156.3429  130.3818  149.7393 LP  0  0  0  0  0  0  0  0  0  0  0  0  # atno 17371 bound_to 10713
  139.9091  134.8384  156.1595 LP  0  0  0  0  0  0  0  0  0  0  0  0  # atno 17394 bound_to 11000
  141.0627  133.6834  156.1985 LP  0  0  0  0  0  0  0  0  0  0  0  0  # atno 17395 bound_to 11000

$$$$
