AV-unprocessed.smi:2332|AV-procd|sdf|9318|dock10
  -GOLD-   2272012543D 1   1.00000     0.00000
 Structure written by MMmdl.
 32 33  0  0  0  0  0  0  0  0  1 V2000
  154.8252  134.0450  158.4672 C   0  0  0  0  0  0  0  0  0  0  0  0
  154.4633  135.2443  157.7276 N   0  0  0  0  0  0  0  0  0  0  0  0
  153.8228  136.2973  158.2577 C   0  0  0  0  0  0  0  0  0  0  0  0
  153.4873  136.3454  159.4417 O   0  0  0  0  0  0  0  0  0  0  0  0
  153.5329  137.4808  157.3217 C   0  0  2  0  0  0  0  0  0  0  0  0
  152.9045  138.6763  158.0742 C   0  0  0  0  0  0  0  0  0  0  0  0
  152.5321  139.7384  157.1423 N   0  0  0  0  0  0  0  0  0  0  0  0
  152.1936  140.9751  157.7336 C   0  0  0  0  0  0  0  0  0  0  0  0
  151.1545  141.7654  157.1856 C   0  0  0  0  0  0  0  0  0  0  0  0
  150.8362  142.9979  157.7884 C   0  0  0  0  0  0  0  0  0  0  0  0
  151.5626  143.4066  158.9228 C   0  0  0  0  0  0  0  0  0  0  0  0
  151.2722  144.6691  159.5801 C   0  0  0  0  0  0  0  0  0  0  0  0
  151.0411  145.6748  160.1034 N   0  0  0  0  0  0  0  0  0  0  0  0
  152.5762  142.5564  159.4057 C   0  0  0  0  0  0  0  0  0  0  0  0
  152.8838  141.3734  158.8316 N   0  0  0  0  0  0  0  0  0  0  0  0
  151.7179  139.2714  156.0226 C   0  0  0  0  0  0  0  0  0  0  0  0
  152.3958  138.0782  155.3323 C   0  0  0  0  0  0  0  0  0  0  0  0
  152.6427  137.0547  156.2891 O   0  0  0  0  0  0  0  0  0  0  0  0
  155.2966  133.3244  157.7990 H   0  0  0  0  0  0  0  0  0  0  0  0
  153.9431  133.5770  158.9059 H   0  0  0  0  0  0  0  0  0  0  0  0
  155.5287  134.2806  159.2665 H   0  0  0  0  0  0  0  0  0  0  0  0
  154.7069  135.2775  156.7480 H   0  0  0  0  0  0  0  0  0  0  0  0
  154.4813  137.7830  156.8739 H   0  0  0  0  0  0  0  0  0  0  0  0
  152.0110  138.3564  158.6124 H   0  0  0  0  0  0  0  0  0  0  0  0
  153.6098  139.0389  158.8209 H   0  0  0  0  0  0  0  0  0  0  0  0
  150.5914  141.4364  156.3248 H   0  0  0  0  0  0  0  0  0  0  0  0
  150.0447  143.6122  157.3838 H   0  0  0  0  0  0  0  0  0  0  0  0
  153.1586  142.8258  160.2752 H   0  0  0  0  0  0  0  0  0  0  0  0
  150.7319  138.9806  156.3881 H   0  0  0  0  0  0  0  0  0  0  0  0
  151.5757  140.0745  155.2981 H   0  0  0  0  0  0  0  0  0  0  0  0
  151.7510  137.6824  154.5477 H   0  0  0  0  0  0  0  0  0  0  0  0
  153.3294  138.3810  154.8556 H   0  0  0  0  0  0  0  0  0  0  0  0
  1  2  1  0  0  0  0
  1 19  1  0  0  0  0
  1 20  1  0  0  0  0
  1 21  1  0  0  0  0
  2  3  1  0  0  0  0
  2 22  1  0  0  0  0
  3  4  2  0  0  0  0
  3  5  1  0  0  0  0
  5 18  1  0  0  0  0
  5  6  1  0  0  0  0
  5 23  1  0  0  0  0
  6  7  1  0  0  0  0
  6 24  1  0  0  0  0
  6 25  1  0  0  0  0
  7  8  1  0  0  0  0
  7 16  1  0  0  0  0
  8 15  1  0  0  0  0
  8  9  2  0  0  0  0
  9 10  1  0  0  0  0
  9 26  1  0  0  0  0
 10 11  2  0  0  0  0
 10 27  1  0  0  0  0
 11 12  1  0  0  0  0
 11 14  1  0  0  0  0
 12 13  3  0  0  0  0
 14 15  2  0  0  0  0
 14 28  1  0  0  0  0
 16 17  1  0  0  0  0
 16 29  1  0  0  0  0
 16 30  1  0  0  0  0
 17 18  1  0  0  0  0
 17 31  1  0  0  0  0
 17 32  1  0  0  0  0
M  END
> <s_m_source_file>
AV-unprocessed.smi

> <i_m_source_file_index>
2332

> <i_lp_mmshare_version>
43012

> <i_f3d_flags>
0

> <s_epik_input>
W0NIM11bTkhdQyg9TylbQ0BASF0xW0NIMl1OKFtDSDJdW0NIMl1PMSljMltjSF1bY0hdYyhDI04pW2NIXW4y

> <s_epik_cmdline>
J2VwaWtfcHl0aG9uJywgJy1waCcsICc3LjAnLCAnLXRuJywgJzgnLCAnLW1hJywgJzIwMCcsICctbWV0YWxfYmluZGluZycsICctaW1hZScsICc8aW5maWxlLm1hZT4nLCAnLW9tYWUnLCAnPG91dGZpbGUubWFlPic=

> <r_lp_tautomer_probability>
1

> <r_epik_Ionization_Penalty>
6.95229e-08

> <r_epik_Ionization_Penalty_Charging>
0

> <r_epik_Ionization_Penalty_Neutral>
6.95229e-08

> <r_epik_State_Penalty>
-0

> <r_epik_Charging_Adjusted_Penalty>
0

> <i_epik_Tot_Q>
0

> <i_epik_Tot_abs_Q>
0

> <r_epik_Metal_State_Penalty>
-0

> <b_epik_Metal_Only>
0

> <s_lp_Force_Field>
OPLS_2005

> <r_lp_Energy>
17.7289

> <b_lp_Chiralities_Consistent>
1

> <s_lp_Variant>
AV-unprocessed.smi:2332-1

> <Gold.Version>
5.8.1

> <Gold.Id.Protein>
6NUR|6NUR_protein|mol2

> <Gold.PLP.Fitness>
36.0022

> <Gold.PLP.PLP>
-27.9331

> <Gold.PLP.part.hbond>
-4.1091

> <Gold.PLP.part.metal>
0.0000

> <Gold.PLP.part.buried>
-4.6274

> <Gold.PLP.part.nonpolar>
-20.7661

> <Gold.PLP.part.repulsive>
0.3713

> <Gold.PLP.ligand.clash>
0.0000

> <Gold.PLP.ligand.torsion>
0.3817

> <Gold.PLP.Chemscore.Hbond>
2.8326

> <Gold.PLP.Chemscore.CHOScore>
0.0000

> <Gold.PLP.Chemscore.Metal>
0.0000

> <Gold.Chemscore.Hbonds>
donor molecule, donor type, donor heavy atom, donor atom, acceptor molecule, acceptor atom, score
      P1  H  6896  6907       L1     4  1.00
      P1  H  7997  8008       L1     7  0.98
      P1  H 10752 10764       L1    18  0.83

> <Gold.PLP.Chemscore.Internal.Correction>
0.3348

> <Gold.Rescore>
     Score         DG    S(hbond)    S(metal)    S(lipo)     H(rot)  DE(clash)    DE(int)     intcor
     14.14     -14.40       1.51        0.00      62.78       1.35       0.05       0.21       ----

> <Gold.Chemscore.Fitness>
14.1419

> <Gold.Chemscore.DG>
-14.4007

> <Gold.Chemscore.ZeroCoef>
-5.4800

> <Gold.Chemscore.Hbond>
1.5062

> <Gold.Chemscore.Metal>
0.0000

> <Gold.Chemscore.Lipo>
62.7836

> <Gold.Chemscore.Internal_Hbond>
0.0000

> <Gold.Chemscore.DEClash>
0.0456

> <Gold.Chemscore.DEInternal>
0.2132

> <Gold.Chemscore.Rot>
1.3498

> <Gold.Chemscore.Internal.Correction>
   9.000000E+99

> <Gold.Chemscore.Hbonds>
donor molecule, donor type, donor heavy atom, donor atom, acceptor molecule, acceptor atom, score
      P1  H  6896  6907       L1     4  0.87
      P1  H  7997  8008       L1     7  0.04
      P1  H 10752 10764       L1    18  0.29

> <Gold.Chemscore.Hbond.Weighted>
-5.0306

> <Gold.Chemscore.Metal.Weighted>
-0.0000

> <Gold.Chemscore.Lipo.Weighted>
-7.3457

> <Gold.Chemscore.Internal_Hbond.Weighted>
0.0000

> <Gold.Chemscore.DEClash.Weighted>
0.0456

> <Gold.Chemscore.DEInternal.Weighted>
0.2132

> <Gold.Chemscore.Rot.Weighted>
3.4556

> <Gold.Chemscore.Internal.Correction.Weighted>
   9.000000E+99

> <Gold.Protein.RotatedTorsions>
[ 6907 6896 6895 6894 ] final   44.18 input  -60.11 | X-H torsion
[ 7974 7965 7964 7962 ] final -164.60 input  175.53 | X-H torsion
[ 8008 7997 7996 7995 ] final  -40.78 input   59.86 | X-H torsion
[ 10167 10162 10161 10158 ] final -150.67 input  -65.29 | X-H torsion
[ 10718 10713 10712 10709 ] final -140.58 input   66.30 | X-H torsion
[ 10763 10752 10751 10750 ] final  -23.65 input  -60.55 | X-H torsion
[ 11005 11000 10999 10996 ] final  -21.51 input  -57.11 | X-H torsion

> <Gold.Protein.ActiveResidues>
 VAL166  LYS551  ARG553  GLY616  TRP617  ASP618  TYR619  PRO620  LYS621  CYS622 
 ASP623  PHE694  ASN695  SER759  ASP760  ASP761  ALA762  ILE779  LEU786  VAL792 
 PHE793  MET794  SER795  GLU796  ALA797  LYS798  CYS799  TRP800  GLU811  SER814 

> <Gold.Protein.RotatedAtoms>
  152.2293  134.8337  160.0475 H   0  0  0  0  0  0  0  0  0  0  0  0  # atno 6907 bound_to 6896
  151.9092  133.3552  159.3866 H   0  0  0  0  0  0  0  0  0  0  0  0  # atno 6908 bound_to 6896
  150.7021  134.4675  159.5453 H   0  0  0  0  0  0  0  0  0  0  0  0  # atno 6909 bound_to 6896
  144.7292  140.2937  143.6216 H   0  0  0  0  0  0  0  0  0  0  0  0  # atno 7974 bound_to 7965
  154.4009  140.1516  156.3083 H   0  0  0  0  0  0  0  0  0  0  0  0  # atno 8008 bound_to 7997
  155.8638  140.3452  155.5753 H   0  0  0  0  0  0  0  0  0  0  0  0  # atno 8009 bound_to 7997
  155.7850  140.0849  157.2029 H   0  0  0  0  0  0  0  0  0  0  0  0  # atno 8010 bound_to 7997
  139.7334  143.8773  152.2541 H   0  0  0  0  0  0  0  0  0  0  0  0  # atno 10167 bound_to 10162
  156.3240  130.7550  151.1654 H   0  0  0  0  0  0  0  0  0  0  0  0  # atno 10718 bound_to 10713
  153.6713  135.6971  153.5146 H   0  0  0  0  0  0  0  0  0  0  0  0  # atno 10763 bound_to 10752
  153.2556  135.4261  155.0841 H   0  0  0  0  0  0  0  0  0  0  0  0  # atno 10764 bound_to 10752
  154.8426  135.3542  154.6257 H   0  0  0  0  0  0  0  0  0  0  0  0  # atno 10765 bound_to 10752
  140.8568  133.7817  156.0029 H   0  0  0  0  0  0  0  0  0  0  0  0  # atno 11005 bound_to 11000
  145.7829  139.1898  143.2147 LP  0  0  0  0  0  0  0  0  0  0  0  0  # atno 17320 bound_to 7965
  146.0819  140.7754  142.9637 LP  0  0  0  0  0  0  0  0  0  0  0  0  # atno 17321 bound_to 7965
  139.8703  144.7072  150.8995 LP  0  0  0  0  0  0  0  0  0  0  0  0  # atno 17342 bound_to 10162
  140.7775  143.3744  151.1590 LP  0  0  0  0  0  0  0  0  0  0  0  0  # atno 17343 bound_to 10162
  157.7417  131.0499  150.5074 LP  0  0  0  0  0  0  0  0  0  0  0  0  # atno 17370 bound_to 10713
  156.5231  130.4166  149.6240 LP  0  0  0  0  0  0  0  0  0  0  0  0  # atno 17371 bound_to 10713
  140.8728  134.2706  157.5182 LP  0  0  0  0  0  0  0  0  0  0  0  0  # atno 17394 bound_to 11000
  139.8705  134.9576  156.4273 LP  0  0  0  0  0  0  0  0  0  0  0  0  # atno 17395 bound_to 11000

$$$$
