AV-unprocessed.smi:142|AV-procd|sdf|1189|dock4
  -GOLD-   2262018343D 1   1.00000     0.00000
 Structure written by MMmdl.
 52 55  0  0  0  0  0  0  0  0  1 V2000
  152.3024  138.2106  156.9130 C   0  0  0  0  0  0  0  0  0  0  0  0
  151.5446  138.7782  158.1207 C   0  0  2  0  0  0  0  0  0  0  0  0
  150.2142  138.1757  158.1810 N   0  0  0  0  0  0  0  0  0  0  0  0
  149.9605  136.8871  158.4552 C   0  0  0  0  0  0  0  0  0  0  0  0
  150.8459  136.0565  158.6647 O   0  0  0  0  0  0  0  0  0  0  0  0
  148.4770  136.4894  158.4920 C   0  0  0  0  0  0  0  0  0  0  0  0
  148.1584  135.5292  159.5710 N   0  0  0  0  0  0  0  0  0  0  0  0
  147.9132  136.0326  160.8725 C   0  0  0  0  0  0  0  0  0  0  0  0
  147.9457  137.2421  161.1056 O   0  0  0  0  0  0  0  0  0  0  0  0
  147.6347  135.0294  161.8940 C   0  0  0  0  0  0  0  0  0  0  0  0
  147.3845  135.4170  163.1560 F   0  0  0  0  0  0  0  0  0  0  0  0
  147.6261  133.7143  161.5930 C   0  0  0  0  0  0  0  0  0  0  0  0
  147.8736  133.2365  160.3184 N   0  0  0  0  0  0  0  0  0  0  0  0
  147.8795  131.7562  160.0011 C   0  0  2  0  0  0  0  0  0  0  0  0
  147.4619  130.9359  161.2350 C   0  0  0  0  0  0  0  0  0  0  0  0
  148.5554  129.8905  161.3241 C   0  0  0  0  0  0  0  0  0  0  0  0
  149.7471  130.6350  160.7412 C   0  0  0  0  0  0  0  0  0  0  0  0
  149.1728  131.3490  159.6543 O   0  0  0  0  0  0  0  0  0  0  0  0
  148.1502  134.1455  159.2742 C   0  0  0  0  0  0  0  0  0  0  0  0
  148.3825  133.7386  158.1337 O   0  0  0  0  0  0  0  0  0  0  0  0
  151.5165  140.3039  158.0785 C   0  0  0  0  0  0  0  0  0  0  0  0
  150.9615  140.9548  156.9560 C   0  0  0  0  0  0  0  0  0  0  0  0
  150.9141  142.3609  156.8956 C   0  0  0  0  0  0  0  0  0  0  0  0
  151.4197  143.1316  157.9616 C   0  0  0  0  0  0  0  0  0  0  0  0
  151.3741  144.5403  157.9084 C   0  0  0  0  0  0  0  0  0  0  0  0
  151.8820  145.3035  158.9778 C   0  0  0  0  0  0  0  0  0  0  0  0
  152.4367  144.6618  160.1020 C   0  0  0  0  0  0  0  0  0  0  0  0
  152.4831  143.2554  160.1613 C   0  0  0  0  0  0  0  0  0  0  0  0
  151.9756  142.4863  159.0938 C   0  0  0  0  0  0  0  0  0  0  0  0
  152.0182  141.0785  159.1497 C   0  0  0  0  0  0  0  0  0  0  0  0
  153.3263  138.5844  156.8823 H   0  0  0  0  0  0  0  0  0  0  0  0
  151.8196  138.4878  155.9752 H   0  0  0  0  0  0  0  0  0  0  0  0
  152.3521  137.1220  156.9540 H   0  0  0  0  0  0  0  0  0  0  0  0
  152.0865  138.4775  159.0195 H   0  0  0  0  0  0  0  0  0  0  0  0
  149.4287  138.7890  158.0189 H   0  0  0  0  0  0  0  0  0  0  0  0
  147.8704  137.3914  158.5910 H   0  0  0  0  0  0  0  0  0  0  0  0
  148.2042  136.0945  157.5124 H   0  0  0  0  0  0  0  0  0  0  0  0
  147.4178  133.0239  162.3957 H   0  0  0  0  0  0  0  0  0  0  0  0
  147.2222  131.6329  159.1383 H   0  0  0  0  0  0  0  0  0  0  0  0
  147.4660  131.5663  162.1256 H   0  0  0  0  0  0  0  0  0  0  0  0
  146.4666  130.5105  161.1050 H   0  0  0  0  0  0  0  0  0  0  0  0
  148.7279  129.5368  162.3408 H   0  0  0  0  0  0  0  0  0  0  0  0
  148.3072  129.0322  160.6983 H   0  0  0  0  0  0  0  0  0  0  0  0
  150.1640  131.3308  161.4706 H   0  0  0  0  0  0  0  0  0  0  0  0
  150.5419  129.9678  160.4073 H   0  0  0  0  0  0  0  0  0  0  0  0
  150.5692  140.3746  156.1335 H   0  0  0  0  0  0  0  0  0  0  0  0
  150.4874  142.8433  156.0283 H   0  0  0  0  0  0  0  0  0  0  0  0
  150.9503  145.0408  157.0498 H   0  0  0  0  0  0  0  0  0  0  0  0
  151.8469  146.3821  158.9351 H   0  0  0  0  0  0  0  0  0  0  0  0
  152.8270  145.2487  160.9203 H   0  0  0  0  0  0  0  0  0  0  0  0
  152.9102  142.7713  161.0276 H   0  0  0  0  0  0  0  0  0  0  0  0
  152.4372  140.5953  160.0205 H   0  0  0  0  0  0  0  0  0  0  0  0
  1  2  1  0  0  0  0
  1 31  1  0  0  0  0
  1 32  1  0  0  0  0
  1 33  1  0  0  0  0
  2  3  1  0  0  0  0
  2 21  1  0  0  0  0
  2 34  1  0  0  0  0
  3  4  1  0  0  0  0
  3 35  1  0  0  0  0
  4  5  2  0  0  0  0
  4  6  1  0  0  0  0
  6  7  1  0  0  0  0
  6 36  1  0  0  0  0
  6 37  1  0  0  0  0
  7 19  1  0  0  0  0
  7  8  1  0  0  0  0
  8  9  2  0  0  0  0
  8 10  1  0  0  0  0
 10 11  1  0  0  0  0
 10 12  2  0  0  0  0
 12 13  1  0  0  0  0
 12 38  1  0  0  0  0
 13 14  1  0  0  0  0
 13 19  1  0  0  0  0
 14 18  1  0  0  0  0
 14 15  1  0  0  0  0
 14 39  1  0  0  0  0
 15 16  1  0  0  0  0
 15 40  1  0  0  0  0
 15 41  1  0  0  0  0
 16 17  1  0  0  0  0
 16 42  1  0  0  0  0
 16 43  1  0  0  0  0
 17 18  1  0  0  0  0
 17 44  1  0  0  0  0
 17 45  1  0  0  0  0
 19 20  2  0  0  0  0
 21 30  1  0  0  0  0
 21 22  2  0  0  0  0
 22 23  1  0  0  0  0
 22 46  1  0  0  0  0
 23 24  2  0  0  0  0
 23 47  1  0  0  0  0
 24 29  1  0  0  0  0
 24 25  1  0  0  0  0
 25 26  2  0  0  0  0
 25 48  1  0  0  0  0
 26 27  1  0  0  0  0
 26 49  1  0  0  0  0
 27 28  2  0  0  0  0
 27 50  1  0  0  0  0
 28 29  1  0  0  0  0
 28 51  1  0  0  0  0
 29 30  2  0  0  0  0
 30 52  1  0  0  0  0
M  END
> <s_m_source_file>
AV-unprocessed.smi

> <i_m_source_file_index>
142

> <i_lp_mmshare_version>
43012

> <i_f3d_flags>
0

> <s_epik_input>
W2NIXTFbY0hdW2NIXVtjSF1jKGMxMilbY0hdYyhbY0hdW2NIXTIpW0NASF0oW0NIM10pW05IXUMoPU8pW0NIMl1uM2MoPU8pYyhGKVtjSF1uKGMzPU8pW0NAQEhdNFtDSDJdW0NIMl1bQ0gyXU80

> <s_epik_cmdline>
J2VwaWtfcHl0aG9uJywgJy1waCcsICc3LjAnLCAnLXRuJywgJzgnLCAnLW1hJywgJzIwMCcsICctbWV0YWxfYmluZGluZycsICctaW1hZScsICc8aW5maWxlLm1hZT4nLCAnLW9tYWUnLCAnPG91dGZpbGUubWFlPic=

> <r_lp_tautomer_probability>
1

> <r_epik_Ionization_Penalty>
3.35688e-08

> <r_epik_Ionization_Penalty_Charging>
3.59856e-09

> <r_epik_Ionization_Penalty_Neutral>
2.99702e-08

> <r_epik_State_Penalty>
-0

> <r_epik_Charging_Adjusted_Penalty>
3.59856e-09

> <i_epik_Tot_Q>
0

> <i_epik_Tot_abs_Q>
0

> <r_epik_Metal_State_Penalty>
-0

> <b_epik_Metal_Only>
0

> <s_epik_Chemistry_Notes>
This compound contains an acetal/aminal-like group ( X-CH(R)-Y where X, Y are N, S, or O) that may be acid/base labile, releasing an aldehyde.

> <s_lp_Force_Field>
OPLS_2005

> <r_lp_Energy>
31.3548

> <b_lp_Chiralities_Consistent>
1

> <s_lp_Variant>
AV-unprocessed.smi:142-1

> <Gold.Version>
5.8.1

> <Gold.Id.Protein>
6NUR|6NUR_protein|mol2

> <Gold.PLP.Fitness>
61.4136

> <Gold.PLP.PLP>
-55.5995

> <Gold.PLP.part.hbond>
-2.5518

> <Gold.PLP.part.metal>
0.0000

> <Gold.PLP.part.buried>
-7.0377

> <Gold.PLP.part.nonpolar>
-46.4571

> <Gold.PLP.part.repulsive>
0.1064

> <Gold.PLP.ligand.clash>
0.0000

> <Gold.PLP.ligand.torsion>
0.8389

> <Gold.PLP.Chemscore.Hbond>
2.4800

> <Gold.PLP.Chemscore.CHOScore>
0.0000

> <Gold.PLP.Chemscore.Metal>
0.0000

> <Gold.Chemscore.Hbonds>
donor molecule, donor type, donor heavy atom, donor atom, acceptor molecule, acceptor atom, score
      P1  H  6896  6907       L1     5  0.77
      P1  H  6931  6943       L1     9  0.94
      P1  H  6934  6947       L1     9  0.74

> <Gold.PLP.Chemscore.Internal.Correction>
0.0520

> <Gold.Rescore>
     Score         DG    S(hbond)    S(metal)    S(lipo)     H(rot)  DE(clash)    DE(int)     intcor
     23.22     -24.55       2.50        0.00     135.74       2.02       0.04       1.28       ----

> <Gold.Chemscore.Fitness>
23.2234

> <Gold.Chemscore.DG>
-24.5500

> <Gold.Chemscore.ZeroCoef>
-5.4800

> <Gold.Chemscore.Hbond>
2.5011

> <Gold.Chemscore.Metal>
0.0000

> <Gold.Chemscore.Lipo>
135.7370

> <Gold.Chemscore.Internal_Hbond>
0.0000

> <Gold.Chemscore.DEClash>
0.0431

> <Gold.Chemscore.DEInternal>
1.2835

> <Gold.Chemscore.Rot>
2.0175

> <Gold.Chemscore.Internal.Correction>
   9.000000E+99

> <Gold.Chemscore.Hbonds>
donor molecule, donor type, donor heavy atom, donor atom, acceptor molecule, acceptor atom, score
      P1  H  6896  6907       L1     5  0.73
      P1  H  6931  6943       L1     9  0.92
      P1  H  6934  6947       L1     9  0.73

> <Gold.Chemscore.Hbond.Weighted>
-8.3536

> <Gold.Chemscore.Metal.Weighted>
-0.0000

> <Gold.Chemscore.Lipo.Weighted>
-15.8812

> <Gold.Chemscore.Internal_Hbond.Weighted>
0.0000

> <Gold.Chemscore.DEClash.Weighted>
0.0431

> <Gold.Chemscore.DEInternal.Weighted>
1.2835

> <Gold.Chemscore.Rot.Weighted>
5.1648

> <Gold.Chemscore.Internal.Correction.Weighted>
   9.000000E+99

> <Gold.Protein.RotatedTorsions>
[ 6907 6896 6895 6894 ] final  -35.10 input  -60.11 | X-H torsion
[ 7974 7965 7964 7962 ] final  -48.99 input  175.53 | X-H torsion
[ 8008 7997 7996 7995 ] final -153.91 input   59.86 | X-H torsion
[ 10167 10162 10161 10158 ] final   21.91 input  -65.29 | X-H torsion
[ 10718 10713 10712 10709 ] final   40.02 input   66.30 | X-H torsion
[ 10763 10752 10751 10750 ] final -116.65 input  -60.55 | X-H torsion
[ 11005 11000 10999 10996 ] final   70.68 input  -57.11 | X-H torsion

> <Gold.Protein.ActiveResidues>
 VAL166  LYS551  ARG553  GLY616  TRP617  ASP618  TYR619  PRO620  LYS621  CYS622 
 ASP623  PHE694  ASN695  SER759  ASP760  ASP761  ALA762  ILE779  LEU786  VAL792 
 PHE793  MET794  SER795  GLU796  ALA797  LYS798  CYS799  TRP800  GLU811  SER814 

> <Gold.Protein.RotatedAtoms>
  151.0442  134.9628  159.8177 H   0  0  0  0  0  0  0  0  0  0  0  0  # atno 6907 bound_to 6896
  152.5369  134.2620  159.8949 H   0  0  0  0  0  0  0  0  0  0  0  0  # atno 6908 bound_to 6896
  151.2633  133.4248  159.2651 H   0  0  0  0  0  0  0  0  0  0  0  0  # atno 6909 bound_to 6896
  145.9453  140.7624  142.9532 H   0  0  0  0  0  0  0  0  0  0  0  0  # atno 7974 bound_to 7965
  155.6782  140.0741  157.2495 H   0  0  0  0  0  0  0  0  0  0  0  0  # atno 8008 bound_to 7997
  154.4110  140.1686  156.2005 H   0  0  0  0  0  0  0  0  0  0  0  0  # atno 8009 bound_to 7997
  155.9558  140.3374  155.6450 H   0  0  0  0  0  0  0  0  0  0  0  0  # atno 8010 bound_to 7997
  140.5390  143.9710  150.6508 H   0  0  0  0  0  0  0  0  0  0  0  0  # atno 10167 bound_to 10162
  157.3773  130.7734  149.7165 H   0  0  0  0  0  0  0  0  0  0  0  0  # atno 10718 bound_to 10713
  154.8527  135.4338  154.1854 H   0  0  0  0  0  0  0  0  0  0  0  0  # atno 10763 bound_to 10752
  153.2935  135.6963  153.7276 H   0  0  0  0  0  0  0  0  0  0  0  0  # atno 10764 bound_to 10752
  153.6434  135.3464  155.3053 H   0  0  0  0  0  0  0  0  0  0  0  0  # atno 10765 bound_to 10752
  139.9584  134.7103  156.0700 H   0  0  0  0  0  0  0  0  0  0  0  0  # atno 11005 bound_to 11000
  144.6786  140.2346  143.7351 LP  0  0  0  0  0  0  0  0  0  0  0  0  # atno 17320 bound_to 7965
  145.8245  139.2058  143.1919 LP  0  0  0  0  0  0  0  0  0  0  0  0  # atno 17321 bound_to 7965
  140.3105  143.3201  152.0883 LP  0  0  0  0  0  0  0  0  0  0  0  0  # atno 17342 bound_to 10162
  139.4981  144.6639  151.6402 LP  0  0  0  0  0  0  0  0  0  0  0  0  # atno 17343 bound_to 10162
  155.9768  130.4071  150.3755 LP  0  0  0  0  0  0  0  0  0  0  0  0  # atno 17370 bound_to 10713
  157.1854  131.0402  151.2727 LP  0  0  0  0  0  0  0  0  0  0  0  0  # atno 17371 bound_to 10713
  141.1259  133.6599  156.3335 LP  0  0  0  0  0  0  0  0  0  0  0  0  # atno 17394 bound_to 11000
  140.5555  134.5985  157.5419 LP  0  0  0  0  0  0  0  0  0  0  0  0  # atno 17395 bound_to 11000

$$$$
