AV-unprocessed.smi:2976|AV-procd|sdf|11364|dock4
  -GOLD-   2272016283D 1   1.00000     0.00000
 Structure written by MMmdl.
 40 41  0  0  0  0  0  0  0  0  1 V2000
  151.6029  144.8351  159.8106 C   0  0  0  0  0  0  0  0  0  0  0  0
  152.2907  143.5092  159.4344 C   0  0  1  0  0  0  0  0  0  0  0  0
  152.4428  142.6340  160.6947 C   0  0  0  0  0  0  0  0  0  0  0  0
  153.1478  141.3079  160.3898 C   0  0  0  0  0  0  0  0  0  0  0  0
  152.3949  140.5346  159.3032 C   0  0  0  0  0  0  0  0  0  0  0  0
  152.2426  141.3731  158.0216 C   0  0  1  0  0  0  0  0  0  0  0  0
  151.4784  140.5938  157.0473 N   0  0  0  0  0  0  0  0  0  0  0  0
  151.9484  139.5809  156.3022 C   0  0  0  0  0  0  0  0  0  0  0  0
  153.1135  139.1842  156.3553 O   0  0  0  0  0  0  0  0  0  0  0  0
  150.9335  138.9359  155.3459 C   0  0  0  0  0  0  0  0  0  0  0  0
  149.7165  139.7368  155.1441 N   0  0  0  0  0  0  0  0  0  0  0  0
  149.9544  141.0018  154.6356 N   0  0  0  0  0  0  0  0  0  0  0  0
  148.9612  141.7879  154.3995 C   0  0  0  0  0  0  0  0  0  0  0  0
  147.5920  141.3964  154.6511 C   0  0  0  0  0  0  0  0  0  0  0  0
  146.3005  142.4942  154.3131 Cl  0  0  0  0  0  0  0  0  0  0  0  0
  147.3699  140.1566  155.1561 C   0  0  0  0  0  0  0  0  0  0  0  0
  145.7589  139.6178  155.4859 Cl  0  0  0  0  0  0  0  0  0  0  0  0
  148.4779  139.2333  155.4381 C   0  0  0  0  0  0  0  0  0  0  0  0
  148.3180  138.1013  155.8963 O   0  0  0  0  0  0  0  0  0  0  0  0
  151.5564  142.7390  158.2995 C   0  0  2  0  0  0  0  0  0  0  0  0
  151.4489  143.5796  157.0079 C   0  0  0  0  0  0  0  0  0  0  0  0
  150.5592  144.6765  160.0835 H   0  0  0  0  0  0  0  0  0  0  0  0
  151.6326  145.5563  158.9946 H   0  0  0  0  0  0  0  0  0  0  0  0
  152.0986  145.3049  160.6606 H   0  0  0  0  0  0  0  0  0  0  0  0
  153.2944  143.7517  159.0814 H   0  0  0  0  0  0  0  0  0  0  0  0
  153.0083  143.1727  161.4562 H   0  0  0  0  0  0  0  0  0  0  0  0
  151.4608  142.4333  161.1256 H   0  0  0  0  0  0  0  0  0  0  0  0
  154.1717  141.4990  160.0656 H   0  0  0  0  0  0  0  0  0  0  0  0
  153.2155  140.7054  161.2961 H   0  0  0  0  0  0  0  0  0  0  0  0
  152.9242  139.6066  159.0826 H   0  0  0  0  0  0  0  0  0  0  0  0
  151.4114  140.2478  159.6786 H   0  0  0  0  0  0  0  0  0  0  0  0
  153.2446  141.5750  157.6381 H   0  0  0  0  0  0  0  0  0  0  0  0
  150.5088  140.8500  156.9296 H   0  0  0  0  0  0  0  0  0  0  0  0
  151.4220  138.7418  154.3892 H   0  0  0  0  0  0  0  0  0  0  0  0
  150.6702  137.9531  155.7416 H   0  0  0  0  0  0  0  0  0  0  0  0
  149.1006  142.7914  153.9971 H   0  0  0  0  0  0  0  0  0  0  0  0
  150.5402  142.5354  158.6419 H   0  0  0  0  0  0  0  0  0  0  0  0
  152.4353  143.8550  156.6335 H   0  0  0  0  0  0  0  0  0  0  0  0
  150.8821  144.4961  157.1652 H   0  0  0  0  0  0  0  0  0  0  0  0
  150.9346  143.0400  156.2130 H   0  0  0  0  0  0  0  0  0  0  0  0
  1  2  1  0  0  0  0
  1 22  1  0  0  0  0
  1 23  1  0  0  0  0
  1 24  1  0  0  0  0
  2 20  1  0  0  0  0
  2  3  1  0  0  0  0
  2 25  1  0  0  0  0
  3  4  1  0  0  0  0
  3 26  1  0  0  0  0
  3 27  1  0  0  0  0
  4  5  1  0  0  0  0
  4 28  1  0  0  0  0
  4 29  1  0  0  0  0
  5  6  1  0  0  0  0
  5 30  1  0  0  0  0
  5 31  1  0  0  0  0
  6  7  1  0  0  0  0
  6 20  1  0  0  0  0
  6 32  1  0  0  0  0
  7  8  1  0  0  0  0
  7 33  1  0  0  0  0
  8  9  2  0  0  0  0
  8 10  1  0  0  0  0
 10 11  1  0  0  0  0
 10 34  1  0  0  0  0
 10 35  1  0  0  0  0
 11 18  1  0  0  0  0
 11 12  1  0  0  0  0
 12 13  2  0  0  0  0
 13 14  1  0  0  0  0
 13 36  1  0  0  0  0
 14 15  1  0  0  0  0
 14 16  2  0  0  0  0
 16 17  1  0  0  0  0
 16 18  1  0  0  0  0
 18 19  2  0  0  0  0
 20 21  1  0  0  0  0
 20 37  1  0  0  0  0
 21 38  1  0  0  0  0
 21 39  1  0  0  0  0
 21 40  1  0  0  0  0
M  END
> <s_m_source_file>
AV-unprocessed.smi

> <i_m_source_file_index>
2976

> <i_lp_mmshare_version>
43012

> <i_f3d_flags>
0

> <s_epik_input>
W0NIM11bQ0BASF0xW0NIMl1bQ0gyXVtDSDJdW0NASF0oW0NASF0xW0NIM10pW05IXUMoPU8pW0NIMl1uMm5bY0hdYyhDbCljKENsKWMyPU8=

> <s_epik_cmdline>
J2VwaWtfcHl0aG9uJywgJy1waCcsICc3LjAnLCAnLXRuJywgJzgnLCAnLW1hJywgJzIwMCcsICctbWV0YWxfYmluZGluZycsICctaW1hZScsICc8aW5maWxlLm1hZT4nLCAnLW9tYWUnLCAnPG91dGZpbGUubWFlPic=

> <r_lp_tautomer_probability>
1

> <r_epik_Ionization_Penalty>
1.90777e-08

> <r_epik_Ionization_Penalty_Charging>
3.07942e-11

> <r_epik_Ionization_Penalty_Neutral>
1.90469e-08

> <r_epik_State_Penalty>
-0

> <r_epik_Charging_Adjusted_Penalty>
3.07942e-11

> <i_epik_Tot_Q>
0

> <i_epik_Tot_abs_Q>
0

> <r_epik_Metal_State_Penalty>
-0

> <b_epik_Metal_Only>
0

> <s_lp_Force_Field>
OPLS_2005

> <r_lp_Energy>
26.9637

> <b_lp_Chiralities_Consistent>
1

> <s_lp_Variant>
AV-unprocessed.smi:2976-6

> <Gold.Version>
5.8.1

> <Gold.Id.Protein>
6NUR|6NUR_protein|mol2

> <Gold.PLP.Fitness>
45.1712

> <Gold.PLP.PLP>
-38.8985

> <Gold.PLP.part.hbond>
-1.9779

> <Gold.PLP.part.metal>
0.0000

> <Gold.PLP.part.buried>
-2.4979

> <Gold.PLP.part.nonpolar>
-34.4586

> <Gold.PLP.part.repulsive>
0.2460

> <Gold.PLP.ligand.clash>
0.0000

> <Gold.PLP.ligand.torsion>
0.4506

> <Gold.PLP.Chemscore.Hbond>
1.6400

> <Gold.PLP.Chemscore.CHOScore>
0.7490

> <Gold.PLP.Chemscore.Metal>
0.0000

> <Gold.Chemscore.Hbonds>
donor molecule, donor type, donor heavy atom, donor atom, acceptor molecule, acceptor atom, score
      P1  H  7989  7998       L1    12  0.64
      P1  H  7997  8009       L1     9  1.00
      L1  C    13    36       P1  8028  0.75

> <Gold.PLP.Chemscore.Internal.Correction>
0.0070

> <Gold.Rescore>
     Score         DG    S(hbond)    S(metal)    S(lipo)     H(rot)  DE(clash)    DE(int)     intcor
     18.94     -20.36       1.66        0.00     112.38       1.49       0.84       0.58       ----

> <Gold.Chemscore.Fitness>
18.9444

> <Gold.Chemscore.DG>
-20.3615

> <Gold.Chemscore.ZeroCoef>
-5.4800

> <Gold.Chemscore.Hbond>
1.6581

> <Gold.Chemscore.Metal>
0.0000

> <Gold.Chemscore.Lipo>
112.3848

> <Gold.Chemscore.Internal_Hbond>
0.0000

> <Gold.Chemscore.DEClash>
0.8351

> <Gold.Chemscore.DEInternal>
0.5820

> <Gold.Chemscore.Rot>
1.4866

> <Gold.Chemscore.Internal.Correction>
   9.000000E+99

> <Gold.Chemscore.Hbonds>
donor molecule, donor type, donor heavy atom, donor atom, acceptor molecule, acceptor atom, score
      P1  H  7989  7998       L1    12  0.39
      P1  H  7997  8009       L1     9  0.95

> <Gold.Chemscore.Hbond.Weighted>
-5.5381

> <Gold.Chemscore.Metal.Weighted>
-0.0000

> <Gold.Chemscore.Lipo.Weighted>
-13.1490

> <Gold.Chemscore.Internal_Hbond.Weighted>
0.0000

> <Gold.Chemscore.DEClash.Weighted>
0.8351

> <Gold.Chemscore.DEInternal.Weighted>
0.5820

> <Gold.Chemscore.Rot.Weighted>
3.8057

> <Gold.Chemscore.Internal.Correction.Weighted>
   9.000000E+99

> <Gold.Protein.RotatedTorsions>
[ 6907 6896 6895 6894 ] final -172.08 input  -60.11 | X-H torsion
[ 7974 7965 7964 7962 ] final  102.83 input  175.53 | X-H torsion
[ 8008 7997 7996 7995 ] final -176.97 input   59.86 | X-H torsion
[ 10167 10162 10161 10158 ] final  142.06 input  -65.29 | X-H torsion
[ 10718 10713 10712 10709 ] final -178.98 input   66.30 | X-H torsion
[ 10763 10752 10751 10750 ] final  133.01 input  -60.55 | X-H torsion
[ 11005 11000 10999 10996 ] final  154.52 input  -57.11 | X-H torsion

> <Gold.Protein.ActiveResidues>
 VAL166  LYS551  ARG553  GLY616  TRP617  ASP618  TYR619  PRO620  LYS621  CYS622 
 ASP623  PHE694  ASN695  SER759  ASP760  ASP761  ALA762  ILE779  LEU786  VAL792 
 PHE793  MET794  SER795  GLU796  ALA797  LYS798  CYS799  TRP800  GLU811  SER814 

> <Gold.Protein.RotatedAtoms>
  151.5342  133.3444  159.2923 H   0  0  0  0  0  0  0  0  0  0  0  0  # atno 6907 bound_to 6896
  150.8575  134.7920  159.7068 H   0  0  0  0  0  0  0  0  0  0  0  0  # atno 6908 bound_to 6896
  152.4604  134.5205  159.9833 H   0  0  0  0  0  0  0  0  0  0  0  0  # atno 6909 bound_to 6896
  145.3540  139.2433  143.3543 H   0  0  0  0  0  0  0  0  0  0  0  0  # atno 7974 bound_to 7965
  156.0013  140.1221  157.0544 H   0  0  0  0  0  0  0  0  0  0  0  0  # atno 8008 bound_to 7997
  154.4243  140.1106  156.5770 H   0  0  0  0  0  0  0  0  0  0  0  0  # atno 8009 bound_to 7997
  155.6208  140.3472  155.4653 H   0  0  0  0  0  0  0  0  0  0  0  0  # atno 8010 bound_to 7997
  139.5004  144.6131  151.6225 H   0  0  0  0  0  0  0  0  0  0  0  0  # atno 10167 bound_to 10162
  156.8524  130.9723  151.3091 H   0  0  0  0  0  0  0  0  0  0  0  0  # atno 10718 bound_to 10713
  153.8001  135.3143  155.3389 H   0  0  0  0  0  0  0  0  0  0  0  0  # atno 10763 bound_to 10752
  154.8092  135.4678  154.0475 H   0  0  0  0  0  0  0  0  0  0  0  0  # atno 10764 bound_to 10752
  153.1820  135.6895  153.8552 H   0  0  0  0  0  0  0  0  0  0  0  0  # atno 10765 bound_to 10752
  140.1496  134.8683  157.2438 H   0  0  0  0  0  0  0  0  0  0  0  0  # atno 11005 bound_to 11000
  146.2956  140.4161  142.8723 LP  0  0  0  0  0  0  0  0  0  0  0  0  # atno 17320 bound_to 7965
  144.8696  140.7254  143.6055 LP  0  0  0  0  0  0  0  0  0  0  0  0  # atno 17321 bound_to 7965
  140.5812  143.9943  150.6269 LP  0  0  0  0  0  0  0  0  0  0  0  0  # atno 17342 bound_to 10162
  140.3092  143.3209  152.0895 LP  0  0  0  0  0  0  0  0  0  0  0  0  # atno 17343 bound_to 10162
  157.6296  130.8719  149.9250 LP  0  0  0  0  0  0  0  0  0  0  0  0  # atno 17370 bound_to 10713
  156.0821  130.3672  150.0560 LP  0  0  0  0  0  0  0  0  0  0  0  0  # atno 17371 bound_to 10713
  140.2621  134.3559  155.7403 LP  0  0  0  0  0  0  0  0  0  0  0  0  # atno 17394 bound_to 11000
  141.2197  133.7375  156.9095 LP  0  0  0  0  0  0  0  0  0  0  0  0  # atno 17395 bound_to 11000

$$$$
