AV-unprocessed.smi:196|AV-procd|sdf|1530|dock10
  -GOLD-   2262019383D 1   1.00000     0.00000
 Structure written by MMmdl.
 47 50  0  0  0  0  0  0  0  0  1 V2000
  148.0175  137.2999  155.3735 C   0  0  0  0  0  0  0  0  0  0  0  0
  146.9629  138.0615  154.5537 C   0  0  2  0  0  0  0  0  0  0  0  0
  146.0079  137.1604  154.0113 O   0  0  0  0  0  0  0  0  0  0  0  0
  145.3422  137.8402  152.9628 C   0  0  0  0  0  0  0  0  0  0  0  0
  146.4893  138.5228  152.2288 C   0  0  0  0  0  0  0  0  0  0  0  0
  147.4727  138.8902  153.3440 C   0  0  2  0  0  0  0  0  0  0  0  0
  148.7701  138.4858  152.9388 O   0  0  0  0  0  0  0  0  0  0  0  0
  147.4975  140.4154  153.6165 C   0  0  0  0  0  0  0  0  0  0  0  0
  148.4386  140.8064  154.6555 N   0  0  0  0  0  0  0  0  0  0  0  0
  149.8126  140.7697  154.5815 C   0  0  0  0  0  0  0  0  0  0  0  0
  150.4381  141.1896  155.6466 N   0  0  0  0  0  0  0  0  0  0  0  0
  149.4200  141.5230  156.5333 C   0  0  0  0  0  0  0  0  0  0  0  0
  149.3869  142.0433  157.8599 C   0  0  0  0  0  0  0  0  0  0  0  0
  150.5068  142.3356  158.5761 N   0  0  0  0  0  0  0  0  0  0  0  0
  150.6308  143.6660  159.1629 C   0  0  0  0  0  0  0  0  0  0  0  0
  152.1083  144.0379  159.0433 C   0  0  2  0  0  0  0  0  0  0  0  0
  152.3135  144.6782  157.8910 F   0  0  0  0  0  0  0  0  0  0  0  0
  152.8072  142.6837  159.0043 C   0  0  0  0  0  0  0  0  0  0  0  0
  151.8260  141.7848  158.2342 C   0  0  1  0  0  0  0  0  0  0  0  0
  152.0321  140.3024  158.6050 C   0  0  0  0  0  0  0  0  0  0  0  0
  151.2566  139.3780  158.0286 N   0  0  0  0  0  0  0  0  0  0  0  0
  152.9019  139.9952  159.4173 O   0  0  0  0  0  0  0  0  0  0  0  0
  148.1629  142.2646  158.4087 N   0  0  0  0  0  0  0  0  0  0  0  0
  147.0505  141.9868  157.7234 C   0  0  0  0  0  0  0  0  0  0  0  0
  146.9327  141.4961  156.4889 N   0  0  0  0  0  0  0  0  0  0  0  0
  148.1553  141.2837  155.9236 C   0  0  0  0  0  0  0  0  0  0  0  0
  152.4576  144.6864  159.8472 H   0  0  0  0  0  0  0  0  0  0  0  0
  152.0044  141.9107  157.1648 H   0  0  0  0  0  0  0  0  0  0  0  0
  148.7648  137.9803  155.7822 H   0  0  0  0  0  0  0  0  0  0  0  0
  148.5340  136.5541  154.7688 H   0  0  0  0  0  0  0  0  0  0  0  0
  147.5530  136.7780  156.2101 H   0  0  0  0  0  0  0  0  0  0  0  0
  146.4059  138.7132  155.2281 H   0  0  0  0  0  0  0  0  0  0  0  0
  144.7825  137.1543  152.3268 H   0  0  0  0  0  0  0  0  0  0  0  0
  144.6488  138.5734  153.3778 H   0  0  0  0  0  0  0  0  0  0  0  0
  146.9335  137.8061  151.5356 H   0  0  0  0  0  0  0  0  0  0  0  0
  146.1552  139.3785  151.6410 H   0  0  0  0  0  0  0  0  0  0  0  0
  148.9657  138.8897  152.1072 H   0  0  0  0  0  0  0  0  0  0  0  0
  147.7481  140.9601  152.7050 H   0  0  0  0  0  0  0  0  0  0  0  0
  146.5050  140.7592  153.9116 H   0  0  0  0  0  0  0  0  0  0  0  0
  150.3422  140.4291  153.7039 H   0  0  0  0  0  0  0  0  0  0  0  0
  149.9989  144.4114  158.6769 H   0  0  0  0  0  0  0  0  0  0  0  0
  150.3379  143.6074  160.2118 H   0  0  0  0  0  0  0  0  0  0  0  0
  153.7910  142.7324  158.5362 H   0  0  0  0  0  0  0  0  0  0  0  0
  152.9438  142.3226  160.0255 H   0  0  0  0  0  0  0  0  0  0  0  0
  151.3747  138.4038  158.2656 H   0  0  0  0  0  0  0  0  0  0  0  0
  150.5513  139.6588  157.3631 H   0  0  0  0  0  0  0  0  0  0  0  0
  146.1225  142.1876  158.2381 H   0  0  0  0  0  0  0  0  0  0  0  0
  1  2  1  0  0  0  0
  1 29  1  0  0  0  0
  1 30  1  0  0  0  0
  1 31  1  0  0  0  0
  2  6  1  0  0  0  0
  2  3  1  0  0  0  0
  2 32  1  0  0  0  0
  3  4  1  0  0  0  0
  4  5  1  0  0  0  0
  4 33  1  0  0  0  0
  4 34  1  0  0  0  0
  5  6  1  0  0  0  0
  5 35  1  0  0  0  0
  5 36  1  0  0  0  0
  6  7  1  0  0  0  0
  6  8  1  0  0  0  0
  7 37  1  0  0  0  0
  8  9  1  0  0  0  0
  8 38  1  0  0  0  0
  8 39  1  0  0  0  0
  9 26  1  0  0  0  0
  9 10  1  0  0  0  0
 10 11  2  0  0  0  0
 10 40  1  0  0  0  0
 11 12  1  0  0  0  0
 12 26  2  0  0  0  0
 12 13  1  0  0  0  0
 13 14  1  0  0  0  0
 13 23  2  0  0  0  0
 14 19  1  0  0  0  0
 14 15  1  0  0  0  0
 15 16  1  0  0  0  0
 15 41  1  0  0  0  0
 15 42  1  0  0  0  0
 16 27  1  0  0  0  0
 16 17  1  0  0  0  0
 16 18  1  0  0  0  0
 18 19  1  0  0  0  0
 18 43  1  0  0  0  0
 18 44  1  0  0  0  0
 19 28  1  0  0  0  0
 19 20  1  0  0  0  0
 20 21  1  0  0  0  0
 20 22  2  0  0  0  0
 21 45  1  0  0  0  0
 21 46  1  0  0  0  0
 23 24  1  0  0  0  0
 24 25  2  0  0  0  0
 24 47  1  0  0  0  0
 25 26  1  0  0  0  0
M  END
> <s_m_source_file>
AV-unprocessed.smi

> <i_m_source_file_index>
196

> <i_lp_mmshare_version>
43012

> <i_f3d_flags>
0

> <s_epik_input>
W0NIMl0xW0NIMl1PW0NAQEhdKFtDSDNdKVtDQEBdMShbT0hdKVtDSDJdbihbY0hdbjIpYyhjMjMpbltjSF1uYzNONFtDSDJdW0NASF0oRilbQ0gyXVtDQEhdNEMoPU8pW05IMl0=

> <s_epik_cmdline>
J2VwaWtfcHl0aG9uJywgJy1waCcsICc3LjAnLCAnLXRuJywgJzgnLCAnLW1hJywgJzIwMCcsICctbWV0YWxfYmluZGluZycsICctaW1hZScsICc8aW5maWxlLm1hZT4nLCAnLW9tYWUnLCAnPG91dGZpbGUubWFlPic=

> <r_lp_tautomer_probability>
1

> <r_epik_Ionization_Penalty>
0.000857933

> <r_epik_Ionization_Penalty_Charging>
0

> <r_epik_Ionization_Penalty_Neutral>
0.000857933

> <r_epik_State_Penalty>
0.000462053

> <r_epik_Charging_Adjusted_Penalty>
0.000462053

> <i_epik_Tot_Q>
0

> <i_epik_Tot_abs_Q>
0

> <r_epik_Metal_State_Penalty>
-0

> <b_epik_Metal_Only>
0

> <s_lp_Force_Field>
OPLS_2005

> <r_lp_Energy>
46.3924

> <b_lp_Chiralities_Consistent>
1

> <s_lp_Variant>
AV-unprocessed.smi:196-3

> <Gold.Version>
5.8.1

> <Gold.Id.Protein>
6NUR|6NUR_protein|mol2

> <Gold.PLP.Fitness>
44.6876

> <Gold.PLP.PLP>
-40.6201

> <Gold.PLP.part.hbond>
-1.9295

> <Gold.PLP.part.metal>
0.0000

> <Gold.PLP.part.buried>
-3.9927

> <Gold.PLP.part.nonpolar>
-35.2643

> <Gold.PLP.part.repulsive>
0.4391

> <Gold.PLP.ligand.clash>
0.0000

> <Gold.PLP.ligand.torsion>
0.6454

> <Gold.PLP.Chemscore.Hbond>
1.0000

> <Gold.PLP.Chemscore.CHOScore>
0.6950

> <Gold.PLP.Chemscore.Metal>
0.0000

> <Gold.Chemscore.Hbonds>
donor molecule, donor type, donor heavy atom, donor atom, acceptor molecule, acceptor atom, score
      L1  H     7    37       P1  7957  1.00
      L1  C    10    40       P1  7957  0.66

> <Gold.PLP.Chemscore.Internal.Correction>
0.2732

> <Gold.Rescore>
     Score         DG    S(hbond)    S(metal)    S(lipo)     H(rot)  DE(clash)    DE(int)     intcor
      8.36     -10.10       0.89        0.00      70.84       2.60       0.05       1.70       ----

> <Gold.Chemscore.Fitness>
8.3600

> <Gold.Chemscore.DG>
-10.1033

> <Gold.Chemscore.ZeroCoef>
-5.4800

> <Gold.Chemscore.Hbond>
0.8930

> <Gold.Chemscore.Metal>
0.0000

> <Gold.Chemscore.Lipo>
70.8420

> <Gold.Chemscore.Internal_Hbond>
0.0000

> <Gold.Chemscore.DEClash>
0.0451

> <Gold.Chemscore.DEInternal>
1.6981

> <Gold.Chemscore.Rot>
2.5968

> <Gold.Chemscore.Internal.Correction>
   9.000000E+99

> <Gold.Chemscore.Hbonds>
donor molecule, donor type, donor heavy atom, donor atom, acceptor molecule, acceptor atom, score
      L1  H     7    37       P1  7957  0.83

> <Gold.Chemscore.Hbond.Weighted>
-2.9825

> <Gold.Chemscore.Metal.Weighted>
-0.0000

> <Gold.Chemscore.Lipo.Weighted>
-8.2885

> <Gold.Chemscore.Internal_Hbond.Weighted>
0.0000

> <Gold.Chemscore.DEClash.Weighted>
0.0451

> <Gold.Chemscore.DEInternal.Weighted>
1.6981

> <Gold.Chemscore.Rot.Weighted>
6.6477

> <Gold.Chemscore.Internal.Correction.Weighted>
   9.000000E+99

> <Gold.Protein.RotatedTorsions>
[ 6907 6896 6895 6894 ] final -125.15 input  -60.11 | X-H torsion
[ 7974 7965 7964 7962 ] final  110.62 input  175.53 | X-H torsion
[ 8008 7997 7996 7995 ] final    7.22 input   59.86 | X-H torsion
[ 10167 10162 10161 10158 ] final   52.99 input  -65.29 | X-H torsion
[ 10718 10713 10712 10709 ] final    9.90 input   66.30 | X-H torsion
[ 10763 10752 10751 10750 ] final -162.39 input  -60.55 | X-H torsion
[ 11005 11000 10999 10996 ] final  137.12 input  -57.11 | X-H torsion

> <Gold.Protein.ActiveResidues>
 VAL166  LYS551  ARG553  GLY616  TRP617  ASP618  TYR619  PRO620  LYS621  CYS622 
 ASP623  PHE694  ASN695  SER759  ASP760  ASP761  ALA762  ILE779  LEU786  VAL792 
 PHE793  MET794  SER795  GLU796  ALA797  LYS798  CYS799  TRP800  GLU811  SER814 

> <Gold.Protein.RotatedAtoms>
  150.8839  133.7334  159.2923 H   0  0  0  0  0  0  0  0  0  0  0  0  # atno 6907 bound_to 6896
  151.4906  135.1056  159.9812 H   0  0  0  0  0  0  0  0  0  0  0  0  # atno 6908 bound_to 6896
  152.4777  133.8133  159.7070 H   0  0  0  0  0  0  0  0  0  0  0  0  # atno 6909 bound_to 6896
  145.2526  139.2733  143.4059 H   0  0  0  0  0  0  0  0  0  0  0  0  # atno 7974 bound_to 7965
  154.7510  140.2767  155.6292 H   0  0  0  0  0  0  0  0  0  0  0  0  # atno 8008 bound_to 7997
  156.2895  140.2678  156.2190 H   0  0  0  0  0  0  0  0  0  0  0  0  # atno 8009 bound_to 7997
  155.0137  140.0372  157.2399 H   0  0  0  0  0  0  0  0  0  0  0  0  # atno 8010 bound_to 7997
  140.2455  144.3537  150.6365 H   0  0  0  0  0  0  0  0  0  0  0  0  # atno 10167 bound_to 10162
  156.9731  130.5977  149.5670 H   0  0  0  0  0  0  0  0  0  0  0  0  # atno 10718 bound_to 10713
  154.7218  135.3027  154.9035 H   0  0  0  0  0  0  0  0  0  0  0  0  # atno 10763 bound_to 10752
  153.9904  135.6719  153.4758 H   0  0  0  0  0  0  0  0  0  0  0  0  # atno 10764 bound_to 10752
  153.0840  135.4993  154.8478 H   0  0  0  0  0  0  0  0  0  0  0  0  # atno 10765 bound_to 10752
  140.0092  134.9446  157.0241 H   0  0  0  0  0  0  0  0  0  0  0  0  # atno 11005 bound_to 11000
  146.3298  140.2921  142.8616 LP  0  0  0  0  0  0  0  0  0  0  0  0  # atno 17320 bound_to 7965
  144.9489  140.8157  143.5584 LP  0  0  0  0  0  0  0  0  0  0  0  0  # atno 17321 bound_to 7965
  140.6081  143.2168  151.6941 LP  0  0  0  0  0  0  0  0  0  0  0  0  # atno 17342 bound_to 10162
  139.5063  144.3686  152.0492 LP  0  0  0  0  0  0  0  0  0  0  0  0  # atno 17343 bound_to 10162
  156.0274  130.5367  150.8444 LP  0  0  0  0  0  0  0  0  0  0  0  0  # atno 17370 bound_to 10713
  157.5578  131.0945  150.9603 LP  0  0  0  0  0  0  0  0  0  0  0  0  # atno 17371 bound_to 10713
  140.4585  134.1508  155.7189 LP  0  0  0  0  0  0  0  0  0  0  0  0  # atno 17394 bound_to 11000
  141.1699  133.8630  157.1603 LP  0  0  0  0  0  0  0  0  0  0  0  0  # atno 17395 bound_to 11000

$$$$
