AV-unprocessed.smi:1813|AV-procd|sdf|7342|dock7
  -GOLD-   22720 9 03D 1   1.00000     0.00000
 Structure written by MMmdl.
 40 41  0  0  0  0  0  0  0  0  2 V2000
  145.5989  136.2265  151.3993 C   0  0  0  0  0  0  0  0  0  0  0  0
  146.2168  137.0477  152.4295 N   0  0  0  0  0  0  0  0  0  0  0  0
  146.7654  138.2502  152.2065 C   0  0  0  0  0  0  0  0  0  0  0  0
  146.8046  138.7789  151.0948 O   0  0  0  0  0  0  0  0  0  0  0  0
  147.3777  138.9524  153.4227 C   0  0  0  0  0  0  0  0  0  0  0  0
  148.6235  138.3008  153.9030 N   0  3  2  0  0  0  0  0  0  0  0  0
  148.4087  137.5084  155.1405 C   0  0  0  0  0  0  0  0  0  0  0  0
  149.6764  136.7251  155.5286 C   0  0  0  0  0  0  0  0  0  0  0  0
  150.9042  137.6418  155.6716 C   0  0  2  0  0  0  0  0  0  0  0  0
  150.7975  138.4583  156.8808 N   0  0  0  0  0  0  0  0  0  0  0  0
  151.7679  139.2440  157.3711 C   0  0  0  0  0  0  0  0  0  0  0  0
  152.8695  139.3720  156.8365 O   0  0  0  0  0  0  0  0  0  0  0  0
  151.3747  139.8588  158.5004 N   0  0  0  0  0  0  0  0  0  0  0  0
  152.1072  140.7754  159.2998 C   0  0  0  0  0  0  0  0  0  0  0  0
  151.6058  141.9134  159.7942 N   0  0  0  0  0  0  0  0  0  0  0  0
  152.5485  142.6184  160.5468 C   0  0  0  0  0  0  0  0  0  0  0  0
  153.7709  141.9976  160.6159 C   0  0  0  0  0  0  0  0  0  0  0  0
  153.7877  140.4951  159.7319 S   0  0  0  0  0  0  0  0  0  0  0  0
  151.0582  138.5063  154.4038 C   0  0  0  0  0  0  0  0  0  0  0  0
  149.7585  139.2503  154.0525 C   0  0  0  0  0  0  0  0  0  0  0  0
  145.1478  135.3424  151.8492 H   0  0  0  0  0  0  0  0  0  0  0  0
  146.3410  135.8975  150.6709 H   0  0  0  0  0  0  0  0  0  0  0  0
  144.8167  136.7773  150.8752 H   0  0  0  0  0  0  0  0  0  0  0  0
  146.2304  136.6752  153.3683 H   0  0  0  0  0  0  0  0  0  0  0  0
  147.5652  140.0053  153.2054 H   0  0  0  0  0  0  0  0  0  0  0  0
  146.6222  138.9246  154.2090 H   0  0  0  0  0  0  0  0  0  0  0  0
  148.1070  138.1727  155.9516 H   0  0  0  0  0  0  0  0  0  0  0  0
  147.5902  136.8039  154.9885 H   0  0  0  0  0  0  0  0  0  0  0  0
  149.5073  136.1707  156.4527 H   0  0  0  0  0  0  0  0  0  0  0  0
  149.8788  135.9770  154.7609 H   0  0  0  0  0  0  0  0  0  0  0  0
  151.7872  137.0082  155.7748 H   0  0  0  0  0  0  0  0  0  0  0  0
  149.9276  138.4085  157.3905 H   0  0  0  0  0  0  0  0  0  0  0  0
  150.4416  139.6529  158.8249 H   0  0  0  0  0  0  0  0  0  0  0  0
  152.2629  143.5560  160.9999 H   0  0  0  0  0  0  0  0  0  0  0  0
  154.6588  142.3326  161.1313 H   0  0  0  0  0  0  0  0  0  0  0  0
  151.8771  139.2173  154.5175 H   0  0  0  0  0  0  0  0  0  0  0  0
  151.3348  137.8644  153.5664 H   0  0  0  0  0  0  0  0  0  0  0  0
  149.9080  139.8061  153.1266 H   0  0  0  0  0  0  0  0  0  0  0  0
  149.5229  139.9856  154.8235 H   0  0  0  0  0  0  0  0  0  0  0  0
  148.8866  137.6398  153.1855 H   0  0  0  0  0  0  0  0  0  0  0  0
  1  2  1  0  0  0  0
  1 21  1  0  0  0  0
  1 22  1  0  0  0  0
  1 23  1  0  0  0  0
  2  3  1  0  0  0  0
  2 24  1  0  0  0  0
  3  4  2  0  0  0  0
  3  5  1  0  0  0  0
  5  6  1  0  0  0  0
  5 25  1  0  0  0  0
  5 26  1  0  0  0  0
  6 20  1  0  0  0  0
  6  7  1  0  0  0  0
  6 40  1  0  0  0  0
  7  8  1  0  0  0  0
  7 27  1  0  0  0  0
  7 28  1  0  0  0  0
  8  9  1  0  0  0  0
  8 29  1  0  0  0  0
  8 30  1  0  0  0  0
  9 10  1  0  0  0  0
  9 19  1  0  0  0  0
  9 31  1  0  0  0  0
 10 11  1  0  0  0  0
 10 32  1  0  0  0  0
 11 12  2  0  0  0  0
 11 13  1  0  0  0  0
 13 14  1  0  0  0  0
 13 33  1  0  0  0  0
 14 18  1  0  0  0  0
 14 15  2  0  0  0  0
 15 16  1  0  0  0  0
 16 17  2  0  0  0  0
 16 34  1  0  0  0  0
 17 18  1  0  0  0  0
 17 35  1  0  0  0  0
 19 20  1  0  0  0  0
 19 36  1  0  0  0  0
 19 37  1  0  0  0  0
 20 38  1  0  0  0  0
 20 39  1  0  0  0  0
M  CHG  1   6   1
M  END
> <s_m_source_file>
AV-unprocessed.smi

> <i_m_source_file_index>
1813

> <i_lp_mmshare_version>
43012

> <i_f3d_flags>
0

> <s_epik_input>
W0NIM11bTkhdQyg9TylbQ0gyXU4xW0NIMl1bQ0gyXVtDSF0oW0NIMl1bQ0gyXTEpW05IXUMoPU8pW05IXWMybltjSF1bY0hdczI=

> <s_epik_cmdline>
J2VwaWtfcHl0aG9uJywgJy1waCcsICc3LjAnLCAnLXRuJywgJzgnLCAnLW1hJywgJzIwMCcsICctbWV0YWxfYmluZGluZycsICctaW1hZScsICc8aW5maWxlLm1hZT4nLCAnLW9tYWUnLCAnPG91dGZpbGUubWFlPic=

> <r_lp_tautomer_probability>
0.999

> <r_epik_Ionization_Penalty>
0.862509

> <r_epik_Ionization_Penalty_Charging>
0.862349

> <r_epik_Ionization_Penalty_Neutral>
0.000159522

> <r_epik_State_Penalty>
0.898939

> <r_epik_Charging_Adjusted_Penalty>
1.76129

> <i_epik_Tot_Q>
1

> <i_epik_Tot_abs_Q>
1

> <r_epik_Metal_State_Penalty>
0.936827

> <b_epik_Metal_Only>
0

> <s_lp_Force_Field>
OPLS_2005

> <r_lp_Energy>
11.766

> <b_lp_Chiralities_Consistent>
1

> <s_lp_Variant>
AV-unprocessed.smi:1813-3

> <Gold.Version>
5.8.1

> <Gold.Id.Protein>
6NUR|6NUR_protein|mol2

> <Gold.PLP.Fitness>
43.5437

> <Gold.PLP.PLP>
-34.0807

> <Gold.PLP.part.hbond>
-4.6097

> <Gold.PLP.part.metal>
0.0000

> <Gold.PLP.part.buried>
-3.2718

> <Gold.PLP.part.nonpolar>
-26.8462

> <Gold.PLP.part.repulsive>
1.1887

> <Gold.PLP.ligand.clash>
0.0000

> <Gold.PLP.ligand.torsion>
1.2020

> <Gold.PLP.Chemscore.Hbond>
3.9440

> <Gold.PLP.Chemscore.CHOScore>
0.0000

> <Gold.PLP.Chemscore.Metal>
0.0000

> <Gold.Chemscore.Hbonds>
donor molecule, donor type, donor heavy atom, donor atom, acceptor molecule, acceptor atom, score
      L1  H     6    40       P1  7948  2.00
      P1  H  7954  7966       L1     4  0.94
      P1  H  7997  8009       L1    12  1.00

> <Gold.PLP.Chemscore.Internal.Correction>
0.0351

> <Gold.Rescore>
     Score         DG    S(hbond)    S(metal)    S(lipo)     H(rot)  DE(clash)    DE(int)     intcor
     16.19     -18.85       2.97        0.00      68.64       1.79       1.52       1.14       ----

> <Gold.Chemscore.Fitness>
16.1906

> <Gold.Chemscore.DG>
-18.8451

> <Gold.Chemscore.ZeroCoef>
-5.4800

> <Gold.Chemscore.Hbond>
2.9660

> <Gold.Chemscore.Metal>
0.0000

> <Gold.Chemscore.Lipo>
68.6434

> <Gold.Chemscore.Internal_Hbond>
0.0000

> <Gold.Chemscore.DEClash>
1.5187

> <Gold.Chemscore.DEInternal>
1.1357

> <Gold.Chemscore.Rot>
1.7862

> <Gold.Chemscore.Internal.Correction>
   9.000000E+99

> <Gold.Chemscore.Hbonds>
donor molecule, donor type, donor heavy atom, donor atom, acceptor molecule, acceptor atom, score
      L1  H     6    40       P1  7948  1.00
      P1  H  7954  7966       L1     4  0.70
      P1  H  7997  8009       L1    12  1.00

> <Gold.Chemscore.Hbond.Weighted>
-9.9065

> <Gold.Chemscore.Metal.Weighted>
-0.0000

> <Gold.Chemscore.Lipo.Weighted>
-8.0313

> <Gold.Chemscore.Internal_Hbond.Weighted>
0.0000

> <Gold.Chemscore.DEClash.Weighted>
1.5187

> <Gold.Chemscore.DEInternal.Weighted>
1.1357

> <Gold.Chemscore.Rot.Weighted>
4.5726

> <Gold.Chemscore.Internal.Correction.Weighted>
   9.000000E+99

> <Gold.Protein.RotatedTorsions>
[ 6907 6896 6895 6894 ] final -101.99 input  -60.11 | X-H torsion
[ 7974 7965 7964 7962 ] final -173.96 input  175.53 | X-H torsion
[ 8008 7997 7996 7995 ] final -166.09 input   59.86 | X-H torsion
[ 10167 10162 10161 10158 ] final -138.25 input  -65.29 | X-H torsion
[ 10718 10713 10712 10709 ] final  170.25 input   66.30 | X-H torsion
[ 10763 10752 10751 10750 ] final  -73.86 input  -60.55 | X-H torsion
[ 11005 11000 10999 10996 ] final  177.95 input  -57.11 | X-H torsion

> <Gold.Protein.ActiveResidues>
 VAL166  LYS551  ARG553  GLY616  TRP617  ASP618  TYR619  PRO620  LYS621  CYS622 
 ASP623  PHE694  ASN695  SER759  ASP760  ASP761  ALA762  ILE779  LEU786  VAL792 
 PHE793  MET794  SER795  GLU796  ALA797  LYS798  CYS799  TRP800  GLU811  SER814 

> <Gold.Protein.RotatedAtoms>
  150.7177  134.0649  159.3844 H   0  0  0  0  0  0  0  0  0  0  0  0  # atno 6907 bound_to 6896
  151.8630  135.0515  160.0480 H   0  0  0  0  0  0  0  0  0  0  0  0  # atno 6908 bound_to 6896
  152.2702  133.5340  159.5471 H   0  0  0  0  0  0  0  0  0  0  0  0  # atno 6909 bound_to 6896
  144.7134  140.1543  143.6381 H   0  0  0  0  0  0  0  0  0  0  0  0  # atno 7974 bound_to 7965
  155.8590  140.0975  157.1626 H   0  0  0  0  0  0  0  0  0  0  0  0  # atno 8008 bound_to 7997
  154.3989  140.1368  156.4000 H   0  0  0  0  0  0  0  0  0  0  0  0  # atno 8009 bound_to 7997
  155.7877  140.3456  155.5335 H   0  0  0  0  0  0  0  0  0  0  0  0  # atno 8010 bound_to 7997
  139.8497  143.7214  152.2658 H   0  0  0  0  0  0  0  0  0  0  0  0  # atno 10167 bound_to 10162
  157.0109  131.0204  151.2803 H   0  0  0  0  0  0  0  0  0  0  0  0  # atno 10718 bound_to 10713
  154.4653  135.5883  153.6284 H   0  0  0  0  0  0  0  0  0  0  0  0  # atno 10763 bound_to 10752
  152.9828  135.6053  154.3435 H   0  0  0  0  0  0  0  0  0  0  0  0  # atno 10764 bound_to 10752
  154.3311  135.2842  155.2450 H   0  0  0  0  0  0  0  0  0  0  0  0  # atno 10765 bound_to 10752
  140.3897  134.6873  157.4500 H   0  0  0  0  0  0  0  0  0  0  0  0  # atno 11005 bound_to 11000
  145.9088  139.2474  143.1450 LP  0  0  0  0  0  0  0  0  0  0  0  0  # atno 17320 bound_to 7965
  145.9737  140.8739  143.0149 LP  0  0  0  0  0  0  0  0  0  0  0  0  # atno 17321 bound_to 7965
  139.7477  144.7542  151.0554 LP  0  0  0  0  0  0  0  0  0  0  0  0  # atno 17342 bound_to 10162
  140.7789  143.4896  150.9910 LP  0  0  0  0  0  0  0  0  0  0  0  0  # atno 17343 bound_to 10162
  157.5321  130.8065  149.7929 LP  0  0  0  0  0  0  0  0  0  0  0  0  # atno 17370 bound_to 10713
  156.0136  130.3822  150.2182 LP  0  0  0  0  0  0  0  0  0  0  0  0  # atno 17371 bound_to 10713
  140.0415  134.6260  155.8974 LP  0  0  0  0  0  0  0  0  0  0  0  0  # atno 17394 bound_to 11000
  141.1895  133.6565  156.5370 LP  0  0  0  0  0  0  0  0  0  0  0  0  # atno 17395 bound_to 11000

$$$$
