AV-unprocessed.smi:1678|AV-procd|sdf|6728|dock4
  -GOLD-   22720 7473D 1   1.00000     0.00000
 Structure written by MMmdl.
 43 44  0  0  0  0  0  0  0  0  1 V2000
  147.5181  133.1512  152.4482 C   0  0  0  0  0  0  0  0  0  0  0  0
  146.3208  133.2043  151.5130 C   0  0  0  0  0  0  0  0  0  0  0  0
  145.7127  131.9992  151.1015 C   0  0  0  0  0  0  0  0  0  0  0  0
  144.6066  132.0495  150.2362 C   0  0  0  0  0  0  0  0  0  0  0  0
  144.1524  133.3114  149.8159 C   0  0  0  0  0  0  0  0  0  0  0  0
  144.7276  134.4676  150.2038 N   0  0  0  0  0  0  0  0  0  0  0  0
  145.7964  134.4372  151.0392 C   0  0  0  0  0  0  0  0  0  0  0  0
  146.4528  135.6176  151.4898 N   0  0  0  0  0  0  0  0  0  0  0  0
  145.9046  136.7557  151.9513 C   0  0  0  0  0  0  0  0  0  0  0  0
  144.6975  136.9741  152.0596 O   0  0  0  0  0  0  0  0  0  0  0  0
  146.8484  137.6461  152.2895 N   0  0  0  0  0  0  0  0  0  0  0  0
  146.5851  138.9761  152.8256 C   0  0  0  0  0  0  0  0  0  0  0  0
  147.1675  139.1407  154.2421 C   0  0  0  0  0  0  0  0  0  0  0  0
  148.5960  139.4772  154.1930 N   0  0  0  0  0  0  0  0  0  0  0  0
  148.9321  140.8408  153.7508 C   0  0  0  0  0  0  0  0  0  0  0  0
  149.4915  141.7414  154.8774 C   0  0  0  0  0  0  0  0  0  0  0  0
  150.2624  141.0274  156.0052 C   0  0  0  0  0  0  0  0  0  0  0  0
  151.3996  140.0983  155.5318 C   0  0  0  0  0  0  0  0  0  0  0  0
  151.0193  139.0176  154.4918 C   0  0  0  0  0  0  0  0  0  0  0  0
  149.5474  138.5774  154.5457 C   0  0  0  0  0  0  0  0  0  0  0  0
  149.2859  137.4310  154.9104 O   0  0  0  0  0  0  0  0  0  0  0  0
  147.7638  132.1244  152.7212 H   0  0  0  0  0  0  0  0  0  0  0  0
  147.3108  133.7014  153.3664 H   0  0  0  0  0  0  0  0  0  0  0  0
  148.3944  133.5901  151.9704 H   0  0  0  0  0  0  0  0  0  0  0  0
  146.0873  131.0455  151.4431 H   0  0  0  0  0  0  0  0  0  0  0  0
  144.1191  131.1451  149.9035 H   0  0  0  0  0  0  0  0  0  0  0  0
  143.3058  133.3961  149.1507 H   0  0  0  0  0  0  0  0  0  0  0  0
  147.4609  135.5883  151.4590 H   0  0  0  0  0  0  0  0  0  0  0  0
  147.8163  137.3870  152.1676 H   0  0  0  0  0  0  0  0  0  0  0  0
  147.0364  139.7064  152.1533 H   0  0  0  0  0  0  0  0  0  0  0  0
  145.5117  139.1725  152.8187 H   0  0  0  0  0  0  0  0  0  0  0  0
  146.6247  139.9162  154.7856 H   0  0  0  0  0  0  0  0  0  0  0  0
  147.0034  138.2276  154.8152 H   0  0  0  0  0  0  0  0  0  0  0  0
  149.6510  140.7841  152.9334 H   0  0  0  0  0  0  0  0  0  0  0  0
  148.0689  141.3377  153.3073 H   0  0  0  0  0  0  0  0  0  0  0  0
  150.1237  142.5101  154.4318 H   0  0  0  0  0  0  0  0  0  0  0  0
  148.6593  142.2768  155.3360 H   0  0  0  0  0  0  0  0  0  0  0  0
  150.6789  141.7793  156.6759 H   0  0  0  0  0  0  0  0  0  0  0  0
  149.5611  140.4606  156.6194 H   0  0  0  0  0  0  0  0  0  0  0  0
  152.2052  140.7069  155.1196 H   0  0  0  0  0  0  0  0  0  0  0  0
  151.8246  139.6068  156.4076 H   0  0  0  0  0  0  0  0  0  0  0  0
  151.2472  139.3686  153.4856 H   0  0  0  0  0  0  0  0  0  0  0  0
  151.6584  138.1451  154.6329 H   0  0  0  0  0  0  0  0  0  0  0  0
  1  2  1  0  0  0  0
  1 22  1  0  0  0  0
  1 23  1  0  0  0  0
  1 24  1  0  0  0  0
  2  7  1  0  0  0  0
  2  3  2  0  0  0  0
  3  4  1  0  0  0  0
  3 25  1  0  0  0  0
  4  5  2  0  0  0  0
  4 26  1  0  0  0  0
  5  6  1  0  0  0  0
  5 27  1  0  0  0  0
  6  7  2  0  0  0  0
  7  8  1  0  0  0  0
  8  9  1  0  0  0  0
  8 28  1  0  0  0  0
  9 10  2  0  0  0  0
  9 11  1  0  0  0  0
 11 12  1  0  0  0  0
 11 29  1  0  0  0  0
 12 13  1  0  0  0  0
 12 30  1  0  0  0  0
 12 31  1  0  0  0  0
 13 14  1  0  0  0  0
 13 32  1  0  0  0  0
 13 33  1  0  0  0  0
 14 20  1  0  0  0  0
 14 15  1  0  0  0  0
 15 16  1  0  0  0  0
 15 34  1  0  0  0  0
 15 35  1  0  0  0  0
 16 17  1  0  0  0  0
 16 36  1  0  0  0  0
 16 37  1  0  0  0  0
 17 18  1  0  0  0  0
 17 38  1  0  0  0  0
 17 39  1  0  0  0  0
 18 19  1  0  0  0  0
 18 40  1  0  0  0  0
 18 41  1  0  0  0  0
 19 20  1  0  0  0  0
 19 42  1  0  0  0  0
 19 43  1  0  0  0  0
 20 21  2  0  0  0  0
M  END
> <s_m_source_file>
AV-unprocessed.smi

> <i_m_source_file_index>
1678

> <i_lp_mmshare_version>
43012

> <i_f3d_flags>
0

> <s_epik_input>
W0NIM11jMVtjSF1bY0hdW2NIXW5jMVtOSF1DKD1PKVtOSF1bQ0gyXVtDSDJdTjJbQ0gyXVtDSDJdW0NIMl1bQ0gyXVtDSDJdQzI9Tw==

> <s_epik_cmdline>
J2VwaWtfcHl0aG9uJywgJy1waCcsICc3LjAnLCAnLXRuJywgJzgnLCAnLW1hJywgJzIwMCcsICctbWV0YWxfYmluZGluZycsICctaW1hZScsICc8aW5maWxlLm1hZT4nLCAnLW9tYWUnLCAnPG91dGZpbGUubWFlPic=

> <r_lp_tautomer_probability>
1

> <r_epik_Ionization_Penalty>
5.3034e-05

> <r_epik_Ionization_Penalty_Charging>
0

> <r_epik_Ionization_Penalty_Neutral>
5.3034e-05

> <r_epik_State_Penalty>
-0

> <r_epik_Charging_Adjusted_Penalty>
0

> <i_epik_Tot_Q>
0

> <i_epik_Tot_abs_Q>
0

> <r_epik_Metal_State_Penalty>
-0

> <b_epik_Metal_Only>
0

> <s_lp_Force_Field>
OPLS_2005

> <r_lp_Energy>
24.0679

> <b_lp_Chiralities_Consistent>
1

> <s_lp_Variant>
AV-unprocessed.smi:1678-1

> <Gold.Version>
5.8.1

> <Gold.Id.Protein>
6NUR|6NUR_protein|mol2

> <Gold.PLP.Fitness>
45.5842

> <Gold.PLP.PLP>
-37.7992

> <Gold.PLP.part.hbond>
-2.0000

> <Gold.PLP.part.metal>
0.0000

> <Gold.PLP.part.buried>
-3.6672

> <Gold.PLP.part.nonpolar>
-34.1838

> <Gold.PLP.part.repulsive>
0.7854

> <Gold.PLP.ligand.clash>
0.0000

> <Gold.PLP.ligand.torsion>
0.6308

> <Gold.PLP.Chemscore.Hbond>
2.0000

> <Gold.PLP.Chemscore.CHOScore>
1.0000

> <Gold.PLP.Chemscore.Metal>
0.0000

> <Gold.Chemscore.Hbonds>
donor molecule, donor type, donor heavy atom, donor atom, acceptor molecule, acceptor atom, score
      L1  H     8    28       P1  7948  1.00
      L1  H    11    29       P1  7948  1.00
      L1  C     5    27       P1 10186  0.97

> <Gold.PLP.Chemscore.Internal.Correction>
0.0467

> <Gold.Rescore>
     Score         DG    S(hbond)    S(metal)    S(lipo)     H(rot)  DE(clash)    DE(int)     intcor
     17.30     -17.98       1.92        0.00      85.14       1.51       0.04       0.64       ----

> <Gold.Chemscore.Fitness>
17.3005

> <Gold.Chemscore.DG>
-17.9769

> <Gold.Chemscore.ZeroCoef>
-5.4800

> <Gold.Chemscore.Hbond>
1.9188

> <Gold.Chemscore.Metal>
0.0000

> <Gold.Chemscore.Lipo>
85.1412

> <Gold.Chemscore.Internal_Hbond>
0.0000

> <Gold.Chemscore.DEClash>
0.0392

> <Gold.Chemscore.DEInternal>
0.6372

> <Gold.Chemscore.Rot>
1.5131

> <Gold.Chemscore.Internal.Correction>
   9.000000E+99

> <Gold.Chemscore.Hbonds>
donor molecule, donor type, donor heavy atom, donor atom, acceptor molecule, acceptor atom, score
      L1  H     8    28       P1  7948  0.91
      L1  H    11    29       P1  7948  0.94

> <Gold.Chemscore.Hbond.Weighted>
-6.4088

> <Gold.Chemscore.Metal.Weighted>
-0.0000

> <Gold.Chemscore.Lipo.Weighted>
-9.9615

> <Gold.Chemscore.Internal_Hbond.Weighted>
0.0000

> <Gold.Chemscore.DEClash.Weighted>
0.0392

> <Gold.Chemscore.DEInternal.Weighted>
0.6372

> <Gold.Chemscore.Rot.Weighted>
3.8735

> <Gold.Chemscore.Internal.Correction.Weighted>
   9.000000E+99

> <Gold.Protein.RotatedTorsions>
[ 6907 6896 6895 6894 ] final -177.64 input  -60.11 | X-H torsion
[ 7974 7965 7964 7962 ] final   45.21 input  175.53 | X-H torsion
[ 8008 7997 7996 7995 ] final  -71.68 input   59.86 | X-H torsion
[ 10167 10162 10161 10158 ] final -177.53 input  -65.29 | X-H torsion
[ 10718 10713 10712 10709 ] final  149.12 input   66.30 | X-H torsion
[ 10763 10752 10751 10750 ] final  -58.65 input  -60.55 | X-H torsion
[ 11005 11000 10999 10996 ] final  147.50 input  -57.11 | X-H torsion

> <Gold.Protein.ActiveResidues>
 VAL166  LYS551  ARG553  GLY616  TRP617  ASP618  TYR619  PRO620  LYS621  CYS622 
 ASP623  PHE694  ASN695  SER759  ASP760  ASP761  ALA762  ILE779  LEU786  VAL792 
 PHE793  MET794  SER795  GLU796  ALA797  LYS798  CYS799  TRP800  GLU811  SER814 

> <Gold.Protein.RotatedAtoms>
  151.6243  133.3337  159.3094 H   0  0  0  0  0  0  0  0  0  0  0  0  # atno 6907 bound_to 6896
  150.8090  134.7236  159.6682 H   0  0  0  0  0  0  0  0  0  0  0  0  # atno 6908 bound_to 6896
  152.4186  134.6001  160.0049 H   0  0  0  0  0  0  0  0  0  0  0  0  # atno 6909 bound_to 6896
  146.0500  139.4989  142.9724 H   0  0  0  0  0  0  0  0  0  0  0  0  # atno 7974 bound_to 7965
  154.5107  140.0811  156.7984 H   0  0  0  0  0  0  0  0  0  0  0  0  # atno 8008 bound_to 7997
  155.3792  140.3427  155.4228 H   0  0  0  0  0  0  0  0  0  0  0  0  # atno 8009 bound_to 7997
  156.1569  140.1576  156.8664 H   0  0  0  0  0  0  0  0  0  0  0  0  # atno 8010 bound_to 7997
  139.5475  144.2195  152.1016 H   0  0  0  0  0  0  0  0  0  0  0  0  # atno 10167 bound_to 10162
  157.3000  131.0869  151.1397 H   0  0  0  0  0  0  0  0  0  0  0  0  # atno 10718 bound_to 10713
  154.2414  135.6342  153.5208 H   0  0  0  0  0  0  0  0  0  0  0  0  # atno 10763 bound_to 10752
  152.9929  135.5543  154.5906 H   0  0  0  0  0  0  0  0  0  0  0  0  # atno 10764 bound_to 10752
  154.5412  135.2895  155.1068 H   0  0  0  0  0  0  0  0  0  0  0  0  # atno 10765 bound_to 10752
  140.0881  134.9057  157.1608 H   0  0  0  0  0  0  0  0  0  0  0  0  # atno 11005 bound_to 11000
  145.6741  141.0209  143.1642 LP  0  0  0  0  0  0  0  0  0  0  0  0  # atno 17320 bound_to 7965
  144.7117  139.8344  143.7412 LP  0  0  0  0  0  0  0  0  0  0  0  0  # atno 17321 bound_to 7965
  140.1685  144.4958  150.6593 LP  0  0  0  0  0  0  0  0  0  0  0  0  # atno 17342 bound_to 10162
  140.6728  143.2293  151.5582 LP  0  0  0  0  0  0  0  0  0  0  0  0  # atno 17343 bound_to 10162
  157.2760  130.6727  149.6042 LP  0  0  0  0  0  0  0  0  0  0  0  0  # atno 17370 bound_to 10713
  155.9671  130.4464  150.5541 LP  0  0  0  0  0  0  0  0  0  0  0  0  # atno 17371 bound_to 10713
  140.3391  134.2724  155.7215 LP  0  0  0  0  0  0  0  0  0  0  0  0  # atno 17394 bound_to 11000
  141.2069  133.7820  157.0149 LP  0  0  0  0  0  0  0  0  0  0  0  0  # atno 17395 bound_to 11000

$$$$
