AV-unprocessed.smi:2461|AV-procd|sdf|9716|dock9
  -GOLD-   2272013353D 1   1.00000     0.00000
 Structure written by MMmdl.
 36 37  0  0  0  0  0  0  0  0  1 V2000
  144.8537  132.1935  149.3417 C   0  0  0  0  0  0  0  0  0  0  0  0
  144.1756  133.4238  149.9611 C   0  0  0  0  0  0  0  0  0  0  0  0
  145.0846  134.2121  150.8983 C   0  0  0  0  0  0  0  0  0  0  0  0
  146.1886  133.3382  151.4993 C   0  0  0  0  0  0  0  0  0  0  0  0
  147.1355  134.0222  152.3726 N   0  0  0  0  0  0  0  0  0  0  0  0
  147.5308  133.5797  153.5746 C   0  0  0  0  0  0  0  0  0  0  0  0
  147.0967  132.5528  154.0970 O   0  0  0  0  0  0  0  0  0  0  0  0
  148.4574  134.3928  154.1109 N   0  0  0  0  0  0  0  0  0  0  0  0
  149.1330  134.2501  155.3514 C   0  0  0  0  0  0  0  0  0  0  0  0
  150.0649  135.2655  155.6625 C   0  0  0  0  0  0  0  0  0  0  0  0
  150.7640  135.1570  156.8821 C   0  0  0  0  0  0  0  0  0  0  0  0
  151.6906  136.1223  157.2177 O   0  0  0  0  0  0  0  0  0  0  0  0
  151.4961  137.4418  156.7217 C   0  0  0  0  0  0  0  0  0  0  0  0
  150.5449  134.1217  157.7283 N   0  0  0  0  0  0  0  0  0  0  0  0
  149.6420  133.2169  157.3483 C   0  0  0  0  0  0  0  0  0  0  0  0
  148.9339  133.2259  156.2175 N   0  0  0  0  0  0  0  0  0  0  0  0
  145.3676  135.6742  150.5906 C   0  0  0  0  0  0  0  0  0  0  0  0
  144.4808  135.3145  151.7491 C   0  0  0  0  0  0  0  0  0  0  0  0
  144.1556  131.6498  148.7050 H   0  0  0  0  0  0  0  0  0  0  0  0
  145.2019  131.5056  150.1124 H   0  0  0  0  0  0  0  0  0  0  0  0
  145.7107  132.4689  148.7277 H   0  0  0  0  0  0  0  0  0  0  0  0
  143.8069  134.0844  149.1760 H   0  0  0  0  0  0  0  0  0  0  0  0
  143.2960  133.0942  150.5152 H   0  0  0  0  0  0  0  0  0  0  0  0
  145.7228  132.5460  152.0854 H   0  0  0  0  0  0  0  0  0  0  0  0
  146.7417  132.8239  150.7121 H   0  0  0  0  0  0  0  0  0  0  0  0
  147.5403  134.8780  152.0219 H   0  0  0  0  0  0  0  0  0  0  0  0
  148.7270  135.1932  153.5583 H   0  0  0  0  0  0  0  0  0  0  0  0
  150.2451  136.0936  154.9924 H   0  0  0  0  0  0  0  0  0  0  0  0
  152.2992  138.0843  157.0824 H   0  0  0  0  0  0  0  0  0  0  0  0
  150.5530  137.8647  157.0708 H   0  0  0  0  0  0  0  0  0  0  0  0
  151.5178  137.4659  155.6312 H   0  0  0  0  0  0  0  0  0  0  0  0
  149.4661  132.3930  158.0243 H   0  0  0  0  0  0  0  0  0  0  0  0
  146.3489  136.0784  150.8297 H   0  0  0  0  0  0  0  0  0  0  0  0
  144.8933  136.1109  149.7141 H   0  0  0  0  0  0  0  0  0  0  0  0
  143.4162  135.5127  151.6435 H   0  0  0  0  0  0  0  0  0  0  0  0
  144.8827  135.4693  152.7485 H   0  0  0  0  0  0  0  0  0  0  0  0
  1  2  1  0  0  0  0
  1 19  1  0  0  0  0
  1 20  1  0  0  0  0
  1 21  1  0  0  0  0
  2  3  1  0  0  0  0
  2 22  1  0  0  0  0
  2 23  1  0  0  0  0
  3 18  1  0  0  0  0
  3  4  1  0  0  0  0
  3 17  1  0  0  0  0
  4  5  1  0  0  0  0
  4 24  1  0  0  0  0
  4 25  1  0  0  0  0
  5  6  1  0  0  0  0
  5 26  1  0  0  0  0
  6  7  2  0  0  0  0
  6  8  1  0  0  0  0
  8  9  1  0  0  0  0
  8 27  1  0  0  0  0
  9 16  1  0  0  0  0
  9 10  2  0  0  0  0
 10 11  1  0  0  0  0
 10 28  1  0  0  0  0
 11 12  1  0  0  0  0
 11 14  2  0  0  0  0
 12 13  1  0  0  0  0
 13 29  1  0  0  0  0
 13 30  1  0  0  0  0
 13 31  1  0  0  0  0
 14 15  1  0  0  0  0
 15 16  2  0  0  0  0
 15 32  1  0  0  0  0
 17 18  1  0  0  0  0
 17 33  1  0  0  0  0
 17 34  1  0  0  0  0
 18 35  1  0  0  0  0
 18 36  1  0  0  0  0
M  END
> <s_m_source_file>
AV-unprocessed.smi

> <i_m_source_file_index>
2461

> <i_lp_mmshare_version>
43012

> <i_f3d_flags>
0

> <s_epik_input>
W0NIM11bQ0gyXUMxKFtDSDJdW0NIMl0xKVtDSDJdW05IXUMoPU8pW05IXWMyW2NIXWMoT1tDSDNdKW5bY0hdbjI=

> <s_epik_cmdline>
J2VwaWtfcHl0aG9uJywgJy1waCcsICc3LjAnLCAnLXRuJywgJzgnLCAnLW1hJywgJzIwMCcsICctbWV0YWxfYmluZGluZycsICctaW1hZScsICc8aW5maWxlLm1hZT4nLCAnLW9tYWUnLCAnPG91dGZpbGUubWFlPic=

> <r_lp_tautomer_probability>
1

> <r_epik_Ionization_Penalty>
2.7206e-05

> <r_epik_Ionization_Penalty_Charging>
0

> <r_epik_Ionization_Penalty_Neutral>
2.7206e-05

> <r_epik_State_Penalty>
-0

> <r_epik_Charging_Adjusted_Penalty>
0

> <i_epik_Tot_Q>
0

> <i_epik_Tot_abs_Q>
0

> <r_epik_Metal_State_Penalty>
-0

> <b_epik_Metal_Only>
0

> <s_lp_Force_Field>
OPLS_2005

> <r_lp_Energy>
17.684

> <b_lp_Chiralities_Consistent>
1

> <s_lp_Variant>
AV-unprocessed.smi:2461-1

> <Gold.Version>
5.8.1

> <Gold.Id.Protein>
6NUR|6NUR_protein|mol2

> <Gold.PLP.Fitness>
39.7506

> <Gold.PLP.PLP>
-30.8099

> <Gold.PLP.part.hbond>
-4.0000

> <Gold.PLP.part.metal>
0.0000

> <Gold.PLP.part.buried>
-4.2921

> <Gold.PLP.part.nonpolar>
-22.4505

> <Gold.PLP.part.repulsive>
0.1084

> <Gold.PLP.ligand.clash>
0.0000

> <Gold.PLP.ligand.torsion>
1.3700

> <Gold.PLP.Chemscore.Hbond>
3.5031

> <Gold.PLP.Chemscore.CHOScore>
0.0000

> <Gold.PLP.Chemscore.Metal>
0.0000

> <Gold.Chemscore.Hbonds>
donor molecule, donor type, donor heavy atom, donor atom, acceptor molecule, acceptor atom, score
      L1  H     5    26       P1  7948  1.00
      L1  H     8    27       P1  7948  1.00
      P1  H  6896  6907       L1    14  0.37

> <Gold.PLP.Chemscore.Internal.Correction>
1.1714

> <Gold.Rescore>
     Score         DG    S(hbond)    S(metal)    S(lipo)     H(rot)  DE(clash)    DE(int)     intcor
     11.21     -14.13       2.17        0.00      52.83       1.87       0.12       2.80       ----

> <Gold.Chemscore.Fitness>
11.2106

> <Gold.Chemscore.DG>
-14.1303

> <Gold.Chemscore.ZeroCoef>
-5.4800

> <Gold.Chemscore.Hbond>
2.1698

> <Gold.Chemscore.Metal>
0.0000

> <Gold.Chemscore.Lipo>
52.8298

> <Gold.Chemscore.Internal_Hbond>
0.0000

> <Gold.Chemscore.DEClash>
0.1214

> <Gold.Chemscore.DEInternal>
2.7983

> <Gold.Chemscore.Rot>
1.8664

> <Gold.Chemscore.Internal.Correction>
   9.000000E+99

> <Gold.Chemscore.Hbonds>
donor molecule, donor type, donor heavy atom, donor atom, acceptor molecule, acceptor atom, score
      L1  H     5    26       P1  7948  0.80
      L1  H     8    27       P1  7948  0.75
      P1  H  6896  6907       L1    14  0.16

> <Gold.Chemscore.Hbond.Weighted>
-7.2473

> <Gold.Chemscore.Metal.Weighted>
-0.0000

> <Gold.Chemscore.Lipo.Weighted>
-6.1811

> <Gold.Chemscore.Internal_Hbond.Weighted>
0.0000

> <Gold.Chemscore.DEClash.Weighted>
0.1214

> <Gold.Chemscore.DEInternal.Weighted>
2.7983

> <Gold.Chemscore.Rot.Weighted>
4.7781

> <Gold.Chemscore.Internal.Correction.Weighted>
   9.000000E+99

> <Gold.Protein.RotatedTorsions>
[ 6907 6896 6895 6894 ] final -152.20 input  -60.11 | X-H torsion
[ 7974 7965 7964 7962 ] final -134.02 input  175.53 | X-H torsion
[ 8008 7997 7996 7995 ] final -153.52 input   59.86 | X-H torsion
[ 10167 10162 10161 10158 ] final -155.75 input  -65.29 | X-H torsion
[ 10718 10713 10712 10709 ] final   41.40 input   66.30 | X-H torsion
[ 10763 10752 10751 10750 ] final  124.20 input  -60.55 | X-H torsion
[ 11005 11000 10999 10996 ] final  -53.31 input  -57.11 | X-H torsion

> <Gold.Protein.ActiveResidues>
 VAL166  LYS551  ARG553  GLY616  TRP617  ASP618  TYR619  PRO620  LYS621  CYS622 
 ASP623  PHE694  ASN695  SER759  ASP760  ASP761  ALA762  ILE779  LEU786  VAL792 
 PHE793  MET794  SER795  GLU796  ALA797  LYS798  CYS799  TRP800  GLU811  SER814 

> <Gold.Protein.RotatedAtoms>
  151.2243  133.4485  159.2601 H   0  0  0  0  0  0  0  0  0  0  0  0  # atno 6907 bound_to 6896
  151.0855  134.9884  159.8387 H   0  0  0  0  0  0  0  0  0  0  0  0  # atno 6908 bound_to 6896
  152.5429  134.2180  159.8829 H   0  0  0  0  0  0  0  0  0  0  0  0  # atno 6909 bound_to 6896
  144.9140  140.6931  143.5007 H   0  0  0  0  0  0  0  0  0  0  0  0  # atno 7974 bound_to 7965
  155.6722  140.0734  157.2516 H   0  0  0  0  0  0  0  0  0  0  0  0  # atno 8008 bound_to 7997
  154.4121  140.1697  156.1942 H   0  0  0  0  0  0  0  0  0  0  0  0  # atno 8009 bound_to 7997
  155.9607  140.3370  155.6491 H   0  0  0  0  0  0  0  0  0  0  0  0  # atno 8010 bound_to 7997
  139.6905  143.9428  152.2383 H   0  0  0  0  0  0  0  0  0  0  0  0  # atno 10167 bound_to 10162
  157.3931  130.7818  149.7286 H   0  0  0  0  0  0  0  0  0  0  0  0  # atno 10718 bound_to 10713
  153.6576  135.3352  155.3118 H   0  0  0  0  0  0  0  0  0  0  0  0  # atno 10763 bound_to 10752
  154.8522  135.4356  154.1838 H   0  0  0  0  0  0  0  0  0  0  0  0  # atno 10764 bound_to 10752
  153.2796  135.7008  153.7473 H   0  0  0  0  0  0  0  0  0  0  0  0  # atno 10765 bound_to 10752
  141.0969  133.6623  156.4153 H   0  0  0  0  0  0  0  0  0  0  0  0  # atno 11005 bound_to 11000
  145.3407  139.1733  143.4487 LP  0  0  0  0  0  0  0  0  0  0  0  0  # atno 17320 bound_to 7965
  146.3172  140.3447  142.8651 LP  0  0  0  0  0  0  0  0  0  0  0  0  # atno 17321 bound_to 7965
  139.9243  144.6781  150.8429 LP  0  0  0  0  0  0  0  0  0  0  0  0  # atno 17342 bound_to 10162
  140.7681  143.3353  151.2322 LP  0  0  0  0  0  0  0  0  0  0  0  0  # atno 17343 bound_to 10162
  155.9803  130.4030  150.3534 LP  0  0  0  0  0  0  0  0  0  0  0  0  # atno 17370 bound_to 10713
  157.1653  131.0355  151.2821 LP  0  0  0  0  0  0  0  0  0  0  0  0  # atno 17371 bound_to 10713
  140.5117  134.6389  157.5286 LP  0  0  0  0  0  0  0  0  0  0  0  0  # atno 17394 bound_to 11000
  139.9809  134.7139  155.9862 LP  0  0  0  0  0  0  0  0  0  0  0  0  # atno 17395 bound_to 11000

$$$$
