AV-unprocessed.smi:141|AV-procd|sdf|1188|dock5
  -GOLD-   2262018343D 1   1.00000     0.00000
 Structure written by MMmdl.
 56 59  0  0  0  0  0  0  0  0  1 V2000
  148.1163  138.3445  158.4920 O   0  0  0  0  0  0  0  0  0  0  0  0
  149.2626  137.9985  158.1989 C   0  0  0  0  0  0  0  0  0  0  0  0
  149.6859  136.5333  158.4380 C   0  0  0  0  0  0  0  0  0  0  0  0
  148.6365  135.7082  159.0781 N   0  0  0  0  0  0  0  0  0  0  0  0
  148.1953  134.5352  158.4159 C   0  0  0  0  0  0  0  0  0  0  0  0
  148.6806  134.1902  157.3373 O   0  0  0  0  0  0  0  0  0  0  0  0
  147.1368  133.7911  159.0894 C   0  0  0  0  0  0  0  0  0  0  0  0
  146.6516  132.6701  158.5294 F   0  0  0  0  0  0  0  0  0  0  0  0
  146.6306  134.2143  160.2658 C   0  0  0  0  0  0  0  0  0  0  0  0
  147.0737  135.3587  160.9030 N   0  0  0  0  0  0  0  0  0  0  0  0
  146.4685  135.8159  162.2116 C   0  0  1  0  0  0  0  0  0  0  0  0
  145.7741  137.1705  162.0284 C   0  0  0  0  0  0  0  0  0  0  0  0
  144.3426  136.7539  161.7698 C   0  0  0  0  0  0  0  0  0  0  0  0
  144.2177  135.5241  162.6614 C   0  0  0  0  0  0  0  0  0  0  0  0
  145.4954  134.8943  162.6129 O   0  0  0  0  0  0  0  0  0  0  0  0
  148.0853  136.1430  160.3073 C   0  0  0  0  0  0  0  0  0  0  0  0
  148.4678  137.1869  160.8404 O   0  0  0  0  0  0  0  0  0  0  0  0
  150.1614  138.8648  157.6704 N   0  0  0  0  0  0  0  0  0  0  0  0
  149.9358  140.2971  157.4341 C   0  0  0  0  0  0  0  0  0  0  0  0
  150.7972  141.1050  158.4216 C   0  0  0  0  0  0  0  0  0  0  0  0
  152.2926  140.7370  158.2930 C   0  0  0  0  0  0  0  0  0  0  0  0
  153.1649  141.4760  159.3324 C   0  0  0  0  0  0  0  0  0  0  0  0
  152.7488  142.9235  159.5189 C   0  0  0  0  0  0  0  0  0  0  0  0
  152.4070  143.4025  160.8010 C   0  0  0  0  0  0  0  0  0  0  0  0
  152.0288  144.7481  160.9757 C   0  0  0  0  0  0  0  0  0  0  0  0
  151.9929  145.6190  159.8694 C   0  0  0  0  0  0  0  0  0  0  0  0
  152.3362  145.1443  158.5884 C   0  0  0  0  0  0  0  0  0  0  0  0
  152.7136  143.7986  158.4131 C   0  0  0  0  0  0  0  0  0  0  0  0
  152.4819  139.2056  158.3626 C   0  0  0  0  0  0  0  0  0  0  0  0
  151.5481  138.4838  157.3744 C   0  0  0  0  0  0  0  0  0  0  0  0
  149.9849  136.0932  157.4854 H   0  0  0  0  0  0  0  0  0  0  0  0
  150.5949  136.5245  159.0411 H   0  0  0  0  0  0  0  0  0  0  0  0
  145.8417  133.6283  160.7135 H   0  0  0  0  0  0  0  0  0  0  0  0
  147.2830  135.8286  162.9377 H   0  0  0  0  0  0  0  0  0  0  0  0
  145.8468  137.7279  162.9631 H   0  0  0  0  0  0  0  0  0  0  0  0
  146.2181  137.7631  161.2276 H   0  0  0  0  0  0  0  0  0  0  0  0
  143.6186  137.5322  162.0116 H   0  0  0  0  0  0  0  0  0  0  0  0
  144.2128  136.4789  160.7225 H   0  0  0  0  0  0  0  0  0  0  0  0
  144.0136  135.8221  163.6908 H   0  0  0  0  0  0  0  0  0  0  0  0
  143.4251  134.8487  162.3388 H   0  0  0  0  0  0  0  0  0  0  0  0
  150.2204  140.5386  156.4088 H   0  0  0  0  0  0  0  0  0  0  0  0
  148.8941  140.6009  157.5212 H   0  0  0  0  0  0  0  0  0  0  0  0
  150.6605  142.1721  158.2428 H   0  0  0  0  0  0  0  0  0  0  0  0
  150.4524  140.9139  159.4390 H   0  0  0  0  0  0  0  0  0  0  0  0
  152.6102  141.0422  157.2942 H   0  0  0  0  0  0  0  0  0  0  0  0
  153.1268  140.9735  160.3000 H   0  0  0  0  0  0  0  0  0  0  0  0
  154.2155  141.4544  159.0395 H   0  0  0  0  0  0  0  0  0  0  0  0
  152.4363  142.7402  161.6541 H   0  0  0  0  0  0  0  0  0  0  0  0
  151.7675  145.1120  161.9583 H   0  0  0  0  0  0  0  0  0  0  0  0
  151.7037  146.6509  160.0037 H   0  0  0  0  0  0  0  0  0  0  0  0
  152.3110  145.8128  157.7405 H   0  0  0  0  0  0  0  0  0  0  0  0
  152.9785  143.4401  157.4288 H   0  0  0  0  0  0  0  0  0  0  0  0
  153.5190  138.9483  158.1449 H   0  0  0  0  0  0  0  0  0  0  0  0
  152.2797  138.8512  159.3746 H   0  0  0  0  0  0  0  0  0  0  0  0
  151.7153  137.4075  157.4275 H   0  0  0  0  0  0  0  0  0  0  0  0
  151.7913  138.7697  156.3500 H   0  0  0  0  0  0  0  0  0  0  0  0
  1  2  2  0  0  0  0
  2  3  1  0  0  0  0
  2 18  1  0  0  0  0
  3  4  1  0  0  0  0
  3 31  1  0  0  0  0
  3 32  1  0  0  0  0
  4 16  1  0  0  0  0
  4  5  1  0  0  0  0
  5  6  2  0  0  0  0
  5  7  1  0  0  0  0
  7  8  1  0  0  0  0
  7  9  2  0  0  0  0
  9 10  1  0  0  0  0
  9 33  1  0  0  0  0
 10 11  1  0  0  0  0
 10 16  1  0  0  0  0
 11 15  1  0  0  0  0
 11 12  1  0  0  0  0
 11 34  1  0  0  0  0
 12 13  1  0  0  0  0
 12 35  1  0  0  0  0
 12 36  1  0  0  0  0
 13 14  1  0  0  0  0
 13 37  1  0  0  0  0
 13 38  1  0  0  0  0
 14 15  1  0  0  0  0
 14 39  1  0  0  0  0
 14 40  1  0  0  0  0
 16 17  2  0  0  0  0
 18 30  1  0  0  0  0
 18 19  1  0  0  0  0
 19 20  1  0  0  0  0
 19 41  1  0  0  0  0
 19 42  1  0  0  0  0
 20 21  1  0  0  0  0
 20 43  1  0  0  0  0
 20 44  1  0  0  0  0
 21 22  1  0  0  0  0
 21 29  1  0  0  0  0
 21 45  1  0  0  0  0
 22 23  1  0  0  0  0
 22 46  1  0  0  0  0
 22 47  1  0  0  0  0
 23 28  1  0  0  0  0
 23 24  2  0  0  0  0
 24 25  1  0  0  0  0
 24 48  1  0  0  0  0
 25 26  2  0  0  0  0
 25 49  1  0  0  0  0
 26 27  1  0  0  0  0
 26 50  1  0  0  0  0
 27 28  2  0  0  0  0
 27 51  1  0  0  0  0
 28 52  1  0  0  0  0
 29 30  1  0  0  0  0
 29 53  1  0  0  0  0
 29 54  1  0  0  0  0
 30 55  1  0  0  0  0
 30 56  1  0  0  0  0
M  END
> <s_m_source_file>
AV-unprocessed.smi

> <i_m_source_file_index>
141

> <i_lp_mmshare_version>
43012

> <i_f3d_flags>
0

> <s_epik_input>
W2NIXTFbY0hdW2NIXVtjSF1bY0hdYzFbQ0gyXVtDSF0oW0NIMl1bQ0gyXTIpW0NIMl1bQ0gyXU4yQyg9TylbQ0gyXW4zYyg9TyljKEYpW2NIXW4oYzM9TylbQ0BASF00W0NIMl1bQ0gyXVtDSDJdTzQ=

> <s_epik_cmdline>
J2VwaWtfcHl0aG9uJywgJy1waCcsICc3LjAnLCAnLXRuJywgJzgnLCAnLW1hJywgJzIwMCcsICctbWV0YWxfYmluZGluZycsICctaW1hZScsICc8aW5maWxlLm1hZT4nLCAnLW9tYWUnLCAnPG91dGZpbGUubWFlPic=

> <r_lp_tautomer_probability>
1

> <r_epik_Ionization_Penalty>
3.78313e-08

> <r_epik_Ionization_Penalty_Charging>
4.95074e-09

> <r_epik_Ionization_Penalty_Neutral>
3.28806e-08

> <r_epik_State_Penalty>
-0

> <r_epik_Charging_Adjusted_Penalty>
4.95074e-09

> <i_epik_Tot_Q>
0

> <i_epik_Tot_abs_Q>
0

> <r_epik_Metal_State_Penalty>
-0

> <b_epik_Metal_Only>
0

> <s_epik_Chemistry_Notes>
This compound contains an acetal/aminal-like group ( X-CH(R)-Y where X, Y are N, S, or O) that may be acid/base labile, releasing an aldehyde.

> <s_lp_Force_Field>
OPLS_2005

> <r_lp_Energy>
51.0645

> <b_lp_Chiralities_Consistent>
1

> <s_lp_Variant>
AV-unprocessed.smi:141-2

> <Gold.Version>
5.8.1

> <Gold.Id.Protein>
6NUR|6NUR_protein|mol2

> <Gold.PLP.Fitness>
60.2671

> <Gold.PLP.PLP>
-56.7957

> <Gold.PLP.part.hbond>
-2.7271

> <Gold.PLP.part.metal>
0.0000

> <Gold.PLP.part.buried>
-6.2383

> <Gold.PLP.part.nonpolar>
-47.7717

> <Gold.PLP.part.repulsive>
0.0077

> <Gold.PLP.ligand.clash>
0.0000

> <Gold.PLP.ligand.torsion>
0.1866

> <Gold.PLP.Chemscore.Hbond>
1.2606

> <Gold.PLP.Chemscore.CHOScore>
0.0000

> <Gold.PLP.Chemscore.Metal>
0.0000

> <Gold.Chemscore.Hbonds>
donor molecule, donor type, donor heavy atom, donor atom, acceptor molecule, acceptor atom, score
      P1  H  6931  6943       L1    17  0.88
      P1  H  6934  6947       L1    17  0.27

> <Gold.PLP.Chemscore.Internal.Correction>
0.0630

> <Gold.Rescore>
     Score         DG    S(hbond)    S(metal)    S(lipo)     H(rot)  DE(clash)    DE(int)     intcor
     16.57     -21.25       1.53        0.00     131.39       1.85       0.04       4.63       ----

> <Gold.Chemscore.Fitness>
16.5743

> <Gold.Chemscore.DG>
-21.2481

> <Gold.Chemscore.ZeroCoef>
-5.4800

> <Gold.Chemscore.Hbond>
1.5335

> <Gold.Chemscore.Metal>
0.0000

> <Gold.Chemscore.Lipo>
131.3874

> <Gold.Chemscore.Internal_Hbond>
0.0000

> <Gold.Chemscore.DEClash>
0.0420

> <Gold.Chemscore.DEInternal>
4.6318

> <Gold.Chemscore.Rot>
1.8461

> <Gold.Chemscore.Internal.Correction>
   9.000000E+99

> <Gold.Chemscore.Hbonds>
donor molecule, donor type, donor heavy atom, donor atom, acceptor molecule, acceptor atom, score
      P1  H  6931  6943       L1    17  0.85
      P1  H  6934  6947       L1    17  0.27

> <Gold.Chemscore.Hbond.Weighted>
-5.1218

> <Gold.Chemscore.Metal.Weighted>
-0.0000

> <Gold.Chemscore.Lipo.Weighted>
-15.3723

> <Gold.Chemscore.Internal_Hbond.Weighted>
0.0000

> <Gold.Chemscore.DEClash.Weighted>
0.0420

> <Gold.Chemscore.DEInternal.Weighted>
4.6318

> <Gold.Chemscore.Rot.Weighted>
4.7260

> <Gold.Chemscore.Internal.Correction.Weighted>
   9.000000E+99

> <Gold.Protein.RotatedTorsions>
[ 6907 6896 6895 6894 ] final  -59.12 input  -60.11 | X-H torsion
[ 7974 7965 7964 7962 ] final  -54.75 input  175.53 | X-H torsion
[ 8008 7997 7996 7995 ] final  -79.08 input   59.86 | X-H torsion
[ 10167 10162 10161 10158 ] final   -1.92 input  -65.29 | X-H torsion
[ 10718 10713 10712 10709 ] final  -40.54 input   66.30 | X-H torsion
[ 10763 10752 10751 10750 ] final  -40.30 input  -60.55 | X-H torsion
[ 11005 11000 10999 10996 ] final  140.38 input  -57.11 | X-H torsion

> <Gold.Protein.ActiveResidues>
 VAL166  LYS551  ARG553  GLY616  TRP617  ASP618  TYR619  PRO620  LYS621  CYS622 
 ASP623  PHE694  ASN695  SER759  ASP760  ASP761  ALA762  ILE779  LEU786  VAL792 
 PHE793  MET794  SER795  GLU796  ALA797  LYS798  CYS799  TRP800  GLU811  SER814 

> <Gold.Protein.RotatedAtoms>
  150.7955  134.7010  159.6549 H   0  0  0  0  0  0  0  0  0  0  0  0  # atno 6907 bound_to 6896
  152.4066  134.6193  160.0056 H   0  0  0  0  0  0  0  0  0  0  0  0  # atno 6908 bound_to 6896
  151.6448  133.3287  159.3174 H   0  0  0  0  0  0  0  0  0  0  0  0  # atno 6909 bound_to 6896
  145.8820  140.8137  142.9835 H   0  0  0  0  0  0  0  0  0  0  0  0  # atno 7974 bound_to 7965
  154.5750  140.0684  156.9021 H   0  0  0  0  0  0  0  0  0  0  0  0  # atno 8008 bound_to 7997
  155.2565  140.3355  155.4259 H   0  0  0  0  0  0  0  0  0  0  0  0  # atno 8009 bound_to 7997
  156.2147  140.1773  156.7601 H   0  0  0  0  0  0  0  0  0  0  0  0  # atno 8010 bound_to 7997
  140.6830  143.6718  150.8179 H   0  0  0  0  0  0  0  0  0  0  0  0  # atno 10167 bound_to 10162
  156.2802  130.4216  149.8345 H   0  0  0  0  0  0  0  0  0  0  0  0  # atno 10718 bound_to 10713
  153.9436  135.6758  153.4744 H   0  0  0  0  0  0  0  0  0  0  0  0  # atno 10763 bound_to 10752
  153.0919  135.4870  154.8703 H   0  0  0  0  0  0  0  0  0  0  0  0  # atno 10764 bound_to 10752
  154.7363  135.3150  154.8763 H   0  0  0  0  0  0  0  0  0  0  0  0  # atno 10765 bound_to 10752
  140.0323  134.9346  157.0686 H   0  0  0  0  0  0  0  0  0  0  0  0  # atno 11005 bound_to 11000
  144.6727  140.1398  143.7438 LP  0  0  0  0  0  0  0  0  0  0  0  0  # atno 17320 bound_to 7965
  145.9012  139.2431  143.1492 LP  0  0  0  0  0  0  0  0  0  0  0  0  # atno 17321 bound_to 7965
  140.0421  143.5335  152.2713 LP  0  0  0  0  0  0  0  0  0  0  0  0  # atno 17342 bound_to 10162
  139.6166  144.7621  151.2832 LP  0  0  0  0  0  0  0  0  0  0  0  0  # atno 17343 bound_to 10162
  156.5795  130.8460  151.3379 LP  0  0  0  0  0  0  0  0  0  0  0  0  # atno 17370 bound_to 10713
  157.7312  130.9696  150.1868 LP  0  0  0  0  0  0  0  0  0  0  0  0  # atno 17371 bound_to 10713
  140.4205  134.1885  155.7164 LP  0  0  0  0  0  0  0  0  0  0  0  0  # atno 17394 bound_to 11000
  141.1838  133.8357  157.1163 LP  0  0  0  0  0  0  0  0  0  0  0  0  # atno 17395 bound_to 11000

$$$$
