AV-unprocessed.smi:1916|AV-procd|sdf|7765|dock7
  -GOLD-   22720 9513D 1   1.00000     0.00000
 Structure written by MMmdl.
 45 47  0  0  0  0  0  0  0  0  1 V2000
  150.6515  135.3778  157.5689 O   0  0  0  0  0  0  0  0  0  0  0  0
  150.6028  136.5779  157.2968 C   0  0  0  0  0  0  0  0  0  0  0  0
  149.6477  137.4008  157.7582 N   0  0  0  0  0  0  0  0  0  0  0  0
  148.5639  137.0210  158.6616 C   0  0  0  0  0  0  0  0  0  0  0  0
  149.0676  136.2453  159.8957 C   0  0  0  0  0  0  0  0  0  0  0  0
  148.0133  136.0579  160.9738 C   0  0  0  0  0  0  0  0  0  0  0  0
  147.6811  134.7687  161.4434 C   0  0  0  0  0  0  0  0  0  0  0  0
  146.6685  134.6492  162.4146 C   0  0  0  0  0  0  0  0  0  0  0  0
  146.0342  135.8167  162.8802 C   0  0  0  0  0  0  0  0  0  0  0  0
  146.4442  137.0578  162.3534 C   0  0  0  0  0  0  0  0  0  0  0  0
  147.4140  137.1839  161.4222 N   0  0  0  0  0  0  0  0  0  0  0  0
  151.6797  137.2117  156.4020 C   0  0  1  0  0  0  0  0  0  0  0  0
  151.1064  137.5849  155.0237 C   0  0  0  0  0  0  0  0  0  0  0  0
  151.0158  139.1010  155.0680 C   0  0  0  0  0  0  0  0  0  0  0  0
  150.4354  139.7535  154.2015 O   0  0  0  0  0  0  0  0  0  0  0  0
  151.6037  139.5917  156.1677 N   0  0  0  0  0  0  0  0  0  0  0  0
  151.5601  141.0022  156.5835 C   0  0  0  0  0  0  0  0  0  0  0  0
  152.1176  141.2945  157.9975 C   0  0  0  0  0  0  0  0  0  0  0  0
  151.0749  142.1820  158.6815 C   0  0  0  0  0  0  0  0  0  0  0  0
  149.7513  141.7899  158.0320 C   0  0  0  0  0  0  0  0  0  0  0  0
  150.1134  141.5342  156.5695 C   0  0  0  0  0  0  0  0  0  0  0  0
  152.2196  138.5402  156.9691 C   0  0  0  0  0  0  0  0  0  0  0  0
  149.6872  138.3707  157.4802 H   0  0  0  0  0  0  0  0  0  0  0  0
  148.0674  137.9347  158.9886 H   0  0  0  0  0  0  0  0  0  0  0  0
  147.8072  136.4393  158.1324 H   0  0  0  0  0  0  0  0  0  0  0  0
  149.4411  135.2681  159.5869 H   0  0  0  0  0  0  0  0  0  0  0  0
  149.9204  136.7681  160.3306 H   0  0  0  0  0  0  0  0  0  0  0  0
  148.1774  133.8903  161.0579 H   0  0  0  0  0  0  0  0  0  0  0  0
  146.3800  133.6790  162.7914 H   0  0  0  0  0  0  0  0  0  0  0  0
  145.2515  135.7628  163.6223 H   0  0  0  0  0  0  0  0  0  0  0  0
  145.9802  137.9738  162.6880 H   0  0  0  0  0  0  0  0  0  0  0  0
  152.5029  136.5042  156.2860 H   0  0  0  0  0  0  0  0  0  0  0  0
  151.7822  137.2854  154.2221 H   0  0  0  0  0  0  0  0  0  0  0  0
  150.1277  137.1469  154.8221 H   0  0  0  0  0  0  0  0  0  0  0  0
  152.1434  141.5892  155.8713 H   0  0  0  0  0  0  0  0  0  0  0  0
  152.2515  140.3954  158.5956 H   0  0  0  0  0  0  0  0  0  0  0  0
  153.0905  141.7852  157.9534 H   0  0  0  0  0  0  0  0  0  0  0  0
  151.0639  142.0579  159.7647 H   0  0  0  0  0  0  0  0  0  0  0  0
  151.2890  143.2304  158.4692 H   0  0  0  0  0  0  0  0  0  0  0  0
  149.3777  140.8702  158.4841 H   0  0  0  0  0  0  0  0  0  0  0  0
  148.9832  142.5550  158.1467 H   0  0  0  0  0  0  0  0  0  0  0  0
  150.0802  142.4748  156.0182 H   0  0  0  0  0  0  0  0  0  0  0  0
  149.4052  140.8569  156.0896 H   0  0  0  0  0  0  0  0  0  0  0  0
  151.9969  138.6718  158.0294 H   0  0  0  0  0  0  0  0  0  0  0  0
  153.3030  138.5818  156.8498 H   0  0  0  0  0  0  0  0  0  0  0  0
  1  2  2  0  0  0  0
  2  3  1  0  0  0  0
  2 12  1  0  0  0  0
  3  4  1  0  0  0  0
  3 23  1  0  0  0  0
  4  5  1  0  0  0  0
  4 24  1  0  0  0  0
  4 25  1  0  0  0  0
  5  6  1  0  0  0  0
  5 26  1  0  0  0  0
  5 27  1  0  0  0  0
  6 11  1  0  0  0  0
  6  7  2  0  0  0  0
  7  8  1  0  0  0  0
  7 28  1  0  0  0  0
  8  9  2  0  0  0  0
  8 29  1  0  0  0  0
  9 10  1  0  0  0  0
  9 30  1  0  0  0  0
 10 11  2  0  0  0  0
 10 31  1  0  0  0  0
 12 22  1  0  0  0  0
 12 13  1  0  0  0  0
 12 32  1  0  0  0  0
 13 14  1  0  0  0  0
 13 33  1  0  0  0  0
 13 34  1  0  0  0  0
 14 15  2  0  0  0  0
 14 16  1  0  0  0  0
 16 17  1  0  0  0  0
 16 22  1  0  0  0  0
 17 21  1  0  0  0  0
 17 18  1  0  0  0  0
 17 35  1  0  0  0  0
 18 19  1  0  0  0  0
 18 36  1  0  0  0  0
 18 37  1  0  0  0  0
 19 20  1  0  0  0  0
 19 38  1  0  0  0  0
 19 39  1  0  0  0  0
 20 21  1  0  0  0  0
 20 40  1  0  0  0  0
 20 41  1  0  0  0  0
 21 42  1  0  0  0  0
 21 43  1  0  0  0  0
 22 44  1  0  0  0  0
 22 45  1  0  0  0  0
M  END
> <s_m_source_file>
AV-unprocessed.smi

> <i_m_source_file_index>
1916

> <i_lp_mmshare_version>
43012

> <i_f3d_flags>
0

> <s_epik_input>
W0NIMl0xW0NIMl1bQ0gyXVtDSDJdW0NIXTFOKFtDSDJdMilDKD1PKVtDSDJdW0NASF0yQyg9TylbTkhdW0NIMl1bQ0gyXWMzW2NIXVtjSF1bY0hdW2NIXW4z

> <s_epik_cmdline>
J2VwaWtfcHl0aG9uJywgJy1waCcsICc3LjAnLCAnLXRuJywgJzgnLCAnLW1hJywgJzIwMCcsICctbWV0YWxfYmluZGluZycsICctaW1hZScsICc8aW5maWxlLm1hZT4nLCAnLW9tYWUnLCAnPG91dGZpbGUubWFlPic=

> <r_epik_Ionization_Penalty>
0.0252359

> <r_epik_Ionization_Penalty_Charging>
0

> <r_epik_Ionization_Penalty_Neutral>
0.0252359

> <r_epik_State_Penalty>
0.020532

> <r_epik_Charging_Adjusted_Penalty>
0.020532

> <i_epik_Tot_Q>
0

> <i_epik_Tot_abs_Q>
0

> <r_epik_Metal_State_Penalty>
0.0196901

> <b_epik_Metal_Only>
0

> <s_lp_Force_Field>
OPLS_2005

> <r_lp_Energy>
33.9945

> <b_lp_Chiralities_Consistent>
1

> <s_lp_Variant>
AV-unprocessed.smi:1916-2

> <Gold.Version>
5.8.1

> <Gold.Id.Protein>
6NUR|6NUR_protein|mol2

> <Gold.PLP.Fitness>
46.4014

> <Gold.PLP.PLP>
-37.6829

> <Gold.PLP.part.hbond>
-4.0000

> <Gold.PLP.part.metal>
0.0000

> <Gold.PLP.part.buried>
-6.4466

> <Gold.PLP.part.nonpolar>
-28.0412

> <Gold.PLP.part.repulsive>
0.2204

> <Gold.PLP.ligand.clash>
0.0000

> <Gold.PLP.ligand.torsion>
0.5007

> <Gold.PLP.Chemscore.Hbond>
3.2218

> <Gold.PLP.Chemscore.CHOScore>
0.0000

> <Gold.PLP.Chemscore.Metal>
0.0000

> <Gold.Chemscore.Hbonds>
donor molecule, donor type, donor heavy atom, donor atom, acceptor molecule, acceptor atom, score
      P1  H  6896  6909       L1     1  0.38
      P1  H  6931  6943       L1    11  0.91
      P1  H  6934  6947       L1    11  0.93
      P1  H  7989  7998       L1    15  1.00

> <Gold.PLP.Chemscore.Internal.Correction>
0.0545

> <Gold.Rescore>
     Score         DG    S(hbond)    S(metal)    S(lipo)     H(rot)  DE(clash)    DE(int)     intcor
     17.22     -20.02       2.33        0.00      93.05       1.61       0.04       2.76       ----

> <Gold.Chemscore.Fitness>
17.2174

> <Gold.Chemscore.DG>
-20.0169

> <Gold.Chemscore.ZeroCoef>
-5.4800

> <Gold.Chemscore.Hbond>
2.3277

> <Gold.Chemscore.Metal>
0.0000

> <Gold.Chemscore.Lipo>
93.0488

> <Gold.Chemscore.Internal_Hbond>
0.0000

> <Gold.Chemscore.DEClash>
0.0444

> <Gold.Chemscore.DEInternal>
2.7551

> <Gold.Chemscore.Rot>
1.6110

> <Gold.Chemscore.Internal.Correction>
   9.000000E+99

> <Gold.Chemscore.Hbonds>
donor molecule, donor type, donor heavy atom, donor atom, acceptor molecule, acceptor atom, score
      P1  H  6896  6909       L1     1  0.37
      P1  H  6931  6943       L1    11  0.21
      P1  H  6934  6947       L1    11  0.23
      P1  H  7989  7998       L1    15  0.65

> <Gold.Chemscore.Hbond.Weighted>
-7.7745

> <Gold.Chemscore.Metal.Weighted>
-0.0000

> <Gold.Chemscore.Lipo.Weighted>
-10.8867

> <Gold.Chemscore.Internal_Hbond.Weighted>
0.0000

> <Gold.Chemscore.DEClash.Weighted>
0.0444

> <Gold.Chemscore.DEInternal.Weighted>
2.7551

> <Gold.Chemscore.Rot.Weighted>
4.1243

> <Gold.Chemscore.Internal.Correction.Weighted>
   9.000000E+99

> <Gold.Protein.RotatedTorsions>
[ 6907 6896 6895 6894 ] final   44.43 input  -60.11 | X-H torsion
[ 7974 7965 7964 7962 ] final -159.75 input  175.53 | X-H torsion
[ 8008 7997 7996 7995 ] final   27.96 input   59.86 | X-H torsion
[ 10167 10162 10161 10158 ] final -102.71 input  -65.29 | X-H torsion
[ 10718 10713 10712 10709 ] final  -70.12 input   66.30 | X-H torsion
[ 10763 10752 10751 10750 ] final  -46.22 input  -60.55 | X-H torsion
[ 11005 11000 10999 10996 ] final  121.58 input  -57.11 | X-H torsion

> <Gold.Protein.ActiveResidues>
 VAL166  LYS551  ARG553  GLY616  TRP617  ASP618  TYR619  PRO620  LYS621  CYS622 
 ASP623  PHE694  ASN695  SER759  ASP760  ASP761  ALA762  ILE779  LEU786  VAL792 
 PHE793  MET794  SER795  GLU796  ALA797  LYS798  CYS799  TRP800  GLU811  SER814 

> <Gold.Protein.RotatedAtoms>
  152.2324  134.8309  160.0471 H   0  0  0  0  0  0  0  0  0  0  0  0  # atno 6907 bound_to 6896
  151.9053  133.3543  159.3853 H   0  0  0  0  0  0  0  0  0  0  0  0  # atno 6908 bound_to 6896
  150.7029  134.4713  159.5470 H   0  0  0  0  0  0  0  0  0  0  0  0  # atno 6909 bound_to 6896
  144.7453  140.3641  143.6090 H   0  0  0  0  0  0  0  0  0  0  0  0  # atno 7974 bound_to 7965
  155.0511  140.3180  155.4692 H   0  0  0  0  0  0  0  0  0  0  0  0  # atno 8008 bound_to 7997
  156.2834  140.2146  156.5580 H   0  0  0  0  0  0  0  0  0  0  0  0  # atno 8009 bound_to 7997
  154.7210  140.0489  157.0627 H   0  0  0  0  0  0  0  0  0  0  0  0  # atno 8010 bound_to 7997
  140.2278  143.3629  152.0913 H   0  0  0  0  0  0  0  0  0  0  0  0  # atno 10167 bound_to 10162
  156.0422  130.4325  150.2249 H   0  0  0  0  0  0  0  0  0  0  0  0  # atno 10718 bound_to 10713
  154.0414  135.6643  153.4790 H   0  0  0  0  0  0  0  0  0  0  0  0  # atno 10763 bound_to 10752
  153.0500  135.5090  154.7838 H   0  0  0  0  0  0  0  0  0  0  0  0  # atno 10764 bound_to 10752
  154.6816  135.3046  154.9571 H   0  0  0  0  0  0  0  0  0  0  0  0  # atno 10765 bound_to 10752
  139.9232  134.9639  156.7979 H   0  0  0  0  0  0  0  0  0  0  0  0  # atno 11005 bound_to 11000
  145.7147  139.1694  143.2519 LP  0  0  0  0  0  0  0  0  0  0  0  0  # atno 17320 bound_to 7965
  146.1321  140.7171  142.9407 LP  0  0  0  0  0  0  0  0  0  0  0  0  # atno 17321 bound_to 7965
  139.5121  144.6911  151.5757 LP  0  0  0  0  0  0  0  0  0  0  0  0  # atno 17342 bound_to 10162
  140.6207  143.9263  150.6524 LP  0  0  0  0  0  0  0  0  0  0  0  0  # atno 17343 bound_to 10162
  157.0343  131.0016  151.3303 LP  0  0  0  0  0  0  0  0  0  0  0  0  # atno 17370 bound_to 10713
  157.5255  130.8025  149.7857 LP  0  0  0  0  0  0  0  0  0  0  0  0  # atno 17371 bound_to 10713
  140.6413  133.9815  155.7709 LP  0  0  0  0  0  0  0  0  0  0  0  0  # atno 17394 bound_to 11000
  141.0769  134.0121  157.3444 LP  0  0  0  0  0  0  0  0  0  0  0  0  # atno 17395 bound_to 11000

$$$$
