AV-unprocessed.smi:1194|AV-procd|sdf|4993|dock3
  -GOLD-   22720 3593D 1   1.00000     0.00000
 Structure written by MMmdl.
 48 49  0  0  0  0  0  0  0  0  2 V2000
  152.2008  143.5710  161.4009 C   0  0  0  0  0  0  0  0  0  0  0  0
  152.6913  142.2879  160.7209 C   0  0  0  0  0  0  0  0  0  0  0  0
  152.3747  142.2639  159.2131 C   0  0  0  0  0  0  0  0  0  0  0  0
  152.4962  140.8708  158.5675 C   0  0  0  0  0  0  0  0  0  0  0  0
  153.5039  140.2014  158.8018 O   0  0  0  0  0  0  0  0  0  0  0  0
  151.4907  140.4135  157.7749 N   0  0  0  0  0  0  0  0  0  0  0  0
  150.2940  141.2042  157.4182 C   0  0  0  0  0  0  0  0  0  0  0  0
  150.3067  141.5105  155.9103 C   0  0  0  0  0  0  0  0  0  0  0  0
  150.4229  140.2187  155.0841 C   0  0  0  0  0  0  0  0  0  0  0  0
  151.6217  139.3771  155.5564 C   0  0  0  0  0  0  0  0  0  0  0  0
  151.5801  139.1056  157.0808 C   0  0  2  0  0  0  0  0  0  0  0  0
  150.5047  138.0878  157.5196 C   0  0  0  0  0  0  0  0  0  0  0  0
  150.4211  136.9921  156.9645 O   0  0  0  0  0  0  0  0  0  0  0  0
  149.6904  138.4506  158.5233 N   0  0  0  0  0  0  0  0  0  0  0  0
  148.6264  137.6181  159.0634 C   0  0  0  0  0  0  0  0  0  0  0  0
  149.2090  136.3739  159.7458 C   0  0  0  0  0  0  0  0  0  0  0  0
  148.2344  135.7553  160.7290 C   0  0  0  0  0  0  0  0  0  0  0  0
  147.9792  136.3749  161.9724 C   0  0  0  0  0  0  0  0  0  0  0  0
  147.0740  135.7736  162.8719 C   0  0  0  0  0  0  0  0  0  0  0  0
  146.4451  134.5656  162.5075 C   0  0  0  0  0  0  0  0  0  0  0  0
  146.7146  134.0016  161.3094 N   0  3  0  0  0  0  0  0  0  0  0  0
  147.5746  134.5458  160.4206 C   0  0  0  0  0  0  0  0  0  0  0  0
  152.4432  143.5638  162.4639 H   0  0  0  0  0  0  0  0  0  0  0  0
  151.1197  143.6777  161.3071 H   0  0  0  0  0  0  0  0  0  0  0  0
  152.6653  144.4533  160.9598 H   0  0  0  0  0  0  0  0  0  0  0  0
  153.7672  142.1943  160.8763 H   0  0  0  0  0  0  0  0  0  0  0  0
  152.2303  141.4297  161.2121 H   0  0  0  0  0  0  0  0  0  0  0  0
  151.3589  142.6315  159.0617 H   0  0  0  0  0  0  0  0  0  0  0  0
  153.0513  142.9483  158.6995 H   0  0  0  0  0  0  0  0  0  0  0  0
  149.3946  140.6406  157.6663 H   0  0  0  0  0  0  0  0  0  0  0  0
  150.1926  142.1379  157.9673 H   0  0  0  0  0  0  0  0  0  0  0  0
  149.4030  142.0521  155.6299 H   0  0  0  0  0  0  0  0  0  0  0  0
  151.1462  142.1680  155.6802 H   0  0  0  0  0  0  0  0  0  0  0  0
  149.5034  139.6398  155.1786 H   0  0  0  0  0  0  0  0  0  0  0  0
  150.5278  140.4587  154.0257 H   0  0  0  0  0  0  0  0  0  0  0  0
  151.6661  138.4430  154.9950 H   0  0  0  0  0  0  0  0  0  0  0  0
  152.5438  139.9085  155.3166 H   0  0  0  0  0  0  0  0  0  0  0  0
  152.5175  138.5994  157.3140 H   0  0  0  0  0  0  0  0  0  0  0  0
  149.8221  139.3622  158.9374 H   0  0  0  0  0  0  0  0  0  0  0  0
  148.0414  138.2008  159.7769 H   0  0  0  0  0  0  0  0  0  0  0  0
  147.9534  137.3226  158.2567 H   0  0  0  0  0  0  0  0  0  0  0  0
  149.4780  135.6278  158.9967 H   0  0  0  0  0  0  0  0  0  0  0  0
  150.1307  136.6305  160.2699 H   0  0  0  0  0  0  0  0  0  0  0  0
  148.4729  137.2990  162.2364 H   0  0  0  0  0  0  0  0  0  0  0  0
  146.8668  136.2320  163.8278 H   0  0  0  0  0  0  0  0  0  0  0  0
  145.7408  134.0369  163.1335 H   0  0  0  0  0  0  0  0  0  0  0  0
  147.7090  133.9996  159.4981 H   0  0  0  0  0  0  0  0  0  0  0  0
  146.2492  133.1267  161.0659 H   0  0  0  0  0  0  0  0  0  0  0  0
  1  2  1  0  0  0  0
  1 23  1  0  0  0  0
  1 24  1  0  0  0  0
  1 25  1  0  0  0  0
  2  3  1  0  0  0  0
  2 26  1  0  0  0  0
  2 27  1  0  0  0  0
  3  4  1  0  0  0  0
  3 28  1  0  0  0  0
  3 29  1  0  0  0  0
  4  5  2  0  0  0  0
  4  6  1  0  0  0  0
  6 11  1  0  0  0  0
  6  7  1  0  0  0  0
  7  8  1  0  0  0  0
  7 30  1  0  0  0  0
  7 31  1  0  0  0  0
  8  9  1  0  0  0  0
  8 32  1  0  0  0  0
  8 33  1  0  0  0  0
  9 10  1  0  0  0  0
  9 34  1  0  0  0  0
  9 35  1  0  0  0  0
 10 11  1  0  0  0  0
 10 36  1  0  0  0  0
 10 37  1  0  0  0  0
 11 12  1  0  0  0  0
 11 38  1  0  0  0  0
 12 13  2  0  0  0  0
 12 14  1  0  0  0  0
 14 15  1  0  0  0  0
 14 39  1  0  0  0  0
 15 16  1  0  0  0  0
 15 40  1  0  0  0  0
 15 41  1  0  0  0  0
 16 17  1  0  0  0  0
 16 42  1  0  0  0  0
 16 43  1  0  0  0  0
 17 22  1  0  0  0  0
 17 18  2  0  0  0  0
 18 19  1  0  0  0  0
 18 44  1  0  0  0  0
 19 20  2  0  0  0  0
 19 45  1  0  0  0  0
 20 21  1  0  0  0  0
 20 46  1  0  0  0  0
 21 22  2  0  0  0  0
 21 48  1  0  0  0  0
 22 47  1  0  0  0  0
M  CHG  1  21   1
M  END
> <s_m_source_file>
AV-unprocessed.smi

> <i_m_source_file_index>
1194

> <i_lp_mmshare_version>
43012

> <i_f3d_flags>
0

> <s_epik_input>
W0NIM11bQ0gyXVtDSDJdQyg9TylOMVtDSDJdW0NIMl1bQ0gyXVtDSDJdW0NASF0xQyg9TylbTkhdW0NIMl1bQ0gyXWMyW2NIXVtjSF1bY0hdbltjSF0y

> <s_epik_cmdline>
J2VwaWtfcHl0aG9uJywgJy1waCcsICc3LjAnLCAnLXRuJywgJzgnLCAnLW1hJywgJzIwMCcsICctbWV0YWxfYmluZGluZycsICctaW1hZScsICc8aW5maWxlLm1hZT4nLCAnLW9tYWUnLCAnPG91dGZpbGUubWFlPic=

> <r_epik_Ionization_Penalty>
2.26523

> <r_epik_Ionization_Penalty_Charging>
2.26523

> <r_epik_Ionization_Penalty_Neutral>
5.33649e-08

> <r_epik_State_Penalty>
2.41338

> <r_epik_Charging_Adjusted_Penalty>
4.67861

> <i_epik_Tot_Q>
1

> <i_epik_Tot_abs_Q>
1

> <r_epik_Metal_State_Penalty>
2.42628

> <b_epik_Metal_Only>
0

> <s_lp_Force_Field>
OPLS_2005

> <r_lp_Energy>
33.0292

> <b_lp_Chiralities_Consistent>
1

> <s_lp_Variant>
AV-unprocessed.smi:1194-4

> <Gold.Version>
5.8.1

> <Gold.Id.Protein>
6NUR|6NUR_protein|mol2

> <Gold.PLP.Fitness>
45.0988

> <Gold.PLP.PLP>
-43.2067

> <Gold.PLP.part.hbond>
-1.0000

> <Gold.PLP.part.metal>
0.0000

> <Gold.PLP.part.buried>
-2.1097

> <Gold.PLP.part.nonpolar>
-39.9634

> <Gold.PLP.part.repulsive>
0.1806

> <Gold.PLP.ligand.clash>
0.0000

> <Gold.PLP.ligand.torsion>
0.5726

> <Gold.PLP.Chemscore.Hbond>
0.9600

> <Gold.PLP.Chemscore.CHOScore>
0.0000

> <Gold.PLP.Chemscore.Metal>
0.0000

> <Gold.Chemscore.Hbonds>
donor molecule, donor type, donor heavy atom, donor atom, acceptor molecule, acceptor atom, score
      P1  H  7997  8008       L1     5  0.86

> <Gold.PLP.Chemscore.Internal.Correction>
0.1573

> <Gold.Rescore>
     Score         DG    S(hbond)    S(metal)    S(lipo)     H(rot)  DE(clash)    DE(int)     intcor
     15.52     -16.96       0.91        0.00     111.52       1.80       0.03       1.40       ----

> <Gold.Chemscore.Fitness>
15.5243

> <Gold.Chemscore.DG>
-16.9558

> <Gold.Chemscore.ZeroCoef>
-5.4800

> <Gold.Chemscore.Hbond>
0.9079

> <Gold.Chemscore.Metal>
0.0000

> <Gold.Chemscore.Lipo>
111.5182

> <Gold.Chemscore.Internal_Hbond>
0.0000

> <Gold.Chemscore.DEClash>
0.0338

> <Gold.Chemscore.DEInternal>
1.3978

> <Gold.Chemscore.Rot>
1.7985

> <Gold.Chemscore.Internal.Correction>
   9.000000E+99

> <Gold.Chemscore.Hbonds>
donor molecule, donor type, donor heavy atom, donor atom, acceptor molecule, acceptor atom, score
      P1  H  7997  8008       L1     5  0.60

> <Gold.Chemscore.Hbond.Weighted>
-3.0323

> <Gold.Chemscore.Metal.Weighted>
-0.0000

> <Gold.Chemscore.Lipo.Weighted>
-13.0476

> <Gold.Chemscore.Internal_Hbond.Weighted>
0.0000

> <Gold.Chemscore.DEClash.Weighted>
0.0338

> <Gold.Chemscore.DEInternal.Weighted>
1.3978

> <Gold.Chemscore.Rot.Weighted>
4.6041

> <Gold.Chemscore.Internal.Correction.Weighted>
   9.000000E+99

> <Gold.Protein.RotatedTorsions>
[ 6907 6896 6895 6894 ] final -159.26 input  -60.11 | X-H torsion
[ 7974 7965 7964 7962 ] final   64.38 input  175.53 | X-H torsion
[ 8008 7997 7996 7995 ] final  -91.13 input   59.86 | X-H torsion
[ 10167 10162 10161 10158 ] final  -13.52 input  -65.29 | X-H torsion
[ 10718 10713 10712 10709 ] final   49.93 input   66.30 | X-H torsion
[ 10763 10752 10751 10750 ] final  -85.81 input  -60.55 | X-H torsion
[ 11005 11000 10999 10996 ] final  -10.53 input  -57.11 | X-H torsion

> <Gold.Protein.ActiveResidues>
 VAL166  LYS551  ARG553  GLY616  TRP617  ASP618  TYR619  PRO620  LYS621  CYS622 
 ASP623  PHE694  ASN695  SER759  ASP760  ASP761  ALA762  ILE779  LEU786  VAL792 
 PHE793  MET794  SER795  GLU796  ALA797  LYS798  CYS799  TRP800  GLU811  SER814 

> <Gold.Protein.RotatedAtoms>
  151.3309  133.4001  159.2662 H   0  0  0  0  0  0  0  0  0  0  0  0  # atno 6907 bound_to 6896
  150.9957  134.9282  159.7935 H   0  0  0  0  0  0  0  0  0  0  0  0  # atno 6908 bound_to 6896
  152.5260  134.3274  159.9223 H   0  0  0  0  0  0  0  0  0  0  0  0  # atno 6909 bound_to 6896
  145.8509  139.3253  143.0876 H   0  0  0  0  0  0  0  0  0  0  0  0  # atno 7974 bound_to 7965
  154.7070  140.0523  157.0514 H   0  0  0  0  0  0  0  0  0  0  0  0  # atno 8008 bound_to 7997
  155.0606  140.3189  155.4643 H   0  0  0  0  0  0  0  0  0  0  0  0  # atno 8009 bound_to 7997
  156.2778  140.2099  156.5733 H   0  0  0  0  0  0  0  0  0  0  0  0  # atno 8010 bound_to 7997
  140.7184  143.5417  150.9401 H   0  0  0  0  0  0  0  0  0  0  0  0  # atno 10167 bound_to 10162
  157.4835  130.8330  149.8120 H   0  0  0  0  0  0  0  0  0  0  0  0  # atno 10718 bound_to 10713
  154.6153  135.5472  153.7517 H   0  0  0  0  0  0  0  0  0  0  0  0  # atno 10763 bound_to 10752
  153.0213  135.6399  154.1519 H   0  0  0  0  0  0  0  0  0  0  0  0  # atno 10764 bound_to 10752
  154.1456  135.2906  155.3129 H   0  0  0  0  0  0  0  0  0  0  0  0  # atno 10765 bound_to 10752
  140.7457  133.8633  155.9004 H   0  0  0  0  0  0  0  0  0  0  0  0  # atno 11005 bound_to 11000
  145.9359  140.9015  143.0333 LP  0  0  0  0  0  0  0  0  0  0  0  0  # atno 17320 bound_to 7965
  144.6729  140.1481  143.7432 LP  0  0  0  0  0  0  0  0  0  0  0  0  # atno 17321 bound_to 7965
  139.9140  143.6686  152.3110 LP  0  0  0  0  0  0  0  0  0  0  0  0  # atno 17342 bound_to 10162
  139.7079  144.7625  151.1162 LP  0  0  0  0  0  0  0  0  0  0  0  0  # atno 17343 bound_to 10162
  156.0134  130.3823  150.2189 LP  0  0  0  0  0  0  0  0  0  0  0  0  # atno 17370 bound_to 10713
  157.0376  131.0026  151.3293 LP  0  0  0  0  0  0  0  0  0  0  0  0  # atno 17371 bound_to 10713
  140.9796  134.1423  157.4506 LP  0  0  0  0  0  0  0  0  0  0  0  0  # atno 17394 bound_to 11000
  139.8797  135.0006  156.6020 LP  0  0  0  0  0  0  0  0  0  0  0  0  # atno 17395 bound_to 11000

$$$$
