AV-unprocessed.smi:171|AV-procd|sdf|1419|dock7
  -GOLD-   2262019183D 1   1.00000     0.00000
 Structure written by MMmdl.
 56 59  0  0  0  0  0  0  0  0  1 V2000
  150.8912  142.0999  158.8190 C   0  0  0  0  0  0  0  0  0  0  0  0
  151.4201  142.5834  157.4580 C   0  0  0  0  0  0  0  0  0  0  0  0
  151.6557  144.1012  157.4819 C   0  0  0  0  0  0  0  0  0  0  0  0
  150.4873  142.1976  156.2856 C   0  0  0  0  0  0  0  0  0  0  0  0
  150.0837  140.7041  156.2213 C   0  0  1  0  0  0  0  0  0  0  0  0
  149.4452  140.3802  154.8515 C   0  0  0  0  0  0  0  0  0  0  0  0
  148.3448  140.8503  154.5699 O   0  0  0  0  0  0  0  0  0  0  0  0
  150.1057  139.5857  153.9897 N   0  0  0  0  0  0  0  0  0  0  0  0
  151.4047  138.9574  154.2282 C   0  0  0  0  0  0  0  0  0  0  0  0
  152.1677  139.5982  155.3999 C   0  0  0  0  0  0  0  0  0  0  0  0
  151.2536  139.8594  156.5073 N   0  0  0  0  0  0  0  0  0  0  0  0
  151.1330  138.8472  157.4021 C   0  0  0  0  0  0  0  0  0  0  0  0
  152.2327  138.3525  158.0297 N   0  0  0  0  0  0  0  0  0  0  0  0
  152.1109  137.3628  158.9193 C   0  0  0  0  0  0  0  0  0  0  0  0
  151.0043  136.7361  159.3249 N   0  0  0  0  0  0  0  0  0  0  0  0
  149.8984  137.2311  158.6986 C   0  0  0  0  0  0  0  0  0  0  0  0
  149.8743  138.2754  157.7326 C   0  0  0  0  0  0  0  0  0  0  0  0
  148.5706  138.5006  157.3077 N   0  0  0  0  0  0  0  0  0  0  0  0
  147.8627  137.6421  157.9896 C   0  0  0  0  0  0  0  0  0  0  0  0
  148.5787  136.8451  158.8545 N   0  0  0  0  0  0  0  0  0  0  0  0
  148.0472  135.8158  159.7337 C   0  0  0  0  0  0  0  0  0  0  0  0
  147.1207  136.3729  160.8402 C   0  0  1  0  0  0  0  0  0  0  0  0
  147.8817  137.2258  161.6814 O   0  0  0  0  0  0  0  0  0  0  0  0
  145.9333  137.1659  160.3123 C   0  0  0  0  0  0  0  0  0  0  0  0
  144.9241  137.0388  161.4456 C   0  0  0  0  0  0  0  0  0  0  0  0
  145.0904  135.7078  161.9134 O   0  0  0  0  0  0  0  0  0  0  0  0
  146.4228  135.2626  161.6611 C   0  0  2  0  0  0  0  0  0  0  0  0
  147.1096  134.8387  162.9698 C   0  0  0  0  0  0  0  0  0  0  0  0
  149.8916  142.4881  159.0172 H   0  0  0  0  0  0  0  0  0  0  0  0
  151.5418  142.4271  159.6306 H   0  0  0  0  0  0  0  0  0  0  0  0
  150.8451  141.0121  158.8686 H   0  0  0  0  0  0  0  0  0  0  0  0
  152.3932  142.1178  157.2973 H   0  0  0  0  0  0  0  0  0  0  0  0
  150.7238  144.6447  157.6420 H   0  0  0  0  0  0  0  0  0  0  0  0
  152.0864  144.4480  156.5423 H   0  0  0  0  0  0  0  0  0  0  0  0
  152.3446  144.3805  158.2797 H   0  0  0  0  0  0  0  0  0  0  0  0
  149.5860  142.8102  156.3427 H   0  0  0  0  0  0  0  0  0  0  0  0
  150.9704  142.4785  155.3485 H   0  0  0  0  0  0  0  0  0  0  0  0
  149.3047  140.5455  156.9676 H   0  0  0  0  0  0  0  0  0  0  0  0
  149.6654  139.3924  153.1018 H   0  0  0  0  0  0  0  0  0  0  0  0
  151.2240  137.9036  154.4431 H   0  0  0  0  0  0  0  0  0  0  0  0
  152.0023  138.9950  153.3172 H   0  0  0  0  0  0  0  0  0  0  0  0
  153.0061  138.9652  155.6924 H   0  0  0  0  0  0  0  0  0  0  0  0
  152.6041  140.5461  155.0836 H   0  0  0  0  0  0  0  0  0  0  0  0
  153.0318  137.0253  159.3715 H   0  0  0  0  0  0  0  0  0  0  0  0
  146.7900  137.5695  157.8831 H   0  0  0  0  0  0  0  0  0  0  0  0
  147.5090  135.0943  159.1175 H   0  0  0  0  0  0  0  0  0  0  0  0
  148.8830  135.2732  160.1776 H   0  0  0  0  0  0  0  0  0  0  0  0
  147.5800  137.1171  162.5705 H   0  0  0  0  0  0  0  0  0  0  0  0
  146.1706  138.2011  160.0632 H   0  0  0  0  0  0  0  0  0  0  0  0
  145.5286  136.6901  159.4178 H   0  0  0  0  0  0  0  0  0  0  0  0
  145.1614  137.7332  162.2526 H   0  0  0  0  0  0  0  0  0  0  0  0
  143.8998  137.2261  161.1233 H   0  0  0  0  0  0  0  0  0  0  0  0
  146.3164  134.3765  161.0341 H   0  0  0  0  0  0  0  0  0  0  0  0
  148.1321  134.5071  162.7873 H   0  0  0  0  0  0  0  0  0  0  0  0
  146.5718  134.0131  163.4362 H   0  0  0  0  0  0  0  0  0  0  0  0
  147.1411  135.6558  163.6915 H   0  0  0  0  0  0  0  0  0  0  0  0
  1  2  1  0  0  0  0
  1 29  1  0  0  0  0
  1 30  1  0  0  0  0
  1 31  1  0  0  0  0
  2  3  1  0  0  0  0
  2  4  1  0  0  0  0
  2 32  1  0  0  0  0
  3 33  1  0  0  0  0
  3 34  1  0  0  0  0
  3 35  1  0  0  0  0
  4  5  1  0  0  0  0
  4 36  1  0  0  0  0
  4 37  1  0  0  0  0
  5 11  1  0  0  0  0
  5  6  1  0  0  0  0
  5 38  1  0  0  0  0
  6  7  2  0  0  0  0
  6  8  1  0  0  0  0
  8  9  1  0  0  0  0
  8 39  1  0  0  0  0
  9 10  1  0  0  0  0
  9 40  1  0  0  0  0
  9 41  1  0  0  0  0
 10 11  1  0  0  0  0
 10 42  1  0  0  0  0
 10 43  1  0  0  0  0
 11 12  1  0  0  0  0
 12 17  1  0  0  0  0
 12 13  2  0  0  0  0
 13 14  1  0  0  0  0
 14 15  2  0  0  0  0
 14 44  1  0  0  0  0
 15 16  1  0  0  0  0
 16 20  1  0  0  0  0
 16 17  2  0  0  0  0
 17 18  1  0  0  0  0
 18 19  2  0  0  0  0
 19 20  1  0  0  0  0
 19 45  1  0  0  0  0
 20 21  1  0  0  0  0
 21 22  1  0  0  0  0
 21 46  1  0  0  0  0
 21 47  1  0  0  0  0
 22 27  1  0  0  0  0
 22 23  1  0  0  0  0
 22 24  1  0  0  0  0
 23 48  1  0  0  0  0
 24 25  1  0  0  0  0
 24 49  1  0  0  0  0
 24 50  1  0  0  0  0
 25 26  1  0  0  0  0
 25 51  1  0  0  0  0
 25 52  1  0  0  0  0
 26 27  1  0  0  0  0
 27 28  1  0  0  0  0
 27 53  1  0  0  0  0
 28 54  1  0  0  0  0
 28 55  1  0  0  0  0
 28 56  1  0  0  0  0
M  END
> <s_m_source_file>
AV-unprocessed.smi

> <i_m_source_file_index>
171

> <i_lp_mmshare_version>
43012

> <i_f3d_flags>
0

> <s_epik_input>
W0NIM11bQ0hdKFtDSDNdKVtDSDJdW0NAQEhdMUMoPU8pW05IXVtDSDJdW0NIMl1OMWMobltjSF1uMiljKGMyMyluW2NIXW4zW0NIMl1bQ0BAXTQoW09IXSlbQ0gyXVtDSDJdT1tDQEhdNFtDSDNd

> <s_epik_cmdline>
J2VwaWtfcHl0aG9uJywgJy1waCcsICc3LjAnLCAnLXRuJywgJzgnLCAnLW1hJywgJzIwMCcsICctbWV0YWxfYmluZGluZycsICctaW1hZScsICc8aW5maWxlLm1hZT4nLCAnLW9tYWUnLCAnPG91dGZpbGUubWFlPic=

> <r_lp_tautomer_probability>
1

> <r_epik_Ionization_Penalty>
0.000670584

> <r_epik_Ionization_Penalty_Charging>
0

> <r_epik_Ionization_Penalty_Neutral>
0.000670584

> <r_epik_State_Penalty>
0.000304767

> <r_epik_Charging_Adjusted_Penalty>
0.000304767

> <i_epik_Tot_Q>
0

> <i_epik_Tot_abs_Q>
0

> <r_epik_Metal_State_Penalty>
-0

> <b_epik_Metal_Only>
0

> <s_lp_Force_Field>
OPLS_2005

> <r_lp_Energy>
42.7998

> <b_lp_Chiralities_Consistent>
1

> <s_lp_Variant>
AV-unprocessed.smi:171-6

> <Gold.Version>
5.8.1

> <Gold.Id.Protein>
6NUR|6NUR_protein|mol2

> <Gold.PLP.Fitness>
49.5863

> <Gold.PLP.PLP>
-40.3656

> <Gold.PLP.part.hbond>
-4.0000

> <Gold.PLP.part.metal>
0.0000

> <Gold.PLP.part.buried>
-2.8717

> <Gold.PLP.part.nonpolar>
-34.9696

> <Gold.PLP.part.repulsive>
1.3182

> <Gold.PLP.ligand.clash>
0.0000

> <Gold.PLP.ligand.torsion>
0.8109

> <Gold.PLP.Chemscore.Hbond>
3.4929

> <Gold.PLP.Chemscore.CHOScore>
0.0000

> <Gold.PLP.Chemscore.Metal>
0.0000

> <Gold.Chemscore.Hbonds>
donor molecule, donor type, donor heavy atom, donor atom, acceptor molecule, acceptor atom, score
      L1  H     8    39       P1  7957  0.81
      P1  H  6896  6907       L1    15  0.99
      P1  H  6931  6943       L1    23  1.00
      P1  H  6934  6947       L1    23  0.53

> <Gold.PLP.Chemscore.Internal.Correction>
0.3638

> <Gold.Rescore>
     Score         DG    S(hbond)    S(metal)    S(lipo)     H(rot)  DE(clash)    DE(int)     intcor
     14.55     -18.17       2.54        0.00      86.13       2.29       0.51       3.11       ----

> <Gold.Chemscore.Fitness>
14.5491

> <Gold.Chemscore.DG>
-18.1677

> <Gold.Chemscore.ZeroCoef>
-5.4800

> <Gold.Chemscore.Hbond>
2.5390

> <Gold.Chemscore.Metal>
0.0000

> <Gold.Chemscore.Lipo>
86.1297

> <Gold.Chemscore.Internal_Hbond>
0.0000

> <Gold.Chemscore.DEClash>
0.5107

> <Gold.Chemscore.DEInternal>
3.1079

> <Gold.Chemscore.Rot>
2.2928

> <Gold.Chemscore.Internal.Correction>
   9.000000E+99

> <Gold.Chemscore.Hbonds>
donor molecule, donor type, donor heavy atom, donor atom, acceptor molecule, acceptor atom, score
      L1  H     8    39       P1  7957  0.76
      P1  H  6896  6907       L1    15  0.90
      P1  H  6931  6943       L1    23  0.24
      P1  H  6934  6947       L1    23  0.07

> <Gold.Chemscore.Hbond.Weighted>
-8.4801

> <Gold.Chemscore.Metal.Weighted>
-0.0000

> <Gold.Chemscore.Lipo.Weighted>
-10.0772

> <Gold.Chemscore.Internal_Hbond.Weighted>
0.0000

> <Gold.Chemscore.DEClash.Weighted>
0.5107

> <Gold.Chemscore.DEInternal.Weighted>
3.1079

> <Gold.Chemscore.Rot.Weighted>
5.8696

> <Gold.Chemscore.Internal.Correction.Weighted>
   9.000000E+99

> <Gold.Protein.RotatedTorsions>
[ 6907 6896 6895 6894 ] final  -36.28 input  -60.11 | X-H torsion
[ 7974 7965 7964 7962 ] final  135.91 input  175.53 | X-H torsion
[ 8008 7997 7996 7995 ] final -122.94 input   59.86 | X-H torsion
[ 10167 10162 10161 10158 ] final -100.00 input  -65.29 | X-H torsion
[ 10718 10713 10712 10709 ] final -171.18 input   66.30 | X-H torsion
[ 10763 10752 10751 10750 ] final  -53.36 input  -60.55 | X-H torsion
[ 11005 11000 10999 10996 ] final  100.19 input  -57.11 | X-H torsion

> <Gold.Protein.ActiveResidues>
 VAL166  LYS551  ARG553  GLY616  TRP617  ASP618  TYR619  PRO620  LYS621  CYS622 
 ASP623  PHE694  ASN695  SER759  ASP760  ASP761  ALA762  ILE779  LEU786  VAL792 
 PHE793  MET794  SER795  GLU796  ALA797  LYS798  CYS799  TRP800  GLU811  SER814 

> <Gold.Protein.RotatedAtoms>
  151.0291  134.9526  159.8101 H   0  0  0  0  0  0  0  0  0  0  0  0  # atno 6907 bound_to 6896
  152.5342  134.2803  159.9015 H   0  0  0  0  0  0  0  0  0  0  0  0  # atno 6908 bound_to 6896
  151.2812  133.4166  159.2661 H   0  0  0  0  0  0  0  0  0  0  0  0  # atno 6909 bound_to 6896
  144.9617  139.4703  143.5476 H   0  0  0  0  0  0  0  0  0  0  0  0  # atno 7974 bound_to 7965
  155.1725  140.0408  157.2865 H   0  0  0  0  0  0  0  0  0  0  0  0  # atno 8008 bound_to 7997
  154.6260  140.2512  155.7464 H   0  0  0  0  0  0  0  0  0  0  0  0  # atno 8009 bound_to 7997
  156.2459  140.2885  156.0590 H   0  0  0  0  0  0  0  0  0  0  0  0  # atno 8010 bound_to 7997
  140.2565  143.3436  152.0666 H   0  0  0  0  0  0  0  0  0  0  0  0  # atno 10167 bound_to 10162
  156.7371  130.9328  151.3108 H   0  0  0  0  0  0  0  0  0  0  0  0  # atno 10718 bound_to 10713
  154.1575  135.6480  153.4978 H   0  0  0  0  0  0  0  0  0  0  0  0  # atno 10763 bound_to 10752
  153.0120  135.5353  154.6745 H   0  0  0  0  0  0  0  0  0  0  0  0  # atno 10764 bound_to 10752
  154.6049  135.2947  155.0467 H   0  0  0  0  0  0  0  0  0  0  0  0  # atno 10765 bound_to 10752
  139.8771  134.9129  156.4719 H   0  0  0  0  0  0  0  0  0  0  0  0  # atno 11005 bound_to 11000
  146.3355  139.8770  142.8830 LP  0  0  0  0  0  0  0  0  0  0  0  0  # atno 17320 bound_to 7965
  145.2691  141.0102  143.3782 LP  0  0  0  0  0  0  0  0  0  0  0  0  # atno 17321 bound_to 7965
  139.5030  144.6746  151.6160 LP  0  0  0  0  0  0  0  0  0  0  0  0  # atno 17342 bound_to 10162
  140.5999  143.9628  150.6379 LP  0  0  0  0  0  0  0  0  0  0  0  0  # atno 17343 bound_to 10162
  157.6834  130.9162  150.0325 LP  0  0  0  0  0  0  0  0  0  0  0  0  # atno 17370 bound_to 10713
  156.1489  130.3642  149.9468 LP  0  0  0  0  0  0  0  0  0  0  0  0  # atno 17371 bound_to 10713
  140.8790  133.7932  155.9445 LP  0  0  0  0  0  0  0  0  0  0  0  0  # atno 17394 bound_to 11000
  140.8874  134.2537  157.5112 LP  0  0  0  0  0  0  0  0  0  0  0  0  # atno 17395 bound_to 11000

$$$$
