AV-unprocessed.smi:1149|AV-procd|sdf|4891|dock4
  -GOLD-   22720 3463D 1   1.00000     0.00000
 Structure written by MMmdl.
 51 52  0  0  0  0  0  0  0  0  2 V2000
  151.2975  141.6682  158.1304 C   0  0  0  0  0  0  0  0  0  0  0  0
  151.5336  141.4260  156.7478 O   0  0  0  0  0  0  0  0  0  0  0  0
  151.0560  140.2541  156.1975 C   0  0  0  0  0  0  0  0  0  0  0  0
  150.6530  139.2176  157.0625 C   0  0  0  0  0  0  0  0  0  0  0  0
  150.1647  138.0185  156.5091 C   0  0  0  0  0  0  0  0  0  0  0  0
  150.0863  137.8971  155.1009 C   0  0  0  0  0  0  0  0  0  0  0  0
  149.6297  136.7378  154.4168 N   0  0  0  0  0  0  0  0  0  0  0  0
  149.2367  135.5589  154.9291 C   0  0  0  0  0  0  0  0  0  0  0  0
  149.1833  135.2830  156.1271 O   0  0  0  0  0  0  0  0  0  0  0  0
  148.8752  134.7069  153.9587 N   0  0  0  0  0  0  0  0  0  0  0  0
  148.3882  133.3425  154.1618 C   0  0  0  0  0  0  0  0  0  0  0  0
  146.8332  133.2315  154.1580 C   0  0  0  0  0  0  0  0  0  0  0  0
  146.3878  131.8348  154.6610 C   0  0  0  0  0  0  0  0  0  0  0  0
  146.2365  134.2549  155.1566 C   0  0  0  0  0  0  0  0  0  0  0  0
  146.2691  133.4768  152.7811 N   0  3  0  0  0  0  0  0  0  0  0  0
  144.8334  133.8767  152.7271 C   0  0  0  0  0  0  0  0  0  0  0  0
  144.4400  134.3142  151.3006 C   0  0  0  0  0  0  0  0  0  0  0  0
  144.6885  133.2672  150.3107 N   0  0  0  0  0  0  0  0  0  0  0  0
  143.7607  132.1459  150.4159 C   0  0  0  0  0  0  0  0  0  0  0  0
  146.0931  132.8636  150.3659 C   0  0  0  0  0  0  0  0  0  0  0  0
  146.5147  132.4022  151.7769 C   0  0  0  0  0  0  0  0  0  0  0  0
  150.5270  138.9885  154.3238 C   0  0  0  0  0  0  0  0  0  0  0  0
  150.9962  140.1400  154.8478 N   0  0  0  0  0  0  0  0  0  0  0  0
  151.7382  142.6251  158.4094 H   0  0  0  0  0  0  0  0  0  0  0  0
  151.7550  140.8991  158.7545 H   0  0  0  0  0  0  0  0  0  0  0  0
  150.2300  141.7194  158.3495 H   0  0  0  0  0  0  0  0  0  0  0  0
  150.7218  139.3379  158.1337 H   0  0  0  0  0  0  0  0  0  0  0  0
  149.8763  137.2197  157.1739 H   0  0  0  0  0  0  0  0  0  0  0  0
  149.5451  136.8363  153.4157 H   0  0  0  0  0  0  0  0  0  0  0  0
  148.9464  135.0241  153.0028 H   0  0  0  0  0  0  0  0  0  0  0  0
  148.8139  132.7485  153.3538 H   0  0  0  0  0  0  0  0  0  0  0  0
  148.8084  132.9348  155.0816 H   0  0  0  0  0  0  0  0  0  0  0  0
  146.5864  131.7040  155.7252 H   0  0  0  0  0  0  0  0  0  0  0  0
  146.9142  131.0251  154.1558 H   0  0  0  0  0  0  0  0  0  0  0  0
  145.3173  131.6825  154.5182 H   0  0  0  0  0  0  0  0  0  0  0  0
  146.4628  133.9886  156.1898 H   0  0  0  0  0  0  0  0  0  0  0  0
  145.1504  134.3074  155.0715 H   0  0  0  0  0  0  0  0  0  0  0  0
  146.6344  135.2588  155.0113 H   0  0  0  0  0  0  0  0  0  0  0  0
  144.1923  133.0645  153.0681 H   0  0  0  0  0  0  0  0  0  0  0  0
  144.6353  134.7228  153.3818 H   0  0  0  0  0  0  0  0  0  0  0  0
  143.3892  134.6046  151.2682 H   0  0  0  0  0  0  0  0  0  0  0  0
  145.0122  135.1999  151.0206 H   0  0  0  0  0  0  0  0  0  0  0  0
  143.9524  131.4227  149.6227 H   0  0  0  0  0  0  0  0  0  0  0  0
  142.7339  132.4954  150.3023 H   0  0  0  0  0  0  0  0  0  0  0  0
  143.8351  131.6259  151.3702 H   0  0  0  0  0  0  0  0  0  0  0  0
  146.2736  132.0722  149.6373 H   0  0  0  0  0  0  0  0  0  0  0  0
  146.7099  133.7095  150.0594 H   0  0  0  0  0  0  0  0  0  0  0  0
  147.5709  132.1459  151.7276 H   0  0  0  0  0  0  0  0  0  0  0  0
  145.9862  131.4892  152.0497 H   0  0  0  0  0  0  0  0  0  0  0  0
  150.4987  138.9398  153.2451 H   0  0  0  0  0  0  0  0  0  0  0  0
  146.7766  134.2795  152.4370 H   0  0  0  0  0  0  0  0  0  0  0  0
  1  2  1  0  0  0  0
  1 24  1  0  0  0  0
  1 25  1  0  0  0  0
  1 26  1  0  0  0  0
  2  3  1  0  0  0  0
  3 23  1  0  0  0  0
  3  4  2  0  0  0  0
  4  5  1  0  0  0  0
  4 27  1  0  0  0  0
  5  6  2  0  0  0  0
  5 28  1  0  0  0  0
  6  7  1  0  0  0  0
  6 22  1  0  0  0  0
  7  8  1  0  0  0  0
  7 29  1  0  0  0  0
  8  9  2  0  0  0  0
  8 10  1  0  0  0  0
 10 11  1  0  0  0  0
 10 30  1  0  0  0  0
 11 12  1  0  0  0  0
 11 31  1  0  0  0  0
 11 32  1  0  0  0  0
 12 13  1  0  0  0  0
 12 14  1  0  0  0  0
 12 15  1  0  0  0  0
 13 33  1  0  0  0  0
 13 34  1  0  0  0  0
 13 35  1  0  0  0  0
 14 36  1  0  0  0  0
 14 37  1  0  0  0  0
 14 38  1  0  0  0  0
 15 21  1  0  0  0  0
 15 16  1  0  0  0  0
 15 51  1  0  0  0  0
 16 17  1  0  0  0  0
 16 39  1  0  0  0  0
 16 40  1  0  0  0  0
 17 18  1  0  0  0  0
 17 41  1  0  0  0  0
 17 42  1  0  0  0  0
 18 19  1  0  0  0  0
 18 20  1  0  0  0  0
 19 43  1  0  0  0  0
 19 44  1  0  0  0  0
 19 45  1  0  0  0  0
 20 21  1  0  0  0  0
 20 46  1  0  0  0  0
 20 47  1  0  0  0  0
 21 48  1  0  0  0  0
 21 49  1  0  0  0  0
 22 23  2  0  0  0  0
 22 50  1  0  0  0  0
M  CHG  1  15   1
M  END
> <s_m_source_file>
AV-unprocessed.smi

> <i_m_source_file_index>
1149

> <i_lp_mmshare_version>
43012

> <i_f3d_flags>
0

> <s_epik_input>
W0NIM11PYzFbY0hdW2NIXWMoW2NIXW4xKVtOSF1DKD1PKVtOSF1bQ0gyXUMoW0NIM10pKFtDSDNdKU4yW0NIMl1bQ0gyXU4oW0NIM10pW0NIMl1bQ0gyXTI=

> <s_epik_cmdline>
J2VwaWtfcHl0aG9uJywgJy1waCcsICc3LjAnLCAnLXRuJywgJzgnLCAnLW1hJywgJzIwMCcsICctbWV0YWxfYmluZGluZycsICctaW1hZScsICc8aW5maWxlLm1hZT4nLCAnLW9tYWUnLCAnPG91dGZpbGUubWFlPic=

> <r_epik_Ionization_Penalty>
0.0907124

> <r_epik_Ionization_Penalty_Charging>
0.0886444

> <r_epik_Ionization_Penalty_Neutral>
0.00206799

> <r_epik_State_Penalty>
1.00524

> <r_epik_Charging_Adjusted_Penalty>
1.09388

> <i_epik_Tot_Q>
1

> <i_epik_Tot_abs_Q>
1

> <r_epik_Metal_State_Penalty>
1.00525

> <b_epik_Metal_Only>
0

> <s_lp_Force_Field>
OPLS_2005

> <r_lp_Energy>
30.5246

> <b_lp_Chiralities_Consistent>
1

> <s_lp_Variant>
AV-unprocessed.smi:1149-2

> <Gold.Version>
5.8.1

> <Gold.Id.Protein>
6NUR|6NUR_protein|mol2

> <Gold.PLP.Fitness>
40.3535

> <Gold.PLP.PLP>
-29.8750

> <Gold.PLP.part.hbond>
-3.0000

> <Gold.PLP.part.metal>
0.0000

> <Gold.PLP.part.buried>
-4.9601

> <Gold.PLP.part.nonpolar>
-21.9910

> <Gold.PLP.part.repulsive>
0.3006

> <Gold.PLP.ligand.clash>
0.0079

> <Gold.PLP.ligand.torsion>
0.8160

> <Gold.PLP.Chemscore.Hbond>
3.0000

> <Gold.PLP.Chemscore.CHOScore>
1.0000

> <Gold.PLP.Chemscore.Metal>
0.0000

> <Gold.Chemscore.Hbonds>
donor molecule, donor type, donor heavy atom, donor atom, acceptor molecule, acceptor atom, score
      L1  H     7    29       P1  7948  1.00
      L1  H    10    30       P1  7948  0.90
      P1  H  7989  7998       L1    23  1.00
      L1  C    22    50       P1  7957  1.00

> <Gold.PLP.Chemscore.Internal.Correction>
0.1185

> <Gold.Rescore>
     Score         DG    S(hbond)    S(metal)    S(lipo)     H(rot)  DE(clash)    DE(int)     intcor
     14.97     -16.90       2.28        0.00      70.26       1.72       0.16       1.77       ----

> <Gold.Chemscore.Fitness>
14.9726

> <Gold.Chemscore.DG>
-16.8996

> <Gold.Chemscore.ZeroCoef>
-5.4800

> <Gold.Chemscore.Hbond>
2.2770

> <Gold.Chemscore.Metal>
0.0000

> <Gold.Chemscore.Lipo>
70.2641

> <Gold.Chemscore.Internal_Hbond>
0.0000

> <Gold.Chemscore.DEClash>
0.1619

> <Gold.Chemscore.DEInternal>
1.7651

> <Gold.Chemscore.Rot>
1.7213

> <Gold.Chemscore.Internal.Correction>
   9.000000E+99

> <Gold.Chemscore.Hbonds>
donor molecule, donor type, donor heavy atom, donor atom, acceptor molecule, acceptor atom, score
      L1  H     7    29       P1  7948  0.75
      L1  H    10    30       P1  7948  0.17
      P1  H  7989  7998       L1    23  0.30

> <Gold.Chemscore.Hbond.Weighted>
-7.6052

> <Gold.Chemscore.Metal.Weighted>
-0.0000

> <Gold.Chemscore.Lipo.Weighted>
-8.2209

> <Gold.Chemscore.Internal_Hbond.Weighted>
0.0000

> <Gold.Chemscore.DEClash.Weighted>
0.1619

> <Gold.Chemscore.DEInternal.Weighted>
1.7651

> <Gold.Chemscore.Rot.Weighted>
4.4066

> <Gold.Chemscore.Internal.Correction.Weighted>
   9.000000E+99

> <Gold.Protein.RotatedTorsions>
[ 6907 6896 6895 6894 ] final -140.33 input  -60.11 | X-H torsion
[ 7974 7965 7964 7962 ] final  -72.76 input  175.53 | X-H torsion
[ 8008 7997 7996 7995 ] final   21.33 input   59.86 | X-H torsion
[ 10167 10162 10161 10158 ] final -172.32 input  -65.29 | X-H torsion
[ 10718 10713 10712 10709 ] final  171.03 input   66.30 | X-H torsion
[ 10763 10752 10751 10750 ] final  168.03 input  -60.55 | X-H torsion
[ 11005 11000 10999 10996 ] final  -41.70 input  -57.11 | X-H torsion

> <Gold.Protein.ActiveResidues>
 VAL166  LYS551  ARG553  GLY616  TRP617  ASP618  TYR619  PRO620  LYS621  CYS622 
 ASP623  PHE694  ASN695  SER759  ASP760  ASP761  ALA762  ILE779  LEU786  VAL792 
 PHE793  MET794  SER795  GLU796  ALA797  LYS798  CYS799  TRP800  GLU811  SER814 

> <Gold.Protein.RotatedAtoms>
  151.0593  133.5557  159.2635 H   0  0  0  0  0  0  0  0  0  0  0  0  # atno 6907 bound_to 6896
  151.2538  135.0630  159.9082 H   0  0  0  0  0  0  0  0  0  0  0  0  # atno 6908 bound_to 6896
  152.5395  134.0350  159.8095 H   0  0  0  0  0  0  0  0  0  0  0  0  # atno 6909 bound_to 6896
  145.6610  140.9253  143.0934 H   0  0  0  0  0  0  0  0  0  0  0  0  # atno 7974 bound_to 7965
  154.9490  140.3063  155.5084 H   0  0  0  0  0  0  0  0  0  0  0  0  # atno 8008 bound_to 7997
  156.2989  140.2322  156.4504 H   0  0  0  0  0  0  0  0  0  0  0  0  # atno 8009 bound_to 7997
  154.8072  140.0430  157.1305 H   0  0  0  0  0  0  0  0  0  0  0  0  # atno 8010 bound_to 7997
  139.5751  144.1550  152.1439 H   0  0  0  0  0  0  0  0  0  0  0  0  # atno 10167 bound_to 10162
  156.9994  131.0171  151.2835 H   0  0  0  0  0  0  0  0  0  0  0  0  # atno 10718 bound_to 10713
  154.3625  135.2753  155.2312 H   0  0  0  0  0  0  0  0  0  0  0  0  # atno 10763 bound_to 10752
  154.4493  135.5935  153.6185 H   0  0  0  0  0  0  0  0  0  0  0  0  # atno 10764 bound_to 10752
  152.9842  135.6038  154.3848 H   0  0  0  0  0  0  0  0  0  0  0  0  # atno 10765 bound_to 10752
  141.0264  133.6839  156.2493 H   0  0  0  0  0  0  0  0  0  0  0  0  # atno 11005 bound_to 11000
  144.7089  139.8448  143.7421 LP  0  0  0  0  0  0  0  0  0  0  0  0  # atno 17320 bound_to 7965
  146.1125  139.4132  143.0278 LP  0  0  0  0  0  0  0  0  0  0  0  0  # atno 17321 bound_to 7965
  140.1091  144.5472  150.6937 LP  0  0  0  0  0  0  0  0  0  0  0  0  # atno 17342 bound_to 10162
  140.7034  143.2451  151.4797 LP  0  0  0  0  0  0  0  0  0  0  0  0  # atno 17343 bound_to 10162
  157.5401  130.8114  149.8018 LP  0  0  0  0  0  0  0  0  0  0  0  0  # atno 17370 bound_to 10713
  156.0177  130.3807  150.2060 LP  0  0  0  0  0  0  0  0  0  0  0  0  # atno 17371 bound_to 10713
  140.6484  134.5093  157.5575 LP  0  0  0  0  0  0  0  0  0  0  0  0  # atno 17394 bound_to 11000
  139.9179  134.8209  156.1307 LP  0  0  0  0  0  0  0  0  0  0  0  0  # atno 17395 bound_to 11000

$$$$
