AV-unprocessed.smi:3234|AV-procd|sdf|12348|dock7
  -GOLD-   2272018213D 1   1.00000     0.00000
 Structure written by MMmdl.
 37 39  0  0  0  0  0  0  0  0  2 V2000
  150.2589  134.4193  155.7598 O   0  0  0  0  0  0  0  0  0  0  0  0
  149.9189  135.0411  154.7542 C   0  0  0  0  0  0  0  0  0  0  0  0
  150.3315  136.2747  154.4126 N   0  0  0  0  0  0  0  0  0  0  0  0
  151.2252  137.1548  155.0856 C   0  0  0  0  0  0  0  0  0  0  0  0
  151.5782  138.3469  154.4191 C   0  0  0  0  0  0  0  0  0  0  0  0
  152.4577  139.2478  155.0520 C   0  0  0  0  0  0  0  0  0  0  0  0
  152.9860  139.0324  156.2746 N   0  0  0  0  0  0  0  0  0  0  0  0
  152.6459  137.8936  156.9138 C   0  0  0  0  0  0  0  0  0  0  0  0
  151.7751  136.9272  156.3712 C   0  0  0  0  0  0  0  0  0  0  0  0
  149.0704  134.5464  153.8417 N   0  0  0  0  0  0  0  0  0  0  0  0
  148.4426  133.2317  153.9204 C   0  0  2  0  0  0  0  0  0  0  0  0
  149.4011  132.0841  154.2240 C   0  0  0  0  0  0  0  0  0  0  0  0
  148.6165  130.8600  153.7386 C   0  0  0  0  0  0  0  0  0  0  0  0
  147.7210  131.3301  152.6521 N   0  3  1  0  0  0  0  0  0  0  0  0
  146.3263  130.8571  152.7890 C   0  0  0  0  0  0  0  0  0  0  0  0
  146.0621  129.5438  152.0922 C   0  0  0  0  0  0  0  0  0  0  0  0
  145.5650  130.8379  151.4851 C   0  0  0  0  0  0  0  0  0  0  0  0
  147.8423  132.8032  152.5822 C   0  0  0  0  0  0  0  0  0  0  0  0
  149.9647  136.6311  153.5424 H   0  0  0  0  0  0  0  0  0  0  0  0
  151.1854  138.5726  153.4384 H   0  0  0  0  0  0  0  0  0  0  0  0
  152.7438  140.1668  154.5620 H   0  0  0  0  0  0  0  0  0  0  0  0
  153.0803  137.7471  157.8916 H   0  0  0  0  0  0  0  0  0  0  0  0
  151.5544  136.0487  156.9554 H   0  0  0  0  0  0  0  0  0  0  0  0
  148.8414  135.1193  153.0424 H   0  0  0  0  0  0  0  0  0  0  0  0
  147.6502  133.2501  154.6719 H   0  0  0  0  0  0  0  0  0  0  0  0
  150.3197  132.1925  153.6453 H   0  0  0  0  0  0  0  0  0  0  0  0
  149.6711  132.0205  155.2787 H   0  0  0  0  0  0  0  0  0  0  0  0
  149.2742  130.0644  153.3880 H   0  0  0  0  0  0  0  0  0  0  0  0
  148.0270  130.4582  154.5646 H   0  0  0  0  0  0  0  0  0  0  0  0
  145.8203  131.1003  153.7219 H   0  0  0  0  0  0  0  0  0  0  0  0
  146.8959  129.0447  151.6015 H   0  0  0  0  0  0  0  0  0  0  0  0
  145.3180  128.8823  152.5314 H   0  0  0  0  0  0  0  0  0  0  0  0
  144.4945  131.0289  151.5264 H   0  0  0  0  0  0  0  0  0  0  0  0
  146.0672  131.1986  150.5893 H   0  0  0  0  0  0  0  0  0  0  0  0
  146.8924  133.2982  152.3735 H   0  0  0  0  0  0  0  0  0  0  0  0
  148.5243  133.0432  151.7649 H   0  0  0  0  0  0  0  0  0  0  0  0
  148.0747  130.9637  151.7799 H   0  0  0  0  0  0  0  0  0  0  0  0
  1  2  2  0  0  0  0
  2  3  1  0  0  0  0
  2 10  1  0  0  0  0
  3  4  1  0  0  0  0
  3 19  1  0  0  0  0
  4  9  1  0  0  0  0
  4  5  2  0  0  0  0
  5  6  1  0  0  0  0
  5 20  1  0  0  0  0
  6  7  2  0  0  0  0
  6 21  1  0  0  0  0
  7  8  1  0  0  0  0
  8  9  2  0  0  0  0
  8 22  1  0  0  0  0
  9 23  1  0  0  0  0
 10 11  1  0  0  0  0
 10 24  1  0  0  0  0
 11 18  1  0  0  0  0
 11 12  1  0  0  0  0
 11 25  1  0  0  0  0
 12 13  1  0  0  0  0
 12 26  1  0  0  0  0
 12 27  1  0  0  0  0
 13 14  1  0  0  0  0
 13 28  1  0  0  0  0
 13 29  1  0  0  0  0
 14 15  1  0  0  0  0
 14 18  1  0  0  0  0
 14 37  1  0  0  0  0
 15 17  1  0  0  0  0
 15 16  1  0  0  0  0
 15 30  1  0  0  0  0
 16 17  1  0  0  0  0
 16 31  1  0  0  0  0
 16 32  1  0  0  0  0
 17 33  1  0  0  0  0
 17 34  1  0  0  0  0
 18 35  1  0  0  0  0
 18 36  1  0  0  0  0
M  CHG  1  14   1
M  END
> <s_m_source_file>
AV-unprocessed.smi

> <i_m_source_file_index>
3234

> <i_lp_mmshare_version>
43012

> <i_f3d_flags>
0

> <s_epik_input>
W2NIXTFbY0hdbltjSF1bY0hdYzFbTkhdQyg9TylbTkhdW0NAQEhdMltDSDJdW0NIMl1OKFtDSDJdMilbQ0hdM1tDSDJdW0NIMl0z

> <s_epik_cmdline>
J2VwaWtfcHl0aG9uJywgJy1waCcsICc3LjAnLCAnLXRuJywgJzgnLCAnLW1hJywgJzIwMCcsICctbWV0YWxfYmluZGluZycsICctaW1hZScsICc8aW5maWxlLm1hZT4nLCAnLW9tYWUnLCAnPG91dGZpbGUubWFlPic=

> <r_epik_Ionization_Penalty>
0.0934328

> <r_epik_Ionization_Penalty_Charging>
0.000606352

> <r_epik_Ionization_Penalty_Neutral>
0.0928265

> <r_epik_State_Penalty>
0.0830811

> <r_epik_Charging_Adjusted_Penalty>
0.0836875

> <i_epik_Tot_Q>
1

> <i_epik_Tot_abs_Q>
1

> <r_epik_Metal_State_Penalty>
0.0724491

> <b_epik_Metal_Only>
0

> <s_lp_Force_Field>
OPLS_2005

> <r_lp_Energy>
42.4864

> <b_lp_Chiralities_Consistent>
1

> <s_lp_Variant>
AV-unprocessed.smi:3234-1

> <Gold.Version>
5.8.1

> <Gold.Id.Protein>
6NUR|6NUR_protein|mol2

> <Gold.PLP.Fitness>
45.8950

> <Gold.PLP.PLP>
-34.3970

> <Gold.PLP.part.hbond>
-4.9331

> <Gold.PLP.part.metal>
0.0000

> <Gold.PLP.part.buried>
-1.6079

> <Gold.PLP.part.nonpolar>
-27.2005

> <Gold.PLP.part.repulsive>
0.1244

> <Gold.PLP.ligand.clash>
0.0000

> <Gold.PLP.ligand.torsion>
0.7990

> <Gold.PLP.Chemscore.Hbond>
3.9440

> <Gold.PLP.Chemscore.CHOScore>
0.0000

> <Gold.PLP.Chemscore.Metal>
0.0000

> <Gold.Chemscore.Hbonds>
donor molecule, donor type, donor heavy atom, donor atom, acceptor molecule, acceptor atom, score
      L1  H     3    19       P1  7948  0.90
      L1  H    10    24       P1  7948  1.00
      L1  H    14    37       P1 10747  1.00
      P1  H  7997  8009       L1     7  1.00

> <Gold.PLP.Chemscore.Internal.Correction>
1.2641

> <Gold.Rescore>
     Score         DG    S(hbond)    S(metal)    S(lipo)     H(rot)  DE(clash)    DE(int)     intcor
     19.02     -22.24       3.12        0.00      80.57       1.21       0.07       3.14       ----

> <Gold.Chemscore.Fitness>
19.0225

> <Gold.Chemscore.DG>
-22.2365

> <Gold.Chemscore.ZeroCoef>
-5.4800

> <Gold.Chemscore.Hbond>
3.1226

> <Gold.Chemscore.Metal>
0.0000

> <Gold.Chemscore.Lipo>
80.5685

> <Gold.Chemscore.Internal_Hbond>
0.0000

> <Gold.Chemscore.DEClash>
0.0748

> <Gold.Chemscore.DEInternal>
3.1392

> <Gold.Chemscore.Rot>
1.2108

> <Gold.Chemscore.Internal.Correction>
   9.000000E+99

> <Gold.Chemscore.Hbonds>
donor molecule, donor type, donor heavy atom, donor atom, acceptor molecule, acceptor atom, score
      L1  H     3    19       P1  7948  0.19
      L1  H    10    24       P1  7948  0.39
      L1  H    14    37       P1 10747  1.00
      P1  H  7997  8009       L1     7  0.55

> <Gold.Chemscore.Hbond.Weighted>
-10.4295

> <Gold.Chemscore.Metal.Weighted>
-0.0000

> <Gold.Chemscore.Lipo.Weighted>
-9.4265

> <Gold.Chemscore.Internal_Hbond.Weighted>
0.0000

> <Gold.Chemscore.DEClash.Weighted>
0.0748

> <Gold.Chemscore.DEInternal.Weighted>
3.1392

> <Gold.Chemscore.Rot.Weighted>
3.0996

> <Gold.Chemscore.Internal.Correction.Weighted>
   9.000000E+99

> <Gold.Protein.RotatedTorsions>
[ 6907 6896 6895 6894 ] final  -57.69 input  -60.11 | X-H torsion
[ 7974 7965 7964 7962 ] final  -74.18 input  175.53 | X-H torsion
[ 8008 7997 7996 7995 ] final -166.35 input   59.86 | X-H torsion
[ 10167 10162 10161 10158 ] final   57.47 input  -65.29 | X-H torsion
[ 10718 10713 10712 10709 ] final -170.08 input   66.30 | X-H torsion
[ 10763 10752 10751 10750 ] final -121.75 input  -60.55 | X-H torsion
[ 11005 11000 10999 10996 ] final -160.11 input  -57.11 | X-H torsion

> <Gold.Protein.ActiveResidues>
 VAL166  LYS551  ARG553  GLY616  TRP617  ASP618  TYR619  PRO620  LYS621  CYS622 
 ASP623  PHE694  ASN695  SER759  ASP760  ASP761  ALA762  ILE779  LEU786  VAL792 
 PHE793  MET794  SER795  GLU796  ALA797  LYS798  CYS799  TRP800  GLU811  SER814 

> <Gold.Protein.RotatedAtoms>
  150.8066  134.7195  159.6649 H   0  0  0  0  0  0  0  0  0  0  0  0  # atno 6907 bound_to 6896
  152.4185  134.5994  160.0006 H   0  0  0  0  0  0  0  0  0  0  0  0  # atno 6908 bound_to 6896
  151.6216  133.3301  159.3125 H   0  0  0  0  0  0  0  0  0  0  0  0  # atno 6909 bound_to 6896
  145.6425  140.9307  143.1028 H   0  0  0  0  0  0  0  0  0  0  0  0  # atno 7974 bound_to 7965
  155.8626  140.0980  157.1603 H   0  0  0  0  0  0  0  0  0  0  0  0  # atno 8008 bound_to 7997
  154.3991  140.1362  156.4042 H   0  0  0  0  0  0  0  0  0  0  0  0  # atno 8009 bound_to 7997
  155.7840  140.3457  155.5315 H   0  0  0  0  0  0  0  0  0  0  0  0  # atno 8010 bound_to 7997
  140.1976  144.4021  150.6543 H   0  0  0  0  0  0  0  0  0  0  0  0  # atno 10167 bound_to 10162
  156.7209  130.9270  151.3097 H   0  0  0  0  0  0  0  0  0  0  0  0  # atno 10718 bound_to 10713
  154.8675  135.4157  154.2670 H   0  0  0  0  0  0  0  0  0  0  0  0  # atno 10763 bound_to 10752
  153.3587  135.7002  153.6735 H   0  0  0  0  0  0  0  0  0  0  0  0  # atno 10764 bound_to 10752
  153.5645  135.3603  155.2785 H   0  0  0  0  0  0  0  0  0  0  0  0  # atno 10765 bound_to 10752
  140.6352  134.4609  157.5231 H   0  0  0  0  0  0  0  0  0  0  0  0  # atno 11005 bound_to 11000
  144.7152  139.8222  143.7401 LP  0  0  0  0  0  0  0  0  0  0  0  0  # atno 17320 bound_to 7965
  146.1270  139.4297  143.0193 LP  0  0  0  0  0  0  0  0  0  0  0  0  # atno 17321 bound_to 7965
  140.6412  143.2204  151.6285 LP  0  0  0  0  0  0  0  0  0  0  0  0  # atno 17342 bound_to 10162
  139.5230  144.3146  152.0963 LP  0  0  0  0  0  0  0  0  0  0  0  0  # atno 17343 bound_to 10162
  157.6898  130.9222  150.0483 LP  0  0  0  0  0  0  0  0  0  0  0  0  # atno 17370 bound_to 10713
  156.1595  130.3643  149.9320 LP  0  0  0  0  0  0  0  0  0  0  0  0  # atno 17371 bound_to 10713
  139.9101  134.8364  156.1560 LP  0  0  0  0  0  0  0  0  0  0  0  0  # atno 17394 bound_to 11000
  141.0647  133.6825  156.2021 LP  0  0  0  0  0  0  0  0  0  0  0  0  # atno 17395 bound_to 11000

$$$$
