AV-unprocessed.smi:3032|AV-procd|sdf|11571|dock3
  -GOLD-   2272016533D 1   1.00000     0.00000
 Structure written by MMmdl.
 36 37  0  0  0  0  0  0  0  0  2 V2000
  153.6025  141.7928  161.2630 C   0  0  0  0  0  0  0  0  0  0  0  0
  153.1812  142.2052  159.8452 C   0  0  2  0  0  0  0  0  0  0  0  0
  152.8614  143.7105  159.7679 C   0  0  0  0  0  0  0  0  0  0  0  0
  152.4320  144.1237  158.3513 C   0  0  0  0  0  0  0  0  0  0  0  0
  151.2375  143.2878  157.8661 C   0  0  0  0  0  0  0  0  0  0  0  0
  151.5516  141.7786  157.9240 C   0  0  2  0  0  0  0  0  0  0  0  0
  150.3456  140.9528  157.4565 C   0  0  0  0  0  0  0  0  0  0  0  0
  149.8065  140.1518  158.2216 O   0  0  0  0  0  0  0  0  0  0  0  0
  149.9302  141.1609  156.1984 N   0  0  0  0  0  0  0  0  0  0  0  0
  148.7692  140.5256  155.5834 C   0  0  0  0  0  0  0  0  0  0  0  0
  149.1303  139.7657  154.2937 C   0  0  0  0  0  0  0  0  0  0  0  0
  150.4895  139.0969  154.3540 C   0  0  0  0  0  0  0  0  0  0  0  0
  150.7171  137.7730  154.2310 N   0  5  0  0  0  0  0  0  0  0  0  0
  152.0039  137.5189  154.3668 N   0  0  0  0  0  0  0  0  0  0  0  0
  152.5534  138.7195  154.5839 C   0  0  0  0  0  0  0  0  0  0  0  0
  151.6502  139.7055  154.5877 N   0  0  0  0  0  0  0  0  0  0  0  0
  151.9809  141.3735  159.3509 C   0  0  0  0  0  0  0  0  0  0  0  0
  152.7969  141.9570  161.9795 H   0  0  0  0  0  0  0  0  0  0  0  0
  154.4684  142.3648  161.5979 H   0  0  0  0  0  0  0  0  0  0  0  0
  153.8715  140.7366  161.3008 H   0  0  0  0  0  0  0  0  0  0  0  0
  154.0240  142.0063  159.1814 H   0  0  0  0  0  0  0  0  0  0  0  0
  152.0665  143.9558  160.4738 H   0  0  0  0  0  0  0  0  0  0  0  0
  153.7321  144.2939  160.0693 H   0  0  0  0  0  0  0  0  0  0  0  0
  152.1742  145.1830  158.3352 H   0  0  0  0  0  0  0  0  0  0  0  0
  153.2692  143.9987  157.6635 H   0  0  0  0  0  0  0  0  0  0  0  0
  150.3660  143.5156  158.4825 H   0  0  0  0  0  0  0  0  0  0  0  0
  150.9790  143.5787  156.8468 H   0  0  0  0  0  0  0  0  0  0  0  0
  152.3862  141.5795  157.2487 H   0  0  0  0  0  0  0  0  0  0  0  0
  150.4196  141.8476  155.6431 H   0  0  0  0  0  0  0  0  0  0  0  0
  148.3490  139.8290  156.3093 H   0  0  0  0  0  0  0  0  0  0  0  0
  147.9935  141.2660  155.3826 H   0  0  0  0  0  0  0  0  0  0  0  0
  148.3765  139.0045  154.0912 H   0  0  0  0  0  0  0  0  0  0  0  0
  149.1159  140.4467  153.4420 H   0  0  0  0  0  0  0  0  0  0  0  0
  153.6133  138.8745  154.7422 H   0  0  0  0  0  0  0  0  0  0  0  0
  152.2386  140.3134  159.3702 H   0  0  0  0  0  0  0  0  0  0  0  0
  151.1459  141.4988  160.0427 H   0  0  0  0  0  0  0  0  0  0  0  0
  1  2  1  0  0  0  0
  1 18  1  0  0  0  0
  1 19  1  0  0  0  0
  1 20  1  0  0  0  0
  2 17  1  0  0  0  0
  2  3  1  0  0  0  0
  2 21  1  0  0  0  0
  3  4  1  0  0  0  0
  3 22  1  0  0  0  0
  3 23  1  0  0  0  0
  4  5  1  0  0  0  0
  4 24  1  0  0  0  0
  4 25  1  0  0  0  0
  5  6  1  0  0  0  0
  5 26  1  0  0  0  0
  5 27  1  0  0  0  0
  6  7  1  0  0  0  0
  6 17  1  0  0  0  0
  6 28  1  0  0  0  0
  7  8  2  0  0  0  0
  7  9  1  0  0  0  0
  9 10  1  0  0  0  0
  9 29  1  0  0  0  0
 10 11  1  0  0  0  0
 10 30  1  0  0  0  0
 10 31  1  0  0  0  0
 11 32  1  0  0  0  0
 11 33  1  0  0  0  0
 11 12  1  0  0  0  0
 12 16  2  0  0  0  0
 12 13  1  0  0  0  0
 13 14  1  0  0  0  0
 14 15  2  0  0  0  0
 15 16  1  0  0  0  0
 15 34  1  0  0  0  0
 17 35  1  0  0  0  0
 17 36  1  0  0  0  0
M  CHG  1  13  -1
M  END
> <s_m_source_file>
AV-unprocessed.smi

> <i_m_source_file_index>
3032

> <i_lp_mmshare_version>
43012

> <i_f3d_flags>
0

> <s_epik_input>
W0NIM11bQ0BASF0xW0NIMl1bQ0gyXVtDSDJdW0NASF0oW0NIMl0xKUMoPU8pW05IXVtDSDJdW0NIMl1jMm5uW2NIXVtuSF0y

> <s_epik_cmdline>
J2VwaWtfcHl0aG9uJywgJy1waCcsICc3LjAnLCAnLXRuJywgJzgnLCAnLW1hJywgJzIwMCcsICctbWV0YWxfYmluZGluZycsICctaW1hZScsICc8aW5maWxlLm1hZT4nLCAnLW9tYWUnLCAnPG91dGZpbGUubWFlPic=

> <r_lp_tautomer_probability>
0.948284

> <r_epik_Ionization_Penalty>
12.042

> <r_epik_Ionization_Penalty_Charging>
12.042

> <r_epik_Ionization_Penalty_Neutral>
4.36781e-08

> <r_epik_State_Penalty>
4.67286

> <r_epik_Charging_Adjusted_Penalty>
16.7149

> <i_epik_Tot_Q>
-1

> <i_epik_Tot_abs_Q>
1

> <r_epik_Metal_State_Penalty>
0.981637

> <b_epik_Metal_Only>
1

> <s_lp_Force_Field>
OPLS_2005

> <r_lp_Energy>
10.3443

> <b_lp_Chiralities_Consistent>
1

> <s_lp_Variant>
AV-unprocessed.smi:3032-15

> <Gold.Version>
5.8.1

> <Gold.Id.Protein>
6NUR|6NUR_protein|mol2

> <Gold.PLP.Fitness>
43.8790

> <Gold.PLP.PLP>
-38.3416

> <Gold.PLP.part.hbond>
-2.0000

> <Gold.PLP.part.metal>
0.0000

> <Gold.PLP.part.buried>
-5.6574

> <Gold.PLP.part.nonpolar>
-32.2868

> <Gold.PLP.part.repulsive>
0.4870

> <Gold.PLP.ligand.clash>
0.0000

> <Gold.PLP.ligand.torsion>
0.1581

> <Gold.PLP.Chemscore.Hbond>
1.9440

> <Gold.PLP.Chemscore.CHOScore>
0.0000

> <Gold.PLP.Chemscore.Metal>
0.0000

> <Gold.Chemscore.Hbonds>
donor molecule, donor type, donor heavy atom, donor atom, acceptor molecule, acceptor atom, score
      P1  H  7989  7998       L1    16  1.00
      P1  H 10752 10765       L1    14  0.76

> <Gold.PLP.Chemscore.Internal.Correction>
0.0217

> <Gold.Rescore>
     Score         DG    S(hbond)    S(metal)    S(lipo)     H(rot)  DE(clash)    DE(int)     intcor
     14.55     -16.24       1.88        0.00      86.85       2.21       0.02       1.67       ----

> <Gold.Chemscore.Fitness>
14.5469

> <Gold.Chemscore.DG>
-16.2443

> <Gold.Chemscore.ZeroCoef>
-5.4800

> <Gold.Chemscore.Hbond>
1.8781

> <Gold.Chemscore.Metal>
0.0000

> <Gold.Chemscore.Lipo>
86.8521

> <Gold.Chemscore.Internal_Hbond>
0.0000

> <Gold.Chemscore.DEClash>
0.0226

> <Gold.Chemscore.DEInternal>
1.6748

> <Gold.Chemscore.Rot>
2.2149

> <Gold.Chemscore.Internal.Correction>
   9.000000E+99

> <Gold.Chemscore.Hbonds>
donor molecule, donor type, donor heavy atom, donor atom, acceptor molecule, acceptor atom, score
      P1  H  7989  7998       L1    16  0.38
      P1  H 10752 10765       L1    14  0.73

> <Gold.Chemscore.Hbond.Weighted>
-6.2728

> <Gold.Chemscore.Metal.Weighted>
-0.0000

> <Gold.Chemscore.Lipo.Weighted>
-10.1617

> <Gold.Chemscore.Internal_Hbond.Weighted>
0.0000

> <Gold.Chemscore.DEClash.Weighted>
0.0226

> <Gold.Chemscore.DEInternal.Weighted>
1.6748

> <Gold.Chemscore.Rot.Weighted>
5.6702

> <Gold.Chemscore.Internal.Correction.Weighted>
   9.000000E+99

> <Gold.Protein.RotatedTorsions>
[ 6907 6896 6895 6894 ] final   90.09 input  -60.11 | X-H torsion
[ 7974 7965 7964 7962 ] final   64.20 input  175.53 | X-H torsion
[ 8008 7997 7996 7995 ] final  139.56 input   59.86 | X-H torsion
[ 10167 10162 10161 10158 ] final  158.99 input  -65.29 | X-H torsion
[ 10718 10713 10712 10709 ] final  -49.33 input   66.30 | X-H torsion
[ 10763 10752 10751 10750 ] final  167.05 input  -60.55 | X-H torsion
[ 11005 11000 10999 10996 ] final   86.92 input  -57.11 | X-H torsion

> <Gold.Protein.ActiveResidues>
 VAL166  LYS551  ARG553  GLY616  TRP617  ASP618  TYR619  PRO620  LYS621  CYS622 
 ASP623  PHE694  ASN695  SER759  ASP760  ASP761  ALA762  ILE779  LEU786  VAL792 
 PHE793  MET794  SER795  GLU796  ALA797  LYS798  CYS799  TRP800  GLU811  SER814 

> <Gold.Protein.RotatedAtoms>
  152.5442  134.1866  159.8656 H   0  0  0  0  0  0  0  0  0  0  0  0  # atno 6907 bound_to 6896
  151.1864  133.4687  159.2602 H   0  0  0  0  0  0  0  0  0  0  0  0  # atno 6908 bound_to 6896
  151.1127  135.0047  159.8557 H   0  0  0  0  0  0  0  0  0  0  0  0  # atno 6909 bound_to 6896
  145.8530  139.3266  143.0864 H   0  0  0  0  0  0  0  0  0  0  0  0  # atno 7974 bound_to 7965
  156.2988  140.2364  156.4257 H   0  0  0  0  0  0  0  0  0  0  0  0  # atno 8008 bound_to 7997
  154.8315  140.0433  157.1500 H   0  0  0  0  0  0  0  0  0  0  0  0  # atno 8009 bound_to 7997
  154.9203  140.3002  155.5223 H   0  0  0  0  0  0  0  0  0  0  0  0  # atno 8010 bound_to 7997
  139.4830  144.4772  151.8495 H   0  0  0  0  0  0  0  0  0  0  0  0  # atno 10167 bound_to 10162
  156.1903  130.4152  149.9380 H   0  0  0  0  0  0  0  0  0  0  0  0  # atno 10718 bound_to 10713
  154.3481  135.2753  155.2386 H   0  0  0  0  0  0  0  0  0  0  0  0  # atno 10763 bound_to 10752
  154.4628  135.5903  153.6271 H   0  0  0  0  0  0  0  0  0  0  0  0  # atno 10764 bound_to 10752
  152.9852  135.6069  154.3689 H   0  0  0  0  0  0  0  0  0  0  0  0  # atno 10765 bound_to 10752
  139.8932  134.8387  156.2787 H   0  0  0  0  0  0  0  0  0  0  0  0  # atno 11005 bound_to 11000
  145.9336  140.9030  143.0343 LP  0  0  0  0  0  0  0  0  0  0  0  0  # atno 17320 bound_to 7965
  144.6728  140.1452  143.7434 LP  0  0  0  0  0  0  0  0  0  0  0  0  # atno 17321 bound_to 7965
  140.4245  144.2199  150.5887 LP  0  0  0  0  0  0  0  0  0  0  0  0  # atno 17342 bound_to 10162
  140.4841  143.2369  151.8913 LP  0  0  0  0  0  0  0  0  0  0  0  0  # atno 17343 bound_to 10162
  156.7123  130.8975  151.3610 LP  0  0  0  0  0  0  0  0  0  0  0  0  # atno 17370 bound_to 10713
  157.6925  130.9248  150.0552 LP  0  0  0  0  0  0  0  0  0  0  0  0  # atno 17371 bound_to 10713
  141.0053  133.7127  156.1025 LP  0  0  0  0  0  0  0  0  0  0  0  0  # atno 17394 bound_to 11000
  140.7442  134.4116  157.5550 LP  0  0  0  0  0  0  0  0  0  0  0  0  # atno 17395 bound_to 11000

$$$$
