AV-unprocessed.smi:2473|AV-procd|sdf|9747|dock2
  -GOLD-   2272013383D 1   1.00000     0.00000
 Structure written by MMmdl.
 47 48  0  0  0  0  0  0  0  0  1 V2000
  145.4474  142.4194  156.4949 C   0  0  0  0  0  0  0  0  0  0  0  0
  146.4442  141.4894  155.7884 C   0  0  2  0  0  0  0  0  0  0  0  0
  147.2334  142.2486  154.7033 C   0  0  0  0  0  0  0  0  0  0  0  0
  148.2250  141.3574  153.9225 C   0  0  1  0  0  0  0  0  0  0  0  0
  149.5573  141.1126  154.6547 C   0  0  0  0  0  0  0  0  0  0  0  0
  150.1934  140.0717  154.4903 O   0  0  0  0  0  0  0  0  0  0  0  0
  149.9363  142.0680  155.5188 N   0  0  0  0  0  0  0  0  0  0  0  0
  151.1096  142.0139  156.3870 C   0  0  0  0  0  0  0  0  0  0  0  0
  151.3496  143.3373  157.1405 C   0  0  0  0  0  0  0  0  0  0  0  0
  152.0966  143.1776  158.4322 C   0  0  0  0  0  0  0  0  0  0  0  0
  152.4774  141.9982  158.9137 N   0  0  0  0  0  0  0  0  0  0  0  0
  153.0967  142.2904  160.1236 C   0  0  0  0  0  0  0  0  0  0  0  0
  153.0731  143.6482  160.3311 C   0  0  0  0  0  0  0  0  0  0  0  0
  152.4290  144.2080  159.2358 N   0  0  0  0  0  0  0  0  0  0  0  0
  152.1799  145.6223  159.0320 C   0  0  0  0  0  0  0  0  0  0  0  0
  147.5445  140.0613  153.4157 C   0  0  0  0  0  0  0  0  0  0  0  0
  146.6769  139.2867  154.4457 C   0  0  0  0  0  0  0  0  0  0  0  0
  145.8192  138.2602  153.6776 C   0  0  0  0  0  0  0  0  0  0  0  0
  147.5371  138.4914  155.4522 C   0  0  0  0  0  0  0  0  0  0  0  0
  145.7289  140.2683  155.1772 C   0  0  0  0  0  0  0  0  0  0  0  0
  144.7061  142.8112  155.7978 H   0  0  0  0  0  0  0  0  0  0  0  0
  145.9586  143.2685  156.9491 H   0  0  0  0  0  0  0  0  0  0  0  0
  144.9141  141.8944  157.2876 H   0  0  0  0  0  0  0  0  0  0  0  0
  147.1373  141.1395  156.5522 H   0  0  0  0  0  0  0  0  0  0  0  0
  146.5297  142.6870  153.9944 H   0  0  0  0  0  0  0  0  0  0  0  0
  147.7615  143.0924  155.1509 H   0  0  0  0  0  0  0  0  0  0  0  0
  148.5038  141.9294  153.0358 H   0  0  0  0  0  0  0  0  0  0  0  0
  149.3508  142.8865  155.6000 H   0  0  0  0  0  0  0  0  0  0  0  0
  151.0291  141.1866  157.0940 H   0  0  0  0  0  0  0  0  0  0  0  0
  151.9747  141.7940  155.7617 H   0  0  0  0  0  0  0  0  0  0  0  0
  151.9223  144.0113  156.5027 H   0  0  0  0  0  0  0  0  0  0  0  0
  150.3997  143.8398  157.3223 H   0  0  0  0  0  0  0  0  0  0  0  0
  153.5071  141.5086  160.7452 H   0  0  0  0  0  0  0  0  0  0  0  0
  153.4507  144.2459  161.1475 H   0  0  0  0  0  0  0  0  0  0  0  0
  152.4915  146.1888  159.9099 H   0  0  0  0  0  0  0  0  0  0  0  0
  151.1174  145.7954  158.8647 H   0  0  0  0  0  0  0  0  0  0  0  0
  152.7427  145.9740  158.1672 H   0  0  0  0  0  0  0  0  0  0  0  0
  146.9059  140.3500  152.5795 H   0  0  0  0  0  0  0  0  0  0  0  0
  148.2874  139.3908  152.9811 H   0  0  0  0  0  0  0  0  0  0  0  0
  145.1789  137.6910  154.3525 H   0  0  0  0  0  0  0  0  0  0  0  0
  146.4426  137.5467  153.1376 H   0  0  0  0  0  0  0  0  0  0  0  0
  145.1698  138.7439  152.9471 H   0  0  0  0  0  0  0  0  0  0  0  0
  146.9135  137.8703  156.0960 H   0  0  0  0  0  0  0  0  0  0  0  0
  148.1204  139.1292  156.1108 H   0  0  0  0  0  0  0  0  0  0  0  0
  148.2345  137.8285  154.9394 H   0  0  0  0  0  0  0  0  0  0  0  0
  145.1794  139.7371  155.9555 H   0  0  0  0  0  0  0  0  0  0  0  0
  144.9751  140.6285  154.4752 H   0  0  0  0  0  0  0  0  0  0  0  0
  1  2  1  0  0  0  0
  1 21  1  0  0  0  0
  1 22  1  0  0  0  0
  1 23  1  0  0  0  0
  2 20  1  0  0  0  0
  2  3  1  0  0  0  0
  2 24  1  0  0  0  0
  3  4  1  0  0  0  0
  3 25  1  0  0  0  0
  3 26  1  0  0  0  0
  4  5  1  0  0  0  0
  4 16  1  0  0  0  0
  4 27  1  0  0  0  0
  5  6  2  0  0  0  0
  5  7  1  0  0  0  0
  7  8  1  0  0  0  0
  7 28  1  0  0  0  0
  8  9  1  0  0  0  0
  8 29  1  0  0  0  0
  8 30  1  0  0  0  0
  9 10  1  0  0  0  0
  9 31  1  0  0  0  0
  9 32  1  0  0  0  0
 10 14  1  0  0  0  0
 10 11  2  0  0  0  0
 11 12  1  0  0  0  0
 12 13  2  0  0  0  0
 12 33  1  0  0  0  0
 13 14  1  0  0  0  0
 13 34  1  0  0  0  0
 14 15  1  0  0  0  0
 15 35  1  0  0  0  0
 15 36  1  0  0  0  0
 15 37  1  0  0  0  0
 16 17  1  0  0  0  0
 16 38  1  0  0  0  0
 16 39  1  0  0  0  0
 17 18  1  0  0  0  0
 17 19  1  0  0  0  0
 17 20  1  0  0  0  0
 18 40  1  0  0  0  0
 18 41  1  0  0  0  0
 18 42  1  0  0  0  0
 19 43  1  0  0  0  0
 19 44  1  0  0  0  0
 19 45  1  0  0  0  0
 20 46  1  0  0  0  0
 20 47  1  0  0  0  0
M  END
> <s_m_source_file>
AV-unprocessed.smi

> <i_m_source_file_index>
2473

> <i_lp_mmshare_version>
43012

> <i_f3d_flags>
0

> <s_epik_input>
W0NIM11bQ0BASF0oW0NIMl0xKVtDSDJdW0NASF0oW0NIMl1DMShbQ0gzXSlbQ0gzXSlDKD1PKVtOSF1bQ0gyXVtDSDJdYzJuW2NIXVtjSF1uMltDSDNd

> <s_epik_cmdline>
J2VwaWtfcHl0aG9uJywgJy1waCcsICc3LjAnLCAnLXRuJywgJzgnLCAnLW1hJywgJzIwMCcsICctbWV0YWxfYmluZGluZycsICctaW1hZScsICc8aW5maWxlLm1hZT4nLCAnLW9tYWUnLCAnPG91dGZpbGUubWFlPic=

> <r_lp_tautomer_probability>
1

> <r_epik_Ionization_Penalty>
1.22858

> <r_epik_Ionization_Penalty_Charging>
1.22858

> <r_epik_Ionization_Penalty_Neutral>
2.12671e-08

> <r_epik_State_Penalty>
1.2965

> <r_epik_Charging_Adjusted_Penalty>
2.52508

> <i_epik_Tot_Q>
0

> <i_epik_Tot_abs_Q>
0

> <r_epik_Metal_State_Penalty>
0.411461

> <b_epik_Metal_Only>
0

> <s_lp_Force_Field>
OPLS_2005

> <r_lp_Energy>
14.2462

> <b_lp_Chiralities_Consistent>
1

> <s_lp_Variant>
AV-unprocessed.smi:2473-5

> <Gold.Version>
5.8.1

> <Gold.Id.Protein>
6NUR|6NUR_protein|mol2

> <Gold.PLP.Fitness>
45.4361

> <Gold.PLP.PLP>
-41.0386

> <Gold.PLP.part.hbond>
-2.0000

> <Gold.PLP.part.metal>
0.0000

> <Gold.PLP.part.buried>
-2.1943

> <Gold.PLP.part.nonpolar>
-37.1194

> <Gold.PLP.part.repulsive>
0.2554

> <Gold.PLP.ligand.clash>
0.0000

> <Gold.PLP.ligand.torsion>
0.8550

> <Gold.PLP.Chemscore.Hbond>
2.0000

> <Gold.PLP.Chemscore.CHOScore>
0.0000

> <Gold.PLP.Chemscore.Metal>
0.0000

> <Gold.Chemscore.Hbonds>
donor molecule, donor type, donor heavy atom, donor atom, acceptor molecule, acceptor atom, score
      L1  H     7    28       P1  8028  1.00
      P1  H  7989  7998       L1     6  0.80

> <Gold.PLP.Chemscore.Internal.Correction>
0.1076

> <Gold.Rescore>
     Score         DG    S(hbond)    S(metal)    S(lipo)     H(rot)  DE(clash)    DE(int)     intcor
     14.84     -15.87       1.03        0.00      92.44       1.51       0.33       0.70       ----

> <Gold.Chemscore.Fitness>
14.8372

> <Gold.Chemscore.DG>
-15.8701

> <Gold.Chemscore.ZeroCoef>
-5.4800

> <Gold.Chemscore.Hbond>
1.0308

> <Gold.Chemscore.Metal>
0.0000

> <Gold.Chemscore.Lipo>
92.4371

> <Gold.Chemscore.Internal_Hbond>
0.0000

> <Gold.Chemscore.DEClash>
0.3296

> <Gold.Chemscore.DEInternal>
0.7033

> <Gold.Chemscore.Rot>
1.5109

> <Gold.Chemscore.Internal.Correction>
   9.000000E+99

> <Gold.Chemscore.Hbonds>
donor molecule, donor type, donor heavy atom, donor atom, acceptor molecule, acceptor atom, score
      L1  H     7    28       P1  8028  0.99
      P1  H  7989  7998       L1     6  0.12

> <Gold.Chemscore.Hbond.Weighted>
-3.4429

> <Gold.Chemscore.Metal.Weighted>
-0.0000

> <Gold.Chemscore.Lipo.Weighted>
-10.8151

> <Gold.Chemscore.Internal_Hbond.Weighted>
0.0000

> <Gold.Chemscore.DEClash.Weighted>
0.3296

> <Gold.Chemscore.DEInternal.Weighted>
0.7033

> <Gold.Chemscore.Rot.Weighted>
3.8680

> <Gold.Chemscore.Internal.Correction.Weighted>
   9.000000E+99

> <Gold.Protein.RotatedTorsions>
[ 6907 6896 6895 6894 ] final  -58.58 input  -60.11 | X-H torsion
[ 7974 7965 7964 7962 ] final   44.17 input  175.53 | X-H torsion
[ 8008 7997 7996 7995 ] final  -53.40 input   59.86 | X-H torsion
[ 10167 10162 10161 10158 ] final  150.32 input  -65.29 | X-H torsion
[ 10718 10713 10712 10709 ] final -142.32 input   66.30 | X-H torsion
[ 10763 10752 10751 10750 ] final -135.97 input  -60.55 | X-H torsion
[ 11005 11000 10999 10996 ] final   50.01 input  -57.11 | X-H torsion

> <Gold.Protein.ActiveResidues>
 VAL166  LYS551  ARG553  GLY616  TRP617  ASP618  TYR619  PRO620  LYS621  CYS622 
 ASP623  PHE694  ASN695  SER759  ASP760  ASP761  ALA762  ILE779  LEU786  VAL792 
 PHE793  MET794  SER795  GLU796  ALA797  LYS798  CYS799  TRP800  GLU811  SER814 

> <Gold.Protein.RotatedAtoms>
  150.7996  134.7080  159.6587 H   0  0  0  0  0  0  0  0  0  0  0  0  # atno 6907 bound_to 6896
  152.4112  134.6118  160.0037 H   0  0  0  0  0  0  0  0  0  0  0  0  # atno 6908 bound_to 6896
  151.6361  133.3292  159.3156 H   0  0  0  0  0  0  0  0  0  0  0  0  # atno 6909 bound_to 6896
  146.0592  139.5104  142.9669 H   0  0  0  0  0  0  0  0  0  0  0  0  # atno 7974 bound_to 7965
  154.4132  140.1201  156.5148 H   0  0  0  0  0  0  0  0  0  0  0  0  # atno 8008 bound_to 7997
  155.6762  140.3496  155.4818 H   0  0  0  0  0  0  0  0  0  0  0  0  # atno 8009 bound_to 7997
  155.9590  140.1119  157.0902 H   0  0  0  0  0  0  0  0  0  0  0  0  # atno 8010 bound_to 7997
  139.4851  144.5531  151.7365 H   0  0  0  0  0  0  0  0  0  0  0  0  # atno 10167 bound_to 10162
  156.3445  130.7655  151.1797 H   0  0  0  0  0  0  0  0  0  0  0  0  # atno 10718 bound_to 10713
  154.8693  135.3687  154.4985 H   0  0  0  0  0  0  0  0  0  0  0  0  # atno 10763 bound_to 10752
  153.5627  135.7022  153.5545 H   0  0  0  0  0  0  0  0  0  0  0  0  # atno 10764 bound_to 10752
  153.3613  135.4046  155.1684 H   0  0  0  0  0  0  0  0  0  0  0  0  # atno 10765 bound_to 10752
  140.1054  134.5025  155.8724 H   0  0  0  0  0  0  0  0  0  0  0  0  # atno 11005 bound_to 11000
  145.6590  141.0245  143.1719 LP  0  0  0  0  0  0  0  0  0  0  0  0  # atno 17320 bound_to 7965
  144.7165  139.8179  143.7397 LP  0  0  0  0  0  0  0  0  0  0  0  0  # atno 17321 bound_to 7965
  140.5089  144.1056  150.5990 LP  0  0  0  0  0  0  0  0  0  0  0  0  # atno 17342 bound_to 10162
  140.3975  143.2721  151.9988 LP  0  0  0  0  0  0  0  0  0  0  0  0  # atno 17343 bound_to 10162
  157.7452  131.0445  150.4797 LP  0  0  0  0  0  0  0  0  0  0  0  0  # atno 17370 bound_to 10713
  156.4982  130.4111  149.6368 LP  0  0  0  0  0  0  0  0  0  0  0  0  # atno 17371 bound_to 10713
  141.2117  133.6710  156.6601 LP  0  0  0  0  0  0  0  0  0  0  0  0  # atno 17394 bound_to 11000
  140.3162  134.8045  157.4216 LP  0  0  0  0  0  0  0  0  0  0  0  0  # atno 17395 bound_to 11000

$$$$
