AV-unprocessed.smi:1239|AV-procd|sdf|5186|dock8
  -GOLD-   22720 4273D 1   1.00000     0.00000
 Structure written by MMmdl.
 48 49  0  0  0  0  0  0  0  0  2 V2000
  145.4862  138.1852  153.8958 C   0  0  0  0  0  0  0  0  0  0  0  0
  145.5427  137.7409  152.4117 C   0  0  1  0  0  0  0  0  0  0  0  0
  146.7460  138.4402  151.7194 C   0  0  0  0  0  0  0  0  0  0  0  0
  147.8981  138.5977  152.6050 N   0  0  0  0  0  0  0  0  0  0  0  0
  148.1633  139.6762  153.3563 C   0  0  0  0  0  0  0  0  0  0  0  0
  147.4585  140.6848  153.3754 O   0  0  0  0  0  0  0  0  0  0  0  0
  149.2984  139.5113  154.0576 N   0  0  0  0  0  0  0  0  0  0  0  0
  149.8941  140.3947  154.9990 C   0  0  0  0  0  0  0  0  0  0  0  0
  150.9277  139.8894  155.8149 C   0  0  0  0  0  0  0  0  0  0  0  0
  151.5364  140.7235  156.7753 C   0  0  0  0  0  0  0  0  0  0  0  0
  151.1006  142.0631  156.9232 C   0  0  0  0  0  0  0  0  0  0  0  0
  151.6567  142.9585  157.8623 N   0  0  0  0  0  0  0  0  0  0  0  0
  151.5751  144.3962  157.6300 C   0  0  0  0  0  0  0  0  0  0  0  0
  152.3118  142.4424  159.0571 C   0  0  0  0  0  0  0  0  0  0  0  0
  150.0966  142.4996  156.1240 N   0  3  0  0  0  0  0  0  0  0  0  0
  149.4875  141.7365  155.1910 C   0  0  0  0  0  0  0  0  0  0  0  0
  145.5567  136.2671  152.2563 N   0  0  0  0  0  0  0  0  0  0  0  0
  144.4161  135.6195  152.9152 C   0  0  0  0  0  0  0  0  0  0  0  0
  144.4109  134.0912  152.7381 C   0  0  0  0  0  0  0  0  0  0  0  0
  144.4185  133.7704  151.3543 O   0  0  0  0  0  0  0  0  0  0  0  0
  145.5513  134.3116  150.6894 C   0  0  0  0  0  0  0  0  0  0  0  0
  145.5680  135.8416  150.8515 C   0  0  0  0  0  0  0  0  0  0  0  0
  145.5026  139.2686  154.0069 H   0  0  0  0  0  0  0  0  0  0  0  0
  146.3305  137.7857  154.4584 H   0  0  0  0  0  0  0  0  0  0  0  0
  144.5701  137.8673  154.3909 H   0  0  0  0  0  0  0  0  0  0  0  0
  144.6379  138.1192  151.9331 H   0  0  0  0  0  0  0  0  0  0  0  0
  147.0091  137.9048  150.8055 H   0  0  0  0  0  0  0  0  0  0  0  0
  146.4930  139.4550  151.4183 H   0  0  0  0  0  0  0  0  0  0  0  0
  148.5396  137.8196  152.6492 H   0  0  0  0  0  0  0  0  0  0  0  0
  149.8128  138.6622  153.8734 H   0  0  0  0  0  0  0  0  0  0  0  0
  151.2591  138.8669  155.7064 H   0  0  0  0  0  0  0  0  0  0  0  0
  152.3293  140.3181  157.3861 H   0  0  0  0  0  0  0  0  0  0  0  0
  150.5343  144.7164  157.5697 H   0  0  0  0  0  0  0  0  0  0  0  0
  152.0753  144.6630  156.6985 H   0  0  0  0  0  0  0  0  0  0  0  0
  152.0495  144.9568  158.4358 H   0  0  0  0  0  0  0  0  0  0  0  0
  153.1543  141.8049  158.7872 H   0  0  0  0  0  0  0  0  0  0  0  0
  151.6115  141.8607  159.6572 H   0  0  0  0  0  0  0  0  0  0  0  0
  152.6927  143.2509  159.6811 H   0  0  0  0  0  0  0  0  0  0  0  0
  148.6943  142.2316  154.6514 H   0  0  0  0  0  0  0  0  0  0  0  0
  144.4285  135.8138  153.9860 H   0  0  0  0  0  0  0  0  0  0  0  0
  143.4830  136.0314  152.5281 H   0  0  0  0  0  0  0  0  0  0  0  0
  145.2752  133.6415  153.2297 H   0  0  0  0  0  0  0  0  0  0  0  0
  143.5217  133.6598  153.1977 H   0  0  0  0  0  0  0  0  0  0  0  0
  146.4648  133.8704  151.0913 H   0  0  0  0  0  0  0  0  0  0  0  0
  145.5047  134.0434  149.6339 H   0  0  0  0  0  0  0  0  0  0  0  0
  144.7128  136.2713  150.3278 H   0  0  0  0  0  0  0  0  0  0  0  0
  146.4630  136.2003  150.3472 H   0  0  0  0  0  0  0  0  0  0  0  0
  149.7783  143.4624  156.2348 H   0  0  0  0  0  0  0  0  0  0  0  0
  1  2  1  0  0  0  0
  1 23  1  0  0  0  0
  1 24  1  0  0  0  0
  1 25  1  0  0  0  0
  2  3  1  0  0  0  0
  2 17  1  0  0  0  0
  2 26  1  0  0  0  0
  3  4  1  0  0  0  0
  3 27  1  0  0  0  0
  3 28  1  0  0  0  0
  4  5  1  0  0  0  0
  4 29  1  0  0  0  0
  5  6  2  0  0  0  0
  5  7  1  0  0  0  0
  7  8  1  0  0  0  0
  7 30  1  0  0  0  0
  8 16  1  0  0  0  0
  8  9  2  0  0  0  0
  9 10  1  0  0  0  0
  9 31  1  0  0  0  0
 10 11  2  0  0  0  0
 10 32  1  0  0  0  0
 11 12  1  0  0  0  0
 11 15  1  0  0  0  0
 12 13  1  0  0  0  0
 12 14  1  0  0  0  0
 13 33  1  0  0  0  0
 13 34  1  0  0  0  0
 13 35  1  0  0  0  0
 14 36  1  0  0  0  0
 14 37  1  0  0  0  0
 14 38  1  0  0  0  0
 15 16  2  0  0  0  0
 15 48  1  0  0  0  0
 16 39  1  0  0  0  0
 17 22  1  0  0  0  0
 17 18  1  0  0  0  0
 18 19  1  0  0  0  0
 18 40  1  0  0  0  0
 18 41  1  0  0  0  0
 19 20  1  0  0  0  0
 19 42  1  0  0  0  0
 19 43  1  0  0  0  0
 20 21  1  0  0  0  0
 21 22  1  0  0  0  0
 21 44  1  0  0  0  0
 21 45  1  0  0  0  0
 22 46  1  0  0  0  0
 22 47  1  0  0  0  0
M  CHG  1  15   1
M  END
> <s_m_source_file>
AV-unprocessed.smi

> <i_m_source_file_index>
1239

> <i_lp_mmshare_version>
43012

> <i_f3d_flags>
0

> <s_epik_input>
W0NIMl0xW0NIMl1PW0NIMl1bQ0gyXU4xW0NASF0oW0NIM10pW0NIMl1bTkhdQyg9TylbTkhdYzJbY0hdW2NIXWMoTihbQ0gzXSlbQ0gzXSluW2NIXTI=

> <s_epik_cmdline>
J2VwaWtfcHl0aG9uJywgJy1waCcsICc3LjAnLCAnLXRuJywgJzgnLCAnLW1hJywgJzIwMCcsICctbWV0YWxfYmluZGluZycsICctaW1hZScsICc8aW5maWxlLm1hZT4nLCAnLW9tYWUnLCAnPG91dGZpbGUubWFlPic=

> <r_lp_tautomer_probability>
0.999994

> <r_epik_Ionization_Penalty>
0.528791

> <r_epik_Ionization_Penalty_Charging>
0.26278

> <r_epik_Ionization_Penalty_Neutral>
0.26601

> <r_epik_State_Penalty>
0.520375

> <r_epik_Charging_Adjusted_Penalty>
0.783156

> <i_epik_Tot_Q>
1

> <i_epik_Tot_abs_Q>
1

> <r_epik_Metal_State_Penalty>
0.806531

> <b_epik_Metal_Only>
0

> <s_lp_Force_Field>
OPLS_2005

> <r_lp_Energy>
38.5694

> <b_lp_Chiralities_Consistent>
1

> <s_lp_Variant>
AV-unprocessed.smi:1239-2

> <Gold.Version>
5.8.1

> <Gold.Id.Protein>
6NUR|6NUR_protein|mol2

> <Gold.PLP.Fitness>
45.2409

> <Gold.PLP.PLP>
-38.2787

> <Gold.PLP.part.hbond>
-4.0000

> <Gold.PLP.part.metal>
0.0000

> <Gold.PLP.part.buried>
1.6327

> <Gold.PLP.part.nonpolar>
-36.4142

> <Gold.PLP.part.repulsive>
0.7702

> <Gold.PLP.ligand.clash>
0.0000

> <Gold.PLP.ligand.torsion>
0.8122

> <Gold.PLP.Chemscore.Hbond>
2.8480

> <Gold.PLP.Chemscore.CHOScore>
0.0000

> <Gold.PLP.Chemscore.Metal>
0.0000

> <Gold.Chemscore.Hbonds>
donor molecule, donor type, donor heavy atom, donor atom, acceptor molecule, acceptor atom, score
      L1  H     4    29       P1  7948  0.86
      L1  H    15    48       P1  8028  1.95

> <Gold.PLP.Chemscore.Internal.Correction>
0.0425

> <Gold.Rescore>
     Score         DG    S(hbond)    S(metal)    S(lipo)     H(rot)  DE(clash)    DE(int)     intcor
     14.82     -18.25       1.89        0.00      87.02       1.46       1.43       2.00       ----

> <Gold.Chemscore.Fitness>
14.8195

> <Gold.Chemscore.DG>
-18.2463

> <Gold.Chemscore.ZeroCoef>
-5.4800

> <Gold.Chemscore.Hbond>
1.8934

> <Gold.Chemscore.Metal>
0.0000

> <Gold.Chemscore.Lipo>
87.0171

> <Gold.Chemscore.Internal_Hbond>
0.0000

> <Gold.Chemscore.DEClash>
1.4313

> <Gold.Chemscore.DEInternal>
1.9955

> <Gold.Chemscore.Rot>
1.4604

> <Gold.Chemscore.Internal.Correction>
   9.000000E+99

> <Gold.Chemscore.Hbonds>
donor molecule, donor type, donor heavy atom, donor atom, acceptor molecule, acceptor atom, score
      L1  H     4    29       P1  7948  0.85
      L1  H    15    48       P1  8028  0.93

> <Gold.Chemscore.Hbond.Weighted>
-6.3238

> <Gold.Chemscore.Metal.Weighted>
-0.0000

> <Gold.Chemscore.Lipo.Weighted>
-10.1810

> <Gold.Chemscore.Internal_Hbond.Weighted>
0.0000

> <Gold.Chemscore.DEClash.Weighted>
1.4313

> <Gold.Chemscore.DEInternal.Weighted>
1.9955

> <Gold.Chemscore.Rot.Weighted>
3.7385

> <Gold.Chemscore.Internal.Correction.Weighted>
   9.000000E+99

> <Gold.Protein.RotatedTorsions>
[ 6907 6896 6895 6894 ] final  103.32 input  -60.11 | X-H torsion
[ 7974 7965 7964 7962 ] final  -58.48 input  175.53 | X-H torsion
[ 8008 7997 7996 7995 ] final  -54.55 input   59.86 | X-H torsion
[ 10167 10162 10161 10158 ] final -135.66 input  -65.29 | X-H torsion
[ 10718 10713 10712 10709 ] final  -72.76 input   66.30 | X-H torsion
[ 10763 10752 10751 10750 ] final  -14.90 input  -60.55 | X-H torsion
[ 11005 11000 10999 10996 ] final  -36.51 input  -57.11 | X-H torsion

> <Gold.Protein.ActiveResidues>
 VAL166  LYS551  ARG553  GLY616  TRP617  ASP618  TYR619  PRO620  LYS621  CYS622 
 ASP623  PHE694  ASN695  SER759  ASP760  ASP761  ALA762  ILE779  LEU786  VAL792 
 PHE793  MET794  SER795  GLU796  ALA797  LYS798  CYS799  TRP800  GLU811  SER814 

> <Gold.Protein.RotatedAtoms>
  152.5299  133.9843  159.7820 H   0  0  0  0  0  0  0  0  0  0  0  0  # atno 6907 bound_to 6896
  151.0090  133.5975  159.2692 H   0  0  0  0  0  0  0  0  0  0  0  0  # atno 6908 bound_to 6896
  151.3056  135.0787  159.9307 H   0  0  0  0  0  0  0  0  0  0  0  0  # atno 6909 bound_to 6896
  145.8388  140.8431  143.0045 H   0  0  0  0  0  0  0  0  0  0  0  0  # atno 7974 bound_to 7965
  154.4166  140.1173  156.5334 H   0  0  0  0  0  0  0  0  0  0  0  0  # atno 8008 bound_to 7997
  155.6582  140.3496  155.4753 H   0  0  0  0  0  0  0  0  0  0  0  0  # atno 8009 bound_to 7997
  155.9735  140.1146  157.0780 H   0  0  0  0  0  0  0  0  0  0  0  0  # atno 8010 bound_to 7997
  139.8756  143.6902  152.2634 H   0  0  0  0  0  0  0  0  0  0  0  0  # atno 10167 bound_to 10162
  156.0307  130.4379  150.2640 H   0  0  0  0  0  0  0  0  0  0  0  0  # atno 10718 bound_to 10713
  153.5352  135.7014  153.5664 H   0  0  0  0  0  0  0  0  0  0  0  0  # atno 10763 bound_to 10752
  153.3654  135.3959  155.1749 H   0  0  0  0  0  0  0  0  0  0  0  0  # atno 10764 bound_to 10752
  154.8680  135.3799  154.4852 H   0  0  0  0  0  0  0  0  0  0  0  0  # atno 10765 bound_to 10752
  140.9881  133.7020  156.1800 H   0  0  0  0  0  0  0  0  0  0  0  0  # atno 11005 bound_to 11000
  144.6735  140.0782  143.7470 LP  0  0  0  0  0  0  0  0  0  0  0  0  # atno 17320 bound_to 7965
  145.9488  139.2719  143.1225 LP  0  0  0  0  0  0  0  0  0  0  0  0  # atno 17321 bound_to 7965
  139.7243  144.7596  151.0904 LP  0  0  0  0  0  0  0  0  0  0  0  0  # atno 17342 bound_to 10162
  140.7753  143.5168  150.9585 LP  0  0  0  0  0  0  0  0  0  0  0  0  # atno 17343 bound_to 10162
  157.0743  131.0125  151.3179 LP  0  0  0  0  0  0  0  0  0  0  0  0  # atno 17370 bound_to 10713
  157.4976  130.7860  149.7571 LP  0  0  0  0  0  0  0  0  0  0  0  0  # atno 17371 bound_to 10713
  140.7083  134.4489  157.5583 LP  0  0  0  0  0  0  0  0  0  0  0  0  # atno 17394 bound_to 11000
  139.8979  134.8625  156.2022 LP  0  0  0  0  0  0  0  0  0  0  0  0  # atno 17395 bound_to 11000

$$$$
