AV-unprocessed.smi:3326|AV-procd|sdf|12786|dock7
  -GOLD-   2272019133D 1   1.00000     0.00000
 Structure written by MMmdl.
 30 31  0  0  0  0  0  0  0  0  1 V2000
  153.2685  141.5078  161.8623 F   0  0  0  0  0  0  0  0  0  0  0  0
  153.0444  141.4406  160.5495 C   0  0  0  0  0  0  0  0  0  0  0  0
  154.2246  141.4234  159.9295 F   0  0  0  0  0  0  0  0  0  0  0  0
  152.4066  140.2972  160.2975 F   0  0  0  0  0  0  0  0  0  0  0  0
  152.2121  142.6222  160.0565 C   0  0  0  0  0  0  0  0  0  0  0  0
  152.0091  143.7497  160.8846 C   0  0  0  0  0  0  0  0  0  0  0  0
  151.2371  144.8254  160.4094 C   0  0  0  0  0  0  0  0  0  0  0  0
  150.6917  144.7343  159.1166 C   0  0  0  0  0  0  0  0  0  0  0  0
  150.8761  143.6671  158.3129 N   0  0  0  0  0  0  0  0  0  0  0  0
  151.6204  142.6291  158.7660 C   0  0  0  0  0  0  0  0  0  0  0  0
  151.8002  141.5311  157.9106 N   0  0  0  0  0  0  0  0  0  0  0  0
  150.7995  141.1749  156.9146 C   0  0  0  0  0  0  0  0  0  0  0  0
  151.1396  139.8463  156.2260 C   0  0  1  0  0  0  0  0  0  0  0  0
  150.4556  139.6389  154.8775 C   0  0  0  0  0  0  0  0  0  0  0  0
  151.3340  138.5859  154.2310 C   0  0  0  0  0  0  0  0  0  0  0  0
  152.7073  138.8208  154.8686 C   0  0  0  0  0  0  0  0  0  0  0  0
  152.5145  139.8081  155.8777 O   0  0  0  0  0  0  0  0  0  0  0  0
  152.4354  143.8009  161.8752 H   0  0  0  0  0  0  0  0  0  0  0  0
  151.0668  145.6988  161.0213 H   0  0  0  0  0  0  0  0  0  0  0  0
  150.0923  145.5389  158.7167 H   0  0  0  0  0  0  0  0  0  0  0  0
  152.6475  140.9845  157.9644 H   0  0  0  0  0  0  0  0  0  0  0  0
  149.8172  141.1147  157.3845 H   0  0  0  0  0  0  0  0  0  0  0  0
  150.7514  141.9682  156.1678 H   0  0  0  0  0  0  0  0  0  0  0  0
  150.9292  139.0054  156.8898 H   0  0  0  0  0  0  0  0  0  0  0  0
  149.4147  139.3276  154.9692 H   0  0  0  0  0  0  0  0  0  0  0  0
  150.4864  140.5585  154.2913 H   0  0  0  0  0  0  0  0  0  0  0  0
  150.9721  137.5883  154.4829 H   0  0  0  0  0  0  0  0  0  0  0  0
  151.3533  138.6728  153.1443 H   0  0  0  0  0  0  0  0  0  0  0  0
  153.0911  137.9020  155.3136 H   0  0  0  0  0  0  0  0  0  0  0  0
  153.4386  139.1763  154.1422 H   0  0  0  0  0  0  0  0  0  0  0  0
  1  2  1  0  0  0  0
  2  3  1  0  0  0  0
  2  4  1  0  0  0  0
  2  5  1  0  0  0  0
  5 10  1  0  0  0  0
  5  6  2  0  0  0  0
  6  7  1  0  0  0  0
  6 18  1  0  0  0  0
  7  8  2  0  0  0  0
  7 19  1  0  0  0  0
  8  9  1  0  0  0  0
  8 20  1  0  0  0  0
  9 10  2  0  0  0  0
 10 11  1  0  0  0  0
 11 12  1  0  0  0  0
 11 21  1  0  0  0  0
 12 13  1  0  0  0  0
 12 22  1  0  0  0  0
 12 23  1  0  0  0  0
 13 17  1  0  0  0  0
 13 14  1  0  0  0  0
 13 24  1  0  0  0  0
 14 15  1  0  0  0  0
 14 25  1  0  0  0  0
 14 26  1  0  0  0  0
 15 16  1  0  0  0  0
 15 27  1  0  0  0  0
 15 28  1  0  0  0  0
 16 17  1  0  0  0  0
 16 29  1  0  0  0  0
 16 30  1  0  0  0  0
M  END
> <s_m_source_file>
AV-unprocessed.smi

> <i_m_source_file_index>
3326

> <i_lp_mmshare_version>
43012

> <i_f3d_flags>
0

> <s_epik_input>
RkMoRikoRiljMVtjSF1bY0hdW2NIXW5jMVtOSF1bQ0gyXVtDQEBIXTJbQ0gyXVtDSDJdW0NIMl1PMg==

> <s_epik_cmdline>
J2VwaWtfcHl0aG9uJywgJy1waCcsICc3LjAnLCAnLXRuJywgJzgnLCAnLW1hJywgJzIwMCcsICctbWV0YWxfYmluZGluZycsICctaW1hZScsICc8aW5maWxlLm1hZT4nLCAnLW9tYWUnLCAnPG91dGZpbGUubWFlPic=

> <r_lp_tautomer_probability>
1

> <r_epik_Ionization_Penalty>
0.000820218

> <r_epik_Ionization_Penalty_Charging>
0

> <r_epik_Ionization_Penalty_Neutral>
0.000820218

> <r_epik_State_Penalty>
0.000527207

> <r_epik_Charging_Adjusted_Penalty>
0.000527207

> <i_epik_Tot_Q>
0

> <i_epik_Tot_abs_Q>
0

> <r_epik_Metal_State_Penalty>
-0

> <b_epik_Metal_Only>
0

> <s_lp_Force_Field>
OPLS_2005

> <r_lp_Energy>
21.9295

> <b_lp_Chiralities_Consistent>
1

> <s_lp_Variant>
AV-unprocessed.smi:3326-2

> <Gold.Version>
5.8.1

> <Gold.Id.Protein>
6NUR|6NUR_protein|mol2

> <Gold.PLP.Fitness>
46.8910

> <Gold.PLP.PLP>
-42.1052

> <Gold.PLP.part.hbond>
-1.0000

> <Gold.PLP.part.metal>
0.0000

> <Gold.PLP.part.buried>
-5.4343

> <Gold.PLP.part.nonpolar>
-36.9965

> <Gold.PLP.part.repulsive>
0.2276

> <Gold.PLP.ligand.clash>
0.0000

> <Gold.PLP.ligand.torsion>
0.8054

> <Gold.PLP.Chemscore.Hbond>
0.9920

> <Gold.PLP.Chemscore.CHOScore>
0.9779

> <Gold.PLP.Chemscore.Metal>
0.0000

> <Gold.Chemscore.Hbonds>
donor molecule, donor type, donor heavy atom, donor atom, acceptor molecule, acceptor atom, score
      P1  H  7997  8010       L1    17  0.99
      L1  C     8    20       P1  8029  0.72

> <Gold.PLP.Chemscore.Internal.Correction>
0.4868

> <Gold.Rescore>
     Score         DG    S(hbond)    S(metal)    S(lipo)     H(rot)  DE(clash)    DE(int)     intcor
     13.97     -16.09       0.95        0.00      91.05       1.25       0.02       2.10       ----

> <Gold.Chemscore.Fitness>
13.9663

> <Gold.Chemscore.DG>
-16.0867

> <Gold.Chemscore.ZeroCoef>
-5.4800

> <Gold.Chemscore.Hbond>
0.9454

> <Gold.Chemscore.Metal>
0.0000

> <Gold.Chemscore.Lipo>
91.0489

> <Gold.Chemscore.Internal_Hbond>
0.0000

> <Gold.Chemscore.DEClash>
0.0201

> <Gold.Chemscore.DEInternal>
2.1002

> <Gold.Chemscore.Rot>
1.2514

> <Gold.Chemscore.Internal.Correction>
   9.000000E+99

> <Gold.Chemscore.Hbonds>
donor molecule, donor type, donor heavy atom, donor atom, acceptor molecule, acceptor atom, score
      P1  H  7997  8010       L1    17  0.32

> <Gold.Chemscore.Hbond.Weighted>
-3.1575

> <Gold.Chemscore.Metal.Weighted>
-0.0000

> <Gold.Chemscore.Lipo.Weighted>
-10.6527

> <Gold.Chemscore.Internal_Hbond.Weighted>
0.0000

> <Gold.Chemscore.DEClash.Weighted>
0.0201

> <Gold.Chemscore.DEInternal.Weighted>
2.1002

> <Gold.Chemscore.Rot.Weighted>
3.2036

> <Gold.Chemscore.Internal.Correction.Weighted>
   9.000000E+99

> <Gold.Protein.RotatedTorsions>
[ 6907 6896 6895 6894 ] final -168.18 input  -60.11 | X-H torsion
[ 7974 7965 7964 7962 ] final   94.17 input  175.53 | X-H torsion
[ 8008 7997 7996 7995 ] final   64.57 input   59.86 | X-H torsion
[ 10167 10162 10161 10158 ] final -121.87 input  -65.29 | X-H torsion
[ 10718 10713 10712 10709 ] final   88.38 input   66.30 | X-H torsion
[ 10763 10752 10751 10750 ] final    4.15 input  -60.55 | X-H torsion
[ 11005 11000 10999 10996 ] final -145.73 input  -57.11 | X-H torsion

> <Gold.Protein.ActiveResidues>
 VAL166  LYS551  ARG553  GLY616  TRP617  ASP618  TYR619  PRO620  LYS621  CYS622 
 ASP623  PHE694  ASN695  SER759  ASP760  ASP761  ALA762  ILE779  LEU786  VAL792 
 PHE793  MET794  SER795  GLU796  ALA797  LYS798  CYS799  TRP800  GLU811  SER814 

> <Gold.Protein.RotatedAtoms>
  151.4714  133.3568  159.2823 H   0  0  0  0  0  0  0  0  0  0  0  0  # atno 6907 bound_to 6896
  150.8958  134.8368  159.7336 H   0  0  0  0  0  0  0  0  0  0  0  0  # atno 6908 bound_to 6896
  152.4850  134.4629  159.9663 H   0  0  0  0  0  0  0  0  0  0  0  0  # atno 6909 bound_to 6896
  145.4691  139.2283  143.2945 H   0  0  0  0  0  0  0  0  0  0  0  0  # atno 7974 bound_to 7965
  155.6482  140.3497  155.4738 H   0  0  0  0  0  0  0  0  0  0  0  0  # atno 8008 bound_to 7997
  155.9870  140.1186  157.0697 H   0  0  0  0  0  0  0  0  0  0  0  0  # atno 8009 bound_to 7997
  154.4208  140.1127  156.5499 H   0  0  0  0  0  0  0  0  0  0  0  0  # atno 8010 bound_to 7997
  140.0204  143.5350  152.2223 H   0  0  0  0  0  0  0  0  0  0  0  0  # atno 10167 bound_to 10162
  157.6948  131.0292  150.3265 H   0  0  0  0  0  0  0  0  0  0  0  0  # atno 10718 bound_to 10713
  153.2747  135.6935  153.7445 H   0  0  0  0  0  0  0  0  0  0  0  0  # atno 10763 bound_to 10752
  153.6455  135.3386  155.3085 H   0  0  0  0  0  0  0  0  0  0  0  0  # atno 10764 bound_to 10752
  154.8475  135.4442  154.1781 H   0  0  0  0  0  0  0  0  0  0  0  0  # atno 10765 bound_to 10752
  140.7893  134.2988  157.5019 H   0  0  0  0  0  0  0  0  0  0  0  0  # atno 11005 bound_to 11000
  146.2407  140.5467  142.8935 LP  0  0  0  0  0  0  0  0  0  0  0  0  # atno 17320 bound_to 7965
  144.7956  140.6116  143.6512 LP  0  0  0  0  0  0  0  0  0  0  0  0  # atno 17321 bound_to 7965
  139.6144  144.7616  151.2880 LP  0  0  0  0  0  0  0  0  0  0  0  0  # atno 17342 bound_to 10162
  140.7345  143.6764  150.8037 LP  0  0  0  0  0  0  0  0  0  0  0  0  # atno 17343 bound_to 10162
  156.3745  130.3869  149.7149 LP  0  0  0  0  0  0  0  0  0  0  0  0  # atno 17370 bound_to 10713
  156.4553  130.7926  151.2947 LP  0  0  0  0  0  0  0  0  0  0  0  0  # atno 17371 bound_to 10713
  139.8733  134.9365  156.3661 LP  0  0  0  0  0  0  0  0  0  0  0  0  # atno 17394 bound_to 11000
  140.9406  133.7517  156.0141 LP  0  0  0  0  0  0  0  0  0  0  0  0  # atno 17395 bound_to 11000

$$$$
