AV-unprocessed.smi:2163|AV-procd|sdf|8804|dock6
  -GOLD-   2272011593D 1   1.00000     0.00000
 Structure written by MMmdl.
 43 45  0  0  0  0  0  0  0  0  1 V2000
  151.7711  139.2888  155.0196 C   0  0  0  0  0  0  0  0  0  0  0  0
  151.8472  140.1412  156.2464 C   0  0  0  0  0  0  0  0  0  0  0  0
  152.6261  139.8276  157.2821 N   0  0  0  0  0  0  0  0  0  0  0  0
  152.3929  140.8667  158.1624 C   0  0  0  0  0  0  0  0  0  0  0  0
  152.9220  141.1181  159.4486 C   0  0  0  0  0  0  0  0  0  0  0  0
  152.5305  142.2654  160.1695 C   0  0  0  0  0  0  0  0  0  0  0  0
  151.6068  143.1761  159.6164 C   0  0  0  0  0  0  0  0  0  0  0  0
  151.0666  142.9438  158.3369 C   0  0  0  0  0  0  0  0  0  0  0  0
  151.4602  141.7968  157.6222 C   0  0  0  0  0  0  0  0  0  0  0  0
  151.1256  141.2822  156.3740 N   0  0  0  0  0  0  0  0  0  0  0  0
  150.1945  141.8758  155.4245 C   0  0  0  0  0  0  0  0  0  0  0  0
  149.2112  140.8432  154.8385 C   0  0  2  0  0  0  0  0  0  0  0  0
  149.3646  140.7736  153.4349 O   0  0  0  0  0  0  0  0  0  0  0  0
  147.7479  141.1838  155.1558 C   0  0  0  0  0  0  0  0  0  0  0  0
  147.2762  142.1104  154.1866 O   0  0  0  0  0  0  0  0  0  0  0  0
  146.1786  142.8829  154.4986 C   0  0  0  0  0  0  0  0  0  0  0  0
  145.4658  142.8008  155.7216 C   0  0  0  0  0  0  0  0  0  0  0  0
  144.3537  143.6332  155.9555 C   0  0  0  0  0  0  0  0  0  0  0  0
  143.9388  144.5561  154.9756 C   0  0  0  0  0  0  0  0  0  0  0  0
  142.7465  145.4545  155.2296 C   0  0  0  0  0  0  0  0  0  0  0  0
  143.1302  146.8728  155.2944 C   0  0  0  0  0  0  0  0  0  0  0  0
  143.4318  147.9886  155.3455 N   0  0  0  0  0  0  0  0  0  0  0  0
  144.6426  144.6430  153.7588 C   0  0  0  0  0  0  0  0  0  0  0  0
  145.7539  143.8107  153.5255 C   0  0  0  0  0  0  0  0  0  0  0  0
  152.3893  138.3977  155.1332 H   0  0  0  0  0  0  0  0  0  0  0  0
  152.1274  139.8447  154.1519 H   0  0  0  0  0  0  0  0  0  0  0  0
  150.7435  138.9724  154.8401 H   0  0  0  0  0  0  0  0  0  0  0  0
  153.6304  140.4271  159.8806 H   0  0  0  0  0  0  0  0  0  0  0  0
  152.9412  142.4478  161.1517 H   0  0  0  0  0  0  0  0  0  0  0  0
  151.3129  144.0527  160.1749 H   0  0  0  0  0  0  0  0  0  0  0  0
  150.3585  143.6382  157.9095 H   0  0  0  0  0  0  0  0  0  0  0  0
  149.6449  142.6611  155.9446 H   0  0  0  0  0  0  0  0  0  0  0  0
  150.7469  142.3731  154.6273 H   0  0  0  0  0  0  0  0  0  0  0  0
  149.4366  139.8541  155.2395 H   0  0  0  0  0  0  0  0  0  0  0  0
  148.5303  140.5440  153.0546 H   0  0  0  0  0  0  0  0  0  0  0  0
  147.1419  140.2760  155.1524 H   0  0  0  0  0  0  0  0  0  0  0  0
  147.6818  141.6321  156.1489 H   0  0  0  0  0  0  0  0  0  0  0  0
  145.7531  142.1084  156.4979 H   0  0  0  0  0  0  0  0  0  0  0  0
  143.8205  143.5626  156.8922 H   0  0  0  0  0  0  0  0  0  0  0  0
  142.0104  145.3316  154.4347 H   0  0  0  0  0  0  0  0  0  0  0  0
  142.2634  145.1836  156.1687 H   0  0  0  0  0  0  0  0  0  0  0  0
  144.3329  145.3493  153.0025 H   0  0  0  0  0  0  0  0  0  0  0  0
  146.2865  143.8851  152.5886 H   0  0  0  0  0  0  0  0  0  0  0  0
  1  2  1  0  0  0  0
  1 25  1  0  0  0  0
  1 26  1  0  0  0  0
  1 27  1  0  0  0  0
  2 10  1  0  0  0  0
  2  3  2  0  0  0  0
  3  4  1  0  0  0  0
  4  9  2  0  0  0  0
  4  5  1  0  0  0  0
  5  6  2  0  0  0  0
  5 28  1  0  0  0  0
  6  7  1  0  0  0  0
  6 29  1  0  0  0  0
  7  8  2  0  0  0  0
  7 30  1  0  0  0  0
  8  9  1  0  0  0  0
  8 31  1  0  0  0  0
  9 10  1  0  0  0  0
 10 11  1  0  0  0  0
 11 12  1  0  0  0  0
 11 32  1  0  0  0  0
 11 33  1  0  0  0  0
 12 13  1  0  0  0  0
 12 14  1  0  0  0  0
 12 34  1  0  0  0  0
 13 35  1  0  0  0  0
 14 15  1  0  0  0  0
 14 36  1  0  0  0  0
 14 37  1  0  0  0  0
 15 16  1  0  0  0  0
 16 24  1  0  0  0  0
 16 17  2  0  0  0  0
 17 18  1  0  0  0  0
 17 38  1  0  0  0  0
 18 19  2  0  0  0  0
 18 39  1  0  0  0  0
 19 20  1  0  0  0  0
 19 23  1  0  0  0  0
 20 21  1  0  0  0  0
 20 40  1  0  0  0  0
 20 41  1  0  0  0  0
 21 22  3  0  0  0  0
 23 24  2  0  0  0  0
 23 42  1  0  0  0  0
 24 43  1  0  0  0  0
M  END
> <s_m_source_file>
AV-unprocessed.smi

> <i_m_source_file_index>
2163

> <i_lp_mmshare_version>
43012

> <i_f3d_flags>
0

> <s_epik_input>
W2NIXTFbY0hdW2NIXVtjSF1jKGMxMiluKGMobjIpW0NIM10pW0NIMl1bQ0BIXShbT0hdKVtDSDJdT2MzW2NIXVtjSF1jKFtDSDJdQyNOKVtjSF1bY0hdMw==

> <s_epik_cmdline>
J2VwaWtfcHl0aG9uJywgJy1waCcsICc3LjAnLCAnLXRuJywgJzgnLCAnLW1hJywgJzIwMCcsICctbWV0YWxfYmluZGluZycsICctaW1hZScsICc8aW5maWxlLm1hZT4nLCAnLW9tYWUnLCAnPG91dGZpbGUubWFlPic=

> <r_lp_tautomer_probability>
1

> <r_epik_Ionization_Penalty>
0.114213

> <r_epik_Ionization_Penalty_Charging>
0

> <r_epik_Ionization_Penalty_Neutral>
0.114213

> <r_epik_State_Penalty>
0.103875

> <r_epik_Charging_Adjusted_Penalty>
0.103875

> <i_epik_Tot_Q>
0

> <i_epik_Tot_abs_Q>
0

> <r_epik_Metal_State_Penalty>
0.000113526

> <b_epik_Metal_Only>
0

> <s_lp_Force_Field>
OPLS_2005

> <r_lp_Energy>
15.1167

> <b_lp_Chiralities_Consistent>
1

> <s_lp_Variant>
AV-unprocessed.smi:2163-1

> <Gold.Version>
5.8.1

> <Gold.Id.Protein>
6NUR|6NUR_protein|mol2

> <Gold.PLP.Fitness>
56.5390

> <Gold.PLP.PLP>
-52.6388

> <Gold.PLP.part.hbond>
-4.4572

> <Gold.PLP.part.metal>
0.0000

> <Gold.PLP.part.buried>
-5.7556

> <Gold.PLP.part.nonpolar>
-41.6749

> <Gold.PLP.part.repulsive>
0.2085

> <Gold.PLP.ligand.clash>
0.0000

> <Gold.PLP.ligand.torsion>
1.2855

> <Gold.PLP.Chemscore.Hbond>
2.1267

> <Gold.PLP.Chemscore.CHOScore>
0.0000

> <Gold.PLP.Chemscore.Metal>
0.0000

> <Gold.Chemscore.Hbonds>
donor molecule, donor type, donor heavy atom, donor atom, acceptor molecule, acceptor atom, score
      P1  H  7989  7998       L1    13  0.12
      P1  H  7997  8010       L1     3  1.00
      P1  H  8011  8017       L1    13  1.00

> <Gold.PLP.Chemscore.Internal.Correction>
0.0912

> <Gold.Rescore>
     Score         DG    S(hbond)    S(metal)    S(lipo)     H(rot)  DE(clash)    DE(int)     intcor
     14.64     -17.43       1.31        0.00     119.72       2.51       0.57       2.22       ----

> <Gold.Chemscore.Fitness>
14.6396

> <Gold.Chemscore.DG>
-17.4258

> <Gold.Chemscore.ZeroCoef>
-5.4800

> <Gold.Chemscore.Hbond>
1.3077

> <Gold.Chemscore.Metal>
0.0000

> <Gold.Chemscore.Lipo>
119.7244

> <Gold.Chemscore.Internal_Hbond>
0.0000

> <Gold.Chemscore.DEClash>
0.5684

> <Gold.Chemscore.DEInternal>
2.2177

> <Gold.Chemscore.Rot>
2.5115

> <Gold.Chemscore.Internal.Correction>
   9.000000E+99

> <Gold.Chemscore.Hbonds>
donor molecule, donor type, donor heavy atom, donor atom, acceptor molecule, acceptor atom, score
      P1  H  7989  7998       L1    13  0.02
      P1  H  7997  8010       L1     3  0.25
      P1  H  8011  8017       L1    13  0.24

> <Gold.Chemscore.Hbond.Weighted>
-4.3676

> <Gold.Chemscore.Metal.Weighted>
-0.0000

> <Gold.Chemscore.Lipo.Weighted>
-14.0078

> <Gold.Chemscore.Internal_Hbond.Weighted>
0.0000

> <Gold.Chemscore.DEClash.Weighted>
0.5684

> <Gold.Chemscore.DEInternal.Weighted>
2.2177

> <Gold.Chemscore.Rot.Weighted>
6.4296

> <Gold.Chemscore.Internal.Correction.Weighted>
   9.000000E+99

> <Gold.Protein.RotatedTorsions>
[ 6907 6896 6895 6894 ] final -113.32 input  -60.11 | X-H torsion
[ 7974 7965 7964 7962 ] final -156.74 input  175.53 | X-H torsion
[ 8008 7997 7996 7995 ] final   58.14 input   59.86 | X-H torsion
[ 10167 10162 10161 10158 ] final  -70.13 input  -65.29 | X-H torsion
[ 10718 10713 10712 10709 ] final  124.59 input   66.30 | X-H torsion
[ 10763 10752 10751 10750 ] final  -63.38 input  -60.55 | X-H torsion
[ 11005 11000 10999 10996 ] final  141.86 input  -57.11 | X-H torsion

> <Gold.Protein.ActiveResidues>
 VAL166  LYS551  ARG553  GLY616  TRP617  ASP618  TYR619  PRO620  LYS621  CYS622 
 ASP623  PHE694  ASN695  SER759  ASP760  ASP761  ALA762  ILE779  LEU786  VAL792 
 PHE793  MET794  SER795  GLU796  ALA797  LYS798  CYS799  TRP800  GLU811  SER814 

> <Gold.Protein.RotatedAtoms>
  150.7821  133.8962  159.3327 H   0  0  0  0  0  0  0  0  0  0  0  0  # atno 6907 bound_to 6896
  151.6822  135.0958  160.0227 H   0  0  0  0  0  0  0  0  0  0  0  0  # atno 6908 bound_to 6896
  152.3875  133.6593  159.6246 H   0  0  0  0  0  0  0  0  0  0  0  0  # atno 6909 bound_to 6896
  144.7579  140.4067  143.5998 H   0  0  0  0  0  0  0  0  0  0  0  0  # atno 7974 bound_to 7965
  155.5452  140.3485  155.4456 H   0  0  0  0  0  0  0  0  0  0  0  0  # atno 8008 bound_to 7997
  156.0623  140.1343  156.9953 H   0  0  0  0  0  0  0  0  0  0  0  0  # atno 8009 bound_to 7997
  154.4486  140.0983  156.6520 H   0  0  0  0  0  0  0  0  0  0  0  0  # atno 8010 bound_to 7997
  140.5377  143.2317  151.7147 H   0  0  0  0  0  0  0  0  0  0  0  0  # atno 10167 bound_to 10162
  157.5573  131.1091  150.8600 H   0  0  0  0  0  0  0  0  0  0  0  0  # atno 10718 bound_to 10713
  154.3142  135.6209  153.5479 H   0  0  0  0  0  0  0  0  0  0  0  0  # atno 10763 bound_to 10752
  152.9826  135.5708  154.5143 H   0  0  0  0  0  0  0  0  0  0  0  0  # atno 10764 bound_to 10752
  154.4798  135.2862  155.1555 H   0  0  0  0  0  0  0  0  0  0  0  0  # atno 10765 bound_to 10752
  140.0433  134.9293  157.0884 H   0  0  0  0  0  0  0  0  0  0  0  0  # atno 11005 bound_to 11000
  145.6716  139.1600  143.2751 LP  0  0  0  0  0  0  0  0  0  0  0  0  # atno 17320 bound_to 7965
  146.1611  140.6787  142.9277 LP  0  0  0  0  0  0  0  0  0  0  0  0  # atno 17321 bound_to 7965
  139.4977  144.4018  152.0174 LP  0  0  0  0  0  0  0  0  0  0  0  0  # atno 17342 bound_to 10162
  140.3124  144.3522  150.6030 LP  0  0  0  0  0  0  0  0  0  0  0  0  # atno 17343 bound_to 10162
  156.9108  130.5280  149.5280 LP  0  0  0  0  0  0  0  0  0  0  0  0  # atno 17370 bound_to 10713
  156.0630  130.5679  150.9231 LP  0  0  0  0  0  0  0  0  0  0  0  0  # atno 17371 bound_to 10713
  140.4033  134.2059  155.7163 LP  0  0  0  0  0  0  0  0  0  0  0  0  # atno 17394 bound_to 11000
  141.1894  133.8239  157.0957 LP  0  0  0  0  0  0  0  0  0  0  0  0  # atno 17395 bound_to 11000

$$$$
