AV-unprocessed.smi:1432|AV-procd|sdf|5833|dock6
  -GOLD-   22720 5493D 1   1.00000     0.00000
 Structure written by MMmdl.
 47 48  0  0  0  0  0  0  0  0  2 V2000
  146.0963  134.0184  155.0629 C   0  0  0  0  0  0  0  0  0  0  0  0
  146.9526  134.8138  154.0534 C   0  0  2  0  0  0  0  0  0  0  0  0
  146.1761  135.1524  152.7634 C   0  0  0  0  0  0  0  0  0  0  0  0
  145.9757  133.9198  151.8694 C   0  0  0  0  0  0  0  0  0  0  0  0
  147.3269  133.2551  151.5800 C   0  0  0  0  0  0  0  0  0  0  0  0
  148.0784  132.9306  152.8816 C   0  0  0  0  0  0  0  0  0  0  0  0
  148.2486  134.1491  153.7200 N   0  3  2  0  0  0  0  0  0  0  0  0
  149.1349  133.9467  154.8952 C   0  0  0  0  0  0  0  0  0  0  0  0
  149.5999  135.2799  155.5114 C   0  0  0  0  0  0  0  0  0  0  0  0
  148.6974  135.7287  156.5650 N   0  0  0  0  0  0  0  0  0  0  0  0
  148.9859  135.7254  157.8753 C   0  0  0  0  0  0  0  0  0  0  0  0
  150.0744  135.3602  158.3218 O   0  0  0  0  0  0  0  0  0  0  0  0
  147.8798  136.2319  158.8118 C   0  0  0  0  0  0  0  0  0  0  0  0
  147.6765  135.3712  159.9894 N   0  0  0  0  0  0  0  0  0  0  0  0
  147.6568  133.9792  159.7727 C   0  0  0  0  0  0  0  0  0  0  0  0
  147.4608  133.0862  160.7617 C   0  0  0  0  0  0  0  0  0  0  0  0
  147.4930  131.5877  160.5045 C   0  0  0  0  0  0  0  0  0  0  0  0
  146.5250  131.2238  159.6629 F   0  0  0  0  0  0  0  0  0  0  0  0
  148.6624  131.2459  159.9652 F   0  0  0  0  0  0  0  0  0  0  0  0
  147.3426  130.9016  161.6381 F   0  0  0  0  0  0  0  0  0  0  0  0
  147.3027  133.6273  162.0975 C   0  0  0  0  0  0  0  0  0  0  0  0
  147.3250  134.9554  162.3230 C   0  0  0  0  0  0  0  0  0  0  0  0
  147.5113  135.9151  161.2325 C   0  0  0  0  0  0  0  0  0  0  0  0
  147.5182  137.1314  161.4231 O   0  0  0  0  0  0  0  0  0  0  0  0
  145.1737  134.5534  155.2883 H   0  0  0  0  0  0  0  0  0  0  0  0
  146.6166  133.8741  156.0098 H   0  0  0  0  0  0  0  0  0  0  0  0
  145.8148  133.0355  154.6864 H   0  0  0  0  0  0  0  0  0  0  0  0
  147.1962  135.7661  154.5272 H   0  0  0  0  0  0  0  0  0  0  0  0
  145.2113  135.5987  153.0070 H   0  0  0  0  0  0  0  0  0  0  0  0
  146.7257  135.9108  152.2037 H   0  0  0  0  0  0  0  0  0  0  0  0
  145.3074  133.2074  152.3541 H   0  0  0  0  0  0  0  0  0  0  0  0
  145.4926  134.2088  150.9355 H   0  0  0  0  0  0  0  0  0  0  0  0
  147.1773  132.3445  150.9988 H   0  0  0  0  0  0  0  0  0  0  0  0
  147.9353  133.9181  150.9635 H   0  0  0  0  0  0  0  0  0  0  0  0
  147.5513  132.1581  153.4424 H   0  0  0  0  0  0  0  0  0  0  0  0
  149.0501  132.5118  152.6235 H   0  0  0  0  0  0  0  0  0  0  0  0
  148.5891  133.3878  155.6567 H   0  0  0  0  0  0  0  0  0  0  0  0
  149.9917  133.3323  154.6148 H   0  0  0  0  0  0  0  0  0  0  0  0
  150.5888  135.1782  155.9564 H   0  0  0  0  0  0  0  0  0  0  0  0
  149.6843  136.0487  154.7414 H   0  0  0  0  0  0  0  0  0  0  0  0
  147.7815  136.0465  156.2810 H   0  0  0  0  0  0  0  0  0  0  0  0
  148.1329  137.2477  159.1180 H   0  0  0  0  0  0  0  0  0  0  0  0
  146.9465  136.3278  158.2534 H   0  0  0  0  0  0  0  0  0  0  0  0
  147.8061  133.6817  158.7448 H   0  0  0  0  0  0  0  0  0  0  0  0
  147.1590  132.9569  162.9319 H   0  0  0  0  0  0  0  0  0  0  0  0
  147.2010  135.3234  163.3310 H   0  0  0  0  0  0  0  0  0  0  0  0
  148.7340  134.8156  153.1363 H   0  0  0  0  0  0  0  0  0  0  0  0
  1  2  1  0  0  0  0
  1 25  1  0  0  0  0
  1 26  1  0  0  0  0
  1 27  1  0  0  0  0
  2  7  1  0  0  0  0
  2  3  1  0  0  0  0
  2 28  1  0  0  0  0
  3  4  1  0  0  0  0
  3 29  1  0  0  0  0
  3 30  1  0  0  0  0
  4  5  1  0  0  0  0
  4 31  1  0  0  0  0
  4 32  1  0  0  0  0
  5  6  1  0  0  0  0
  5 33  1  0  0  0  0
  5 34  1  0  0  0  0
  6  7  1  0  0  0  0
  6 35  1  0  0  0  0
  6 36  1  0  0  0  0
  7  8  1  0  0  0  0
  7 47  1  0  0  0  0
  8  9  1  0  0  0  0
  8 37  1  0  0  0  0
  8 38  1  0  0  0  0
  9 10  1  0  0  0  0
  9 39  1  0  0  0  0
  9 40  1  0  0  0  0
 10 11  1  0  0  0  0
 10 41  1  0  0  0  0
 11 12  2  0  0  0  0
 11 13  1  0  0  0  0
 13 14  1  0  0  0  0
 13 42  1  0  0  0  0
 13 43  1  0  0  0  0
 14 23  1  0  0  0  0
 14 15  1  0  0  0  0
 15 16  2  0  0  0  0
 15 44  1  0  0  0  0
 16 17  1  0  0  0  0
 16 21  1  0  0  0  0
 17 18  1  0  0  0  0
 17 19  1  0  0  0  0
 17 20  1  0  0  0  0
 21 22  2  0  0  0  0
 21 45  1  0  0  0  0
 22 23  1  0  0  0  0
 22 46  1  0  0  0  0
 23 24  2  0  0  0  0
M  CHG  1   7   1
M  END
> <s_m_source_file>
AV-unprocessed.smi

> <i_m_source_file_index>
1432

> <i_lp_mmshare_version>
43012

> <i_f3d_flags>
0

> <s_epik_input>
W0NIM11bQ0BASF0xW0NIMl1bQ0gyXVtDSDJdW0NIMl1OMVtDSDJdW0NIMl1bTkhdQyg9TylbQ0gyXW4yW2NIXWMoQyhGKShGKUYpW2NIXVtjSF1jMj1P

> <s_epik_cmdline>
J2VwaWtfcHl0aG9uJywgJy1waCcsICc3LjAnLCAnLXRuJywgJzgnLCAnLW1hJywgJzIwMCcsICctbWV0YWxfYmluZGluZycsICctaW1hZScsICc8aW5maWxlLm1hZT4nLCAnLW9tYWUnLCAnPG91dGZpbGUubWFlPic=

> <r_lp_tautomer_probability>
1

> <r_epik_Ionization_Penalty>
0.00237222

> <r_epik_Ionization_Penalty_Charging>
0.00237213

> <r_epik_Ionization_Penalty_Neutral>
8.2065e-08

> <r_epik_State_Penalty>
0.00163922

> <r_epik_Charging_Adjusted_Penalty>
0.00401135

> <i_epik_Tot_Q>
1

> <i_epik_Tot_abs_Q>
1

> <r_epik_Metal_State_Penalty>
-0

> <b_epik_Metal_Only>
0

> <s_lp_Force_Field>
OPLS_2005

> <r_lp_Energy>
31.3892

> <b_lp_Chiralities_Consistent>
1

> <s_lp_Variant>
AV-unprocessed.smi:1432-3

> <Gold.Version>
5.8.1

> <Gold.Id.Protein>
6NUR|6NUR_protein|mol2

> <Gold.PLP.Fitness>
50.0207

> <Gold.PLP.PLP>
-37.0347

> <Gold.PLP.part.hbond>
-4.0000

> <Gold.PLP.part.metal>
0.0000

> <Gold.PLP.part.buried>
-4.8561

> <Gold.PLP.part.nonpolar>
-29.1476

> <Gold.PLP.part.repulsive>
0.0076

> <Gold.PLP.ligand.clash>
0.0000

> <Gold.PLP.ligand.torsion>
0.7182

> <Gold.PLP.Chemscore.Hbond>
4.7680

> <Gold.PLP.Chemscore.CHOScore>
0.0000

> <Gold.PLP.Chemscore.Metal>
0.0000

> <Gold.Chemscore.Hbonds>
donor molecule, donor type, donor heavy atom, donor atom, acceptor molecule, acceptor atom, score
      L1  H     7    47       P1  7948  2.00
      P1  H  6896  6908       L1    12  0.93
      P1  H  6931  6943       L1    24  0.96
      P1  H  6934  6947       L1    24  0.88

> <Gold.PLP.Chemscore.Internal.Correction>
0.1185

> <Gold.Rescore>
     Score         DG    S(hbond)    S(metal)    S(lipo)     H(rot)  DE(clash)    DE(int)     intcor
     18.88     -19.57       3.62        0.00      62.43       2.08       0.00       0.69       ----

> <Gold.Chemscore.Fitness>
18.8834

> <Gold.Chemscore.DG>
-19.5741

> <Gold.Chemscore.ZeroCoef>
-5.4800

> <Gold.Chemscore.Hbond>
3.6242

> <Gold.Chemscore.Metal>
0.0000

> <Gold.Chemscore.Lipo>
62.4308

> <Gold.Chemscore.Internal_Hbond>
0.0000

> <Gold.Chemscore.DEClash>
0.0000

> <Gold.Chemscore.DEInternal>
0.6907

> <Gold.Chemscore.Rot>
2.0762

> <Gold.Chemscore.Internal.Correction>
   9.000000E+99

> <Gold.Chemscore.Hbonds>
donor molecule, donor type, donor heavy atom, donor atom, acceptor molecule, acceptor atom, score
      L1  H     7    47       P1  7948  0.30
      P1  H  6896  6908       L1    12  0.88
      P1  H  6931  6943       L1    24  0.91
      P1  H  6934  6947       L1    24  0.85

> <Gold.Chemscore.Hbond.Weighted>
-12.1047

> <Gold.Chemscore.Metal.Weighted>
-0.0000

> <Gold.Chemscore.Lipo.Weighted>
-7.3044

> <Gold.Chemscore.Internal_Hbond.Weighted>
0.0000

> <Gold.Chemscore.DEClash.Weighted>
0.0000

> <Gold.Chemscore.DEInternal.Weighted>
0.6907

> <Gold.Chemscore.Rot.Weighted>
5.3150

> <Gold.Chemscore.Internal.Correction.Weighted>
   9.000000E+99

> <Gold.Protein.RotatedTorsions>
[ 6907 6896 6895 6894 ] final  164.70 input  -60.11 | X-H torsion
[ 7974 7965 7964 7962 ] final  -88.85 input  175.53 | X-H torsion
[ 8008 7997 7996 7995 ] final   49.24 input   59.86 | X-H torsion
[ 10167 10162 10161 10158 ] final  -11.85 input  -65.29 | X-H torsion
[ 10718 10713 10712 10709 ] final -102.69 input   66.30 | X-H torsion
[ 10763 10752 10751 10750 ] final   27.54 input  -60.55 | X-H torsion
[ 11005 11000 10999 10996 ] final -175.96 input  -57.11 | X-H torsion

> <Gold.Protein.ActiveResidues>
 VAL166  LYS551  ARG553  GLY616  TRP617  ASP618  TYR619  PRO620  LYS621  CYS622 
 ASP623  PHE694  ASN695  SER759  ASP760  ASP761  ALA762  ILE779  LEU786  VAL792 
 PHE793  MET794  SER795  GLU796  ALA797  LYS798  CYS799  TRP800  GLU811  SER814 

> <Gold.Protein.RotatedAtoms>
  151.9057  133.3549  159.3845 H   0  0  0  0  0  0  0  0  0  0  0  0  # atno 6907 bound_to 6896
  150.7069  134.4783  159.5467 H   0  0  0  0  0  0  0  0  0  0  0  0  # atno 6908 bound_to 6896
  152.2379  134.8257  160.0515 H   0  0  0  0  0  0  0  0  0  0  0  0  # atno 6909 bound_to 6896
  145.4476  140.9560  143.2040 H   0  0  0  0  0  0  0  0  0  0  0  0  # atno 7974 bound_to 7965
  155.3989  140.3437  155.4256 H   0  0  0  0  0  0  0  0  0  0  0  0  # atno 8008 bound_to 7997
  156.1515  140.1572  156.8795 H   0  0  0  0  0  0  0  0  0  0  0  0  # atno 8009 bound_to 7997
  154.5056  140.0803  156.7869 H   0  0  0  0  0  0  0  0  0  0  0  0  # atno 8010 bound_to 7997
  140.7148  143.5595  150.9212 H   0  0  0  0  0  0  0  0  0  0  0  0  # atno 10167 bound_to 10162
  156.0238  130.5432  150.7145 H   0  0  0  0  0  0  0  0  0  0  0  0  # atno 10718 bound_to 10713
  153.0549  135.6534  154.0601 H   0  0  0  0  0  0  0  0  0  0  0  0  # atno 10763 bound_to 10752
  154.0281  135.2914  155.3373 H   0  0  0  0  0  0  0  0  0  0  0  0  # atno 10764 bound_to 10752
  154.6859  135.5302  153.8393 H   0  0  0  0  0  0  0  0  0  0  0  0  # atno 10765 bound_to 10752
  140.4574  134.6286  157.4828 H   0  0  0  0  0  0  0  0  0  0  0  0  # atno 11005 bound_to 11000
  144.8082  139.6012  143.7041 LP  0  0  0  0  0  0  0  0  0  0  0  0  # atno 17320 bound_to 7965
  146.2522  139.6224  142.9419 LP  0  0  0  0  0  0  0  0  0  0  0  0  # atno 17321 bound_to 7965
  139.9320  143.6482  152.3074 LP  0  0  0  0  0  0  0  0  0  0  0  0  # atno 17342 bound_to 10162
  139.6936  144.7644  151.1395 LP  0  0  0  0  0  0  0  0  0  0  0  0  # atno 17343 bound_to 10162
  157.4775  131.0899  151.0573 LP  0  0  0  0  0  0  0  0  0  0  0  0  # atno 17370 bound_to 10713
  157.1016  130.5984  149.5461 LP  0  0  0  0  0  0  0  0  0  0  0  0  # atno 17371 bound_to 10713
  139.9967  134.6900  155.9598 LP  0  0  0  0  0  0  0  0  0  0  0  0  # atno 17394 bound_to 11000
  141.1636  133.6537  156.4404 LP  0  0  0  0  0  0  0  0  0  0  0  0  # atno 17395 bound_to 11000

$$$$
