AV-unprocessed.smi:3127|AV-procd|sdf|11916|dock6
  -GOLD-   2272017293D 1   1.00000     0.00000
 Structure written by MMmdl.
 33 34  0  0  0  0  0  0  0  0  1 V2000
  152.4074  145.0119  158.8160 C   0  0  0  0  0  0  0  0  0  0  0  0
  151.6157  143.9522  159.6116 C   0  0  0  0  0  0  0  0  0  0  0  0
  152.0816  144.0136  161.0796 C   0  0  0  0  0  0  0  0  0  0  0  0
  150.1190  144.3100  159.5214 C   0  0  0  0  0  0  0  0  0  0  0  0
  151.8495  142.5620  159.0541 C   0  0  0  0  0  0  0  0  0  0  0  0
  152.3195  141.4496  159.7143 C   0  0  0  0  0  0  0  0  0  0  0  0
  152.4362  140.0602  158.6703 S   0  0  0  0  0  0  0  0  0  0  0  0
  151.8154  141.0377  157.3489 C   0  0  0  0  0  0  0  0  0  0  0  0
  151.6409  140.5105  155.9607 C   0  0  2  0  0  0  0  0  0  0  0  0
  150.1926  140.6609  155.4562 C   0  0  0  0  0  0  0  0  0  0  0  0
  150.0530  140.0602  154.1306 N   0  0  0  0  0  0  0  0  0  0  0  0
  150.4946  138.6662  154.1334 C   0  0  0  0  0  0  0  0  0  0  0  0
  151.9322  138.5605  154.6740 C   0  0  0  0  0  0  0  0  0  0  0  0
  151.9957  139.1297  155.9772 O   0  0  0  0  0  0  0  0  0  0  0  0
  151.5777  142.3037  157.7041 N   0  0  0  0  0  0  0  0  0  0  0  0
  152.2449  146.0128  159.2177 H   0  0  0  0  0  0  0  0  0  0  0  0
  152.1075  145.0320  157.7675 H   0  0  0  0  0  0  0  0  0  0  0  0
  153.4806  144.8203  158.8509 H   0  0  0  0  0  0  0  0  0  0  0  0
  153.1407  143.7684  161.1694 H   0  0  0  0  0  0  0  0  0  0  0  0
  151.5283  143.3138  161.7068 H   0  0  0  0  0  0  0  0  0  0  0  0
  151.9374  145.0089  161.5011 H   0  0  0  0  0  0  0  0  0  0  0  0
  149.9268  145.3145  159.9001 H   0  0  0  0  0  0  0  0  0  0  0  0
  149.5050  143.6224  160.1041 H   0  0  0  0  0  0  0  0  0  0  0  0
  149.7644  144.2735  158.4908 H   0  0  0  0  0  0  0  0  0  0  0  0
  152.6091  141.3584  160.7503 H   0  0  0  0  0  0  0  0  0  0  0  0
  152.3255  141.0528  155.3057 H   0  0  0  0  0  0  0  0  0  0  0  0
  149.5071  140.1779  156.1537 H   0  0  0  0  0  0  0  0  0  0  0  0
  149.9140  141.7144  155.4209 H   0  0  0  0  0  0  0  0  0  0  0  0
  149.0827  140.1091  153.8362 H   0  0  0  0  0  0  0  0  0  0  0  0
  149.8265  138.0661  154.7523 H   0  0  0  0  0  0  0  0  0  0  0  0
  150.4421  138.2546  153.1252 H   0  0  0  0  0  0  0  0  0  0  0  0
  152.2353  137.5150  154.7310 H   0  0  0  0  0  0  0  0  0  0  0  0
  152.6379  139.0607  154.0087 H   0  0  0  0  0  0  0  0  0  0  0  0
  1  2  1  0  0  0  0
  1 16  1  0  0  0  0
  1 17  1  0  0  0  0
  1 18  1  0  0  0  0
  2  3  1  0  0  0  0
  2  4  1  0  0  0  0
  2  5  1  0  0  0  0
  3 19  1  0  0  0  0
  3 20  1  0  0  0  0
  3 21  1  0  0  0  0
  4 22  1  0  0  0  0
  4 23  1  0  0  0  0
  4 24  1  0  0  0  0
  5 15  1  0  0  0  0
  5  6  2  0  0  0  0
  6  7  1  0  0  0  0
  6 25  1  0  0  0  0
  7  8  1  0  0  0  0
  8  9  1  0  0  0  0
  8 15  2  0  0  0  0
  9 14  1  0  0  0  0
  9 10  1  0  0  0  0
  9 26  1  0  0  0  0
 10 11  1  0  0  0  0
 10 27  1  0  0  0  0
 10 28  1  0  0  0  0
 11 12  1  0  0  0  0
 11 29  1  0  0  0  0
 12 13  1  0  0  0  0
 12 30  1  0  0  0  0
 12 31  1  0  0  0  0
 13 14  1  0  0  0  0
 13 32  1  0  0  0  0
 13 33  1  0  0  0  0
M  END
> <s_m_source_file>
AV-unprocessed.smi

> <i_m_source_file_index>
3127

> <i_lp_mmshare_version>
43012

> <i_f3d_flags>
0

> <s_epik_input>
W0NIM11DKFtDSDNdKShbQ0gzXSljMVtjSF1zYyhuMSlbQ0BASF0yW0NIMl1bTkhdW0NIMl1bQ0gyXU8y

> <s_epik_cmdline>
J2VwaWtfcHl0aG9uJywgJy1waCcsICc3LjAnLCAnLXRuJywgJzgnLCAnLW1hJywgJzIwMCcsICctbWV0YWxfYmluZGluZycsICctaW1hZScsICc8aW5maWxlLm1hZT4nLCAnLW9tYWUnLCAnPG91dGZpbGUubWFlPic=

> <r_epik_Ionization_Penalty>
0.982256

> <r_epik_Ionization_Penalty_Charging>
0

> <r_epik_Ionization_Penalty_Neutral>
0.982256

> <r_epik_State_Penalty>
2.16535

> <r_epik_Charging_Adjusted_Penalty>
2.16535

> <i_epik_Tot_Q>
0

> <i_epik_Tot_abs_Q>
0

> <r_epik_Metal_State_Penalty>
2.16345

> <b_epik_Metal_Only>
0

> <s_lp_Force_Field>
OPLS_2005

> <r_lp_Energy>
6.45537

> <b_lp_Chiralities_Consistent>
1

> <s_lp_Variant>
AV-unprocessed.smi:3127-3

> <Gold.Version>
5.8.1

> <Gold.Id.Protein>
6NUR|6NUR_protein|mol2

> <Gold.PLP.Fitness>
39.1481

> <Gold.PLP.PLP>
-37.1490

> <Gold.PLP.part.hbond>
-2.0000

> <Gold.PLP.part.metal>
0.0000

> <Gold.PLP.part.buried>
-5.4428

> <Gold.PLP.part.nonpolar>
-28.8760

> <Gold.PLP.part.repulsive>
0.0421

> <Gold.PLP.ligand.clash>
0.0000

> <Gold.PLP.ligand.torsion>
0.0479

> <Gold.PLP.Chemscore.Hbond>
0.6944

> <Gold.PLP.Chemscore.CHOScore>
0.0000

> <Gold.PLP.Chemscore.Metal>
0.0000

> <Gold.Chemscore.Hbonds>
donor molecule, donor type, donor heavy atom, donor atom, acceptor molecule, acceptor atom, score
      P1  H  7989  7998       L1    11  0.64

> <Gold.PLP.Chemscore.Internal.Correction>
0.0116

> <Gold.Rescore>
     Score         DG    S(hbond)    S(metal)    S(lipo)     H(rot)  DE(clash)    DE(int)     intcor
     15.71     -16.23       0.29        0.00     108.13       1.12       0.35       0.18       ----

> <Gold.Chemscore.Fitness>
15.7124

> <Gold.Chemscore.DG>
-16.2342

> <Gold.Chemscore.ZeroCoef>
-5.4800

> <Gold.Chemscore.Hbond>
0.2881

> <Gold.Chemscore.Metal>
0.0000

> <Gold.Chemscore.Lipo>
108.1260

> <Gold.Chemscore.Internal_Hbond>
0.0000

> <Gold.Chemscore.DEClash>
0.3457

> <Gold.Chemscore.DEInternal>
0.1760

> <Gold.Chemscore.Rot>
1.1167

> <Gold.Chemscore.Internal.Correction>
   9.000000E+99

> <Gold.Chemscore.Hbonds>
donor molecule, donor type, donor heavy atom, donor atom, acceptor molecule, acceptor atom, score
      P1  H  7989  7998       L1    11  0.01

> <Gold.Chemscore.Hbond.Weighted>
-0.9622

> <Gold.Chemscore.Metal.Weighted>
-0.0000

> <Gold.Chemscore.Lipo.Weighted>
-12.6507

> <Gold.Chemscore.Internal_Hbond.Weighted>
0.0000

> <Gold.Chemscore.DEClash.Weighted>
0.3457

> <Gold.Chemscore.DEInternal.Weighted>
0.1760

> <Gold.Chemscore.Rot.Weighted>
2.8588

> <Gold.Chemscore.Internal.Correction.Weighted>
   9.000000E+99

> <Gold.Protein.RotatedTorsions>
[ 6907 6896 6895 6894 ] final   41.65 input  -60.11 | X-H torsion
[ 7974 7965 7964 7962 ] final   42.96 input  175.53 | X-H torsion
[ 8008 7997 7996 7995 ] final  178.09 input   59.86 | X-H torsion
[ 10167 10162 10161 10158 ] final -138.55 input  -65.29 | X-H torsion
[ 10718 10713 10712 10709 ] final  -69.19 input   66.30 | X-H torsion
[ 10763 10752 10751 10750 ] final  -98.93 input  -60.55 | X-H torsion
[ 11005 11000 10999 10996 ] final   49.32 input  -57.11 | X-H torsion

> <Gold.Protein.ActiveResidues>
 VAL166  LYS551  ARG553  GLY616  TRP617  ASP618  TYR619  PRO620  LYS621  CYS622 
 ASP623  PHE694  ASN695  SER759  ASP760  ASP761  ALA762  ILE779  LEU786  VAL792 
 PHE793  MET794  SER795  GLU796  ALA797  LYS798  CYS799  TRP800  GLU811  SER814 

> <Gold.Protein.RotatedAtoms>
  152.1980  134.8613  160.0510 H   0  0  0  0  0  0  0  0  0  0  0  0  # atno 6907 bound_to 6896
  151.9477  133.3651  159.3996 H   0  0  0  0  0  0  0  0  0  0  0  0  # atno 6908 bound_to 6896
  150.6949  134.4297  159.5286 H   0  0  0  0  0  0  0  0  0  0  0  0  # atno 6909 bound_to 6896
  146.0696  139.5240  142.9606 H   0  0  0  0  0  0  0  0  0  0  0  0  # atno 7974 bound_to 7965
  156.0585  140.1342  156.9968 H   0  0  0  0  0  0  0  0  0  0  0  0  # atno 8008 bound_to 7997
  154.4470  140.0996  156.6553 H   0  0  0  0  0  0  0  0  0  0  0  0  # atno 8009 bound_to 7997
  155.5414  140.3461  155.4450 H   0  0  0  0  0  0  0  0  0  0  0  0  # atno 8010 bound_to 7997
  139.8467  143.7251  152.2660 H   0  0  0  0  0  0  0  0  0  0  0  0  # atno 10167 bound_to 10162
  156.0468  130.4308  150.2111 H   0  0  0  0  0  0  0  0  0  0  0  0  # atno 10718 bound_to 10713
  154.7455  135.4991  153.9197 H   0  0  0  0  0  0  0  0  0  0  0  0  # atno 10763 bound_to 10752
  153.1088  135.6704  153.9546 H   0  0  0  0  0  0  0  0  0  0  0  0  # atno 10764 bound_to 10752
  153.9311  135.3078  155.3424 H   0  0  0  0  0  0  0  0  0  0  0  0  # atno 10765 bound_to 10752
  140.1114  134.4950  155.8674 H   0  0  0  0  0  0  0  0  0  0  0  0  # atno 11005 bound_to 11000
  145.6416  141.0283  143.1809 LP  0  0  0  0  0  0  0  0  0  0  0  0  # atno 17320 bound_to 7965
  144.7223  139.7988  143.7377 LP  0  0  0  0  0  0  0  0  0  0  0  0  # atno 17321 bound_to 7965
  139.7505  144.7535  151.0514 LP  0  0  0  0  0  0  0  0  0  0  0  0  # atno 17342 bound_to 10162
  140.7792  143.4866  150.9948 LP  0  0  0  0  0  0  0  0  0  0  0  0  # atno 17343 bound_to 10162
  157.0199  130.9976  151.3342 LP  0  0  0  0  0  0  0  0  0  0  0  0  # atno 17370 bound_to 10713
  157.5351  130.8084  149.7963 LP  0  0  0  0  0  0  0  0  0  0  0  0  # atno 17371 bound_to 10713
  141.2131  133.6728  156.6712 LP  0  0  0  0  0  0  0  0  0  0  0  0  # atno 17394 bound_to 11000
  140.3086  134.8105  157.4157 LP  0  0  0  0  0  0  0  0  0  0  0  0  # atno 17395 bound_to 11000

$$$$
