AV-unprocessed.smi:999|AV-procd|sdf|4353|dock7
  -GOLD-   22720 2253D 1   1.00000     0.00000
 Structure written by MMmdl.
 37 38  0  0  0  0  0  0  0  0  2 V2000
  153.7419  141.9761  160.7269 C   0  0  0  0  0  0  0  0  0  0  0  0
  152.3392  142.0602  160.0904 C   0  0  2  0  0  0  0  0  0  0  0  0
  152.2154  141.2093  158.8169 C   0  0  0  0  0  0  0  0  0  0  0  0
  153.2170  140.7485  158.2675 O   0  0  0  0  0  0  0  0  0  0  0  0
  150.9690  141.0099  158.3603 N   0  0  0  0  0  0  0  0  0  0  0  0
  150.6111  140.2407  157.1735 C   0  0  2  0  0  0  0  0  0  0  0  0
  151.4684  138.9619  157.1204 C   0  0  0  0  0  0  0  0  0  0  0  0
  151.2020  138.1537  155.8366 C   0  0  0  0  0  0  0  0  0  0  0  0
  151.4169  138.9964  154.5557 C   0  0  2  0  0  0  0  0  0  0  0  0
  152.9091  139.3090  154.2927 C   0  0  0  0  0  0  0  0  0  0  0  0
  153.7116  138.3499  154.2613 O   0  0  0  0  0  0  0  0  0  0  0  0
  153.2385  140.5082  154.1550 O   0  5  0  0  0  0  0  0  0  0  0  0
  150.5410  140.2717  154.6252 C   0  0  0  0  0  0  0  0  0  0  0  0
  150.7997  141.0942  155.9017 C   0  0  0  0  0  0  0  0  0  0  0  0
  151.9291  143.4336  159.8208 N   0  0  0  0  0  0  0  0  0  0  0  0
  152.6126  144.5954  160.1186 C   0  0  0  0  0  0  0  0  0  0  0  0
  151.8330  145.6447  159.7243 C   0  0  0  0  0  0  0  0  0  0  0  0
  150.6662  145.0206  159.2028 C   0  0  0  0  0  0  0  0  0  0  0  0
  150.7214  143.7009  159.2713 N   0  0  0  0  0  0  0  0  0  0  0  0
  154.0047  140.9437  160.9597 H   0  0  0  0  0  0  0  0  0  0  0  0
  153.7793  142.5398  161.6592 H   0  0  0  0  0  0  0  0  0  0  0  0
  154.5171  142.3723  160.0699 H   0  0  0  0  0  0  0  0  0  0  0  0
  151.6355  141.6559  160.8203 H   0  0  0  0  0  0  0  0  0  0  0  0
  150.2053  141.4215  158.8766 H   0  0  0  0  0  0  0  0  0  0  0  0
  149.5638  139.9402  157.2424 H   0  0  0  0  0  0  0  0  0  0  0  0
  152.5264  139.2212  157.1789 H   0  0  0  0  0  0  0  0  0  0  0  0
  151.2598  138.3396  157.9913 H   0  0  0  0  0  0  0  0  0  0  0  0
  151.8211  137.2560  155.8260 H   0  0  0  0  0  0  0  0  0  0  0  0
  150.1729  137.7938  155.8529 H   0  0  0  0  0  0  0  0  0  0  0  0
  151.0853  138.4049  153.7018 H   0  0  0  0  0  0  0  0  0  0  0  0
  150.6843  140.8963  153.7427 H   0  0  0  0  0  0  0  0  0  0  0  0
  149.4907  139.9784  154.6031 H   0  0  0  0  0  0  0  0  0  0  0  0
  150.1252  141.9507  155.9227 H   0  0  0  0  0  0  0  0  0  0  0  0
  151.8103  141.5042  155.8771 H   0  0  0  0  0  0  0  0  0  0  0  0
  153.5881  144.5786  160.5822 H   0  0  0  0  0  0  0  0  0  0  0  0
  152.0586  146.6978  159.8024 H   0  0  0  0  0  0  0  0  0  0  0  0
  149.7847  145.4837  158.7848 H   0  0  0  0  0  0  0  0  0  0  0  0
  1  2  1  0  0  0  0
  1 20  1  0  0  0  0
  1 21  1  0  0  0  0
  1 22  1  0  0  0  0
  2  3  1  0  0  0  0
  2 15  1  0  0  0  0
  2 23  1  0  0  0  0
  3  4  2  0  0  0  0
  3  5  1  0  0  0  0
  5  6  1  0  0  0  0
  5 24  1  0  0  0  0
  6 14  1  0  0  0  0
  6  7  1  0  0  0  0
  6 25  1  0  0  0  0
  7  8  1  0  0  0  0
  7 26  1  0  0  0  0
  7 27  1  0  0  0  0
  8  9  1  0  0  0  0
  8 28  1  0  0  0  0
  8 29  1  0  0  0  0
  9 10  1  0  0  0  0
  9 13  1  0  0  0  0
  9 30  1  0  0  0  0
 10 11  2  0  0  0  0
 10 12  1  0  0  0  0
 13 14  1  0  0  0  0
 13 31  1  0  0  0  0
 13 32  1  0  0  0  0
 14 33  1  0  0  0  0
 14 34  1  0  0  0  0
 15 19  1  0  0  0  0
 15 16  1  0  0  0  0
 16 17  2  0  0  0  0
 16 35  1  0  0  0  0
 17 18  1  0  0  0  0
 17 36  1  0  0  0  0
 18 19  2  0  0  0  0
 18 37  1  0  0  0  0
M  CHG  1  12  -1
M  END
> <s_m_source_file>
AV-unprocessed.smi

> <i_m_source_file_index>
999

> <i_lp_mmshare_version>
43012

> <i_f3d_flags>
0

> <s_epik_input>
bjFbY0hdW2NIXVtjSF1uMVtDQEhdKFtDSDNdKUMoPU8pW05IXVtDQEBIXTJbQ0gyXVtDSDJdW0NAQEhdKEMoPU8pW09IXSlbQ0gyXVtDSDJdMg==

> <s_epik_cmdline>
J2VwaWtfcHl0aG9uJywgJy1waCcsICc3LjAnLCAnLXRuJywgJzgnLCAnLW1hJywgJzIwMCcsICctbWV0YWxfYmluZGluZycsICctaW1hZScsICc8aW5maWxlLm1hZT4nLCAnLW9tYWUnLCAnPG91dGZpbGUubWFlPic=

> <r_lp_tautomer_probability>
1

> <r_epik_Ionization_Penalty>
0.00221712

> <r_epik_Ionization_Penalty_Charging>
0.00217268

> <r_epik_Ionization_Penalty_Neutral>
4.44343e-05

> <r_epik_State_Penalty>
0.0014925

> <r_epik_Charging_Adjusted_Penalty>
0.00366518

> <i_epik_Tot_Q>
-1

> <i_epik_Tot_abs_Q>
1

> <r_epik_Metal_State_Penalty>
-0

> <b_epik_Metal_Only>
0

> <s_lp_Force_Field>
OPLS_2005

> <r_lp_Energy>
7.42219

> <b_lp_Chiralities_Consistent>
1

> <s_lp_Variant>
AV-unprocessed.smi:999-3

> <Gold.Version>
5.8.1

> <Gold.Id.Protein>
6NUR|6NUR_protein|mol2

> <Gold.PLP.Fitness>
49.1267

> <Gold.PLP.PLP>
-38.1295

> <Gold.PLP.part.hbond>
-3.2192

> <Gold.PLP.part.metal>
0.0000

> <Gold.PLP.part.buried>
-0.6204

> <Gold.PLP.part.nonpolar>
-34.0719

> <Gold.PLP.part.repulsive>
0.2742

> <Gold.PLP.ligand.clash>
0.0000

> <Gold.PLP.ligand.torsion>
0.5701

> <Gold.PLP.Chemscore.Hbond>
2.9120

> <Gold.PLP.Chemscore.CHOScore>
1.0901

> <Gold.PLP.Chemscore.Metal>
0.0000

> <Gold.Chemscore.Hbonds>
donor molecule, donor type, donor heavy atom, donor atom, acceptor molecule, acceptor atom, score
      P1  H  7997  8009       L1     4  0.58
      P1  H  7997  8010       L1    12  0.87
      L1  C    18    37       P1  8029  1.00

> <Gold.PLP.Chemscore.Internal.Correction>
0.1312

> <Gold.Rescore>
     Score         DG    S(hbond)    S(metal)    S(lipo)     H(rot)  DE(clash)    DE(int)     intcor
     13.28     -17.58       1.86        0.00      93.48       1.98       0.44       3.86       ----

> <Gold.Chemscore.Fitness>
13.2777

> <Gold.Chemscore.DG>
-17.5765

> <Gold.Chemscore.ZeroCoef>
-5.4800

> <Gold.Chemscore.Hbond>
1.8627

> <Gold.Chemscore.Metal>
0.0000

> <Gold.Chemscore.Lipo>
93.4799

> <Gold.Chemscore.Internal_Hbond>
0.0000

> <Gold.Chemscore.DEClash>
0.4421

> <Gold.Chemscore.DEInternal>
3.8568

> <Gold.Chemscore.Rot>
1.9774

> <Gold.Chemscore.Internal.Correction>
   9.000000E+99

> <Gold.Chemscore.Hbonds>
donor molecule, donor type, donor heavy atom, donor atom, acceptor molecule, acceptor atom, score
      P1  H  7997  8009       L1     4  0.56
      P1  H  7997  8010       L1    12  0.04

> <Gold.Chemscore.Hbond.Weighted>
-6.2214

> <Gold.Chemscore.Metal.Weighted>
-0.0000

> <Gold.Chemscore.Lipo.Weighted>
-10.9371

> <Gold.Chemscore.Internal_Hbond.Weighted>
0.0000

> <Gold.Chemscore.DEClash.Weighted>
0.4421

> <Gold.Chemscore.DEInternal.Weighted>
3.8568

> <Gold.Chemscore.Rot.Weighted>
5.0620

> <Gold.Chemscore.Internal.Correction.Weighted>
   9.000000E+99

> <Gold.Protein.RotatedTorsions>
[ 6907 6896 6895 6894 ] final  162.53 input  -60.11 | X-H torsion
[ 7974 7965 7964 7962 ] final  -31.91 input  175.53 | X-H torsion
[ 8008 7997 7996 7995 ] final  142.45 input   59.86 | X-H torsion
[ 10167 10162 10161 10158 ] final  -77.89 input  -65.29 | X-H torsion
[ 10718 10713 10712 10709 ] final  -18.24 input   66.30 | X-H torsion
[ 10763 10752 10751 10750 ] final  143.95 input  -60.55 | X-H torsion
[ 11005 11000 10999 10996 ] final   50.81 input  -57.11 | X-H torsion

> <Gold.Protein.ActiveResidues>
 VAL166  LYS551  ARG553  GLY616  TRP617  ASP618  TYR619  PRO620  LYS621  CYS622 
 ASP623  PHE694  ASN695  SER759  ASP760  ASP761  ALA762  ILE779  LEU786  VAL792 
 PHE793  MET794  SER795  GLU796  ALA797  LYS798  CYS799  TRP800  GLU811  SER814 

> <Gold.Protein.RotatedAtoms>
  151.9390  133.3632  159.3957 H   0  0  0  0  0  0  0  0  0  0  0  0  # atno 6907 bound_to 6896
  150.7002  134.4459  159.5323 H   0  0  0  0  0  0  0  0  0  0  0  0  # atno 6908 bound_to 6896
  152.2112  134.8499  160.0548 H   0  0  0  0  0  0  0  0  0  0  0  0  # atno 6909 bound_to 6896
  146.1030  140.5727  142.8812 H   0  0  0  0  0  0  0  0  0  0  0  0  # atno 7974 bound_to 7965
  156.2949  140.2288  156.4729 H   0  0  0  0  0  0  0  0  0  0  0  0  # atno 8008 bound_to 7997
  154.7919  140.0453  157.1228 H   0  0  0  0  0  0  0  0  0  0  0  0  # atno 8009 bound_to 7997
  154.9635  140.3057  155.5023 H   0  0  0  0  0  0  0  0  0  0  0  0  # atno 8010 bound_to 7997
  140.4731  143.2421  151.8175 H   0  0  0  0  0  0  0  0  0  0  0  0  # atno 10167 bound_to 10162
  156.5623  130.4728  149.6401 H   0  0  0  0  0  0  0  0  0  0  0  0  # atno 10718 bound_to 10713
  153.9808  135.2941  155.3420 H   0  0  0  0  0  0  0  0  0  0  0  0  # atno 10763 bound_to 10752
  154.7270  135.5084  153.8905 H   0  0  0  0  0  0  0  0  0  0  0  0  # atno 10764 bound_to 10752
  153.0855  135.6692  154.0072 H   0  0  0  0  0  0  0  0  0  0  0  0  # atno 10765 bound_to 10752
  140.0986  134.5112  155.8784 H   0  0  0  0  0  0  0  0  0  0  0  0  # atno 11005 bound_to 11000
  144.7448  140.5039  143.6843 LP  0  0  0  0  0  0  0  0  0  0  0  0  # atno 17320 bound_to 7965
  145.5816  139.1489  143.3232 LP  0  0  0  0  0  0  0  0  0  0  0  0  # atno 17321 bound_to 7965
  139.4821  144.4867  151.9237 LP  0  0  0  0  0  0  0  0  0  0  0  0  # atno 17342 bound_to 10162
  140.3952  144.2564  150.5896 LP  0  0  0  0  0  0  0  0  0  0  0  0  # atno 17343 bound_to 10162
  156.2788  130.7059  151.1877 LP  0  0  0  0  0  0  0  0  0  0  0  0  # atno 17370 bound_to 10713
  157.7366  131.0561  150.5405 LP  0  0  0  0  0  0  0  0  0  0  0  0  # atno 17371 bound_to 10713
  141.2099  133.6689  156.6472 LP  0  0  0  0  0  0  0  0  0  0  0  0  # atno 17394 bound_to 11000
  140.3252  134.7975  157.4283 LP  0  0  0  0  0  0  0  0  0  0  0  0  # atno 17395 bound_to 11000

$$$$
