AV-unprocessed.smi:175|AV-procd|sdf|1431|dock9
  -GOLD-   2262019213D 1   1.00000     0.00000
 Structure written by MMmdl.
 47 50  0  0  0  0  0  0  0  0  1 V2000
  146.4320  129.9029  152.6060 C   0  0  0  0  0  0  0  0  0  0  0  0
  146.0685  131.3890  152.4531 C   0  0  2  0  0  0  0  0  0  0  0  0
  145.7740  131.6897  151.0961 O   0  0  0  0  0  0  0  0  0  0  0  0
  145.8761  133.0941  150.9467 C   0  0  0  0  0  0  0  0  0  0  0  0
  147.1549  133.4155  151.7090 C   0  0  0  0  0  0  0  0  0  0  0  0
  147.1444  132.4253  152.8773 C   0  0  2  0  0  0  0  0  0  0  0  0
  148.4330  131.8414  152.9734 O   0  0  0  0  0  0  0  0  0  0  0  0
  146.8211  133.1221  154.2227 C   0  0  0  0  0  0  0  0  0  0  0  0
  147.6923  134.2492  154.5201 N   0  0  0  0  0  0  0  0  0  0  0  0
  147.4386  135.5801  154.2702 C   0  0  0  0  0  0  0  0  0  0  0  0
  148.3799  136.4066  154.6378 N   0  0  0  0  0  0  0  0  0  0  0  0
  149.3608  135.5807  155.1703 C   0  0  0  0  0  0  0  0  0  0  0  0
  150.6364  135.8107  155.7464 C   0  0  0  0  0  0  0  0  0  0  0  0
  151.1491  137.0546  155.8735 N   0  0  0  0  0  0  0  0  0  0  0  0
  151.2572  137.8248  154.6341 C   0  0  0  0  0  0  0  0  0  0  0  0
  150.6659  139.1665  155.0180 C   0  0  0  0  0  0  0  0  0  0  0  0
  150.5872  140.1168  154.2412 O   0  0  0  0  0  0  0  0  0  0  0  0
  150.2679  139.1443  156.2911 N   0  0  0  0  0  0  0  0  0  0  0  0
  149.6612  140.2435  157.0387 C   0  0  0  0  0  0  0  0  0  0  0  0
  150.6254  141.4287  157.2249 C   0  0  0  0  0  0  0  0  0  0  0  0
  151.7710  140.9789  157.7352 F   0  0  0  0  0  0  0  0  0  0  0  0
  150.8865  142.0257  156.0623 F   0  0  0  0  0  0  0  0  0  0  0  0
  150.1058  142.3203  158.0688 F   0  0  0  0  0  0  0  0  0  0  0  0
  150.5409  137.8669  156.9277 C   0  0  0  0  0  0  0  0  0  0  0  0
  151.3516  134.7335  156.1659 N   0  0  0  0  0  0  0  0  0  0  0  0
  150.8432  133.5046  156.0325 C   0  0  0  0  0  0  0  0  0  0  0  0
  149.6665  133.1384  155.5180 N   0  0  0  0  0  0  0  0  0  0  0  0
  148.9499  134.2209  155.0974 C   0  0  0  0  0  0  0  0  0  0  0  0
  146.6720  129.6611  153.6417 H   0  0  0  0  0  0  0  0  0  0  0  0
  147.2896  129.6350  151.9884 H   0  0  0  0  0  0  0  0  0  0  0  0
  145.5989  129.2688  152.3025 H   0  0  0  0  0  0  0  0  0  0  0  0
  145.1472  131.5778  153.0056 H   0  0  0  0  0  0  0  0  0  0  0  0
  145.9248  133.3869  149.8977 H   0  0  0  0  0  0  0  0  0  0  0  0
  145.0125  133.5801  151.4035 H   0  0  0  0  0  0  0  0  0  0  0  0
  148.0066  133.2352  151.0505 H   0  0  0  0  0  0  0  0  0  0  0  0
  147.2011  134.4595  152.0212 H   0  0  0  0  0  0  0  0  0  0  0  0
  148.7904  131.7549  152.1029 H   0  0  0  0  0  0  0  0  0  0  0  0
  145.7898  133.4777  154.2267 H   0  0  0  0  0  0  0  0  0  0  0  0
  146.8980  132.4076  155.0434 H   0  0  0  0  0  0  0  0  0  0  0  0
  146.5246  135.9235  153.8084 H   0  0  0  0  0  0  0  0  0  0  0  0
  152.3037  137.9378  154.3502 H   0  0  0  0  0  0  0  0  0  0  0  0
  150.7114  137.3927  153.7937 H   0  0  0  0  0  0  0  0  0  0  0  0
  148.7664  140.5784  156.5123 H   0  0  0  0  0  0  0  0  0  0  0  0
  149.3233  139.8800  158.0106 H   0  0  0  0  0  0  0  0  0  0  0  0
  149.6206  137.4376  157.3288 H   0  0  0  0  0  0  0  0  0  0  0  0
  151.2461  137.9947  157.7496 H   0  0  0  0  0  0  0  0  0  0  0  0
  151.4685  132.6994  156.3890 H   0  0  0  0  0  0  0  0  0  0  0  0
  1  2  1  0  0  0  0
  1 29  1  0  0  0  0
  1 30  1  0  0  0  0
  1 31  1  0  0  0  0
  2  6  1  0  0  0  0
  2  3  1  0  0  0  0
  2 32  1  0  0  0  0
  3  4  1  0  0  0  0
  4  5  1  0  0  0  0
  4 33  1  0  0  0  0
  4 34  1  0  0  0  0
  5  6  1  0  0  0  0
  5 35  1  0  0  0  0
  5 36  1  0  0  0  0
  6  7  1  0  0  0  0
  6  8  1  0  0  0  0
  7 37  1  0  0  0  0
  8  9  1  0  0  0  0
  8 38  1  0  0  0  0
  8 39  1  0  0  0  0
  9 28  1  0  0  0  0
  9 10  1  0  0  0  0
 10 11  2  0  0  0  0
 10 40  1  0  0  0  0
 11 12  1  0  0  0  0
 12 28  2  0  0  0  0
 12 13  1  0  0  0  0
 13 14  1  0  0  0  0
 13 25  2  0  0  0  0
 14 24  1  0  0  0  0
 14 15  1  0  0  0  0
 15 16  1  0  0  0  0
 15 41  1  0  0  0  0
 15 42  1  0  0  0  0
 16 17  2  0  0  0  0
 16 18  1  0  0  0  0
 18 19  1  0  0  0  0
 18 24  1  0  0  0  0
 19 20  1  0  0  0  0
 19 43  1  0  0  0  0
 19 44  1  0  0  0  0
 20 21  1  0  0  0  0
 20 22  1  0  0  0  0
 20 23  1  0  0  0  0
 24 45  1  0  0  0  0
 24 46  1  0  0  0  0
 25 26  1  0  0  0  0
 26 27  2  0  0  0  0
 26 47  1  0  0  0  0
 27 28  1  0  0  0  0
M  END
> <s_m_source_file>
AV-unprocessed.smi

> <i_m_source_file_index>
175

> <i_lp_mmshare_version>
43012

> <i_f3d_flags>
0

> <s_epik_input>
W0NIMl0xW0NIMl1PW0NAQEhdKFtDSDNdKVtDQEBdMShbT0hdKVtDSDJdbihbY0hdbjIpYyhjMjMpbltjSF1uYzNONFtDSDJdQyg9TylOKFtDSDJdNClbQ0gyXUMoRikoRilG

> <s_epik_cmdline>
J2VwaWtfcHl0aG9uJywgJy1waCcsICc3LjAnLCAnLXRuJywgJzgnLCAnLW1hJywgJzIwMCcsICctbWV0YWxfYmluZGluZycsICctaW1hZScsICc8aW5maWxlLm1hZT4nLCAnLW9tYWUnLCAnPG91dGZpbGUubWFlPic=

> <r_lp_tautomer_probability>
1

> <r_epik_Ionization_Penalty>
0.000307802

> <r_epik_Ionization_Penalty_Charging>
0

> <r_epik_Ionization_Penalty_Neutral>
0.000307802

> <r_epik_State_Penalty>
-0

> <r_epik_Charging_Adjusted_Penalty>
0

> <i_epik_Tot_Q>
0

> <i_epik_Tot_abs_Q>
0

> <r_epik_Metal_State_Penalty>
-0

> <b_epik_Metal_Only>
0

> <s_epik_Chemistry_Notes>
This compound contains an acetal/aminal-like group ( X-CH(R)-Y where X, Y are N, S, or O) that may be acid/base labile, releasing an aldehyde.

> <s_lp_Force_Field>
OPLS_2005

> <r_lp_Energy>
38.2687

> <b_lp_Chiralities_Consistent>
1

> <s_lp_Variant>
AV-unprocessed.smi:175-3

> <Gold.Version>
5.8.1

> <Gold.Id.Protein>
6NUR|6NUR_protein|mol2

> <Gold.PLP.Fitness>
43.0330

> <Gold.PLP.PLP>
-36.1884

> <Gold.PLP.part.hbond>
-3.0000

> <Gold.PLP.part.metal>
0.0000

> <Gold.PLP.part.buried>
-6.0729

> <Gold.PLP.part.nonpolar>
-27.7735

> <Gold.PLP.part.repulsive>
1.7811

> <Gold.PLP.ligand.clash>
0.0000

> <Gold.PLP.ligand.torsion>
0.6320

> <Gold.PLP.Chemscore.Hbond>
2.6409

> <Gold.PLP.Chemscore.CHOScore>
0.0000

> <Gold.PLP.Chemscore.Metal>
0.0000

> <Gold.Chemscore.Hbonds>
donor molecule, donor type, donor heavy atom, donor atom, acceptor molecule, acceptor atom, score
      L1  H     7    37       P1 10747  1.00
      P1  H  7989  7998       L1    17  0.88
      P1  H 10752 10763       L1    25  0.27

> <Gold.PLP.Chemscore.Internal.Correction>
0.1857

> <Gold.Rescore>
     Score         DG    S(hbond)    S(metal)    S(lipo)     H(rot)  DE(clash)    DE(int)     intcor
      7.45      -9.98       1.83        0.00      52.99       3.05       0.26       2.27       ----

> <Gold.Chemscore.Fitness>
7.4479

> <Gold.Chemscore.DG>
-9.9774

> <Gold.Chemscore.ZeroCoef>
-5.4800

> <Gold.Chemscore.Hbond>
1.8269

> <Gold.Chemscore.Metal>
0.0000

> <Gold.Chemscore.Lipo>
52.9921

> <Gold.Chemscore.Internal_Hbond>
0.0000

> <Gold.Chemscore.DEClash>
0.2571

> <Gold.Chemscore.DEInternal>
2.2724

> <Gold.Chemscore.Rot>
3.0487

> <Gold.Chemscore.Internal.Correction>
   9.000000E+99

> <Gold.Chemscore.Hbonds>
donor molecule, donor type, donor heavy atom, donor atom, acceptor molecule, acceptor atom, score
      L1  H     7    37       P1 10747  0.87
      P1  H  7989  7998       L1    17  0.85
      P1  H 10752 10763       L1    25  0.02

> <Gold.Chemscore.Hbond.Weighted>
-6.1019

> <Gold.Chemscore.Metal.Weighted>
-0.0000

> <Gold.Chemscore.Lipo.Weighted>
-6.2001

> <Gold.Chemscore.Internal_Hbond.Weighted>
0.0000

> <Gold.Chemscore.DEClash.Weighted>
0.2571

> <Gold.Chemscore.DEInternal.Weighted>
2.2724

> <Gold.Chemscore.Rot.Weighted>
7.8046

> <Gold.Chemscore.Internal.Correction.Weighted>
   9.000000E+99

> <Gold.Protein.RotatedTorsions>
[ 6907 6896 6895 6894 ] final  135.53 input  -60.11 | X-H torsion
[ 7974 7965 7964 7962 ] final  -84.18 input  175.53 | X-H torsion
[ 8008 7997 7996 7995 ] final -126.86 input   59.86 | X-H torsion
[ 10167 10162 10161 10158 ] final -100.82 input  -65.29 | X-H torsion
[ 10718 10713 10712 10709 ] final -120.58 input   66.30 | X-H torsion
[ 10763 10752 10751 10750 ] final   96.66 input  -60.55 | X-H torsion
[ 11005 11000 10999 10996 ] final   88.19 input  -57.11 | X-H torsion

> <Gold.Protein.ActiveResidues>
 VAL166  LYS551  ARG553  GLY616  TRP617  ASP618  TYR619  PRO620  LYS621  CYS622 
 ASP623  PHE694  ASN695  SER759  ASP760  ASP761  ALA762  ILE779  LEU786  VAL792 
 PHE793  MET794  SER795  GLU796  ALA797  LYS798  CYS799  TRP800  GLU811  SER814 

> <Gold.Protein.RotatedAtoms>
  152.2994  133.5640  159.5608 H   0  0  0  0  0  0  0  0  0  0  0  0  # atno 6907 bound_to 6896
  150.7271  134.0313  159.3743 H   0  0  0  0  0  0  0  0  0  0  0  0  # atno 6908 bound_to 6896
  151.8214  135.0651  160.0476 H   0  0  0  0  0  0  0  0  0  0  0  0  # atno 6909 bound_to 6896
  145.5100  140.9540  143.1712 H   0  0  0  0  0  0  0  0  0  0  0  0  # atno 7974 bound_to 7965
  155.2367  140.0427  157.2969 H   0  0  0  0  0  0  0  0  0  0  0  0  # atno 8008 bound_to 7997
  154.5854  140.2412  155.7965 H   0  0  0  0  0  0  0  0  0  0  0  0  # atno 8009 bound_to 7997
  156.2222  140.2966  155.9989 H   0  0  0  0  0  0  0  0  0  0  0  0  # atno 8010 bound_to 7997
  140.2478  143.3493  152.0742 H   0  0  0  0  0  0  0  0  0  0  0  0  # atno 10167 bound_to 10162
  156.1269  130.6366  150.9558 H   0  0  0  0  0  0  0  0  0  0  0  0  # atno 10718 bound_to 10713
  153.2675  135.4211  155.0955 H   0  0  0  0  0  0  0  0  0  0  0  0  # atno 10763 bound_to 10752
  154.8444  135.3464  154.6290 H   0  0  0  0  0  0  0  0  0  0  0  0  # atno 10764 bound_to 10752
  153.6710  135.7043  153.5204 H   0  0  0  0  0  0  0  0  0  0  0  0  # atno 10765 bound_to 10752
  139.8902  134.8471  156.2966 H   0  0  0  0  0  0  0  0  0  0  0  0  # atno 11005 bound_to 11000
  144.7732  139.6687  143.7186 LP  0  0  0  0  0  0  0  0  0  0  0  0  # atno 17320 bound_to 7965
  146.2172  139.5571  142.9642 LP  0  0  0  0  0  0  0  0  0  0  0  0  # atno 17321 bound_to 7965
  139.5056  144.6798  151.6038 LP  0  0  0  0  0  0  0  0  0  0  0  0  # atno 17342 bound_to 10162
  140.6064  143.9517  150.6421 LP  0  0  0  0  0  0  0  0  0  0  0  0  # atno 17343 bound_to 10162
  157.6450  131.0905  150.8172 LP  0  0  0  0  0  0  0  0  0  0  0  0  # atno 17370 bound_to 10713
  156.8261  130.5000  149.5337 LP  0  0  0  0  0  0  0  0  0  0  0  0  # atno 17371 bound_to 10713
  140.9941  133.7191  156.0859 LP  0  0  0  0  0  0  0  0  0  0  0  0  # atno 17394 bound_to 11000
  140.7585  134.3965  157.5529 LP  0  0  0  0  0  0  0  0  0  0  0  0  # atno 17395 bound_to 11000

$$$$
