AV-unprocessed.smi:1732|AV-procd|sdf|6976|dock5
  -GOLD-   22720 8193D 1   1.00000     0.00000
 Structure written by MMmdl.
 36 37  0  0  0  0  0  0  0  0  1 V2000
  150.4417  142.9342  158.0916 O   0  0  0  0  0  0  0  0  0  0  0  0
  150.7255  141.7381  158.0400 C   0  0  0  0  0  0  0  0  0  0  0  0
  151.6683  141.1486  159.0872 C   0  0  0  0  0  0  0  0  0  0  0  0
  152.9459  141.7525  158.9435 O   0  0  0  0  0  0  0  0  0  0  0  0
  153.3397  142.5366  160.0592 C   0  0  0  0  0  0  0  0  0  0  0  0
  153.3686  141.6814  161.3238 C   0  0  0  0  0  0  0  0  0  0  0  0
  153.2844  142.6969  162.4643 C   0  0  0  0  0  0  0  0  0  0  0  0
  152.4795  143.8825  161.9104 C   0  0  0  0  0  0  0  0  0  0  0  0
  152.3354  143.6436  160.4003 C   0  0  0  0  0  0  0  0  0  0  0  0
  150.2470  140.8601  157.1361 N   0  0  0  0  0  0  0  0  0  0  0  0
  149.4011  141.0796  156.0363 C   0  0  0  0  0  0  0  0  0  0  0  0
  148.2131  141.7369  156.0888 C   0  0  0  0  0  0  0  0  0  0  0  0
  147.3959  141.9484  154.9057 C   0  0  0  0  0  0  0  0  0  0  0  0
  146.0313  142.6144  154.9904 C   0  0  0  0  0  0  0  0  0  0  0  0
  145.8746  143.2527  156.1509 F   0  0  0  0  0  0  0  0  0  0  0  0
  145.8673  143.4950  154.0030 F   0  0  0  0  0  0  0  0  0  0  0  0
  145.0721  141.6952  154.8895 F   0  0  0  0  0  0  0  0  0  0  0  0
  147.8737  141.4524  153.7494 C   0  0  0  0  0  0  0  0  0  0  0  0
  149.1041  140.7951  153.6832 N   0  0  0  0  0  0  0  0  0  0  0  0
  149.9055  140.5732  154.7490 C   0  0  0  0  0  0  0  0  0  0  0  0
  150.9763  139.9831  154.6083 O   0  0  0  0  0  0  0  0  0  0  0  0
  149.4004  140.4660  152.7757 H   0  0  0  0  0  0  0  0  0  0  0  0
  151.2737  141.3317  160.0881 H   0  0  0  0  0  0  0  0  0  0  0  0
  151.7251  140.0692  158.9420 H   0  0  0  0  0  0  0  0  0  0  0  0
  154.3320  142.9637  159.9011 H   0  0  0  0  0  0  0  0  0  0  0  0
  152.4940  141.0297  161.3509 H   0  0  0  0  0  0  0  0  0  0  0  0
  154.2558  141.0501  161.3850 H   0  0  0  0  0  0  0  0  0  0  0  0
  152.8337  142.2699  163.3607 H   0  0  0  0  0  0  0  0  0  0  0  0
  154.2883  143.0311  162.7297 H   0  0  0  0  0  0  0  0  0  0  0  0
  151.4984  143.9491  162.3817 H   0  0  0  0  0  0  0  0  0  0  0  0
  153.0006  144.8192  162.1107 H   0  0  0  0  0  0  0  0  0  0  0  0
  152.5007  144.5504  159.8182 H   0  0  0  0  0  0  0  0  0  0  0  0
  151.3230  143.2973  160.1872 H   0  0  0  0  0  0  0  0  0  0  0  0
  150.5155  139.8958  157.2722 H   0  0  0  0  0  0  0  0  0  0  0  0
  147.8465  142.1487  157.0148 H   0  0  0  0  0  0  0  0  0  0  0  0
  147.3588  141.5143  152.8019 H   0  0  0  0  0  0  0  0  0  0  0  0
  1  2  2  0  0  0  0
  2  3  1  0  0  0  0
  2 10  1  0  0  0  0
  3  4  1  0  0  0  0
  3 23  1  0  0  0  0
  3 24  1  0  0  0  0
  4  5  1  0  0  0  0
  5  9  1  0  0  0  0
  5  6  1  0  0  0  0
  5 25  1  0  0  0  0
  6  7  1  0  0  0  0
  6 26  1  0  0  0  0
  6 27  1  0  0  0  0
  7  8  1  0  0  0  0
  7 28  1  0  0  0  0
  7 29  1  0  0  0  0
  8  9  1  0  0  0  0
  8 30  1  0  0  0  0
  8 31  1  0  0  0  0
  9 32  1  0  0  0  0
  9 33  1  0  0  0  0
 10 11  1  0  0  0  0
 10 34  1  0  0  0  0
 11 20  1  0  0  0  0
 11 12  2  0  0  0  0
 12 13  1  0  0  0  0
 12 35  1  0  0  0  0
 13 14  1  0  0  0  0
 13 18  2  0  0  0  0
 14 15  1  0  0  0  0
 14 16  1  0  0  0  0
 14 17  1  0  0  0  0
 18 19  1  0  0  0  0
 18 36  1  0  0  0  0
 19 22  1  0  0  0  0
 19 20  1  0  0  0  0
 20 21  2  0  0  0  0
M  END
> <s_m_source_file>
AV-unprocessed.smi

> <i_m_source_file_index>
1732

> <i_lp_mmshare_version>
43012

> <i_f3d_flags>
0

> <s_epik_input>
W0NIMl0xW0NIMl1bQ0gyXVtDSDJdW0NIXTFPW0NIMl1DKD1PKVtOSF1jMltjSF1jKEMoRikoRilGKVtjSF1bbkhdYzI9Tw==

> <s_epik_cmdline>
J2VwaWtfcHl0aG9uJywgJy1waCcsICc3LjAnLCAnLXRuJywgJzgnLCAnLW1hJywgJzIwMCcsICctbWV0YWxfYmluZGluZycsICctaW1hZScsICc8aW5maWxlLm1hZT4nLCAnLW9tYWUnLCAnPG91dGZpbGUubWFlPic=

> <r_lp_tautomer_probability>
0.999

> <r_epik_Ionization_Penalty>
0.0109735

> <r_epik_Ionization_Penalty_Charging>
0.0109734

> <r_epik_Ionization_Penalty_Neutral>
9.17026e-08

> <r_epik_State_Penalty>
0.0084206

> <r_epik_Charging_Adjusted_Penalty>
0.019394

> <i_epik_Tot_Q>
0

> <i_epik_Tot_abs_Q>
0

> <r_epik_Metal_State_Penalty>
0.328349

> <b_epik_Metal_Only>
0

> <s_lp_Force_Field>
OPLS_2005

> <r_lp_Energy>
36.3652

> <b_lp_Chiralities_Consistent>
1

> <s_lp_Variant>
AV-unprocessed.smi:1732-1

> <Gold.Version>
5.8.1

> <Gold.Id.Protein>
6NUR|6NUR_protein|mol2

> <Gold.PLP.Fitness>
47.4409

> <Gold.PLP.PLP>
-44.1271

> <Gold.PLP.part.hbond>
-2.0000

> <Gold.PLP.part.metal>
0.0000

> <Gold.PLP.part.buried>
-3.3915

> <Gold.PLP.part.nonpolar>
-36.8686

> <Gold.PLP.part.repulsive>
0.4399

> <Gold.PLP.ligand.clash>
0.0000

> <Gold.PLP.ligand.torsion>
1.3830

> <Gold.PLP.Chemscore.Hbond>
2.0000

> <Gold.PLP.Chemscore.CHOScore>
0.0000

> <Gold.PLP.Chemscore.Metal>
0.0000

> <Gold.Chemscore.Hbonds>
donor molecule, donor type, donor heavy atom, donor atom, acceptor molecule, acceptor atom, score
      L1  H    19    22       P1  7957  1.00
      P1  H  7989  7998       L1    21  1.00

> <Gold.PLP.Chemscore.Internal.Correction>
0.0799

> <Gold.Rescore>
     Score         DG    S(hbond)    S(metal)    S(lipo)     H(rot)  DE(clash)    DE(int)     intcor
     16.71     -18.33       1.95        0.00      89.24       1.60       0.01       1.61       ----

> <Gold.Chemscore.Fitness>
16.7095

> <Gold.Chemscore.DG>
-18.3304

> <Gold.Chemscore.ZeroCoef>
-5.4800

> <Gold.Chemscore.Hbond>
1.9483

> <Gold.Chemscore.Metal>
0.0000

> <Gold.Chemscore.Lipo>
89.2414

> <Gold.Chemscore.Internal_Hbond>
0.0000

> <Gold.Chemscore.DEClash>
0.0130

> <Gold.Chemscore.DEInternal>
1.6078

> <Gold.Chemscore.Rot>
1.6009

> <Gold.Chemscore.Internal.Correction>
   9.000000E+99

> <Gold.Chemscore.Hbonds>
donor molecule, donor type, donor heavy atom, donor atom, acceptor molecule, acceptor atom, score
      L1  H    19    22       P1  7957  1.00
      P1  H  7989  7998       L1    21  0.25

> <Gold.Chemscore.Hbond.Weighted>
-6.5074

> <Gold.Chemscore.Metal.Weighted>
-0.0000

> <Gold.Chemscore.Lipo.Weighted>
-10.4412

> <Gold.Chemscore.Internal_Hbond.Weighted>
0.0000

> <Gold.Chemscore.DEClash.Weighted>
0.0130

> <Gold.Chemscore.DEInternal.Weighted>
1.6078

> <Gold.Chemscore.Rot.Weighted>
4.0982

> <Gold.Chemscore.Internal.Correction.Weighted>
   9.000000E+99

> <Gold.Protein.RotatedTorsions>
[ 6907 6896 6895 6894 ] final   28.85 input  -60.11 | X-H torsion
[ 7974 7965 7964 7962 ] final -100.11 input  175.53 | X-H torsion
[ 8008 7997 7996 7995 ] final -128.26 input   59.86 | X-H torsion
[ 10167 10162 10161 10158 ] final  -50.28 input  -65.29 | X-H torsion
[ 10718 10713 10712 10709 ] final -140.78 input   66.30 | X-H torsion
[ 10763 10752 10751 10750 ] final   21.55 input  -60.55 | X-H torsion
[ 11005 11000 10999 10996 ] final -155.16 input  -57.11 | X-H torsion

> <Gold.Protein.ActiveResidues>
 VAL166  LYS551  ARG553  GLY616  TRP617  ASP618  TYR619  PRO620  LYS621  CYS622 
 ASP623  PHE694  ASN695  SER759  ASP760  ASP761  ALA762  ILE779  LEU786  VAL792 
 PHE793  MET794  SER795  GLU796  ALA797  LYS798  CYS799  TRP800  GLU811  SER814 

> <Gold.Protein.RotatedAtoms>
  152.0230  134.9812  160.0570 H   0  0  0  0  0  0  0  0  0  0  0  0  # atno 6907 bound_to 6896
  152.1319  133.4408  159.4733 H   0  0  0  0  0  0  0  0  0  0  0  0  # atno 6908 bound_to 6896
  150.6857  134.2329  159.4485 H   0  0  0  0  0  0  0  0  0  0  0  0  # atno 6909 bound_to 6896
  145.2988  140.9372  143.2836 H   0  0  0  0  0  0  0  0  0  0  0  0  # atno 7974 bound_to 7965
  155.2598  140.0435  157.2996 H   0  0  0  0  0  0  0  0  0  0  0  0  # atno 8008 bound_to 7997
  154.5718  140.2376  155.8150 H   0  0  0  0  0  0  0  0  0  0  0  0  # atno 8009 bound_to 7997
  156.2128  140.2994  155.9779 H   0  0  0  0  0  0  0  0  0  0  0  0  # atno 8010 bound_to 7997
  140.6645  143.2664  151.4336 H   0  0  0  0  0  0  0  0  0  0  0  0  # atno 10167 bound_to 10162
  156.3263  130.7562  151.1670 H   0  0  0  0  0  0  0  0  0  0  0  0  # atno 10718 bound_to 10713
  153.0986  135.6666  153.9715 H   0  0  0  0  0  0  0  0  0  0  0  0  # atno 10763 bound_to 10752
  153.9292  135.3006  155.3447 H   0  0  0  0  0  0  0  0  0  0  0  0  # atno 10764 bound_to 10752
  154.7406  135.5081  153.9191 H   0  0  0  0  0  0  0  0  0  0  0  0  # atno 10765 bound_to 10752
  140.6895  134.4057  157.5220 H   0  0  0  0  0  0  0  0  0  0  0  0  # atno 11005 bound_to 11000
  144.9111  139.4527  143.6586 LP  0  0  0  0  0  0  0  0  0  0  0  0  # atno 17320 bound_to 7965
  146.3159  139.7920  142.8983 LP  0  0  0  0  0  0  0  0  0  0  0  0  # atno 17321 bound_to 7965
  139.5889  144.1542  152.2064 LP  0  0  0  0  0  0  0  0  0  0  0  0  # atno 17342 bound_to 10162
  140.0890  144.5636  150.7068 LP  0  0  0  0  0  0  0  0  0  0  0  0  # atno 17343 bound_to 10162
  157.7422  131.0493  150.5043 LP  0  0  0  0  0  0  0  0  0  0  0  0  # atno 17370 bound_to 10713
  156.5202  130.4160  149.6254 LP  0  0  0  0  0  0  0  0  0  0  0  0  # atno 17371 bound_to 10713
  139.8928  134.8747  156.2256 LP  0  0  0  0  0  0  0  0  0  0  0  0  # atno 17394 bound_to 11000
  141.0253  133.7019  156.1337 LP  0  0  0  0  0  0  0  0  0  0  0  0  # atno 17395 bound_to 11000

$$$$
