AV-unprocessed.smi:2871|AV-procd|sdf|11031|dock2
  -GOLD-   2272015493D 1   1.00000     0.00000
 Structure written by MMmdl.
 38 40  0  0  0  0  0  0  0  0  1 V2000
  151.7917  144.5897  158.8987 C   0  0  0  0  0  0  0  0  0  0  0  0
  152.2263  143.6656  159.9411 N   0  0  0  0  0  0  0  0  0  0  0  0
  152.1625  144.0591  161.3429 C   0  0  0  0  0  0  0  0  0  0  0  0
  152.7075  142.3863  159.5858 C   0  0  0  0  0  0  0  0  0  0  0  0
  153.8805  141.8378  160.1597 C   0  0  0  0  0  0  0  0  0  0  0  0
  154.2633  140.5480  159.7276 C   0  0  0  0  0  0  0  0  0  0  0  0
  155.5039  139.8505  160.2651 C   0  0  0  0  0  0  0  0  0  0  0  0
  155.5243  138.5856  159.8444 F   0  0  0  0  0  0  0  0  0  0  0  0
  156.6221  140.4504  159.8551 F   0  0  0  0  0  0  0  0  0  0  0  0
  155.4846  139.8604  161.5981 F   0  0  0  0  0  0  0  0  0  0  0  0
  153.5432  139.8680  158.8074 N   0  0  0  0  0  0  0  0  0  0  0  0
  152.4539  140.4666  158.3277 C   0  0  0  0  0  0  0  0  0  0  0  0
  151.7359  139.7384  157.3973 N   0  0  0  0  0  0  0  0  0  0  0  0
  151.6626  140.0586  155.9761 C   0  0  1  0  0  0  0  0  0  0  0  0
  152.2067  138.9448  155.0789 C   0  0  0  0  0  0  0  0  0  0  0  0
  151.0327  138.7152  154.1161 C   0  0  1  0  0  0  0  0  0  0  0  0
  149.8864  137.9558  154.7965 C   0  0  0  0  0  0  0  0  0  0  0  0
  149.3113  139.0264  155.7217 C   0  0  0  0  0  0  0  0  0  0  0  0
  150.2300  140.2255  155.4312 C   0  0  2  0  0  0  0  0  0  0  0  0
  150.4763  140.0178  154.0508 O   0  0  0  0  0  0  0  0  0  0  0  0
  152.0070  141.6796  158.6663 N   0  0  0  0  0  0  0  0  0  0  0  0
  152.6191  144.8285  158.2297 H   0  0  0  0  0  0  0  0  0  0  0  0
  151.4244  145.5243  159.3226 H   0  0  0  0  0  0  0  0  0  0  0  0
  150.9857  144.1512  158.3090 H   0  0  0  0  0  0  0  0  0  0  0  0
  153.1518  144.0139  161.7995 H   0  0  0  0  0  0  0  0  0  0  0  0
  151.4925  143.3996  161.8952 H   0  0  0  0  0  0  0  0  0  0  0  0
  151.7924  145.0786  161.4533 H   0  0  0  0  0  0  0  0  0  0  0  0
  154.4656  142.3685  160.8952 H   0  0  0  0  0  0  0  0  0  0  0  0
  151.1276  139.0153  157.7522 H   0  0  0  0  0  0  0  0  0  0  0  0
  152.2303  140.9711  155.7880 H   0  0  0  0  0  0  0  0  0  0  0  0
  153.0899  139.2913  154.5412 H   0  0  0  0  0  0  0  0  0  0  0  0
  152.4750  138.0352  155.6184 H   0  0  0  0  0  0  0  0  0  0  0  0
  151.3252  138.3014  153.1509 H   0  0  0  0  0  0  0  0  0  0  0  0
  149.1403  137.6412  154.0661 H   0  0  0  0  0  0  0  0  0  0  0  0
  150.2335  137.0726  155.3334 H   0  0  0  0  0  0  0  0  0  0  0  0
  148.2831  139.2563  155.4399 H   0  0  0  0  0  0  0  0  0  0  0  0
  149.3121  138.7294  156.7707 H   0  0  0  0  0  0  0  0  0  0  0  0
  149.7785  141.1915  155.6594 H   0  0  0  0  0  0  0  0  0  0  0  0
  1  2  1  0  0  0  0
  1 22  1  0  0  0  0
  1 23  1  0  0  0  0
  1 24  1  0  0  0  0
  2  3  1  0  0  0  0
  2  4  1  0  0  0  0
  3 25  1  0  0  0  0
  3 26  1  0  0  0  0
  3 27  1  0  0  0  0
  4 21  1  0  0  0  0
  4  5  2  0  0  0  0
  5  6  1  0  0  0  0
  5 28  1  0  0  0  0
  6  7  1  0  0  0  0
  6 11  2  0  0  0  0
  7  8  1  0  0  0  0
  7  9  1  0  0  0  0
  7 10  1  0  0  0  0
 11 12  1  0  0  0  0
 12 13  1  0  0  0  0
 12 21  2  0  0  0  0
 13 14  1  0  0  0  0
 13 29  1  0  0  0  0
 14 19  1  0  0  0  0
 14 15  1  0  0  0  0
 14 30  1  0  0  0  0
 15 16  1  0  0  0  0
 15 31  1  0  0  0  0
 15 32  1  0  0  0  0
 16 20  1  0  0  0  0
 16 17  1  0  0  0  0
 16 33  1  0  0  0  0
 17 18  1  0  0  0  0
 17 34  1  0  0  0  0
 17 35  1  0  0  0  0
 18 19  1  0  0  0  0
 18 36  1  0  0  0  0
 18 37  1  0  0  0  0
 19 20  1  0  0  0  0
 19 38  1  0  0  0  0
M  END
> <s_m_source_file>
AV-unprocessed.smi

> <i_m_source_file_index>
2871

> <i_lp_mmshare_version>
43012

> <i_f3d_flags>
0

> <s_epik_input>
W0NIM11OKFtDSDNdKWMxW2NIXWMoQyhGKShGKUYpbmMobjEpW05IXVtDQEhdKFtDSDJdW0NAQEhdMjMpW0NAQEhdKE8zKVtDSDJdW0NIMl0y

> <s_epik_cmdline>
J2VwaWtfcHl0aG9uJywgJy1waCcsICc3LjAnLCAnLXRuJywgJzgnLCAnLW1hJywgJzIwMCcsICctbWV0YWxfYmluZGluZycsICctaW1hZScsICc8aW5maWxlLm1hZT4nLCAnLW9tYWUnLCAnPG91dGZpbGUubWFlPic=

> <r_lp_tautomer_probability>
1

> <r_epik_Ionization_Penalty>
0.00695968

> <r_epik_Ionization_Penalty_Charging>
0

> <r_epik_Ionization_Penalty_Neutral>
0.00695968

> <r_epik_State_Penalty>
0.0050343

> <r_epik_Charging_Adjusted_Penalty>
0.0050343

> <i_epik_Tot_Q>
0

> <i_epik_Tot_abs_Q>
0

> <r_epik_Metal_State_Penalty>
-0

> <b_epik_Metal_Only>
0

> <s_lp_Force_Field>
OPLS_2005

> <r_lp_Energy>
32.958

> <b_lp_Chiralities_Consistent>
1

> <s_lp_Variant>
AV-unprocessed.smi:2871-2

> <Gold.Version>
5.8.1

> <Gold.Id.Protein>
6NUR|6NUR_protein|mol2

> <Gold.PLP.Fitness>
47.6417

> <Gold.PLP.PLP>
-44.8963

> <Gold.PLP.part.hbond>
-1.9505

> <Gold.PLP.part.metal>
0.0000

> <Gold.PLP.part.buried>
-5.5035

> <Gold.PLP.part.nonpolar>
-37.7275

> <Gold.PLP.part.repulsive>
0.6748

> <Gold.PLP.ligand.clash>
0.0000

> <Gold.PLP.ligand.torsion>
1.6635

> <Gold.PLP.Chemscore.Hbond>
2.0000

> <Gold.PLP.Chemscore.CHOScore>
0.0000

> <Gold.PLP.Chemscore.Metal>
0.0000

> <Gold.Chemscore.Hbonds>
donor molecule, donor type, donor heavy atom, donor atom, acceptor molecule, acceptor atom, score
      P1  H  7989  7998       L1    20  1.00
      P1  H  7997  8009       L1    11  0.93

> <Gold.PLP.Chemscore.Internal.Correction>
0.0725

> <Gold.Rescore>
     Score         DG    S(hbond)    S(metal)    S(lipo)     H(rot)  DE(clash)    DE(int)     intcor
     14.98     -16.46       0.96        0.00      88.22       1.00       0.09       1.38       ----

> <Gold.Chemscore.Fitness>
14.9832

> <Gold.Chemscore.DG>
-16.4611

> <Gold.Chemscore.ZeroCoef>
-5.4800

> <Gold.Chemscore.Hbond>
0.9637

> <Gold.Chemscore.Metal>
0.0000

> <Gold.Chemscore.Lipo>
88.2246

> <Gold.Chemscore.Internal_Hbond>
0.0000

> <Gold.Chemscore.DEClash>
0.0950

> <Gold.Chemscore.DEInternal>
1.3829

> <Gold.Chemscore.Rot>
1.0000

> <Gold.Chemscore.Internal.Correction>
   9.000000E+99

> <Gold.Chemscore.Hbonds>
donor molecule, donor type, donor heavy atom, donor atom, acceptor molecule, acceptor atom, score
      P1  H  7989  7998       L1    20  0.37
      P1  H  7997  8009       L1    11  0.06

> <Gold.Chemscore.Hbond.Weighted>
-3.2188

> <Gold.Chemscore.Metal.Weighted>
-0.0000

> <Gold.Chemscore.Lipo.Weighted>
-10.3223

> <Gold.Chemscore.Internal_Hbond.Weighted>
0.0000

> <Gold.Chemscore.DEClash.Weighted>
0.0950

> <Gold.Chemscore.DEInternal.Weighted>
1.3829

> <Gold.Chemscore.Rot.Weighted>
2.5600

> <Gold.Chemscore.Internal.Correction.Weighted>
   9.000000E+99

> <Gold.Protein.RotatedTorsions>
[ 6907 6896 6895 6894 ] final  -26.48 input  -60.11 | X-H torsion
[ 7974 7965 7964 7962 ] final  108.57 input  175.53 | X-H torsion
[ 8008 7997 7996 7995 ] final  136.72 input   59.86 | X-H torsion
[ 10167 10162 10161 10158 ] final  -83.32 input  -65.29 | X-H torsion
[ 10718 10713 10712 10709 ] final  -22.58 input   66.30 | X-H torsion
[ 10763 10752 10751 10750 ] final  -79.61 input  -60.55 | X-H torsion
[ 11005 11000 10999 10996 ] final  111.11 input  -57.11 | X-H torsion

> <Gold.Protein.ActiveResidues>
 VAL166  LYS551  ARG553  GLY616  TRP617  ASP618  TYR619  PRO620  LYS621  CYS622 
 ASP623  PHE694  ASN695  SER759  ASP760  ASP761  ALA762  ILE779  LEU786  VAL792 
 PHE793  MET794  SER795  GLU796  ALA797  LYS798  CYS799  TRP800  GLU811  SER814 

> <Gold.Protein.RotatedAtoms>
  151.1604  135.0270  159.8707 H   0  0  0  0  0  0  0  0  0  0  0  0  # atno 6907 bound_to 6896
  152.5451  134.1285  159.8439 H   0  0  0  0  0  0  0  0  0  0  0  0  # atno 6908 bound_to 6896
  151.1380  133.4945  159.2630 H   0  0  0  0  0  0  0  0  0  0  0  0  # atno 6909 bound_to 6896
  145.2789  139.2639  143.3926 H   0  0  0  0  0  0  0  0  0  0  0  0  # atno 7974 bound_to 7965
  156.3003  140.2438  156.3791 H   0  0  0  0  0  0  0  0  0  0  0  0  # atno 8008 bound_to 7997
  154.8718  140.0416  157.1748 H   0  0  0  0  0  0  0  0  0  0  0  0  # atno 8009 bound_to 7997
  154.8788  140.2946  155.5441 H   0  0  0  0  0  0  0  0  0  0  0  0  # atno 8010 bound_to 7997
  140.4237  143.2574  151.8854 H   0  0  0  0  0  0  0  0  0  0  0  0  # atno 10167 bound_to 10162
  156.5026  130.4591  149.6692 H   0  0  0  0  0  0  0  0  0  0  0  0  # atno 10718 bound_to 10713
  154.5408  135.5689  153.6838 H   0  0  0  0  0  0  0  0  0  0  0  0  # atno 10763 bound_to 10752
  152.9963  135.6227  154.2504 H   0  0  0  0  0  0  0  0  0  0  0  0  # atno 10764 bound_to 10752
  154.2435  135.2861  155.2824 H   0  0  0  0  0  0  0  0  0  0  0  0  # atno 10765 bound_to 10752
  139.8896  134.9500  156.6382 H   0  0  0  0  0  0  0  0  0  0  0  0  # atno 11005 bound_to 11000
  146.3223  140.3251  142.8636 LP  0  0  0  0  0  0  0  0  0  0  0  0  # atno 17320 bound_to 7965
  144.9270  140.7932  143.5713 LP  0  0  0  0  0  0  0  0  0  0  0  0  # atno 17321 bound_to 7965
  139.4783  144.5409  151.8529 LP  0  0  0  0  0  0  0  0  0  0  0  0  # atno 17342 bound_to 10162
  140.4505  144.1862  150.5897 LP  0  0  0  0  0  0  0  0  0  0  0  0  # atno 17343 bound_to 10162
  156.3318  130.7335  151.2266 LP  0  0  0  0  0  0  0  0  0  0  0  0  # atno 17370 bound_to 10713
  157.7461  131.0428  150.4711 LP  0  0  0  0  0  0  0  0  0  0  0  0  # atno 17371 bound_to 10713
  140.7614  133.8814  155.8421 LP  0  0  0  0  0  0  0  0  0  0  0  0  # atno 17394 bound_to 11000
  140.9919  134.1267  157.4400 LP  0  0  0  0  0  0  0  0  0  0  0  0  # atno 17395 bound_to 11000

$$$$
