AV-unprocessed.smi:314|AV-procd|sdf|2315|dock5
  -GOLD-   2262022223D 1   1.00000     0.00000
 Structure written by MMmdl.
 48 49  0  0  0  0  0  0  0  0  1 V2000
  143.5702  132.7243  148.7193 C   0  0  0  0  0  0  0  0  0  0  0  0
  143.9004  132.0324  149.9185 O   0  0  0  0  0  0  0  0  0  0  0  0
  144.9926  132.4629  150.6437 C   0  0  0  0  0  0  0  0  0  0  0  0
  145.4784  131.6432  151.6817 C   0  0  0  0  0  0  0  0  0  0  0  0
  146.5905  132.0793  152.4263 C   0  0  0  0  0  0  0  0  0  0  0  0
  147.1763  133.3240  152.1209 C   0  0  0  0  0  0  0  0  0  0  0  0
  148.3086  133.7360  152.8734 N   0  0  0  0  0  0  0  0  0  0  0  0
  148.5504  133.5396  154.1806 C   0  0  0  0  0  0  0  0  0  0  0  0
  147.8376  132.8879  154.9441 O   0  0  0  0  0  0  0  0  0  0  0  0
  149.6918  134.1320  154.5596 N   0  0  0  0  0  0  0  0  0  0  0  0
  150.2417  134.0967  155.9104 C   0  0  0  0  0  0  0  0  0  0  0  0
  149.9702  135.4117  156.6706 C   0  0  0  0  0  0  0  0  0  0  0  0
  151.2226  136.2811  156.8727 C   0  0  0  0  0  0  0  0  0  0  0  0
  152.2843  135.7374  157.1812 O   0  0  0  0  0  0  0  0  0  0  0  0
  151.1187  137.6229  156.7181 N   0  0  0  0  0  0  0  0  0  0  0  0
  149.9040  138.2861  156.2419 C   0  0  0  0  0  0  0  0  0  0  0  0
  150.1950  138.8747  154.8474 C   0  0  1  0  0  0  0  0  0  0  0  0
  148.9989  139.6521  154.2883 C   0  0  0  0  0  0  0  0  0  0  0  0
  151.3069  139.7709  154.9283 O   0  0  0  0  0  0  0  0  0  0  0  0
  152.5068  139.2244  155.4859 C   0  0  2  0  0  0  0  0  0  0  0  0
  153.1985  138.2641  154.5010 C   0  0  0  0  0  0  0  0  0  0  0  0
  152.2021  138.5992  156.8636 C   0  0  0  0  0  0  0  0  0  0  0  0
  146.6239  134.0682  151.0502 C   0  0  0  0  0  0  0  0  0  0  0  0
  145.5602  133.6538  150.3302 N   0  0  0  0  0  0  0  0  0  0  0  0
  142.6830  132.2733  148.2752 H   0  0  0  0  0  0  0  0  0  0  0  0
  144.3761  132.6596  147.9867 H   0  0  0  0  0  0  0  0  0  0  0  0
  143.3457  133.7742  148.9130 H   0  0  0  0  0  0  0  0  0  0  0  0
  145.0063  130.6974  151.9024 H   0  0  0  0  0  0  0  0  0  0  0  0
  146.9823  131.4665  153.2251 H   0  0  0  0  0  0  0  0  0  0  0  0
  149.0364  134.1980  152.3482 H   0  0  0  0  0  0  0  0  0  0  0  0
  150.2195  134.6408  153.8655 H   0  0  0  0  0  0  0  0  0  0  0  0
  149.8253  133.2433  156.4491 H   0  0  0  0  0  0  0  0  0  0  0  0
  151.3153  133.9227  155.8309 H   0  0  0  0  0  0  0  0  0  0  0  0
  149.2174  135.9953  156.1393 H   0  0  0  0  0  0  0  0  0  0  0  0
  149.5594  135.1715  157.6514 H   0  0  0  0  0  0  0  0  0  0  0  0
  149.0471  137.6128  156.1916 H   0  0  0  0  0  0  0  0  0  0  0  0
  149.6233  139.0769  156.9392 H   0  0  0  0  0  0  0  0  0  0  0  0
  150.4287  138.0675  154.1525 H   0  0  0  0  0  0  0  0  0  0  0  0
  148.1250  139.0080  154.1883 H   0  0  0  0  0  0  0  0  0  0  0  0
  149.2258  140.0593  153.3026 H   0  0  0  0  0  0  0  0  0  0  0  0
  148.7299  140.4842  154.9392 H   0  0  0  0  0  0  0  0  0  0  0  0
  153.1830  140.0656  155.6418 H   0  0  0  0  0  0  0  0  0  0  0  0
  154.1580  137.9297  154.8962 H   0  0  0  0  0  0  0  0  0  0  0  0
  153.3898  138.7577  153.5481 H   0  0  0  0  0  0  0  0  0  0  0  0
  152.6032  137.3739  154.3002 H   0  0  0  0  0  0  0  0  0  0  0  0
  151.8770  139.3795  157.5534 H   0  0  0  0  0  0  0  0  0  0  0  0
  153.1109  138.1914  157.3035 H   0  0  0  0  0  0  0  0  0  0  0  0
  147.0442  135.0101  150.7334 H   0  0  0  0  0  0  0  0  0  0  0  0
  1  2  1  0  0  0  0
  1 25  1  0  0  0  0
  1 26  1  0  0  0  0
  1 27  1  0  0  0  0
  2  3  1  0  0  0  0
  3 24  1  0  0  0  0
  3  4  2  0  0  0  0
  4  5  1  0  0  0  0
  4 28  1  0  0  0  0
  5  6  2  0  0  0  0
  5 29  1  0  0  0  0
  6  7  1  0  0  0  0
  6 23  1  0  0  0  0
  7  8  1  0  0  0  0
  7 30  1  0  0  0  0
  8  9  2  0  0  0  0
  8 10  1  0  0  0  0
 10 11  1  0  0  0  0
 10 31  1  0  0  0  0
 11 12  1  0  0  0  0
 11 32  1  0  0  0  0
 11 33  1  0  0  0  0
 12 13  1  0  0  0  0
 12 34  1  0  0  0  0
 12 35  1  0  0  0  0
 13 14  2  0  0  0  0
 13 15  1  0  0  0  0
 15 22  1  0  0  0  0
 15 16  1  0  0  0  0
 16 17  1  0  0  0  0
 16 36  1  0  0  0  0
 16 37  1  0  0  0  0
 17 18  1  0  0  0  0
 17 19  1  0  0  0  0
 17 38  1  0  0  0  0
 18 39  1  0  0  0  0
 18 40  1  0  0  0  0
 18 41  1  0  0  0  0
 19 20  1  0  0  0  0
 20 21  1  0  0  0  0
 20 22  1  0  0  0  0
 20 42  1  0  0  0  0
 21 43  1  0  0  0  0
 21 44  1  0  0  0  0
 21 45  1  0  0  0  0
 22 46  1  0  0  0  0
 22 47  1  0  0  0  0
 23 24  2  0  0  0  0
 23 48  1  0  0  0  0
M  END
> <s_m_source_file>
AV-unprocessed.smi

> <i_m_source_file_index>
314

> <i_lp_mmshare_version>
43012

> <i_f3d_flags>
0

> <s_epik_input>
W0NIM11PYzFbY0hdW2NIXWMoW2NIXW4xKVtOSF1DKD1PKVtOSF1bQ0gyXVtDSDJdQyg9TylOMltDSDJdW0NAQEhdKFtDSDNdKU9bQ0BASF0oW0NIM10pW0NIMl0y

> <s_epik_cmdline>
J2VwaWtfcHl0aG9uJywgJy1waCcsICc3LjAnLCAnLXRuJywgJzgnLCAnLW1hJywgJzIwMCcsICctbWV0YWxfYmluZGluZycsICctaW1hZScsICc8aW5maWxlLm1hZT4nLCAnLW9tYWUnLCAnPG91dGZpbGUubWFlPic=

> <r_lp_tautomer_probability>
1

> <r_epik_Ionization_Penalty>
8.55977e-05

> <r_epik_Ionization_Penalty_Charging>
0

> <r_epik_Ionization_Penalty_Neutral>
8.55977e-05

> <r_epik_State_Penalty>
-0

> <r_epik_Charging_Adjusted_Penalty>
0

> <i_epik_Tot_Q>
0

> <i_epik_Tot_abs_Q>
0

> <r_epik_Metal_State_Penalty>
-0

> <b_epik_Metal_Only>
0

> <s_lp_Force_Field>
OPLS_2005

> <r_lp_Energy>
24.1988

> <b_lp_Chiralities_Consistent>
1

> <s_lp_Variant>
AV-unprocessed.smi:314-3

> <Gold.Version>
5.8.1

> <Gold.Id.Protein>
6NUR|6NUR_protein|mol2

> <Gold.PLP.Fitness>
43.2463

> <Gold.PLP.PLP>
-36.6445

> <Gold.PLP.part.hbond>
-3.8401

> <Gold.PLP.part.metal>
0.0000

> <Gold.PLP.part.buried>
-4.7897

> <Gold.PLP.part.nonpolar>
-28.6314

> <Gold.PLP.part.repulsive>
0.4379

> <Gold.PLP.ligand.clash>
0.0000

> <Gold.PLP.ligand.torsion>
1.1151

> <Gold.PLP.Chemscore.Hbond>
1.9913

> <Gold.PLP.Chemscore.CHOScore>
0.9440

> <Gold.PLP.Chemscore.Metal>
0.0000

> <Gold.Chemscore.Hbonds>
donor molecule, donor type, donor heavy atom, donor atom, acceptor molecule, acceptor atom, score
      P1  H  7989  7998       L1    19  1.00
      P1  H 10752 10764       L1    14  0.49
      P1  H 10785 10796       L1     2  0.05
      L1  C    23    48       P1  7948  0.92

> <Gold.PLP.Chemscore.Internal.Correction>
0.0261

> <Gold.Rescore>
     Score         DG    S(hbond)    S(metal)    S(lipo)     H(rot)  DE(clash)    DE(int)     intcor
     12.68     -15.34       1.34        0.00      85.67       1.81       0.09       2.58       ----

> <Gold.Chemscore.Fitness>
12.6768

> <Gold.Chemscore.DG>
-15.3415

> <Gold.Chemscore.ZeroCoef>
-5.4800

> <Gold.Chemscore.Hbond>
1.3363

> <Gold.Chemscore.Metal>
0.0000

> <Gold.Chemscore.Lipo>
85.6709

> <Gold.Chemscore.Internal_Hbond>
0.0000

> <Gold.Chemscore.DEClash>
0.0868

> <Gold.Chemscore.DEInternal>
2.5779

> <Gold.Chemscore.Rot>
1.8067

> <Gold.Chemscore.Internal.Correction>
   9.000000E+99

> <Gold.Chemscore.Hbonds>
donor molecule, donor type, donor heavy atom, donor atom, acceptor molecule, acceptor atom, score
      P1  H  7989  7998       L1    19  0.79
      P1  H 10752 10764       L1    14  0.28

> <Gold.Chemscore.Hbond.Weighted>
-4.4631

> <Gold.Chemscore.Metal.Weighted>
-0.0000

> <Gold.Chemscore.Lipo.Weighted>
-10.0235

> <Gold.Chemscore.Internal_Hbond.Weighted>
0.0000

> <Gold.Chemscore.DEClash.Weighted>
0.0868

> <Gold.Chemscore.DEInternal.Weighted>
2.5779

> <Gold.Chemscore.Rot.Weighted>
4.6252

> <Gold.Chemscore.Internal.Correction.Weighted>
   9.000000E+99

> <Gold.Protein.RotatedTorsions>
[ 6907 6896 6895 6894 ] final  -11.42 input  -60.11 | X-H torsion
[ 7974 7965 7964 7962 ] final   51.50 input  175.53 | X-H torsion
[ 8008 7997 7996 7995 ] final  -94.11 input   59.86 | X-H torsion
[ 10167 10162 10161 10158 ] final  155.25 input  -65.29 | X-H torsion
[ 10718 10713 10712 10709 ] final   79.83 input   66.30 | X-H torsion
[ 10763 10752 10751 10750 ] final  -11.56 input  -60.55 | X-H torsion
[ 11005 11000 10999 10996 ] final  -70.74 input  -57.11 | X-H torsion

> <Gold.Protein.ActiveResidues>
 VAL166  LYS551  ARG553  GLY616  TRP617  ASP618  TYR619  PRO620  LYS621  CYS622 
 ASP623  PHE694  ASN695  SER759  ASP760  ASP761  ALA762  ILE779  LEU786  VAL792 
 PHE793  MET794  SER795  GLU796  ALA797  LYS798  CYS799  TRP800  GLU811  SER814 

> <Gold.Protein.RotatedAtoms>
  151.3866  135.0949  159.9512 H   0  0  0  0  0  0  0  0  0  0  0  0  # atno 6907 bound_to 6896
  152.5092  133.9021  159.7456 H   0  0  0  0  0  0  0  0  0  0  0  0  # atno 6908 bound_to 6896
  150.9465  133.6541  159.2809 H   0  0  0  0  0  0  0  0  0  0  0  0  # atno 6909 bound_to 6896
  145.9907  139.4336  143.0075 H   0  0  0  0  0  0  0  0  0  0  0  0  # atno 7974 bound_to 7965
  154.7442  140.0492  157.0837 H   0  0  0  0  0  0  0  0  0  0  0  0  # atno 8008 bound_to 7997
  155.0140  140.3139  155.4799 H   0  0  0  0  0  0  0  0  0  0  0  0  # atno 8009 bound_to 7997
  156.2871  140.2179  156.5255 H   0  0  0  0  0  0  0  0  0  0  0  0  # atno 8010 bound_to 7997
  139.4821  144.5115  151.8017 H   0  0  0  0  0  0  0  0  0  0  0  0  # atno 10167 bound_to 10162
  157.6788  130.9932  150.1990 H   0  0  0  0  0  0  0  0  0  0  0  0  # atno 10718 bound_to 10713
  153.4856  135.7017  153.5913 H   0  0  0  0  0  0  0  0  0  0  0  0  # atno 10763 bound_to 10752
  153.4108  135.3849  155.2049 H   0  0  0  0  0  0  0  0  0  0  0  0  # atno 10764 bound_to 10752
  154.8719  135.3904  154.4310 H   0  0  0  0  0  0  0  0  0  0  0  0  # atno 10765 bound_to 10752
  141.1580  133.6798  156.6799 H   0  0  0  0  0  0  0  0  0  0  0  0  # atno 11005 bound_to 11000
  145.7634  140.9926  143.1188 LP  0  0  0  0  0  0  0  0  0  0  0  0  # atno 17320 bound_to 7965
  144.6888  139.9358  143.7473 LP  0  0  0  0  0  0  0  0  0  0  0  0  # atno 17321 bound_to 7965
  140.4619  144.1710  150.5907 LP  0  0  0  0  0  0  0  0  0  0  0  0  # atno 17342 bound_to 10162
  140.4475  143.2500  151.9391 LP  0  0  0  0  0  0  0  0  0  0  0  0  # atno 17343 bound_to 10162
  156.2685  130.3719  149.8056 LP  0  0  0  0  0  0  0  0  0  0  0  0  # atno 17370 bound_to 10713
  156.5780  130.8453  151.3375 LP  0  0  0  0  0  0  0  0  0  0  0  0  # atno 17371 bound_to 10713
  140.3110  134.8086  157.4176 LP  0  0  0  0  0  0  0  0  0  0  0  0  # atno 17394 bound_to 11000
  140.1178  134.5259  155.8209 LP  0  0  0  0  0  0  0  0  0  0  0  0  # atno 17395 bound_to 11000

$$$$
