AV-unprocessed.smi:2044|AV-procd|sdf|8302|dock3
  -GOLD-   2272010563D 1   1.00000     0.00000
 Structure written by MMmdl.
 38 39  0  0  0  0  0  0  0  0  2 V2000
  149.0962  141.1237  154.5493 C   0  0  0  0  0  0  0  0  0  0  0  0
  149.9631  139.9142  154.6340 C   0  0  0  0  0  0  0  0  0  0  0  0
  149.7292  138.5876  154.4076 C   0  0  0  0  0  0  0  0  0  0  0  0
  150.9871  137.9848  154.6821 C   0  0  0  0  0  0  0  0  0  0  0  0
  151.2712  136.6768  154.5886 N   0  5  0  0  0  0  0  0  0  0  0  0
  150.4814  135.7630  155.1985 C   0  0  0  0  0  0  0  0  0  0  0  0
  150.6270  135.3137  156.3377 O   0  0  0  0  0  0  0  0  0  0  0  0
  149.4580  135.3441  154.4434 N   0  0  0  0  0  0  0  0  0  0  0  0
  148.4506  134.3712  154.8536 C   0  0  0  0  0  0  0  0  0  0  0  0
  148.3593  133.1857  153.8603 C   0  0  2  0  0  0  0  0  0  0  0  0
  146.9689  133.2276  153.1874 C   0  0  0  0  0  0  0  0  0  0  0  0
  148.6852  131.8718  154.4575 N   0  0  0  0  0  0  0  0  0  0  0  0
  150.0296  131.8350  155.0407 C   0  0  0  0  0  0  0  0  0  0  0  0
  150.3726  130.4641  155.6484 C   0  0  0  0  0  0  0  0  0  0  0  0
  150.2361  129.4529  154.6585 O   0  0  0  0  0  0  0  0  0  0  0  0
  148.9233  129.4085  154.1145 C   0  0  0  0  0  0  0  0  0  0  0  0
  148.5730  130.7725  153.4952 C   0  0  0  0  0  0  0  0  0  0  0  0
  151.9079  138.8695  155.0268 N   0  0  0  0  0  0  0  0  0  0  0  0
  151.2571  140.1089  155.0057 O   0  0  0  0  0  0  0  0  0  0  0  0
  148.5091  141.1143  153.6311 H   0  0  0  0  0  0  0  0  0  0  0  0
  149.6931  142.0359  154.5584 H   0  0  0  0  0  0  0  0  0  0  0  0
  148.4064  141.1620  155.3924 H   0  0  0  0  0  0  0  0  0  0  0  0
  148.8059  138.1204  154.0994 H   0  0  0  0  0  0  0  0  0  0  0  0
  149.3666  135.7352  153.5172 H   0  0  0  0  0  0  0  0  0  0  0  0
  148.7056  134.0048  155.8490 H   0  0  0  0  0  0  0  0  0  0  0  0
  147.4838  134.8619  154.9687 H   0  0  0  0  0  0  0  0  0  0  0  0
  149.0900  133.3874  153.0755 H   0  0  0  0  0  0  0  0  0  0  0  0
  146.7197  134.2367  152.8581 H   0  0  0  0  0  0  0  0  0  0  0  0
  146.1840  132.9025  153.8711 H   0  0  0  0  0  0  0  0  0  0  0  0
  146.9235  132.5993  152.2986 H   0  0  0  0  0  0  0  0  0  0  0  0
  150.7695  132.0901  154.2807 H   0  0  0  0  0  0  0  0  0  0  0  0
  150.1229  132.5749  155.8344 H   0  0  0  0  0  0  0  0  0  0  0  0
  151.3969  130.4615  156.0209 H   0  0  0  0  0  0  0  0  0  0  0  0
  149.7225  130.2447  156.4969 H   0  0  0  0  0  0  0  0  0  0  0  0
  148.8780  128.6259  153.3569 H   0  0  0  0  0  0  0  0  0  0  0  0
  148.2067  129.1424  154.8931 H   0  0  0  0  0  0  0  0  0  0  0  0
  147.5575  130.7049  153.1078 H   0  0  0  0  0  0  0  0  0  0  0  0
  149.2253  130.9602  152.6409 H   0  0  0  0  0  0  0  0  0  0  0  0
  1  2  1  0  0  0  0
  1 20  1  0  0  0  0
  1 21  1  0  0  0  0
  1 22  1  0  0  0  0
  2 19  1  0  0  0  0
  2  3  2  0  0  0  0
  3  4  1  0  0  0  0
  3 23  1  0  0  0  0
  4  5  1  0  0  0  0
  4 18  2  0  0  0  0
  5  6  1  0  0  0  0
  6  7  2  0  0  0  0
  6  8  1  0  0  0  0
  8  9  1  0  0  0  0
  8 24  1  0  0  0  0
  9 10  1  0  0  0  0
  9 25  1  0  0  0  0
  9 26  1  0  0  0  0
 10 11  1  0  0  0  0
 10 12  1  0  0  0  0
 10 27  1  0  0  0  0
 11 28  1  0  0  0  0
 11 29  1  0  0  0  0
 11 30  1  0  0  0  0
 12 17  1  0  0  0  0
 12 13  1  0  0  0  0
 13 14  1  0  0  0  0
 13 31  1  0  0  0  0
 13 32  1  0  0  0  0
 14 15  1  0  0  0  0
 14 33  1  0  0  0  0
 14 34  1  0  0  0  0
 15 16  1  0  0  0  0
 16 17  1  0  0  0  0
 16 35  1  0  0  0  0
 16 36  1  0  0  0  0
 17 37  1  0  0  0  0
 17 38  1  0  0  0  0
 18 19  1  0  0  0  0
M  CHG  1   5  -1
M  END
> <s_m_source_file>
AV-unprocessed.smi

> <i_m_source_file_index>
2044

> <i_lp_mmshare_version>
43012

> <i_f3d_flags>
0

> <s_epik_input>
W0NIM11jMVtjSF1jKG5vMSlbTkhdQyg9TylbTkhdW0NIMl1bQ0BIXShbQ0gzXSlOMltDSDJdW0NIMl1PW0NIMl1bQ0gyXTI=

> <s_epik_cmdline>
J2VwaWtfcHl0aG9uJywgJy1waCcsICc3LjAnLCAnLXRuJywgJzgnLCAnLW1hJywgJzIwMCcsICctbWV0YWxfYmluZGluZycsICctaW1hZScsICc8aW5maWxlLm1hZT4nLCAnLW9tYWUnLCAnPG91dGZpbGUubWFlPic=

> <r_epik_Ionization_Penalty>
6.88367

> <r_epik_Ionization_Penalty_Charging>
6.57198

> <r_epik_Ionization_Penalty_Neutral>
0.311681

> <r_epik_State_Penalty>
6.77619

> <r_epik_Charging_Adjusted_Penalty>
13.3482

> <i_epik_Tot_Q>
-1

> <i_epik_Tot_abs_Q>
1

> <r_epik_Metal_State_Penalty>
2.70533

> <b_epik_Metal_Only>
1

> <s_lp_Force_Field>
OPLS_2005

> <r_lp_Energy>
25.764

> <b_lp_Chiralities_Consistent>
1

> <s_lp_Variant>
AV-unprocessed.smi:2044-5

> <Gold.Version>
5.8.1

> <Gold.Id.Protein>
6NUR|6NUR_protein|mol2

> <Gold.PLP.Fitness>
40.0004

> <Gold.PLP.PLP>
-31.8593

> <Gold.PLP.part.hbond>
-3.3782

> <Gold.PLP.part.metal>
0.0000

> <Gold.PLP.part.buried>
-4.5508

> <Gold.PLP.part.nonpolar>
-24.2545

> <Gold.PLP.part.repulsive>
0.8704

> <Gold.PLP.ligand.clash>
0.0000

> <Gold.PLP.ligand.torsion>
1.9553

> <Gold.PLP.Chemscore.Hbond>
4.0000

> <Gold.PLP.Chemscore.CHOScore>
0.0000

> <Gold.PLP.Chemscore.Metal>
0.0000

> <Gold.Chemscore.Hbonds>
donor molecule, donor type, donor heavy atom, donor atom, acceptor molecule, acceptor atom, score
      L1  H     8    24       P1  7948  1.00
      P1  H  7989  7998       L1    19  0.60
      P1  H 10752 10765       L1     5  1.75

> <Gold.PLP.Chemscore.Internal.Correction>
0.0517

> <Gold.Rescore>
     Score         DG    S(hbond)    S(metal)    S(lipo)     H(rot)  DE(clash)    DE(int)     intcor
     10.02     -12.26       1.39        0.00      52.11       1.55       0.25       1.99       ----

> <Gold.Chemscore.Fitness>
10.0216

> <Gold.Chemscore.DG>
-12.2609

> <Gold.Chemscore.ZeroCoef>
-5.4800

> <Gold.Chemscore.Hbond>
1.3904

> <Gold.Chemscore.Metal>
0.0000

> <Gold.Chemscore.Lipo>
52.1144

> <Gold.Chemscore.Internal_Hbond>
0.0000

> <Gold.Chemscore.DEClash>
0.2539

> <Gold.Chemscore.DEInternal>
1.9854

> <Gold.Chemscore.Rot>
1.5470

> <Gold.Chemscore.Internal.Correction>
   9.000000E+99

> <Gold.Chemscore.Hbonds>
donor molecule, donor type, donor heavy atom, donor atom, acceptor molecule, acceptor atom, score
      L1  H     8    24       P1  7948  0.45
      P1  H  7989  7998       L1    19  0.03
      P1  H 10752 10765       L1     5  0.49

> <Gold.Chemscore.Hbond.Weighted>
-4.6438

> <Gold.Chemscore.Metal.Weighted>
-0.0000

> <Gold.Chemscore.Lipo.Weighted>
-6.0974

> <Gold.Chemscore.Internal_Hbond.Weighted>
0.0000

> <Gold.Chemscore.DEClash.Weighted>
0.2539

> <Gold.Chemscore.DEInternal.Weighted>
1.9854

> <Gold.Chemscore.Rot.Weighted>
3.9603

> <Gold.Chemscore.Internal.Correction.Weighted>
   9.000000E+99

> <Gold.Protein.RotatedTorsions>
[ 6907 6896 6895 6894 ] final   65.01 input  -60.11 | X-H torsion
[ 7974 7965 7964 7962 ] final -134.79 input  175.53 | X-H torsion
[ 8008 7997 7996 7995 ] final -151.22 input   59.86 | X-H torsion
[ 10167 10162 10161 10158 ] final   -6.72 input  -65.29 | X-H torsion
[ 10718 10713 10712 10709 ] final  118.81 input   66.30 | X-H torsion
[ 10763 10752 10751 10750 ] final  146.34 input  -60.55 | X-H torsion
[ 11005 11000 10999 10996 ] final  -87.78 input  -57.11 | X-H torsion

> <Gold.Protein.ActiveResidues>
 VAL166  LYS551  ARG553  GLY616  TRP617  ASP618  TYR619  PRO620  LYS621  CYS622 
 ASP623  PHE694  ASN695  SER759  ASP760  ASP761  ALA762  ILE779  LEU786  VAL792 
 PHE793  MET794  SER795  GLU796  ALA797  LYS798  CYS799  TRP800  GLU811  SER814 

> <Gold.Protein.RotatedAtoms>
  152.4375  134.5657  159.9906 H   0  0  0  0  0  0  0  0  0  0  0  0  # atno 6907 bound_to 6896
  151.5764  133.3377  159.3007 H   0  0  0  0  0  0  0  0  0  0  0  0  # atno 6908 bound_to 6896
  150.8275  134.7548  159.6890 H   0  0  0  0  0  0  0  0  0  0  0  0  # atno 6909 bound_to 6896
  144.9071  140.6847  143.5048 H   0  0  0  0  0  0  0  0  0  0  0  0  # atno 7974 bound_to 7965
  155.6359  140.0696  157.2634 H   0  0  0  0  0  0  0  0  0  0  0  0  # atno 8008 bound_to 7997
  154.4195  140.1759  156.1571 H   0  0  0  0  0  0  0  0  0  0  0  0  # atno 8009 bound_to 7997
  155.9895  140.3346  155.6742 H   0  0  0  0  0  0  0  0  0  0  0  0  # atno 8010 bound_to 7997
  140.7006  143.6162  150.8656 H   0  0  0  0  0  0  0  0  0  0  0  0  # atno 10167 bound_to 10162
  157.6005  131.1051  150.7808 H   0  0  0  0  0  0  0  0  0  0  0  0  # atno 10718 bound_to 10713
  154.0203  135.2906  155.3382 H   0  0  0  0  0  0  0  0  0  0  0  0  # atno 10763 bound_to 10752
  154.7050  135.5173  153.8585 H   0  0  0  0  0  0  0  0  0  0  0  0  # atno 10764 bound_to 10752
  153.0684  135.6639  154.0425 H   0  0  0  0  0  0  0  0  0  0  0  0  # atno 10765 bound_to 10752
  141.1612  133.7531  156.9357 H   0  0  0  0  0  0  0  0  0  0  0  0  # atno 11005 bound_to 11000
  145.3517  139.1704  143.4431 LP  0  0  0  0  0  0  0  0  0  0  0  0  # atno 17320 bound_to 7965
  146.3139  140.3569  142.8661 LP  0  0  0  0  0  0  0  0  0  0  0  0  # atno 17321 bound_to 7965
  139.9884  143.5874  152.2919 LP  0  0  0  0  0  0  0  0  0  0  0  0  # atno 17342 bound_to 10162
  139.6520  144.7661  151.2128 LP  0  0  0  0  0  0  0  0  0  0  0  0  # atno 17343 bound_to 10162
  156.8208  130.4983  149.5343 LP  0  0  0  0  0  0  0  0  0  0  0  0  # atno 17370 bound_to 10713
  156.1077  130.6017  150.9997 LP  0  0  0  0  0  0  0  0  0  0  0  0  # atno 17371 bound_to 10713
  140.1356  134.9327  157.2397 LP  0  0  0  0  0  0  0  0  0  0  0  0  # atno 17394 bound_to 11000
  140.2899  134.3252  155.7318 LP  0  0  0  0  0  0  0  0  0  0  0  0  # atno 17395 bound_to 11000

$$$$
