AV-unprocessed.smi:1435|AV-procd|sdf|5858|dock9
  -GOLD-   22720 5533D 1   1.00000     0.00000
 Structure written by MMmdl.
 44 45  0  0  0  0  0  0  0  0  2 V2000
  150.5465  136.8986  159.7390 O   0  0  0  0  0  0  0  0  0  0  0  0
  149.8199  137.5572  158.9947 C   0  0  0  0  0  0  0  0  0  0  0  0
  148.4074  137.0677  158.6710 C   0  0  0  0  0  0  0  0  0  0  0  0
  147.8544  136.1154  159.7459 C   0  0  0  0  0  0  0  0  0  0  0  0
  146.0169  136.2512  159.9017 S   0  0  0  0  0  0  0  0  0  0  0  0
  145.6376  137.6549  159.6801 O   0  0  0  0  0  0  0  0  0  0  0  0
  145.4066  135.2036  159.0682 O   0  0  0  0  0  0  0  0  0  0  0  0
  145.7450  135.8379  161.6893 C   0  0  0  0  0  0  0  0  0  0  0  0
  147.0418  135.3886  162.3751 C   0  0  0  0  0  0  0  0  0  0  0  0
  147.1324  133.8686  162.1716 C   0  0  0  0  0  0  0  0  0  0  0  0
  145.7458  133.4055  161.7008 C   0  0  0  0  0  0  0  0  0  0  0  0
  144.8271  134.6219  161.8392 C   0  0  0  0  0  0  0  0  0  0  0  0
  150.2043  138.7033  158.4132 N   0  0  0  0  0  0  0  0  0  0  0  0
  151.5342  139.2882  158.5258 C   0  0  0  0  0  0  0  0  0  0  0  0
  151.8482  140.1963  157.3250 C   0  0  0  0  0  0  0  0  0  0  0  0
  151.5918  141.6586  157.6309 C   0  0  0  0  0  0  0  0  0  0  0  0
  152.1997  142.2782  158.7449 C   0  0  0  0  0  0  0  0  0  0  0  0
  151.9442  143.6415  159.0019 C   0  0  0  0  0  0  0  0  0  0  0  0
  151.0864  144.3539  158.1387 C   0  0  0  0  0  0  0  0  0  0  0  0
  150.5235  143.7273  157.0823 N   0  3  0  0  0  0  0  0  0  0  0  0
  150.7429  142.4236  156.8022 C   0  0  0  0  0  0  0  0  0  0  0  0
  147.7629  137.9442  158.6009 H   0  0  0  0  0  0  0  0  0  0  0  0
  148.3804  136.5889  157.6911 H   0  0  0  0  0  0  0  0  0  0  0  0
  148.1159  135.0792  159.5314 H   0  0  0  0  0  0  0  0  0  0  0  0
  148.2871  136.3626  160.7150 H   0  0  0  0  0  0  0  0  0  0  0  0
  145.3157  136.7184  162.1677 H   0  0  0  0  0  0  0  0  0  0  0  0
  147.9255  135.9072  162.0042 H   0  0  0  0  0  0  0  0  0  0  0  0
  146.9717  135.6017  163.4425 H   0  0  0  0  0  0  0  0  0  0  0  0
  147.8855  133.6212  161.4224 H   0  0  0  0  0  0  0  0  0  0  0  0
  147.4229  133.3735  163.0988 H   0  0  0  0  0  0  0  0  0  0  0  0
  145.7973  133.0984  160.6556 H   0  0  0  0  0  0  0  0  0  0  0  0
  145.3790  132.5520  162.2718 H   0  0  0  0  0  0  0  0  0  0  0  0
  144.3849  134.6266  162.8362 H   0  0  0  0  0  0  0  0  0  0  0  0
  144.0072  134.6121  161.1204 H   0  0  0  0  0  0  0  0  0  0  0  0
  149.5424  139.1789  157.8167 H   0  0  0  0  0  0  0  0  0  0  0  0
  151.5753  139.8643  159.4506 H   0  0  0  0  0  0  0  0  0  0  0  0
  152.2821  138.4984  158.6167 H   0  0  0  0  0  0  0  0  0  0  0  0
  152.8903  140.0804  157.0236 H   0  0  0  0  0  0  0  0  0  0  0  0
  151.2475  139.9001  156.4639 H   0  0  0  0  0  0  0  0  0  0  0  0
  152.8551  141.7170  159.3952 H   0  0  0  0  0  0  0  0  0  0  0  0
  152.4000  144.1331  159.8490 H   0  0  0  0  0  0  0  0  0  0  0  0
  150.8361  145.3977  158.2598 H   0  0  0  0  0  0  0  0  0  0  0  0
  150.2370  142.0353  155.9298 H   0  0  0  0  0  0  0  0  0  0  0  0
  149.9064  144.2615  156.4700 H   0  0  0  0  0  0  0  0  0  0  0  0
  1  2  2  0  0  0  0
  2  3  1  0  0  0  0
  2 13  1  0  0  0  0
  3  4  1  0  0  0  0
  3 22  1  0  0  0  0
  3 23  1  0  0  0  0
  4  5  1  0  0  0  0
  4 24  1  0  0  0  0
  4 25  1  0  0  0  0
  5  6  2  0  0  0  0
  5  7  2  0  0  0  0
  5  8  1  0  0  0  0
  8 12  1  0  0  0  0
  8  9  1  0  0  0  0
  8 26  1  0  0  0  0
  9 10  1  0  0  0  0
  9 27  1  0  0  0  0
  9 28  1  0  0  0  0
 10 11  1  0  0  0  0
 10 29  1  0  0  0  0
 10 30  1  0  0  0  0
 11 12  1  0  0  0  0
 11 31  1  0  0  0  0
 11 32  1  0  0  0  0
 12 33  1  0  0  0  0
 12 34  1  0  0  0  0
 13 14  1  0  0  0  0
 13 35  1  0  0  0  0
 14 15  1  0  0  0  0
 14 36  1  0  0  0  0
 14 37  1  0  0  0  0
 15 16  1  0  0  0  0
 15 38  1  0  0  0  0
 15 39  1  0  0  0  0
 16 21  1  0  0  0  0
 16 17  2  0  0  0  0
 17 18  1  0  0  0  0
 17 40  1  0  0  0  0
 18 19  2  0  0  0  0
 18 41  1  0  0  0  0
 19 20  1  0  0  0  0
 19 42  1  0  0  0  0
 20 21  2  0  0  0  0
 20 44  1  0  0  0  0
 21 43  1  0  0  0  0
M  CHG  1  20   1
M  END
> <s_m_source_file>
AV-unprocessed.smi

> <i_m_source_file_index>
1435

> <i_lp_mmshare_version>
43012

> <i_f3d_flags>
0

> <s_epik_input>
W0NIMl0xW0NIMl1bQ0gyXVtDSDJdW0NIXTFTKD1PKSg9TylbQ0gyXVtDSDJdQyg9TylbTkhdW0NIMl1bQ0gyXWMyW2NIXVtjSF1bY0hdbltjSF0y

> <s_epik_cmdline>
J2VwaWtfcHl0aG9uJywgJy1waCcsICc3LjAnLCAnLXRuJywgJzgnLCAnLW1hJywgJzIwMCcsICctbWV0YWxfYmluZGluZycsICctaW1hZScsICc8aW5maWxlLm1hZT4nLCAnLW9tYWUnLCAnPG91dGZpbGUubWFlPic=

> <r_epik_Ionization_Penalty>
2.2792

> <r_epik_Ionization_Penalty_Charging>
2.2792

> <r_epik_Ionization_Penalty_Neutral>
6.52611e-08

> <r_epik_State_Penalty>
2.42836

> <r_epik_Charging_Adjusted_Penalty>
4.70756

> <i_epik_Tot_Q>
1

> <i_epik_Tot_abs_Q>
1

> <r_epik_Metal_State_Penalty>
2.44099

> <b_epik_Metal_Only>
0

> <s_lp_Force_Field>
OPLS_2005

> <r_lp_Energy>
17.5712

> <b_lp_Chiralities_Consistent>
1

> <s_lp_Variant>
AV-unprocessed.smi:1435-2

> <Gold.Version>
5.8.1

> <Gold.Id.Protein>
6NUR|6NUR_protein|mol2

> <Gold.PLP.Fitness>
52.1404

> <Gold.PLP.PLP>
-43.2416

> <Gold.PLP.part.hbond>
-3.0000

> <Gold.PLP.part.metal>
0.0000

> <Gold.PLP.part.buried>
-5.4822

> <Gold.PLP.part.nonpolar>
-35.7044

> <Gold.PLP.part.repulsive>
0.1926

> <Gold.PLP.ligand.clash>
0.0000

> <Gold.PLP.ligand.torsion>
1.6381

> <Gold.PLP.Chemscore.Hbond>
3.9600

> <Gold.PLP.Chemscore.CHOScore>
0.0000

> <Gold.PLP.Chemscore.Metal>
0.0000

> <Gold.Chemscore.Hbonds>
donor molecule, donor type, donor heavy atom, donor atom, acceptor molecule, acceptor atom, score
      L1  H    20    44       P1  8028  1.14
      P1  H  6896  6908       L1     1  1.00
      P1  H  6934  6947       L1     6  0.10

> <Gold.PLP.Chemscore.Internal.Correction>
0.2948

> <Gold.Rescore>
     Score         DG    S(hbond)    S(metal)    S(lipo)     H(rot)  DE(clash)    DE(int)     intcor
     21.42     -22.78       2.93        0.00     111.03       2.14       0.08       1.28       ----

> <Gold.Chemscore.Fitness>
21.4202

> <Gold.Chemscore.DG>
-22.7752

> <Gold.Chemscore.ZeroCoef>
-5.4800

> <Gold.Chemscore.Hbond>
2.9295

> <Gold.Chemscore.Metal>
0.0000

> <Gold.Chemscore.Lipo>
111.0349

> <Gold.Chemscore.Internal_Hbond>
0.0000

> <Gold.Chemscore.DEClash>
0.0750

> <Gold.Chemscore.DEInternal>
1.2800

> <Gold.Chemscore.Rot>
2.1408

> <Gold.Chemscore.Internal.Correction>
   9.000000E+99

> <Gold.Chemscore.Hbonds>
donor molecule, donor type, donor heavy atom, donor atom, acceptor molecule, acceptor atom, score
      L1  H    20    44       P1  8028  0.58
      P1  H  6896  6908       L1     1  0.98
      P1  H  6934  6947       L1     6  0.09

> <Gold.Chemscore.Hbond.Weighted>
-9.7846

> <Gold.Chemscore.Metal.Weighted>
-0.0000

> <Gold.Chemscore.Lipo.Weighted>
-12.9911

> <Gold.Chemscore.Internal_Hbond.Weighted>
0.0000

> <Gold.Chemscore.DEClash.Weighted>
0.0750

> <Gold.Chemscore.DEInternal.Weighted>
1.2800

> <Gold.Chemscore.Rot.Weighted>
5.4805

> <Gold.Chemscore.Internal.Correction.Weighted>
   9.000000E+99

> <Gold.Protein.RotatedTorsions>
[ 6907 6896 6895 6894 ] final -160.13 input  -60.11 | X-H torsion
[ 7974 7965 7964 7962 ] final  135.99 input  175.53 | X-H torsion
[ 8008 7997 7996 7995 ] final -120.38 input   59.86 | X-H torsion
[ 10167 10162 10161 10158 ] final -109.28 input  -65.29 | X-H torsion
[ 10718 10713 10712 10709 ] final -164.73 input   66.30 | X-H torsion
[ 10763 10752 10751 10750 ] final  -78.27 input  -60.55 | X-H torsion
[ 11005 11000 10999 10996 ] final  160.40 input  -57.11 | X-H torsion

> <Gold.Protein.ActiveResidues>
 VAL166  LYS551  ARG553  GLY616  TRP617  ASP618  TYR619  PRO620  LYS621  CYS622 
 ASP623  PHE694  ASN695  SER759  ASP760  ASP761  ALA762  ILE779  LEU786  VAL792 
 PHE793  MET794  SER795  GLU796  ALA797  LYS798  CYS799  TRP800  GLU811  SER814 

> <Gold.Protein.RotatedAtoms>
  151.3442  133.3950  159.2673 H   0  0  0  0  0  0  0  0  0  0  0  0  # atno 6907 bound_to 6896
  150.9853  134.9200  159.7878 H   0  0  0  0  0  0  0  0  0  0  0  0  # atno 6908 bound_to 6896
  152.5230  134.3407  159.9268 H   0  0  0  0  0  0  0  0  0  0  0  0  # atno 6909 bound_to 6896
  144.9609  139.4711  143.5480 H   0  0  0  0  0  0  0  0  0  0  0  0  # atno 7974 bound_to 7965
  155.1309  140.0400  157.2774 H   0  0  0  0  0  0  0  0  0  0  0  0  # atno 8008 bound_to 7997
  154.6543  140.2576  155.7153 H   0  0  0  0  0  0  0  0  0  0  0  0  # atno 8009 bound_to 7997
  156.2591  140.2830  156.0990 H   0  0  0  0  0  0  0  0  0  0  0  0  # atno 8010 bound_to 7997
  140.1570  143.4152  152.1453 H   0  0  0  0  0  0  0  0  0  0  0  0  # atno 10167 bound_to 10162
  156.6432  130.8977  151.3000 H   0  0  0  0  0  0  0  0  0  0  0  0  # atno 10718 bound_to 10713
  154.5237  135.5736  153.6701 H   0  0  0  0  0  0  0  0  0  0  0  0  # atno 10763 bound_to 10752
  152.9923  135.6188  154.2721 H   0  0  0  0  0  0  0  0  0  0  0  0  # atno 10764 bound_to 10752
  154.2643  135.2855  155.2744 H   0  0  0  0  0  0  0  0  0  0  0  0  # atno 10765 bound_to 10752
  140.2055  134.8306  157.3065 H   0  0  0  0  0  0  0  0  0  0  0  0  # atno 11005 bound_to 11000
  146.3353  139.8758  142.8832 LP  0  0  0  0  0  0  0  0  0  0  0  0  # atno 17320 bound_to 7965
  145.2701  141.0106  143.3776 LP  0  0  0  0  0  0  0  0  0  0  0  0  # atno 17321 bound_to 7965
  139.5399  144.7246  151.4769 LP  0  0  0  0  0  0  0  0  0  0  0  0  # atno 17342 bound_to 10162
  140.6667  143.8383  150.6950 LP  0  0  0  0  0  0  0  0  0  0  0  0  # atno 17343 bound_to 10162
  157.7164  130.9503  150.1273 LP  0  0  0  0  0  0  0  0  0  0  0  0  # atno 17370 bound_to 10713
  156.2143  130.3669  149.8633 LP  0  0  0  0  0  0  0  0  0  0  0  0  # atno 17371 bound_to 10713
  140.2007  134.4258  155.7664 LP  0  0  0  0  0  0  0  0  0  0  0  0  # atno 17394 bound_to 11000
  141.2227  133.7071  156.8179 LP  0  0  0  0  0  0  0  0  0  0  0  0  # atno 17395 bound_to 11000

$$$$
