AV-unprocessed.smi:1563|AV-procd|sdf|6291|dock8
  -GOLD-   22720 6493D 1   1.00000     0.00000
 Structure written by MMmdl.
 44 45  0  0  0  0  0  0  0  0  2 V2000
  147.3917  134.9224  162.3116 C   0  0  0  0  0  0  0  0  0  0  0  0
  147.5804  136.0287  161.2796 C   0  0  0  0  0  0  0  0  0  0  0  0
  147.2494  137.1846  161.5447 O   0  0  0  0  0  0  0  0  0  0  0  0
  148.1140  135.6584  160.1054 N   0  0  0  0  0  0  0  0  0  0  0  0
  148.3849  136.5575  158.9891 C   0  0  2  0  0  0  0  0  0  0  0  0
  147.6150  136.1025  157.7313 C   0  0  0  0  0  0  0  0  0  0  0  0
  147.9957  136.9416  156.4946 C   0  0  0  0  0  0  0  0  0  0  0  0
  149.5251  137.0280  156.3339 C   0  0  0  0  0  0  0  0  0  0  0  0
  150.0983  137.5591  157.5812 N   0  0  0  0  0  0  0  0  0  0  0  0
  150.5559  138.8190  157.7838 C   0  0  0  0  0  0  0  0  0  0  0  0
  150.6773  139.3196  158.9028 O   0  0  0  0  0  0  0  0  0  0  0  0
  150.7771  139.5228  156.6590 N   0  0  0  0  0  0  0  0  0  0  0  0
  151.0641  140.9547  156.5985 C   0  0  0  0  0  0  0  0  0  0  0  0
  150.1590  141.7746  157.5430 C   0  0  0  0  0  0  0  0  0  0  0  0
  150.9001  142.8337  158.3435 C   0  0  0  0  0  0  0  0  0  0  0  0
  151.9388  142.5060  159.2431 C   0  0  0  0  0  0  0  0  0  0  0  0
  152.6171  143.5412  159.9195 C   0  0  0  0  0  0  0  0  0  0  0  0
  152.2445  144.8803  159.6831 C   0  0  0  0  0  0  0  0  0  0  0  0
  151.1960  145.1505  158.7805 C   0  0  0  0  0  0  0  0  0  0  0  0
  150.5673  144.1313  158.1544 N   0  3  0  0  0  0  0  0  0  0  0  0
  149.8990  136.6269  158.6962 C   0  0  0  0  0  0  0  0  0  0  0  0
  148.3438  134.4371  162.5285 H   0  0  0  0  0  0  0  0  0  0  0  0
  146.6960  134.1699  161.9397 H   0  0  0  0  0  0  0  0  0  0  0  0
  146.9940  135.3247  163.2441 H   0  0  0  0  0  0  0  0  0  0  0  0
  148.3548  134.6859  159.9785 H   0  0  0  0  0  0  0  0  0  0  0  0
  148.0348  137.5586  159.2460 H   0  0  0  0  0  0  0  0  0  0  0  0
  147.8412  135.0546  157.5282 H   0  0  0  0  0  0  0  0  0  0  0  0
  146.5395  136.1581  157.9037 H   0  0  0  0  0  0  0  0  0  0  0  0
  147.5464  136.5118  155.5990 H   0  0  0  0  0  0  0  0  0  0  0  0
  147.5843  137.9467  156.5953 H   0  0  0  0  0  0  0  0  0  0  0  0
  149.9346  136.0343  156.1466 H   0  0  0  0  0  0  0  0  0  0  0  0
  149.7838  137.6146  155.4521 H   0  0  0  0  0  0  0  0  0  0  0  0
  150.6560  139.0463  155.7769 H   0  0  0  0  0  0  0  0  0  0  0  0
  152.1133  141.1415  156.8330 H   0  0  0  0  0  0  0  0  0  0  0  0
  150.9219  141.2913  155.5716 H   0  0  0  0  0  0  0  0  0  0  0  0
  149.3672  142.2556  156.9675 H   0  0  0  0  0  0  0  0  0  0  0  0
  149.6582  141.0995  158.2381 H   0  0  0  0  0  0  0  0  0  0  0  0
  152.2243  141.4764  159.4023 H   0  0  0  0  0  0  0  0  0  0  0  0
  153.4210  143.3114  160.6036 H   0  0  0  0  0  0  0  0  0  0  0  0
  152.7590  145.6884  160.1824 H   0  0  0  0  0  0  0  0  0  0  0  0
  150.8490  146.1439  158.5361 H   0  0  0  0  0  0  0  0  0  0  0  0
  150.4464  136.9219  159.5928 H   0  0  0  0  0  0  0  0  0  0  0  0
  150.2833  135.6420  158.4260 H   0  0  0  0  0  0  0  0  0  0  0  0
  149.8210  144.3522  157.4947 H   0  0  0  0  0  0  0  0  0  0  0  0
  1  2  1  0  0  0  0
  1 22  1  0  0  0  0
  1 23  1  0  0  0  0
  1 24  1  0  0  0  0
  2  3  2  0  0  0  0
  2  4  1  0  0  0  0
  4  5  1  0  0  0  0
  4 25  1  0  0  0  0
  5 21  1  0  0  0  0
  5  6  1  0  0  0  0
  5 26  1  0  0  0  0
  6  7  1  0  0  0  0
  6 27  1  0  0  0  0
  6 28  1  0  0  0  0
  7  8  1  0  0  0  0
  7 29  1  0  0  0  0
  7 30  1  0  0  0  0
  8  9  1  0  0  0  0
  8 31  1  0  0  0  0
  8 32  1  0  0  0  0
  9 10  1  0  0  0  0
  9 21  1  0  0  0  0
 10 11  2  0  0  0  0
 10 12  1  0  0  0  0
 12 13  1  0  0  0  0
 12 33  1  0  0  0  0
 13 14  1  0  0  0  0
 13 34  1  0  0  0  0
 13 35  1  0  0  0  0
 14 15  1  0  0  0  0
 14 36  1  0  0  0  0
 14 37  1  0  0  0  0
 15 20  1  0  0  0  0
 15 16  2  0  0  0  0
 16 17  1  0  0  0  0
 16 38  1  0  0  0  0
 17 18  2  0  0  0  0
 17 39  1  0  0  0  0
 18 19  1  0  0  0  0
 18 40  1  0  0  0  0
 19 20  2  0  0  0  0
 19 41  1  0  0  0  0
 20 44  1  0  0  0  0
 21 42  1  0  0  0  0
 21 43  1  0  0  0  0
M  CHG  1  20   1
M  END
> <s_m_source_file>
AV-unprocessed.smi

> <i_m_source_file_index>
1563

> <i_lp_mmshare_version>
43012

> <i_f3d_flags>
0

> <s_epik_input>
W0NIM11DKD1PKVtOSF1bQ0BASF0xW0NIMl1bQ0gyXVtDSDJdTihbQ0gyXTEpQyg9TylbTkhdW0NIMl1bQ0gyXWMyW2NIXVtjSF1bY0hdW2NIXW4y

> <s_epik_cmdline>
J2VwaWtfcHl0aG9uJywgJy1waCcsICc3LjAnLCAnLXRuJywgJzgnLCAnLW1hJywgJzIwMCcsICctbWV0YWxfYmluZGluZycsICctaW1hZScsICc8aW5maWxlLm1hZT4nLCAnLW9tYWUnLCAnPG91dGZpbGUubWFlPic=

> <r_epik_Ionization_Penalty>
1.56048

> <r_epik_Ionization_Penalty_Charging>
1.56043

> <r_epik_Ionization_Penalty_Neutral>
4.90601e-05

> <r_epik_State_Penalty>
1.65539

> <r_epik_Charging_Adjusted_Penalty>
3.21583

> <i_epik_Tot_Q>
1

> <i_epik_Tot_abs_Q>
1

> <r_epik_Metal_State_Penalty>
1.6969

> <b_epik_Metal_Only>
0

> <s_lp_Force_Field>
OPLS_2005

> <r_lp_Energy>
29.9669

> <b_lp_Chiralities_Consistent>
1

> <s_lp_Variant>
AV-unprocessed.smi:1563-3

> <Gold.Version>
5.8.1

> <Gold.Id.Protein>
6NUR|6NUR_protein|mol2

> <Gold.PLP.Fitness>
46.4852

> <Gold.PLP.PLP>
-36.1722

> <Gold.PLP.part.hbond>
-3.3699

> <Gold.PLP.part.metal>
0.0000

> <Gold.PLP.part.buried>
-4.9666

> <Gold.PLP.part.nonpolar>
-27.6686

> <Gold.PLP.part.repulsive>
0.2531

> <Gold.PLP.ligand.clash>
0.0000

> <Gold.PLP.ligand.torsion>
0.5262

> <Gold.PLP.Chemscore.Hbond>
3.7600

> <Gold.PLP.Chemscore.CHOScore>
0.0000

> <Gold.PLP.Chemscore.Metal>
0.0000

> <Gold.Chemscore.Hbonds>
donor molecule, donor type, donor heavy atom, donor atom, acceptor molecule, acceptor atom, score
      L1  H    20    44       P1  8028  1.76
      P1  H  6931  6943       L1     3  0.71
      P1  H  6934  6947       L1     3  0.94

> <Gold.PLP.Chemscore.Internal.Correction>
0.0854

> <Gold.Rescore>
     Score         DG    S(hbond)    S(metal)    S(lipo)     H(rot)  DE(clash)    DE(int)     intcor
     17.69     -19.70       2.54        0.00      87.63       1.77       0.02       1.98       ----

> <Gold.Chemscore.Fitness>
17.6950

> <Gold.Chemscore.DG>
-19.6969

> <Gold.Chemscore.ZeroCoef>
-5.4800

> <Gold.Chemscore.Hbond>
2.5406

> <Gold.Chemscore.Metal>
0.0000

> <Gold.Chemscore.Lipo>
87.6262

> <Gold.Chemscore.Internal_Hbond>
0.0000

> <Gold.Chemscore.DEClash>
0.0234

> <Gold.Chemscore.DEInternal>
1.9785

> <Gold.Chemscore.Rot>
1.7661

> <Gold.Chemscore.Internal.Correction>
   9.000000E+99

> <Gold.Chemscore.Hbonds>
donor molecule, donor type, donor heavy atom, donor atom, acceptor molecule, acceptor atom, score
      L1  H    20    44       P1  8028  0.19
      P1  H  6931  6943       L1     3  0.42
      P1  H  6934  6947       L1     3  0.90

> <Gold.Chemscore.Hbond.Weighted>
-8.4857

> <Gold.Chemscore.Metal.Weighted>
-0.0000

> <Gold.Chemscore.Lipo.Weighted>
-10.2523

> <Gold.Chemscore.Internal_Hbond.Weighted>
0.0000

> <Gold.Chemscore.DEClash.Weighted>
0.0234

> <Gold.Chemscore.DEInternal.Weighted>
1.9785

> <Gold.Chemscore.Rot.Weighted>
4.5211

> <Gold.Chemscore.Internal.Correction.Weighted>
   9.000000E+99

> <Gold.Protein.RotatedTorsions>
[ 6907 6896 6895 6894 ] final   30.96 input  -60.11 | X-H torsion
[ 7974 7965 7964 7962 ] final   89.88 input  175.53 | X-H torsion
[ 8008 7997 7996 7995 ] final  153.76 input   59.86 | X-H torsion
[ 10167 10162 10161 10158 ] final  -53.08 input  -65.29 | X-H torsion
[ 10718 10713 10712 10709 ] final  -59.65 input   66.30 | X-H torsion
[ 10763 10752 10751 10750 ] final  158.03 input  -60.55 | X-H torsion
[ 11005 11000 10999 10996 ] final   22.90 input  -57.11 | X-H torsion

> <Gold.Protein.ActiveResidues>
 VAL166  LYS551  ARG553  GLY616  TRP617  ASP618  TYR619  PRO620  LYS621  CYS622 
 ASP623  PHE694  ASN695  SER759  ASP760  ASP761  ALA762  ILE779  LEU786  VAL792 
 PHE793  MET794  SER795  GLU796  ALA797  LYS798  CYS799  TRP800  GLU811  SER814 

> <Gold.Protein.RotatedAtoms>
  152.0534  134.9639  160.0574 H   0  0  0  0  0  0  0  0  0  0  0  0  # atno 6907 bound_to 6896
  152.1031  133.4255  159.4604 H   0  0  0  0  0  0  0  0  0  0  0  0  # atno 6908 bound_to 6896
  150.6840  134.2656  159.4610 H   0  0  0  0  0  0  0  0  0  0  0  0  # atno 6909 bound_to 6896
  145.5265  139.2281  143.2642 H   0  0  0  0  0  0  0  0  0  0  0  0  # atno 7974 bound_to 7965
  156.2565  140.1985  156.6540 H   0  0  0  0  0  0  0  0  0  0  0  0  # atno 8008 bound_to 7997
  154.6515  140.0571  156.9985 H   0  0  0  0  0  0  0  0  0  0  0  0  # atno 8009 bound_to 7997
  155.1411  140.3242  155.4454 H   0  0  0  0  0  0  0  0  0  0  0  0  # atno 8010 bound_to 7997
  140.6504  143.2562  151.4740 H   0  0  0  0  0  0  0  0  0  0  0  0  # atno 10167 bound_to 10162
  156.1046  130.4182  150.0744 H   0  0  0  0  0  0  0  0  0  0  0  0  # atno 10718 bound_to 10713
  154.2097  135.2786  155.2963 H   0  0  0  0  0  0  0  0  0  0  0  0  # atno 10763 bound_to 10752
  154.5789  135.5595  153.7169 H   0  0  0  0  0  0  0  0  0  0  0  0  # atno 10764 bound_to 10752
  153.0067  135.6340  154.2236 H   0  0  0  0  0  0  0  0  0  0  0  0  # atno 10765 bound_to 10752
  140.3755  134.1977  155.7665 H   0  0  0  0  0  0  0  0  0  0  0  0  # atno 11005 bound_to 11000
  146.2072  140.6079  142.9076 LP  0  0  0  0  0  0  0  0  0  0  0  0  # atno 17320 bound_to 7965
  144.7648  140.5506  143.6710 LP  0  0  0  0  0  0  0  0  0  0  0  0  # atno 17321 bound_to 7965
  139.5718  144.1910  152.1847 LP  0  0  0  0  0  0  0  0  0  0  0  0  # atno 17342 bound_to 10162
  140.1209  144.5374  150.6863 LP  0  0  0  0  0  0  0  0  0  0  0  0  # atno 17343 bound_to 10162
  156.8723  130.9528  151.3608 LP  0  0  0  0  0  0  0  0  0  0  0  0  # atno 17370 bound_to 10713
  157.6221  130.8663  149.9127 LP  0  0  0  0  0  0  0  0  0  0  0  0  # atno 17371 bound_to 10713
  141.1941  133.8137  157.0773 LP  0  0  0  0  0  0  0  0  0  0  0  0  # atno 17394 bound_to 11000
  140.0519  134.9801  157.1151 LP  0  0  0  0  0  0  0  0  0  0  0  0  # atno 17395 bound_to 11000

$$$$
