AV-unprocessed.smi:3321|AV-procd|sdf|12771|dock9
  -GOLD-   2272019113D 1   1.00000     0.00000
 Structure written by MMmdl.
 40 41  0  0  0  0  0  0  0  0  1 V2000
  150.5713  138.8203  153.8964 C   0  0  0  0  0  0  0  0  0  0  0  0
  150.1437  140.1231  154.5901 C   0  0  2  0  0  0  0  0  0  0  0  0
  151.2726  140.6547  155.3771 N   0  0  0  0  0  0  0  0  0  0  0  0
  150.9085  141.7740  156.2395 C   0  0  0  0  0  0  0  0  0  0  0  0
  151.3604  141.4788  157.6762 C   0  0  0  0  0  0  0  0  0  0  0  0
  151.6112  142.7011  158.4148 N   0  0  0  0  0  0  0  0  0  0  0  0
  151.3925  144.0031  158.0167 C   0  0  0  0  0  0  0  0  0  0  0  0
  151.7892  144.8130  159.0420 C   0  0  0  0  0  0  0  0  0  0  0  0
  152.2432  143.9016  160.0364 C   0  0  0  0  0  0  0  0  0  0  0  0
  152.1362  142.6381  159.6576 N   0  0  0  0  0  0  0  0  0  0  0  0
  148.8675  139.8795  155.4305 C   0  0  0  0  0  0  0  0  0  0  0  0
  148.9826  139.2574  156.4887 O   0  0  0  0  0  0  0  0  0  0  0  0
  147.6675  140.3488  155.0040 N   0  0  0  0  0  0  0  0  0  0  0  0
  146.4642  140.3098  155.8458 C   0  0  0  0  0  0  0  0  0  0  0  0
  146.1471  141.7460  156.3052 C   0  0  0  0  0  0  0  0  0  0  0  0
  145.9936  142.6952  155.0993 C   0  0  0  0  0  0  0  0  0  0  0  0
  147.1664  142.5610  154.1073 C   0  0  0  0  0  0  0  0  0  0  0  0
  147.4110  141.0824  153.7575 C   0  0  0  0  0  0  0  0  0  0  0  0
  149.7729  138.4187  153.2712 H   0  0  0  0  0  0  0  0  0  0  0  0
  150.8424  138.0517  154.6217 H   0  0  0  0  0  0  0  0  0  0  0  0
  151.4353  138.9861  153.2522 H   0  0  0  0  0  0  0  0  0  0  0  0
  149.9421  140.8680  153.8221 H   0  0  0  0  0  0  0  0  0  0  0  0
  151.7206  139.9299  155.9197 H   0  0  0  0  0  0  0  0  0  0  0  0
  151.3846  142.6869  155.8783 H   0  0  0  0  0  0  0  0  0  0  0  0
  149.8313  141.9414  156.2267 H   0  0  0  0  0  0  0  0  0  0  0  0
  150.5977  140.9063  158.2063 H   0  0  0  0  0  0  0  0  0  0  0  0
  152.2696  140.8751  157.6790 H   0  0  0  0  0  0  0  0  0  0  0  0
  150.9791  144.2419  157.0476 H   0  0  0  0  0  0  0  0  0  0  0  0
  151.7608  145.8920  159.0763 H   0  0  0  0  0  0  0  0  0  0  0  0
  152.6453  144.1190  161.0151 H   0  0  0  0  0  0  0  0  0  0  0  0
  145.6291  139.9033  155.2736 H   0  0  0  0  0  0  0  0  0  0  0  0
  146.5704  139.6583  156.7141 H   0  0  0  0  0  0  0  0  0  0  0  0
  145.2382  141.7566  156.9074 H   0  0  0  0  0  0  0  0  0  0  0  0
  146.9502  142.1046  156.9508 H   0  0  0  0  0  0  0  0  0  0  0  0
  145.0632  142.4599  154.5809 H   0  0  0  0  0  0  0  0  0  0  0  0
  145.9031  143.7270  155.4398 H   0  0  0  0  0  0  0  0  0  0  0  0
  146.9578  143.1333  153.2030 H   0  0  0  0  0  0  0  0  0  0  0  0
  148.0703  142.9878  154.5445 H   0  0  0  0  0  0  0  0  0  0  0  0
  148.1979  140.9824  153.0129 H   0  0  0  0  0  0  0  0  0  0  0  0
  146.5240  140.6686  153.2757 H   0  0  0  0  0  0  0  0  0  0  0  0
  1  2  1  0  0  0  0
  1 19  1  0  0  0  0
  1 20  1  0  0  0  0
  1 21  1  0  0  0  0
  2  3  1  0  0  0  0
  2 11  1  0  0  0  0
  2 22  1  0  0  0  0
  3  4  1  0  0  0  0
  3 23  1  0  0  0  0
  4  5  1  0  0  0  0
  4 24  1  0  0  0  0
  4 25  1  0  0  0  0
  5  6  1  0  0  0  0
  5 26  1  0  0  0  0
  5 27  1  0  0  0  0
  6 10  1  0  0  0  0
  6  7  1  0  0  0  0
  7  8  2  0  0  0  0
  7 28  1  0  0  0  0
  8  9  1  0  0  0  0
  8 29  1  0  0  0  0
  9 10  2  0  0  0  0
  9 30  1  0  0  0  0
 11 12  2  0  0  0  0
 11 13  1  0  0  0  0
 13 18  1  0  0  0  0
 13 14  1  0  0  0  0
 14 15  1  0  0  0  0
 14 31  1  0  0  0  0
 14 32  1  0  0  0  0
 15 16  1  0  0  0  0
 15 33  1  0  0  0  0
 15 34  1  0  0  0  0
 16 17  1  0  0  0  0
 16 35  1  0  0  0  0
 16 36  1  0  0  0  0
 17 18  1  0  0  0  0
 17 37  1  0  0  0  0
 17 38  1  0  0  0  0
 18 39  1  0  0  0  0
 18 40  1  0  0  0  0
M  END
> <s_m_source_file>
AV-unprocessed.smi

> <i_m_source_file_index>
3321

> <i_lp_mmshare_version>
43012

> <i_f3d_flags>
0

> <s_epik_input>
W0NIMl0xW0NIMl1bQ0gyXVtDSDJdW0NIMl1OMUMoPU8pW0NASF0oW0NIM10pW05IXVtDSDJdW0NIMl1uMltjSF1bY0hdW2NIXW4y

> <s_epik_cmdline>
J2VwaWtfcHl0aG9uJywgJy1waCcsICc3LjAnLCAnLXRuJywgJzgnLCAnLW1hJywgJzIwMCcsICctbWV0YWxfYmluZGluZycsICctaW1hZScsICc8aW5maWxlLm1hZT4nLCAnLW9tYWUnLCAnPG91dGZpbGUubWFlPic=

> <r_lp_tautomer_probability>
1

> <r_epik_Ionization_Penalty>
0.736446

> <r_epik_Ionization_Penalty_Charging>
0

> <r_epik_Ionization_Penalty_Neutral>
0.736446

> <r_epik_State_Penalty>
0.761204

> <r_epik_Charging_Adjusted_Penalty>
0.761204

> <i_epik_Tot_Q>
0

> <i_epik_Tot_abs_Q>
0

> <r_epik_Metal_State_Penalty>
0.760551

> <b_epik_Metal_Only>
0

> <s_lp_Force_Field>
OPLS_2005

> <r_lp_Energy>
27.234

> <b_lp_Chiralities_Consistent>
1

> <s_lp_Variant>
AV-unprocessed.smi:3321-3

> <Gold.Version>
5.8.1

> <Gold.Id.Protein>
6NUR|6NUR_protein|mol2

> <Gold.PLP.Fitness>
39.2673

> <Gold.PLP.PLP>
-38.0165

> <Gold.PLP.part.hbond>
-1.0000

> <Gold.PLP.part.metal>
0.0000

> <Gold.PLP.part.buried>
-5.1614

> <Gold.PLP.part.nonpolar>
-31.0600

> <Gold.PLP.part.repulsive>
0.0000

> <Gold.PLP.ligand.clash>
0.0000

> <Gold.PLP.ligand.torsion>
0.9064

> <Gold.PLP.Chemscore.Hbond>
0.0000

> <Gold.PLP.Chemscore.CHOScore>
1.0000

> <Gold.PLP.Chemscore.Metal>
0.0000

> <Gold.Chemscore.Hbonds>
donor molecule, donor type, donor heavy atom, donor atom, acceptor molecule, acceptor atom, score
      L1  C     7    28       P1  8028  1.00

> <Gold.PLP.Chemscore.Internal.Correction>
0.0636

> <Gold.Rescore>
     Score         DG    S(hbond)    S(metal)    S(lipo)     H(rot)  DE(clash)    DE(int)     intcor
     11.02     -11.87       0.00        0.00      92.40       1.73       0.04       0.81       ----

> <Gold.Chemscore.Fitness>
11.0174

> <Gold.Chemscore.DG>
-11.8698

> <Gold.Chemscore.ZeroCoef>
-5.4800

> <Gold.Chemscore.Hbond>
0.0004

> <Gold.Chemscore.Metal>
0.0000

> <Gold.Chemscore.Lipo>
92.4045

> <Gold.Chemscore.Internal_Hbond>
0.0000

> <Gold.Chemscore.DEClash>
0.0388

> <Gold.Chemscore.DEInternal>
0.8135

> <Gold.Chemscore.Rot>
1.7277

> <Gold.Chemscore.Internal.Correction>
   9.000000E+99

> <Gold.Chemscore.Hbond.Weighted>
-0.0012

> <Gold.Chemscore.Metal.Weighted>
-0.0000

> <Gold.Chemscore.Lipo.Weighted>
-10.8113

> <Gold.Chemscore.Internal_Hbond.Weighted>
0.0000

> <Gold.Chemscore.DEClash.Weighted>
0.0388

> <Gold.Chemscore.DEInternal.Weighted>
0.8135

> <Gold.Chemscore.Rot.Weighted>
4.4228

> <Gold.Chemscore.Internal.Correction.Weighted>
   9.000000E+99

> <Gold.Protein.RotatedTorsions>
[ 6907 6896 6895 6894 ] final -122.06 input  -60.11 | X-H torsion
[ 7974 7965 7964 7962 ] final -164.56 input  175.53 | X-H torsion
[ 8008 7997 7996 7995 ] final  -95.13 input   59.86 | X-H torsion
[ 10167 10162 10161 10158 ] final   -2.93 input  -65.29 | X-H torsion
[ 10718 10713 10712 10709 ] final  179.81 input   66.30 | X-H torsion
[ 10763 10752 10751 10750 ] final  -22.38 input  -60.55 | X-H torsion
[ 11005 11000 10999 10996 ] final  166.29 input  -57.11 | X-H torsion

> <Gold.Protein.ActiveResidues>
 VAL166  LYS551  ARG553  GLY616  TRP617  ASP618  TYR619  PRO620  LYS621  CYS622 
 ASP623  PHE694  ASN695  SER759  ASP760  ASP761  ALA762  ILE779  LEU786  VAL792 
 PHE793  MET794  SER795  GLU796  ALA797  LYS798  CYS799  TRP800  GLU811  SER814 

> <Gold.Protein.RotatedAtoms>
  150.8540  133.7743  159.3015 H   0  0  0  0  0  0  0  0  0  0  0  0  # atno 6907 bound_to 6896
  151.5406  135.1067  159.9935 H   0  0  0  0  0  0  0  0  0  0  0  0  # atno 6908 bound_to 6896
  152.4575  133.7710  159.6855 H   0  0  0  0  0  0  0  0  0  0  0  0  # atno 6909 bound_to 6896
  144.7293  140.2943  143.6215 H   0  0  0  0  0  0  0  0  0  0  0  0  # atno 7974 bound_to 7965
  154.7573  140.0483  157.0944 H   0  0  0  0  0  0  0  0  0  0  0  0  # atno 8008 bound_to 7997
  154.9981  140.3121  155.4859 H   0  0  0  0  0  0  0  0  0  0  0  0  # atno 8009 bound_to 7997
  156.2897  140.2206  156.5090 H   0  0  0  0  0  0  0  0  0  0  0  0  # atno 8010 bound_to 7997
  140.6870  143.6600  150.8275 H   0  0  0  0  0  0  0  0  0  0  0  0  # atno 10167 bound_to 10162
  156.8703  130.9781  151.3074 H   0  0  0  0  0  0  0  0  0  0  0  0  # atno 10718 bound_to 10713
  153.6510  135.6981  153.5209 H   0  0  0  0  0  0  0  0  0  0  0  0  # atno 10763 bound_to 10752
  153.2707  135.4216  155.0984 H   0  0  0  0  0  0  0  0  0  0  0  0  # atno 10764 bound_to 10752
  154.8476  135.3577  154.6054 H   0  0  0  0  0  0  0  0  0  0  0  0  # atno 10765 bound_to 10752
  140.2649  134.7873  157.3623 H   0  0  0  0  0  0  0  0  0  0  0  0  # atno 11005 bound_to 11000
  145.7824  139.1896  143.2150 LP  0  0  0  0  0  0  0  0  0  0  0  0  # atno 17320 bound_to 7965
  146.0823  140.7750  142.9635 LP  0  0  0  0  0  0  0  0  0  0  0  0  # atno 17321 bound_to 7965
  140.0308  143.5446  152.2761 LP  0  0  0  0  0  0  0  0  0  0  0  0  # atno 17342 bound_to 10162
  139.6238  144.7633  151.2683 LP  0  0  0  0  0  0  0  0  0  0  0  0  # atno 17343 bound_to 10162
  157.6199  130.8647  149.9092 LP  0  0  0  0  0  0  0  0  0  0  0  0  # atno 17370 bound_to 10713
  156.0730  130.3682  150.0736 LP  0  0  0  0  0  0  0  0  0  0  0  0  # atno 17371 bound_to 10713
  140.1429  134.4949  155.8018 LP  0  0  0  0  0  0  0  0  0  0  0  0  # atno 17394 bound_to 11000
  141.2185  133.6832  156.7242 LP  0  0  0  0  0  0  0  0  0  0  0  0  # atno 17395 bound_to 11000

$$$$
