AV-unprocessed.smi:2876|AV-procd|sdf|11042|dock8
  -GOLD-   2272015513D 1   1.00000     0.00000
 Structure written by MMmdl.
 25 26  0  0  0  0  0  0  0  0  2 V2000
  152.7859  136.9562  156.4290 O   0  0  0  0  0  0  0  0  0  0  0  0
  152.9886  138.0607  156.9783 C   0  0  0  0  0  0  0  0  0  0  0  0
  153.9024  138.2077  157.8220 O   0  5  0  0  0  0  0  0  0  0  0  0
  152.1283  139.2558  156.6346 C   0  0  0  0  0  0  0  0  0  0  0  0
  152.2158  140.3138  157.4794 N   0  0  0  0  0  0  0  0  0  0  0  0
  151.4747  141.3938  157.2212 C   0  0  0  0  0  0  0  0  0  0  0  0
  151.5739  142.4604  158.0947 N   0  0  0  0  0  0  0  0  0  0  0  0
  152.4846  142.2941  159.2200 C   0  0  0  0  0  0  0  0  0  0  0  0
  152.2689  143.4150  160.2516 C   0  0  0  0  0  0  0  0  0  0  0  0
  152.4186  144.6828  159.6200 O   0  0  0  0  0  0  0  0  0  0  0  0
  151.4730  144.8702  158.5714 C   0  0  0  0  0  0  0  0  0  0  0  0
  151.6702  143.7862  157.4975 C   0  0  0  0  0  0  0  0  0  0  0  0
  150.6361  141.5514  156.1978 N   0  0  0  0  0  0  0  0  0  0  0  0
  150.5301  140.5153  155.3410 C   0  0  0  0  0  0  0  0  0  0  0  0
  151.2596  139.3198  155.5048 C   0  0  0  0  0  0  0  0  0  0  0  0
  151.0410  138.0562  154.3412 Cl  0  0  0  0  0  0  0  0  0  0  0  0
  152.3233  141.3207  159.6850 H   0  0  0  0  0  0  0  0  0  0  0  0
  153.5135  142.3106  158.8576 H   0  0  0  0  0  0  0  0  0  0  0  0
  151.2806  143.3385  160.7078 H   0  0  0  0  0  0  0  0  0  0  0  0
  152.9990  143.3310  161.0567 H   0  0  0  0  0  0  0  0  0  0  0  0
  150.4586  144.8401  158.9725 H   0  0  0  0  0  0  0  0  0  0  0  0
  151.6151  145.8601  158.1376 H   0  0  0  0  0  0  0  0  0  0  0  0
  152.6465  143.9002  157.0242 H   0  0  0  0  0  0  0  0  0  0  0  0
  150.9186  143.8935  156.7144 H   0  0  0  0  0  0  0  0  0  0  0  0
  149.8510  140.6426  154.5109 H   0  0  0  0  0  0  0  0  0  0  0  0
  1  2  2  0  0  0  0
  2  3  1  0  0  0  0
  2  4  1  0  0  0  0
  4 15  1  0  0  0  0
  4  5  2  0  0  0  0
  5  6  1  0  0  0  0
  6  7  1  0  0  0  0
  6 13  2  0  0  0  0
  7 12  1  0  0  0  0
  7  8  1  0  0  0  0
  8  9  1  0  0  0  0
  8 17  1  0  0  0  0
  8 18  1  0  0  0  0
  9 10  1  0  0  0  0
  9 19  1  0  0  0  0
  9 20  1  0  0  0  0
 10 11  1  0  0  0  0
 11 12  1  0  0  0  0
 11 21  1  0  0  0  0
 11 22  1  0  0  0  0
 12 23  1  0  0  0  0
 12 24  1  0  0  0  0
 13 14  1  0  0  0  0
 14 15  2  0  0  0  0
 14 25  1  0  0  0  0
 15 16  1  0  0  0  0
M  CHG  1   3  -1
M  END
> <s_m_source_file>
AV-unprocessed.smi

> <i_m_source_file_index>
2876

> <i_lp_mmshare_version>
43012

> <i_f3d_flags>
0

> <s_epik_input>
Tz1DKFtPSF0pYzFuYyhuW2NIXWMxQ2wpTjJbQ0gyXVtDSDJdT1tDSDJdW0NIMl0y

> <s_epik_cmdline>
J2VwaWtfcHl0aG9uJywgJy1waCcsICc3LjAnLCAnLXRuJywgJzgnLCAnLW1hJywgJzIwMCcsICctbWV0YWxfYmluZGluZycsICctaW1hZScsICc8aW5maWxlLm1hZT4nLCAnLW9tYWUnLCAnPG91dGZpbGUubWFlPic=

> <r_lp_tautomer_probability>
1

> <r_epik_Ionization_Penalty>
2.42258e-06

> <r_epik_Ionization_Penalty_Charging>
2.2596e-06

> <r_epik_Ionization_Penalty_Neutral>
1.62982e-07

> <r_epik_State_Penalty>
-0

> <r_epik_Charging_Adjusted_Penalty>
2.2596e-06

> <i_epik_Tot_Q>
-1

> <i_epik_Tot_abs_Q>
1

> <r_epik_Metal_State_Penalty>
-0

> <b_epik_Metal_Only>
0

> <s_lp_Force_Field>
OPLS_2005

> <r_lp_Energy>
19.4651

> <b_lp_Chiralities_Consistent>
1

> <s_lp_Variant>
AV-unprocessed.smi:2876-1

> <Gold.Version>
5.8.1

> <Gold.Id.Protein>
6NUR|6NUR_protein|mol2

> <Gold.PLP.Fitness>
41.1546

> <Gold.PLP.PLP>
-30.9348

> <Gold.PLP.part.hbond>
-2.5173

> <Gold.PLP.part.metal>
0.0000

> <Gold.PLP.part.buried>
-3.4967

> <Gold.PLP.part.nonpolar>
-25.2297

> <Gold.PLP.part.repulsive>
0.1421

> <Gold.PLP.ligand.clash>
0.0000

> <Gold.PLP.ligand.torsion>
0.2975

> <Gold.PLP.Chemscore.Hbond>
3.5200

> <Gold.PLP.Chemscore.CHOScore>
0.0000

> <Gold.PLP.Chemscore.Metal>
0.0000

> <Gold.Chemscore.Hbonds>
donor molecule, donor type, donor heavy atom, donor atom, acceptor molecule, acceptor atom, score
      P1  H  7997  8008       L1     3  1.68
      P1  H 10752 10765       L1     1  1.79

> <Gold.PLP.Chemscore.Internal.Correction>
0.2548

> <Gold.Rescore>
     Score         DG    S(hbond)    S(metal)    S(lipo)     H(rot)  DE(clash)    DE(int)     intcor
     15.30     -16.83       1.50        0.00      75.96       1.00       0.02       1.51       ----

> <Gold.Chemscore.Fitness>
15.3046

> <Gold.Chemscore.DG>
-16.8335

> <Gold.Chemscore.ZeroCoef>
-5.4800

> <Gold.Chemscore.Hbond>
1.5048

> <Gold.Chemscore.Metal>
0.0000

> <Gold.Chemscore.Lipo>
75.9614

> <Gold.Chemscore.Internal_Hbond>
0.0000

> <Gold.Chemscore.DEClash>
0.0234

> <Gold.Chemscore.DEInternal>
1.5054

> <Gold.Chemscore.Rot>
1.0000

> <Gold.Chemscore.Internal.Correction>
   9.000000E+99

> <Gold.Chemscore.Hbonds>
donor molecule, donor type, donor heavy atom, donor atom, acceptor molecule, acceptor atom, score
      P1  H  7997  8008       L1     3  0.20
      P1  H 10752 10765       L1     1  0.84

> <Gold.Chemscore.Hbond.Weighted>
-5.0260

> <Gold.Chemscore.Metal.Weighted>
-0.0000

> <Gold.Chemscore.Lipo.Weighted>
-8.8875

> <Gold.Chemscore.Internal_Hbond.Weighted>
0.0000

> <Gold.Chemscore.DEClash.Weighted>
0.0234

> <Gold.Chemscore.DEInternal.Weighted>
1.5054

> <Gold.Chemscore.Rot.Weighted>
2.5600

> <Gold.Chemscore.Internal.Correction.Weighted>
   9.000000E+99

> <Gold.Protein.RotatedTorsions>
[ 6907 6896 6895 6894 ] final  116.44 input  -60.11 | X-H torsion
[ 7974 7965 7964 7962 ] final   39.40 input  175.53 | X-H torsion
[ 8008 7997 7996 7995 ] final  -96.16 input   59.86 | X-H torsion
[ 10167 10162 10161 10158 ] final  164.71 input  -65.29 | X-H torsion
[ 10718 10713 10712 10709 ] final -100.41 input   66.30 | X-H torsion
[ 10763 10752 10751 10750 ] final -137.74 input  -60.55 | X-H torsion
[ 11005 11000 10999 10996 ] final  120.38 input  -57.11 | X-H torsion

> <Gold.Protein.ActiveResidues>
 VAL166  LYS551  ARG553  GLY616  TRP617  ASP618  TYR619  PRO620  LYS621  CYS622 
 ASP623  PHE694  ASN695  SER759  ASP760  ASP761  ALA762  ILE779  LEU786  VAL792 
 PHE793  MET794  SER795  GLU796  ALA797  LYS798  CYS799  TRP800  GLU811  SER814 

> <Gold.Protein.RotatedAtoms>
  152.4678  133.7961  159.6927 H   0  0  0  0  0  0  0  0  0  0  0  0  # atno 6907 bound_to 6896
  150.8651  133.7577  159.2986 H   0  0  0  0  0  0  0  0  0  0  0  0  # atno 6908 bound_to 6896
  151.5130  135.1068  159.9911 H   0  0  0  0  0  0  0  0  0  0  0  0  # atno 6909 bound_to 6896
  146.0987  139.5656  142.9428 H   0  0  0  0  0  0  0  0  0  0  0  0  # atno 7974 bound_to 7965
  154.7708  140.0474  157.1049 H   0  0  0  0  0  0  0  0  0  0  0  0  # atno 8008 bound_to 7997
  154.9823  140.3103  155.4921 H   0  0  0  0  0  0  0  0  0  0  0  0  # atno 8009 bound_to 7997
  156.2921  140.2233  156.4923 H   0  0  0  0  0  0  0  0  0  0  0  0  # atno 8010 bound_to 7997
  139.4893  144.4207  151.9190 H   0  0  0  0  0  0  0  0  0  0  0  0  # atno 10167 bound_to 10162
  156.0162  130.5326  150.6813 H   0  0  0  0  0  0  0  0  0  0  0  0  # atno 10718 bound_to 10713
  154.8654  135.3633  154.5272 H   0  0  0  0  0  0  0  0  0  0  0  0  # atno 10763 bound_to 10752
  153.5900  135.7016  153.5432 H   0  0  0  0  0  0  0  0  0  0  0  0  # atno 10764 bound_to 10752
  153.3382  135.4105  155.1512 H   0  0  0  0  0  0  0  0  0  0  0  0  # atno 10765 bound_to 10752
  139.9183  134.9634  156.7798 H   0  0  0  0  0  0  0  0  0  0  0  0  # atno 11005 bound_to 11000
  145.5897  141.0371  143.2077 LP  0  0  0  0  0  0  0  0  0  0  0  0  # atno 17320 bound_to 7965
  144.7415  139.7435  143.7309 LP  0  0  0  0  0  0  0  0  0  0  0  0  # atno 17321 bound_to 7965
  140.3651  144.2925  150.5928 LP  0  0  0  0  0  0  0  0  0  0  0  0  # atno 17342 bound_to 10162
  140.5368  143.2231  151.8149 LP  0  0  0  0  0  0  0  0  0  0  0  0  # atno 17343 bound_to 10162
  157.4515  131.0873  151.0841 LP  0  0  0  0  0  0  0  0  0  0  0  0  # atno 17370 bound_to 10713
  157.1355  130.6121  149.5541 LP  0  0  0  0  0  0  0  0  0  0  0  0  # atno 17371 bound_to 10713
  140.6553  133.9694  155.7776 LP  0  0  0  0  0  0  0  0  0  0  0  0  # atno 17394 bound_to 11000
  141.0680  134.0248  157.3566 LP  0  0  0  0  0  0  0  0  0  0  0  0  # atno 17395 bound_to 11000

$$$$
