AV-unprocessed.smi:1695|AV-procd|sdf|6793|dock9
  -GOLD-   22720 7553D 1   1.00000     0.00000
 Structure written by MMmdl.
 52 54  0  0  0  0  0  0  0  0  3 V2000
  152.6800  142.4345  162.0747 C   0  0  0  0  0  0  0  0  0  0  0  0
  152.2465  142.1280  160.6510 C   0  0  0  0  0  0  0  0  0  0  0  0
  152.6530  140.9056  160.0707 C   0  0  0  0  0  0  0  0  0  0  0  0
  152.2415  140.6539  158.7674 C   0  0  0  0  0  0  0  0  0  0  0  0
  152.4727  139.5590  157.9326 N   0  3  0  0  0  0  0  0  0  0  0  0
  151.8611  139.7640  156.7337 C   0  0  0  0  0  0  0  0  0  0  0  0
  151.2383  140.9729  156.7910 N   0  0  0  0  0  0  0  0  0  0  0  0
  150.4452  141.6626  155.7635 C   0  0  0  0  0  0  0  0  0  0  0  0
  149.4355  140.7337  155.0603 C   0  0  2  0  0  0  0  0  0  0  0  0
  150.1204  140.0659  154.0204 O   0  0  0  0  0  0  0  0  0  0  0  0
  148.2201  141.4742  154.4611 C   0  0  0  0  0  0  0  0  0  0  0  0
  147.1904  141.8056  155.4795 N   0  3  1  0  0  0  0  0  0  0  0  0
  145.9075  142.2686  154.8866 C   0  0  0  0  0  0  0  0  0  0  0  0
  144.9117  142.7102  155.9765 C   0  0  0  0  0  0  0  0  0  0  0  0
  144.6587  141.6289  157.0483 C   0  0  1  0  0  0  0  0  0  0  0  0
  143.7299  140.5035  156.5549 C   0  0  0  0  0  0  0  0  0  0  0  0
  143.1670  140.6651  155.3547 N   0  0  0  0  0  0  0  0  0  0  0  0
  143.5194  139.5036  157.2380 O   0  0  0  0  0  0  0  0  0  0  0  0
  146.0118  141.1016  157.5697 C   0  0  0  0  0  0  0  0  0  0  0  0
  146.9820  140.6951  156.4439 C   0  0  0  0  0  0  0  0  0  0  0  0
  151.4528  141.5681  158.0411 C   0  0  0  0  0  0  0  0  0  0  0  0
  151.0446  142.7781  158.5989 C   0  0  0  0  0  0  0  0  0  0  0  0
  151.4532  143.0527  159.9237 C   0  0  0  0  0  0  0  0  0  0  0  0
  151.0225  144.3648  160.5570 C   0  0  0  0  0  0  0  0  0  0  0  0
  153.2332  141.6027  162.5114 H   0  0  0  0  0  0  0  0  0  0  0  0
  151.8139  142.6256  162.7088 H   0  0  0  0  0  0  0  0  0  0  0  0
  153.3260  143.3127  162.0962 H   0  0  0  0  0  0  0  0  0  0  0  0
  153.2580  140.1973  160.6180 H   0  0  0  0  0  0  0  0  0  0  0  0
  151.8704  139.0893  155.8893 H   0  0  0  0  0  0  0  0  0  0  0  0
  149.9499  142.5276  156.2046 H   0  0  0  0  0  0  0  0  0  0  0  0
  151.1531  142.0590  155.0341 H   0  0  0  0  0  0  0  0  0  0  0  0
  149.1074  139.9824  155.7778 H   0  0  0  0  0  0  0  0  0  0  0  0
  149.5511  139.4063  153.6535 H   0  0  0  0  0  0  0  0  0  0  0  0
  148.5264  142.3962  153.9662 H   0  0  0  0  0  0  0  0  0  0  0  0
  147.7845  140.8444  153.6837 H   0  0  0  0  0  0  0  0  0  0  0  0
  146.0840  143.1120  154.2209 H   0  0  0  0  0  0  0  0  0  0  0  0
  145.4810  141.4786  154.2683 H   0  0  0  0  0  0  0  0  0  0  0  0
  145.2990  143.6051  156.4654 H   0  0  0  0  0  0  0  0  0  0  0  0
  143.9707  143.0105  155.5135 H   0  0  0  0  0  0  0  0  0  0  0  0
  144.1518  142.1115  157.8859 H   0  0  0  0  0  0  0  0  0  0  0  0
  142.5498  139.9570  154.9840 H   0  0  0  0  0  0  0  0  0  0  0  0
  143.3613  141.4989  154.8187 H   0  0  0  0  0  0  0  0  0  0  0  0
  146.4815  141.8774  158.1759 H   0  0  0  0  0  0  0  0  0  0  0  0
  145.8545  140.2563  158.2410 H   0  0  0  0  0  0  0  0  0  0  0  0
  146.6222  139.8117  155.9161 H   0  0  0  0  0  0  0  0  0  0  0  0
  147.9375  140.4188  156.8910 H   0  0  0  0  0  0  0  0  0  0  0  0
  150.4388  143.4841  158.0514 H   0  0  0  0  0  0  0  0  0  0  0  0
  150.4604  144.9820  159.8554 H   0  0  0  0  0  0  0  0  0  0  0  0
  151.8910  144.9387  160.8810 H   0  0  0  0  0  0  0  0  0  0  0  0
  150.3859  144.1804  161.4228 H   0  0  0  0  0  0  0  0  0  0  0  0
  147.5628  142.5763  156.0165 H   0  0  0  0  0  0  0  0  0  0  0  0
  153.0116  138.7329  158.1605 H   0  0  0  0  0  0  0  0  0  0  0  0
  1  2  1  0  0  0  0
  1 25  1  0  0  0  0
  1 26  1  0  0  0  0
  1 27  1  0  0  0  0
  2 23  1  0  0  0  0
  2  3  2  0  0  0  0
  3  4  1  0  0  0  0
  3 28  1  0  0  0  0
  4 21  2  0  0  0  0
  4  5  1  0  0  0  0
  5  6  2  0  0  0  0
  5 52  1  0  0  0  0
  6  7  1  0  0  0  0
  6 29  1  0  0  0  0
  7  8  1  0  0  0  0
  7 21  1  0  0  0  0
  8  9  1  0  0  0  0
  8 30  1  0  0  0  0
  8 31  1  0  0  0  0
  9 10  1  0  0  0  0
  9 11  1  0  0  0  0
  9 32  1  0  0  0  0
 10 33  1  0  0  0  0
 11 12  1  0  0  0  0
 11 34  1  0  0  0  0
 11 35  1  0  0  0  0
 12 20  1  0  0  0  0
 12 13  1  0  0  0  0
 12 51  1  0  0  0  0
 13 14  1  0  0  0  0
 13 36  1  0  0  0  0
 13 37  1  0  0  0  0
 14 15  1  0  0  0  0
 14 38  1  0  0  0  0
 14 39  1  0  0  0  0
 15 16  1  0  0  0  0
 15 19  1  0  0  0  0
 15 40  1  0  0  0  0
 16 17  1  0  0  0  0
 16 18  2  0  0  0  0
 17 41  1  0  0  0  0
 17 42  1  0  0  0  0
 19 20  1  0  0  0  0
 19 43  1  0  0  0  0
 19 44  1  0  0  0  0
 20 45  1  0  0  0  0
 20 46  1  0  0  0  0
 21 22  1  0  0  0  0
 22 23  2  0  0  0  0
 22 47  1  0  0  0  0
 23 24  1  0  0  0  0
 24 48  1  0  0  0  0
 24 49  1  0  0  0  0
 24 50  1  0  0  0  0
M  CHG  1   5   1
M  CHG  1  12   1
M  END
> <s_m_source_file>
AV-unprocessed.smi

> <i_m_source_file_index>
1695

> <i_lp_mmshare_version>
43012

> <i_f3d_flags>
0

> <s_epik_input>
W0NIM11jKFtjSF0xKWMoW0NIM10pW2NIXWMoYzEyKW4oW2NIXW4yKVtDSDJdW0NASF0oW09IXSlbQ0gyXU4zW0NIMl1bQ0gyXVtDSF0oQyg9TylbTkgyXSlbQ0gyXVtDSDJdMw==

> <s_epik_cmdline>
J2VwaWtfcHl0aG9uJywgJy1waCcsICc3LjAnLCAnLXRuJywgJzgnLCAnLW1hJywgJzIwMCcsICctbWV0YWxfYmluZGluZycsICctaW1hZScsICc8aW5maWxlLm1hZT4nLCAnLW9tYWUnLCAnPG91dGZpbGUubWFlPic=

> <r_epik_Ionization_Penalty>
1.20173

> <r_epik_Ionization_Penalty_Charging>
1.20172

> <r_epik_Ionization_Penalty_Neutral>
1.7852e-06

> <r_epik_State_Penalty>
1.28089

> <r_epik_Charging_Adjusted_Penalty>
2.48261

> <i_epik_Tot_Q>
2

> <i_epik_Tot_abs_Q>
2

> <r_epik_Metal_State_Penalty>
1.35652

> <b_epik_Metal_Only>
0

> <s_lp_Force_Field>
OPLS_2005

> <r_lp_Energy>
28.6872

> <b_lp_Chiralities_Consistent>
1

> <s_lp_Variant>
AV-unprocessed.smi:1695-5

> <Gold.Version>
5.8.1

> <Gold.Id.Protein>
6NUR|6NUR_protein|mol2

> <Gold.PLP.Fitness>
56.9834

> <Gold.PLP.PLP>
-49.7039

> <Gold.PLP.part.hbond>
-5.0000

> <Gold.PLP.part.metal>
0.0000

> <Gold.PLP.part.buried>
-5.7445

> <Gold.PLP.part.nonpolar>
-37.9567

> <Gold.PLP.part.repulsive>
0.2062

> <Gold.PLP.ligand.clash>
0.0000

> <Gold.PLP.ligand.torsion>
0.9182

> <Gold.PLP.Chemscore.Hbond>
3.0171

> <Gold.PLP.Chemscore.CHOScore>
0.0000

> <Gold.PLP.Chemscore.Metal>
0.0000

> <Gold.Chemscore.Hbonds>
donor molecule, donor type, donor heavy atom, donor atom, acceptor molecule, acceptor atom, score
      P1  H  7989  7998       L1    10  0.93

> <Gold.PLP.Chemscore.Internal.Correction>
0.0646

> <Gold.Rescore>
     Score         DG    S(hbond)    S(metal)    S(lipo)     H(rot)  DE(clash)    DE(int)     intcor
     14.41     -14.84       0.96        0.00     116.34       2.91       0.04       0.39       ----

> <Gold.Chemscore.Fitness>
14.4054

> <Gold.Chemscore.DG>
-14.8413

> <Gold.Chemscore.ZeroCoef>
-5.4800

> <Gold.Chemscore.Hbond>
0.9597

> <Gold.Chemscore.Metal>
0.0000

> <Gold.Chemscore.Lipo>
116.3440

> <Gold.Chemscore.Internal_Hbond>
0.0000

> <Gold.Chemscore.DEClash>
0.0445

> <Gold.Chemscore.DEInternal>
0.3913

> <Gold.Chemscore.Rot>
2.9127

> <Gold.Chemscore.Internal.Correction>
   9.000000E+99

> <Gold.Chemscore.Hbonds>
donor molecule, donor type, donor heavy atom, donor atom, acceptor molecule, acceptor atom, score
      P1  H  7989  7998       L1    10  0.82

> <Gold.Chemscore.Hbond.Weighted>
-3.2055

> <Gold.Chemscore.Metal.Weighted>
-0.0000

> <Gold.Chemscore.Lipo.Weighted>
-13.6123

> <Gold.Chemscore.Internal_Hbond.Weighted>
0.0000

> <Gold.Chemscore.DEClash.Weighted>
0.0445

> <Gold.Chemscore.DEInternal.Weighted>
0.3913

> <Gold.Chemscore.Rot.Weighted>
7.4565

> <Gold.Chemscore.Internal.Correction.Weighted>
   9.000000E+99

> <Gold.Protein.RotatedTorsions>
[ 6907 6896 6895 6894 ] final -116.96 input  -60.11 | X-H torsion
[ 7974 7965 7964 7962 ] final  -24.95 input  175.53 | X-H torsion
[ 8008 7997 7996 7995 ] final -175.50 input   59.86 | X-H torsion
[ 10167 10162 10161 10158 ] final  -62.19 input  -65.29 | X-H torsion
[ 10718 10713 10712 10709 ] final   60.75 input   66.30 | X-H torsion
[ 10763 10752 10751 10750 ] final  111.17 input  -60.55 | X-H torsion
[ 11005 11000 10999 10996 ] final   32.12 input  -57.11 | X-H torsion

> <Gold.Protein.ActiveResidues>
 VAL166  LYS551  ARG553  GLY616  TRP617  ASP618  TYR619  PRO620  LYS621  CYS622 
 ASP623  PHE694  ASN695  SER759  ASP760  ASP761  ALA762  ILE779  LEU786  VAL792 
 PHE793  MET794  SER795  GLU796  ALA797  LYS798  CYS799  TRP800  GLU811  SER814 

> <Gold.Protein.RotatedAtoms>
  150.8097  133.8444  159.3187 H   0  0  0  0  0  0  0  0  0  0  0  0  # atno 6907 bound_to 6896
  151.6233  135.1028  160.0115 H   0  0  0  0  0  0  0  0  0  0  0  0  # atno 6908 bound_to 6896
  152.4189  133.7043  159.6499 H   0  0  0  0  0  0  0  0  0  0  0  0  # atno 6909 bound_to 6896
  146.1522  140.4821  142.8606 H   0  0  0  0  0  0  0  0  0  0  0  0  # atno 7974 bound_to 7965
  155.9833  140.1186  157.0706 H   0  0  0  0  0  0  0  0  0  0  0  0  # atno 8008 bound_to 7997
  154.4189  140.1140  156.5533 H   0  0  0  0  0  0  0  0  0  0  0  0  # atno 8009 bound_to 7997
  155.6442  140.3473  155.4727 H   0  0  0  0  0  0  0  0  0  0  0  0  # atno 8010 bound_to 7997
  140.5956  143.2350  151.6044 H   0  0  0  0  0  0  0  0  0  0  0  0  # atno 10167 bound_to 10162
  157.5777  130.8956  149.9375 H   0  0  0  0  0  0  0  0  0  0  0  0  # atno 10718 bound_to 10713
  153.4594  135.3725  155.2330 H   0  0  0  0  0  0  0  0  0  0  0  0  # atno 10763 bound_to 10752
  154.8757  135.3905  154.3942 H   0  0  0  0  0  0  0  0  0  0  0  0  # atno 10764 bound_to 10752
  153.4514  135.7085  153.6171 H   0  0  0  0  0  0  0  0  0  0  0  0  # atno 10765 bound_to 10752
  140.2768  134.3019  155.7812 H   0  0  0  0  0  0  0  0  0  0  0  0  # atno 11005 bound_to 11000
  144.7918  140.6047  143.6536 LP  0  0  0  0  0  0  0  0  0  0  0  0  # atno 17320 bound_to 7965
  145.4795  139.1496  143.3769 LP  0  0  0  0  0  0  0  0  0  0  0  0  # atno 17321 bound_to 7965
  139.5256  144.3070  152.1025 LP  0  0  0  0  0  0  0  0  0  0  0  0  # atno 17342 bound_to 10162
  140.2242  144.4435  150.6328 LP  0  0  0  0  0  0  0  0  0  0  0  0  # atno 17343 bound_to 10162
  156.0821  130.3672  150.0559 LP  0  0  0  0  0  0  0  0  0  0  0  0  # atno 17370 bound_to 10713
  156.8703  130.9522  151.3610 LP  0  0  0  0  0  0  0  0  0  0  0  0  # atno 17371 bound_to 10713
  141.2169  133.7500  156.9419 LP  0  0  0  0  0  0  0  0  0  0  0  0  # atno 17394 bound_to 11000
  140.1321  134.9349  157.2351 LP  0  0  0  0  0  0  0  0  0  0  0  0  # atno 17395 bound_to 11000

$$$$
