AV-unprocessed.smi:2230|AV-procd|sdf|9036|dock7
  -GOLD-   2272012243D 1   1.00000     0.00000
 Structure written by MMmdl.
 29 30  0  0  0  0  0  0  0  0  2 V2000
  152.1287  137.9934  153.9601 O   0  0  0  0  0  0  0  0  0  0  0  0
  152.3822  138.9475  154.7293 C   0  0  0  0  0  0  0  0  0  0  0  0
  152.5937  140.1244  154.3618 O   0  5  0  0  0  0  0  0  0  0  0  0
  152.4057  138.6692  156.2403 C   0  0  1  0  0  0  0  0  0  0  0  0
  152.4326  139.9794  157.0628 C   0  0  0  0  0  0  0  0  0  0  0  0
  152.3657  139.6804  158.4886 N   0  0  0  0  0  0  0  0  0  0  0  0
  152.5181  140.8045  159.3149 C   0  0  0  0  0  0  0  0  0  0  0  0
  151.6238  141.8122  159.1624 N   0  0  0  0  0  0  0  0  0  0  0  0
  151.7418  142.9048  159.9438 C   0  0  0  0  0  0  0  0  0  0  0  0
  152.7487  143.0511  160.9147 C   0  0  0  0  0  0  0  0  0  0  0  0
  153.6771  142.0063  161.0756 C   0  0  0  0  0  0  0  0  0  0  0  0
  153.5705  140.8528  160.2659 C   0  0  0  0  0  0  0  0  0  0  0  0
  154.5612  139.7014  160.4205 C   0  0  0  0  0  0  0  0  0  0  0  0
  155.2871  139.8246  161.5324 F   0  0  0  0  0  0  0  0  0  0  0  0
  153.9071  138.5412  160.4830 F   0  0  0  0  0  0  0  0  0  0  0  0
  155.3980  139.6735  159.3832 F   0  0  0  0  0  0  0  0  0  0  0  0
  151.2263  138.8431  158.8366 C   0  0  0  0  0  0  0  0  0  0  0  0
  151.2473  137.5606  157.9909 C   0  0  0  0  0  0  0  0  0  0  0  0
  151.2557  137.9053  156.6096 O   0  0  0  0  0  0  0  0  0  0  0  0
  153.3024  138.0833  156.4502 H   0  0  0  0  0  0  0  0  0  0  0  0
  153.3457  140.5402  156.8578 H   0  0  0  0  0  0  0  0  0  0  0  0
  151.5922  140.6163  156.7818 H   0  0  0  0  0  0  0  0  0  0  0  0
  151.0104  143.6846  159.7918 H   0  0  0  0  0  0  0  0  0  0  0  0
  152.8077  143.9430  161.5211 H   0  0  0  0  0  0  0  0  0  0  0  0
  154.4570  142.0999  161.8164 H   0  0  0  0  0  0  0  0  0  0  0  0
  151.2593  138.5945  159.8980 H   0  0  0  0  0  0  0  0  0  0  0  0
  150.2986  139.3890  158.6588 H   0  0  0  0  0  0  0  0  0  0  0  0
  152.1184  136.9486  158.2306 H   0  0  0  0  0  0  0  0  0  0  0  0
  150.3646  136.9567  158.2007 H   0  0  0  0  0  0  0  0  0  0  0  0
  1  2  2  0  0  0  0
  2  3  1  0  0  0  0
  2  4  1  0  0  0  0
  4 19  1  0  0  0  0
  4  5  1  0  0  0  0
  4 20  1  0  0  0  0
  5  6  1  0  0  0  0
  5 21  1  0  0  0  0
  5 22  1  0  0  0  0
  6  7  1  0  0  0  0
  6 17  1  0  0  0  0
  7 12  1  0  0  0  0
  7  8  2  0  0  0  0
  8  9  1  0  0  0  0
  9 10  2  0  0  0  0
  9 23  1  0  0  0  0
 10 11  1  0  0  0  0
 10 24  1  0  0  0  0
 11 12  2  0  0  0  0
 11 25  1  0  0  0  0
 12 13  1  0  0  0  0
 13 14  1  0  0  0  0
 13 15  1  0  0  0  0
 13 16  1  0  0  0  0
 17 18  1  0  0  0  0
 17 26  1  0  0  0  0
 17 27  1  0  0  0  0
 18 19  1  0  0  0  0
 18 28  1  0  0  0  0
 18 29  1  0  0  0  0
M  CHG  1   3  -1
M  END
> <s_m_source_file>
AV-unprocessed.smi

> <i_m_source_file_index>
2230

> <i_lp_mmshare_version>
43012

> <i_f3d_flags>
0

> <s_epik_input>
Tz1DKFtPSF0pW0NAQEhdMVtDSDJdTihbQ0gyXVtDSDJdTzEpYzJuW2NIXVtjSF1bY0hdYzJDKEYpKEYpRg==

> <s_epik_cmdline>
J2VwaWtfcHl0aG9uJywgJy1waCcsICc3LjAnLCAnLXRuJywgJzgnLCAnLW1hJywgJzIwMCcsICctbWV0YWxfYmluZGluZycsICctaW1hZScsICc8aW5maWxlLm1hZT4nLCAnLW9tYWUnLCAnPG91dGZpbGUubWFlPic=

> <r_lp_tautomer_probability>
1

> <r_epik_Ionization_Penalty>
0.000150991

> <r_epik_Ionization_Penalty_Charging>
0.000148814

> <r_epik_Ionization_Penalty_Neutral>
2.17728e-06

> <r_epik_State_Penalty>
-0

> <r_epik_Charging_Adjusted_Penalty>
0.000148814

> <i_epik_Tot_Q>
-1

> <i_epik_Tot_abs_Q>
1

> <r_epik_Metal_State_Penalty>
-0

> <b_epik_Metal_Only>
0

> <s_lp_Force_Field>
OPLS_2005

> <r_lp_Energy>
24.6169

> <b_lp_Chiralities_Consistent>
1

> <s_lp_Variant>
AV-unprocessed.smi:2230-2

> <Gold.Version>
5.8.1

> <Gold.Id.Protein>
6NUR|6NUR_protein|mol2

> <Gold.PLP.Fitness>
40.1740

> <Gold.PLP.PLP>
-31.5611

> <Gold.PLP.part.hbond>
-3.0000

> <Gold.PLP.part.metal>
0.0000

> <Gold.PLP.part.buried>
-2.5882

> <Gold.PLP.part.nonpolar>
-26.8053

> <Gold.PLP.part.repulsive>
0.1348

> <Gold.PLP.ligand.clash>
0.0152

> <Gold.PLP.ligand.torsion>
0.8224

> <Gold.PLP.Chemscore.Hbond>
3.2137

> <Gold.PLP.Chemscore.CHOScore>
0.0000

> <Gold.PLP.Chemscore.Metal>
0.0000

> <Gold.Chemscore.Hbonds>
donor molecule, donor type, donor heavy atom, donor atom, acceptor molecule, acceptor atom, score
      P1  H  7989  7998       L1     3  0.28
      P1  H  7997  8009       L1     3  0.10

> <Gold.PLP.Chemscore.Internal.Correction>
0.6317

> <Gold.Rescore>
     Score         DG    S(hbond)    S(metal)    S(lipo)     H(rot)  DE(clash)    DE(int)     intcor
     12.68     -15.26       1.61        0.00      70.22       1.49       0.48       2.10       ----

> <Gold.Chemscore.Fitness>
12.6808

> <Gold.Chemscore.DG>
-15.2623

> <Gold.Chemscore.ZeroCoef>
-5.4800

> <Gold.Chemscore.Hbond>
1.6123

> <Gold.Chemscore.Metal>
0.0000

> <Gold.Chemscore.Lipo>
70.2207

> <Gold.Chemscore.Internal_Hbond>
0.0000

> <Gold.Chemscore.DEClash>
0.4820

> <Gold.Chemscore.DEInternal>
2.0995

> <Gold.Chemscore.Rot>
1.4916

> <Gold.Chemscore.Internal.Correction>
   9.000000E+99

> <Gold.Chemscore.Hbonds>
donor molecule, donor type, donor heavy atom, donor atom, acceptor molecule, acceptor atom, score
      P1  H  7989  7998       L1     3  0.28

> <Gold.Chemscore.Hbond.Weighted>
-5.3849

> <Gold.Chemscore.Metal.Weighted>
-0.0000

> <Gold.Chemscore.Lipo.Weighted>
-8.2158

> <Gold.Chemscore.Internal_Hbond.Weighted>
0.0000

> <Gold.Chemscore.DEClash.Weighted>
0.4820

> <Gold.Chemscore.DEInternal.Weighted>
2.0995

> <Gold.Chemscore.Rot.Weighted>
3.8185

> <Gold.Chemscore.Internal.Correction.Weighted>
   9.000000E+99

> <Gold.Protein.RotatedTorsions>
[ 6907 6896 6895 6894 ] final -126.24 input  -60.11 | X-H torsion
[ 7974 7965 7964 7962 ] final  150.52 input  175.53 | X-H torsion
[ 8008 7997 7996 7995 ] final -120.43 input   59.86 | X-H torsion
[ 10167 10162 10161 10158 ] final  -56.08 input  -65.29 | X-H torsion
[ 10718 10713 10712 10709 ] final -147.76 input   66.30 | X-H torsion
[ 10763 10752 10751 10750 ] final   67.00 input  -60.55 | X-H torsion
[ 11005 11000 10999 10996 ] final -164.29 input  -57.11 | X-H torsion

> <Gold.Protein.ActiveResidues>
 VAL166  LYS551  ARG553  GLY616  TRP617  ASP618  TYR619  PRO620  LYS621  CYS622 
 ASP623  PHE694  ASN695  SER759  ASP760  ASP761  ALA762  ILE779  LEU786  VAL792 
 PHE793  MET794  SER795  GLU796  ALA797  LYS798  CYS799  TRP800  GLU811  SER814 

> <Gold.Protein.RotatedAtoms>
  150.8949  133.7195  159.2894 H   0  0  0  0  0  0  0  0  0  0  0  0  # atno 6907 bound_to 6896
  151.4733  135.1046  159.9767 H   0  0  0  0  0  0  0  0  0  0  0  0  # atno 6908 bound_to 6896
  152.4842  133.8283  159.7145 H   0  0  0  0  0  0  0  0  0  0  0  0  # atno 6909 bound_to 6896
  144.8358  139.6419  143.6038 H   0  0  0  0  0  0  0  0  0  0  0  0  # atno 7974 bound_to 7965
  155.1317  140.0400  157.2776 H   0  0  0  0  0  0  0  0  0  0  0  0  # atno 8008 bound_to 7997
  154.6538  140.2575  155.7158 H   0  0  0  0  0  0  0  0  0  0  0  0  # atno 8009 bound_to 7997
  156.2589  140.2831  156.0983 H   0  0  0  0  0  0  0  0  0  0  0  0  # atno 8010 bound_to 7997
  140.6338  143.2472  151.5172 H   0  0  0  0  0  0  0  0  0  0  0  0  # atno 10167 bound_to 10162
  156.4117  130.7984  151.2202 H   0  0  0  0  0  0  0  0  0  0  0  0  # atno 10718 bound_to 10713
  153.0165  135.5300  154.6911 H   0  0  0  0  0  0  0  0  0  0  0  0  # atno 10763 bound_to 10752
  154.6045  135.2872  155.0501 H   0  0  0  0  0  0  0  0  0  0  0  0  # atno 10764 bound_to 10752
  154.1546  135.6557  153.5024 H   0  0  0  0  0  0  0  0  0  0  0  0  # atno 10765 bound_to 10752
  140.5885  134.5069  157.5189 H   0  0  0  0  0  0  0  0  0  0  0  0  # atno 11005 bound_to 11000
  146.2657  139.6514  142.9331 LP  0  0  0  0  0  0  0  0  0  0  0  0  # atno 17320 bound_to 7965
  145.4798  141.0437  143.2652 LP  0  0  0  0  0  0  0  0  0  0  0  0  # atno 17321 bound_to 7965
  139.5550  144.2299  152.1596 LP  0  0  0  0  0  0  0  0  0  0  0  0  # atno 17342 bound_to 10162
  140.1550  144.5079  150.6665 LP  0  0  0  0  0  0  0  0  0  0  0  0  # atno 17343 bound_to 10162
  157.7507  131.0255  150.3924 LP  0  0  0  0  0  0  0  0  0  0  0  0  # atno 17370 bound_to 10713
  156.4224  130.3955  149.6816 LP  0  0  0  0  0  0  0  0  0  0  0  0  # atno 17371 bound_to 10713
  139.9285  134.8010  156.1000 LP  0  0  0  0  0  0  0  0  0  0  0  0  # atno 17394 bound_to 11000
  141.0950  133.6699  156.2625 LP  0  0  0  0  0  0  0  0  0  0  0  0  # atno 17395 bound_to 11000

$$$$
