AV-unprocessed.smi:3327|AV-procd|sdf|12789|dock7
  -GOLD-   2272019143D 1   1.00000     0.00000
 Structure written by MMmdl.
 40 41  0  0  0  0  0  0  0  0  1 V2000
  151.7809  145.0803  158.9509 C   0  0  0  0  0  0  0  0  0  0  0  0
  152.0264  143.7344  159.6472 C   0  0  2  0  0  0  0  0  0  0  0  0
  152.2761  143.9165  161.1598 C   0  0  0  0  0  0  0  0  0  0  0  0
  152.6441  142.5880  161.8465 C   0  0  0  0  0  0  0  0  0  0  0  0
  153.7818  141.8747  161.0949 C   0  0  0  0  0  0  0  0  0  0  0  0
  153.3730  141.6811  159.6967 N   0  0  0  0  0  0  0  0  0  0  0  0
  153.0530  140.4945  159.1236 C   0  0  0  0  0  0  0  0  0  0  0  0
  152.6008  140.4243  157.9790 O   0  0  0  0  0  0  0  0  0  0  0  0
  153.2323  139.1964  159.9377 C   0  0  0  0  0  0  0  0  0  0  0  0
  154.1972  138.2319  159.3831 N   0  0  0  0  0  0  0  0  0  0  0  0
  154.1575  136.9295  160.0418 C   0  0  0  0  0  0  0  0  0  0  0  0
  154.2569  137.0989  161.5674 C   0  0  0  0  0  0  0  0  0  0  0  0
  154.3179  135.8282  162.2677 N   0  0  0  0  0  0  0  0  0  0  0  0
  154.1818  135.5863  163.6186 C   0  0  0  0  0  0  0  0  0  0  0  0
  154.3108  134.2399  163.8054 C   0  0  0  0  0  0  0  0  0  0  0  0
  154.5259  133.7358  162.4923 C   0  0  0  0  0  0  0  0  0  0  0  0
  154.5269  134.6883  161.5737 N   0  0  0  0  0  0  0  0  0  0  0  0
  153.2002  142.9656  159.0042 C   0  0  0  0  0  0  0  0  0  0  0  0
  152.6532  145.7306  159.0248 H   0  0  0  0  0  0  0  0  0  0  0  0
  150.9355  145.6048  159.3972 H   0  0  0  0  0  0  0  0  0  0  0  0
  151.5593  144.9394  157.8928 H   0  0  0  0  0  0  0  0  0  0  0  0
  151.1246  143.1322  159.5252 H   0  0  0  0  0  0  0  0  0  0  0  0
  153.0902  144.6273  161.3079 H   0  0  0  0  0  0  0  0  0  0  0  0
  151.3978  144.3510  161.6384 H   0  0  0  0  0  0  0  0  0  0  0  0
  152.9342  142.7717  162.8814 H   0  0  0  0  0  0  0  0  0  0  0  0
  151.7682  141.9387  161.8807 H   0  0  0  0  0  0  0  0  0  0  0  0
  154.6866  142.4836  161.1228 H   0  0  0  0  0  0  0  0  0  0  0  0
  154.0359  140.9538  161.6159 H   0  0  0  0  0  0  0  0  0  0  0  0
  153.5346  139.4361  160.9577 H   0  0  0  0  0  0  0  0  0  0  0  0
  152.2613  138.7047  160.0008 H   0  0  0  0  0  0  0  0  0  0  0  0
  155.1376  138.6005  159.3899 H   0  0  0  0  0  0  0  0  0  0  0  0
  153.2282  136.4120  159.8058 H   0  0  0  0  0  0  0  0  0  0  0  0
  154.9718  136.3006  159.6791 H   0  0  0  0  0  0  0  0  0  0  0  0
  155.1329  137.6924  161.8330 H   0  0  0  0  0  0  0  0  0  0  0  0
  153.3885  137.6473  161.9349 H   0  0  0  0  0  0  0  0  0  0  0  0
  154.0079  136.3836  164.3260 H   0  0  0  0  0  0  0  0  0  0  0  0
  154.2598  133.6976  164.7377 H   0  0  0  0  0  0  0  0  0  0  0  0
  154.6782  132.7128  162.1814 H   0  0  0  0  0  0  0  0  0  0  0  0
  153.0269  142.8446  157.9338 H   0  0  0  0  0  0  0  0  0  0  0  0
  154.1215  143.5445  159.0871 H   0  0  0  0  0  0  0  0  0  0  0  0
  1  2  1  0  0  0  0
  1 19  1  0  0  0  0
  1 20  1  0  0  0  0
  1 21  1  0  0  0  0
  2 18  1  0  0  0  0
  2  3  1  0  0  0  0
  2 22  1  0  0  0  0
  3  4  1  0  0  0  0
  3 23  1  0  0  0  0
  3 24  1  0  0  0  0
  4  5  1  0  0  0  0
  4 25  1  0  0  0  0
  4 26  1  0  0  0  0
  5  6  1  0  0  0  0
  5 27  1  0  0  0  0
  5 28  1  0  0  0  0
  6  7  1  0  0  0  0
  6 18  1  0  0  0  0
  7  8  2  0  0  0  0
  7  9  1  0  0  0  0
  9 10  1  0  0  0  0
  9 29  1  0  0  0  0
  9 30  1  0  0  0  0
 10 11  1  0  0  0  0
 10 31  1  0  0  0  0
 11 12  1  0  0  0  0
 11 32  1  0  0  0  0
 11 33  1  0  0  0  0
 12 13  1  0  0  0  0
 12 34  1  0  0  0  0
 12 35  1  0  0  0  0
 13 17  1  0  0  0  0
 13 14  1  0  0  0  0
 14 15  2  0  0  0  0
 14 36  1  0  0  0  0
 15 16  1  0  0  0  0
 15 37  1  0  0  0  0
 16 17  2  0  0  0  0
 16 38  1  0  0  0  0
 18 39  1  0  0  0  0
 18 40  1  0  0  0  0
M  END
> <s_m_source_file>
AV-unprocessed.smi

> <i_m_source_file_index>
3327

> <i_lp_mmshare_version>
43012

> <i_f3d_flags>
0

> <s_epik_input>
W0NIM11bQ0BASF0xW0NIMl1bQ0gyXVtDSDJdTihbQ0gyXTEpQyg9TylbQ0gyXVtOSF1bQ0gyXVtDSDJdbjJbY0hdW2NIXVtjSF1uMg==

> <s_epik_cmdline>
J2VwaWtfcHl0aG9uJywgJy1waCcsICc3LjAnLCAnLXRuJywgJzgnLCAnLW1hJywgJzIwMCcsICctbWV0YWxfYmluZGluZycsICctaW1hZScsICc8aW5maWxlLm1hZT4nLCAnLW9tYWUnLCAnPG91dGZpbGUubWFlPic=

> <r_lp_tautomer_probability>
1

> <r_epik_Ionization_Penalty>
0.752964

> <r_epik_Ionization_Penalty_Charging>
0

> <r_epik_Ionization_Penalty_Neutral>
0.752964

> <r_epik_State_Penalty>
0.778238

> <r_epik_Charging_Adjusted_Penalty>
0.778238

> <i_epik_Tot_Q>
0

> <i_epik_Tot_abs_Q>
0

> <r_epik_Metal_State_Penalty>
0.776974

> <b_epik_Metal_Only>
0

> <s_lp_Force_Field>
OPLS_2005

> <r_lp_Energy>
27.1089

> <b_lp_Chiralities_Consistent>
1

> <s_lp_Variant>
AV-unprocessed.smi:3327-3

> <Gold.Version>
5.8.1

> <Gold.Id.Protein>
6NUR|6NUR_protein|mol2

> <Gold.PLP.Fitness>
49.3025

> <Gold.PLP.PLP>
-46.9804

> <Gold.PLP.part.hbond>
-1.0000

> <Gold.PLP.part.metal>
0.0000

> <Gold.PLP.part.buried>
-3.3238

> <Gold.PLP.part.nonpolar>
-42.3979

> <Gold.PLP.part.repulsive>
0.0000

> <Gold.PLP.ligand.clash>
0.0000

> <Gold.PLP.ligand.torsion>
0.1973

> <Gold.PLP.Chemscore.Hbond>
0.8960

> <Gold.PLP.Chemscore.CHOScore>
0.0000

> <Gold.PLP.Chemscore.Metal>
0.0000

> <Gold.Chemscore.Hbonds>
donor molecule, donor type, donor heavy atom, donor atom, acceptor molecule, acceptor atom, score
      P1  H  7997  8008       L1     8  0.37

> <Gold.PLP.Chemscore.Internal.Correction>
0.0288

> <Gold.Rescore>
     Score         DG    S(hbond)    S(metal)    S(lipo)     H(rot)  DE(clash)    DE(int)     intcor
     17.33     -17.71       0.89        0.00     116.84       1.73       0.08       0.30       ----

> <Gold.Chemscore.Fitness>
17.3267

> <Gold.Chemscore.DG>
-17.7083

> <Gold.Chemscore.ZeroCoef>
-5.4800

> <Gold.Chemscore.Hbond>
0.8941

> <Gold.Chemscore.Metal>
0.0000

> <Gold.Chemscore.Lipo>
116.8362

> <Gold.Chemscore.Internal_Hbond>
0.0000

> <Gold.Chemscore.DEClash>
0.0775

> <Gold.Chemscore.DEInternal>
0.3041

> <Gold.Chemscore.Rot>
1.7296

> <Gold.Chemscore.Internal.Correction>
   9.000000E+99

> <Gold.Chemscore.Hbonds>
donor molecule, donor type, donor heavy atom, donor atom, acceptor molecule, acceptor atom, score
      P1  H  7997  8008       L1     8  0.05

> <Gold.Chemscore.Hbond.Weighted>
-2.9863

> <Gold.Chemscore.Metal.Weighted>
-0.0000

> <Gold.Chemscore.Lipo.Weighted>
-13.6698

> <Gold.Chemscore.Internal_Hbond.Weighted>
0.0000

> <Gold.Chemscore.DEClash.Weighted>
0.0775

> <Gold.Chemscore.DEInternal.Weighted>
0.3041

> <Gold.Chemscore.Rot.Weighted>
4.4278

> <Gold.Chemscore.Internal.Correction.Weighted>
   9.000000E+99

> <Gold.Protein.RotatedTorsions>
[ 6907 6896 6895 6894 ] final  172.68 input  -60.11 | X-H torsion
[ 7974 7965 7964 7962 ] final  -10.70 input  175.53 | X-H torsion
[ 8008 7997 7996 7995 ] final  -81.57 input   59.86 | X-H torsion
[ 10167 10162 10161 10158 ] final -109.37 input  -65.29 | X-H torsion
[ 10718 10713 10712 10709 ] final    0.95 input   66.30 | X-H torsion
[ 10763 10752 10751 10750 ] final -173.21 input  -60.55 | X-H torsion
[ 11005 11000 10999 10996 ] final   75.50 input  -57.11 | X-H torsion

> <Gold.Protein.ActiveResidues>
 VAL166  LYS551  ARG553  GLY616  TRP617  ASP618  TYR619  PRO620  LYS621  CYS622 
 ASP623  PHE694  ASN695  SER759  ASP760  ASP761  ALA762  ILE779  LEU786  VAL792 
 PHE793  MET794  SER795  GLU796  ALA797  LYS798  CYS799  TRP800  GLU811  SER814 

> <Gold.Protein.RotatedAtoms>
  151.7804  133.3349  159.3469 H   0  0  0  0  0  0  0  0  0  0  0  0  # atno 6907 bound_to 6896
  150.7428  134.5936  159.6009 H   0  0  0  0  0  0  0  0  0  0  0  0  # atno 6908 bound_to 6896
  152.3280  134.7298  160.0348 H   0  0  0  0  0  0  0  0  0  0  0  0  # atno 6909 bound_to 6896
  146.2212  140.2802  142.8362 H   0  0  0  0  0  0  0  0  0  0  0  0  # atno 7974 bound_to 7965
  154.5997  140.0646  156.9351 H   0  0  0  0  0  0  0  0  0  0  0  0  # atno 8008 bound_to 7997
  155.2154  140.3326  155.4304 H   0  0  0  0  0  0  0  0  0  0  0  0  # atno 8009 bound_to 7997
  156.2310  140.1841  156.7226 H   0  0  0  0  0  0  0  0  0  0  0  0  # atno 8010 bound_to 7997
  140.1561  143.4159  152.1460 H   0  0  0  0  0  0  0  0  0  0  0  0  # atno 10167 bound_to 10162
  156.8409  130.5520  149.5678 H   0  0  0  0  0  0  0  0  0  0  0  0  # atno 10718 bound_to 10713
  154.6104  135.2864  155.0438 H   0  0  0  0  0  0  0  0  0  0  0  0  # atno 10763 bound_to 10752
  154.1670  135.6479  153.5004 H   0  0  0  0  0  0  0  0  0  0  0  0  # atno 10764 bound_to 10752
  153.0193  135.5392  154.6856 H   0  0  0  0  0  0  0  0  0  0  0  0  # atno 10765 bound_to 10752
  139.9341  134.7522  156.1278 H   0  0  0  0  0  0  0  0  0  0  0  0  # atno 11005 bound_to 11000
  144.9203  140.7860  143.5752 LP  0  0  0  0  0  0  0  0  0  0  0  0  # atno 17320 bound_to 7965
  145.2738  139.1944  143.4827 LP  0  0  0  0  0  0  0  0  0  0  0  0  # atno 17321 bound_to 7965
  139.5403  144.7250  151.4756 LP  0  0  0  0  0  0  0  0  0  0  0  0  # atno 17342 bound_to 10162
  140.6672  143.8372  150.6956 LP  0  0  0  0  0  0  0  0  0  0  0  0  # atno 17343 bound_to 10162
  156.0881  130.5874  150.9684 LP  0  0  0  0  0  0  0  0  0  0  0  0  # atno 17370 bound_to 10713
  157.6356  131.0916  150.8355 LP  0  0  0  0  0  0  0  0  0  0  0  0  # atno 17371 bound_to 10713
  141.0946  133.6701  156.2615 LP  0  0  0  0  0  0  0  0  0  0  0  0  # atno 17394 bound_to 11000
  140.6123  134.5446  157.5535 LP  0  0  0  0  0  0  0  0  0  0  0  0  # atno 17395 bound_to 11000

$$$$
