AV-unprocessed.smi:1570|AV-procd|sdf|6316|dock2
  -GOLD-   22720 6523D 1   1.00000     0.00000
 Structure written by MMmdl.
 51 53  0  0  0  0  0  0  0  0  1 V2000
  151.8038  138.0945  159.2041 C   0  0  0  0  0  0  0  0  0  0  0  0
  152.7528  139.2656  158.9210 C   0  0  0  0  0  0  0  0  0  0  0  0
  152.0507  140.3710  158.2739 N   0  0  0  0  0  0  0  0  0  0  0  0
  151.4274  140.3379  157.0726 C   0  0  0  0  0  0  0  0  0  0  0  0
  151.3459  139.3622  156.3262 O   0  0  0  0  0  0  0  0  0  0  0  0
  150.9175  141.5683  156.8290 N   0  0  0  0  0  0  0  0  0  0  0  0
  150.1627  141.9775  155.6455 C   0  0  0  0  0  0  0  0  0  0  0  0
  149.4018  140.7958  155.0117 C   0  0  2  0  0  0  0  0  0  0  0  0
  150.2615  140.1706  154.0798 O   0  0  0  0  0  0  0  0  0  0  0  0
  148.1617  141.2820  154.2333 C   0  0  0  0  0  0  0  0  0  0  0  0
  147.1404  141.9647  155.0302 N   0  0  0  0  0  0  0  0  0  0  0  0
  146.4526  141.0199  155.9045 C   0  0  0  0  0  0  0  0  0  0  0  0
  145.3601  141.6842  156.7654 C   0  0  1  0  0  0  0  0  0  0  0  0
  145.9229  142.5403  157.9128 C   0  0  0  0  0  0  0  0  0  0  0  0
  144.4651  142.4278  155.9372 O   0  0  0  0  0  0  0  0  0  0  0  0
  145.0866  143.3678  155.0628 C   0  0  2  0  0  0  0  0  0  0  0  0
  143.9943  144.0124  154.2029 C   0  0  0  0  0  0  0  0  0  0  0  0
  146.1484  142.6523  154.2078 C   0  0  0  0  0  0  0  0  0  0  0  0
  151.2393  142.4179  157.8971 C   0  0  0  0  0  0  0  0  0  0  0  0
  150.9605  143.7787  158.1149 C   0  0  0  0  0  0  0  0  0  0  0  0
  151.4403  144.3534  159.3151 C   0  0  0  0  0  0  0  0  0  0  0  0
  152.1737  143.5780  160.2502 C   0  0  0  0  0  0  0  0  0  0  0  0
  152.4433  142.2112  160.0048 C   0  0  0  0  0  0  0  0  0  0  0  0
  151.9527  141.6646  158.8061 C   0  0  0  0  0  0  0  0  0  0  0  0
  152.3355  137.2727  159.6836 H   0  0  0  0  0  0  0  0  0  0  0  0
  151.3622  137.7128  158.2831 H   0  0  0  0  0  0  0  0  0  0  0  0
  150.9917  138.3963  159.8664 H   0  0  0  0  0  0  0  0  0  0  0  0
  153.2056  139.6086  159.8525 H   0  0  0  0  0  0  0  0  0  0  0  0
  153.5774  138.9345  158.2893 H   0  0  0  0  0  0  0  0  0  0  0  0
  149.4507  142.7414  155.9624 H   0  0  0  0  0  0  0  0  0  0  0  0
  150.8087  142.4685  154.9167 H   0  0  0  0  0  0  0  0  0  0  0  0
  149.1199  140.0825  155.7849 H   0  0  0  0  0  0  0  0  0  0  0  0
  150.1783  139.2345  154.1824 H   0  0  0  0  0  0  0  0  0  0  0  0
  148.4814  141.9470  153.4294 H   0  0  0  0  0  0  0  0  0  0  0  0
  147.7153  140.4179  153.7382 H   0  0  0  0  0  0  0  0  0  0  0  0
  145.9927  140.2374  155.2984 H   0  0  0  0  0  0  0  0  0  0  0  0
  147.1719  140.5196  156.5541 H   0  0  0  0  0  0  0  0  0  0  0  0
  144.7667  140.8920  157.2221 H   0  0  0  0  0  0  0  0  0  0  0  0
  146.5136  141.9306  158.5969 H   0  0  0  0  0  0  0  0  0  0  0  0
  145.1174  142.9963  158.4886 H   0  0  0  0  0  0  0  0  0  0  0  0
  146.5688  143.3396  157.5502 H   0  0  0  0  0  0  0  0  0  0  0  0
  145.5634  144.1506  155.6533 H   0  0  0  0  0  0  0  0  0  0  0  0
  144.4161  144.7531  153.5232 H   0  0  0  0  0  0  0  0  0  0  0  0
  143.2549  144.5164  154.8256 H   0  0  0  0  0  0  0  0  0  0  0  0
  143.4721  143.2661  153.6035 H   0  0  0  0  0  0  0  0  0  0  0  0
  146.6288  143.3933  153.5708 H   0  0  0  0  0  0  0  0  0  0  0  0
  145.6614  141.9374  153.5425 H   0  0  0  0  0  0  0  0  0  0  0  0
  150.4072  144.3666  157.3978 H   0  0  0  0  0  0  0  0  0  0  0  0
  151.2479  145.3962  159.5207 H   0  0  0  0  0  0  0  0  0  0  0  0
  152.5322  144.0373  161.1597 H   0  0  0  0  0  0  0  0  0  0  0  0
  153.0049  141.6177  160.7109 H   0  0  0  0  0  0  0  0  0  0  0  0
  1  2  1  0  0  0  0
  1 25  1  0  0  0  0
  1 26  1  0  0  0  0
  1 27  1  0  0  0  0
  2  3  1  0  0  0  0
  2 28  1  0  0  0  0
  2 29  1  0  0  0  0
  3 24  1  0  0  0  0
  3  4  1  0  0  0  0
  4  5  2  0  0  0  0
  4  6  1  0  0  0  0
  6  7  1  0  0  0  0
  6 19  1  0  0  0  0
  7  8  1  0  0  0  0
  7 30  1  0  0  0  0
  7 31  1  0  0  0  0
  8  9  1  0  0  0  0
  8 10  1  0  0  0  0
  8 32  1  0  0  0  0
  9 33  1  0  0  0  0
 10 11  1  0  0  0  0
 10 34  1  0  0  0  0
 10 35  1  0  0  0  0
 11 18  1  0  0  0  0
 11 12  1  0  0  0  0
 12 13  1  0  0  0  0
 12 36  1  0  0  0  0
 12 37  1  0  0  0  0
 13 14  1  0  0  0  0
 13 15  1  0  0  0  0
 13 38  1  0  0  0  0
 14 39  1  0  0  0  0
 14 40  1  0  0  0  0
 14 41  1  0  0  0  0
 15 16  1  0  0  0  0
 16 17  1  0  0  0  0
 16 18  1  0  0  0  0
 16 42  1  0  0  0  0
 17 43  1  0  0  0  0
 17 44  1  0  0  0  0
 17 45  1  0  0  0  0
 18 46  1  0  0  0  0
 18 47  1  0  0  0  0
 19 24  2  0  0  0  0
 19 20  1  0  0  0  0
 20 21  2  0  0  0  0
 20 48  1  0  0  0  0
 21 22  1  0  0  0  0
 21 49  1  0  0  0  0
 22 23  2  0  0  0  0
 22 50  1  0  0  0  0
 23 24  1  0  0  0  0
 23 51  1  0  0  0  0
M  END
> <s_m_source_file>
AV-unprocessed.smi

> <i_m_source_file_index>
1570

> <i_lp_mmshare_version>
43012

> <i_f3d_flags>
0

> <s_epik_input>
W2NIXTFbY0hdW2NIXVtjSF1jKGMxMiluKFtDSDJdW0NIM10pYyg9TyluMltDSDJdW0NASF0oW09IXSlbQ0gyXU4zW0NIMl1bQ0BASF0oW0NIM10pT1tDQEBIXShbQ0gzXSlbQ0gyXTM=

> <s_epik_cmdline>
J2VwaWtfcHl0aG9uJywgJy1waCcsICc3LjAnLCAnLXRuJywgJzgnLCAnLW1hJywgJzIwMCcsICctbWV0YWxfYmluZGluZycsICctaW1hZScsICc8aW5maWxlLm1hZT4nLCAnLW9tYWUnLCAnPG91dGZpbGUubWFlPic=

> <r_epik_Ionization_Penalty>
0.214359

> <r_epik_Ionization_Penalty_Charging>
2.30976e-09

> <r_epik_Ionization_Penalty_Neutral>
0.214359

> <r_epik_State_Penalty>
0.204533

> <r_epik_Charging_Adjusted_Penalty>
0.204533

> <i_epik_Tot_Q>
0

> <i_epik_Tot_abs_Q>
0

> <r_epik_Metal_State_Penalty>
0.204533

> <b_epik_Metal_Only>
0

> <s_lp_Force_Field>
OPLS_2005

> <r_lp_Energy>
63.3527

> <b_lp_Chiralities_Consistent>
1

> <s_lp_Variant>
AV-unprocessed.smi:1570-5

> <Gold.Version>
5.8.1

> <Gold.Id.Protein>
6NUR|6NUR_protein|mol2

> <Gold.PLP.Fitness>
49.6862

> <Gold.PLP.PLP>
-48.0600

> <Gold.PLP.part.hbond>
-2.0000

> <Gold.PLP.part.metal>
0.0000

> <Gold.PLP.part.buried>
-7.2592

> <Gold.PLP.part.nonpolar>
-39.8445

> <Gold.PLP.part.repulsive>
0.6722

> <Gold.PLP.ligand.clash>
0.0000

> <Gold.PLP.ligand.torsion>
0.7651

> <Gold.PLP.Chemscore.Hbond>
0.9760

> <Gold.PLP.Chemscore.CHOScore>
0.0000

> <Gold.PLP.Chemscore.Metal>
0.0000

> <Gold.Chemscore.Hbonds>
donor molecule, donor type, donor heavy atom, donor atom, acceptor molecule, acceptor atom, score
      P1  H  7989  7998       L1     9  0.98

> <Gold.PLP.Chemscore.Internal.Correction>
0.2284

> <Gold.Rescore>
     Score         DG    S(hbond)    S(metal)    S(lipo)     H(rot)  DE(clash)    DE(int)     intcor
     15.09     -17.40       0.89        0.00     121.45       2.06       0.03       2.29       ----

> <Gold.Chemscore.Fitness>
15.0875

> <Gold.Chemscore.DG>
-17.4045

> <Gold.Chemscore.ZeroCoef>
-5.4800

> <Gold.Chemscore.Hbond>
0.8926

> <Gold.Chemscore.Metal>
0.0000

> <Gold.Chemscore.Lipo>
121.4537

> <Gold.Chemscore.Internal_Hbond>
0.0000

> <Gold.Chemscore.DEClash>
0.0283

> <Gold.Chemscore.DEInternal>
2.2886

> <Gold.Chemscore.Rot>
2.0574

> <Gold.Chemscore.Internal.Correction>
   9.000000E+99

> <Gold.Chemscore.Hbonds>
donor molecule, donor type, donor heavy atom, donor atom, acceptor molecule, acceptor atom, score
      P1  H  7989  7998       L1     9  0.92

> <Gold.Chemscore.Hbond.Weighted>
-2.9813

> <Gold.Chemscore.Metal.Weighted>
-0.0000

> <Gold.Chemscore.Lipo.Weighted>
-14.2101

> <Gold.Chemscore.Internal_Hbond.Weighted>
0.0000

> <Gold.Chemscore.DEClash.Weighted>
0.0283

> <Gold.Chemscore.DEInternal.Weighted>
2.2886

> <Gold.Chemscore.Rot.Weighted>
5.2669

> <Gold.Chemscore.Internal.Correction.Weighted>
   9.000000E+99

> <Gold.Protein.RotatedTorsions>
[ 6907 6896 6895 6894 ] final  -54.49 input  -60.11 | X-H torsion
[ 7974 7965 7964 7962 ] final  -38.69 input  175.53 | X-H torsion
[ 8008 7997 7996 7995 ] final  -45.66 input   59.86 | X-H torsion
[ 10167 10162 10161 10158 ] final  176.50 input  -65.29 | X-H torsion
[ 10718 10713 10712 10709 ] final -170.69 input   66.30 | X-H torsion
[ 10763 10752 10751 10750 ] final  113.62 input  -60.55 | X-H torsion
[ 11005 11000 10999 10996 ] final   89.43 input  -57.11 | X-H torsion

> <Gold.Protein.ActiveResidues>
 VAL166  LYS551  ARG553  GLY616  TRP617  ASP618  TYR619  PRO620  LYS621  CYS622 
 ASP623  PHE694  ASN695  SER759  ASP760  ASP761  ALA762  ILE779  LEU786  VAL792 
 PHE793  MET794  SER795  GLU796  ALA797  LYS798  CYS799  TRP800  GLU811  SER814 

> <Gold.Protein.RotatedAtoms>
  150.8334  134.7597  159.6872 H   0  0  0  0  0  0  0  0  0  0  0  0  # atno 6907 bound_to 6896
  152.4435  134.5540  159.9885 H   0  0  0  0  0  0  0  0  0  0  0  0  # atno 6908 bound_to 6896
  151.5696  133.3354  159.3023 H   0  0  0  0  0  0  0  0  0  0  0  0  # atno 6909 bound_to 6896
  146.0464  140.6541  142.9063 H   0  0  0  0  0  0  0  0  0  0  0  0  # atno 7974 bound_to 7965
  154.4002  140.1391  156.3884 H   0  0  0  0  0  0  0  0  0  0  0  0  # atno 8008 bound_to 7997
  155.7937  140.3478  155.5343 H   0  0  0  0  0  0  0  0  0  0  0  0  # atno 8009 bound_to 7997
  155.8553  140.0948  157.1639 H   0  0  0  0  0  0  0  0  0  0  0  0  # atno 8010 bound_to 7997
  139.5217  144.2907  152.0466 H   0  0  0  0  0  0  0  0  0  0  0  0  # atno 10167 bound_to 10162
  156.7299  130.9302  151.3103 H   0  0  0  0  0  0  0  0  0  0  0  0  # atno 10718 bound_to 10713
  153.4952  135.3650  155.2512 H   0  0  0  0  0  0  0  0  0  0  0  0  # atno 10763 bound_to 10752
  154.8750  135.3987  154.3542 H   0  0  0  0  0  0  0  0  0  0  0  0  # atno 10764 bound_to 10752
  153.4169  135.7079  153.6387 H   0  0  0  0  0  0  0  0  0  0  0  0  # atno 10765 bound_to 10752
  139.8875  134.8551  156.3141 H   0  0  0  0  0  0  0  0  0  0  0  0  # atno 11005 bound_to 11000
  144.7100  140.4001  143.7088 LP  0  0  0  0  0  0  0  0  0  0  0  0  # atno 17320 bound_to 7965
  145.6799  139.1616  143.2707 LP  0  0  0  0  0  0  0  0  0  0  0  0  # atno 17321 bound_to 7965
  140.2359  144.4320  150.6280 LP  0  0  0  0  0  0  0  0  0  0  0  0  # atno 17342 bound_to 10162
  140.6324  143.2189  151.6467 LP  0  0  0  0  0  0  0  0  0  0  0  0  # atno 17343 bound_to 10162
  157.6863  130.9189  150.0395 LP  0  0  0  0  0  0  0  0  0  0  0  0  # atno 17370 bound_to 10713
  156.1536  130.3643  149.9402 LP  0  0  0  0  0  0  0  0  0  0  0  0  # atno 17371 bound_to 10713
  140.9830  133.7255  156.0700 LP  0  0  0  0  0  0  0  0  0  0  0  0  # atno 17394 bound_to 11000
  140.7724  134.3817  157.5505 LP  0  0  0  0  0  0  0  0  0  0  0  0  # atno 17395 bound_to 11000

$$$$
