AV-unprocessed.smi:3145|AV-procd|sdf|11980|dock2
  -GOLD-   2272017383D 1   1.00000     0.00000
 Structure written by MMmdl.
 35 35  0  0  0  0  0  0  0  0  2 V2000
  145.7763  136.4031  150.6373 C   0  0  0  0  0  0  0  0  0  0  0  0
  145.7344  135.9675  152.1083 C   0  0  1  0  0  0  0  0  0  0  0  0
  146.1178  134.4786  152.2454 C   0  0  0  0  0  0  0  0  0  0  0  0
  145.4242  133.6240  151.2986 N   0  0  0  0  0  0  0  0  0  0  0  0
  145.9564  132.6801  150.4457 C   0  0  0  0  0  0  0  0  0  0  0  0
  144.9190  132.1396  149.7413 C   0  0  0  0  0  0  0  0  0  0  0  0
  143.7760  132.8229  150.2424 C   0  0  0  0  0  0  0  0  0  0  0  0
  144.0819  133.7121  151.1738 N   0  0  0  0  0  0  0  0  0  0  0  0
  146.6400  136.8302  152.9008 N   0  3  0  0  0  0  0  0  0  0  0  0
  146.4005  138.2835  152.7676 C   0  0  0  0  0  0  0  0  0  0  0  0
  147.6124  139.1007  153.2150 C   0  0  0  0  0  0  0  0  0  0  0  0
  147.5470  140.3285  153.2833 O   0  0  0  0  0  0  0  0  0  0  0  0
  148.7132  138.4046  153.5324 N   0  0  0  0  0  0  0  0  0  0  0  0
  149.9619  139.0023  153.9856 C   0  0  0  0  0  0  0  0  0  0  0  0
  151.0458  137.9310  154.1444 C   0  0  0  0  0  0  0  0  0  0  0  0
  152.3251  138.4852  154.6131 C   0  0  0  0  0  0  0  0  0  0  0  0
  153.3312  138.9211  154.9816 N   0  0  0  0  0  0  0  0  0  0  0  0
  145.0976  135.8030  150.0304 H   0  0  0  0  0  0  0  0  0  0  0  0
  146.7778  136.2958  150.2187 H   0  0  0  0  0  0  0  0  0  0  0  0
  145.4784  137.4464  150.5264 H   0  0  0  0  0  0  0  0  0  0  0  0
  144.7097  136.1053  152.4581 H   0  0  0  0  0  0  0  0  0  0  0  0
  147.1888  134.3531  152.0803 H   0  0  0  0  0  0  0  0  0  0  0  0
  145.9192  134.1226  153.2580 H   0  0  0  0  0  0  0  0  0  0  0  0
  147.0165  132.4756  150.4093 H   0  0  0  0  0  0  0  0  0  0  0  0
  144.9687  131.3704  148.9848 H   0  0  0  0  0  0  0  0  0  0  0  0
  142.7409  132.7007  149.9584 H   0  0  0  0  0  0  0  0  0  0  0  0
  146.5605  136.5725  153.8743 H   0  0  0  0  0  0  0  0  0  0  0  0
  146.1814  138.5193  151.7257 H   0  0  0  0  0  0  0  0  0  0  0  0
  145.5300  138.5768  153.3544 H   0  0  0  0  0  0  0  0  0  0  0  0
  148.6864  137.3980  153.4538 H   0  0  0  0  0  0  0  0  0  0  0  0
  150.2900  139.7577  153.2696 H   0  0  0  0  0  0  0  0  0  0  0  0
  149.7952  139.5090  154.9373 H   0  0  0  0  0  0  0  0  0  0  0  0
  150.7304  137.1706  154.8591 H   0  0  0  0  0  0  0  0  0  0  0  0
  151.2292  137.4293  153.1940 H   0  0  0  0  0  0  0  0  0  0  0  0
  147.5892  136.6550  152.6032 H   0  0  0  0  0  0  0  0  0  0  0  0
  1  2  1  0  0  0  0
  1 18  1  0  0  0  0
  1 19  1  0  0  0  0
  1 20  1  0  0  0  0
  2  3  1  0  0  0  0
  2  9  1  0  0  0  0
  2 21  1  0  0  0  0
  3  4  1  0  0  0  0
  3 22  1  0  0  0  0
  3 23  1  0  0  0  0
  4  8  1  0  0  0  0
  4  5  1  0  0  0  0
  5  6  2  0  0  0  0
  5 24  1  0  0  0  0
  6  7  1  0  0  0  0
  6 25  1  0  0  0  0
  7  8  2  0  0  0  0
  7 26  1  0  0  0  0
  9 10  1  0  0  0  0
  9 27  1  0  0  0  0
  9 35  1  0  0  0  0
 10 11  1  0  0  0  0
 10 28  1  0  0  0  0
 10 29  1  0  0  0  0
 11 12  2  0  0  0  0
 11 13  1  0  0  0  0
 13 14  1  0  0  0  0
 13 30  1  0  0  0  0
 14 15  1  0  0  0  0
 14 31  1  0  0  0  0
 14 32  1  0  0  0  0
 15 16  1  0  0  0  0
 15 33  1  0  0  0  0
 15 34  1  0  0  0  0
 16 17  3  0  0  0  0
M  CHG  1   9   1
M  END
> <s_m_source_file>
AV-unprocessed.smi

> <i_m_source_file_index>
3145

> <i_lp_mmshare_version>
43012

> <i_f3d_flags>
0

> <s_epik_input>
bjFbY0hdW2NIXVtjSF1uMVtDSDJdW0NAQEhdKFtDSDNdKVtOSF1bQ0gyXUMoPU8pW05IXVtDSDJdW0NIMl1DI04=

> <s_epik_cmdline>
J2VwaWtfcHl0aG9uJywgJy1waCcsICc3LjAnLCAnLXRuJywgJzgnLCAnLW1hJywgJzIwMCcsICctbWV0YWxfYmluZGluZycsICctaW1hZScsICc8aW5maWxlLm1hZT4nLCAnLW9tYWUnLCAnPG91dGZpbGUubWFlPic=

> <r_lp_tautomer_probability>
1

> <r_epik_Ionization_Penalty>
0.190162

> <r_epik_Ionization_Penalty_Charging>
0.190142

> <r_epik_Ionization_Penalty_Neutral>
2.0165e-05

> <r_epik_State_Penalty>
0.179787

> <r_epik_Charging_Adjusted_Penalty>
0.369929

> <i_epik_Tot_Q>
1

> <i_epik_Tot_abs_Q>
1

> <r_epik_Metal_State_Penalty>
0.191786

> <b_epik_Metal_Only>
0

> <s_lp_Force_Field>
OPLS_2005

> <r_lp_Energy>
4.60732

> <b_lp_Chiralities_Consistent>
1

> <s_lp_Variant>
AV-unprocessed.smi:3145-2

> <Gold.Version>
5.8.1

> <Gold.Id.Protein>
6NUR|6NUR_protein|mol2

> <Gold.PLP.Fitness>
50.2954

> <Gold.PLP.PLP>
-33.9074

> <Gold.PLP.part.hbond>
-3.7752

> <Gold.PLP.part.metal>
0.0000

> <Gold.PLP.part.buried>
-2.5986

> <Gold.PLP.part.nonpolar>
-28.7147

> <Gold.PLP.part.repulsive>
0.3807

> <Gold.PLP.ligand.clash>
0.0000

> <Gold.PLP.ligand.torsion>
0.2981

> <Gold.PLP.Chemscore.Hbond>
3.6240

> <Gold.PLP.Chemscore.CHOScore>
1.9894

> <Gold.PLP.Chemscore.Metal>
0.0000

> <Gold.Chemscore.Hbonds>
donor molecule, donor type, donor heavy atom, donor atom, acceptor molecule, acceptor atom, score
      L1  H     9    35       P1  7948  2.00
      L1  H    13    30       P1  7948  0.59
      P1  H  7997  8008       L1    17  1.00
      L1  C     5    24       P1 10747  0.98
      L1  C     7    26       P1 10186  1.00

> <Gold.PLP.Chemscore.Internal.Correction>
0.1441

> <Gold.Rescore>
     Score         DG    S(hbond)    S(metal)    S(lipo)     H(rot)  DE(clash)    DE(int)     intcor
     14.31     -14.77       2.62        0.00      67.84       2.89       0.07       0.40       ----

> <Gold.Chemscore.Fitness>
14.3119

> <Gold.Chemscore.DG>
-14.7745

> <Gold.Chemscore.ZeroCoef>
-5.4800

> <Gold.Chemscore.Hbond>
2.6209

> <Gold.Chemscore.Metal>
0.0000

> <Gold.Chemscore.Lipo>
67.8420

> <Gold.Chemscore.Internal_Hbond>
0.0000

> <Gold.Chemscore.DEClash>
0.0659

> <Gold.Chemscore.DEInternal>
0.3966

> <Gold.Chemscore.Rot>
2.8894

> <Gold.Chemscore.Internal.Correction>
   9.000000E+99

> <Gold.Chemscore.Hbonds>
donor molecule, donor type, donor heavy atom, donor atom, acceptor molecule, acceptor atom, score
      L1  H     9    35       P1  7948  0.99
      L1  H    13    30       P1  7948  0.57
      P1  H  7997  8008       L1    17  0.98

> <Gold.Chemscore.Hbond.Weighted>
-8.7538

> <Gold.Chemscore.Metal.Weighted>
-0.0000

> <Gold.Chemscore.Lipo.Weighted>
-7.9375

> <Gold.Chemscore.Internal_Hbond.Weighted>
0.0000

> <Gold.Chemscore.DEClash.Weighted>
0.0659

> <Gold.Chemscore.DEInternal.Weighted>
0.3966

> <Gold.Chemscore.Rot.Weighted>
7.3968

> <Gold.Chemscore.Internal.Correction.Weighted>
   9.000000E+99

> <Gold.Protein.RotatedTorsions>
[ 6907 6896 6895 6894 ] final   60.20 input  -60.11 | X-H torsion
[ 7974 7965 7964 7962 ] final -175.33 input  175.53 | X-H torsion
[ 8008 7997 7996 7995 ] final   -8.71 input   59.86 | X-H torsion
[ 10167 10162 10161 10158 ] final   62.74 input  -65.29 | X-H torsion
[ 10718 10713 10712 10709 ] final -121.28 input   66.30 | X-H torsion
[ 10763 10752 10751 10750 ] final  -94.07 input  -60.55 | X-H torsion
[ 11005 11000 10999 10996 ] final    3.42 input  -57.11 | X-H torsion

> <Gold.Protein.ActiveResidues>
 VAL166  LYS551  ARG553  GLY616  TRP617  ASP618  TYR619  PRO620  LYS621  CYS622 
 ASP623  PHE694  ASN695  SER759  ASP760  ASP761  ALA762  ILE779  LEU786  VAL792 
 PHE793  MET794  SER795  GLU796  ALA797  LYS798  CYS799  TRP800  GLU811  SER814 

> <Gold.Protein.RotatedAtoms>
  152.3982  134.6331  160.0080 H   0  0  0  0  0  0  0  0  0  0  0  0  # atno 6907 bound_to 6896
  151.6544  133.3314  159.3167 H   0  0  0  0  0  0  0  0  0  0  0  0  # atno 6908 bound_to 6896
  150.7886  134.6934  159.6554 H   0  0  0  0  0  0  0  0  0  0  0  0  # atno 6909 bound_to 6896
  144.7128  140.1337  143.6397 H   0  0  0  0  0  0  0  0  0  0  0  0  # atno 7974 bound_to 7965
  154.5715  140.2374  155.8185 H   0  0  0  0  0  0  0  0  0  0  0  0  # atno 8008 bound_to 7997
  156.2110  140.3026  155.9691 H   0  0  0  0  0  0  0  0  0  0  0  0  # atno 8009 bound_to 7997
  155.2704  140.0418  157.2997 H   0  0  0  0  0  0  0  0  0  0  0  0  # atno 8010 bound_to 7997
  140.1406  144.4557  150.6813 H   0  0  0  0  0  0  0  0  0  0  0  0  # atno 10167 bound_to 10162
  156.1325  130.6406  150.9643 H   0  0  0  0  0  0  0  0  0  0  0  0  # atno 10718 bound_to 10713
  154.7020  135.5171  153.8541 H   0  0  0  0  0  0  0  0  0  0  0  0  # atno 10763 bound_to 10752
  153.0712  135.6601  154.0253 H   0  0  0  0  0  0  0  0  0  0  0  0  # atno 10764 bound_to 10752
  154.0111  135.3002  155.3372 H   0  0  0  0  0  0  0  0  0  0  0  0  # atno 10765 bound_to 10752
  140.5933  133.9903  155.8099 H   0  0  0  0  0  0  0  0  0  0  0  0  # atno 11005 bound_to 11000
  145.9264  139.2578  143.1351 LP  0  0  0  0  0  0  0  0  0  0  0  0  # atno 17320 bound_to 7965
  145.9568  140.8867  143.0231 LP  0  0  0  0  0  0  0  0  0  0  0  0  # atno 17321 bound_to 7965
  140.6762  143.2306  151.5500 LP  0  0  0  0  0  0  0  0  0  0  0  0  # atno 17342 bound_to 10162
  139.5474  144.2485  152.1467 LP  0  0  0  0  0  0  0  0  0  0  0  0  # atno 17343 bound_to 10162
  157.6501  131.0898  150.8069 LP  0  0  0  0  0  0  0  0  0  0  0  0  # atno 17370 bound_to 10713
  156.8152  130.4966  149.5350 LP  0  0  0  0  0  0  0  0  0  0  0  0  # atno 17371 bound_to 10713
  141.0920  133.9901  157.3221 LP  0  0  0  0  0  0  0  0  0  0  0  0  # atno 17394 bound_to 11000
  139.9264  135.0201  156.8250 LP  0  0  0  0  0  0  0  0  0  0  0  0  # atno 17395 bound_to 11000

$$$$
