AV-unprocessed.smi:1925|AV-procd|sdf|7792|dock4
  -GOLD-   22720 9533D 1   1.00000     0.00000
 Structure written by MMmdl.
 31 32  0  0  0  0  0  0  0  0  1 V2000
  150.6053  140.6033  156.2481 O   0  0  0  0  0  0  0  0  0  0  0  0
  150.2223  141.7675  156.1276 C   0  0  0  0  0  0  0  0  0  0  0  0
  149.3936  142.1752  155.1556 N   0  0  0  0  0  0  0  0  0  0  0  0
  148.8352  141.3180  154.1149 C   0  0  0  0  0  0  0  0  0  0  0  0
  147.3041  141.4543  154.0074 C   0  0  2  0  0  0  0  0  0  0  0  0
  146.8018  142.8732  153.7828 C   0  0  0  0  0  0  0  0  0  0  0  0
  145.4264  142.8911  154.4592 C   0  0  0  0  0  0  0  0  0  0  0  0
  145.2727  141.6201  155.0814 O   0  0  0  0  0  0  0  0  0  0  0  0
  146.5589  141.0567  155.2769 C   0  0  0  0  0  0  0  0  0  0  0  0
  150.5658  142.7880  156.9332 N   0  0  0  0  0  0  0  0  0  0  0  0
  151.4335  142.7660  158.0575 C   0  0  0  0  0  0  0  0  0  0  0  0
  151.6527  144.0211  158.6691 C   0  0  0  0  0  0  0  0  0  0  0  0
  152.4996  144.1072  159.7910 C   0  0  0  0  0  0  0  0  0  0  0  0
  153.1072  142.9341  160.2730 C   0  0  0  0  0  0  0  0  0  0  0  0
  152.8367  141.7251  159.6057 C   0  0  0  0  0  0  0  0  0  0  0  0
  152.0250  141.6406  158.5307 N   0  0  0  0  0  0  0  0  0  0  0  0
  149.1290  143.1489  155.1319 H   0  0  0  0  0  0  0  0  0  0  0  0
  149.3028  141.5465  153.1557 H   0  0  0  0  0  0  0  0  0  0  0  0
  149.1035  140.2873  154.3487 H   0  0  0  0  0  0  0  0  0  0  0  0
  146.9372  140.8259  153.1943 H   0  0  0  0  0  0  0  0  0  0  0  0
  147.4584  143.5990  154.2647 H   0  0  0  0  0  0  0  0  0  0  0  0
  146.7481  143.1241  152.7229 H   0  0  0  0  0  0  0  0  0  0  0  0
  145.3756  143.6788  155.2115 H   0  0  0  0  0  0  0  0  0  0  0  0
  144.6201  143.0535  153.7437 H   0  0  0  0  0  0  0  0  0  0  0  0
  146.5067  139.9765  155.4153 H   0  0  0  0  0  0  0  0  0  0  0  0
  147.0189  141.4981  156.1626 H   0  0  0  0  0  0  0  0  0  0  0  0
  150.1620  143.6867  156.7151 H   0  0  0  0  0  0  0  0  0  0  0  0
  151.1781  144.9128  158.2858 H   0  0  0  0  0  0  0  0  0  0  0  0
  152.6792  145.0570  160.2726 H   0  0  0  0  0  0  0  0  0  0  0  0
  153.7629  142.9598  161.1308 H   0  0  0  0  0  0  0  0  0  0  0  0
  153.2835  140.8015  159.9429 H   0  0  0  0  0  0  0  0  0  0  0  0
  1  2  2  0  0  0  0
  2  3  1  0  0  0  0
  2 10  1  0  0  0  0
  3  4  1  0  0  0  0
  3 17  1  0  0  0  0
  4  5  1  0  0  0  0
  4 18  1  0  0  0  0
  4 19  1  0  0  0  0
  5  9  1  0  0  0  0
  5  6  1  0  0  0  0
  5 20  1  0  0  0  0
  6  7  1  0  0  0  0
  6 21  1  0  0  0  0
  6 22  1  0  0  0  0
  7  8  1  0  0  0  0
  7 23  1  0  0  0  0
  7 24  1  0  0  0  0
  8  9  1  0  0  0  0
  9 25  1  0  0  0  0
  9 26  1  0  0  0  0
 10 11  1  0  0  0  0
 10 27  1  0  0  0  0
 11 16  1  0  0  0  0
 11 12  2  0  0  0  0
 12 13  1  0  0  0  0
 12 28  1  0  0  0  0
 13 14  2  0  0  0  0
 13 29  1  0  0  0  0
 14 15  1  0  0  0  0
 14 30  1  0  0  0  0
 15 16  2  0  0  0  0
 15 31  1  0  0  0  0
M  END
> <s_m_source_file>
AV-unprocessed.smi

> <i_m_source_file_index>
1925

> <i_lp_mmshare_version>
43012

> <i_f3d_flags>
0

> <s_epik_input>
bjFbY0hdW2NIXVtjSF1bY0hdYzFbTkhdQyg9TylbTkhdW0NIMl1bQ0BASF0yW0NIMl1bQ0gyXU9bQ0gyXTI=

> <s_epik_cmdline>
J2VwaWtfcHl0aG9uJywgJy1waCcsICc3LjAnLCAnLXRuJywgJzgnLCAnLW1hJywgJzIwMCcsICctbWV0YWxfYmluZGluZycsICctaW1hZScsICc8aW5maWxlLm1hZT4nLCAnLW9tYWUnLCAnPG91dGZpbGUubWFlPic=

> <r_lp_tautomer_probability>
1

> <r_epik_Ionization_Penalty>
4.81143e-05

> <r_epik_Ionization_Penalty_Charging>
0

> <r_epik_Ionization_Penalty_Neutral>
4.81143e-05

> <r_epik_State_Penalty>
-0

> <r_epik_Charging_Adjusted_Penalty>
0

> <i_epik_Tot_Q>
0

> <i_epik_Tot_abs_Q>
0

> <r_epik_Metal_State_Penalty>
-0

> <b_epik_Metal_Only>
0

> <s_lp_Force_Field>
OPLS_2005

> <r_lp_Energy>
20.9741

> <b_lp_Chiralities_Consistent>
1

> <s_lp_Variant>
AV-unprocessed.smi:1925-1

> <Gold.Version>
5.8.1

> <Gold.Id.Protein>
6NUR|6NUR_protein|mol2

> <Gold.PLP.Fitness>
41.4583

> <Gold.PLP.PLP>
-35.5672

> <Gold.PLP.part.hbond>
-2.0000

> <Gold.PLP.part.metal>
0.0000

> <Gold.PLP.part.buried>
-4.1677

> <Gold.PLP.part.nonpolar>
-29.4399

> <Gold.PLP.part.repulsive>
0.4174

> <Gold.PLP.ligand.clash>
0.0000

> <Gold.PLP.ligand.torsion>
0.0438

> <Gold.PLP.Chemscore.Hbond>
1.9920

> <Gold.PLP.Chemscore.CHOScore>
0.0000

> <Gold.PLP.Chemscore.Metal>
0.0000

> <Gold.Chemscore.Hbonds>
donor molecule, donor type, donor heavy atom, donor atom, acceptor molecule, acceptor atom, score
      L1  H     3    17       P1  8028  1.00
      L1  H    10    27       P1  8028  0.99

> <Gold.PLP.Chemscore.Internal.Correction>
0.0027

> <Gold.Rescore>
     Score         DG    S(hbond)    S(metal)    S(lipo)     H(rot)  DE(clash)    DE(int)     intcor
     16.67     -18.01       1.96        0.00      78.99       1.27       0.01       1.32       ----

> <Gold.Chemscore.Fitness>
16.6750

> <Gold.Chemscore.DG>
-18.0104

> <Gold.Chemscore.ZeroCoef>
-5.4800

> <Gold.Chemscore.Hbond>
1.9562

> <Gold.Chemscore.Metal>
0.0000

> <Gold.Chemscore.Lipo>
78.9943

> <Gold.Chemscore.Internal_Hbond>
0.0000

> <Gold.Chemscore.DEClash>
0.0128

> <Gold.Chemscore.DEInternal>
1.3227

> <Gold.Chemscore.Rot>
1.2678

> <Gold.Chemscore.Internal.Correction>
   9.000000E+99

> <Gold.Chemscore.Hbonds>
donor molecule, donor type, donor heavy atom, donor atom, acceptor molecule, acceptor atom, score
      L1  H     3    17       P1  8028  1.00
      L1  H    10    27       P1  8028  0.93

> <Gold.Chemscore.Hbond.Weighted>
-6.5336

> <Gold.Chemscore.Metal.Weighted>
-0.0000

> <Gold.Chemscore.Lipo.Weighted>
-9.2423

> <Gold.Chemscore.Internal_Hbond.Weighted>
0.0000

> <Gold.Chemscore.DEClash.Weighted>
0.0128

> <Gold.Chemscore.DEInternal.Weighted>
1.3227

> <Gold.Chemscore.Rot.Weighted>
3.2455

> <Gold.Chemscore.Internal.Correction.Weighted>
   9.000000E+99

> <Gold.Protein.RotatedTorsions>
[ 6907 6896 6895 6894 ] final  111.44 input  -60.11 | X-H torsion
[ 7974 7965 7964 7962 ] final -132.92 input  175.53 | X-H torsion
[ 8008 7997 7996 7995 ] final    5.94 input   59.86 | X-H torsion
[ 10167 10162 10161 10158 ] final  -15.15 input  -65.29 | X-H torsion
[ 10718 10713 10712 10709 ] final   75.66 input   66.30 | X-H torsion
[ 10763 10752 10751 10750 ] final -173.54 input  -60.55 | X-H torsion
[ 11005 11000 10999 10996 ] final  160.38 input  -57.11 | X-H torsion

> <Gold.Protein.ActiveResidues>
 VAL166  LYS551  ARG553  GLY616  TRP617  ASP618  TYR619  PRO620  LYS621  CYS622 
 ASP623  PHE694  ASN695  SER759  ASP760  ASP761  ALA762  ILE779  LEU786  VAL792 
 PHE793  MET794  SER795  GLU796  ALA797  LYS798  CYS799  TRP800  GLU811  SER814 

> <Gold.Protein.RotatedAtoms>
  152.4969  133.8658  159.7272 H   0  0  0  0  0  0  0  0  0  0  0  0  # atno 6907 bound_to 6896
  150.9157  133.6933  159.2850 H   0  0  0  0  0  0  0  0  0  0  0  0  # atno 6908 bound_to 6896
  151.4327  135.1015  159.9699 H   0  0  0  0  0  0  0  0  0  0  0  0  # atno 6909 bound_to 6896
  144.9240  140.7049  143.4947 H   0  0  0  0  0  0  0  0  0  0  0  0  # atno 7974 bound_to 7965
  154.7347  140.2737  155.6425 H   0  0  0  0  0  0  0  0  0  0  0  0  # atno 8008 bound_to 7997
  156.2859  140.2709  156.1983 H   0  0  0  0  0  0  0  0  0  0  0  0  # atno 8009 bound_to 7997
  155.0336  140.0371  157.2473 H   0  0  0  0  0  0  0  0  0  0  0  0  # atno 8010 bound_to 7997
  140.7213  143.5248  150.9590 H   0  0  0  0  0  0  0  0  0  0  0  0  # atno 10167 bound_to 10162
  157.6643  130.9737  150.1385 H   0  0  0  0  0  0  0  0  0  0  0  0  # atno 10718 bound_to 10713
  154.6067  135.2860  155.0477 H   0  0  0  0  0  0  0  0  0  0  0  0  # atno 10763 bound_to 10752
  154.1722  135.6470  153.5016 H   0  0  0  0  0  0  0  0  0  0  0  0  # atno 10764 bound_to 10752
  153.0178  135.5403  154.6806 H   0  0  0  0  0  0  0  0  0  0  0  0  # atno 10765 bound_to 10752
  140.2053  134.8307  157.3063 H   0  0  0  0  0  0  0  0  0  0  0  0  # atno 11005 bound_to 11000
  145.3249  139.1777  143.4568 LP  0  0  0  0  0  0  0  0  0  0  0  0  # atno 17320 bound_to 7965
  146.3218  140.3271  142.8637 LP  0  0  0  0  0  0  0  0  0  0  0  0  # atno 17321 bound_to 7965
  139.8966  143.6887  152.3137 LP  0  0  0  0  0  0  0  0  0  0  0  0  # atno 17342 bound_to 10162
  139.7222  144.7600  151.0937 LP  0  0  0  0  0  0  0  0  0  0  0  0  # atno 17343 bound_to 10162
  156.2213  130.3674  149.8552 LP  0  0  0  0  0  0  0  0  0  0  0  0  # atno 17370 bound_to 10713
  156.6404  130.8702  151.3513 LP  0  0  0  0  0  0  0  0  0  0  0  0  # atno 17371 bound_to 10713
  140.2009  134.4256  155.7663 LP  0  0  0  0  0  0  0  0  0  0  0  0  # atno 17394 bound_to 11000
  141.2227  133.7071  156.8182 LP  0  0  0  0  0  0  0  0  0  0  0  0  # atno 17395 bound_to 11000

$$$$
