AV-unprocessed.smi:153|AV-procd|sdf|1259|dock6
  -GOLD-   2262018503D 1   1.00000     0.00000
 Structure written by MMmdl.
 59 62  0  0  0  0  0  0  0  0  1 V2000
  150.8660  144.4564  158.1120 C   0  0  0  0  0  0  0  0  0  0  0  0
  151.8793  143.3098  158.2571 C   0  0  1  0  0  0  0  0  0  0  0  0
  152.6813  143.5235  159.4122 O   0  0  0  0  0  0  0  0  0  0  0  0
  153.2003  142.2695  159.8158 C   0  0  0  0  0  0  0  0  0  0  0  0
  151.9896  141.3598  159.6761 C   0  0  0  0  0  0  0  0  0  0  0  0
  151.3019  141.8752  158.4072 C   0  0  1  0  0  0  0  0  0  0  0  0
  149.9024  141.8829  158.6376 O   0  0  0  0  0  0  0  0  0  0  0  0
  151.5893  141.0223  157.1436 C   0  0  0  0  0  0  0  0  0  0  0  0
  151.1896  139.6278  157.2630 N   0  0  0  0  0  0  0  0  0  0  0  0
  150.7052  139.0042  158.3876 C   0  0  0  0  0  0  0  0  0  0  0  0
  150.4279  137.7396  158.2401 N   0  0  0  0  0  0  0  0  0  0  0  0
  150.7255  137.4609  156.9091 C   0  0  0  0  0  0  0  0  0  0  0  0
  150.6698  136.2923  156.0833 C   0  0  0  0  0  0  0  0  0  0  0  0
  150.2938  135.0443  156.4991 N   0  0  0  0  0  0  0  0  0  0  0  0
  149.1525  134.9218  157.4046 C   0  0  0  0  0  0  0  0  0  0  0  0
  150.6372  133.8634  155.7076 C   0  0  0  0  0  0  0  0  0  0  0  0
  150.7552  132.5779  156.5593 C   0  0  2  0  0  0  0  0  0  0  0  0
  151.6649  132.7732  157.6227 O   0  0  0  0  0  0  0  0  0  0  0  0
  151.1689  131.3283  155.7500 C   0  0  0  0  0  0  0  0  0  0  0  0
  150.0862  130.4872  155.2327 N   0  0  0  0  0  0  0  0  0  0  0  0
  150.6199  129.2793  154.6116 C   0  0  0  0  0  0  0  0  0  0  0  0
  149.5061  128.3723  154.0619 C   0  0  0  0  0  0  0  0  0  0  0  0
  148.7111  129.1043  153.1356 O   0  0  0  0  0  0  0  0  0  0  0  0
  148.1304  130.2688  153.7128 C   0  0  0  0  0  0  0  0  0  0  0  0
  149.2390  131.1813  154.2656 C   0  0  0  0  0  0  0  0  0  0  0  0
  151.0338  136.4540  154.7812 N   0  0  0  0  0  0  0  0  0  0  0  0
  151.4392  137.6383  154.3180 C   0  0  0  0  0  0  0  0  0  0  0  0
  151.5599  138.7908  154.9746 N   0  0  0  0  0  0  0  0  0  0  0  0
  151.1879  138.6544  156.2783 C   0  0  0  0  0  0  0  0  0  0  0  0
  150.2354  144.3157  157.2338 H   0  0  0  0  0  0  0  0  0  0  0  0
  151.3788  145.4119  158.0006 H   0  0  0  0  0  0  0  0  0  0  0  0
  150.2190  144.5317  158.9866 H   0  0  0  0  0  0  0  0  0  0  0  0
  152.5566  143.3414  157.4020 H   0  0  0  0  0  0  0  0  0  0  0  0
  154.0037  141.9630  159.1439 H   0  0  0  0  0  0  0  0  0  0  0  0
  153.5890  142.3024  160.8337 H   0  0  0  0  0  0  0  0  0  0  0  0
  152.2615  140.3058  159.6507 H   0  0  0  0  0  0  0  0  0  0  0  0
  151.3493  141.5050  160.5482 H   0  0  0  0  0  0  0  0  0  0  0  0
  149.5411  141.0753  158.3057 H   0  0  0  0  0  0  0  0  0  0  0  0
  151.0749  141.4481  156.2808 H   0  0  0  0  0  0  0  0  0  0  0  0
  152.6533  141.0510  156.9056 H   0  0  0  0  0  0  0  0  0  0  0  0
  150.5704  139.5164  159.3294 H   0  0  0  0  0  0  0  0  0  0  0  0
  149.3255  135.4797  158.3255 H   0  0  0  0  0  0  0  0  0  0  0  0
  148.9783  133.8817  157.6804 H   0  0  0  0  0  0  0  0  0  0  0  0
  148.2439  135.2983  156.9331 H   0  0  0  0  0  0  0  0  0  0  0  0
  149.9050  133.7434  154.9126 H   0  0  0  0  0  0  0  0  0  0  0  0
  151.5733  134.0387  155.1761 H   0  0  0  0  0  0  0  0  0  0  0  0
  149.7938  132.3469  157.0192 H   0  0  0  0  0  0  0  0  0  0  0  0
  152.5087  132.9901  157.2572 H   0  0  0  0  0  0  0  0  0  0  0  0
  151.8475  131.6103  154.9433 H   0  0  0  0  0  0  0  0  0  0  0  0
  151.7682  130.7162  156.4253 H   0  0  0  0  0  0  0  0  0  0  0  0
  151.2980  129.5491  153.8004 H   0  0  0  0  0  0  0  0  0  0  0  0
  151.2104  128.7196  155.3380 H   0  0  0  0  0  0  0  0  0  0  0  0
  149.9356  127.5066  153.5573 H   0  0  0  0  0  0  0  0  0  0  0  0
  148.8799  127.9947  154.8717 H   0  0  0  0  0  0  0  0  0  0  0  0
  147.5513  130.7934  152.9529 H   0  0  0  0  0  0  0  0  0  0  0  0
  147.4360  129.9833  154.5046 H   0  0  0  0  0  0  0  0  0  0  0  0
  148.7712  132.0497  154.7269 H   0  0  0  0  0  0  0  0  0  0  0  0
  149.8474  131.5524  153.4395 H   0  0  0  0  0  0  0  0  0  0  0  0
  151.7110  137.6634  153.2730 H   0  0  0  0  0  0  0  0  0  0  0  0
  1  2  1  0  0  0  0
  1 30  1  0  0  0  0
  1 31  1  0  0  0  0
  1 32  1  0  0  0  0
  2  6  1  0  0  0  0
  2  3  1  0  0  0  0
  2 33  1  0  0  0  0
  3  4  1  0  0  0  0
  4  5  1  0  0  0  0
  4 34  1  0  0  0  0
  4 35  1  0  0  0  0
  5  6  1  0  0  0  0
  5 36  1  0  0  0  0
  5 37  1  0  0  0  0
  6  7  1  0  0  0  0
  6  8  1  0  0  0  0
  7 38  1  0  0  0  0
  8  9  1  0  0  0  0
  8 39  1  0  0  0  0
  8 40  1  0  0  0  0
  9 29  1  0  0  0  0
  9 10  1  0  0  0  0
 10 11  2  0  0  0  0
 10 41  1  0  0  0  0
 11 12  1  0  0  0  0
 12 29  2  0  0  0  0
 12 13  1  0  0  0  0
 13 14  1  0  0  0  0
 13 26  2  0  0  0  0
 14 15  1  0  0  0  0
 14 16  1  0  0  0  0
 15 42  1  0  0  0  0
 15 43  1  0  0  0  0
 15 44  1  0  0  0  0
 16 17  1  0  0  0  0
 16 45  1  0  0  0  0
 16 46  1  0  0  0  0
 17 18  1  0  0  0  0
 17 19  1  0  0  0  0
 17 47  1  0  0  0  0
 18 48  1  0  0  0  0
 19 20  1  0  0  0  0
 19 49  1  0  0  0  0
 19 50  1  0  0  0  0
 20 25  1  0  0  0  0
 20 21  1  0  0  0  0
 21 22  1  0  0  0  0
 21 51  1  0  0  0  0
 21 52  1  0  0  0  0
 22 23  1  0  0  0  0
 22 53  1  0  0  0  0
 22 54  1  0  0  0  0
 23 24  1  0  0  0  0
 24 25  1  0  0  0  0
 24 55  1  0  0  0  0
 24 56  1  0  0  0  0
 25 57  1  0  0  0  0
 25 58  1  0  0  0  0
 26 27  1  0  0  0  0
 27 28  2  0  0  0  0
 27 59  1  0  0  0  0
 28 29  1  0  0  0  0
M  END
> <s_m_source_file>
AV-unprocessed.smi

> <i_m_source_file_index>
153

> <i_lp_mmshare_version>
43012

> <i_f3d_flags>
0

> <s_epik_input>
W0NIMl0xW0NIMl1PW0NAQEhdKFtDSDNdKVtDQEBdMShbT0hdKVtDSDJdbihbY0hdbjIpYyhjMjMpbltjSF1uYzNOKFtDSDNdKVtDSDJdW0NASF0oW09IXSlbQ0gyXU40W0NIMl1bQ0gyXU9bQ0gyXVtDSDJdNA==

> <s_epik_cmdline>
J2VwaWtfcHl0aG9uJywgJy1waCcsICc3LjAnLCAnLXRuJywgJzgnLCAnLW1hJywgJzIwMCcsICctbWV0YWxfYmluZGluZycsICctaW1hZScsICc8aW5maWxlLm1hZT4nLCAnLW9tYWUnLCAnPG91dGZpbGUubWFlPic=

> <r_lp_tautomer_probability>
1

> <r_epik_Ionization_Penalty>
0.424123

> <r_epik_Ionization_Penalty_Charging>
0

> <r_epik_Ionization_Penalty_Neutral>
0.424123

> <r_epik_State_Penalty>
0.421495

> <r_epik_Charging_Adjusted_Penalty>
0.421495

> <i_epik_Tot_Q>
0

> <i_epik_Tot_abs_Q>
0

> <r_epik_Metal_State_Penalty>
0.421223

> <b_epik_Metal_Only>
0

> <s_lp_Force_Field>
OPLS_2005

> <r_lp_Energy>
57.6451

> <b_lp_Chiralities_Consistent>
1

> <s_lp_Variant>
AV-unprocessed.smi:153-10

> <Gold.Version>
5.8.1

> <Gold.Id.Protein>
6NUR|6NUR_protein|mol2

> <Gold.PLP.Fitness>
49.4149

> <Gold.PLP.PLP>
-44.8409

> <Gold.PLP.part.hbond>
-2.1832

> <Gold.PLP.part.metal>
0.0000

> <Gold.PLP.part.buried>
-9.4710

> <Gold.PLP.part.nonpolar>
-33.2481

> <Gold.PLP.part.repulsive>
0.9959

> <Gold.PLP.ligand.clash>
0.8169

> <Gold.PLP.ligand.torsion>
1.1678

> <Gold.PLP.Chemscore.Hbond>
1.6920

> <Gold.PLP.Chemscore.CHOScore>
0.6648

> <Gold.PLP.Chemscore.Metal>
0.0000

> <Gold.Chemscore.Hbonds>
donor molecule, donor type, donor heavy atom, donor atom, acceptor molecule, acceptor atom, score
      P1  H  6896  6908       L1    18  1.00
      P1  H 10752 10763       L1    26  0.35
      L1  C    27    59       P1  7949  0.97

> <Gold.PLP.Chemscore.Internal.Correction>
0.6563

> <Gold.Rescore>
     Score         DG    S(hbond)    S(metal)    S(lipo)     H(rot)  DE(clash)    DE(int)     intcor
      7.32     -10.87       0.84        0.00      98.97       3.52       0.20       3.36       ----

> <Gold.Chemscore.Fitness>
7.3164

> <Gold.Chemscore.DG>
-10.8719

> <Gold.Chemscore.ZeroCoef>
-5.4800

> <Gold.Chemscore.Hbond>
0.8432

> <Gold.Chemscore.Metal>
0.0000

> <Gold.Chemscore.Lipo>
98.9669

> <Gold.Chemscore.Internal_Hbond>
0.0000

> <Gold.Chemscore.DEClash>
0.1951

> <Gold.Chemscore.DEInternal>
3.3604

> <Gold.Chemscore.Rot>
3.5170

> <Gold.Chemscore.Internal.Correction>
   9.000000E+99

> <Gold.Chemscore.Hbonds>
donor molecule, donor type, donor heavy atom, donor atom, acceptor molecule, acceptor atom, score
      P1  H  6896  6908       L1    18  0.70
      P1  H 10752 10763       L1    26  0.01

> <Gold.Chemscore.Hbond.Weighted>
-2.8164

> <Gold.Chemscore.Metal.Weighted>
-0.0000

> <Gold.Chemscore.Lipo.Weighted>
-11.5791

> <Gold.Chemscore.Internal_Hbond.Weighted>
0.0000

> <Gold.Chemscore.DEClash.Weighted>
0.1951

> <Gold.Chemscore.DEInternal.Weighted>
3.3604

> <Gold.Chemscore.Rot.Weighted>
9.0036

> <Gold.Chemscore.Internal.Correction.Weighted>
   9.000000E+99

> <Gold.Protein.RotatedTorsions>
[ 6907 6896 6895 6894 ] final   66.44 input  -60.11 | X-H torsion
[ 7974 7965 7964 7962 ] final -170.23 input  175.53 | X-H torsion
[ 8008 7997 7996 7995 ] final  117.26 input   59.86 | X-H torsion
[ 10167 10162 10161 10158 ] final -145.83 input  -65.29 | X-H torsion
[ 10718 10713 10712 10709 ] final  175.27 input   66.30 | X-H torsion
[ 10763 10752 10751 10750 ] final   41.45 input  -60.55 | X-H torsion
[ 11005 11000 10999 10996 ] final   29.42 input  -57.11 | X-H torsion

> <Gold.Protein.ActiveResidues>
 VAL166  LYS551  ARG553  GLY616  TRP617  ASP618  TYR619  PRO620  LYS621  CYS622 
 ASP623  PHE694  ASN695  SER759  ASP760  ASP761  ALA762  ILE779  LEU786  VAL792 
 PHE793  MET794  SER795  GLU796  ALA797  LYS798  CYS799  TRP800  GLU811  SER814 

> <Gold.Protein.RotatedAtoms>
  152.4481  134.5452  159.9850 H   0  0  0  0  0  0  0  0  0  0  0  0  # atno 6907 bound_to 6896
  151.5532  133.3408  159.2965 H   0  0  0  0  0  0  0  0  0  0  0  0  # atno 6908 bound_to 6896
  150.8402  134.7723  159.6989 H   0  0  0  0  0  0  0  0  0  0  0  0  # atno 6909 bound_to 6896
  144.7173  140.2103  143.6328 H   0  0  0  0  0  0  0  0  0  0  0  0  # atno 7974 bound_to 7965
  156.2485  140.2900  156.0651 H   0  0  0  0  0  0  0  0  0  0  0  0  # atno 8008 bound_to 7997
  155.1732  140.0402  157.2884 H   0  0  0  0  0  0  0  0  0  0  0  0  # atno 8009 bound_to 7997
  154.6311  140.2499  155.7440 H   0  0  0  0  0  0  0  0  0  0  0  0  # atno 8010 bound_to 7997
  139.7769  143.8156  152.2633 H   0  0  0  0  0  0  0  0  0  0  0  0  # atno 10167 bound_to 10162
  156.9373  130.9990  151.2975 H   0  0  0  0  0  0  0  0  0  0  0  0  # atno 10718 bound_to 10713
  152.9908  135.6161  154.2790 H   0  0  0  0  0  0  0  0  0  0  0  0  # atno 10763 bound_to 10752
  154.2520  135.2785  155.2814 H   0  0  0  0  0  0  0  0  0  0  0  0  # atno 10764 bound_to 10752
  154.5280  135.5796  153.6792 H   0  0  0  0  0  0  0  0  0  0  0  0  # atno 10765 bound_to 10752
  140.3051  134.2713  155.7745 H   0  0  0  0  0  0  0  0  0  0  0  0  # atno 11005 bound_to 11000
  145.8597  139.2216  143.1724 LP  0  0  0  0  0  0  0  0  0  0  0  0  # atno 17320 bound_to 7965
  146.0185  140.8370  142.9935 LP  0  0  0  0  0  0  0  0  0  0  0  0  # atno 17321 bound_to 7965
  139.8207  144.7296  150.9576 LP  0  0  0  0  0  0  0  0  0  0  0  0  # atno 17342 bound_to 10162
  140.7817  143.4161  151.0915 LP  0  0  0  0  0  0  0  0  0  0  0  0  # atno 17343 bound_to 10162
  157.5808  130.8375  149.8519 LP  0  0  0  0  0  0  0  0  0  0  0  0  # atno 17370 bound_to 10713
  156.0420  130.3737  150.1412 LP  0  0  0  0  0  0  0  0  0  0  0  0  # atno 17371 bound_to 10713
  141.2120  133.7671  156.9824 LP  0  0  0  0  0  0  0  0  0  0  0  0  # atno 17394 bound_to 11000
  140.1074  134.9498  157.2015 LP  0  0  0  0  0  0  0  0  0  0  0  0  # atno 17395 bound_to 11000

$$$$
