AV-unprocessed.smi:2636|AV-procd|sdf|10257|dock6
  -GOLD-   2272014263D 1   1.00000     0.00000
 Structure written by MMmdl.
 36 37  0  0  0  0  0  0  0  0  1 V2000
  148.1767  141.2780  154.5857 C   0  0  0  0  0  0  0  0  0  0  0  0
  149.0365  140.0254  154.5557 C   0  0  0  0  0  0  0  0  0  0  0  0
  150.3675  140.0497  154.8233 C   0  0  0  0  0  0  0  0  0  0  0  0
  151.1711  138.9216  154.8036 N   0  0  0  0  0  0  0  0  0  0  0  0
  152.6035  138.9729  155.0361 C   0  0  0  0  0  0  0  0  0  0  0  0
  152.8450  139.6611  156.2208 O   0  0  0  0  0  0  0  0  0  0  0  0
  152.1227  139.1436  157.3256 C   0  0  0  0  0  0  0  0  0  0  0  0
  152.2366  140.0767  158.5107 C   0  0  0  0  0  0  0  0  0  0  0  0
  152.0099  141.4016  158.4531 C   0  0  0  0  0  0  0  0  0  0  0  0
  152.1040  142.3588  159.5698 C   0  0  0  0  0  0  0  0  0  0  0  0
  152.5817  141.9925  160.8506 C   0  0  0  0  0  0  0  0  0  0  0  0
  152.6556  142.9447  161.8863 C   0  0  0  0  0  0  0  0  0  0  0  0
  152.2537  144.2731  161.6548 C   0  0  0  0  0  0  0  0  0  0  0  0
  151.7775  144.6481  160.3849 C   0  0  0  0  0  0  0  0  0  0  0  0
  151.7040  143.6953  159.3503 C   0  0  0  0  0  0  0  0  0  0  0  0
  150.6160  137.6695  154.4664 C   0  0  0  0  0  0  0  0  0  0  0  0
  151.2778  136.6330  154.4079 O   0  0  0  0  0  0  0  0  0  0  0  0
  149.2490  137.6447  154.1945 N   0  0  0  0  0  0  0  0  0  0  0  0
  148.3947  138.7510  154.2169 C   0  0  0  0  0  0  0  0  0  0  0  0
  147.2014  138.6013  153.9594 O   0  0  0  0  0  0  0  0  0  0  0  0
  148.8416  136.7520  153.9573 H   0  0  0  0  0  0  0  0  0  0  0  0
  148.7563  142.1592  154.8622 H   0  0  0  0  0  0  0  0  0  0  0  0
  147.3684  141.1690  155.3096 H   0  0  0  0  0  0  0  0  0  0  0  0
  147.7365  141.4612  153.6049 H   0  0  0  0  0  0  0  0  0  0  0  0
  150.8273  140.9973  155.0653 H   0  0  0  0  0  0  0  0  0  0  0  0
  152.9876  137.9539  155.1119 H   0  0  0  0  0  0  0  0  0  0  0  0
  153.0873  139.4563  154.1836 H   0  0  0  0  0  0  0  0  0  0  0  0
  151.0731  139.0051  157.0601 H   0  0  0  0  0  0  0  0  0  0  0  0
  152.5221  138.1701  157.6133 H   0  0  0  0  0  0  0  0  0  0  0  0
  152.5206  139.6038  159.4380 H   0  0  0  0  0  0  0  0  0  0  0  0
  151.7287  141.8235  157.4988 H   0  0  0  0  0  0  0  0  0  0  0  0
  152.8973  140.9823  161.0603 H   0  0  0  0  0  0  0  0  0  0  0  0
  153.0219  142.6542  162.8599 H   0  0  0  0  0  0  0  0  0  0  0  0
  152.3109  145.0027  162.4491 H   0  0  0  0  0  0  0  0  0  0  0  0
  151.4687  145.6669  160.2032 H   0  0  0  0  0  0  0  0  0  0  0  0
  151.3372  143.9989  158.3807 H   0  0  0  0  0  0  0  0  0  0  0  0
  1  2  1  0  0  0  0
  1 22  1  0  0  0  0
  1 23  1  0  0  0  0
  1 24  1  0  0  0  0
  2 19  1  0  0  0  0
  2  3  2  0  0  0  0
  3  4  1  0  0  0  0
  3 25  1  0  0  0  0
  4  5  1  0  0  0  0
  4 16  1  0  0  0  0
  5  6  1  0  0  0  0
  5 26  1  0  0  0  0
  5 27  1  0  0  0  0
  6  7  1  0  0  0  0
  7  8  1  0  0  0  0
  7 28  1  0  0  0  0
  7 29  1  0  0  0  0
  8  9  2  0  0  0  0
  8 30  1  0  0  0  0
  9 10  1  0  0  0  0
  9 31  1  0  0  0  0
 10 15  1  0  0  0  0
 10 11  2  0  0  0  0
 11 12  1  0  0  0  0
 11 32  1  0  0  0  0
 12 13  2  0  0  0  0
 12 33  1  0  0  0  0
 13 14  1  0  0  0  0
 13 34  1  0  0  0  0
 14 15  2  0  0  0  0
 14 35  1  0  0  0  0
 15 36  1  0  0  0  0
 16 17  2  0  0  0  0
 16 18  1  0  0  0  0
 18 21  1  0  0  0  0
 18 19  1  0  0  0  0
 19 20  2  0  0  0  0
M  END
> <s_m_source_file>
AV-unprocessed.smi

> <i_m_source_file_index>
2636

> <i_lp_mmshare_version>
43012

> <i_f3d_flags>
0

> <s_epik_input>
Tz1jMVtuSF1jKD1PKW4oW2NIXWMxW0NIM10pW0NIMl1PW0NIMl0vW0NIXT1bQ0hdL2MyW2NIXVtjSF1bY0hdW2NIXVtjSF0y

> <s_epik_cmdline>
J2VwaWtfcHl0aG9uJywgJy1waCcsICc3LjAnLCAnLXRuJywgJzgnLCAnLW1hJywgJzIwMCcsICctbWV0YWxfYmluZGluZycsICctaW1hZScsICc8aW5maWxlLm1hZT4nLCAnLW9tYWUnLCAnPG91dGZpbGUubWFlPic=

> <r_lp_tautomer_probability>
0.999537

> <r_epik_Ionization_Penalty>
0.00179702

> <r_epik_Ionization_Penalty_Charging>
0.00179702

> <r_epik_Ionization_Penalty_Neutral>
9.83266e-13

> <r_epik_State_Penalty>
0.00121868

> <r_epik_Charging_Adjusted_Penalty>
0.0030157

> <i_epik_Tot_Q>
0

> <i_epik_Tot_abs_Q>
0

> <r_epik_Metal_State_Penalty>
0.826903

> <b_epik_Metal_Only>
0

> <s_epik_Chemistry_Notes>
This compound contains an acetal/aminal-like group ( X-CH(R)-Y where X, Y are N, S, or O) that may be acid/base labile, releasing an aldehyde.

> <s_lp_Force_Field>
OPLS_2005

> <r_lp_Energy>
1.95272

> <b_lp_Chiralities_Consistent>
1

> <s_lp_Variant>
AV-unprocessed.smi:2636-1

> <Gold.Version>
5.8.1

> <Gold.Id.Protein>
6NUR|6NUR_protein|mol2

> <Gold.PLP.Fitness>
54.4297

> <Gold.PLP.PLP>
-47.6679

> <Gold.PLP.part.hbond>
-2.9261

> <Gold.PLP.part.metal>
0.0000

> <Gold.PLP.part.buried>
-2.1902

> <Gold.PLP.part.nonpolar>
-43.6099

> <Gold.PLP.part.repulsive>
1.2852

> <Gold.PLP.ligand.clash>
0.0000

> <Gold.PLP.ligand.torsion>
0.1893

> <Gold.PLP.Chemscore.Hbond>
2.3682

> <Gold.PLP.Chemscore.CHOScore>
0.0000

> <Gold.PLP.Chemscore.Metal>
0.0000

> <Gold.Chemscore.Hbonds>
donor molecule, donor type, donor heavy atom, donor atom, acceptor molecule, acceptor atom, score
      L1  H    18    21       P1  7948  0.20
      P1  H  7997  8008       L1     6  1.00
      P1  H 10752 10763       L1    17  1.00

> <Gold.PLP.Chemscore.Internal.Correction>
0.0360

> <Gold.Rescore>
     Score         DG    S(hbond)    S(metal)    S(lipo)     H(rot)  DE(clash)    DE(int)     intcor
     19.57     -19.76       1.92        0.00     109.29       1.92       0.03       0.16       ----

> <Gold.Chemscore.Fitness>
19.5697

> <Gold.Chemscore.DG>
-19.7580

> <Gold.Chemscore.ZeroCoef>
-5.4800

> <Gold.Chemscore.Hbond>
1.9194

> <Gold.Chemscore.Metal>
0.0000

> <Gold.Chemscore.Lipo>
109.2852

> <Gold.Chemscore.Internal_Hbond>
0.0000

> <Gold.Chemscore.DEClash>
0.0293

> <Gold.Chemscore.DEInternal>
0.1590

> <Gold.Chemscore.Rot>
1.9216

> <Gold.Chemscore.Internal.Correction>
   9.000000E+99

> <Gold.Chemscore.Hbonds>
donor molecule, donor type, donor heavy atom, donor atom, acceptor molecule, acceptor atom, score
      L1  H    18    21       P1  7948  0.20
      P1  H  7997  8008       L1     6  0.38
      P1  H 10752 10763       L1    17  0.94

> <Gold.Chemscore.Hbond.Weighted>
-6.4109

> <Gold.Chemscore.Metal.Weighted>
-0.0000

> <Gold.Chemscore.Lipo.Weighted>
-12.7864

> <Gold.Chemscore.Internal_Hbond.Weighted>
0.0000

> <Gold.Chemscore.DEClash.Weighted>
0.0293

> <Gold.Chemscore.DEInternal.Weighted>
0.1590

> <Gold.Chemscore.Rot.Weighted>
4.9193

> <Gold.Chemscore.Internal.Correction.Weighted>
   9.000000E+99

> <Gold.Protein.RotatedTorsions>
[ 6907 6896 6895 6894 ] final  -46.76 input  -60.11 | X-H torsion
[ 7974 7965 7964 7962 ] final  126.65 input  175.53 | X-H torsion
[ 8008 7997 7996 7995 ] final  -24.21 input   59.86 | X-H torsion
[ 10167 10162 10161 10158 ] final -136.58 input  -65.29 | X-H torsion
[ 10718 10713 10712 10709 ] final -135.82 input   66.30 | X-H torsion
[ 10763 10752 10751 10750 ] final   64.48 input  -60.55 | X-H torsion
[ 11005 11000 10999 10996 ] final  -74.75 input  -57.11 | X-H torsion

> <Gold.Protein.ActiveResidues>
 VAL166  LYS551  ARG553  GLY616  TRP617  ASP618  TYR619  PRO620  LYS621  CYS622 
 ASP623  PHE694  ASN695  SER759  ASP760  ASP761  ALA762  ILE779  LEU786  VAL792 
 PHE793  MET794  SER795  GLU796  ALA797  LYS798  CYS799  TRP800  GLU811  SER814 

> <Gold.Protein.RotatedAtoms>
  150.9079  134.8494  159.7404 H   0  0  0  0  0  0  0  0  0  0  0  0  # atno 6907 bound_to 6896
  152.4928  134.4404  159.9551 H   0  0  0  0  0  0  0  0  0  0  0  0  # atno 6908 bound_to 6896
  151.4449  133.3594  159.2822 H   0  0  0  0  0  0  0  0  0  0  0  0  # atno 6909 bound_to 6896
  145.0594  139.3818  143.5014 H   0  0  0  0  0  0  0  0  0  0  0  0  # atno 7974 bound_to 7965
  154.4542  140.1960  156.0429 H   0  0  0  0  0  0  0  0  0  0  0  0  # atno 8008 bound_to 7997
  156.0711  140.3284  155.7549 H   0  0  0  0  0  0  0  0  0  0  0  0  # atno 8009 bound_to 7997
  155.5262  140.0574  157.2888 H   0  0  0  0  0  0  0  0  0  0  0  0  # atno 8010 bound_to 7997
  139.8663  143.7013  152.2645 H   0  0  0  0  0  0  0  0  0  0  0  0  # atno 10167 bound_to 10162
  156.2703  130.7262  151.1226 H   0  0  0  0  0  0  0  0  0  0  0  0  # atno 10718 bound_to 10713
  153.0057  135.5391  154.6516 H   0  0  0  0  0  0  0  0  0  0  0  0  # atno 10763 bound_to 10752
  154.5747  135.2844  155.0795 H   0  0  0  0  0  0  0  0  0  0  0  0  # atno 10764 bound_to 10752
  154.1947  135.6494  153.5122 H   0  0  0  0  0  0  0  0  0  0  0  0  # atno 10765 bound_to 10752
  141.1638  133.6922  156.7412 H   0  0  0  0  0  0  0  0  0  0  0  0  # atno 11005 bound_to 11000
  146.3523  140.0284  142.8652 LP  0  0  0  0  0  0  0  0  0  0  0  0  # atno 17320 bound_to 7965
  145.1428  140.9581  143.4478 LP  0  0  0  0  0  0  0  0  0  0  0  0  # atno 17321 bound_to 7965
  139.7326  144.7579  151.0778 LP  0  0  0  0  0  0  0  0  0  0  0  0  # atno 17342 bound_to 10162
  140.7767  143.5070  150.9700 LP  0  0  0  0  0  0  0  0  0  0  0  0  # atno 17343 bound_to 10162
  157.7281  131.0634  150.5833 LP  0  0  0  0  0  0  0  0  0  0  0  0  # atno 17370 bound_to 10713
  156.5929  130.4334  149.5929 LP  0  0  0  0  0  0  0  0  0  0  0  0  # atno 17371 bound_to 10713
  140.2673  134.8420  157.3814 LP  0  0  0  0  0  0  0  0  0  0  0  0  # atno 17394 bound_to 11000
  140.1555  134.4796  155.7931 LP  0  0  0  0  0  0  0  0  0  0  0  0  # atno 17395 bound_to 11000

$$$$
