AV-unprocessed.smi:3006|AV-procd|sdf|11445|dock1
  -GOLD-   2272016373D 1   1.00000     0.00000
 Structure written by MMmdl.
 44 45  0  0  0  0  0  0  0  0  1 V2000
  152.5243  143.8998  162.0498 C   0  0  0  0  0  0  0  0  0  0  0  0
  151.8834  143.8880  160.7045 C   0  0  0  0  0  0  0  0  0  0  0  0
  151.5064  142.7694  160.0802 N   0  0  0  0  0  0  0  0  0  0  0  0
  150.9388  143.0174  158.8263 C   0  0  0  0  0  0  0  0  0  0  0  0
  150.4652  141.8756  157.9792 C   0  0  0  0  0  0  0  0  0  0  0  0
  150.6804  142.1376  156.4796 C   0  0  0  0  0  0  0  0  0  0  0  0
  149.5129  141.7521  155.6954 N   0  0  0  0  0  0  0  0  0  0  0  0
  149.5062  140.8351  154.7131 C   0  0  0  0  0  0  0  0  0  0  0  0
  150.5167  140.2053  154.3970 O   0  0  0  0  0  0  0  0  0  0  0  0
  148.2933  140.6262  154.1444 N   0  0  0  0  0  0  0  0  0  0  0  0
  147.7883  139.3657  153.5892 C   0  0  0  0  0  0  0  0  0  0  0  0
  146.7150  138.8003  154.5395 C   0  0  0  0  0  0  0  0  0  0  0  0
  145.5964  139.7441  154.7097 N   0  0  0  0  0  0  0  0  0  0  0  0
  144.5638  139.1996  155.6151 C   0  0  0  0  0  0  0  0  0  0  0  0
  143.9036  137.9322  155.0292 C   0  0  0  0  0  0  0  0  0  0  0  0
  143.4542  140.2315  155.9147 C   0  0  0  0  0  0  0  0  0  0  0  0
  146.1261  141.0291  155.1979 C   0  0  0  0  0  0  0  0  0  0  0  0
  147.1976  141.5893  154.2438 C   0  0  0  0  0  0  0  0  0  0  0  0
  150.8877  144.3524  158.5103 C   0  0  0  0  0  0  0  0  0  0  0  0
  151.5551  145.3463  159.7761 S   0  0  0  0  0  0  0  0  0  0  0  0
  151.9945  143.2288  162.7262 H   0  0  0  0  0  0  0  0  0  0  0  0
  152.5042  144.9054  162.4700 H   0  0  0  0  0  0  0  0  0  0  0  0
  153.5613  143.5733  161.9710 H   0  0  0  0  0  0  0  0  0  0  0  0
  150.9844  140.9606  158.2670 H   0  0  0  0  0  0  0  0  0  0  0  0
  149.4074  141.6907  158.1699 H   0  0  0  0  0  0  0  0  0  0  0  0
  150.9205  143.1880  156.3059 H   0  0  0  0  0  0  0  0  0  0  0  0
  151.5333  141.5617  156.1191 H   0  0  0  0  0  0  0  0  0  0  0  0
  148.6429  142.2151  155.9149 H   0  0  0  0  0  0  0  0  0  0  0  0
  147.3581  139.5506  152.6036 H   0  0  0  0  0  0  0  0  0  0  0  0
  148.5614  138.6136  153.4329 H   0  0  0  0  0  0  0  0  0  0  0  0
  146.3665  137.8635  154.1089 H   0  0  0  0  0  0  0  0  0  0  0  0
  147.1563  138.5652  155.5096 H   0  0  0  0  0  0  0  0  0  0  0  0
  145.0373  138.9302  156.5606 H   0  0  0  0  0  0  0  0  0  0  0  0
  143.0482  137.6230  155.6306 H   0  0  0  0  0  0  0  0  0  0  0  0
  144.5795  137.0780  155.0136 H   0  0  0  0  0  0  0  0  0  0  0  0
  143.5437  138.1034  154.0140 H   0  0  0  0  0  0  0  0  0  0  0  0
  142.6279  139.7712  156.4572 H   0  0  0  0  0  0  0  0  0  0  0  0
  143.0457  140.6569  154.9973 H   0  0  0  0  0  0  0  0  0  0  0  0
  143.8051  141.0479  156.5452 H   0  0  0  0  0  0  0  0  0  0  0  0
  145.3336  141.7726  155.2620 H   0  0  0  0  0  0  0  0  0  0  0  0
  146.5391  140.9077  156.2006 H   0  0  0  0  0  0  0  0  0  0  0  0
  147.5315  142.5666  154.5953 H   0  0  0  0  0  0  0  0  0  0  0  0
  146.7710  141.7617  153.2543 H   0  0  0  0  0  0  0  0  0  0  0  0
  150.5012  144.8095  157.6114 H   0  0  0  0  0  0  0  0  0  0  0  0
  1  2  1  0  0  0  0
  1 21  1  0  0  0  0
  1 22  1  0  0  0  0
  1 23  1  0  0  0  0
  2 20  1  0  0  0  0
  2  3  2  0  0  0  0
  3  4  1  0  0  0  0
  4  5  1  0  0  0  0
  4 19  2  0  0  0  0
  5  6  1  0  0  0  0
  5 24  1  0  0  0  0
  5 25  1  0  0  0  0
  6  7  1  0  0  0  0
  6 26  1  0  0  0  0
  6 27  1  0  0  0  0
  7  8  1  0  0  0  0
  7 28  1  0  0  0  0
  8  9  2  0  0  0  0
  8 10  1  0  0  0  0
 10 18  1  0  0  0  0
 10 11  1  0  0  0  0
 11 12  1  0  0  0  0
 11 29  1  0  0  0  0
 11 30  1  0  0  0  0
 12 13  1  0  0  0  0
 12 31  1  0  0  0  0
 12 32  1  0  0  0  0
 13 14  1  0  0  0  0
 13 17  1  0  0  0  0
 14 15  1  0  0  0  0
 14 16  1  0  0  0  0
 14 33  1  0  0  0  0
 15 34  1  0  0  0  0
 15 35  1  0  0  0  0
 15 36  1  0  0  0  0
 16 37  1  0  0  0  0
 16 38  1  0  0  0  0
 16 39  1  0  0  0  0
 17 18  1  0  0  0  0
 17 40  1  0  0  0  0
 17 41  1  0  0  0  0
 18 42  1  0  0  0  0
 18 43  1  0  0  0  0
 19 20  1  0  0  0  0
 19 44  1  0  0  0  0
M  END
> <s_m_source_file>
AV-unprocessed.smi

> <i_m_source_file_index>
3006

> <i_lp_mmshare_version>
43012

> <i_f3d_flags>
0

> <s_epik_input>
W0NIM11jMW5jKFtjSF1zMSlbQ0gyXVtDSDJdW05IXUMoPU8pTjJbQ0gyXVtDSDJdTihbQ0hdKFtDSDNdKVtDSDNdKVtDSDJdW0NIMl0y

> <s_epik_cmdline>
J2VwaWtfcHl0aG9uJywgJy1waCcsICc3LjAnLCAnLXRuJywgJzgnLCAnLW1hJywgJzIwMCcsICctbWV0YWxfYmluZGluZycsICctaW1hZScsICc8aW5maWxlLm1hZT4nLCAnLW9tYWUnLCAnPG91dGZpbGUubWFlPic=

> <r_epik_Ionization_Penalty>
0.875753

> <r_epik_Ionization_Penalty_Charging>
0

> <r_epik_Ionization_Penalty_Neutral>
0.875753

> <r_epik_State_Penalty>
0.930306

> <r_epik_Charging_Adjusted_Penalty>
0.930306

> <i_epik_Tot_Q>
0

> <i_epik_Tot_abs_Q>
0

> <r_epik_Metal_State_Penalty>
0.928801

> <b_epik_Metal_Only>
0

> <s_lp_Force_Field>
OPLS_2005

> <r_lp_Energy>
38.048

> <b_lp_Chiralities_Consistent>
1

> <s_lp_Variant>
AV-unprocessed.smi:3006-2

> <Gold.Version>
5.8.1

> <Gold.Id.Protein>
6NUR|6NUR_protein|mol2

> <Gold.PLP.Fitness>
40.3600

> <Gold.PLP.PLP>
-36.5083

> <Gold.PLP.part.hbond>
-2.7037

> <Gold.PLP.part.metal>
0.0000

> <Gold.PLP.part.buried>
-5.3036

> <Gold.PLP.part.nonpolar>
-30.4457

> <Gold.PLP.part.repulsive>
1.0531

> <Gold.PLP.ligand.clash>
0.4535

> <Gold.PLP.ligand.torsion>
0.9800

> <Gold.PLP.Chemscore.Hbond>
1.0000

> <Gold.PLP.Chemscore.CHOScore>
1.0253

> <Gold.PLP.Chemscore.Metal>
0.0000

> <Gold.Chemscore.Hbonds>
donor molecule, donor type, donor heavy atom, donor atom, acceptor molecule, acceptor atom, score
      P1  H  7989  7998       L1     9  1.00
      L1  C    19    44       P1  8028  0.98
      L1  C    19    44       P1  8029  0.04

> <Gold.PLP.Chemscore.Internal.Correction>
0.1894

> <Gold.Rescore>
     Score         DG    S(hbond)    S(metal)    S(lipo)     H(rot)  DE(clash)    DE(int)     intcor
     14.41     -15.41       0.96        0.00      87.65       1.39       0.09       0.91       ----

> <Gold.Chemscore.Fitness>
14.4074

> <Gold.Chemscore.DG>
-15.4062

> <Gold.Chemscore.ZeroCoef>
-5.4800

> <Gold.Chemscore.Hbond>
0.9640

> <Gold.Chemscore.Metal>
0.0000

> <Gold.Chemscore.Lipo>
87.6473

> <Gold.Chemscore.Internal_Hbond>
0.0000

> <Gold.Chemscore.DEClash>
0.0918

> <Gold.Chemscore.DEInternal>
0.9070

> <Gold.Chemscore.Rot>
1.3861

> <Gold.Chemscore.Internal.Correction>
   9.000000E+99

> <Gold.Chemscore.Hbonds>
donor molecule, donor type, donor heavy atom, donor atom, acceptor molecule, acceptor atom, score
      P1  H  7989  7998       L1     9  0.94

> <Gold.Chemscore.Hbond.Weighted>
-3.2199

> <Gold.Chemscore.Metal.Weighted>
-0.0000

> <Gold.Chemscore.Lipo.Weighted>
-10.2547

> <Gold.Chemscore.Internal_Hbond.Weighted>
0.0000

> <Gold.Chemscore.DEClash.Weighted>
0.0918

> <Gold.Chemscore.DEInternal.Weighted>
0.9070

> <Gold.Chemscore.Rot.Weighted>
3.5484

> <Gold.Chemscore.Internal.Correction.Weighted>
   9.000000E+99

> <Gold.Protein.RotatedTorsions>
[ 6907 6896 6895 6894 ] final   84.69 input  -60.11 | X-H torsion
[ 7974 7965 7964 7962 ] final  -32.71 input  175.53 | X-H torsion
[ 8008 7997 7996 7995 ] final   49.55 input   59.86 | X-H torsion
[ 10167 10162 10161 10158 ] final  -46.48 input  -65.29 | X-H torsion
[ 10718 10713 10712 10709 ] final -169.37 input   66.30 | X-H torsion
[ 10763 10752 10751 10750 ] final  -61.44 input  -60.55 | X-H torsion
[ 11005 11000 10999 10996 ] final  -40.04 input  -57.11 | X-H torsion

> <Gold.Protein.ActiveResidues>
 VAL166  LYS551  ARG553  GLY616  TRP617  ASP618  TYR619  PRO620  LYS621  CYS622 
 ASP623  PHE694  ASN695  SER759  ASP760  ASP761  ALA762  ILE779  LEU786  VAL792 
 PHE793  MET794  SER795  GLU796  ALA797  LYS798  CYS799  TRP800  GLU811  SER814 

> <Gold.Protein.RotatedAtoms>
  152.5358  134.2702  159.8968 H   0  0  0  0  0  0  0  0  0  0  0  0  # atno 6907 bound_to 6896
  151.2659  133.4272  159.2626 H   0  0  0  0  0  0  0  0  0  0  0  0  # atno 6908 bound_to 6896
  151.0411  134.9622  159.8218 H   0  0  0  0  0  0  0  0  0  0  0  0  # atno 6909 bound_to 6896
  146.0969  140.5826  142.8839 H   0  0  0  0  0  0  0  0  0  0  0  0  # atno 7974 bound_to 7965
  155.4040  140.3439  155.4259 H   0  0  0  0  0  0  0  0  0  0  0  0  # atno 8008 bound_to 7997
  156.1487  140.1564  156.8837 H   0  0  0  0  0  0  0  0  0  0  0  0  # atno 8009 bound_to 7997
  154.5033  140.0809  156.7824 H   0  0  0  0  0  0  0  0  0  0  0  0  # atno 8010 bound_to 7997
  140.6815  143.2829  151.3789 H   0  0  0  0  0  0  0  0  0  0  0  0  # atno 10167 bound_to 10162
  156.7106  130.9232  151.3089 H   0  0  0  0  0  0  0  0  0  0  0  0  # atno 10718 bound_to 10713
  154.2846  135.6265  153.5360 H   0  0  0  0  0  0  0  0  0  0  0  0  # atno 10763 bound_to 10752
  152.9861  135.5641  154.5457 H   0  0  0  0  0  0  0  0  0  0  0  0  # atno 10764 bound_to 10752
  154.5055  135.2874  155.1361 H   0  0  0  0  0  0  0  0  0  0  0  0  # atno 10765 bound_to 10752
  141.0146  133.6892  156.2267 H   0  0  0  0  0  0  0  0  0  0  0  0  # atno 11005 bound_to 11000
  144.7402  140.4921  143.6875 LP  0  0  0  0  0  0  0  0  0  0  0  0  # atno 17320 bound_to 7965
  145.5931  139.1497  143.3171 LP  0  0  0  0  0  0  0  0  0  0  0  0  # atno 17321 bound_to 7965
  139.6142  144.1037  152.2329 LP  0  0  0  0  0  0  0  0  0  0  0  0  # atno 17342 bound_to 10162
  140.0461  144.5970  150.7373 LP  0  0  0  0  0  0  0  0  0  0  0  0  # atno 17343 bound_to 10162
  157.6937  130.9260  150.0586 LP  0  0  0  0  0  0  0  0  0  0  0  0  # atno 17370 bound_to 10713
  156.1664  130.3645  149.9227 LP  0  0  0  0  0  0  0  0  0  0  0  0  # atno 17371 bound_to 10713
  140.6677  134.4901  157.5586 LP  0  0  0  0  0  0  0  0  0  0  0  0  # atno 17394 bound_to 11000
  139.9109  134.8347  156.1532 LP  0  0  0  0  0  0  0  0  0  0  0  0  # atno 17395 bound_to 11000

$$$$
