AV-unprocessed.smi:1982|AV-procd|sdf|8027|dock6
  -GOLD-   2272010223D 1   1.00000     0.00000
 Structure written by MMmdl.
 36 37  0  0  0  0  0  0  0  0  1 V2000
  152.9735  143.2283  162.6743 C   0  0  0  0  0  0  0  0  0  0  0  0
  152.3566  143.0975  161.2703 C   0  0  1  0  0  0  0  0  0  0  0  0
  151.9399  144.4898  160.7522 C   0  0  0  0  0  0  0  0  0  0  0  0
  151.3020  144.4222  159.3583 C   0  0  0  0  0  0  0  0  0  0  0  0
  152.2457  143.7434  158.3557 C   0  0  0  0  0  0  0  0  0  0  0  0
  152.6806  142.3455  158.8359 C   0  0  2  0  0  0  0  0  0  0  0  0
  151.5569  141.4110  158.7924 N   0  0  0  0  0  0  0  0  0  0  0  0
  150.8787  141.0404  157.6955 C   0  0  0  0  0  0  0  0  0  0  0  0
  151.0901  141.5023  156.5748 O   0  0  0  0  0  0  0  0  0  0  0  0
  149.7969  139.9778  157.8949 C   0  0  0  0  0  0  0  0  0  0  0  0
  150.3720  138.7305  158.3655 N   0  0  0  0  0  0  0  0  0  0  0  0
  151.6352  138.3931  158.6329 C   0  0  0  0  0  0  0  0  0  0  0  0
  151.7260  137.1467  159.0706 N   0  0  0  0  0  0  0  0  0  0  0  0
  150.4107  136.7129  159.0606 N   0  0  0  0  0  0  0  0  0  0  0  0
  149.6026  137.6481  158.6429 N   0  0  0  0  0  0  0  0  0  0  0  0
  153.3017  142.3932  160.2564 C   0  0  2  0  0  0  0  0  0  0  0  0
  153.7422  140.9883  160.7186 C   0  0  0  0  0  0  0  0  0  0  0  0
  153.9246  143.7602  162.6421 H   0  0  0  0  0  0  0  0  0  0  0  0
  153.1474  142.2550  163.1323 H   0  0  0  0  0  0  0  0  0  0  0  0
  152.3101  143.7771  163.3432 H   0  0  0  0  0  0  0  0  0  0  0  0
  151.4514  142.4965  161.3697 H   0  0  0  0  0  0  0  0  0  0  0  0
  151.2369  144.9511  161.4467 H   0  0  0  0  0  0  0  0  0  0  0  0
  152.8115  145.1452  160.7183 H   0  0  0  0  0  0  0  0  0  0  0  0
  150.3586  143.8774  159.4107 H   0  0  0  0  0  0  0  0  0  0  0  0
  151.0573  145.4273  159.0137 H   0  0  0  0  0  0  0  0  0  0  0  0
  151.7688  143.6790  157.3769 H   0  0  0  0  0  0  0  0  0  0  0  0
  153.1307  144.3662  158.2204 H   0  0  0  0  0  0  0  0  0  0  0  0
  153.4524  141.9848  158.1533 H   0  0  0  0  0  0  0  0  0  0  0  0
  151.3019  140.9776  159.6683 H   0  0  0  0  0  0  0  0  0  0  0  0
  149.0562  140.3333  158.6128 H   0  0  0  0  0  0  0  0  0  0  0  0
  149.2754  139.7898  156.9555 H   0  0  0  0  0  0  0  0  0  0  0  0
  152.4786  139.0575  158.5142 H   0  0  0  0  0  0  0  0  0  0  0  0
  154.2073  142.9974  160.1828 H   0  0  0  0  0  0  0  0  0  0  0  0
  152.8872  140.3509  160.9477 H   0  0  0  0  0  0  0  0  0  0  0  0
  154.3683  141.0363  161.6091 H   0  0  0  0  0  0  0  0  0  0  0  0
  154.3289  140.4895  159.9467 H   0  0  0  0  0  0  0  0  0  0  0  0
  1  2  1  0  0  0  0
  1 18  1  0  0  0  0
  1 19  1  0  0  0  0
  1 20  1  0  0  0  0
  2 16  1  0  0  0  0
  2  3  1  0  0  0  0
  2 21  1  0  0  0  0
  3  4  1  0  0  0  0
  3 22  1  0  0  0  0
  3 23  1  0  0  0  0
  4  5  1  0  0  0  0
  4 24  1  0  0  0  0
  4 25  1  0  0  0  0
  5  6  1  0  0  0  0
  5 26  1  0  0  0  0
  5 27  1  0  0  0  0
  6  7  1  0  0  0  0
  6 16  1  0  0  0  0
  6 28  1  0  0  0  0
  7  8  1  0  0  0  0
  7 29  1  0  0  0  0
  8  9  2  0  0  0  0
  8 10  1  0  0  0  0
 10 11  1  0  0  0  0
 10 30  1  0  0  0  0
 10 31  1  0  0  0  0
 11 15  1  0  0  0  0
 11 12  1  0  0  0  0
 12 13  2  0  0  0  0
 12 32  1  0  0  0  0
 13 14  1  0  0  0  0
 14 15  2  0  0  0  0
 16 17  1  0  0  0  0
 16 33  1  0  0  0  0
 17 34  1  0  0  0  0
 17 35  1  0  0  0  0
 17 36  1  0  0  0  0
M  END
> <s_m_source_file>
AV-unprocessed.smi

> <i_m_source_file_index>
1982

> <i_lp_mmshare_version>
43012

> <i_f3d_flags>
0

> <s_epik_input>
W0NIM11bQ0BASF0xW0NIMl1bQ0gyXVtDSDJdW0NASF0oW0NASF0xW0NIM10pW05IXUMoPU8pW0NIMl1uMltjSF1ubm4y

> <s_epik_cmdline>
J2VwaWtfcHl0aG9uJywgJy1waCcsICc3LjAnLCAnLXRuJywgJzgnLCAnLW1hJywgJzIwMCcsICctbWV0YWxfYmluZGluZycsICctaW1hZScsICc8aW5maWxlLm1hZT4nLCAnLW9tYWUnLCAnPG91dGZpbGUubWFlPic=

> <r_lp_tautomer_probability>
1

> <r_epik_Ionization_Penalty>
5.03816e-07

> <r_epik_Ionization_Penalty_Charging>
0

> <r_epik_Ionization_Penalty_Neutral>
5.03816e-07

> <r_epik_State_Penalty>
-0

> <r_epik_Charging_Adjusted_Penalty>
0

> <i_epik_Tot_Q>
0

> <i_epik_Tot_abs_Q>
0

> <r_epik_Metal_State_Penalty>
-0

> <b_epik_Metal_Only>
0

> <s_lp_Force_Field>
OPLS_2005

> <r_lp_Energy>
12.4214

> <b_lp_Chiralities_Consistent>
1

> <s_lp_Variant>
AV-unprocessed.smi:1982-8

> <Gold.Version>
5.8.1

> <Gold.Id.Protein>
6NUR|6NUR_protein|mol2

> <Gold.PLP.Fitness>
41.9472

> <Gold.PLP.PLP>
-38.9964

> <Gold.PLP.part.hbond>
-1.5450

> <Gold.PLP.part.metal>
0.0000

> <Gold.PLP.part.buried>
-5.7186

> <Gold.PLP.part.nonpolar>
-30.8879

> <Gold.PLP.part.repulsive>
0.1632

> <Gold.PLP.ligand.clash>
0.0000

> <Gold.PLP.ligand.torsion>
0.0309

> <Gold.PLP.Chemscore.Hbond>
1.0000

> <Gold.PLP.Chemscore.CHOScore>
0.0000

> <Gold.PLP.Chemscore.Metal>
0.0000

> <Gold.Chemscore.Hbonds>
donor molecule, donor type, donor heavy atom, donor atom, acceptor molecule, acceptor atom, score
      P1  H  6896  6909       L1    14  0.50

> <Gold.PLP.Chemscore.Internal.Correction>
0.0126

> <Gold.Rescore>
     Score         DG    S(hbond)    S(metal)    S(lipo)     H(rot)  DE(clash)    DE(int)     intcor
     14.69     -14.84       0.94        0.00      94.99       1.91       0.01       0.14       ----

> <Gold.Chemscore.Fitness>
14.6878

> <Gold.Chemscore.DG>
-14.8406

> <Gold.Chemscore.ZeroCoef>
-5.4800

> <Gold.Chemscore.Hbond>
0.9359

> <Gold.Chemscore.Metal>
0.0000

> <Gold.Chemscore.Lipo>
94.9884

> <Gold.Chemscore.Internal_Hbond>
0.0000

> <Gold.Chemscore.DEClash>
0.0079

> <Gold.Chemscore.DEInternal>
0.1449

> <Gold.Chemscore.Rot>
1.9058

> <Gold.Chemscore.Internal.Correction>
   9.000000E+99

> <Gold.Chemscore.Hbonds>
donor molecule, donor type, donor heavy atom, donor atom, acceptor molecule, acceptor atom, score
      P1  H  6896  6909       L1    14  0.02

> <Gold.Chemscore.Hbond.Weighted>
-3.1258

> <Gold.Chemscore.Metal.Weighted>
-0.0000

> <Gold.Chemscore.Lipo.Weighted>
-11.1136

> <Gold.Chemscore.Internal_Hbond.Weighted>
0.0000

> <Gold.Chemscore.DEClash.Weighted>
0.0079

> <Gold.Chemscore.DEInternal.Weighted>
0.1449

> <Gold.Chemscore.Rot.Weighted>
4.8788

> <Gold.Chemscore.Internal.Correction.Weighted>
   9.000000E+99

> <Gold.Protein.RotatedTorsions>
[ 6907 6896 6895 6894 ] final   80.07 input  -60.11 | X-H torsion
[ 7974 7965 7964 7962 ] final -175.55 input  175.53 | X-H torsion
[ 8008 7997 7996 7995 ] final   92.72 input   59.86 | X-H torsion
[ 10167 10162 10161 10158 ] final    7.65 input  -65.29 | X-H torsion
[ 10718 10713 10712 10709 ] final -124.66 input   66.30 | X-H torsion
[ 10763 10752 10751 10750 ] final   94.12 input  -60.55 | X-H torsion
[ 11005 11000 10999 10996 ] final   69.99 input  -57.11 | X-H torsion

> <Gold.Protein.ActiveResidues>
 VAL166  LYS551  ARG553  GLY616  TRP617  ASP618  TYR619  PRO620  LYS621  CYS622 
 ASP623  PHE694  ASN695  SER759  ASP760  ASP761  ALA762  ILE779  LEU786  VAL792 
 PHE793  MET794  SER795  GLU796  ALA797  LYS798  CYS799  TRP800  GLU811  SER814 

> <Gold.Protein.RotatedAtoms>
  152.5222  134.3414  159.9218 H   0  0  0  0  0  0  0  0  0  0  0  0  # atno 6907 bound_to 6896
  151.3364  133.3973  159.2675 H   0  0  0  0  0  0  0  0  0  0  0  0  # atno 6908 bound_to 6896
  150.9839  134.9206  159.7918 H   0  0  0  0  0  0  0  0  0  0  0  0  # atno 6909 bound_to 6896
  144.7128  140.1304  143.6399 H   0  0  0  0  0  0  0  0  0  0  0  0  # atno 7974 bound_to 7965
  156.0386  140.3322  155.7219 H   0  0  0  0  0  0  0  0  0  0  0  0  # atno 8008 bound_to 7997
  155.5778  140.0634  157.2808 H   0  0  0  0  0  0  0  0  0  0  0  0  # atno 8009 bound_to 7997
  154.4383  140.1849  156.0933 H   0  0  0  0  0  0  0  0  0  0  0  0  # atno 8010 bound_to 7997
  140.6359  143.7886  150.7359 H   0  0  0  0  0  0  0  0  0  0  0  0  # atno 10167 bound_to 10162
  156.1607  130.6600  151.0045 H   0  0  0  0  0  0  0  0  0  0  0  0  # atno 10718 bound_to 10713
  153.2381  135.4301  155.0668 H   0  0  0  0  0  0  0  0  0  0  0  0  # atno 10763 bound_to 10752
  154.8328  135.3396  154.6690 H   0  0  0  0  0  0  0  0  0  0  0  0  # atno 10764 bound_to 10752
  153.7114  135.7022  153.5093 H   0  0  0  0  0  0  0  0  0  0  0  0  # atno 10765 bound_to 10752
  139.9622  134.7041  156.0621 H   0  0  0  0  0  0  0  0  0  0  0  0  # atno 11005 bound_to 11000
  145.9291  139.2595  143.1335 LP  0  0  0  0  0  0  0  0  0  0  0  0  # atno 17320 bound_to 7965
  145.9541  140.8886  143.0244 LP  0  0  0  0  0  0  0  0  0  0  0  0  # atno 17321 bound_to 7965
  140.1508  143.4360  152.2133 LP  0  0  0  0  0  0  0  0  0  0  0  0  # atno 17342 bound_to 10162
  139.5570  144.7379  151.4266 LP  0  0  0  0  0  0  0  0  0  0  0  0  # atno 17343 bound_to 10162
  157.6730  131.0857  150.7565 LP  0  0  0  0  0  0  0  0  0  0  0  0  # atno 17370 bound_to 10713
  156.7628  130.4804  149.5433 LP  0  0  0  0  0  0  0  0  0  0  0  0  # atno 17371 bound_to 10713
  141.1300  133.6589  156.3439 LP  0  0  0  0  0  0  0  0  0  0  0  0  # atno 17394 bound_to 11000
  140.5474  134.6061  157.5398 LP  0  0  0  0  0  0  0  0  0  0  0  0  # atno 17395 bound_to 11000

$$$$
