AV-unprocessed.smi:2900|AV-procd|sdf|11147|dock3
  -GOLD-   2272016 23D 1   1.00000     0.00000
 Structure written by MMmdl.
 35 36  0  0  0  0  0  0  0  0  1 V2000
  152.5223  139.6099  155.2245 O   0  0  0  0  0  0  0  0  0  0  0  0
  151.8630  138.6414  155.6013 C   0  0  0  0  0  0  0  0  0  0  0  0
  152.4389  137.5145  156.3309 C   0  0  0  0  0  0  0  0  0  0  0  0
  151.6845  136.4702  156.7347 C   0  0  0  0  0  0  0  0  0  0  0  0
  150.2619  136.4574  156.4373 C   0  0  0  0  0  0  0  0  0  0  0  0
  149.3346  135.3395  156.8464 C   0  0  0  0  0  0  0  0  0  0  0  0
  148.0821  135.5912  156.4653 F   0  0  0  0  0  0  0  0  0  0  0  0
  149.7246  134.1932  156.2881 F   0  0  0  0  0  0  0  0  0  0  0  0
  149.3524  135.1918  158.1713 F   0  0  0  0  0  0  0  0  0  0  0  0
  149.7467  137.4511  155.7878 N   0  0  0  0  0  0  0  0  0  0  0  0
  150.5212  138.5229  155.3795 N   0  0  0  0  0  0  0  0  0  0  0  0
  149.7683  139.5677  154.6750 C   0  0  0  0  0  0  0  0  0  0  0  0
  149.4147  140.7541  155.5994 C   0  0  2  0  0  0  0  0  0  0  0  0
  148.9281  141.8074  154.7902 O   0  0  0  0  0  0  0  0  0  0  0  0
  150.6504  141.2839  156.3463 C   0  0  0  0  0  0  0  0  0  0  0  0
  150.4461  142.6555  156.6595 O   0  0  0  0  0  0  0  0  0  0  0  0
  151.1580  143.2004  157.7067 C   0  0  0  0  0  0  0  0  0  0  0  0
  151.5833  142.3157  158.7194 C   0  0  0  0  0  0  0  0  0  0  0  0
  152.3173  142.7850  159.8259 C   0  0  0  0  0  0  0  0  0  0  0  0
  152.6353  144.1517  159.9305 C   0  0  0  0  0  0  0  0  0  0  0  0
  152.2175  145.0460  158.9275 C   0  0  0  0  0  0  0  0  0  0  0  0
  151.4827  144.5764  157.8211 C   0  0  0  0  0  0  0  0  0  0  0  0
  153.4958  137.5195  156.5537 H   0  0  0  0  0  0  0  0  0  0  0  0
  152.1321  135.6486  157.2739 H   0  0  0  0  0  0  0  0  0  0  0  0
  150.3701  139.9182  153.8344 H   0  0  0  0  0  0  0  0  0  0  0  0
  148.8656  139.1568  154.2182 H   0  0  0  0  0  0  0  0  0  0  0  0
  148.6530  140.4593  156.3225 H   0  0  0  0  0  0  0  0  0  0  0  0
  149.0836  142.6259  155.2358 H   0  0  0  0  0  0  0  0  0  0  0  0
  150.7695  140.7362  157.2825 H   0  0  0  0  0  0  0  0  0  0  0  0
  151.5562  141.1353  155.7552 H   0  0  0  0  0  0  0  0  0  0  0  0
  151.3445  141.2649  158.6466 H   0  0  0  0  0  0  0  0  0  0  0  0
  152.6363  142.0957  160.5935 H   0  0  0  0  0  0  0  0  0  0  0  0
  153.1985  144.5135  160.7779 H   0  0  0  0  0  0  0  0  0  0  0  0
  152.4612  146.0951  159.0059 H   0  0  0  0  0  0  0  0  0  0  0  0
  151.1811  145.2930  157.0727 H   0  0  0  0  0  0  0  0  0  0  0  0
  1  2  2  0  0  0  0
  2 11  1  0  0  0  0
  2  3  1  0  0  0  0
  3  4  2  0  0  0  0
  3 23  1  0  0  0  0
  4  5  1  0  0  0  0
  4 24  1  0  0  0  0
  5  6  1  0  0  0  0
  5 10  2  0  0  0  0
  6  7  1  0  0  0  0
  6  8  1  0  0  0  0
  6  9  1  0  0  0  0
 10 11  1  0  0  0  0
 11 12  1  0  0  0  0
 12 13  1  0  0  0  0
 12 25  1  0  0  0  0
 12 26  1  0  0  0  0
 13 14  1  0  0  0  0
 13 15  1  0  0  0  0
 13 27  1  0  0  0  0
 14 28  1  0  0  0  0
 15 16  1  0  0  0  0
 15 29  1  0  0  0  0
 15 30  1  0  0  0  0
 16 17  1  0  0  0  0
 17 22  1  0  0  0  0
 17 18  2  0  0  0  0
 18 19  1  0  0  0  0
 18 31  1  0  0  0  0
 19 20  2  0  0  0  0
 19 32  1  0  0  0  0
 20 21  1  0  0  0  0
 20 33  1  0  0  0  0
 21 22  2  0  0  0  0
 21 34  1  0  0  0  0
 22 35  1  0  0  0  0
M  END
> <s_m_source_file>
AV-unprocessed.smi

> <i_m_source_file_index>
2900

> <i_lp_mmshare_version>
43012

> <i_f3d_flags>
0

> <s_epik_input>
Tz1jMVtjSF1bY0hdYyhDKEYpKEYpRilubjFbQ0gyXVtDQEhdKFtPSF0pW0NIMl1PYzJbY0hdW2NIXVtjSF1bY0hdW2NIXTI=

> <s_epik_cmdline>
J2VwaWtfcHl0aG9uJywgJy1waCcsICc3LjAnLCAnLXRuJywgJzgnLCAnLW1hJywgJzIwMCcsICctbWV0YWxfYmluZGluZycsICctaW1hZScsICc8aW5maWxlLm1hZT4nLCAnLW9tYWUnLCAnPG91dGZpbGUubWFlPic=

> <r_lp_tautomer_probability>
1

> <r_epik_Ionization_Penalty>
1.22578e-07

> <r_epik_Ionization_Penalty_Charging>
5.40425e-09

> <r_epik_Ionization_Penalty_Neutral>
1.17174e-07

> <r_epik_State_Penalty>
-0

> <r_epik_Charging_Adjusted_Penalty>
5.40425e-09

> <i_epik_Tot_Q>
0

> <i_epik_Tot_abs_Q>
0

> <r_epik_Metal_State_Penalty>
-0

> <b_epik_Metal_Only>
0

> <s_lp_Force_Field>
OPLS_2005

> <r_lp_Energy>
34.5506

> <b_lp_Chiralities_Consistent>
1

> <s_lp_Variant>
AV-unprocessed.smi:2900-1

> <Gold.Version>
5.8.1

> <Gold.Id.Protein>
6NUR|6NUR_protein|mol2

> <Gold.PLP.Fitness>
46.4148

> <Gold.PLP.PLP>
-41.0167

> <Gold.PLP.part.hbond>
-4.0000

> <Gold.PLP.part.metal>
0.0000

> <Gold.PLP.part.buried>
0.2943

> <Gold.PLP.part.nonpolar>
-39.4241

> <Gold.PLP.part.repulsive>
2.6635

> <Gold.PLP.ligand.clash>
0.0000

> <Gold.PLP.ligand.torsion>
1.1140

> <Gold.PLP.Chemscore.Hbond>
2.5179

> <Gold.PLP.Chemscore.CHOScore>
0.0000

> <Gold.PLP.Chemscore.Metal>
0.0000

> <Gold.Chemscore.Hbonds>
donor molecule, donor type, donor heavy atom, donor atom, acceptor molecule, acceptor atom, score
      L1  H    14    28       P1  8028  0.73
      P1  H  7989  7998       L1     1  0.23
      P1  H  7997  8009       L1     1  0.80

> <Gold.PLP.Chemscore.Internal.Correction>
0.0723

> <Gold.Rescore>
     Score         DG    S(hbond)    S(metal)    S(lipo)     H(rot)  DE(clash)    DE(int)     intcor
     13.99     -17.17       1.86        0.00     104.32       2.63       1.76       1.42       ----

> <Gold.Chemscore.Fitness>
13.9911

> <Gold.Chemscore.DG>
-17.1720

> <Gold.Chemscore.ZeroCoef>
-5.4800

> <Gold.Chemscore.Hbond>
1.8647

> <Gold.Chemscore.Metal>
0.0000

> <Gold.Chemscore.Lipo>
104.3238

> <Gold.Chemscore.Internal_Hbond>
0.0000

> <Gold.Chemscore.DEClash>
1.7582

> <Gold.Chemscore.DEInternal>
1.4226

> <Gold.Chemscore.Rot>
2.6336

> <Gold.Chemscore.Internal.Correction>
   9.000000E+99

> <Gold.Chemscore.Hbonds>
donor molecule, donor type, donor heavy atom, donor atom, acceptor molecule, acceptor atom, score
      L1  H    14    28       P1  8028  0.72
      P1  H  7989  7998       L1     1  0.23
      P1  H  7997  8009       L1     1  0.78

> <Gold.Chemscore.Hbond.Weighted>
-6.2281

> <Gold.Chemscore.Metal.Weighted>
-0.0000

> <Gold.Chemscore.Lipo.Weighted>
-12.2059

> <Gold.Chemscore.Internal_Hbond.Weighted>
0.0000

> <Gold.Chemscore.DEClash.Weighted>
1.7582

> <Gold.Chemscore.DEInternal.Weighted>
1.4226

> <Gold.Chemscore.Rot.Weighted>
6.7420

> <Gold.Chemscore.Internal.Correction.Weighted>
   9.000000E+99

> <Gold.Protein.RotatedTorsions>
[ 6907 6896 6895 6894 ] final  145.03 input  -60.11 | X-H torsion
[ 7974 7965 7964 7962 ] final    8.45 input  175.53 | X-H torsion
[ 8008 7997 7996 7995 ] final -148.94 input   59.86 | X-H torsion
[ 10167 10162 10161 10158 ] final -173.35 input  -65.29 | X-H torsion
[ 10718 10713 10712 10709 ] final  101.91 input   66.30 | X-H torsion
[ 10763 10752 10751 10750 ] final  -32.51 input  -60.55 | X-H torsion
[ 11005 11000 10999 10996 ] final   59.08 input  -57.11 | X-H torsion

> <Gold.Protein.ActiveResidues>
 VAL166  LYS551  ARG553  GLY616  TRP617  ASP618  TYR619  PRO620  LYS621  CYS622 
 ASP623  PHE694  ASN695  SER759  ASP760  ASP761  ALA762  ILE779  LEU786  VAL792 
 PHE793  MET794  SER795  GLU796  ALA797  LYS798  CYS799  TRP800  GLU811  SER814 

> <Gold.Protein.RotatedAtoms>
  152.1860  133.4740  159.4982 H   0  0  0  0  0  0  0  0  0  0  0  0  # atno 6907 bound_to 6896
  150.6942  134.1772  159.4244 H   0  0  0  0  0  0  0  0  0  0  0  0  # atno 6908 bound_to 6896
  151.9685  135.0088  160.0602 H   0  0  0  0  0  0  0  0  0  0  0  0  # atno 6909 bound_to 6896
  146.2416  139.9931  142.8423 H   0  0  0  0  0  0  0  0  0  0  0  0  # atno 7974 bound_to 7965
  155.5997  140.0661  157.2736 H   0  0  0  0  0  0  0  0  0  0  0  0  # atno 8008 bound_to 7997
  154.4282  140.1820  156.1207 H   0  0  0  0  0  0  0  0  0  0  0  0  # atno 8009 bound_to 7997
  156.0169  140.3321  155.7001 H   0  0  0  0  0  0  0  0  0  0  0  0  # atno 8010 bound_to 7997
  139.5693  144.1680  152.1360 H   0  0  0  0  0  0  0  0  0  0  0  0  # atno 10167 bound_to 10162
  157.6816  131.0739  150.5324 H   0  0  0  0  0  0  0  0  0  0  0  0  # atno 10718 bound_to 10713
  153.8150  135.6879  153.4835 H   0  0  0  0  0  0  0  0  0  0  0  0  # atno 10763 bound_to 10752
  153.1604  135.4582  154.9763 H   0  0  0  0  0  0  0  0  0  0  0  0  # atno 10764 bound_to 10752
  154.7951  135.3316  154.7627 H   0  0  0  0  0  0  0  0  0  0  0  0  # atno 10765 bound_to 10752
  140.0330  134.5984  155.9481 H   0  0  0  0  0  0  0  0  0  0  0  0  # atno 11005 bound_to 11000
  145.1485  140.9610  143.4447 LP  0  0  0  0  0  0  0  0  0  0  0  0  # atno 17320 bound_to 7965
  145.0228  139.3409  143.6064 LP  0  0  0  0  0  0  0  0  0  0  0  0  # atno 17321 bound_to 7965
  140.1209  144.5374  150.6863 LP  0  0  0  0  0  0  0  0  0  0  0  0  # atno 17342 bound_to 10162
  140.6977  143.2414  151.4953 LP  0  0  0  0  0  0  0  0  0  0  0  0  # atno 17343 bound_to 10162
  156.5634  130.4261  149.6052 LP  0  0  0  0  0  0  0  0  0  0  0  0  # atno 17370 bound_to 10713
  156.2802  130.7066  151.1888 LP  0  0  0  0  0  0  0  0  0  0  0  0  # atno 17371 bound_to 10713
  141.1842  133.6552  156.5146 LP  0  0  0  0  0  0  0  0  0  0  0  0  # atno 17394 bound_to 11000
  140.4194  134.7201  157.4881 LP  0  0  0  0  0  0  0  0  0  0  0  0  # atno 17395 bound_to 11000

$$$$
