AV-unprocessed.smi:3156|AV-procd|sdf|12034|dock3
  -GOLD-   2272017453D 1   1.00000     0.00000
 Structure written by MMmdl.
 41 42  0  0  0  0  0  0  0  0  2 V2000
  149.6428  144.8747  159.5732 C   0  0  0  0  0  0  0  0  0  0  0  0
  149.8930  143.4244  159.1194 C   0  0  1  0  0  0  0  0  0  0  0  0
  149.0251  143.0979  157.9638 N   0  3  0  0  0  0  0  0  0  0  0  0
  149.1859  141.7402  157.4014 C   0  0  0  0  0  0  0  0  0  0  0  0
  148.1586  141.4725  156.2902 C   0  0  2  0  0  0  0  0  0  0  0  0
  148.7403  141.6522  154.8713 C   0  0  0  0  0  0  0  0  0  0  0  0
  147.6533  141.4305  153.8142 C   0  0  0  0  0  0  0  0  0  0  0  0
  146.4434  142.3179  154.1257 C   0  0  0  0  0  0  0  0  0  0  0  0
  145.9730  142.0949  155.5723 C   0  0  0  0  0  0  0  0  0  0  0  0
  147.0435  142.3412  156.4798 O   0  0  0  0  0  0  0  0  0  0  0  0
  151.3787  143.1619  158.7480 C   0  0  1  0  0  0  0  0  0  0  0  0
  152.0402  144.3462  158.0193 C   0  0  0  0  0  0  0  0  0  0  0  0
  152.1749  142.8047  159.9185 N   0  0  0  0  0  0  0  0  0  0  0  0
  153.4465  142.2695  159.9522 C   0  0  0  0  0  0  0  0  0  0  0  0
  153.7873  142.1059  161.2643 C   0  0  0  0  0  0  0  0  0  0  0  0
  152.6523  142.5904  161.9716 C   0  0  0  0  0  0  0  0  0  0  0  0
  151.6918  143.0110  161.1651 N   0  0  0  0  0  0  0  0  0  0  0  0
  150.2118  145.1199  160.4693 H   0  0  0  0  0  0  0  0  0  0  0  0
  148.5939  145.0432  159.8163 H   0  0  0  0  0  0  0  0  0  0  0  0
  149.9209  145.5875  158.7962 H   0  0  0  0  0  0  0  0  0  0  0  0
  149.6289  142.7576  159.9419 H   0  0  0  0  0  0  0  0  0  0  0  0
  148.0576  143.2499  158.2112 H   0  0  0  0  0  0  0  0  0  0  0  0
  150.1914  141.6279  156.9941 H   0  0  0  0  0  0  0  0  0  0  0  0
  149.0775  141.0007  158.1949 H   0  0  0  0  0  0  0  0  0  0  0  0
  147.8130  140.4428  156.3993 H   0  0  0  0  0  0  0  0  0  0  0  0
  149.1503  142.6561  154.7543 H   0  0  0  0  0  0  0  0  0  0  0  0
  149.5660  140.9585  154.7093 H   0  0  0  0  0  0  0  0  0  0  0  0
  148.0402  141.6486  152.8183 H   0  0  0  0  0  0  0  0  0  0  0  0
  147.3501  140.3827  153.8113 H   0  0  0  0  0  0  0  0  0  0  0  0
  146.7113  143.3659  153.9869 H   0  0  0  0  0  0  0  0  0  0  0  0
  145.6321  142.1075  153.4281 H   0  0  0  0  0  0  0  0  0  0  0  0
  145.1510  142.7714  155.8068 H   0  0  0  0  0  0  0  0  0  0  0  0
  145.5963  141.0796  155.7059 H   0  0  0  0  0  0  0  0  0  0  0  0
  151.4104  142.3032  158.0754 H   0  0  0  0  0  0  0  0  0  0  0  0
  151.5725  144.5413  157.0548 H   0  0  0  0  0  0  0  0  0  0  0  0
  153.0941  144.1444  157.8250 H   0  0  0  0  0  0  0  0  0  0  0  0
  151.9830  145.2607  158.6106 H   0  0  0  0  0  0  0  0  0  0  0  0
  153.9969  142.0482  159.0494 H   0  0  0  0  0  0  0  0  0  0  0  0
  154.7100  141.7071  161.6591 H   0  0  0  0  0  0  0  0  0  0  0  0
  152.4993  142.6497  163.0392 H   0  0  0  0  0  0  0  0  0  0  0  0
  149.2698  143.7445  157.2272 H   0  0  0  0  0  0  0  0  0  0  0  0
  1  2  1  0  0  0  0
  1 18  1  0  0  0  0
  1 19  1  0  0  0  0
  1 20  1  0  0  0  0
  2  3  1  0  0  0  0
  2 11  1  0  0  0  0
  2 21  1  0  0  0  0
  3  4  1  0  0  0  0
  3 22  1  0  0  0  0
  3 41  1  0  0  0  0
  4  5  1  0  0  0  0
  4 23  1  0  0  0  0
  4 24  1  0  0  0  0
  5 10  1  0  0  0  0
  5  6  1  0  0  0  0
  5 25  1  0  0  0  0
  6  7  1  0  0  0  0
  6 26  1  0  0  0  0
  6 27  1  0  0  0  0
  7  8  1  0  0  0  0
  7 28  1  0  0  0  0
  7 29  1  0  0  0  0
  8  9  1  0  0  0  0
  8 30  1  0  0  0  0
  8 31  1  0  0  0  0
  9 10  1  0  0  0  0
  9 32  1  0  0  0  0
  9 33  1  0  0  0  0
 11 12  1  0  0  0  0
 11 13  1  0  0  0  0
 11 34  1  0  0  0  0
 12 35  1  0  0  0  0
 12 36  1  0  0  0  0
 12 37  1  0  0  0  0
 13 17  1  0  0  0  0
 13 14  1  0  0  0  0
 14 15  2  0  0  0  0
 14 38  1  0  0  0  0
 15 16  1  0  0  0  0
 15 39  1  0  0  0  0
 16 17  2  0  0  0  0
 16 40  1  0  0  0  0
M  CHG  1   3   1
M  END
> <s_m_source_file>
AV-unprocessed.smi

> <i_m_source_file_index>
3156

> <i_lp_mmshare_version>
43012

> <i_f3d_flags>
0

> <s_epik_input>
bjFbY0hdW2NIXVtjSF1uMVtDQEBIXShbQ0gzXSlbQ0BIXShbQ0gzXSlbTkhdW0NIMl1bQ0BASF0yW0NIMl1bQ0gyXVtDSDJdW0NIMl1PMg==

> <s_epik_cmdline>
J2VwaWtfcHl0aG9uJywgJy1waCcsICc3LjAnLCAnLXRuJywgJzgnLCAnLW1hJywgJzIwMCcsICctbWV0YWxfYmluZGluZycsICctaW1hZScsICc8aW5maWxlLm1hZT4nLCAnLW9tYWUnLCAnPG91dGZpbGUubWFlPic=

> <r_lp_tautomer_probability>
1

> <r_epik_Ionization_Penalty>
0.00658015

> <r_epik_Ionization_Penalty_Charging>
0.00656881

> <r_epik_Ionization_Penalty_Neutral>
1.13431e-05

> <r_epik_State_Penalty>
0.0048654

> <r_epik_Charging_Adjusted_Penalty>
0.0114342

> <i_epik_Tot_Q>
1

> <i_epik_Tot_abs_Q>
1

> <r_epik_Metal_State_Penalty>
-0

> <b_epik_Metal_Only>
0

> <s_lp_Force_Field>
OPLS_2005

> <r_lp_Energy>
18.8572

> <b_lp_Chiralities_Consistent>
1

> <s_lp_Variant>
AV-unprocessed.smi:3156-6

> <Gold.Version>
5.8.1

> <Gold.Id.Protein>
6NUR|6NUR_protein|mol2

> <Gold.PLP.Fitness>
43.2632

> <Gold.PLP.PLP>
-39.4743

> <Gold.PLP.part.hbond>
-2.8085

> <Gold.PLP.part.metal>
0.0000

> <Gold.PLP.part.buried>
-3.3199

> <Gold.PLP.part.nonpolar>
-35.3580

> <Gold.PLP.part.repulsive>
1.1252

> <Gold.PLP.ligand.clash>
0.0000

> <Gold.PLP.ligand.torsion>
1.3299

> <Gold.PLP.Chemscore.Hbond>
2.1141

> <Gold.PLP.Chemscore.CHOScore>
0.0000

> <Gold.PLP.Chemscore.Metal>
0.0000

> <Gold.Chemscore.Hbonds>
donor molecule, donor type, donor heavy atom, donor atom, acceptor molecule, acceptor atom, score
      L1  H     3    41       P1  8028  2.00
      P1  H  6933  6945       L1    17  0.08

> <Gold.PLP.Chemscore.Internal.Correction>
0.1064

> <Gold.Rescore>
     Score         DG    S(hbond)    S(metal)    S(lipo)     H(rot)  DE(clash)    DE(int)     intcor
     14.01     -15.30       0.57        0.00     102.53       1.59       0.27       1.01       ----

> <Gold.Chemscore.Fitness>
14.0102

> <Gold.Chemscore.DG>
-15.2965

> <Gold.Chemscore.ZeroCoef>
-5.4800

> <Gold.Chemscore.Hbond>
0.5689

> <Gold.Chemscore.Metal>
0.0000

> <Gold.Chemscore.Lipo>
102.5344

> <Gold.Chemscore.Internal_Hbond>
0.0000

> <Gold.Chemscore.DEClash>
0.2745

> <Gold.Chemscore.DEInternal>
1.0117

> <Gold.Chemscore.Rot>
1.5938

> <Gold.Chemscore.Internal.Correction>
   9.000000E+99

> <Gold.Chemscore.Hbonds>
donor molecule, donor type, donor heavy atom, donor atom, acceptor molecule, acceptor atom, score
      L1  H     3    41       P1  8028  0.48
      P1  H  6933  6945       L1    17  0.01

> <Gold.Chemscore.Hbond.Weighted>
-1.9002

> <Gold.Chemscore.Metal.Weighted>
-0.0000

> <Gold.Chemscore.Lipo.Weighted>
-11.9965

> <Gold.Chemscore.Internal_Hbond.Weighted>
0.0000

> <Gold.Chemscore.DEClash.Weighted>
0.2745

> <Gold.Chemscore.DEInternal.Weighted>
1.0117

> <Gold.Chemscore.Rot.Weighted>
4.0802

> <Gold.Chemscore.Internal.Correction.Weighted>
   9.000000E+99

> <Gold.Protein.RotatedTorsions>
[ 6907 6896 6895 6894 ] final -119.49 input  -60.11 | X-H torsion
[ 7974 7965 7964 7962 ] final  -91.53 input  175.53 | X-H torsion
[ 8008 7997 7996 7995 ] final  -58.42 input   59.86 | X-H torsion
[ 10167 10162 10161 10158 ] final -159.31 input  -65.29 | X-H torsion
[ 10718 10713 10712 10709 ] final   -6.06 input   66.30 | X-H torsion
[ 10763 10752 10751 10750 ] final  -71.42 input  -60.55 | X-H torsion
[ 11005 11000 10999 10996 ] final -128.45 input  -57.11 | X-H torsion

> <Gold.Protein.ActiveResidues>
 VAL166  LYS551  ARG553  GLY616  TRP617  ASP618  TYR619  PRO620  LYS621  CYS622 
 ASP623  PHE694  ASN695  SER759  ASP760  ASP761  ALA762  ILE779  LEU786  VAL792 
 PHE793  MET794  SER795  GLU796  ALA797  LYS798  CYS799  TRP800  GLU811  SER814 

> <Gold.Protein.RotatedAtoms>
  150.8310  133.8091  159.3098 H   0  0  0  0  0  0  0  0  0  0  0  0  # atno 6907 bound_to 6896
  151.5821  135.1056  160.0029 H   0  0  0  0  0  0  0  0  0  0  0  0  # atno 6908 bound_to 6896
  152.4389  133.7370  159.6676 H   0  0  0  0  0  0  0  0  0  0  0  0  # atno 6909 bound_to 6896
  145.4119  140.9545  143.2229 H   0  0  0  0  0  0  0  0  0  0  0  0  # atno 7974 bound_to 7965
  154.4308  140.1084  156.5955 H   0  0  0  0  0  0  0  0  0  0  0  0  # atno 8008 bound_to 7997
  155.5967  140.3493  155.4563 H   0  0  0  0  0  0  0  0  0  0  0  0  # atno 8009 bound_to 7997
  156.0205  140.1238  157.0352 H   0  0  0  0  0  0  0  0  0  0  0  0  # atno 8010 bound_to 7997
  139.6625  143.9888  152.2234 H   0  0  0  0  0  0  0  0  0  0  0  0  # atno 10167 bound_to 10162
  156.7375  130.5199  149.5831 H   0  0  0  0  0  0  0  0  0  0  0  0  # atno 10718 bound_to 10713
  154.4315  135.5963  153.6071 H   0  0  0  0  0  0  0  0  0  0  0  0  # atno 10763 bound_to 10752
  152.9799  135.5976  154.3834 H   0  0  0  0  0  0  0  0  0  0  0  0  # atno 10764 bound_to 10752
  154.3672  135.2841  155.2265 H   0  0  0  0  0  0  0  0  0  0  0  0  # atno 10765 bound_to 10752
  140.9515  134.1059  157.4057 H   0  0  0  0  0  0  0  0  0  0  0  0  # atno 11005 bound_to 11000
  144.8303  139.5640  143.6947 LP  0  0  0  0  0  0  0  0  0  0  0  0  # atno 17320 bound_to 7965
  146.2700  139.6613  142.9302 LP  0  0  0  0  0  0  0  0  0  0  0  0  # atno 17321 bound_to 7965
  139.9630  144.6545  150.8061 LP  0  0  0  0  0  0  0  0  0  0  0  0  # atno 17342 bound_to 10162
  140.7586  143.3110  151.2845 LP  0  0  0  0  0  0  0  0  0  0  0  0  # atno 17343 bound_to 10162
  156.1487  130.6295  151.0566 LP  0  0  0  0  0  0  0  0  0  0  0  0  # atno 17370 bound_to 10713
  157.6833  131.0832  150.7312 LP  0  0  0  0  0  0  0  0  0  0  0  0  # atno 17371 bound_to 10713
  139.8849  135.0067  156.6399 LP  0  0  0  0  0  0  0  0  0  0  0  0  # atno 17394 bound_to 11000
  140.7596  133.8829  155.8408 LP  0  0  0  0  0  0  0  0  0  0  0  0  # atno 17395 bound_to 11000

$$$$
