AV-unprocessed.smi:2061|AV-procd|sdf|8387|dock7
  -GOLD-   2272011 73D 1   1.00000     0.00000
 Structure written by MMmdl.
 45 46  0  0  0  0  0  0  0  0  3 V2000
  150.9492  141.2048  155.9990 C   0  0  0  0  0  0  0  0  0  0  0  0
  151.3037  139.8509  155.4855 C   0  0  0  0  0  0  0  0  0  0  0  0
  150.5852  138.6987  155.3348 C   0  0  0  0  0  0  0  0  0  0  0  0
  151.5372  137.7902  154.7965 C   0  0  0  0  0  0  0  0  0  0  0  0
  151.3064  136.5130  154.4550 N   0  5  0  0  0  0  0  0  0  0  0  0
  150.4166  135.7701  155.1516 C   0  0  0  0  0  0  0  0  0  0  0  0
  150.5826  135.2861  156.2735 O   0  0  0  0  0  0  0  0  0  0  0  0
  149.2598  135.5755  154.5057 N   0  0  0  0  0  0  0  0  0  0  0  0
  148.1288  134.8047  155.0099 C   0  0  0  0  0  0  0  0  0  0  0  0
  146.9274  134.8169  154.0289 C   0  0  1  0  0  0  0  0  0  0  0  0
  146.3913  136.2602  153.8633 C   0  0  0  0  0  0  0  0  0  0  0  0
  147.2705  134.2147  152.6939 N   0  3  1  0  0  0  0  0  0  0  0  0
  148.0136  132.9253  152.7241 C   0  0  0  0  0  0  0  0  0  0  0  0
  147.0894  131.7619  153.1402 C   0  0  2  0  0  0  0  0  0  0  0  0
  147.8197  130.4149  153.1342 C   0  0  0  0  0  0  0  0  0  0  0  0
  146.0113  131.6829  152.2120 O   0  0  0  0  0  0  0  0  0  0  0  0
  145.2241  132.8693  152.1607 C   0  0  2  0  0  0  0  0  0  0  0  0
  144.0895  132.6418  151.1557 C   0  0  0  0  0  0  0  0  0  0  0  0
  146.1237  134.0586  151.7570 C   0  0  0  0  0  0  0  0  0  0  0  0
  152.7238  138.3467  154.6206 N   0  0  0  0  0  0  0  0  0  0  0  0
  152.5846  139.6664  155.0665 O   0  0  0  0  0  0  0  0  0  0  0  0
  150.0894  141.6075  155.4635 H   0  0  0  0  0  0  0  0  0  0  0  0
  151.7785  141.9019  155.8773 H   0  0  0  0  0  0  0  0  0  0  0  0
  150.6977  141.1605  157.0588 H   0  0  0  0  0  0  0  0  0  0  0  0
  149.5459  138.5309  155.5739 H   0  0  0  0  0  0  0  0  0  0  0  0
  149.1653  135.9895  153.5897 H   0  0  0  0  0  0  0  0  0  0  0  0
  148.4363  133.7766  155.2089 H   0  0  0  0  0  0  0  0  0  0  0  0
  147.8695  135.2616  155.9640 H   0  0  0  0  0  0  0  0  0  0  0  0
  146.1372  134.2231  154.4876 H   0  0  0  0  0  0  0  0  0  0  0  0
  146.2061  136.7443  154.8217 H   0  0  0  0  0  0  0  0  0  0  0  0
  145.4367  136.2943  153.3416 H   0  0  0  0  0  0  0  0  0  0  0  0
  147.0994  136.8837  153.3168 H   0  0  0  0  0  0  0  0  0  0  0  0
  148.3888  132.7330  151.7177 H   0  0  0  0  0  0  0  0  0  0  0  0
  148.9088  132.9706  153.3405 H   0  0  0  0  0  0  0  0  0  0  0  0
  146.6931  131.9314  154.1423 H   0  0  0  0  0  0  0  0  0  0  0  0
  148.6533  130.4178  153.8370 H   0  0  0  0  0  0  0  0  0  0  0  0
  148.2158  130.1835  152.1449 H   0  0  0  0  0  0  0  0  0  0  0  0
  147.1471  129.6062  153.4209 H   0  0  0  0  0  0  0  0  0  0  0  0
  144.7776  133.0450  153.1401 H   0  0  0  0  0  0  0  0  0  0  0  0
  143.4439  133.5177  151.0881 H   0  0  0  0  0  0  0  0  0  0  0  0
  143.4695  131.7956  151.4528 H   0  0  0  0  0  0  0  0  0  0  0  0
  144.4792  132.4352  150.1584 H   0  0  0  0  0  0  0  0  0  0  0  0
  145.5420  134.9715  151.6545 H   0  0  0  0  0  0  0  0  0  0  0  0
  146.5294  133.8736  150.7612 H   0  0  0  0  0  0  0  0  0  0  0  0
  147.8970  134.8811  152.2652 H   0  0  0  0  0  0  0  0  0  0  0  0
  1  2  1  0  0  0  0
  1 22  1  0  0  0  0
  1 23  1  0  0  0  0
  1 24  1  0  0  0  0
  2 21  1  0  0  0  0
  2  3  2  0  0  0  0
  3  4  1  0  0  0  0
  3 25  1  0  0  0  0
  4  5  1  0  0  0  0
  4 20  2  0  0  0  0
  5  6  1  0  0  0  0
  6  7  2  0  0  0  0
  6  8  1  0  0  0  0
  8  9  1  0  0  0  0
  8 26  1  0  0  0  0
  9 10  1  0  0  0  0
  9 27  1  0  0  0  0
  9 28  1  0  0  0  0
 10 11  1  0  0  0  0
 10 12  1  0  0  0  0
 10 29  1  0  0  0  0
 11 30  1  0  0  0  0
 11 31  1  0  0  0  0
 11 32  1  0  0  0  0
 12 19  1  0  0  0  0
 12 13  1  0  0  0  0
 12 45  1  0  0  0  0
 13 14  1  0  0  0  0
 13 33  1  0  0  0  0
 13 34  1  0  0  0  0
 14 15  1  0  0  0  0
 14 16  1  0  0  0  0
 14 35  1  0  0  0  0
 15 36  1  0  0  0  0
 15 37  1  0  0  0  0
 15 38  1  0  0  0  0
 16 17  1  0  0  0  0
 17 18  1  0  0  0  0
 17 19  1  0  0  0  0
 17 39  1  0  0  0  0
 18 40  1  0  0  0  0
 18 41  1  0  0  0  0
 18 42  1  0  0  0  0
 19 43  1  0  0  0  0
 19 44  1  0  0  0  0
 20 21  1  0  0  0  0
M  CHG  1   5  -1
M  CHG  1  12   1
M  END
> <s_m_source_file>
AV-unprocessed.smi

> <i_m_source_file_index>
2061

> <i_lp_mmshare_version>
43012

> <i_f3d_flags>
0

> <s_epik_input>
W0NIM11jMVtjSF1jKG5vMSlbTkhdQyg9TylbTkhdW0NIMl1bQ0BIXShbQ0gzXSlOMltDSDJdW0NAQEhdKFtDSDNdKU9bQ0BASF0oW0NIM10pW0NIMl0y

> <s_epik_cmdline>
J2VwaWtfcHl0aG9uJywgJy1waCcsICc3LjAnLCAnLXRuJywgJzgnLCAnLW1hJywgJzIwMCcsICctbWV0YWxfYmluZGluZycsICctaW1hZScsICc8aW5maWxlLm1hZT4nLCAnLW9tYWUnLCAnPG91dGZpbGUubWFlPic=

> <r_epik_Ionization_Penalty>
6.73511

> <r_epik_Ionization_Penalty_Charging>
6.73502

> <r_epik_Ionization_Penalty_Neutral>
9.50841e-05

> <r_epik_State_Penalty>
6.93549

> <r_epik_Charging_Adjusted_Penalty>
13.6705

> <i_epik_Tot_Q>
0

> <i_epik_Tot_abs_Q>
2

> <r_epik_Metal_State_Penalty>
2.87211

> <b_epik_Metal_Only>
1

> <s_lp_Force_Field>
OPLS_2005

> <r_lp_Energy>
11.5912

> <b_lp_Chiralities_Consistent>
1

> <s_lp_Variant>
AV-unprocessed.smi:2061-28

> <Gold.Version>
5.8.1

> <Gold.Id.Protein>
6NUR|6NUR_protein|mol2

> <Gold.PLP.Fitness>
48.3516

> <Gold.PLP.PLP>
-32.2928

> <Gold.PLP.part.hbond>
-5.3370

> <Gold.PLP.part.metal>
0.0000

> <Gold.PLP.part.buried>
-3.5771

> <Gold.PLP.part.nonpolar>
-23.1405

> <Gold.PLP.part.repulsive>
1.0987

> <Gold.PLP.ligand.clash>
0.0000

> <Gold.PLP.ligand.torsion>
1.0072

> <Gold.PLP.Chemscore.Hbond>
6.0000

> <Gold.PLP.Chemscore.CHOScore>
0.0000

> <Gold.PLP.Chemscore.Metal>
0.0000

> <Gold.Chemscore.Hbonds>
donor molecule, donor type, donor heavy atom, donor atom, acceptor molecule, acceptor atom, score
      L1  H     8    26       P1  7948  1.00
      L1  H    12    45       P1  7948  2.00
      P1  H  7997  8008       L1    21  0.81
      P1  H 10752 10763       L1     5  2.00

> <Gold.PLP.Chemscore.Internal.Correction>
0.0731

> <Gold.Rescore>
     Score         DG    S(hbond)    S(metal)    S(lipo)     H(rot)  DE(clash)    DE(int)     intcor
     18.15     -19.24       3.32        0.00      56.80       1.56       0.01       1.08       ----

> <Gold.Chemscore.Fitness>
18.1513

> <Gold.Chemscore.DG>
-19.2396

> <Gold.Chemscore.ZeroCoef>
-5.4800

> <Gold.Chemscore.Hbond>
3.3218

> <Gold.Chemscore.Metal>
0.0000

> <Gold.Chemscore.Lipo>
56.8001

> <Gold.Chemscore.Internal_Hbond>
0.0000

> <Gold.Chemscore.DEClash>
0.0073

> <Gold.Chemscore.DEInternal>
1.0809

> <Gold.Chemscore.Rot>
1.5550

> <Gold.Chemscore.Internal.Correction>
   9.000000E+99

> <Gold.Chemscore.Hbonds>
donor molecule, donor type, donor heavy atom, donor atom, acceptor molecule, acceptor atom, score
      L1  H     8    26       P1  7948  0.85
      L1  H    12    45       P1  7948  0.74
      P1  H  7997  8008       L1    21  0.44
      P1  H 10752 10763       L1     5  0.46

> <Gold.Chemscore.Hbond.Weighted>
-11.0948

> <Gold.Chemscore.Metal.Weighted>
-0.0000

> <Gold.Chemscore.Lipo.Weighted>
-6.6456

> <Gold.Chemscore.Internal_Hbond.Weighted>
0.0000

> <Gold.Chemscore.DEClash.Weighted>
0.0073

> <Gold.Chemscore.DEInternal.Weighted>
1.0809

> <Gold.Chemscore.Rot.Weighted>
3.9809

> <Gold.Chemscore.Internal.Correction.Weighted>
   9.000000E+99

> <Gold.Protein.RotatedTorsions>
[ 6907 6896 6895 6894 ] final -153.16 input  -60.11 | X-H torsion
[ 7974 7965 7964 7962 ] final   81.59 input  175.53 | X-H torsion
[ 8008 7997 7996 7995 ] final  -20.25 input   59.86 | X-H torsion
[ 10167 10162 10161 10158 ] final -151.19 input  -65.29 | X-H torsion
[ 10718 10713 10712 10709 ] final  166.07 input   66.30 | X-H torsion
[ 10763 10752 10751 10750 ] final   50.51 input  -60.55 | X-H torsion
[ 11005 11000 10999 10996 ] final  -65.68 input  -57.11 | X-H torsion

> <Gold.Protein.ActiveResidues>
 VAL166  LYS551  ARG553  GLY616  TRP617  ASP618  TYR619  PRO620  LYS621  CYS622 
 ASP623  PHE694  ASN695  SER759  ASP760  ASP761  ALA762  ILE779  LEU786  VAL792 
 PHE793  MET794  SER795  GLU796  ALA797  LYS798  CYS799  TRP800  GLU811  SER814 

> <Gold.Protein.RotatedAtoms>
  151.2384  133.4412  159.2606 H   0  0  0  0  0  0  0  0  0  0  0  0  # atno 6907 bound_to 6896
  151.0728  134.9809  159.8327 H   0  0  0  0  0  0  0  0  0  0  0  0  # atno 6908 bound_to 6896
  152.5414  134.2329  159.8884 H   0  0  0  0  0  0  0  0  0  0  0  0  # atno 6909 bound_to 6896
  145.6362  139.2415  143.2056 H   0  0  0  0  0  0  0  0  0  0  0  0  # atno 7974 bound_to 7965
  154.4782  140.2067  155.9827 H   0  0  0  0  0  0  0  0  0  0  0  0  # atno 8008 bound_to 7997
  156.1123  140.3227  155.8060 H   0  0  0  0  0  0  0  0  0  0  0  0  # atno 8009 bound_to 7997
  155.4613  140.0524  157.2981 H   0  0  0  0  0  0  0  0  0  0  0  0  # atno 8010 bound_to 7997
  139.7289  143.8839  152.2528 H   0  0  0  0  0  0  0  0  0  0  0  0  # atno 10167 bound_to 10162
  157.0712  131.0366  151.2611 H   0  0  0  0  0  0  0  0  0  0  0  0  # atno 10718 bound_to 10713
  152.9784  135.5876  154.4264 H   0  0  0  0  0  0  0  0  0  0  0  0  # atno 10763 bound_to 10752
  154.3882  135.2767  155.2172 H   0  0  0  0  0  0  0  0  0  0  0  0  # atno 10764 bound_to 10752
  154.4056  135.6093  153.5977 H   0  0  0  0  0  0  0  0  0  0  0  0  # atno 10765 bound_to 10752
  141.1461  133.6686  156.6023 H   0  0  0  0  0  0  0  0  0  0  0  0  # atno 11005 bound_to 11000
  146.1317  140.7176  142.9409 LP  0  0  0  0  0  0  0  0  0  0  0  0  # atno 17320 bound_to 7965
  144.7175  140.4259  143.7033 LP  0  0  0  0  0  0  0  0  0  0  0  0  # atno 17321 bound_to 7965
  139.8757  144.7045  150.8936 LP  0  0  0  0  0  0  0  0  0  0  0  0  # atno 17342 bound_to 10162
  140.7767  143.3702  151.1664 LP  0  0  0  0  0  0  0  0  0  0  0  0  # atno 17343 bound_to 10162
  157.4876  130.7803  149.7476 LP  0  0  0  0  0  0  0  0  0  0  0  0  # atno 17370 bound_to 10713
  155.9950  130.3914  150.2837 LP  0  0  0  0  0  0  0  0  0  0  0  0  # atno 17371 bound_to 10713
  140.3679  134.7631  157.4578 LP  0  0  0  0  0  0  0  0  0  0  0  0  # atno 17394 bound_to 11000
  140.0734  134.5831  155.8618 LP  0  0  0  0  0  0  0  0  0  0  0  0  # atno 17395 bound_to 11000

$$$$
