AV-unprocessed.smi:859|AV-procd|sdf|3963|dock6
  -GOLD-   22720 1433D 1   1.00000     0.00000
 Structure written by MMmdl.
 36 37  0  0  0  0  0  0  0  0  2 V2000
  151.3428  140.8175  157.3512 O   0  0  0  0  0  0  0  0  0  0  0  0
  150.7422  141.8923  157.3247 C   0  0  0  0  0  0  0  0  0  0  0  0
  149.9563  142.2708  156.3041 N   0  0  0  0  0  0  0  0  0  0  0  0
  149.7237  141.5002  155.0858 C   0  0  0  0  0  0  0  0  0  0  0  0
  148.2281  141.4243  154.7245 C   0  0  0  0  0  0  0  0  0  0  0  0
  147.9111  140.2889  153.8521 N   0  0  0  0  0  0  0  0  0  0  0  0
  146.8424  140.1692  153.0010 C   0  0  0  0  0  0  0  0  0  0  0  0
  146.9490  138.9359  152.4114 C   0  0  0  0  0  0  0  0  0  0  0  0
  148.0795  138.3575  152.9231 N   0  3  0  0  0  0  0  0  0  0  0  0
  148.6659  139.1837  153.7952 C   0  0  0  0  0  0  0  0  0  0  0  0
  150.8934  142.8907  158.4790 C   0  0  0  0  0  0  0  0  0  0  0  0
  151.3141  144.2790  157.9504 C   0  0  0  0  0  0  0  0  0  0  0  0
  151.4718  145.2886  159.0988 C   0  0  0  0  0  0  0  0  0  0  0  0
  152.4692  144.7819  160.1527 C   0  0  0  0  0  0  0  0  0  0  0  0
  152.0704  143.3927  160.6760 C   0  0  0  0  0  0  0  0  0  0  0  0
  151.9110  142.3867  159.5241 C   0  0  0  0  0  0  0  0  0  0  0  0
  149.4964  143.1677  156.3700 H   0  0  0  0  0  0  0  0  0  0  0  0
  150.3038  141.8985  154.2515 H   0  0  0  0  0  0  0  0  0  0  0  0
  150.0998  140.4922  155.2608 H   0  0  0  0  0  0  0  0  0  0  0  0
  147.6312  141.3123  155.6302 H   0  0  0  0  0  0  0  0  0  0  0  0
  147.8977  142.3443  154.2399 H   0  0  0  0  0  0  0  0  0  0  0  0
  146.1004  140.9464  152.8882 H   0  0  0  0  0  0  0  0  0  0  0  0
  146.3205  138.4382  151.6870 H   0  0  0  0  0  0  0  0  0  0  0  0
  149.5642  138.9890  154.3536 H   0  0  0  0  0  0  0  0  0  0  0  0
  149.9247  142.9941  158.9720 H   0  0  0  0  0  0  0  0  0  0  0  0
  152.2578  144.2045  157.4072 H   0  0  0  0  0  0  0  0  0  0  0  0
  150.5766  144.6501  157.2373 H   0  0  0  0  0  0  0  0  0  0  0  0
  151.8035  146.2502  158.7059 H   0  0  0  0  0  0  0  0  0  0  0  0
  150.5024  145.4636  159.5670 H   0  0  0  0  0  0  0  0  0  0  0  0
  153.4682  144.7345  159.7170 H   0  0  0  0  0  0  0  0  0  0  0  0
  152.5264  145.4889  160.9808 H   0  0  0  0  0  0  0  0  0  0  0  0
  152.8188  143.0329  161.3828 H   0  0  0  0  0  0  0  0  0  0  0  0
  151.1335  143.4656  161.2296 H   0  0  0  0  0  0  0  0  0  0  0  0
  151.5940  141.4228  159.9245 H   0  0  0  0  0  0  0  0  0  0  0  0
  152.8828  142.2215  159.0559 H   0  0  0  0  0  0  0  0  0  0  0  0
  148.4219  137.4362  152.6812 H   0  0  0  0  0  0  0  0  0  0  0  0
  1  2  2  0  0  0  0
  2  3  1  0  0  0  0
  2 11  1  0  0  0  0
  3  4  1  0  0  0  0
  3 17  1  0  0  0  0
  4  5  1  0  0  0  0
  4 18  1  0  0  0  0
  4 19  1  0  0  0  0
  5  6  1  0  0  0  0
  5 20  1  0  0  0  0
  5 21  1  0  0  0  0
  6 10  1  0  0  0  0
  6  7  1  0  0  0  0
  7  8  2  0  0  0  0
  7 22  1  0  0  0  0
  8  9  1  0  0  0  0
  8 23  1  0  0  0  0
  9 10  2  0  0  0  0
  9 36  1  0  0  0  0
 10 24  1  0  0  0  0
 11 16  1  0  0  0  0
 11 12  1  0  0  0  0
 11 25  1  0  0  0  0
 12 13  1  0  0  0  0
 12 26  1  0  0  0  0
 12 27  1  0  0  0  0
 13 14  1  0  0  0  0
 13 28  1  0  0  0  0
 13 29  1  0  0  0  0
 14 15  1  0  0  0  0
 14 30  1  0  0  0  0
 14 31  1  0  0  0  0
 15 16  1  0  0  0  0
 15 32  1  0  0  0  0
 15 33  1  0  0  0  0
 16 34  1  0  0  0  0
 16 35  1  0  0  0  0
M  CHG  1   9   1
M  END
> <s_m_source_file>
AV-unprocessed.smi

> <i_m_source_file_index>
859

> <i_lp_mmshare_version>
43012

> <i_f3d_flags>
0

> <s_epik_input>
W0NIMl0xW0NIMl1bQ0gyXVtDSDJdW0NIMl1bQ0hdMUMoPU8pW05IXVtDSDJdW0NIMl1uMltjSF1bY0hdbltjSF0y

> <s_epik_cmdline>
J2VwaWtfcHl0aG9uJywgJy1waCcsICc3LjAnLCAnLXRuJywgJzgnLCAnLW1hJywgJzIwMCcsICctbWV0YWxfYmluZGluZycsICctaW1hZScsICc8aW5maWxlLm1hZT4nLCAnLW9tYWUnLCAnPG91dGZpbGUubWFlPic=

> <r_lp_tautomer_probability>
1

> <r_epik_Ionization_Penalty>
0.267085

> <r_epik_Ionization_Penalty_Charging>
0

> <r_epik_Ionization_Penalty_Neutral>
0.267085

> <r_epik_State_Penalty>
0.259064

> <r_epik_Charging_Adjusted_Penalty>
0.259064

> <i_epik_Tot_Q>
1

> <i_epik_Tot_abs_Q>
1

> <r_epik_Metal_State_Penalty>
0.54496

> <b_epik_Metal_Only>
0

> <s_lp_Force_Field>
OPLS_2005

> <r_lp_Energy>
13.141

> <b_lp_Chiralities_Consistent>
1

> <s_lp_Variant>
AV-unprocessed.smi:859-1

> <Gold.Version>
5.8.1

> <Gold.Id.Protein>
6NUR|6NUR_protein|mol2

> <Gold.PLP.Fitness>
47.0132

> <Gold.PLP.PLP>
-36.6335

> <Gold.PLP.part.hbond>
-3.0000

> <Gold.PLP.part.metal>
0.0000

> <Gold.PLP.part.buried>
-0.8016

> <Gold.PLP.part.nonpolar>
-33.1324

> <Gold.PLP.part.repulsive>
0.1448

> <Gold.PLP.ligand.clash>
0.0000

> <Gold.PLP.ligand.torsion>
0.5872

> <Gold.PLP.Chemscore.Hbond>
3.0000

> <Gold.PLP.Chemscore.CHOScore>
0.8438

> <Gold.PLP.Chemscore.Metal>
0.0000

> <Gold.Chemscore.Hbonds>
donor molecule, donor type, donor heavy atom, donor atom, acceptor molecule, acceptor atom, score
      L1  H     3    17       P1  8028  1.00
      L1  H     9    36       P1  7948  2.00
      L1  C     7    22       P1 10175  0.88

> <Gold.PLP.Chemscore.Internal.Correction>
0.0227

> <Gold.Rescore>
     Score         DG    S(hbond)    S(metal)    S(lipo)     H(rot)  DE(clash)    DE(int)     intcor
     17.55     -18.32       1.87        0.00      96.91       1.86       0.18       0.59       ----

> <Gold.Chemscore.Fitness>
17.5490

> <Gold.Chemscore.DG>
-18.3209

> <Gold.Chemscore.ZeroCoef>
-5.4800

> <Gold.Chemscore.Hbond>
1.8729

> <Gold.Chemscore.Metal>
0.0000

> <Gold.Chemscore.Lipo>
96.9112

> <Gold.Chemscore.Internal_Hbond>
0.0000

> <Gold.Chemscore.DEClash>
0.1795

> <Gold.Chemscore.DEInternal>
0.5925

> <Gold.Chemscore.Rot>
1.8567

> <Gold.Chemscore.Internal.Correction>
   9.000000E+99

> <Gold.Chemscore.Hbonds>
donor molecule, donor type, donor heavy atom, donor atom, acceptor molecule, acceptor atom, score
      L1  H     3    17       P1  8028  0.97
      L1  H     9    36       P1  7948  0.93

> <Gold.Chemscore.Hbond.Weighted>
-6.2554

> <Gold.Chemscore.Metal.Weighted>
-0.0000

> <Gold.Chemscore.Lipo.Weighted>
-11.3386

> <Gold.Chemscore.Internal_Hbond.Weighted>
0.0000

> <Gold.Chemscore.DEClash.Weighted>
0.1795

> <Gold.Chemscore.DEInternal.Weighted>
0.5925

> <Gold.Chemscore.Rot.Weighted>
4.7531

> <Gold.Chemscore.Internal.Correction.Weighted>
   9.000000E+99

> <Gold.Protein.RotatedTorsions>
[ 6907 6896 6895 6894 ] final  -53.63 input  -60.11 | X-H torsion
[ 7974 7965 7964 7962 ] final  158.39 input  175.53 | X-H torsion
[ 8008 7997 7996 7995 ] final   80.49 input   59.86 | X-H torsion
[ 10167 10162 10161 10158 ] final -147.44 input  -65.29 | X-H torsion
[ 10718 10713 10712 10709 ] final  173.59 input   66.30 | X-H torsion
[ 10763 10752 10751 10750 ] final  165.82 input  -60.55 | X-H torsion
[ 11005 11000 10999 10996 ] final -174.58 input  -57.11 | X-H torsion

> <Gold.Protein.ActiveResidues>
 VAL166  LYS551  ARG553  GLY616  TRP617  ASP618  TYR619  PRO620  LYS621  CYS622 
 ASP623  PHE694  ASN695  SER759  ASP760  ASP761  ALA762  ILE779  LEU786  VAL792 
 PHE793  MET794  SER795  GLU796  ALA797  LYS798  CYS799  TRP800  GLU811  SER814 

> <Gold.Protein.RotatedAtoms>
  150.8409  134.7701  159.6931 H   0  0  0  0  0  0  0  0  0  0  0  0  # atno 6907 bound_to 6896
  152.4497  134.5417  159.9851 H   0  0  0  0  0  0  0  0  0  0  0  0  # atno 6908 bound_to 6896
  151.5557  133.3373  159.2997 H   0  0  0  0  0  0  0  0  0  0  0  0  # atno 6909 bound_to 6896
  144.7848  139.7472  143.6245 H   0  0  0  0  0  0  0  0  0  0  0  0  # atno 7974 bound_to 7965
  155.8842  140.3442  155.5909 H   0  0  0  0  0  0  0  0  0  0  0  0  # atno 8008 bound_to 7997
  155.7685  140.0842  157.2139 H   0  0  0  0  0  0  0  0  0  0  0  0  # atno 8009 bound_to 7997
  154.4027  140.1523  156.2902 H   0  0  0  0  0  0  0  0  0  0  0  0  # atno 8010 bound_to 7997
  139.7621  143.8361  152.2609 H   0  0  0  0  0  0  0  0  0  0  0  0  # atno 10167 bound_to 10162
  156.9620  131.0064  151.2925 H   0  0  0  0  0  0  0  0  0  0  0  0  # atno 10718 bound_to 10713
  154.3298  135.2755  155.2477 H   0  0  0  0  0  0  0  0  0  0  0  0  # atno 10763 bound_to 10752
  154.4794  135.5862  153.6382 H   0  0  0  0  0  0  0  0  0  0  0  0  # atno 10764 bound_to 10752
  152.9867  135.6108  154.3489 H   0  0  0  0  0  0  0  0  0  0  0  0  # atno 10765 bound_to 10752
  140.4729  134.6148  157.4889 H   0  0  0  0  0  0  0  0  0  0  0  0  # atno 11005 bound_to 11000
  146.2075  139.5409  142.9703 LP  0  0  0  0  0  0  0  0  0  0  0  0  # atno 17320 bound_to 7965
  145.5951  141.0364  143.2049 LP  0  0  0  0  0  0  0  0  0  0  0  0  # atno 17321 bound_to 7965
  139.8370  144.7227  150.9378 LP  0  0  0  0  0  0  0  0  0  0  0  0  # atno 17342 bound_to 10162
  140.7808  143.4017  151.1137 LP  0  0  0  0  0  0  0  0  0  0  0  0  # atno 17343 bound_to 10162
  157.5651  130.8272  149.8317 LP  0  0  0  0  0  0  0  0  0  0  0  0  # atno 17370 bound_to 10713
  156.0318  130.3762  150.1667 LP  0  0  0  0  0  0  0  0  0  0  0  0  # atno 17371 bound_to 10713
  139.9874  134.7040  155.9750 LP  0  0  0  0  0  0  0  0  0  0  0  0  # atno 17394 bound_to 11000
  141.1568  133.6542  156.4188 LP  0  0  0  0  0  0  0  0  0  0  0  0  # atno 17395 bound_to 11000

$$$$
