AV-unprocessed.smi:1213|AV-procd|sdf|5090|dock9
  -GOLD-   22720 4143D 1   1.00000     0.00000
 Structure written by MMmdl.
 36 37  0  0  0  0  0  0  0  0  3 V2000
  146.7313  131.8407  149.5583 N   0  0  0  0  0  0  0  0  0  0  0  0
  145.5902  131.8174  150.2507 C   0  0  0  0  0  0  0  0  0  0  0  0
  145.5161  131.3231  151.3742 O   0  0  0  0  0  0  0  0  0  0  0  0
  144.3666  132.4586  149.5871 C   0  0  0  0  0  0  0  0  0  0  0  0
  143.7763  133.5597  150.3912 N   0  3  2  0  0  0  0  0  0  0  0  0
  144.6811  134.7325  150.5303 C   0  0  0  0  0  0  0  0  0  0  0  0
  143.9760  135.8934  151.2504 C   0  0  0  0  0  0  0  0  0  0  0  0
  143.4511  135.4529  152.6260 C   0  0  1  0  0  0  0  0  0  0  0  0
  142.7186  136.5498  153.2509 N   0  0  0  0  0  0  0  0  0  0  0  0
  142.0001  136.4730  154.3802 C   0  0  0  0  0  0  0  0  0  0  0  0
  141.9162  135.4011  154.9843 O   0  0  0  0  0  0  0  0  0  0  0  0
  141.4219  137.6420  154.7351 N   0  5  0  0  0  0  0  0  0  0  0  0
  140.1004  137.8147  154.5701 C   0  0  0  0  0  0  0  0  0  0  0  0
  139.4617  138.9356  154.9244 N   0  0  0  0  0  0  0  0  0  0  0  0
  138.0920  138.9025  154.6562 C   0  0  0  0  0  0  0  0  0  0  0  0
  137.6796  137.7320  154.0766 C   0  0  0  0  0  0  0  0  0  0  0  0
  139.0073  136.6299  153.8489 S   0  0  0  0  0  0  0  0  0  0  0  0
  142.5494  134.2162  152.4603 C   0  0  0  0  0  0  0  0  0  0  0  0
  143.2819  133.0920  151.7112 C   0  0  0  0  0  0  0  0  0  0  0  0
  147.5661  131.4338  149.9563 H   0  0  0  0  0  0  0  0  0  0  0  0
  146.7633  132.2660  148.6428 H   0  0  0  0  0  0  0  0  0  0  0  0
  144.7034  132.8469  148.6250 H   0  0  0  0  0  0  0  0  0  0  0  0
  143.6080  131.7042  149.3718 H   0  0  0  0  0  0  0  0  0  0  0  0
  145.5769  134.4404  151.0808 H   0  0  0  0  0  0  0  0  0  0  0  0
  145.0128  135.0716  149.5486 H   0  0  0  0  0  0  0  0  0  0  0  0
  144.6660  136.7305  151.3638 H   0  0  0  0  0  0  0  0  0  0  0  0
  143.1507  136.2539  150.6343 H   0  0  0  0  0  0  0  0  0  0  0  0
  144.3069  135.1923  153.2517 H   0  0  0  0  0  0  0  0  0  0  0  0
  142.7592  137.4485  152.7925 H   0  0  0  0  0  0  0  0  0  0  0  0
  137.4856  139.7592  154.9101 H   0  0  0  0  0  0  0  0  0  0  0  0
  136.6829  137.4524  153.7704 H   0  0  0  0  0  0  0  0  0  0  0  0
  142.2225  133.8524  153.4351 H   0  0  0  0  0  0  0  0  0  0  0  0
  141.6446  134.4876  151.9138 H   0  0  0  0  0  0  0  0  0  0  0  0
  142.5987  132.2531  151.5736 H   0  0  0  0  0  0  0  0  0  0  0  0
  144.1197  132.7256  152.3066 H   0  0  0  0  0  0  0  0  0  0  0  0
  142.9634  133.8757  149.8810 H   0  0  0  0  0  0  0  0  0  0  0  0
  1  2  1  0  0  0  0
  1 20  1  0  0  0  0
  1 21  1  0  0  0  0
  2  3  2  0  0  0  0
  2  4  1  0  0  0  0
  4  5  1  0  0  0  0
  4 22  1  0  0  0  0
  4 23  1  0  0  0  0
  5 19  1  0  0  0  0
  5  6  1  0  0  0  0
  5 36  1  0  0  0  0
  6  7  1  0  0  0  0
  6 24  1  0  0  0  0
  6 25  1  0  0  0  0
  7  8  1  0  0  0  0
  7 26  1  0  0  0  0
  7 27  1  0  0  0  0
  8  9  1  0  0  0  0
  8 18  1  0  0  0  0
  8 28  1  0  0  0  0
  9 10  1  0  0  0  0
  9 29  1  0  0  0  0
 10 11  2  0  0  0  0
 10 12  1  0  0  0  0
 12 13  1  0  0  0  0
 13 17  1  0  0  0  0
 13 14  2  0  0  0  0
 14 15  1  0  0  0  0
 15 16  2  0  0  0  0
 15 30  1  0  0  0  0
 16 17  1  0  0  0  0
 16 31  1  0  0  0  0
 18 19  1  0  0  0  0
 18 32  1  0  0  0  0
 18 33  1  0  0  0  0
 19 34  1  0  0  0  0
 19 35  1  0  0  0  0
M  CHG  1   5   1
M  CHG  1  12  -1
M  END
> <s_m_source_file>
AV-unprocessed.smi

> <i_m_source_file_index>
1213

> <i_lp_mmshare_version>
43012

> <i_f3d_flags>
0

> <s_epik_input>
W05IMl1DKD1PKVtDSDJdTjFbQ0gyXVtDSDJdW0NIXShbQ0gyXVtDSDJdMSlbTkhdQyg9TylbTkhdYzJuW2NIXVtjSF1zMg==

> <s_epik_cmdline>
J2VwaWtfcHl0aG9uJywgJy1waCcsICc3LjAnLCAnLXRuJywgJzgnLCAnLW1hJywgJzIwMCcsICctbWV0YWxfYmluZGluZycsICctaW1hZScsICc8aW5maWxlLm1hZT4nLCAnLW9tYWUnLCAnPG91dGZpbGUubWFlPic=

> <r_lp_tautomer_probability>
0.999

> <r_epik_Ionization_Penalty>
7.1168

> <r_epik_Ionization_Penalty_Charging>
6.25003

> <r_epik_Ionization_Penalty_Neutral>
0.866763

> <r_epik_State_Penalty>
6.33484

> <r_epik_Charging_Adjusted_Penalty>
12.5849

> <i_epik_Tot_Q>
0

> <i_epik_Tot_abs_Q>
2

> <r_epik_Metal_State_Penalty>
2.3501

> <b_epik_Metal_Only>
1

> <s_lp_Force_Field>
OPLS_2005

> <r_lp_Energy>
2.02951

> <b_lp_Chiralities_Consistent>
1

> <s_lp_Variant>
AV-unprocessed.smi:1213-7

> <Gold.Version>
5.8.1

> <Gold.Id.Protein>
6NUR|6NUR_protein|mol2

> <Gold.PLP.Fitness>
39.2587

> <Gold.PLP.PLP>
-30.5721

> <Gold.PLP.part.hbond>
-3.0000

> <Gold.PLP.part.metal>
0.0000

> <Gold.PLP.part.buried>
-5.2719

> <Gold.PLP.part.nonpolar>
-24.0226

> <Gold.PLP.part.repulsive>
0.5263

> <Gold.PLP.ligand.clash>
0.0000

> <Gold.PLP.ligand.torsion>
0.7800

> <Gold.PLP.Chemscore.Hbond>
3.4000

> <Gold.PLP.Chemscore.CHOScore>
0.0000

> <Gold.PLP.Chemscore.Metal>
0.0000

> <Gold.Chemscore.Hbonds>
donor molecule, donor type, donor heavy atom, donor atom, acceptor molecule, acceptor atom, score
      L1  H     1    20       P1 10747  1.00
      L1  H     5    36       P1 10186  1.89
      P1  H 11000 11005       L1    11  0.38

> <Gold.PLP.Chemscore.Internal.Correction>
0.0466

> <Gold.Rescore>
     Score         DG    S(hbond)    S(metal)    S(lipo)     H(rot)  DE(clash)    DE(int)     intcor
     12.78     -16.03       2.43        0.00      65.33       2.04       0.11       3.14       ----

> <Gold.Chemscore.Fitness>
12.7761

> <Gold.Chemscore.DG>
-16.0257

> <Gold.Chemscore.ZeroCoef>
-5.4800

> <Gold.Chemscore.Hbond>
2.4303

> <Gold.Chemscore.Metal>
0.0000

> <Gold.Chemscore.Lipo>
65.3320

> <Gold.Chemscore.Internal_Hbond>
0.0000

> <Gold.Chemscore.DEClash>
0.1075

> <Gold.Chemscore.DEInternal>
3.1422

> <Gold.Chemscore.Rot>
2.0373

> <Gold.Chemscore.Internal.Correction>
   9.000000E+99

> <Gold.Chemscore.Hbonds>
donor molecule, donor type, donor heavy atom, donor atom, acceptor molecule, acceptor atom, score
      L1  H     1    20       P1 10747  0.94
      L1  H     5    36       P1 10186  0.89
      P1  H 11000 11005       L1    11  0.36

> <Gold.Chemscore.Hbond.Weighted>
-8.1172

> <Gold.Chemscore.Metal.Weighted>
-0.0000

> <Gold.Chemscore.Lipo.Weighted>
-7.6438

> <Gold.Chemscore.Internal_Hbond.Weighted>
0.0000

> <Gold.Chemscore.DEClash.Weighted>
0.1075

> <Gold.Chemscore.DEInternal.Weighted>
3.1422

> <Gold.Chemscore.Rot.Weighted>
5.2154

> <Gold.Chemscore.Internal.Correction.Weighted>
   9.000000E+99

> <Gold.Protein.RotatedTorsions>
[ 6907 6896 6895 6894 ] final  -55.22 input  -60.11 | X-H torsion
[ 7974 7965 7964 7962 ] final  127.23 input  175.53 | X-H torsion
[ 8008 7997 7996 7995 ] final   -8.70 input   59.86 | X-H torsion
[ 10167 10162 10161 10158 ] final   23.92 input  -65.29 | X-H torsion
[ 10718 10713 10712 10709 ] final  -64.18 input   66.30 | X-H torsion
[ 10763 10752 10751 10750 ] final  114.28 input  -60.55 | X-H torsion
[ 11005 11000 10999 10996 ] final   17.33 input  -57.11 | X-H torsion

> <Gold.Protein.ActiveResidues>
 VAL166  LYS551  ARG553  GLY616  TRP617  ASP618  TYR619  PRO620  LYS621  CYS622 
 ASP623  PHE694  ASN695  SER759  ASP760  ASP761  ALA762  ILE779  LEU786  VAL792 
 PHE793  MET794  SER795  GLU796  ALA797  LYS798  CYS799  TRP800  GLU811  SER814 

> <Gold.Protein.RotatedAtoms>
  150.8270  134.7506  159.6821 H   0  0  0  0  0  0  0  0  0  0  0  0  # atno 6907 bound_to 6896
  152.4380  134.5645  159.9913 H   0  0  0  0  0  0  0  0  0  0  0  0  # atno 6908 bound_to 6896
  151.5815  133.3339  159.3045 H   0  0  0  0  0  0  0  0  0  0  0  0  # atno 6909 bound_to 6896
  145.0529  139.3868  143.5045 H   0  0  0  0  0  0  0  0  0  0  0  0  # atno 7974 bound_to 7965
  154.5716  140.2374  155.8183 H   0  0  0  0  0  0  0  0  0  0  0  0  # atno 8008 bound_to 7997
  156.2111  140.3026  155.9693 H   0  0  0  0  0  0  0  0  0  0  0  0  # atno 8009 bound_to 7997
  155.2702  140.0418  157.2996 H   0  0  0  0  0  0  0  0  0  0  0  0  # atno 8010 bound_to 7997
  140.5230  143.9970  150.6426 H   0  0  0  0  0  0  0  0  0  0  0  0  # atno 10167 bound_to 10162
  156.0745  130.4230  150.1383 H   0  0  0  0  0  0  0  0  0  0  0  0  # atno 10718 bound_to 10713
  153.5050  135.3630  155.2558 H   0  0  0  0  0  0  0  0  0  0  0  0  # atno 10763 bound_to 10752
  154.8745  135.4009  154.3435 H   0  0  0  0  0  0  0  0  0  0  0  0  # atno 10764 bound_to 10752
  153.4078  135.7077  153.6447 H   0  0  0  0  0  0  0  0  0  0  0  0  # atno 10765 bound_to 10752
  140.4372  134.1359  155.7686 H   0  0  0  0  0  0  0  0  0  0  0  0  # atno 11005 bound_to 11000
  146.3519  140.0188  142.8660 LP  0  0  0  0  0  0  0  0  0  0  0  0  # atno 17320 bound_to 7965
  145.1505  140.9620  143.4436 LP  0  0  0  0  0  0  0  0  0  0  0  0  # atno 17321 bound_to 7965
  140.3324  143.3069  152.0673 LP  0  0  0  0  0  0  0  0  0  0  0  0  # atno 17342 bound_to 10162
  139.4929  144.6500  151.6696 LP  0  0  0  0  0  0  0  0  0  0  0  0  # atno 17343 bound_to 10162
  156.9427  130.9750  151.3513 LP  0  0  0  0  0  0  0  0  0  0  0  0  # atno 17370 bound_to 10713
  157.5833  130.8392  149.8553 LP  0  0  0  0  0  0  0  0  0  0  0  0  # atno 17371 bound_to 10713
  141.1721  133.8588  157.1538 LP  0  0  0  0  0  0  0  0  0  0  0  0  # atno 17394 bound_to 11000
  140.0094  134.9994  157.0363 LP  0  0  0  0  0  0  0  0  0  0  0  0  # atno 17395 bound_to 11000

$$$$
