AV-unprocessed.smi:1374|AV-procd|sdf|5587|dock1
  -GOLD-   22720 5183D 1   1.00000     0.00000
 Structure written by MMmdl.
 43 44  0  0  0  0  0  0  0  0  1 V2000
  146.1644  132.5265  150.0960 C   0  0  0  0  0  0  0  0  0  0  0  0
  145.9037  132.8140  151.5785 C   0  0  0  0  0  0  0  0  0  0  0  0
  146.9466  132.1629  152.4965 C   0  0  0  0  0  0  0  0  0  0  0  0
  148.2499  132.9758  152.5713 C   0  0  0  0  0  0  0  0  0  0  0  0
  148.7731  133.0609  153.9201 N   0  0  0  0  0  0  0  0  0  0  0  0
  149.0439  134.2691  154.5695 C   0  0  0  0  0  0  0  0  0  0  0  0
  148.8157  135.4463  153.8718 N   0  0  0  0  0  0  0  0  0  0  0  0
  149.5686  134.3048  155.8315 C   0  0  0  0  0  0  0  0  0  0  0  0
  149.8291  135.5256  156.4904 N   0  0  0  0  0  0  0  0  0  0  0  0
  148.9888  135.8283  157.6550 C   0  0  0  0  0  0  0  0  0  0  0  0
  150.8280  136.3939  156.1542 C   0  0  0  0  0  0  0  0  0  0  0  0
  151.4314  136.2782  155.0850 O   0  0  0  0  0  0  0  0  0  0  0  0
  151.1727  137.4308  157.1330 C   0  0  0  0  0  0  0  0  0  0  0  0
  151.3913  138.6917  156.6941 C   0  0  0  0  0  0  0  0  0  0  0  0
  151.7743  139.7295  157.5068 O   0  0  0  0  0  0  0  0  0  0  0  0
  152.1741  139.3448  158.8169 C   0  0  0  0  0  0  0  0  0  0  0  0
  151.2554  138.2389  159.3540 C   0  0  0  0  0  0  0  0  0  0  0  0
  151.2760  137.1241  158.4718 O   0  0  0  0  0  0  0  0  0  0  0  0
  149.8271  133.0568  156.5662 C   0  0  0  0  0  0  0  0  0  0  0  0
  150.2502  132.9747  157.7187 O   0  0  0  0  0  0  0  0  0  0  0  0
  149.5612  131.8909  155.8537 N   0  0  0  0  0  0  0  0  0  0  0  0
  149.0646  131.8308  154.5569 C   0  0  0  0  0  0  0  0  0  0  0  0
  148.9006  130.7327  154.0241 O   0  0  0  0  0  0  0  0  0  0  0  0
  149.7492  131.0138  156.3167 H   0  0  0  0  0  0  0  0  0  0  0  0
  145.4085  133.0003  149.4696 H   0  0  0  0  0  0  0  0  0  0  0  0
  146.1413  131.4556  149.8924 H   0  0  0  0  0  0  0  0  0  0  0  0
  147.1384  132.9062  149.7865 H   0  0  0  0  0  0  0  0  0  0  0  0
  145.8974  133.8927  151.7390 H   0  0  0  0  0  0  0  0  0  0  0  0
  144.9086  132.4560  151.8445 H   0  0  0  0  0  0  0  0  0  0  0  0
  146.5266  132.0492  153.4967 H   0  0  0  0  0  0  0  0  0  0  0  0
  147.1660  131.1559  152.1385 H   0  0  0  0  0  0  0  0  0  0  0  0
  149.0328  132.5362  151.9539 H   0  0  0  0  0  0  0  0  0  0  0  0
  148.1258  133.9904  152.1883 H   0  0  0  0  0  0  0  0  0  0  0  0
  148.4653  135.4423  152.9244 H   0  0  0  0  0  0  0  0  0  0  0  0
  148.9141  136.3514  154.3085 H   0  0  0  0  0  0  0  0  0  0  0  0
  148.4681  136.7774  157.5201 H   0  0  0  0  0  0  0  0  0  0  0  0
  149.5917  135.8926  158.5621 H   0  0  0  0  0  0  0  0  0  0  0  0
  148.2338  135.0595  157.8257 H   0  0  0  0  0  0  0  0  0  0  0  0
  151.3204  139.0033  155.6617 H   0  0  0  0  0  0  0  0  0  0  0  0
  153.2083  138.9991  158.7886 H   0  0  0  0  0  0  0  0  0  0  0  0
  152.1441  140.2171  159.4698 H   0  0  0  0  0  0  0  0  0  0  0  0
  151.5784  137.9157  160.3437 H   0  0  0  0  0  0  0  0  0  0  0  0
  150.2314  138.6022  159.4519 H   0  0  0  0  0  0  0  0  0  0  0  0
  1  2  1  0  0  0  0
  1 25  1  0  0  0  0
  1 26  1  0  0  0  0
  1 27  1  0  0  0  0
  2  3  1  0  0  0  0
  2 28  1  0  0  0  0
  2 29  1  0  0  0  0
  3  4  1  0  0  0  0
  3 30  1  0  0  0  0
  3 31  1  0  0  0  0
  4  5  1  0  0  0  0
  4 32  1  0  0  0  0
  4 33  1  0  0  0  0
  5 22  1  0  0  0  0
  5  6  1  0  0  0  0
  6  7  1  0  0  0  0
  6  8  2  0  0  0  0
  7 34  1  0  0  0  0
  7 35  1  0  0  0  0
  8  9  1  0  0  0  0
  8 19  1  0  0  0  0
  9 10  1  0  0  0  0
  9 11  1  0  0  0  0
 10 36  1  0  0  0  0
 10 37  1  0  0  0  0
 10 38  1  0  0  0  0
 11 12  2  0  0  0  0
 11 13  1  0  0  0  0
 13 18  1  0  0  0  0
 13 14  2  0  0  0  0
 14 15  1  0  0  0  0
 14 39  1  0  0  0  0
 15 16  1  0  0  0  0
 16 17  1  0  0  0  0
 16 40  1  0  0  0  0
 16 41  1  0  0  0  0
 17 18  1  0  0  0  0
 17 42  1  0  0  0  0
 17 43  1  0  0  0  0
 19 20  2  0  0  0  0
 19 21  1  0  0  0  0
 21 24  1  0  0  0  0
 21 22  1  0  0  0  0
 22 23  2  0  0  0  0
M  END
> <s_m_source_file>
AV-unprocessed.smi

> <i_m_source_file_index>
1374

> <i_lp_mmshare_version>
43012

> <i_f3d_flags>
0

> <s_epik_input>
W0NIM11bQ0gyXVtDSDJdW0NIMl1uMWMoW05IMl0pYyhjKD1PKVtuSF1jMT1PKU4oW0NIM10pQyg9TylDMj1bQ0hdT1tDSDJdW0NIMl1PMg==

> <s_epik_cmdline>
J2VwaWtfcHl0aG9uJywgJy1waCcsICc3LjAnLCAnLXRuJywgJzgnLCAnLW1hJywgJzIwMCcsICctbWV0YWxfYmluZGluZycsICctaW1hZScsICc8aW5maWxlLm1hZT4nLCAnLW9tYWUnLCAnPG91dGZpbGUubWFlPic=

> <r_lp_tautomer_probability>
1

> <r_epik_Ionization_Penalty>
3.28524e-05

> <r_epik_Ionization_Penalty_Charging>
2.39265e-05

> <r_epik_Ionization_Penalty_Neutral>
8.92594e-06

> <r_epik_State_Penalty>
-0

> <r_epik_Charging_Adjusted_Penalty>
2.39265e-05

> <i_epik_Tot_Q>
0

> <i_epik_Tot_abs_Q>
0

> <r_epik_Metal_State_Penalty>
0.0232519

> <b_epik_Metal_Only>
0

> <s_epik_Chemistry_Notes>
This compound has an imine and may undergo hydrolysis.

> <s_lp_Force_Field>
OPLS_2005

> <r_lp_Energy>
27.3757

> <b_lp_Chiralities_Consistent>
1

> <s_lp_Variant>
AV-unprocessed.smi:1374-1

> <Gold.Version>
5.8.1

> <Gold.Id.Protein>
6NUR|6NUR_protein|mol2

> <Gold.PLP.Fitness>
39.5368

> <Gold.PLP.PLP>
-30.4338

> <Gold.PLP.part.hbond>
-3.4647

> <Gold.PLP.part.metal>
0.0000

> <Gold.PLP.part.buried>
-2.6437

> <Gold.PLP.part.nonpolar>
-24.7864

> <Gold.PLP.part.repulsive>
0.2012

> <Gold.PLP.ligand.clash>
0.0000

> <Gold.PLP.ligand.torsion>
2.4950

> <Gold.PLP.Chemscore.Hbond>
3.4017

> <Gold.PLP.Chemscore.CHOScore>
0.0000

> <Gold.PLP.Chemscore.Metal>
0.0000

> <Gold.Chemscore.Hbonds>
donor molecule, donor type, donor heavy atom, donor atom, acceptor molecule, acceptor atom, score
      L1  H     7    34       P1  7948  0.34
      P1  H  6896  6908       L1    20  1.00
      P1  H 10752 10764       L1    12  1.00

> <Gold.PLP.Chemscore.Internal.Correction>
3.8880

> <Gold.Rescore>
     Score         DG    S(hbond)    S(metal)    S(lipo)     H(rot)  DE(clash)    DE(int)     intcor
     12.90     -18.35       3.11        0.00      53.73       1.49       0.03       5.42       ----

> <Gold.Chemscore.Fitness>
12.9009

> <Gold.Chemscore.DG>
-18.3504

> <Gold.Chemscore.ZeroCoef>
-5.4800

> <Gold.Chemscore.Hbond>
3.1115

> <Gold.Chemscore.Metal>
0.0000

> <Gold.Chemscore.Lipo>
53.7272

> <Gold.Chemscore.Internal_Hbond>
0.0000

> <Gold.Chemscore.DEClash>
0.0339

> <Gold.Chemscore.DEInternal>
5.4156

> <Gold.Chemscore.Rot>
1.4875

> <Gold.Chemscore.Internal.Correction>
   9.000000E+99

> <Gold.Chemscore.Hbonds>
donor molecule, donor type, donor heavy atom, donor atom, acceptor molecule, acceptor atom, score
      L1  H     7    34       P1  7948  0.33
      P1  H  6896  6908       L1    20  1.00
      P1  H  6896  6909       L1    18  0.03
      P1  H 10752 10764       L1    12  0.99

> <Gold.Chemscore.Hbond.Weighted>
-10.3925

> <Gold.Chemscore.Metal.Weighted>
-0.0000

> <Gold.Chemscore.Lipo.Weighted>
-6.2861

> <Gold.Chemscore.Internal_Hbond.Weighted>
0.0000

> <Gold.Chemscore.DEClash.Weighted>
0.0339

> <Gold.Chemscore.DEInternal.Weighted>
5.4156

> <Gold.Chemscore.Rot.Weighted>
3.8081

> <Gold.Chemscore.Internal.Correction.Weighted>
   9.000000E+99

> <Gold.Protein.RotatedTorsions>
[ 6907 6896 6895 6894 ] final  100.27 input  -60.11 | X-H torsion
[ 7974 7965 7964 7962 ] final   -7.83 input  175.53 | X-H torsion
[ 8008 7997 7996 7995 ] final  -98.61 input   59.86 | X-H torsion
[ 10167 10162 10161 10158 ] final  -20.62 input  -65.29 | X-H torsion
[ 10718 10713 10712 10709 ] final -131.83 input   66.30 | X-H torsion
[ 10763 10752 10751 10750 ] final  -72.11 input  -60.55 | X-H torsion
[ 11005 11000 10999 10996 ] final  140.55 input  -57.11 | X-H torsion

> <Gold.Protein.ActiveResidues>
 VAL166  LYS551  ARG553  GLY616  TRP617  ASP618  TYR619  PRO620  LYS621  CYS622 
 ASP623  PHE694  ASN695  SER759  ASP760  ASP761  ALA762  ILE779  LEU786  VAL792 
 PHE793  MET794  SER795  GLU796  ALA797  LYS798  CYS799  TRP800  GLU811  SER814 

> <Gold.Protein.RotatedAtoms>
  152.5375  134.0302  159.8021 H   0  0  0  0  0  0  0  0  0  0  0  0  # atno 6907 bound_to 6896
  151.0474  133.5645  159.2652 H   0  0  0  0  0  0  0  0  0  0  0  0  # atno 6908 bound_to 6896
  151.2592  135.0656  159.9145 H   0  0  0  0  0  0  0  0  0  0  0  0  # atno 6909 bound_to 6896
  146.2296  140.2378  142.8342 H   0  0  0  0  0  0  0  0  0  0  0  0  # atno 7974 bound_to 7965
  154.8036  140.0454  157.1291 H   0  0  0  0  0  0  0  0  0  0  0  0  # atno 8008 bound_to 7997
  154.9450  140.3057  155.5082 H   0  0  0  0  0  0  0  0  0  0  0  0  # atno 8009 bound_to 7997
  156.2964  140.2298  156.4523 H   0  0  0  0  0  0  0  0  0  0  0  0  # atno 8010 bound_to 7997
  140.7277  143.4705  151.0253 H   0  0  0  0  0  0  0  0  0  0  0  0  # atno 10167 bound_to 10162
  156.2284  130.7022  151.0832 H   0  0  0  0  0  0  0  0  0  0  0  0  # atno 10718 bound_to 10713
  154.4411  135.5940  153.6130 H   0  0  0  0  0  0  0  0  0  0  0  0  # atno 10763 bound_to 10752
  152.9805  135.5998  154.3721 H   0  0  0  0  0  0  0  0  0  0  0  0  # atno 10764 bound_to 10752
  154.3571  135.2841  155.2319 H   0  0  0  0  0  0  0  0  0  0  0  0  # atno 10765 bound_to 10752
  140.0335  134.9340  157.0709 H   0  0  0  0  0  0  0  0  0  0  0  0  # atno 11005 bound_to 11000
  144.9508  140.8176  143.5573 LP  0  0  0  0  0  0  0  0  0  0  0  0  # atno 17320 bound_to 7965
  145.2339  139.2102  143.5028 LP  0  0  0  0  0  0  0  0  0  0  0  0  # atno 17321 bound_to 7965
  139.8397  143.7580  152.3180 LP  0  0  0  0  0  0  0  0  0  0  0  0  # atno 17342 bound_to 10162
  139.7725  144.7472  151.0204 LP  0  0  0  0  0  0  0  0  0  0  0  0  # atno 17343 bound_to 10162
  157.7121  131.0728  150.6461 LP  0  0  0  0  0  0  0  0  0  0  0  0  # atno 17370 bound_to 10713
  156.6528  130.4490  149.5714 LP  0  0  0  0  0  0  0  0  0  0  0  0  # atno 17371 bound_to 10713
  140.4185  134.1905  155.7164 LP  0  0  0  0  0  0  0  0  0  0  0  0  # atno 17394 bound_to 11000
  141.1844  133.8343  157.1139 LP  0  0  0  0  0  0  0  0  0  0  0  0  # atno 17395 bound_to 11000

$$$$
