AV-unprocessed.smi:376|AV-procd|sdf|2455|dock2
  -GOLD-   2262022393D 1   1.00000     0.00000
 Structure written by MMmdl.
 32 33  0  0  0  0  0  0  0  0  1 V2000
  154.3798  136.6111  163.5958 C   0  0  0  0  0  0  0  0  0  0  0  0
  154.4718  137.0344  162.4542 C   0  0  0  0  0  0  0  0  0  0  0  0
  154.5776  137.5308  161.0715 C   0  0  0  0  0  0  0  0  0  0  0  0
  153.2818  137.8686  160.4931 N   0  0  0  0  0  0  0  0  0  0  0  0
  153.0933  138.5288  159.3397 C   0  0  0  0  0  0  0  0  0  0  0  0
  154.0196  138.9270  158.6316 O   0  0  0  0  0  0  0  0  0  0  0  0
  151.6288  138.7631  158.9372 C   0  0  0  0  0  0  0  0  0  0  0  0
  151.4067  140.0391  158.2220 N   0  0  0  0  0  0  0  0  0  0  0  0
  150.6952  140.0163  156.9951 C   0  0  0  0  0  0  0  0  0  0  0  0
  150.2462  138.9627  156.5408 O   0  0  0  0  0  0  0  0  0  0  0  0
  150.5559  141.3072  156.3249 C   0  0  0  0  0  0  0  0  0  0  0  0
  149.8753  141.3208  155.0726 C   0  0  0  0  0  0  0  0  0  0  0  0
  149.3204  141.3575  154.0577 N   0  0  0  0  0  0  0  0  0  0  0  0
  151.0588  142.4326  156.8726 C   0  0  0  0  0  0  0  0  0  0  0  0
  151.7127  142.4387  158.0854 N   0  0  0  0  0  0  0  0  0  0  0  0
  152.3741  143.6162  158.5728 C   0  0  0  0  0  0  0  0  0  0  0  0
  152.0886  144.1329  159.9696 C   0  0  0  0  0  0  0  0  0  0  0  0
  151.5686  144.8821  158.7672 C   0  0  0  0  0  0  0  0  0  0  0  0
  151.9515  141.2264  158.7688 C   0  0  0  0  0  0  0  0  0  0  0  0
  152.6222  141.1982  159.8037 O   0  0  0  0  0  0  0  0  0  0  0  0
  154.3024  136.2393  164.5928 H   0  0  0  0  0  0  0  0  0  0  0  0
  155.2008  138.4249  161.0841 H   0  0  0  0  0  0  0  0  0  0  0  0
  155.0994  136.7850  160.4699 H   0  0  0  0  0  0  0  0  0  0  0  0
  152.4647  137.5767  161.0097 H   0  0  0  0  0  0  0  0  0  0  0  0
  151.2966  137.9152  158.3361 H   0  0  0  0  0  0  0  0  0  0  0  0
  151.0099  138.7080  159.8343 H   0  0  0  0  0  0  0  0  0  0  0  0
  150.9414  143.3680  156.3445 H   0  0  0  0  0  0  0  0  0  0  0  0
  153.3938  143.7546  158.2177 H   0  0  0  0  0  0  0  0  0  0  0  0
  151.3583  143.6015  160.5770 H   0  0  0  0  0  0  0  0  0  0  0  0
  152.9172  144.5749  160.5189 H   0  0  0  0  0  0  0  0  0  0  0  0
  152.0490  145.8258  158.5169 H   0  0  0  0  0  0  0  0  0  0  0  0
  150.4969  144.8419  158.5819 H   0  0  0  0  0  0  0  0  0  0  0  0
  1  2  3  0  0  0  0
  1 21  1  0  0  0  0
  2  3  1  0  0  0  0
  3  4  1  0  0  0  0
  3 22  1  0  0  0  0
  3 23  1  0  0  0  0
  4  5  1  0  0  0  0
  4 24  1  0  0  0  0
  5  6  2  0  0  0  0
  5  7  1  0  0  0  0
  7  8  1  0  0  0  0
  7 25  1  0  0  0  0
  7 26  1  0  0  0  0
  8 19  1  0  0  0  0
  8  9  1  0  0  0  0
  9 10  2  0  0  0  0
  9 11  1  0  0  0  0
 11 12  1  0  0  0  0
 11 14  2  0  0  0  0
 12 13  3  0  0  0  0
 14 15  1  0  0  0  0
 14 27  1  0  0  0  0
 15 16  1  0  0  0  0
 15 19  1  0  0  0  0
 16 18  1  0  0  0  0
 16 17  1  0  0  0  0
 16 28  1  0  0  0  0
 17 18  1  0  0  0  0
 17 29  1  0  0  0  0
 17 30  1  0  0  0  0
 18 31  1  0  0  0  0
 18 32  1  0  0  0  0
 19 20  2  0  0  0  0
M  END
> <s_m_source_file>
AV-unprocessed.smi

> <i_m_source_file_index>
376

> <i_lp_mmshare_version>
43012

> <i_f3d_flags>
0

> <s_epik_input>
W0NIXSNDW0NIMl1bTkhdQyg9TylbQ0gyXW4xYyg9TyljKEMjTilbY0hdbihjMT1PKVtDSF0yW0NIMl1bQ0gyXTI=

> <s_epik_cmdline>
J2VwaWtfcHl0aG9uJywgJy1waCcsICc3LjAnLCAnLXRuJywgJzgnLCAnLW1hJywgJzIwMCcsICctbWV0YWxfYmluZGluZycsICctaW1hZScsICc8aW5maWxlLm1hZT4nLCAnLW9tYWUnLCAnPG91dGZpbGUubWFlPic=

> <r_lp_tautomer_probability>
1

> <r_epik_Ionization_Penalty>
1.51832e-07

> <r_epik_Ionization_Penalty_Charging>
6.72035e-11

> <r_epik_Ionization_Penalty_Neutral>
1.51764e-07

> <r_epik_State_Penalty>
-0

> <r_epik_Charging_Adjusted_Penalty>
6.72035e-11

> <i_epik_Tot_Q>
0

> <i_epik_Tot_abs_Q>
0

> <r_epik_Metal_State_Penalty>
-0

> <b_epik_Metal_Only>
0

> <s_lp_Force_Field>
OPLS_2005

> <r_lp_Energy>
28.1194

> <b_lp_Chiralities_Consistent>
1

> <s_lp_Variant>
AV-unprocessed.smi:376-1

> <Gold.Version>
5.8.1

> <Gold.Id.Protein>
6NUR|6NUR_protein|mol2

> <Gold.PLP.Fitness>
48.1004

> <Gold.PLP.PLP>
-40.9607

> <Gold.PLP.part.hbond>
-3.0000

> <Gold.PLP.part.metal>
0.0000

> <Gold.PLP.part.buried>
-5.0836

> <Gold.PLP.part.nonpolar>
-33.7356

> <Gold.PLP.part.repulsive>
0.2838

> <Gold.PLP.ligand.clash>
0.0000

> <Gold.PLP.ligand.torsion>
0.6221

> <Gold.PLP.Chemscore.Hbond>
1.7200

> <Gold.PLP.Chemscore.CHOScore>
1.0000

> <Gold.PLP.Chemscore.Metal>
0.0000

> <Gold.Chemscore.Hbonds>
donor molecule, donor type, donor heavy atom, donor atom, acceptor molecule, acceptor atom, score
      P1  H  7997  8010       L1     6  1.00
      P1  H  8011  8017       L1    13  0.65
      L1  C    14    27       P1  8028  0.97

> <Gold.PLP.Chemscore.Internal.Correction>
0.2239

> <Gold.Rescore>
     Score         DG    S(hbond)    S(metal)    S(lipo)     H(rot)  DE(clash)    DE(int)     intcor
     13.33     -15.25       1.76        0.00      75.41       1.92       0.19       1.73       ----

> <Gold.Chemscore.Fitness>
13.3254

> <Gold.Chemscore.DG>
-15.2491

> <Gold.Chemscore.ZeroCoef>
-5.4800

> <Gold.Chemscore.Hbond>
1.7551

> <Gold.Chemscore.Metal>
0.0000

> <Gold.Chemscore.Lipo>
75.4097

> <Gold.Chemscore.Internal_Hbond>
0.0000

> <Gold.Chemscore.DEClash>
0.1894

> <Gold.Chemscore.DEInternal>
1.7342

> <Gold.Chemscore.Rot>
1.9202

> <Gold.Chemscore.Internal.Correction>
   9.000000E+99

> <Gold.Chemscore.Hbonds>
donor molecule, donor type, donor heavy atom, donor atom, acceptor molecule, acceptor atom, score
      P1  H  7997  8010       L1     6  0.99
      P1  H  8011  8017       L1    13  0.63

> <Gold.Chemscore.Hbond.Weighted>
-5.8619

> <Gold.Chemscore.Metal.Weighted>
-0.0000

> <Gold.Chemscore.Lipo.Weighted>
-8.8229

> <Gold.Chemscore.Internal_Hbond.Weighted>
0.0000

> <Gold.Chemscore.DEClash.Weighted>
0.1894

> <Gold.Chemscore.DEInternal.Weighted>
1.7342

> <Gold.Chemscore.Rot.Weighted>
4.9158

> <Gold.Chemscore.Internal.Correction.Weighted>
   9.000000E+99

> <Gold.Protein.RotatedTorsions>
[ 6907 6896 6895 6894 ] final -165.54 input  -60.11 | X-H torsion
[ 7974 7965 7964 7962 ] final  -39.41 input  175.53 | X-H torsion
[ 8008 7997 7996 7995 ] final   21.05 input   59.86 | X-H torsion
[ 10167 10162 10161 10158 ] final  157.76 input  -65.29 | X-H torsion
[ 10718 10713 10712 10709 ] final    3.58 input   66.30 | X-H torsion
[ 10763 10752 10751 10750 ] final  -74.44 input  -60.55 | X-H torsion
[ 11005 11000 10999 10996 ] final  -35.71 input  -57.11 | X-H torsion

> <Gold.Protein.ActiveResidues>
 VAL166  LYS551  ARG553  GLY616  TRP617  ASP618  TYR619  PRO620  LYS621  CYS622 
 ASP623  PHE694  ASN695  SER759  ASP760  ASP761  ALA762  ILE779  LEU786  VAL792 
 PHE793  MET794  SER795  GLU796  ALA797  LYS798  CYS799  TRP800  GLU811  SER814 

> <Gold.Protein.RotatedAtoms>
  151.4293  133.3675  159.2766 H   0  0  0  0  0  0  0  0  0  0  0  0  # atno 6907 bound_to 6896
  150.9236  134.8655  159.7516 H   0  0  0  0  0  0  0  0  0  0  0  0  # atno 6908 bound_to 6896
  152.4994  134.4233  159.9540 H   0  0  0  0  0  0  0  0  0  0  0  0  # atno 6909 bound_to 6896
  146.0399  140.6623  142.9092 H   0  0  0  0  0  0  0  0  0  0  0  0  # atno 7974 bound_to 7965
  154.9448  140.3058  155.5103 H   0  0  0  0  0  0  0  0  0  0  0  0  # atno 8008 bound_to 7997
  156.2992  140.2329  156.4458 H   0  0  0  0  0  0  0  0  0  0  0  0  # atno 8009 bound_to 7997
  154.8111  140.0428  157.1331 H   0  0  0  0  0  0  0  0  0  0  0  0  # atno 8010 bound_to 7997
  139.4824  144.4888  151.8339 H   0  0  0  0  0  0  0  0  0  0  0  0  # atno 10167 bound_to 10162
  156.8799  130.5650  149.5653 H   0  0  0  0  0  0  0  0  0  0  0  0  # atno 10718 bound_to 10713
  154.4732  135.5864  153.6336 H   0  0  0  0  0  0  0  0  0  0  0  0  # atno 10763 bound_to 10752
  152.9837  135.6072  154.3341 H   0  0  0  0  0  0  0  0  0  0  0  0  # atno 10764 bound_to 10752
  154.3225  135.2843  155.2492 H   0  0  0  0  0  0  0  0  0  0  0  0  # atno 10765 bound_to 10752
  140.9817  133.7052  156.1696 H   0  0  0  0  0  0  0  0  0  0  0  0  # atno 11005 bound_to 11000
  144.7069  140.3888  143.7111 LP  0  0  0  0  0  0  0  0  0  0  0  0  # atno 17320 bound_to 7965
  145.6902  139.1637  143.2651 LP  0  0  0  0  0  0  0  0  0  0  0  0  # atno 17321 bound_to 7965
  140.4370  144.2038  150.5890 LP  0  0  0  0  0  0  0  0  0  0  0  0  # atno 17342 bound_to 10162
  140.4722  143.2409  151.9073 LP  0  0  0  0  0  0  0  0  0  0  0  0  # atno 17343 bound_to 10162
  156.0683  130.5721  150.9332 LP  0  0  0  0  0  0  0  0  0  0  0  0  # atno 17370 bound_to 10713
  157.6146  131.0934  150.8733 LP  0  0  0  0  0  0  0  0  0  0  0  0  # atno 17371 bound_to 10713
  140.7176  134.4394  157.5577 LP  0  0  0  0  0  0  0  0  0  0  0  0  # atno 17394 bound_to 11000
  139.8953  134.8686  156.2137 LP  0  0  0  0  0  0  0  0  0  0  0  0  # atno 17395 bound_to 11000

$$$$
