AV-unprocessed.smi:1586|AV-procd|sdf|6385|dock8
  -GOLD-   22720 7 23D 1   1.00000     0.00000
 Structure written by MMmdl.
 45 46  0  0  0  0  0  0  0  0  2 V2000
  152.3903  144.7862  158.8464 C   0  0  0  0  0  0  0  0  0  0  0  0
  151.2732  144.1237  158.0275 C   0  0  0  0  0  0  0  0  0  0  0  0
  151.5235  142.7324  157.6549 N   0  0  0  0  0  0  0  0  0  0  0  0
  151.5793  141.8791  158.8397 C   0  0  0  0  0  0  0  0  0  0  0  0
  151.8560  140.4097  158.4737 C   0  0  0  0  0  0  0  0  0  0  0  0
  150.8297  139.8592  157.5778 N   0  0  0  0  0  0  0  0  0  0  0  0
  151.0792  138.4431  157.2311 C   0  0  2  0  0  0  0  0  0  0  0  0
  150.0137  137.8440  156.2854 C   0  0  0  0  0  0  0  0  0  0  0  0
  151.2114  137.5081  158.4595 C   0  0  0  0  0  0  0  0  0  0  0  0
  150.1383  137.7293  159.4233 N   0  0  0  0  0  0  0  0  0  0  0  0
  149.1670  136.8548  159.7151 C   0  0  0  0  0  0  0  0  0  0  0  0
  149.1382  135.7594  159.1490 O   0  0  0  0  0  0  0  0  0  0  0  0
  148.2893  137.3041  160.6418 N   0  5  0  0  0  0  0  0  0  0  0  0
  147.6013  136.4356  161.3986 C   0  0  0  0  0  0  0  0  0  0  0  0
  147.7779  135.0250  161.4243 C   0  0  0  0  0  0  0  0  0  0  0  0
  146.8429  134.6098  162.3295 C   0  0  0  0  0  0  0  0  0  0  0  0
  146.4697  133.2655  162.8548 C   0  0  0  0  0  0  0  0  0  0  0  0
  146.1446  135.6741  162.8086 O   0  0  0  0  0  0  0  0  0  0  0  0
  146.6323  136.8386  162.2037 N   0  0  0  0  0  0  0  0  0  0  0  0
  150.7650  140.7279  156.3950 C   0  0  0  0  0  0  0  0  0  0  0  0
  150.4921  142.1977  156.7654 C   0  0  0  0  0  0  0  0  0  0  0  0
  152.0855  145.7804  159.1734 H   0  0  0  0  0  0  0  0  0  0  0  0
  153.3058  144.9039  158.2674 H   0  0  0  0  0  0  0  0  0  0  0  0
  152.6246  144.2021  159.7369 H   0  0  0  0  0  0  0  0  0  0  0  0
  150.3611  144.1681  158.6243 H   0  0  0  0  0  0  0  0  0  0  0  0
  151.0756  144.7176  157.1340 H   0  0  0  0  0  0  0  0  0  0  0  0
  152.3637  142.2318  159.5103 H   0  0  0  0  0  0  0  0  0  0  0  0
  150.6422  141.9460  159.3951 H   0  0  0  0  0  0  0  0  0  0  0  0
  152.8417  140.3222  158.0142 H   0  0  0  0  0  0  0  0  0  0  0  0
  151.8914  139.8470  159.4050 H   0  0  0  0  0  0  0  0  0  0  0  0
  152.0310  138.3908  156.7003 H   0  0  0  0  0  0  0  0  0  0  0  0
  150.1700  136.7746  156.1411 H   0  0  0  0  0  0  0  0  0  0  0  0
  150.0472  138.2912  155.2925 H   0  0  0  0  0  0  0  0  0  0  0  0
  149.0068  137.9775  156.6823 H   0  0  0  0  0  0  0  0  0  0  0  0
  151.1810  136.4662  158.1375 H   0  0  0  0  0  0  0  0  0  0  0  0
  152.1790  137.6286  158.9469 H   0  0  0  0  0  0  0  0  0  0  0  0
  150.1368  138.6132  159.9111 H   0  0  0  0  0  0  0  0  0  0  0  0
  148.4801  134.4190  160.8720 H   0  0  0  0  0  0  0  0  0  0  0  0
  147.3363  132.7677  163.2900 H   0  0  0  0  0  0  0  0  0  0  0  0
  146.0819  132.6339  162.0555 H   0  0  0  0  0  0  0  0  0  0  0  0
  145.7028  133.3428  163.6261 H   0  0  0  0  0  0  0  0  0  0  0  0
  151.6933  140.6564  155.8261 H   0  0  0  0  0  0  0  0  0  0  0  0
  149.9632  140.4079  155.7316 H   0  0  0  0  0  0  0  0  0  0  0  0
  149.5111  142.2804  157.2360 H   0  0  0  0  0  0  0  0  0  0  0  0
  150.4486  142.7816  155.8464 H   0  0  0  0  0  0  0  0  0  0  0  0
  1  2  1  0  0  0  0
  1 22  1  0  0  0  0
  1 23  1  0  0  0  0
  1 24  1  0  0  0  0
  2  3  1  0  0  0  0
  2 25  1  0  0  0  0
  2 26  1  0  0  0  0
  3 21  1  0  0  0  0
  3  4  1  0  0  0  0
  4  5  1  0  0  0  0
  4 27  1  0  0  0  0
  4 28  1  0  0  0  0
  5  6  1  0  0  0  0
  5 29  1  0  0  0  0
  5 30  1  0  0  0  0
  6  7  1  0  0  0  0
  6 20  1  0  0  0  0
  7  8  1  0  0  0  0
  7  9  1  0  0  0  0
  7 31  1  0  0  0  0
  8 32  1  0  0  0  0
  8 33  1  0  0  0  0
  8 34  1  0  0  0  0
  9 10  1  0  0  0  0
  9 35  1  0  0  0  0
  9 36  1  0  0  0  0
 10 11  1  0  0  0  0
 10 37  1  0  0  0  0
 11 12  2  0  0  0  0
 11 13  1  0  0  0  0
 13 14  1  0  0  0  0
 14 19  2  0  0  0  0
 14 15  1  0  0  0  0
 15 16  2  0  0  0  0
 15 38  1  0  0  0  0
 16 17  1  0  0  0  0
 16 18  1  0  0  0  0
 17 39  1  0  0  0  0
 17 40  1  0  0  0  0
 17 41  1  0  0  0  0
 18 19  1  0  0  0  0
 20 21  1  0  0  0  0
 20 42  1  0  0  0  0
 20 43  1  0  0  0  0
 21 44  1  0  0  0  0
 21 45  1  0  0  0  0
M  CHG  1  13  -1
M  END
> <s_m_source_file>
AV-unprocessed.smi

> <i_m_source_file_index>
1586

> <i_lp_mmshare_version>
43012

> <i_f3d_flags>
0

> <s_epik_input>
W0NIM11bQ0gyXU4xW0NIMl1bQ0gyXU4oW0NIMl1bQ0gyXTEpW0NASF0oW0NIM10pW0NIMl1bTkhdQyg9TylbTkhdYzJbY0hdYyhbQ0gzXSlvbjI=

> <s_epik_cmdline>
J2VwaWtfcHl0aG9uJywgJy1waCcsICc3LjAnLCAnLXRuJywgJzgnLCAnLW1hJywgJzIwMCcsICctbWV0YWxfYmluZGluZycsICctaW1hZScsICc8aW5maWxlLm1hZT4nLCAnLW9tYWUnLCAnPG91dGZpbGUubWFlPic=

> <r_epik_Ionization_Penalty>
9.09031

> <r_epik_Ionization_Penalty_Charging>
6.65437

> <r_epik_Ionization_Penalty_Neutral>
2.43594

> <r_epik_State_Penalty>
8.41762

> <r_epik_Charging_Adjusted_Penalty>
15.072

> <i_epik_Tot_Q>
-1

> <i_epik_Tot_abs_Q>
1

> <r_epik_Metal_State_Penalty>
4.3436

> <b_epik_Metal_Only>
1

> <s_lp_Force_Field>
OPLS_2005

> <r_lp_Energy>
37.6489

> <b_lp_Chiralities_Consistent>
1

> <s_lp_Variant>
AV-unprocessed.smi:1586-13

> <Gold.Version>
5.8.1

> <Gold.Id.Protein>
6NUR|6NUR_protein|mol2

> <Gold.PLP.Fitness>
44.6901

> <Gold.PLP.PLP>
-34.2749

> <Gold.PLP.part.hbond>
-3.0000

> <Gold.PLP.part.metal>
0.0000

> <Gold.PLP.part.buried>
-4.9772

> <Gold.PLP.part.nonpolar>
-28.6080

> <Gold.PLP.part.repulsive>
0.8388

> <Gold.PLP.ligand.clash>
0.0000

> <Gold.PLP.ligand.torsion>
0.3277

> <Gold.PLP.Chemscore.Hbond>
3.6602

> <Gold.PLP.Chemscore.CHOScore>
0.0000

> <Gold.PLP.Chemscore.Metal>
0.0000

> <Gold.Chemscore.Hbonds>
donor molecule, donor type, donor heavy atom, donor atom, acceptor molecule, acceptor atom, score
      P1  H  6896  6907       L1    12  0.98
      P1  H  6931  6943       L1    13  1.50
      P1  H  6934  6947       L1    13  1.12

> <Gold.PLP.Chemscore.Internal.Correction>
0.0901

> <Gold.Rescore>
     Score         DG    S(hbond)    S(metal)    S(lipo)     H(rot)  DE(clash)    DE(int)     intcor
     13.94     -15.84       1.38        0.00      85.96       1.68       0.14       1.76       ----

> <Gold.Chemscore.Fitness>
13.9393

> <Gold.Chemscore.DG>
-15.8370

> <Gold.Chemscore.ZeroCoef>
-5.4800

> <Gold.Chemscore.Hbond>
1.3765

> <Gold.Chemscore.Metal>
0.0000

> <Gold.Chemscore.Lipo>
85.9591

> <Gold.Chemscore.Internal_Hbond>
0.0000

> <Gold.Chemscore.DEClash>
0.1417

> <Gold.Chemscore.DEInternal>
1.7560

> <Gold.Chemscore.Rot>
1.6788

> <Gold.Chemscore.Internal.Correction>
   9.000000E+99

> <Gold.Chemscore.Hbonds>
donor molecule, donor type, donor heavy atom, donor atom, acceptor molecule, acceptor atom, score
      P1  H  6896  6907       L1    12  0.84
      P1  H  6931  6943       L1    13  0.17
      P1  H  6934  6947       L1    13  0.19

> <Gold.Chemscore.Hbond.Weighted>
-4.5976

> <Gold.Chemscore.Metal.Weighted>
-0.0000

> <Gold.Chemscore.Lipo.Weighted>
-10.0572

> <Gold.Chemscore.Internal_Hbond.Weighted>
0.0000

> <Gold.Chemscore.DEClash.Weighted>
0.1417

> <Gold.Chemscore.DEInternal.Weighted>
1.7560

> <Gold.Chemscore.Rot.Weighted>
4.2978

> <Gold.Chemscore.Internal.Correction.Weighted>
   9.000000E+99

> <Gold.Protein.RotatedTorsions>
[ 6907 6896 6895 6894 ] final  -82.09 input  -60.11 | X-H torsion
[ 7974 7965 7964 7962 ] final   39.65 input  175.53 | X-H torsion
[ 8008 7997 7996 7995 ] final -142.83 input   59.86 | X-H torsion
[ 10167 10162 10161 10158 ] final  -53.36 input  -65.29 | X-H torsion
[ 10718 10713 10712 10709 ] final  -20.48 input   66.30 | X-H torsion
[ 10763 10752 10751 10750 ] final -160.09 input  -60.55 | X-H torsion
[ 11005 11000 10999 10996 ] final   80.55 input  -57.11 | X-H torsion

> <Gold.Protein.ActiveResidues>
 VAL166  LYS551  ARG553  GLY616  TRP617  ASP618  TYR619  PRO620  LYS621  CYS622 
 ASP623  PHE694  ASN695  SER759  ASP760  ASP761  ALA762  ILE779  LEU786  VAL792 
 PHE793  MET794  SER795  GLU796  ALA797  LYS798  CYS799  TRP800  GLU811  SER814 

> <Gold.Protein.RotatedAtoms>
  150.6902  134.3718  159.4995 H   0  0  0  0  0  0  0  0  0  0  0  0  # atno 6907 bound_to 6896
  152.1533  134.8968  160.0556 H   0  0  0  0  0  0  0  0  0  0  0  0  # atno 6908 bound_to 6896
  152.0057  133.3807  159.4236 H   0  0  0  0  0  0  0  0  0  0  0  0  # atno 6909 bound_to 6896
  146.0967  139.5626  142.9440 H   0  0  0  0  0  0  0  0  0  0  0  0  # atno 7974 bound_to 7965
  155.5007  140.0575  157.2939 H   0  0  0  0  0  0  0  0  0  0  0  0  # atno 8008 bound_to 7997
  154.4588  140.1986  156.0253 H   0  0  0  0  0  0  0  0  0  0  0  0  # atno 8009 bound_to 7997
  156.0851  140.3241  155.7747 H   0  0  0  0  0  0  0  0  0  0  0  0  # atno 8010 bound_to 7997
  140.6489  143.2553  151.4781 H   0  0  0  0  0  0  0  0  0  0  0  0  # atno 10167 bound_to 10162
  156.5313  130.4656  149.6546 H   0  0  0  0  0  0  0  0  0  0  0  0  # atno 10718 bound_to 10713
  154.7420  135.3071  154.8712 H   0  0  0  0  0  0  0  0  0  0  0  0  # atno 10763 bound_to 10752
  153.9524  135.6762  153.4748 H   0  0  0  0  0  0  0  0  0  0  0  0  # atno 10764 bound_to 10752
  153.1018  135.4908  154.8805 H   0  0  0  0  0  0  0  0  0  0  0  0  # atno 10765 bound_to 10752
  139.9130  134.7929  156.1924 H   0  0  0  0  0  0  0  0  0  0  0  0  # atno 11005 bound_to 11000
  145.5934  141.0366  143.2058 LP  0  0  0  0  0  0  0  0  0  0  0  0  # atno 17320 bound_to 7965
  144.7401  139.7473  143.7314 LP  0  0  0  0  0  0  0  0  0  0  0  0  # atno 17321 bound_to 7965
  139.5702  144.1947  152.1825 LP  0  0  0  0  0  0  0  0  0  0  0  0  # atno 17342 bound_to 10162
  140.1241  144.5347  150.6844 LP  0  0  0  0  0  0  0  0  0  0  0  0  # atno 17343 bound_to 10162
  156.3057  130.7201  151.2083 LP  0  0  0  0  0  0  0  0  0  0  0  0  # atno 17370 bound_to 10713
  157.7421  131.0494  150.5047 LP  0  0  0  0  0  0  0  0  0  0  0  0  # atno 17371 bound_to 10713
  141.0575  133.6858  156.1889 LP  0  0  0  0  0  0  0  0  0  0  0  0  # atno 17394 bound_to 11000
  140.6713  134.4864  157.5587 LP  0  0  0  0  0  0  0  0  0  0  0  0  # atno 17395 bound_to 11000

$$$$
