AV-unprocessed.smi:1920|AV-procd|sdf|7780|dock4
  -GOLD-   22720 9523D 1   1.00000     0.00000
 Structure written by MMmdl.
 37 38  0  0  0  0  0  0  0  0  2 V2000
  146.0120  142.1407  155.8462 C   0  0  0  0  0  0  0  0  0  0  0  0
  147.4204  141.5339  155.7884 C   0  0  1  0  0  0  0  0  0  0  0  0
  147.9712  141.5382  154.3466 C   0  0  0  0  0  0  0  0  0  0  0  0
  147.8175  140.2456  153.6701 N   0  0  0  0  0  0  0  0  0  0  0  0
  146.7834  139.8505  152.8606 C   0  0  0  0  0  0  0  0  0  0  0  0
  147.0671  138.5702  152.4607 C   0  0  0  0  0  0  0  0  0  0  0  0
  148.2655  138.2414  153.0351 N   0  3  0  0  0  0  0  0  0  0  0  0
  148.7219  139.2624  153.7675 C   0  0  0  0  0  0  0  0  0  0  0  0
  148.2963  142.2849  156.6869 N   0  0  0  0  0  0  0  0  0  0  0  0
  148.9882  141.7750  157.7185 C   0  0  0  0  0  0  0  0  0  0  0  0
  148.9661  140.5824  158.0238 O   0  0  0  0  0  0  0  0  0  0  0  0
  149.8383  142.7685  158.5195 C   0  0  0  0  0  0  0  0  0  0  0  0
  151.3634  142.5750  158.3601 C   0  0  1  0  0  0  0  0  0  0  0  0
  152.1687  143.8195  158.6468 C   0  0  0  0  0  0  0  0  0  0  0  0
  153.1034  143.6275  159.5743 C   0  0  0  0  0  0  0  0  0  0  0  0
  153.1138  142.2187  160.0977 C   0  0  0  0  0  0  0  0  0  0  0  0
  151.9477  141.5339  159.3498 C   0  0  0  0  0  0  0  0  0  0  0  0
  145.3200  141.5868  155.2111 H   0  0  0  0  0  0  0  0  0  0  0  0
  146.0114  143.1789  155.5119 H   0  0  0  0  0  0  0  0  0  0  0  0
  145.6149  142.1166  156.8617 H   0  0  0  0  0  0  0  0  0  0  0  0
  147.3373  140.5010  156.1311 H   0  0  0  0  0  0  0  0  0  0  0  0
  147.4410  142.2759  153.7427 H   0  0  0  0  0  0  0  0  0  0  0  0
  149.0258  141.8196  154.3332 H   0  0  0  0  0  0  0  0  0  0  0  0
  145.9410  140.4907  152.6414 H   0  0  0  0  0  0  0  0  0  0  0  0
  146.5206  137.8876  151.8263 H   0  0  0  0  0  0  0  0  0  0  0  0
  149.6365  139.2833  154.3330 H   0  0  0  0  0  0  0  0  0  0  0  0
  148.3734  143.2776  156.5172 H   0  0  0  0  0  0  0  0  0  0  0  0
  149.5694  143.7846  158.2257 H   0  0  0  0  0  0  0  0  0  0  0  0
  149.5666  142.6709  159.5710 H   0  0  0  0  0  0  0  0  0  0  0  0
  151.5896  142.2646  157.3389 H   0  0  0  0  0  0  0  0  0  0  0  0
  151.9983  144.7489  158.1253 H   0  0  0  0  0  0  0  0  0  0  0  0
  153.7988  144.3766  159.9234 H   0  0  0  0  0  0  0  0  0  0  0  0
  154.0697  141.7434  159.8760 H   0  0  0  0  0  0  0  0  0  0  0  0
  152.9626  142.2123  161.1776 H   0  0  0  0  0  0  0  0  0  0  0  0
  151.1936  141.2014  160.0646 H   0  0  0  0  0  0  0  0  0  0  0  0
  152.2933  140.6455  158.8198 H   0  0  0  0  0  0  0  0  0  0  0  0
  148.7395  137.3537  152.9243 H   0  0  0  0  0  0  0  0  0  0  0  0
  1  2  1  0  0  0  0
  1 18  1  0  0  0  0
  1 19  1  0  0  0  0
  1 20  1  0  0  0  0
  2  3  1  0  0  0  0
  2  9  1  0  0  0  0
  2 21  1  0  0  0  0
  3  4  1  0  0  0  0
  3 22  1  0  0  0  0
  3 23  1  0  0  0  0
  4  8  1  0  0  0  0
  4  5  1  0  0  0  0
  5  6  2  0  0  0  0
  5 24  1  0  0  0  0
  6  7  1  0  0  0  0
  6 25  1  0  0  0  0
  7  8  2  0  0  0  0
  7 37  1  0  0  0  0
  8 26  1  0  0  0  0
  9 10  1  0  0  0  0
  9 27  1  0  0  0  0
 10 11  2  0  0  0  0
 10 12  1  0  0  0  0
 12 13  1  0  0  0  0
 12 28  1  0  0  0  0
 12 29  1  0  0  0  0
 13 17  1  0  0  0  0
 13 14  1  0  0  0  0
 13 30  1  0  0  0  0
 14 15  2  0  0  0  0
 14 31  1  0  0  0  0
 15 16  1  0  0  0  0
 15 32  1  0  0  0  0
 16 17  1  0  0  0  0
 16 33  1  0  0  0  0
 16 34  1  0  0  0  0
 17 35  1  0  0  0  0
 17 36  1  0  0  0  0
M  CHG  1   7   1
M  END
> <s_m_source_file>
AV-unprocessed.smi

> <i_m_source_file_index>
1920

> <i_lp_mmshare_version>
43012

> <i_f3d_flags>
0

> <s_epik_input>
W2NIXTFuW2NIXVtjSF1uMVtDSDJdW0NAQEhdKFtDSDNdKVtOSF1DKD1PKVtDSDJdW0NAQEhdMltDSF09W0NIXVtDSDJdW0NIMl0y

> <s_epik_cmdline>
J2VwaWtfcHl0aG9uJywgJy1waCcsICc3LjAnLCAnLXRuJywgJzgnLCAnLW1hJywgJzIwMCcsICctbWV0YWxfYmluZGluZycsICctaW1hZScsICc8aW5maWxlLm1hZT4nLCAnLW9tYWUnLCAnPG91dGZpbGUubWFlPic=

> <r_lp_tautomer_probability>
1

> <r_epik_Ionization_Penalty>
0.24816

> <r_epik_Ionization_Penalty_Charging>
0

> <r_epik_Ionization_Penalty_Neutral>
0.24816

> <r_epik_State_Penalty>
0.2394

> <r_epik_Charging_Adjusted_Penalty>
0.2394

> <i_epik_Tot_Q>
1

> <i_epik_Tot_abs_Q>
1

> <r_epik_Metal_State_Penalty>
0.531457

> <b_epik_Metal_Only>
0

> <s_lp_Force_Field>
OPLS_2005

> <r_lp_Energy>
19.5873

> <b_lp_Chiralities_Consistent>
1

> <s_lp_Variant>
AV-unprocessed.smi:1920-4

> <Gold.Version>
5.8.1

> <Gold.Id.Protein>
6NUR|6NUR_protein|mol2

> <Gold.PLP.Fitness>
43.6588

> <Gold.PLP.PLP>
-34.1566

> <Gold.PLP.part.hbond>
-3.0000

> <Gold.PLP.part.metal>
0.0000

> <Gold.PLP.part.buried>
1.1517

> <Gold.PLP.part.nonpolar>
-33.3581

> <Gold.PLP.part.repulsive>
0.0801

> <Gold.PLP.ligand.clash>
0.0000

> <Gold.PLP.ligand.torsion>
1.2780

> <Gold.PLP.Chemscore.Hbond>
3.0000

> <Gold.PLP.Chemscore.CHOScore>
1.0000

> <Gold.PLP.Chemscore.Metal>
0.0000

> <Gold.Chemscore.Hbonds>
donor molecule, donor type, donor heavy atom, donor atom, acceptor molecule, acceptor atom, score
      L1  H     7    37       P1  7948  1.60
      L1  H     9    27       P1  8028  1.00
      L1  C     5    24       P1 10175  1.00

> <Gold.PLP.Chemscore.Internal.Correction>
0.0582

> <Gold.Rescore>
     Score         DG    S(hbond)    S(metal)    S(lipo)     H(rot)  DE(clash)    DE(int)     intcor
     13.57     -16.83       1.76        0.00      90.68       2.01       1.85       1.41       ----

> <Gold.Chemscore.Fitness>
13.5674

> <Gold.Chemscore.DG>
-16.8253

> <Gold.Chemscore.ZeroCoef>
-5.4800

> <Gold.Chemscore.Hbond>
1.7632

> <Gold.Chemscore.Metal>
0.0000

> <Gold.Chemscore.Lipo>
90.6798

> <Gold.Chemscore.Internal_Hbond>
0.0000

> <Gold.Chemscore.DEClash>
1.8476

> <Gold.Chemscore.DEInternal>
1.4103

> <Gold.Chemscore.Rot>
2.0130

> <Gold.Chemscore.Internal.Correction>
   9.000000E+99

> <Gold.Chemscore.Hbonds>
donor molecule, donor type, donor heavy atom, donor atom, acceptor molecule, acceptor atom, score
      L1  H     7    37       P1  7948  0.75
      L1  H     9    27       P1  8028  0.49

> <Gold.Chemscore.Hbond.Weighted>
-5.8890

> <Gold.Chemscore.Metal.Weighted>
-0.0000

> <Gold.Chemscore.Lipo.Weighted>
-10.6095

> <Gold.Chemscore.Internal_Hbond.Weighted>
0.0000

> <Gold.Chemscore.DEClash.Weighted>
1.8476

> <Gold.Chemscore.DEInternal.Weighted>
1.4103

> <Gold.Chemscore.Rot.Weighted>
5.1533

> <Gold.Chemscore.Internal.Correction.Weighted>
   9.000000E+99

> <Gold.Protein.RotatedTorsions>
[ 6907 6896 6895 6894 ] final -178.09 input  -60.11 | X-H torsion
[ 7974 7965 7964 7962 ] final   82.20 input  175.53 | X-H torsion
[ 8008 7997 7996 7995 ] final -112.42 input   59.86 | X-H torsion
[ 10167 10162 10161 10158 ] final  -89.49 input  -65.29 | X-H torsion
[ 10718 10713 10712 10709 ] final -113.28 input   66.30 | X-H torsion
[ 10763 10752 10751 10750 ] final  176.73 input  -60.55 | X-H torsion
[ 11005 11000 10999 10996 ] final  -16.69 input  -57.11 | X-H torsion

> <Gold.Protein.ActiveResidues>
 VAL166  LYS551  ARG553  GLY616  TRP617  ASP618  TYR619  PRO620  LYS621  CYS622 
 ASP623  PHE694  ASN695  SER759  ASP760  ASP761  ALA762  ILE779  LEU786  VAL792 
 PHE793  MET794  SER795  GLU796  ALA797  LYS798  CYS799  TRP800  GLU811  SER814 

> <Gold.Protein.RotatedAtoms>
  151.6316  133.3331  159.3109 H   0  0  0  0  0  0  0  0  0  0  0  0  # atno 6907 bound_to 6896
  150.8053  134.7178  159.6650 H   0  0  0  0  0  0  0  0  0  0  0  0  # atno 6908 bound_to 6896
  152.4148  134.6065  160.0065 H   0  0  0  0  0  0  0  0  0  0  0  0  # atno 6909 bound_to 6896
  145.6282  139.2399  143.2100 H   0  0  0  0  0  0  0  0  0  0  0  0  # atno 7974 bound_to 7965
  155.0050  140.0394  157.2376 H   0  0  0  0  0  0  0  0  0  0  0  0  # atno 8008 bound_to 7997
  154.7510  140.2767  155.6269 H   0  0  0  0  0  0  0  0  0  0  0  0  # atno 8009 bound_to 7997
  156.2885  140.2647  156.2264 H   0  0  0  0  0  0  0  0  0  0  0  0  # atno 8010 bound_to 7997
  140.3643  143.2826  151.9577 H   0  0  0  0  0  0  0  0  0  0  0  0  # atno 10167 bound_to 10162
  156.0757  130.5964  150.8621 H   0  0  0  0  0  0  0  0  0  0  0  0  # atno 10718 bound_to 10713
  154.4850  135.2776  155.1541 H   0  0  0  0  0  0  0  0  0  0  0  0  # atno 10763 bound_to 10752
  154.3236  135.6204  153.5522 H   0  0  0  0  0  0  0  0  0  0  0  0  # atno 10764 bound_to 10752
  152.9880  135.5748  154.5259 H   0  0  0  0  0  0  0  0  0  0  0  0  # atno 10765 bound_to 10752
  140.8094  133.8153  155.9548 H   0  0  0  0  0  0  0  0  0  0  0  0  # atno 11005 bound_to 11000
  146.1378  140.7099  142.9381 LP  0  0  0  0  0  0  0  0  0  0  0  0  # atno 17320 bound_to 7965
  144.7204  140.4354  143.7012 LP  0  0  0  0  0  0  0  0  0  0  0  0  # atno 17321 bound_to 7965
  139.4810  144.5965  151.7682 LP  0  0  0  0  0  0  0  0  0  0  0  0  # atno 17342 bound_to 10162
  140.5096  144.1045  150.5991 LP  0  0  0  0  0  0  0  0  0  0  0  0  # atno 17343 bound_to 10162
  157.5850  131.0945  150.9210 LP  0  0  0  0  0  0  0  0  0  0  0  0  # atno 17370 bound_to 10713
  156.9398  130.5380  149.5280 LP  0  0  0  0  0  0  0  0  0  0  0  0  # atno 17371 bound_to 10713
  140.9214  134.2137  157.4924 LP  0  0  0  0  0  0  0  0  0  0  0  0  # atno 17394 bound_to 11000
  139.8715  134.9794  156.5034 LP  0  0  0  0  0  0  0  0  0  0  0  0  # atno 17395 bound_to 11000

$$$$
