AV-unprocessed.smi:481|AV-procd|sdf|2682|dock4
  -GOLD-   2262023103D 1   1.00000     0.00000
 Structure written by MMmdl.
 42 44  0  0  0  0  0  0  0  0  2 V2000
  152.3106  139.1899  155.4048 C   0  0  0  0  0  0  0  0  0  0  0  0
  151.2695  139.3987  154.4666 O   0  0  0  0  0  0  0  0  0  0  0  0
  150.0895  138.6868  154.7992 C   0  0  0  0  0  0  0  0  0  0  0  0
  150.4281  137.1972  154.9340 C   0  0  0  0  0  0  0  0  0  0  0  0
  149.4921  136.5108  155.8193 N   0  0  0  0  0  0  0  0  0  0  0  0
  148.5678  135.5774  155.4780 C   0  0  0  0  0  0  0  0  0  0  0  0
  148.4340  135.1867  154.1458 N   0  0  0  0  0  0  0  0  0  0  0  0
  147.5402  134.2795  153.7930 N   0  0  0  0  0  0  0  0  0  0  0  0
  147.9418  133.3836  152.9647 C   0  0  0  0  0  0  0  0  0  0  0  0
  147.0618  132.3102  152.4790 C   0  0  0  0  0  0  0  0  0  0  0  0
  146.1248  132.5230  151.4398 C   0  0  0  0  0  0  0  0  0  0  0  0
  145.2969  131.4713  151.0006 C   0  0  0  0  0  0  0  0  0  0  0  0
  145.3974  130.1992  151.5949 C   0  0  0  0  0  0  0  0  0  0  0  0
  146.3270  129.9794  152.6287 C   0  0  0  0  0  0  0  0  0  0  0  0
  147.1553  131.0304  153.0683 C   0  0  0  0  0  0  0  0  0  0  0  0
  147.8415  135.1106  156.4989 N   0  0  0  0  0  0  0  0  0  0  0  0
  148.3450  135.8192  157.5803 C   0  0  0  0  0  0  0  0  0  0  0  0
  149.3314  136.6728  157.1974 C   0  0  0  0  0  0  0  0  0  0  0  0
  150.0442  137.5764  158.1244 C   0  0  0  0  0  0  0  0  0  0  0  0
  150.9108  138.3475  157.7170 O   0  0  0  0  0  0  0  0  0  0  0  0
  149.6115  137.4328  159.4174 N   0  5  0  0  0  0  0  0  0  0  0  0
  148.6216  136.5764  159.8523 C   0  0  0  0  0  0  0  0  0  0  0  0
  148.2992  136.5154  161.0390 O   0  0  0  0  0  0  0  0  0  0  0  0
  147.9744  135.7698  158.9503 N   0  0  0  0  0  0  0  0  0  0  0  0
  146.9031  134.8435  159.3296 C   0  0  0  0  0  0  0  0  0  0  0  0
  153.1937  139.7531  155.1037 H   0  0  0  0  0  0  0  0  0  0  0  0
  152.5867  138.1361  155.4611 H   0  0  0  0  0  0  0  0  0  0  0  0
  152.0179  139.5295  156.3991 H   0  0  0  0  0  0  0  0  0  0  0  0
  149.6732  139.0663  155.7335 H   0  0  0  0  0  0  0  0  0  0  0  0
  149.3382  138.8305  154.0209 H   0  0  0  0  0  0  0  0  0  0  0  0
  150.4149  136.7209  153.9536 H   0  0  0  0  0  0  0  0  0  0  0  0
  151.4427  137.0630  155.3072 H   0  0  0  0  0  0  0  0  0  0  0  0
  149.0279  135.6232  153.4556 H   0  0  0  0  0  0  0  0  0  0  0  0
  148.9694  133.4010  152.5949 H   0  0  0  0  0  0  0  0  0  0  0  0
  146.0300  133.4911  150.9692 H   0  0  0  0  0  0  0  0  0  0  0  0
  144.5841  131.6423  150.2072 H   0  0  0  0  0  0  0  0  0  0  0  0
  144.7622  129.3933  151.2582 H   0  0  0  0  0  0  0  0  0  0  0  0
  146.4052  129.0041  153.0862 H   0  0  0  0  0  0  0  0  0  0  0  0
  147.8632  130.8449  153.8633 H   0  0  0  0  0  0  0  0  0  0  0  0
  146.6683  134.8371  160.3943 H   0  0  0  0  0  0  0  0  0  0  0  0
  147.1778  133.8254  159.0521 H   0  0  0  0  0  0  0  0  0  0  0  0
  145.9868  135.0998  158.7968 H   0  0  0  0  0  0  0  0  0  0  0  0
  1  2  1  0  0  0  0
  1 26  1  0  0  0  0
  1 27  1  0  0  0  0
  1 28  1  0  0  0  0
  2  3  1  0  0  0  0
  3  4  1  0  0  0  0
  3 29  1  0  0  0  0
  3 30  1  0  0  0  0
  4  5  1  0  0  0  0
  4 31  1  0  0  0  0
  4 32  1  0  0  0  0
  5 18  1  0  0  0  0
  5  6  1  0  0  0  0
  6  7  1  0  0  0  0
  6 16  2  0  0  0  0
  7  8  1  0  0  0  0
  7 33  1  0  0  0  0
  8  9  2  0  0  0  0
  9 10  1  0  0  0  0
  9 34  1  0  0  0  0
 10 15  1  0  0  0  0
 10 11  2  0  0  0  0
 11 12  1  0  0  0  0
 11 35  1  0  0  0  0
 12 13  2  0  0  0  0
 12 36  1  0  0  0  0
 13 14  1  0  0  0  0
 13 37  1  0  0  0  0
 14 15  2  0  0  0  0
 14 38  1  0  0  0  0
 15 39  1  0  0  0  0
 16 17  1  0  0  0  0
 17 24  1  0  0  0  0
 17 18  2  0  0  0  0
 18 19  1  0  0  0  0
 19 20  2  0  0  0  0
 19 21  1  0  0  0  0
 21 22  1  0  0  0  0
 22 23  2  0  0  0  0
 22 24  1  0  0  0  0
 24 25  1  0  0  0  0
 25 40  1  0  0  0  0
 25 41  1  0  0  0  0
 25 42  1  0  0  0  0
M  CHG  1  21  -1
M  END
> <s_m_source_file>
AV-unprocessed.smi

> <i_m_source_file_index>
481

> <i_lp_mmshare_version>
43012

> <i_f3d_flags>
0

> <s_epik_input>
W0NIM11uMWMoPU8pW25IXWMoPU8pYyhjMTIpbihbQ0gyXVtDSDJdT1tDSDNdKWMobjIpW05IXS9OPVtDSF0vYzNbY0hdW2NIXVtjSF1bY0hdW2NIXTM=

> <s_epik_cmdline>
J2VwaWtfcHl0aG9uJywgJy1waCcsICc3LjAnLCAnLXRuJywgJzgnLCAnLW1hJywgJzIwMCcsICctbWV0YWxfYmluZGluZycsICctaW1hZScsICc8aW5maWxlLm1hZT4nLCAnLW9tYWUnLCAnPG91dGZpbGUubWFlPic=

> <r_epik_Ionization_Penalty>
4.48471

> <r_epik_Ionization_Penalty_Charging>
4.58449e-09

> <r_epik_Ionization_Penalty_Neutral>
4.48471

> <r_epik_State_Penalty>
4.48428

> <r_epik_Charging_Adjusted_Penalty>
4.48428

> <i_epik_Tot_Q>
-1

> <i_epik_Tot_abs_Q>
1

> <r_epik_Metal_State_Penalty>
0.811551

> <b_epik_Metal_Only>
1

> <s_epik_Chemistry_Notes>
This compound has an imine and may undergo hydrolysis.

> <s_lp_Force_Field>
OPLS_2005

> <r_lp_Energy>
36.4971

> <b_lp_Chiralities_Consistent>
1

> <s_lp_Variant>
AV-unprocessed.smi:481-3

> <Gold.Version>
5.8.1

> <Gold.Id.Protein>
6NUR|6NUR_protein|mol2

> <Gold.PLP.Fitness>
41.8803

> <Gold.PLP.PLP>
-35.4005

> <Gold.PLP.part.hbond>
-3.9043

> <Gold.PLP.part.metal>
0.0000

> <Gold.PLP.part.buried>
-5.4720

> <Gold.PLP.part.nonpolar>
-26.3514

> <Gold.PLP.part.repulsive>
0.2452

> <Gold.PLP.ligand.clash>
0.0000

> <Gold.PLP.ligand.torsion>
1.1174

> <Gold.PLP.Chemscore.Hbond>
2.8960

> <Gold.PLP.Chemscore.CHOScore>
0.0000

> <Gold.PLP.Chemscore.Metal>
0.0000

> <Gold.Chemscore.Hbonds>
donor molecule, donor type, donor heavy atom, donor atom, acceptor molecule, acceptor atom, score
      L1  H     7    33       P1  7948  0.82
      P1  H  6931  6943       L1    23  0.89
      P1  H  7989  7998       L1     2  1.00

> <Gold.PLP.Chemscore.Internal.Correction>
0.0265

> <Gold.Rescore>
     Score         DG    S(hbond)    S(metal)    S(lipo)     H(rot)  DE(clash)    DE(int)     intcor
     15.00     -19.06       2.79        0.00      69.80       1.52       0.34       3.71       ----

> <Gold.Chemscore.Fitness>
15.0039

> <Gold.Chemscore.DG>
-19.0614

> <Gold.Chemscore.ZeroCoef>
-5.4800

> <Gold.Chemscore.Hbond>
2.7886

> <Gold.Chemscore.Metal>
0.0000

> <Gold.Chemscore.Lipo>
69.7989

> <Gold.Chemscore.Internal_Hbond>
0.0000

> <Gold.Chemscore.DEClash>
0.3446

> <Gold.Chemscore.DEInternal>
3.7129

> <Gold.Chemscore.Rot>
1.5230

> <Gold.Chemscore.Internal.Correction>
   9.000000E+99

> <Gold.Chemscore.Hbonds>
donor molecule, donor type, donor heavy atom, donor atom, acceptor molecule, acceptor atom, score
      L1  H     7    33       P1  7948  0.64
      P1  H  6931  6943       L1    23  0.43
      P1  H  7989  7998       L1     2  0.70

> <Gold.Chemscore.Hbond.Weighted>
-9.3138

> <Gold.Chemscore.Metal.Weighted>
-0.0000

> <Gold.Chemscore.Lipo.Weighted>
-8.1665

> <Gold.Chemscore.Internal_Hbond.Weighted>
0.0000

> <Gold.Chemscore.DEClash.Weighted>
0.3446

> <Gold.Chemscore.DEInternal.Weighted>
3.7129

> <Gold.Chemscore.Rot.Weighted>
3.8989

> <Gold.Chemscore.Internal.Correction.Weighted>
   9.000000E+99

> <Gold.Protein.RotatedTorsions>
[ 6907 6896 6895 6894 ] final   84.68 input  -60.11 | X-H torsion
[ 7974 7965 7964 7962 ] final   79.43 input  175.53 | X-H torsion
[ 8008 7997 7996 7995 ] final  113.19 input   59.86 | X-H torsion
[ 10167 10162 10161 10158 ] final  -23.14 input  -65.29 | X-H torsion
[ 10718 10713 10712 10709 ] final   88.38 input   66.30 | X-H torsion
[ 10763 10752 10751 10750 ] final  108.94 input  -60.55 | X-H torsion
[ 11005 11000 10999 10996 ] final   10.10 input  -57.11 | X-H torsion

> <Gold.Protein.ActiveResidues>
 VAL166  LYS551  ARG553  GLY616  TRP617  ASP618  TYR619  PRO620  LYS621  CYS622 
 ASP623  PHE694  ASN695  SER759  ASP760  ASP761  ALA762  ILE779  LEU786  VAL792 
 PHE793  MET794  SER795  GLU796  ALA797  LYS798  CYS799  TRP800  GLU811  SER814 

> <Gold.Protein.RotatedAtoms>
  152.5358  134.2703  159.8968 H   0  0  0  0  0  0  0  0  0  0  0  0  # atno 6907 bound_to 6896
  151.2660  133.4272  159.2626 H   0  0  0  0  0  0  0  0  0  0  0  0  # atno 6908 bound_to 6896
  151.0410  134.9622  159.8218 H   0  0  0  0  0  0  0  0  0  0  0  0  # atno 6909 bound_to 6896
  145.6643  139.2479  143.1905 H   0  0  0  0  0  0  0  0  0  0  0  0  # atno 7974 bound_to 7965
  156.2242  140.2984  156.0025 H   0  0  0  0  0  0  0  0  0  0  0  0  # atno 8008 bound_to 7997
  155.2401  140.0422  157.2991 H   0  0  0  0  0  0  0  0  0  0  0  0  # atno 8009 bound_to 7997
  154.5888  140.2396  155.7957 H   0  0  0  0  0  0  0  0  0  0  0  0  # atno 8010 bound_to 7997
  140.7287  143.4470  151.0572 H   0  0  0  0  0  0  0  0  0  0  0  0  # atno 10167 bound_to 10162
  157.6948  131.0292  150.3266 H   0  0  0  0  0  0  0  0  0  0  0  0  # atno 10718 bound_to 10713
  153.4277  135.3796  155.2151 H   0  0  0  0  0  0  0  0  0  0  0  0  # atno 10763 bound_to 10752
  154.8748  135.3832  154.4306 H   0  0  0  0  0  0  0  0  0  0  0  0  # atno 10764 bound_to 10752
  153.4834  135.7088  153.5988 H   0  0  0  0  0  0  0  0  0  0  0  0  # atno 10765 bound_to 10752
  140.5183  134.0584  155.7837 H   0  0  0  0  0  0  0  0  0  0  0  0  # atno 11005 bound_to 11000
  146.1099  140.7441  142.9508 LP  0  0  0  0  0  0  0  0  0  0  0  0  # atno 17320 bound_to 7965
  144.7078  140.3922  143.7104 LP  0  0  0  0  0  0  0  0  0  0  0  0  # atno 17321 bound_to 7965
  139.8143  143.7908  152.3173 LP  0  0  0  0  0  0  0  0  0  0  0  0  # atno 17342 bound_to 10162
  139.7968  144.7389  150.9879 LP  0  0  0  0  0  0  0  0  0  0  0  0  # atno 17343 bound_to 10162
  156.3746  130.3869  149.7149 LP  0  0  0  0  0  0  0  0  0  0  0  0  # atno 17370 bound_to 10713
  156.4552  130.7925  151.2946 LP  0  0  0  0  0  0  0  0  0  0  0  0  # atno 17371 bound_to 10713
  141.1348  133.9240  157.2458 LP  0  0  0  0  0  0  0  0  0  0  0  0  # atno 17394 bound_to 11000
  139.9620  135.0152  156.9286 LP  0  0  0  0  0  0  0  0  0  0  0  0  # atno 17395 bound_to 11000

$$$$
