AV-unprocessed.smi:1257|AV-procd|sdf|5286|dock1
  -GOLD-   22720 4403D 1   1.00000     0.00000
 Structure written by MMmdl.
 47 48  0  0  0  0  0  0  0  0  1 V2000
  148.1454  132.6794  153.7566 C   0  0  0  0  0  0  0  0  0  0  0  0
  147.8627  134.0983  154.2686 C   0  0  0  0  0  0  0  0  0  0  0  0
  149.0265  134.9655  154.1240 N   0  0  0  0  0  0  0  0  0  0  0  0
  149.8958  135.2588  155.1029 C   0  0  0  0  0  0  0  0  0  0  0  0
  149.7904  134.8215  156.2502 O   0  0  0  0  0  0  0  0  0  0  0  0
  151.0418  136.2045  154.7209 C   0  0  0  0  0  0  0  0  0  0  0  0
  151.0834  137.4079  155.5480 N   0  0  0  0  0  0  0  0  0  0  0  0
  150.8964  138.6617  155.1035 C   0  0  0  0  0  0  0  0  0  0  0  0
  150.5856  138.9348  153.9439 O   0  0  0  0  0  0  0  0  0  0  0  0
  151.0380  139.7407  156.1369 C   0  0  0  0  0  0  0  0  0  0  0  0
  150.7223  141.0805  155.8295 C   0  0  0  0  0  0  0  0  0  0  0  0
  150.8964  142.0700  156.8164 C   0  0  0  0  0  0  0  0  0  0  0  0
  151.3924  141.6976  158.0879 C   0  0  0  0  0  0  0  0  0  0  0  0
  151.5781  142.6736  159.0899 N   0  0  0  0  0  0  0  0  0  0  0  0
  152.3718  142.2535  160.2399 C   0  0  0  0  0  0  0  0  0  0  0  0
  152.1993  143.2483  161.4019 C   0  0  1  0  0  0  0  0  0  0  0  0
  153.1234  142.9173  162.5785 C   0  0  0  0  0  0  0  0  0  0  0  0
  152.5104  144.5677  160.9553 O   0  0  0  0  0  0  0  0  0  0  0  0
  151.7299  145.0251  159.8488 C   0  0  2  0  0  0  0  0  0  0  0  0
  150.2721  145.3183  160.2455 C   0  0  0  0  0  0  0  0  0  0  0  0
  151.8584  144.0441  158.6676 C   0  0  0  0  0  0  0  0  0  0  0  0
  151.7105  140.4120  158.3763 N   0  0  0  0  0  0  0  0  0  0  0  0
  151.5404  139.4668  157.4284 C   0  0  0  0  0  0  0  0  0  0  0  0
  147.2756  132.0377  153.8968 H   0  0  0  0  0  0  0  0  0  0  0  0
  148.9820  132.2269  154.2898 H   0  0  0  0  0  0  0  0  0  0  0  0
  148.3860  132.6801  152.6929 H   0  0  0  0  0  0  0  0  0  0  0  0
  147.0052  134.5267  153.7472 H   0  0  0  0  0  0  0  0  0  0  0  0
  147.5960  134.0605  155.3250 H   0  0  0  0  0  0  0  0  0  0  0  0
  149.1844  135.3697  153.2121 H   0  0  0  0  0  0  0  0  0  0  0  0
  151.9940  135.6733  154.7722 H   0  0  0  0  0  0  0  0  0  0  0  0
  150.9098  136.5088  153.6823 H   0  0  0  0  0  0  0  0  0  0  0  0
  151.3135  137.2803  156.5227 H   0  0  0  0  0  0  0  0  0  0  0  0
  150.3510  141.3546  154.8527 H   0  0  0  0  0  0  0  0  0  0  0  0
  150.6660  143.0989  156.5830 H   0  0  0  0  0  0  0  0  0  0  0  0
  152.0933  141.2563  160.5787 H   0  0  0  0  0  0  0  0  0  0  0  0
  153.4195  142.2042  159.9401 H   0  0  0  0  0  0  0  0  0  0  0  0
  151.1710  143.2150  161.7624 H   0  0  0  0  0  0  0  0  0  0  0  0
  152.9206  141.9195  162.9684 H   0  0  0  0  0  0  0  0  0  0  0  0
  152.9842  143.6268  163.3945 H   0  0  0  0  0  0  0  0  0  0  0  0
  154.1715  142.9543  162.2802 H   0  0  0  0  0  0  0  0  0  0  0  0
  152.1684  145.9742  159.5394 H   0  0  0  0  0  0  0  0  0  0  0  0
  149.7363  145.7901  159.4215 H   0  0  0  0  0  0  0  0  0  0  0  0
  150.2299  145.9975  161.0971 H   0  0  0  0  0  0  0  0  0  0  0  0
  149.7244  144.4140  160.5096 H   0  0  0  0  0  0  0  0  0  0  0  0
  152.8719  144.0859  158.2663 H   0  0  0  0  0  0  0  0  0  0  0  0
  151.1822  144.3449  157.8663 H   0  0  0  0  0  0  0  0  0  0  0  0
  151.8234  138.4651  157.7170 H   0  0  0  0  0  0  0  0  0  0  0  0
  1  2  1  0  0  0  0
  1 24  1  0  0  0  0
  1 25  1  0  0  0  0
  1 26  1  0  0  0  0
  2  3  1  0  0  0  0
  2 27  1  0  0  0  0
  2 28  1  0  0  0  0
  3  4  1  0  0  0  0
  3 29  1  0  0  0  0
  4  5  2  0  0  0  0
  4  6  1  0  0  0  0
  6  7  1  0  0  0  0
  6 30  1  0  0  0  0
  6 31  1  0  0  0  0
  7  8  1  0  0  0  0
  7 32  1  0  0  0  0
  8  9  2  0  0  0  0
  8 10  1  0  0  0  0
 10 23  1  0  0  0  0
 10 11  2  0  0  0  0
 11 12  1  0  0  0  0
 11 33  1  0  0  0  0
 12 13  2  0  0  0  0
 12 34  1  0  0  0  0
 13 14  1  0  0  0  0
 13 22  1  0  0  0  0
 14 21  1  0  0  0  0
 14 15  1  0  0  0  0
 15 16  1  0  0  0  0
 15 35  1  0  0  0  0
 15 36  1  0  0  0  0
 16 17  1  0  0  0  0
 16 18  1  0  0  0  0
 16 37  1  0  0  0  0
 17 38  1  0  0  0  0
 17 39  1  0  0  0  0
 17 40  1  0  0  0  0
 18 19  1  0  0  0  0
 19 20  1  0  0  0  0
 19 21  1  0  0  0  0
 19 41  1  0  0  0  0
 20 42  1  0  0  0  0
 20 43  1  0  0  0  0
 20 44  1  0  0  0  0
 21 45  1  0  0  0  0
 21 46  1  0  0  0  0
 22 23  2  0  0  0  0
 23 47  1  0  0  0  0
M  END
> <s_m_source_file>
AV-unprocessed.smi

> <i_m_source_file_index>
1257

> <i_lp_mmshare_version>
43012

> <i_f3d_flags>
0

> <s_epik_input>
W0NIM11bQ0gyXVtOSF1DKD1PKVtDSDJdW05IXUMoPU8pYzFbY0hdW2NIXWMobltjSF0xKU4yW0NIMl1bQ0BASF0oW0NIM10pT1tDQEBIXShbQ0gzXSlbQ0gyXTI=

> <s_epik_cmdline>
J2VwaWtfcHl0aG9uJywgJy1waCcsICc3LjAnLCAnLXRuJywgJzgnLCAnLW1hJywgJzIwMCcsICctbWV0YWxfYmluZGluZycsICctaW1hZScsICc8aW5maWxlLm1hZT4nLCAnLW9tYWUnLCAnPG91dGZpbGUubWFlPic=

> <r_lp_tautomer_probability>
1

> <r_epik_Ionization_Penalty>
1.15681e-05

> <r_epik_Ionization_Penalty_Charging>
0

> <r_epik_Ionization_Penalty_Neutral>
1.15681e-05

> <r_epik_State_Penalty>
-0

> <r_epik_Charging_Adjusted_Penalty>
0

> <i_epik_Tot_Q>
0

> <i_epik_Tot_abs_Q>
0

> <r_epik_Metal_State_Penalty>
-0

> <b_epik_Metal_Only>
0

> <s_lp_Force_Field>
OPLS_2005

> <r_lp_Energy>
16.6587

> <b_lp_Chiralities_Consistent>
1

> <s_lp_Variant>
AV-unprocessed.smi:1257-3

> <Gold.Version>
5.8.1

> <Gold.Id.Protein>
6NUR|6NUR_protein|mol2

> <Gold.PLP.Fitness>
44.0526

> <Gold.PLP.PLP>
-40.4446

> <Gold.PLP.part.hbond>
-1.6287

> <Gold.PLP.part.metal>
0.0000

> <Gold.PLP.part.buried>
2.1104

> <Gold.PLP.part.nonpolar>
-39.8417

> <Gold.PLP.part.repulsive>
0.5240

> <Gold.PLP.ligand.clash>
0.0000

> <Gold.PLP.ligand.torsion>
0.7205

> <Gold.PLP.Chemscore.Hbond>
1.5688

> <Gold.PLP.Chemscore.CHOScore>
0.0000

> <Gold.PLP.Chemscore.Metal>
0.0000

> <Gold.Chemscore.Hbonds>
donor molecule, donor type, donor heavy atom, donor atom, acceptor molecule, acceptor atom, score
      L1  H     3    29       P1  7948  1.00
      P1  H  7989  7998       L1     9  0.50

> <Gold.PLP.Chemscore.Internal.Correction>
0.3428

> <Gold.Rescore>
     Score         DG    S(hbond)    S(metal)    S(lipo)     H(rot)  DE(clash)    DE(int)     intcor
     16.92     -18.93       1.58        0.00     107.18       1.71       1.25       0.76       ----

> <Gold.Chemscore.Fitness>
16.9188

> <Gold.Chemscore.DG>
-18.9293

> <Gold.Chemscore.ZeroCoef>
-5.4800

> <Gold.Chemscore.Hbond>
1.5804

> <Gold.Chemscore.Metal>
0.0000

> <Gold.Chemscore.Lipo>
107.1763

> <Gold.Chemscore.Internal_Hbond>
0.0000

> <Gold.Chemscore.DEClash>
1.2478

> <Gold.Chemscore.DEInternal>
0.7627

> <Gold.Chemscore.Rot>
1.7066

> <Gold.Chemscore.Internal.Correction>
   9.000000E+99

> <Gold.Chemscore.Hbonds>
donor molecule, donor type, donor heavy atom, donor atom, acceptor molecule, acceptor atom, score
      L1  H     3    29       P1  7948  0.25
      P1  H  7989  7998       L1     9  0.27

> <Gold.Chemscore.Hbond.Weighted>
-5.2787

> <Gold.Chemscore.Metal.Weighted>
-0.0000

> <Gold.Chemscore.Lipo.Weighted>
-12.5396

> <Gold.Chemscore.Internal_Hbond.Weighted>
0.0000

> <Gold.Chemscore.DEClash.Weighted>
1.2478

> <Gold.Chemscore.DEInternal.Weighted>
0.7627

> <Gold.Chemscore.Rot.Weighted>
4.3690

> <Gold.Chemscore.Internal.Correction.Weighted>
   9.000000E+99

> <Gold.Protein.RotatedTorsions>
[ 6907 6896 6895 6894 ] final   19.95 input  -60.11 | X-H torsion
[ 7974 7965 7964 7962 ] final -138.95 input  175.53 | X-H torsion
[ 8008 7997 7996 7995 ] final   46.06 input   59.86 | X-H torsion
[ 10167 10162 10161 10158 ] final  -12.87 input  -65.29 | X-H torsion
[ 10718 10713 10712 10709 ] final  129.95 input   66.30 | X-H torsion
[ 10763 10752 10751 10750 ] final -146.17 input  -60.55 | X-H torsion
[ 11005 11000 10999 10996 ] final  104.47 input  -57.11 | X-H torsion

> <Gold.Protein.ActiveResidues>
 VAL166  LYS551  ARG553  GLY616  TRP617  ASP618  TYR619  PRO620  LYS621  CYS622 
 ASP623  PHE694  ASN695  SER759  ASP760  ASP761  ALA762  ILE779  LEU786  VAL792 
 PHE793  MET794  SER795  GLU796  ALA797  LYS798  CYS799  TRP800  GLU811  SER814 

> <Gold.Protein.RotatedAtoms>
  151.8888  135.0424  160.0495 H   0  0  0  0  0  0  0  0  0  0  0  0  # atno 6907 bound_to 6896
  152.2453  133.5164  159.5302 H   0  0  0  0  0  0  0  0  0  0  0  0  # atno 6908 bound_to 6896
  150.7066  134.0951  159.3988 H   0  0  0  0  0  0  0  0  0  0  0  0  # atno 6909 bound_to 6896
  144.8716  140.6376  143.5263 H   0  0  0  0  0  0  0  0  0  0  0  0  # atno 7974 bound_to 7965
  155.3463  140.3411  155.4239 H   0  0  0  0  0  0  0  0  0  0  0  0  # atno 8008 bound_to 7997
  156.1787  140.1656  156.8350 H   0  0  0  0  0  0  0  0  0  0  0  0  # atno 8009 bound_to 7997
  154.5310  140.0745  156.8327 H   0  0  0  0  0  0  0  0  0  0  0  0  # atno 8010 bound_to 7997
  140.7170  143.5486  150.9326 H   0  0  0  0  0  0  0  0  0  0  0  0  # atno 10167 bound_to 10162
  157.5107  131.1096  150.9297 H   0  0  0  0  0  0  0  0  0  0  0  0  # atno 10718 bound_to 10713
  154.8349  135.3394  154.6619 H   0  0  0  0  0  0  0  0  0  0  0  0  # atno 10763 bound_to 10752
  153.7235  135.6956  153.5011 H   0  0  0  0  0  0  0  0  0  0  0  0  # atno 10764 bound_to 10752
  153.2364  135.4399  155.0604 H   0  0  0  0  0  0  0  0  0  0  0  0  # atno 10765 bound_to 10752
  139.8792  134.9301  156.5367 H   0  0  0  0  0  0  0  0  0  0  0  0  # atno 11005 bound_to 11000
  145.4119  139.1578  143.4121 LP  0  0  0  0  0  0  0  0  0  0  0  0  # atno 17320 bound_to 7965
  146.2934  140.4224  142.8731 LP  0  0  0  0  0  0  0  0  0  0  0  0  # atno 17321 bound_to 7965
  139.9210  143.6606  152.3096 LP  0  0  0  0  0  0  0  0  0  0  0  0  # atno 17342 bound_to 10162
  139.7023  144.7633  151.1253 LP  0  0  0  0  0  0  0  0  0  0  0  0  # atno 17343 bound_to 10162
  156.9938  130.5573  149.5305 LP  0  0  0  0  0  0  0  0  0  0  0  0  # atno 17370 bound_to 10713
  156.0287  130.5380  150.8476 LP  0  0  0  0  0  0  0  0  0  0  0  0  # atno 17371 bound_to 10713
  140.8341  133.8256  155.9011 LP  0  0  0  0  0  0  0  0  0  0  0  0  # atno 17394 bound_to 11000
  140.9301  134.2033  157.4870 LP  0  0  0  0  0  0  0  0  0  0  0  0  # atno 17395 bound_to 11000

$$$$
