AV-unprocessed.smi:3348|AV-procd|sdf|12915|dock10
  -GOLD-   2272019333D 1   1.00000     0.00000
 Structure written by MMmdl.
 47 48  0  0  0  0  0  0  0  0  2 V2000
  146.8035  135.2150  154.2490 C   0  0  0  0  0  0  0  0  0  0  0  0
  146.0022  134.8723  152.9857 C   0  0  2  0  0  0  0  0  0  0  0  0
  146.5029  133.5461  152.3722 C   0  0  0  0  0  0  0  0  0  0  0  0
  145.5308  132.9055  151.5049 N   0  0  0  0  0  0  0  0  0  0  0  0
  145.0972  133.3084  150.2592 C   0  0  0  0  0  0  0  0  0  0  0  0
  144.1889  132.3852  149.8270 C   0  0  0  0  0  0  0  0  0  0  0  0
  144.1408  131.4363  150.8862 C   0  0  0  0  0  0  0  0  0  0  0  0
  144.9473  131.7493  151.8878 N   0  0  0  0  0  0  0  0  0  0  0  0
  146.1153  135.9911  152.0219 N   0  3  0  0  0  0  0  0  0  0  0  0
  145.8378  137.3342  152.5739 C   0  0  0  0  0  0  0  0  0  0  0  0
  146.9998  138.2901  152.2903 C   0  0  0  0  0  0  0  0  0  0  0  0
  146.9062  139.3916  153.1812 O   0  0  0  0  0  0  0  0  0  0  0  0
  148.1470  140.0252  153.4693 C   0  0  2  0  0  0  0  0  0  0  0  0
  149.1432  138.9793  154.0145 C   0  0  0  0  0  0  0  0  0  0  0  0
  150.4542  139.6329  154.4747 C   0  0  0  0  0  0  0  0  0  0  0  0
  150.1872  140.7254  155.5189 C   0  0  0  0  0  0  0  0  0  0  0  0
  149.2056  141.7756  154.9782 C   0  0  0  0  0  0  0  0  0  0  0  0
  147.8820  141.1362  154.5114 C   0  0  1  0  0  0  0  0  0  0  0  0
  146.9256  142.2107  153.9688 C   0  0  0  0  0  0  0  0  0  0  0  0
  146.7163  134.4251  154.9958 H   0  0  0  0  0  0  0  0  0  0  0  0
  146.4428  136.1373  154.7057 H   0  0  0  0  0  0  0  0  0  0  0  0
  147.8631  135.3455  154.0260 H   0  0  0  0  0  0  0  0  0  0  0  0
  144.9597  134.7625  153.2890 H   0  0  0  0  0  0  0  0  0  0  0  0
  147.4205  133.7113  151.8058 H   0  0  0  0  0  0  0  0  0  0  0  0
  146.7540  132.8397  153.1649 H   0  0  0  0  0  0  0  0  0  0  0  0
  145.4650  134.2086  149.7888 H   0  0  0  0  0  0  0  0  0  0  0  0
  143.6456  132.3844  148.8936 H   0  0  0  0  0  0  0  0  0  0  0  0
  143.5491  130.5352  150.9558 H   0  0  0  0  0  0  0  0  0  0  0  0
  147.0667  136.0072  151.6826 H   0  0  0  0  0  0  0  0  0  0  0  0
  144.9282  137.7337  152.1275 H   0  0  0  0  0  0  0  0  0  0  0  0
  145.6637  137.2645  153.6484 H   0  0  0  0  0  0  0  0  0  0  0  0
  147.9502  137.7667  152.3959 H   0  0  0  0  0  0  0  0  0  0  0  0
  146.9365  138.6483  151.2618 H   0  0  0  0  0  0  0  0  0  0  0  0
  148.5541  140.4869  152.5673 H   0  0  0  0  0  0  0  0  0  0  0  0
  148.6914  138.4464  154.8524 H   0  0  0  0  0  0  0  0  0  0  0  0
  149.3670  138.2280  153.2579 H   0  0  0  0  0  0  0  0  0  0  0  0
  151.1219  138.8771  154.8893 H   0  0  0  0  0  0  0  0  0  0  0  0
  150.9696  140.0643  153.6156 H   0  0  0  0  0  0  0  0  0  0  0  0
  149.7810  140.2758  156.4260 H   0  0  0  0  0  0  0  0  0  0  0  0
  151.1243  141.2044  155.8036 H   0  0  0  0  0  0  0  0  0  0  0  0
  149.0086  142.5194  155.7510 H   0  0  0  0  0  0  0  0  0  0  0  0
  149.6699  142.3107  154.1485 H   0  0  0  0  0  0  0  0  0  0  0  0
  147.4078  140.6792  155.3812 H   0  0  0  0  0  0  0  0  0  0  0  0
  147.3417  142.7044  153.0900 H   0  0  0  0  0  0  0  0  0  0  0  0
  146.7315  142.9774  154.7193 H   0  0  0  0  0  0  0  0  0  0  0  0
  145.9637  141.7827  153.6853 H   0  0  0  0  0  0  0  0  0  0  0  0
  145.5019  135.8133  151.2396 H   0  0  0  0  0  0  0  0  0  0  0  0
  1  2  1  0  0  0  0
  1 20  1  0  0  0  0
  1 21  1  0  0  0  0
  1 22  1  0  0  0  0
  2  3  1  0  0  0  0
  2  9  1  0  0  0  0
  2 23  1  0  0  0  0
  3  4  1  0  0  0  0
  3 24  1  0  0  0  0
  3 25  1  0  0  0  0
  4  8  1  0  0  0  0
  4  5  1  0  0  0  0
  5  6  2  0  0  0  0
  5 26  1  0  0  0  0
  6  7  1  0  0  0  0
  6 27  1  0  0  0  0
  7  8  2  0  0  0  0
  7 28  1  0  0  0  0
  9 10  1  0  0  0  0
  9 29  1  0  0  0  0
  9 47  1  0  0  0  0
 10 11  1  0  0  0  0
 10 30  1  0  0  0  0
 10 31  1  0  0  0  0
 11 12  1  0  0  0  0
 11 32  1  0  0  0  0
 11 33  1  0  0  0  0
 12 13  1  0  0  0  0
 13 18  1  0  0  0  0
 13 14  1  0  0  0  0
 13 34  1  0  0  0  0
 14 15  1  0  0  0  0
 14 35  1  0  0  0  0
 14 36  1  0  0  0  0
 15 16  1  0  0  0  0
 15 37  1  0  0  0  0
 15 38  1  0  0  0  0
 16 17  1  0  0  0  0
 16 39  1  0  0  0  0
 16 40  1  0  0  0  0
 17 18  1  0  0  0  0
 17 41  1  0  0  0  0
 17 42  1  0  0  0  0
 18 19  1  0  0  0  0
 18 43  1  0  0  0  0
 19 44  1  0  0  0  0
 19 45  1  0  0  0  0
 19 46  1  0  0  0  0
M  CHG  1   9   1
M  END
> <s_m_source_file>
AV-unprocessed.smi

> <i_m_source_file_index>
3348

> <i_lp_mmshare_version>
43012

> <i_f3d_flags>
0

> <s_epik_input>
bjFbY0hdW2NIXVtjSF1uMVtDSDJdW0NAQEhdKFtDSDNdKVtOSF1bQ0gyXVtDSDJdT1tDQEBIXTJbQ0gyXVtDSDJdW0NIMl1bQ0gyXVtDQEhdMltDSDNd

> <s_epik_cmdline>
J2VwaWtfcHl0aG9uJywgJy1waCcsICc3LjAnLCAnLXRuJywgJzgnLCAnLW1hJywgJzIwMCcsICctbWV0YWxfYmluZGluZycsICctaW1hZScsICc8aW5maWxlLm1hZT4nLCAnLW9tYWUnLCAnPG91dGZpbGUubWFlPic=

> <r_lp_tautomer_probability>
1

> <r_epik_Ionization_Penalty>
0.00925088

> <r_epik_Ionization_Penalty_Charging>
0.00924645

> <r_epik_Ionization_Penalty_Neutral>
4.42413e-06

> <r_epik_State_Penalty>
0.0070118

> <r_epik_Charging_Adjusted_Penalty>
0.0162583

> <i_epik_Tot_Q>
1

> <i_epik_Tot_abs_Q>
1

> <r_epik_Metal_State_Penalty>
0.00701222

> <b_epik_Metal_Only>
0

> <s_lp_Force_Field>
OPLS_2005

> <r_lp_Energy>
16.8222

> <b_lp_Chiralities_Consistent>
1

> <s_lp_Variant>
AV-unprocessed.smi:3348-1

> <Gold.Version>
5.8.1

> <Gold.Id.Protein>
6NUR|6NUR_protein|mol2

> <Gold.PLP.Fitness>
43.2867

> <Gold.PLP.PLP>
-33.1599

> <Gold.PLP.part.hbond>
-1.0000

> <Gold.PLP.part.metal>
0.0000

> <Gold.PLP.part.buried>
2.8853

> <Gold.PLP.part.nonpolar>
-35.8612

> <Gold.PLP.part.repulsive>
0.4209

> <Gold.PLP.ligand.clash>
0.0000

> <Gold.PLP.ligand.torsion>
0.9445

> <Gold.PLP.Chemscore.Hbond>
2.0000

> <Gold.PLP.Chemscore.CHOScore>
1.9837

> <Gold.PLP.Chemscore.Metal>
0.0000

> <Gold.Chemscore.Hbonds>
donor molecule, donor type, donor heavy atom, donor atom, acceptor molecule, acceptor atom, score
      L1  H     9    29       P1  7948  2.00
      L1  C     5    26       P1  7921  1.00

> <Gold.PLP.Chemscore.Internal.Correction>
0.0649

> <Gold.Rescore>
     Score         DG    S(hbond)    S(metal)    S(lipo)     H(rot)  DE(clash)    DE(int)     intcor
     13.28     -14.71       1.00        0.00      90.23       1.82       0.37       1.06       ----

> <Gold.Chemscore.Fitness>
13.2759

> <Gold.Chemscore.DG>
-14.7117

> <Gold.Chemscore.ZeroCoef>
-5.4800

> <Gold.Chemscore.Hbond>
0.9952

> <Gold.Chemscore.Metal>
0.0000

> <Gold.Chemscore.Lipo>
90.2350

> <Gold.Chemscore.Internal_Hbond>
0.0000

> <Gold.Chemscore.DEClash>
0.3730

> <Gold.Chemscore.DEInternal>
1.0629

> <Gold.Chemscore.Rot>
1.8163

> <Gold.Chemscore.Internal.Correction>
   9.000000E+99

> <Gold.Chemscore.Hbonds>
donor molecule, donor type, donor heavy atom, donor atom, acceptor molecule, acceptor atom, score
      L1  H     9    29       P1  7948  0.98

> <Gold.Chemscore.Hbond.Weighted>
-3.3240

> <Gold.Chemscore.Metal.Weighted>
-0.0000

> <Gold.Chemscore.Lipo.Weighted>
-10.5575

> <Gold.Chemscore.Internal_Hbond.Weighted>
0.0000

> <Gold.Chemscore.DEClash.Weighted>
0.3730

> <Gold.Chemscore.DEInternal.Weighted>
1.0629

> <Gold.Chemscore.Rot.Weighted>
4.6497

> <Gold.Chemscore.Internal.Correction.Weighted>
   9.000000E+99

> <Gold.Protein.RotatedTorsions>
[ 6907 6896 6895 6894 ] final  129.38 input  -60.11 | X-H torsion
[ 7974 7965 7964 7962 ] final -134.34 input  175.53 | X-H torsion
[ 8008 7997 7996 7995 ] final -171.51 input   59.86 | X-H torsion
[ 10167 10162 10161 10158 ] final  -35.11 input  -65.29 | X-H torsion
[ 10718 10713 10712 10709 ] final  169.89 input   66.30 | X-H torsion
[ 10763 10752 10751 10750 ] final  107.66 input  -60.55 | X-H torsion
[ 11005 11000 10999 10996 ] final  -75.86 input  -57.11 | X-H torsion

> <Gold.Protein.ActiveResidues>
 VAL166  LYS551  ARG553  GLY616  TRP617  ASP618  TYR619  PRO620  LYS621  CYS622 
 ASP623  PHE694  ASN695  SER759  ASP760  ASP761  ALA762  ILE779  LEU786  VAL792 
 PHE793  MET794  SER795  GLU796  ALA797  LYS798  CYS799  TRP800  GLU811  SER814 

> <Gold.Protein.RotatedAtoms>
  152.3629  133.6320  159.6028 H   0  0  0  0  0  0  0  0  0  0  0  0  # atno 6907 bound_to 6896
  150.7614  133.9394  159.3460 H   0  0  0  0  0  0  0  0  0  0  0  0  # atno 6908 bound_to 6896
  151.7230  135.0891  160.0338 H   0  0  0  0  0  0  0  0  0  0  0  0  # atno 6909 bound_to 6896
  144.9112  140.6897  143.5024 H   0  0  0  0  0  0  0  0  0  0  0  0  # atno 7974 bound_to 7965
  155.9325  140.1094  157.1121 H   0  0  0  0  0  0  0  0  0  0  0  0  # atno 8008 bound_to 7997
  154.4073  140.1235  156.4887 H   0  0  0  0  0  0  0  0  0  0  0  0  # atno 8009 bound_to 7997
  155.7062  140.3471  155.4956 H   0  0  0  0  0  0  0  0  0  0  0  0  # atno 8010 bound_to 7997
  140.7172  143.3500  151.2175 H   0  0  0  0  0  0  0  0  0  0  0  0  # atno 10167 bound_to 10162
  157.0161  131.0218  151.2789 H   0  0  0  0  0  0  0  0  0  0  0  0  # atno 10718 bound_to 10713
  153.4098  135.3837  155.2042 H   0  0  0  0  0  0  0  0  0  0  0  0  # atno 10763 bound_to 10752
  154.8737  135.3791  154.4515 H   0  0  0  0  0  0  0  0  0  0  0  0  # atno 10764 bound_to 10752
  153.5022  135.7088  153.5887 H   0  0  0  0  0  0  0  0  0  0  0  0  # atno 10765 bound_to 10752
  141.1649  133.6962  156.7581 H   0  0  0  0  0  0  0  0  0  0  0  0  # atno 11005 bound_to 11000
  145.3452  139.1721  143.4464 LP  0  0  0  0  0  0  0  0  0  0  0  0  # atno 17320 bound_to 7965
  146.3159  140.3498  142.8655 LP  0  0  0  0  0  0  0  0  0  0  0  0  # atno 17321 bound_to 7965
  139.7029  143.9503  152.2913 LP  0  0  0  0  0  0  0  0  0  0  0  0  # atno 17342 bound_to 10162
  139.9202  144.6804  150.8469 LP  0  0  0  0  0  0  0  0  0  0  0  0  # atno 17343 bound_to 10162
  157.5284  130.8043  149.7889 LP  0  0  0  0  0  0  0  0  0  0  0  0  # atno 17370 bound_to 10713
  156.0119  130.3830  150.2238 LP  0  0  0  0  0  0  0  0  0  0  0  0  # atno 17371 bound_to 10713
  140.2554  134.8508  157.3707 LP  0  0  0  0  0  0  0  0  0  0  0  0  # atno 17394 bound_to 11000
  140.1662  134.4666  155.7861 LP  0  0  0  0  0  0  0  0  0  0  0  0  # atno 17395 bound_to 11000

$$$$
