AV-unprocessed.smi:1986|AV-procd|sdf|8048|dock6
  -GOLD-   2272010243D 1   1.00000     0.00000
 Structure written by MMmdl.
 47 48  0  0  0  0  0  0  0  0  3 V2000
  148.3050  133.0513  152.9082 C   0  0  0  0  0  0  0  0  0  0  0  0
  147.5043  133.5745  154.1140 C   0  0  0  0  0  0  0  0  0  0  0  0
  146.2372  132.7543  154.5036 C   0  0  1  0  0  0  0  0  0  0  0  0
  146.6456  131.2969  154.8462 C   0  0  0  0  0  0  0  0  0  0  0  0
  145.5903  133.3547  155.7873 C   0  0  0  0  0  0  0  0  0  0  0  0
  146.4282  133.1228  156.9591 N   0  0  0  0  0  0  0  0  0  0  0  0
  147.2862  133.9867  157.5211 C   0  0  0  0  0  0  0  0  0  0  0  0
  147.3891  135.1632  157.1763 O   0  0  0  0  0  0  0  0  0  0  0  0
  148.2084  133.4212  158.6123 C   0  0  0  0  0  0  0  0  0  0  0  0
  147.9327  133.9721  159.9510 N   0  0  0  0  0  0  0  0  0  0  0  0
  147.9091  135.4316  160.0059 N   0  5  0  0  0  0  0  0  0  0  0  0
  147.6973  136.0458  161.2000 C   0  0  0  0  0  0  0  0  0  0  0  0
  147.6786  137.2673  161.3266 O   0  0  0  0  0  0  0  0  0  0  0  0
  147.4626  135.2116  162.3666 C   0  0  0  0  0  0  0  0  0  0  0  0
  147.4438  133.8674  162.2776 C   0  0  0  0  0  0  0  0  0  0  0  0
  147.6732  133.1667  161.0205 C   0  0  0  0  0  0  0  0  0  0  0  0
  147.6342  131.9402  160.9285 O   0  0  0  0  0  0  0  0  0  0  0  0
  145.2270  132.7464  153.3790 N   0  3  0  0  0  0  0  0  0  0  0  0
  144.8000  134.0876  152.8881 C   0  0  0  0  0  0  0  0  0  0  0  0
  143.6276  133.9557  151.9037 C   0  0  0  0  0  0  0  0  0  0  0  0
  144.0148  133.1301  150.8150 O   0  0  0  0  0  0  0  0  0  0  0  0
  144.3430  131.8171  151.2453 C   0  0  0  0  0  0  0  0  0  0  0  0
  145.5346  131.8648  152.2173 C   0  0  0  0  0  0  0  0  0  0  0  0
  149.1728  133.6857  152.7266 H   0  0  0  0  0  0  0  0  0  0  0  0
  147.7128  133.0525  151.9934 H   0  0  0  0  0  0  0  0  0  0  0  0
  148.6762  132.0402  153.0720 H   0  0  0  0  0  0  0  0  0  0  0  0
  148.1911  133.6206  154.9588 H   0  0  0  0  0  0  0  0  0  0  0  0
  147.2264  134.6058  153.8991 H   0  0  0  0  0  0  0  0  0  0  0  0
  147.1791  131.2389  155.7955 H   0  0  0  0  0  0  0  0  0  0  0  0
  147.3075  130.8667  154.0947 H   0  0  0  0  0  0  0  0  0  0  0  0
  145.7755  130.6457  154.9366 H   0  0  0  0  0  0  0  0  0  0  0  0
  145.3998  134.4208  155.6586 H   0  0  0  0  0  0  0  0  0  0  0  0
  144.6122  132.9142  155.9790 H   0  0  0  0  0  0  0  0  0  0  0  0
  146.4157  132.1902  157.3478 H   0  0  0  0  0  0  0  0  0  0  0  0
  148.1225  132.3333  158.6292 H   0  0  0  0  0  0  0  0  0  0  0  0
  149.2408  133.6280  158.3252 H   0  0  0  0  0  0  0  0  0  0  0  0
  147.2916  135.6802  163.3245 H   0  0  0  0  0  0  0  0  0  0  0  0
  147.2600  133.2867  163.1693 H   0  0  0  0  0  0  0  0  0  0  0  0
  144.4826  134.7307  153.7068 H   0  0  0  0  0  0  0  0  0  0  0  0
  145.6282  134.5884  152.3864 H   0  0  0  0  0  0  0  0  0  0  0  0
  142.7463  133.5471  152.3977 H   0  0  0  0  0  0  0  0  0  0  0  0
  143.3486  134.9366  151.5190 H   0  0  0  0  0  0  0  0  0  0  0  0
  143.4769  131.3480  151.7134 H   0  0  0  0  0  0  0  0  0  0  0  0
  144.5950  131.2150  150.3723 H   0  0  0  0  0  0  0  0  0  0  0  0
  146.4184  132.2267  151.6918 H   0  0  0  0  0  0  0  0  0  0  0  0
  145.7398  130.8428  152.5303 H   0  0  0  0  0  0  0  0  0  0  0  0
  144.3984  132.3427  153.7936 H   0  0  0  0  0  0  0  0  0  0  0  0
  1  2  1  0  0  0  0
  1 24  1  0  0  0  0
  1 25  1  0  0  0  0
  1 26  1  0  0  0  0
  2  3  1  0  0  0  0
  2 27  1  0  0  0  0
  2 28  1  0  0  0  0
  3  4  1  0  0  0  0
  3  5  1  0  0  0  0
  3 18  1  0  0  0  0
  4 29  1  0  0  0  0
  4 30  1  0  0  0  0
  4 31  1  0  0  0  0
  5  6  1  0  0  0  0
  5 32  1  0  0  0  0
  5 33  1  0  0  0  0
  6  7  1  0  0  0  0
  6 34  1  0  0  0  0
  7  8  2  0  0  0  0
  7  9  1  0  0  0  0
  9 35  1  0  0  0  0
  9 36  1  0  0  0  0
  9 10  1  0  0  0  0
 10 11  1  0  0  0  0
 10 16  1  0  0  0  0
 11 12  1  0  0  0  0
 12 13  2  0  0  0  0
 12 14  1  0  0  0  0
 14 37  1  0  0  0  0
 14 15  2  0  0  0  0
 15 38  1  0  0  0  0
 15 16  1  0  0  0  0
 16 17  2  0  0  0  0
 18 23  1  0  0  0  0
 18 19  1  0  0  0  0
 18 47  1  0  0  0  0
 19 20  1  0  0  0  0
 19 39  1  0  0  0  0
 19 40  1  0  0  0  0
 20 21  1  0  0  0  0
 20 41  1  0  0  0  0
 20 42  1  0  0  0  0
 21 22  1  0  0  0  0
 22 23  1  0  0  0  0
 22 43  1  0  0  0  0
 22 44  1  0  0  0  0
 23 45  1  0  0  0  0
 23 46  1  0  0  0  0
M  CHG  1  11  -1
M  CHG  1  18   1
M  END
> <s_m_source_file>
AV-unprocessed.smi

> <i_m_source_file_index>
1986

> <i_lp_mmshare_version>
43012

> <i_f3d_flags>
0

> <s_epik_input>
W0NIMl0xW0NIMl1PW0NIMl1bQ0gyXU4xW0NAQF0oW0NIM10pKFtDSDJdW0NIM10pW0NIMl1bTkhdQyg9TylbQ0gyXW4yW25IXWMoPU8pW2NIXVtjSF1jMj1P

> <s_epik_cmdline>
J2VwaWtfcHl0aG9uJywgJy1waCcsICc3LjAnLCAnLXRuJywgJzgnLCAnLW1hJywgJzIwMCcsICctbWV0YWxfYmluZGluZycsICctaW1hZScsICc8aW5maWxlLm1hZT4nLCAnLW9tYWUnLCAnPG91dGZpbGUubWFlPic=

> <r_lp_tautomer_probability>
1

> <r_epik_Ionization_Penalty>
0.604767

> <r_epik_Ionization_Penalty_Charging>
0.604766

> <r_epik_Ionization_Penalty_Neutral>
8.70177e-08

> <r_epik_State_Penalty>
0.54579

> <r_epik_Charging_Adjusted_Penalty>
1.15056

> <i_epik_Tot_Q>
0

> <i_epik_Tot_abs_Q>
2

> <r_epik_Metal_State_Penalty>
0.54579

> <b_epik_Metal_Only>
0

> <s_lp_Force_Field>
OPLS_2005

> <r_lp_Energy>
39.3648

> <b_lp_Chiralities_Consistent>
1

> <s_lp_Variant>
AV-unprocessed.smi:1986-3

> <Gold.Version>
5.8.1

> <Gold.Id.Protein>
6NUR|6NUR_protein|mol2

> <Gold.PLP.Fitness>
43.3913

> <Gold.PLP.PLP>
-32.9062

> <Gold.PLP.part.hbond>
-2.9654

> <Gold.PLP.part.metal>
0.0000

> <Gold.PLP.part.buried>
-5.4416

> <Gold.PLP.part.nonpolar>
-25.0744

> <Gold.PLP.part.repulsive>
0.1776

> <Gold.PLP.ligand.clash>
0.0000

> <Gold.PLP.ligand.torsion>
0.5404

> <Gold.PLP.Chemscore.Hbond>
3.7905

> <Gold.PLP.Chemscore.CHOScore>
0.0000

> <Gold.PLP.Chemscore.Metal>
0.0000

> <Gold.Chemscore.Hbonds>
donor molecule, donor type, donor heavy atom, donor atom, acceptor molecule, acceptor atom, score
      L1  H    18    47       P1 10957  1.85
      P1  H  6931  6943       L1    13  0.93
      P1  H  6934  6947       L1    13  0.82

> <Gold.PLP.Chemscore.Internal.Correction>
0.1944

> <Gold.Rescore>
     Score         DG    S(hbond)    S(metal)    S(lipo)     H(rot)  DE(clash)    DE(int)     intcor
     12.22     -14.48       2.64        0.00      56.30       2.50       0.00       2.26       ----

> <Gold.Chemscore.Fitness>
12.2191

> <Gold.Chemscore.DG>
-14.4777

> <Gold.Chemscore.ZeroCoef>
-5.4800

> <Gold.Chemscore.Hbond>
2.6357

> <Gold.Chemscore.Metal>
0.0000

> <Gold.Chemscore.Lipo>
56.3032

> <Gold.Chemscore.Internal_Hbond>
0.0000

> <Gold.Chemscore.DEClash>
0.0018

> <Gold.Chemscore.DEInternal>
2.2567

> <Gold.Chemscore.Rot>
2.4973

> <Gold.Chemscore.Internal.Correction>
   9.000000E+99

> <Gold.Chemscore.Hbonds>
donor molecule, donor type, donor heavy atom, donor atom, acceptor molecule, acceptor atom, score
      L1  H    18    47       P1 10957  0.23
      P1  H  6931  6943       L1    13  0.91
      P1  H  6934  6947       L1    13  0.81

> <Gold.Chemscore.Hbond.Weighted>
-8.8032

> <Gold.Chemscore.Metal.Weighted>
-0.0000

> <Gold.Chemscore.Lipo.Weighted>
-6.5875

> <Gold.Chemscore.Internal_Hbond.Weighted>
0.0000

> <Gold.Chemscore.DEClash.Weighted>
0.0018

> <Gold.Chemscore.DEInternal.Weighted>
2.2567

> <Gold.Chemscore.Rot.Weighted>
6.3930

> <Gold.Chemscore.Internal.Correction.Weighted>
   9.000000E+99

> <Gold.Protein.RotatedTorsions>
[ 6907 6896 6895 6894 ] final  -41.88 input  -60.11 | X-H torsion
[ 7974 7965 7964 7962 ] final   64.53 input  175.53 | X-H torsion
[ 8008 7997 7996 7995 ] final    7.91 input   59.86 | X-H torsion
[ 10167 10162 10161 10158 ] final  -40.51 input  -65.29 | X-H torsion
[ 10718 10713 10712 10709 ] final -124.73 input   66.30 | X-H torsion
[ 10763 10752 10751 10750 ] final   31.91 input  -60.55 | X-H torsion
[ 11005 11000 10999 10996 ] final  150.55 input  -57.11 | X-H torsion

> <Gold.Protein.ActiveResidues>
 VAL166  LYS551  ARG553  GLY616  TRP617  ASP618  TYR619  PRO620  LYS621  CYS622 
 ASP623  PHE694  ASN695  SER759  ASP760  ASP761  ALA762  ILE779  LEU786  VAL792 
 PHE793  MET794  SER795  GLU796  ALA797  LYS798  CYS799  TRP800  GLU811  SER814 

> <Gold.Protein.RotatedAtoms>
  150.9616  134.9003  159.7733 H   0  0  0  0  0  0  0  0  0  0  0  0  # atno 6907 bound_to 6896
  152.5158  134.3664  159.9313 H   0  0  0  0  0  0  0  0  0  0  0  0  # atno 6908 bound_to 6896
  151.3676  133.3826  159.2731 H   0  0  0  0  0  0  0  0  0  0  0  0  # atno 6909 bound_to 6896
  145.8491  139.3243  143.0886 H   0  0  0  0  0  0  0  0  0  0  0  0  # atno 7974 bound_to 7965
  154.7600  140.2783  155.6222 H   0  0  0  0  0  0  0  0  0  0  0  0  # atno 8008 bound_to 7997
  156.2913  140.2662  156.2303 H   0  0  0  0  0  0  0  0  0  0  0  0  # atno 8009 bound_to 7997
  155.0030  140.0372  157.2357 H   0  0  0  0  0  0  0  0  0  0  0  0  # atno 8010 bound_to 7997
  140.7032  143.3149  151.2935 H   0  0  0  0  0  0  0  0  0  0  0  0  # atno 10167 bound_to 10162
  156.1613  130.6604  151.0053 H   0  0  0  0  0  0  0  0  0  0  0  0  # atno 10718 bound_to 10713
  153.0290  135.6427  154.1273 H   0  0  0  0  0  0  0  0  0  0  0  0  # atno 10763 bound_to 10752
  154.0998  135.2860  155.3255 H   0  0  0  0  0  0  0  0  0  0  0  0  # atno 10764 bound_to 10752
  154.6406  135.5461  153.7848 H   0  0  0  0  0  0  0  0  0  0  0  0  # atno 10765 bound_to 10752
  140.1141  134.8906  157.1978 H   0  0  0  0  0  0  0  0  0  0  0  0  # atno 11005 bound_to 11000
  145.9378  140.9002  143.0323 LP  0  0  0  0  0  0  0  0  0  0  0  0  # atno 17320 bound_to 7965
  144.6730  140.1507  143.7430 LP  0  0  0  0  0  0  0  0  0  0  0  0  # atno 17321 bound_to 7965
  139.6584  144.0234  152.2675 LP  0  0  0  0  0  0  0  0  0  0  0  0  # atno 17342 bound_to 10162
  139.9793  144.6439  150.7915 LP  0  0  0  0  0  0  0  0  0  0  0  0  # atno 17343 bound_to 10162
  157.6734  131.0856  150.7554 LP  0  0  0  0  0  0  0  0  0  0  0  0  # atno 17370 bound_to 10713
  156.7617  130.4801  149.5435 LP  0  0  0  0  0  0  0  0  0  0  0  0  # atno 17371 bound_to 10713
  140.3052  134.3086  155.7280 LP  0  0  0  0  0  0  0  0  0  0  0  0  # atno 17394 bound_to 11000
  141.2137  133.7616  156.9698 LP  0  0  0  0  0  0  0  0  0  0  0  0  # atno 17395 bound_to 11000

$$$$
