AV-unprocessed.smi:2453|AV-procd|sdf|9693|dock4
  -GOLD-   2272013333D 1   1.00000     0.00000
 Structure written by MMmdl.
 41 42  0  0  0  0  0  0  0  0  2 V2000
  141.6456  137.9240  153.1722 C   0  0  0  0  0  0  0  0  0  0  0  0
  142.4870  136.9812  154.0148 C   0  0  0  0  0  0  0  0  0  0  0  0
  142.1174  135.6221  154.1146 C   0  0  0  0  0  0  0  0  0  0  0  0
  142.8566  134.7706  154.8556 N   0  3  0  0  0  0  0  0  0  0  0  0
  143.9651  135.1566  155.5205 C   0  0  0  0  0  0  0  0  0  0  0  0
  144.3888  136.4989  155.4611 C   0  0  0  0  0  0  0  0  0  0  0  0
  143.6365  137.4387  154.7096 C   0  0  0  0  0  0  0  0  0  0  0  0
  144.0012  138.8104  154.5869 N   0  0  0  0  0  0  0  0  0  0  0  0
  144.6054  139.6075  155.4853 C   0  0  0  0  0  0  0  0  0  0  0  0
  144.9647  139.2673  156.6120 O   0  0  0  0  0  0  0  0  0  0  0  0
  144.7573  140.8495  155.0040 N   0  0  0  0  0  0  0  0  0  0  0  0
  145.3844  141.9663  155.7138 C   0  0  2  0  0  0  0  0  0  0  0  0
  144.3294  143.0047  156.1552 C   0  0  0  0  0  0  0  0  0  0  0  0
  143.7325  143.7700  154.9626 C   0  0  0  0  0  0  0  0  0  0  0  0
  144.8353  144.4271  154.1205 C   0  0  0  0  0  0  0  0  0  0  0  0
  145.8777  143.3956  153.6605 C   0  0  0  0  0  0  0  0  0  0  0  0
  146.4923  142.6306  154.8528 C   0  0  2  0  0  0  0  0  0  0  0  0
  147.5824  141.6470  154.3759 C   0  0  0  0  0  0  0  0  0  0  0  0
  148.7537  142.3369  153.9942 O   0  0  0  0  0  0  0  0  0  0  0  0
  140.7944  137.4063  152.7288 H   0  0  0  0  0  0  0  0  0  0  0  0
  142.2420  138.3460  152.3626 H   0  0  0  0  0  0  0  0  0  0  0  0
  141.2616  138.7421  153.7824 H   0  0  0  0  0  0  0  0  0  0  0  0
  141.2566  135.1904  153.6246 H   0  0  0  0  0  0  0  0  0  0  0  0
  144.4813  134.3842  156.0718 H   0  0  0  0  0  0  0  0  0  0  0  0
  145.2907  136.7754  155.9847 H   0  0  0  0  0  0  0  0  0  0  0  0
  143.7012  139.2595  153.7342 H   0  0  0  0  0  0  0  0  0  0  0  0
  144.4211  141.0430  154.0721 H   0  0  0  0  0  0  0  0  0  0  0  0
  145.8555  141.5687  156.6146 H   0  0  0  0  0  0  0  0  0  0  0  0
  143.5338  142.5255  156.7269 H   0  0  0  0  0  0  0  0  0  0  0  0
  144.7972  143.7182  156.8347 H   0  0  0  0  0  0  0  0  0  0  0  0
  143.1500  143.0900  154.3399 H   0  0  0  0  0  0  0  0  0  0  0  0
  143.0371  144.5297  155.3207 H   0  0  0  0  0  0  0  0  0  0  0  0
  144.3958  144.9232  153.2549 H   0  0  0  0  0  0  0  0  0  0  0  0
  145.3263  145.2053  154.7062 H   0  0  0  0  0  0  0  0  0  0  0  0
  145.4148  142.6938  152.9657 H   0  0  0  0  0  0  0  0  0  0  0  0
  146.6633  143.9046  153.1010 H   0  0  0  0  0  0  0  0  0  0  0  0
  146.9873  143.3733  155.4811 H   0  0  0  0  0  0  0  0  0  0  0  0
  147.8272  140.9159  155.1466 H   0  0  0  0  0  0  0  0  0  0  0  0
  147.2289  141.0854  153.5107 H   0  0  0  0  0  0  0  0  0  0  0  0
  148.9644  142.9674  154.6660 H   0  0  0  0  0  0  0  0  0  0  0  0
  142.5685  133.7931  154.9109 H   0  0  0  0  0  0  0  0  0  0  0  0
  1  2  1  0  0  0  0
  1 20  1  0  0  0  0
  1 21  1  0  0  0  0
  1 22  1  0  0  0  0
  2  7  1  0  0  0  0
  2  3  2  0  0  0  0
  3  4  1  0  0  0  0
  3 23  1  0  0  0  0
  4  5  2  0  0  0  0
  4 41  1  0  0  0  0
  5  6  1  0  0  0  0
  5 24  1  0  0  0  0
  6  7  2  0  0  0  0
  6 25  1  0  0  0  0
  7  8  1  0  0  0  0
  8  9  1  0  0  0  0
  8 26  1  0  0  0  0
  9 10  2  0  0  0  0
  9 11  1  0  0  0  0
 11 12  1  0  0  0  0
 11 27  1  0  0  0  0
 12 17  1  0  0  0  0
 12 13  1  0  0  0  0
 12 28  1  0  0  0  0
 13 14  1  0  0  0  0
 13 29  1  0  0  0  0
 13 30  1  0  0  0  0
 14 15  1  0  0  0  0
 14 31  1  0  0  0  0
 14 32  1  0  0  0  0
 15 16  1  0  0  0  0
 15 33  1  0  0  0  0
 15 34  1  0  0  0  0
 16 17  1  0  0  0  0
 16 35  1  0  0  0  0
 16 36  1  0  0  0  0
 17 18  1  0  0  0  0
 17 37  1  0  0  0  0
 18 19  1  0  0  0  0
 18 38  1  0  0  0  0
 18 39  1  0  0  0  0
 19 40  1  0  0  0  0
M  CHG  1   4   1
M  END
> <s_m_source_file>
AV-unprocessed.smi

> <i_m_source_file_index>
2453

> <i_lp_mmshare_version>
43012

> <i_f3d_flags>
0

> <s_epik_input>
W0NIM11jMVtjSF1uW2NIXVtjSF1jMVtOSF1DKD1PKVtOSF1bQ0BASF0yW0NIMl1bQ0gyXVtDSDJdW0NIMl1bQ0BIXTJbQ0gyXVtPSF0=

> <s_epik_cmdline>
J2VwaWtfcHl0aG9uJywgJy1waCcsICc3LjAnLCAnLXRuJywgJzgnLCAnLW1hJywgJzIwMCcsICctbWV0YWxfYmluZGluZycsICctaW1hZScsICc8aW5maWxlLm1hZT4nLCAnLW9tYWUnLCAnPG91dGZpbGUubWFlPic=

> <r_epik_Ionization_Penalty>
0.71493

> <r_epik_Ionization_Penalty_Charging>
0.714909

> <r_epik_Ionization_Penalty_Neutral>
2.10174e-05

> <r_epik_State_Penalty>
0.738815

> <r_epik_Charging_Adjusted_Penalty>
1.45372

> <i_epik_Tot_Q>
1

> <i_epik_Tot_abs_Q>
1

> <r_epik_Metal_State_Penalty>
0.896004

> <b_epik_Metal_Only>
0

> <s_lp_Force_Field>
OPLS_2005

> <r_lp_Energy>
23.4008

> <b_lp_Chiralities_Consistent>
1

> <s_lp_Variant>
AV-unprocessed.smi:2453-7

> <Gold.Version>
5.8.1

> <Gold.Id.Protein>
6NUR|6NUR_protein|mol2

> <Gold.PLP.Fitness>
43.9646

> <Gold.PLP.PLP>
-29.1272

> <Gold.PLP.part.hbond>
-5.6083

> <Gold.PLP.part.metal>
0.0000

> <Gold.PLP.part.buried>
-5.1408

> <Gold.PLP.part.nonpolar>
-18.0971

> <Gold.PLP.part.repulsive>
0.0367

> <Gold.PLP.ligand.clash>
0.0000

> <Gold.PLP.ligand.torsion>
0.4419

> <Gold.PLP.Chemscore.Hbond>
5.2340

> <Gold.PLP.Chemscore.CHOScore>
0.0000

> <Gold.PLP.Chemscore.Metal>
0.0000

> <Gold.Chemscore.Hbonds>
donor molecule, donor type, donor heavy atom, donor atom, acceptor molecule, acceptor atom, score
      L1  H     4    41       P1 10957  2.00
      L1  H     8    26       P1 10175  1.00
      L1  H    11    27       P1 10175  1.00
      L1  H    19    40       P1  8028  1.00
      P1  H  8011  8017       L1    19  0.22

> <Gold.PLP.Chemscore.Internal.Correction>
0.0192

> <Gold.Rescore>
     Score         DG    S(hbond)    S(metal)    S(lipo)     H(rot)  DE(clash)    DE(int)     intcor
     19.49     -20.54       4.07        0.00      51.26       1.77       0.02       1.03       ----

> <Gold.Chemscore.Fitness>
19.4905

> <Gold.Chemscore.DG>
-20.5434

> <Gold.Chemscore.ZeroCoef>
-5.4800

> <Gold.Chemscore.Hbond>
4.0744

> <Gold.Chemscore.Metal>
0.0000

> <Gold.Chemscore.Lipo>
51.2556

> <Gold.Chemscore.Internal_Hbond>
0.0000

> <Gold.Chemscore.DEClash>
0.0183

> <Gold.Chemscore.DEInternal>
1.0346

> <Gold.Chemscore.Rot>
1.7742

> <Gold.Chemscore.Internal.Correction>
   9.000000E+99

> <Gold.Chemscore.Hbonds>
donor molecule, donor type, donor heavy atom, donor atom, acceptor molecule, acceptor atom, score
      L1  H     4    41       P1 10957  0.93
      L1  H     8    26       P1 10175  0.99
      L1  H    11    27       P1 10175  0.79
      L1  H    19    40       P1  8028  0.95
      P1  H  8011  8017       L1    19  0.22

> <Gold.Chemscore.Hbond.Weighted>
-13.6084

> <Gold.Chemscore.Metal.Weighted>
-0.0000

> <Gold.Chemscore.Lipo.Weighted>
-5.9969

> <Gold.Chemscore.Internal_Hbond.Weighted>
0.0000

> <Gold.Chemscore.DEClash.Weighted>
0.0183

> <Gold.Chemscore.DEInternal.Weighted>
1.0346

> <Gold.Chemscore.Rot.Weighted>
4.5419

> <Gold.Chemscore.Internal.Correction.Weighted>
   9.000000E+99

> <Gold.Protein.RotatedTorsions>
[ 6907 6896 6895 6894 ] final  111.69 input  -60.11 | X-H torsion
[ 7974 7965 7964 7962 ] final  -96.79 input  175.53 | X-H torsion
[ 8008 7997 7996 7995 ] final   50.00 input   59.86 | X-H torsion
[ 10167 10162 10161 10158 ] final  165.46 input  -65.29 | X-H torsion
[ 10718 10713 10712 10709 ] final -102.89 input   66.30 | X-H torsion
[ 10763 10752 10751 10750 ] final   71.79 input  -60.55 | X-H torsion
[ 11005 11000 10999 10996 ] final -166.63 input  -57.11 | X-H torsion

> <Gold.Protein.ActiveResidues>
 VAL166  LYS551  ARG553  GLY616  TRP617  ASP618  TYR619  PRO620  LYS621  CYS622 
 ASP623  PHE694  ASN695  SER759  ASP760  ASP761  ALA762  ILE779  LEU786  VAL792 
 PHE793  MET794  SER795  GLU796  ALA797  LYS798  CYS799  TRP800  GLU811  SER814 

> <Gold.Protein.RotatedAtoms>
  152.4956  133.8622  159.7255 H   0  0  0  0  0  0  0  0  0  0  0  0  # atno 6907 bound_to 6896
  150.9130  133.6964  159.2857 H   0  0  0  0  0  0  0  0  0  0  0  0  # atno 6908 bound_to 6896
  151.4367  135.1020  159.9710 H   0  0  0  0  0  0  0  0  0  0  0  0  # atno 6909 bound_to 6896
  145.3423  140.9462  143.2601 H   0  0  0  0  0  0  0  0  0  0  0  0  # atno 7974 bound_to 7965
  155.4115  140.3442  155.4264 H   0  0  0  0  0  0  0  0  0  0  0  0  # atno 8008 bound_to 7997
  156.1446  140.1552  156.8898 H   0  0  0  0  0  0  0  0  0  0  0  0  # atno 8009 bound_to 7997
  154.5000  140.0817  156.7758 H   0  0  0  0  0  0  0  0  0  0  0  0  # atno 8010 bound_to 7997
  139.4906  144.4129  151.9277 H   0  0  0  0  0  0  0  0  0  0  0  0  # atno 10167 bound_to 10162
  156.0245  130.5441  150.7173 H   0  0  0  0  0  0  0  0  0  0  0  0  # atno 10718 bound_to 10713
  153.0420  135.5124  154.7646 H   0  0  0  0  0  0  0  0  0  0  0  0  # atno 10763 bound_to 10752
  154.6576  135.2934  154.9909 H   0  0  0  0  0  0  0  0  0  0  0  0  # atno 10764 bound_to 10752
  154.0772  135.6669  153.4885 H   0  0  0  0  0  0  0  0  0  0  0  0  # atno 10765 bound_to 10752
  140.5624  134.5320  157.5146 H   0  0  0  0  0  0  0  0  0  0  0  0  # atno 11005 bound_to 11000
  144.8781  139.4943  143.6736 LP  0  0  0  0  0  0  0  0  0  0  0  0  # atno 17320 bound_to 7965
  146.3002  139.7404  142.9097 LP  0  0  0  0  0  0  0  0  0  0  0  0  # atno 17321 bound_to 7965
  140.3571  144.3018  150.5939 LP  0  0  0  0  0  0  0  0  0  0  0  0  # atno 17342 bound_to 10162
  140.5435  143.2219  151.8046 LP  0  0  0  0  0  0  0  0  0  0  0  0  # atno 17343 bound_to 10162
  157.4797  131.0901  151.0550 LP  0  0  0  0  0  0  0  0  0  0  0  0  # atno 17370 bound_to 10713
  157.0987  130.5972  149.5455 LP  0  0  0  0  0  0  0  0  0  0  0  0  # atno 17371 bound_to 10713
  139.9401  134.7802  156.0700 LP  0  0  0  0  0  0  0  0  0  0  0  0  # atno 17394 bound_to 11000
  141.1107  133.6644  156.2971 LP  0  0  0  0  0  0  0  0  0  0  0  0  # atno 17395 bound_to 11000

$$$$
