AV-unprocessed.smi:1493|AV-procd|sdf|6050|dock1
  -GOLD-   22720 6163D 1   1.00000     0.00000
 Structure written by MMmdl.
 34 34  0  0  0  0  0  0  0  0  1 V2000
  151.9743  145.1893  158.8145 C   0  0  0  0  0  0  0  0  0  0  0  0
  151.3922  144.5469  160.0780 C   0  0  0  0  0  0  0  0  0  0  0  0
  152.3835  143.5869  160.7595 C   0  0  0  0  0  0  0  0  0  0  0  0
  152.3507  142.1524  160.1982 C   0  0  2  0  0  0  0  0  0  0  0  0
  153.7156  141.4600  160.3457 C   0  0  0  0  0  0  0  0  0  0  0  0
  151.9421  142.1754  158.7972 N   0  0  0  0  0  0  0  0  0  0  0  0
  151.5868  141.1102  158.0588 C   0  0  0  0  0  0  0  0  0  0  0  0
  151.5994  139.9607  158.4976 O   0  0  0  0  0  0  0  0  0  0  0  0
  151.1334  141.3519  156.6081 C   0  0  0  0  0  0  0  0  0  0  0  0
  151.0102  140.1355  155.7876 N   0  0  0  0  0  0  0  0  0  0  0  0
  149.8507  140.0841  155.0285 N   0  0  0  0  0  0  0  0  0  0  0  0
  149.6323  139.0783  154.2507 C   0  0  0  0  0  0  0  0  0  0  0  0
  148.4729  139.0696  153.5148 O   0  0  0  0  0  0  0  0  0  0  0  0
  150.5786  137.9887  154.1532 C   0  0  0  0  0  0  0  0  0  0  0  0
  151.7046  138.0467  154.8978 C   0  0  0  0  0  0  0  0  0  0  0  0
  151.9852  139.1751  155.7872 C   0  0  0  0  0  0  0  0  0  0  0  0
  153.0095  139.2609  156.4638 O   0  0  0  0  0  0  0  0  0  0  0  0
  148.7176  139.3748  152.6549 H   0  0  0  0  0  0  0  0  0  0  0  0
  151.2519  145.8630  158.3532 H   0  0  0  0  0  0  0  0  0  0  0  0
  152.2429  144.4331  158.0764 H   0  0  0  0  0  0  0  0  0  0  0  0
  152.8696  145.7681  159.0438 H   0  0  0  0  0  0  0  0  0  0  0  0
  151.1022  145.3310  160.7782 H   0  0  0  0  0  0  0  0  0  0  0  0
  150.4770  144.0160  159.8128 H   0  0  0  0  0  0  0  0  0  0  0  0
  153.3935  143.9905  160.6720 H   0  0  0  0  0  0  0  0  0  0  0  0
  152.1634  143.5524  161.8275 H   0  0  0  0  0  0  0  0  0  0  0  0
  151.6133  141.5847  160.7689 H   0  0  0  0  0  0  0  0  0  0  0  0
  154.0270  141.4277  161.3900 H   0  0  0  0  0  0  0  0  0  0  0  0
  154.4895  141.9840  159.7838 H   0  0  0  0  0  0  0  0  0  0  0  0
  153.6813  140.4316  159.9849 H   0  0  0  0  0  0  0  0  0  0  0  0
  151.9047  143.0821  158.3542 H   0  0  0  0  0  0  0  0  0  0  0  0
  150.1884  141.8971  156.6264 H   0  0  0  0  0  0  0  0  0  0  0  0
  151.8471  142.0346  156.1437 H   0  0  0  0  0  0  0  0  0  0  0  0
  150.3816  137.1522  153.4992 H   0  0  0  0  0  0  0  0  0  0  0  0
  152.4198  137.2399  154.8352 H   0  0  0  0  0  0  0  0  0  0  0  0
  1  2  1  0  0  0  0
  1 19  1  0  0  0  0
  1 20  1  0  0  0  0
  1 21  1  0  0  0  0
  2  3  1  0  0  0  0
  2 22  1  0  0  0  0
  2 23  1  0  0  0  0
  3  4  1  0  0  0  0
  3 24  1  0  0  0  0
  3 25  1  0  0  0  0
  4  5  1  0  0  0  0
  4  6  1  0  0  0  0
  4 26  1  0  0  0  0
  5 27  1  0  0  0  0
  5 28  1  0  0  0  0
  5 29  1  0  0  0  0
  6  7  1  0  0  0  0
  6 30  1  0  0  0  0
  7  8  2  0  0  0  0
  7  9  1  0  0  0  0
  9 31  1  0  0  0  0
  9 32  1  0  0  0  0
  9 10  1  0  0  0  0
 10 11  1  0  0  0  0
 10 16  1  0  0  0  0
 11 12  2  0  0  0  0
 12 13  1  0  0  0  0
 12 14  1  0  0  0  0
 13 18  1  0  0  0  0
 14 33  1  0  0  0  0
 14 15  2  0  0  0  0
 15 34  1  0  0  0  0
 15 16  1  0  0  0  0
 16 17  2  0  0  0  0
M  END
> <s_m_source_file>
AV-unprocessed.smi

> <i_m_source_file_index>
1493

> <i_lp_mmshare_version>
43012

> <i_f3d_flags>
0

> <s_epik_input>
W0NIM11bQ0gyXVtDSDJdW0NASF0oW0NIM10pW05IXUMoPU8pW0NIMl1uMVtuSF1jKD1PKVtjSF1bY0hdYzE9Tw==

> <s_epik_cmdline>
J2VwaWtfcHl0aG9uJywgJy1waCcsICc3LjAnLCAnLXRuJywgJzgnLCAnLW1hJywgJzIwMCcsICctbWV0YWxfYmluZGluZycsICctaW1hZScsICc8aW5maWxlLm1hZT4nLCAnLW9tYWUnLCAnPG91dGZpbGUubWFlPic=

> <r_lp_tautomer_probability>
0.9996

> <r_epik_Ionization_Penalty>
2.12047

> <r_epik_Ionization_Penalty_Charging>
3.81971e-08

> <r_epik_Ionization_Penalty_Neutral>
2.12047

> <r_epik_State_Penalty>
1.69728

> <r_epik_Charging_Adjusted_Penalty>
1.69728

> <i_epik_Tot_Q>
0

> <i_epik_Tot_abs_Q>
0

> <r_epik_Metal_State_Penalty>
1.69728

> <b_epik_Metal_Only>
0

> <s_lp_Force_Field>
OPLS_2005

> <r_lp_Energy>
13.2358

> <b_lp_Chiralities_Consistent>
1

> <s_lp_Variant>
AV-unprocessed.smi:1493-3

> <Gold.Version>
5.8.1

> <Gold.Id.Protein>
6NUR|6NUR_protein|mol2

> <Gold.PLP.Fitness>
46.2465

> <Gold.PLP.PLP>
-42.0729

> <Gold.PLP.part.hbond>
-2.1589

> <Gold.PLP.part.metal>
0.0000

> <Gold.PLP.part.buried>
-5.9026

> <Gold.PLP.part.nonpolar>
-34.1079

> <Gold.PLP.part.repulsive>
0.1488

> <Gold.PLP.ligand.clash>
0.0000

> <Gold.PLP.ligand.torsion>
0.9241

> <Gold.PLP.Chemscore.Hbond>
2.0000

> <Gold.PLP.Chemscore.CHOScore>
0.0000

> <Gold.PLP.Chemscore.Metal>
0.0000

> <Gold.Chemscore.Hbonds>
donor molecule, donor type, donor heavy atom, donor atom, acceptor molecule, acceptor atom, score
      L1  H    13    18       P1  7957  1.00
      P1  H  7997  8010       L1    17  1.00

> <Gold.PLP.Chemscore.Internal.Correction>
0.0218

> <Gold.Rescore>
     Score         DG    S(hbond)    S(metal)    S(lipo)     H(rot)  DE(clash)    DE(int)     intcor
      8.70     -14.12       1.97        0.00      78.38       2.78       0.02       5.41       ----

> <Gold.Chemscore.Fitness>
8.6972

> <Gold.Chemscore.DG>
-14.1236

> <Gold.Chemscore.ZeroCoef>
-5.4800

> <Gold.Chemscore.Hbond>
1.9719

> <Gold.Chemscore.Metal>
0.0000

> <Gold.Chemscore.Lipo>
78.3793

> <Gold.Chemscore.Internal_Hbond>
0.0000

> <Gold.Chemscore.DEClash>
0.0211

> <Gold.Chemscore.DEInternal>
5.4052

> <Gold.Chemscore.Rot>
2.7785

> <Gold.Chemscore.Internal.Correction>
   9.000000E+99

> <Gold.Chemscore.Hbonds>
donor molecule, donor type, donor heavy atom, donor atom, acceptor molecule, acceptor atom, score
      L1  H    13    18       P1  7957  1.00
      P1  H  7997  8010       L1    17  0.96

> <Gold.Chemscore.Hbond.Weighted>
-6.5861

> <Gold.Chemscore.Metal.Weighted>
-0.0000

> <Gold.Chemscore.Lipo.Weighted>
-9.1704

> <Gold.Chemscore.Internal_Hbond.Weighted>
0.0000

> <Gold.Chemscore.DEClash.Weighted>
0.0211

> <Gold.Chemscore.DEInternal.Weighted>
5.4052

> <Gold.Chemscore.Rot.Weighted>
7.1129

> <Gold.Chemscore.Internal.Correction.Weighted>
   9.000000E+99

> <Gold.Protein.RotatedTorsions>
[ 6907 6896 6895 6894 ] final   36.31 input  -60.11 | X-H torsion
[ 7974 7965 7964 7962 ] final  -14.75 input  175.53 | X-H torsion
[ 8008 7997 7996 7995 ] final   53.11 input   59.86 | X-H torsion
[ 10167 10162 10161 10158 ] final   53.22 input  -65.29 | X-H torsion
[ 10718 10713 10712 10709 ] final -167.85 input   66.30 | X-H torsion
[ 10763 10752 10751 10750 ] final  115.42 input  -60.55 | X-H torsion
[ 11005 11000 10999 10996 ] final   22.08 input  -57.11 | X-H torsion

> <Gold.Protein.ActiveResidues>
 VAL166  LYS551  ARG553  GLY616  TRP617  ASP618  TYR619  PRO620  LYS621  CYS622 
 ASP623  PHE694  ASN695  SER759  ASP760  ASP761  ALA762  ILE779  LEU786  VAL792 
 PHE793  MET794  SER795  GLU796  ALA797  LYS798  CYS799  TRP800  GLU811  SER814 

> <Gold.Protein.RotatedAtoms>
  152.1280  134.9156  160.0559 H   0  0  0  0  0  0  0  0  0  0  0  0  # atno 6907 bound_to 6896
  152.0271  133.3917  159.4290 H   0  0  0  0  0  0  0  0  0  0  0  0  # atno 6908 bound_to 6896
  150.6854  134.3483  159.4941 H   0  0  0  0  0  0  0  0  0  0  0  0  # atno 6909 bound_to 6896
  146.2061  140.3394  142.8406 H   0  0  0  0  0  0  0  0  0  0  0  0  # atno 7974 bound_to 7965
  155.4628  140.3462  155.4315 H   0  0  0  0  0  0  0  0  0  0  0  0  # atno 8008 bound_to 7997
  156.1150  140.1471  156.9315 H   0  0  0  0  0  0  0  0  0  0  0  0  # atno 8009 bound_to 7997
  154.4782  140.0878  156.7294 H   0  0  0  0  0  0  0  0  0  0  0  0  # atno 8010 bound_to 7997
  140.2431  144.3561  150.6373 H   0  0  0  0  0  0  0  0  0  0  0  0  # atno 10167 bound_to 10162
  156.6883  130.9149  151.3066 H   0  0  0  0  0  0  0  0  0  0  0  0  # atno 10718 bound_to 10713
  153.5219  135.3596  155.2636 H   0  0  0  0  0  0  0  0  0  0  0  0  # atno 10763 bound_to 10752
  154.8734  135.4047  154.3249 H   0  0  0  0  0  0  0  0  0  0  0  0  # atno 10764 bound_to 10752
  153.3922  135.7072  153.6554 H   0  0  0  0  0  0  0  0  0  0  0  0  # atno 10765 bound_to 10752
  140.3845  134.1885  155.7663 H   0  0  0  0  0  0  0  0  0  0  0  0  # atno 11005 bound_to 11000
  144.8796  140.7383  143.5995 LP  0  0  0  0  0  0  0  0  0  0  0  0  # atno 17320 bound_to 7965
  145.3314  139.1758  143.4535 LP  0  0  0  0  0  0  0  0  0  0  0  0  # atno 17321 bound_to 7965
  140.6098  143.2169  151.6908 LP  0  0  0  0  0  0  0  0  0  0  0  0  # atno 17342 bound_to 10162
  139.5071  144.3660  152.0517 LP  0  0  0  0  0  0  0  0  0  0  0  0  # atno 17343 bound_to 10162
  157.7018  130.9341  150.0809 LP  0  0  0  0  0  0  0  0  0  0  0  0  # atno 17370 bound_to 10713
  156.1816  130.3650  149.9028 LP  0  0  0  0  0  0  0  0  0  0  0  0  # atno 17371 bound_to 10713
  141.1912  133.8200  157.0888 LP  0  0  0  0  0  0  0  0  0  0  0  0  # atno 17394 bound_to 11000
  140.0453  134.9833  157.1038 LP  0  0  0  0  0  0  0  0  0  0  0  0  # atno 17395 bound_to 11000

$$$$
