AV-unprocessed.smi:332|AV-procd|sdf|2356|dock2
  -GOLD-   2262022263D 1   1.00000     0.00000
 Structure written by MMmdl.
 42 44  0  0  0  0  0  0  0  0  1 V2000
  149.9215  137.9772  155.2449 C   0  0  0  0  0  0  0  0  0  0  0  0
  150.1919  137.5675  156.7026 C   0  0  2  0  0  0  0  0  0  0  0  0
  149.1105  136.7205  157.1931 N   0  0  0  0  0  0  0  0  0  0  0  0
  148.9792  136.2470  158.4434 C   0  0  0  0  0  0  0  0  0  0  0  0
  149.8341  136.4082  159.3132 O   0  0  0  0  0  0  0  0  0  0  0  0
  147.6832  135.4946  158.7919 C   0  0  0  0  0  0  0  0  0  0  0  0
  147.5865  135.0601  160.1982 N   0  0  0  0  0  0  0  0  0  0  0  0
  147.4845  133.6750  160.4364 C   0  0  0  0  0  0  0  0  0  0  0  0
  147.3742  133.1745  161.6770 C   0  0  0  0  0  0  0  0  0  0  0  0
  147.3623  134.0973  162.7873 C   0  0  0  0  0  0  0  0  0  0  0  0
  147.4547  135.4244  162.5706 C   0  0  0  0  0  0  0  0  0  0  0  0
  147.5709  135.9765  161.2161 C   0  0  0  0  0  0  0  0  0  0  0  0
  147.6389  137.1881  161.0080 O   0  0  0  0  0  0  0  0  0  0  0  0
  150.3374  138.7942  157.6332 C   0  0  2  0  0  0  0  0  0  0  0  0
  149.2508  139.8771  157.4510 C   0  0  0  0  0  0  0  0  0  0  0  0
  150.0740  141.1707  157.3041 C   0  0  2  0  0  0  0  0  0  0  0  0
  150.7423  141.1882  155.9166 C   0  0  0  0  0  0  0  0  0  0  0  0
  151.8522  140.1313  156.0619 C   0  0  0  0  0  0  0  0  0  0  0  0
  151.6453  139.6168  157.5009 C   0  0  1  0  0  0  0  0  0  0  0  0
  151.2608  140.9035  158.2230 C   0  0  0  0  0  0  0  0  0  0  0  0
  150.7288  138.5958  154.8525 H   0  0  0  0  0  0  0  0  0  0  0  0
  148.9949  138.5453  155.1566 H   0  0  0  0  0  0  0  0  0  0  0  0
  149.8393  137.1037  154.5976 H   0  0  0  0  0  0  0  0  0  0  0  0
  151.1218  136.9970  156.7260 H   0  0  0  0  0  0  0  0  0  0  0  0
  148.3608  136.5318  156.5433 H   0  0  0  0  0  0  0  0  0  0  0  0
  146.8414  136.1388  158.5353 H   0  0  0  0  0  0  0  0  0  0  0  0
  147.5913  134.6335  158.1275 H   0  0  0  0  0  0  0  0  0  0  0  0
  147.4933  133.0542  159.5521 H   0  0  0  0  0  0  0  0  0  0  0  0
  147.2921  132.1099  161.8398 H   0  0  0  0  0  0  0  0  0  0  0  0
  147.2786  133.7219  163.7965 H   0  0  0  0  0  0  0  0  0  0  0  0
  147.4422  136.1001  163.4135 H   0  0  0  0  0  0  0  0  0  0  0  0
  150.2896  138.4358  158.6634 H   0  0  0  0  0  0  0  0  0  0  0  0
  148.6140  139.7035  156.5827 H   0  0  0  0  0  0  0  0  0  0  0  0
  148.6059  139.9215  158.3295 H   0  0  0  0  0  0  0  0  0  0  0  0
  149.5098  142.0762  157.5288 H   0  0  0  0  0  0  0  0  0  0  0  0
  150.0416  140.9475  155.1162 H   0  0  0  0  0  0  0  0  0  0  0  0
  151.1713  142.1676  155.7016 H   0  0  0  0  0  0  0  0  0  0  0  0
  151.7926  139.3469  155.3080 H   0  0  0  0  0  0  0  0  0  0  0  0
  152.8333  140.5978  155.9643 H   0  0  0  0  0  0  0  0  0  0  0  0
  152.5218  139.1161  157.9135 H   0  0  0  0  0  0  0  0  0  0  0  0
  152.0305  141.6757  158.1733 H   0  0  0  0  0  0  0  0  0  0  0  0
  150.9762  140.7492  159.2654 H   0  0  0  0  0  0  0  0  0  0  0  0
  1  2  1  0  0  0  0
  1 21  1  0  0  0  0
  1 22  1  0  0  0  0
  1 23  1  0  0  0  0
  2  3  1  0  0  0  0
  2 14  1  0  0  0  0
  2 24  1  0  0  0  0
  3  4  1  0  0  0  0
  3 25  1  0  0  0  0
  4  5  2  0  0  0  0
  4  6  1  0  0  0  0
  6  7  1  0  0  0  0
  6 26  1  0  0  0  0
  6 27  1  0  0  0  0
  7 12  1  0  0  0  0
  7  8  1  0  0  0  0
  8  9  2  0  0  0  0
  8 28  1  0  0  0  0
  9 10  1  0  0  0  0
  9 29  1  0  0  0  0
 10 11  2  0  0  0  0
 10 30  1  0  0  0  0
 11 12  1  0  0  0  0
 11 31  1  0  0  0  0
 12 13  2  0  0  0  0
 14 19  1  0  0  0  0
 14 15  1  0  0  0  0
 14 32  1  0  0  0  0
 15 16  1  0  0  0  0
 15 33  1  0  0  0  0
 15 34  1  0  0  0  0
 16 20  1  0  0  0  0
 16 17  1  0  0  0  0
 16 35  1  0  0  0  0
 17 18  1  0  0  0  0
 17 36  1  0  0  0  0
 17 37  1  0  0  0  0
 18 19  1  0  0  0  0
 18 38  1  0  0  0  0
 18 39  1  0  0  0  0
 19 20  1  0  0  0  0
 19 40  1  0  0  0  0
 20 41  1  0  0  0  0
 20 42  1  0  0  0  0
M  END
> <s_m_source_file>
AV-unprocessed.smi

> <i_m_source_file_index>
332

> <i_lp_mmshare_version>
43012

> <i_f3d_flags>
0

> <s_epik_input>
W0NIMl0xW0NIMl1bQ0BIXShbQ0gyXTIpW0NAQEhdKFtDSDJdW0NAQEhdMTIpW0NASF0oW0NIM10pW05IXUMoPU8pW0NIMl1uM1tjSF1bY0hdW2NIXVtjSF1jMz1P

> <s_epik_cmdline>
J2VwaWtfcHl0aG9uJywgJy1waCcsICc3LjAnLCAnLXRuJywgJzgnLCAnLW1hJywgJzIwMCcsICctbWV0YWxfYmluZGluZycsICctaW1hZScsICc8aW5maWxlLm1hZT4nLCAnLW9tYWUnLCAnPG91dGZpbGUubWFlPic=

> <r_lp_tautomer_probability>
1

> <r_epik_Ionization_Penalty>
4.05802e-07

> <r_epik_Ionization_Penalty_Charging>
3.84175e-07

> <r_epik_Ionization_Penalty_Neutral>
2.16269e-08

> <r_epik_State_Penalty>
-0

> <r_epik_Charging_Adjusted_Penalty>
3.84175e-07

> <i_epik_Tot_Q>
0

> <i_epik_Tot_abs_Q>
0

> <r_epik_Metal_State_Penalty>
-0

> <b_epik_Metal_Only>
0

> <s_lp_Force_Field>
OPLS_2005

> <r_lp_Energy>
59.3935

> <b_lp_Chiralities_Consistent>
1

> <s_lp_Variant>
AV-unprocessed.smi:332-5

> <Gold.Version>
5.8.1

> <Gold.Id.Protein>
6NUR|6NUR_protein|mol2

> <Gold.PLP.Fitness>
42.8096

> <Gold.PLP.PLP>
-34.8202

> <Gold.PLP.part.hbond>
-3.0000

> <Gold.PLP.part.metal>
0.0000

> <Gold.PLP.part.buried>
-4.7914

> <Gold.PLP.part.nonpolar>
-27.8133

> <Gold.PLP.part.repulsive>
0.0264

> <Gold.PLP.ligand.clash>
0.0000

> <Gold.PLP.ligand.torsion>
0.2494

> <Gold.PLP.Chemscore.Hbond>
2.8080

> <Gold.PLP.Chemscore.CHOScore>
0.0000

> <Gold.PLP.Chemscore.Metal>
0.0000

> <Gold.Chemscore.Hbonds>
donor molecule, donor type, donor heavy atom, donor atom, acceptor molecule, acceptor atom, score
      P1  H  6896  6909       L1     5  1.00
      P1  H  6931  6943       L1    13  0.88
      P1  H  6934  6947       L1    13  0.93

> <Gold.PLP.Chemscore.Internal.Correction>
0.0642

> <Gold.Rescore>
     Score         DG    S(hbond)    S(metal)    S(lipo)     H(rot)  DE(clash)    DE(int)     intcor
     18.98     -19.60       2.78        0.00      75.00       1.54       0.04       0.58       ----

> <Gold.Chemscore.Fitness>
18.9848

> <Gold.Chemscore.DG>
-19.6008

> <Gold.Chemscore.ZeroCoef>
-5.4800

> <Gold.Chemscore.Hbond>
2.7809

> <Gold.Chemscore.Metal>
0.0000

> <Gold.Chemscore.Lipo>
74.9970

> <Gold.Chemscore.Internal_Hbond>
0.0000

> <Gold.Chemscore.DEClash>
0.0360

> <Gold.Chemscore.DEInternal>
0.5800

> <Gold.Chemscore.Rot>
1.5398

> <Gold.Chemscore.Internal.Correction>
   9.000000E+99

> <Gold.Chemscore.Hbonds>
donor molecule, donor type, donor heavy atom, donor atom, acceptor molecule, acceptor atom, score
      P1  H  6896  6909       L1     5  0.67
      P1  H  6931  6943       L1    13  0.83
      P1  H  6934  6947       L1    13  0.89

> <Gold.Chemscore.Hbond.Weighted>
-9.2881

> <Gold.Chemscore.Metal.Weighted>
-0.0000

> <Gold.Chemscore.Lipo.Weighted>
-8.7746

> <Gold.Chemscore.Internal_Hbond.Weighted>
0.0000

> <Gold.Chemscore.DEClash.Weighted>
0.0360

> <Gold.Chemscore.DEInternal.Weighted>
0.5800

> <Gold.Chemscore.Rot.Weighted>
3.9419

> <Gold.Chemscore.Internal.Correction.Weighted>
   9.000000E+99

> <Gold.Protein.RotatedTorsions>
[ 6907 6896 6895 6894 ] final   57.39 input  -60.11 | X-H torsion
[ 7974 7965 7964 7962 ] final  -98.13 input  175.53 | X-H torsion
[ 8008 7997 7996 7995 ] final  155.03 input   59.86 | X-H torsion
[ 10167 10162 10161 10158 ] final  114.67 input  -65.29 | X-H torsion
[ 10718 10713 10712 10709 ] final  -41.44 input   66.30 | X-H torsion
[ 10763 10752 10751 10750 ] final  110.33 input  -60.55 | X-H torsion
[ 11005 11000 10999 10996 ] final -129.70 input  -57.11 | X-H torsion

> <Gold.Protein.ActiveResidues>
 VAL166  LYS551  ARG553  GLY616  TRP617  ASP618  TYR619  PRO620  LYS621  CYS622 
 ASP623  PHE694  ASN695  SER759  ASP760  ASP761  ALA762  ILE779  LEU786  VAL792 
 PHE793  MET794  SER795  GLU796  ALA797  LYS798  CYS799  TRP800  GLU811  SER814 

> <Gold.Protein.RotatedAtoms>
  152.3726  134.6711  160.0170 H   0  0  0  0  0  0  0  0  0  0  0  0  # atno 6907 bound_to 6896
  151.6999  133.3305  159.3272 H   0  0  0  0  0  0  0  0  0  0  0  0  # atno 6908 bound_to 6896
  150.7685  134.6560  159.6358 H   0  0  0  0  0  0  0  0  0  0  0  0  # atno 6909 bound_to 6896
  145.3246  140.9429  143.2696 H   0  0  0  0  0  0  0  0  0  0  0  0  # atno 7974 bound_to 7965
  156.2500  140.1950  156.6738 H   0  0  0  0  0  0  0  0  0  0  0  0  # atno 8008 bound_to 7997
  154.6373  140.0588  156.9829 H   0  0  0  0  0  0  0  0  0  0  0  0  # atno 8009 bound_to 7997
  155.1617  140.3260  155.4412 H   0  0  0  0  0  0  0  0  0  0  0  0  # atno 8010 bound_to 7997
  139.6372  144.7121  151.2311 H   0  0  0  0  0  0  0  0  0  0  0  0  # atno 10167 bound_to 10162
  156.2704  130.4206  149.8444 H   0  0  0  0  0  0  0  0  0  0  0  0  # atno 10718 bound_to 10713
  153.4474  135.3752  155.2264 H   0  0  0  0  0  0  0  0  0  0  0  0  # atno 10763 bound_to 10752
  154.8755  135.3877  154.4080 H   0  0  0  0  0  0  0  0  0  0  0  0  # atno 10764 bound_to 10752
  153.4634  135.7087  153.6100 H   0  0  0  0  0  0  0  0  0  0  0  0  # atno 10765 bound_to 10752
  140.9409  134.1194  157.4151 H   0  0  0  0  0  0  0  0  0  0  0  0  # atno 11005 bound_to 11000
  144.8912  139.4772  143.6677 LP  0  0  0  0  0  0  0  0  0  0  0  0  # atno 17320 bound_to 7965
  146.3069  139.7611  142.9049 LP  0  0  0  0  0  0  0  0  0  0  0  0  # atno 17321 bound_to 7965
  140.7471  143.6376  150.8365 LP  0  0  0  0  0  0  0  0  0  0  0  0  # atno 17342 bound_to 10162
  140.0008  143.5746  152.2876 LP  0  0  0  0  0  0  0  0  0  0  0  0  # atno 17343 bound_to 10162
  156.5928  130.8513  151.3412 LP  0  0  0  0  0  0  0  0  0  0  0  0  # atno 17370 bound_to 10713
  157.7282  130.9653  150.1731 LP  0  0  0  0  0  0  0  0  0  0  0  0  # atno 17371 bound_to 10713
  139.8820  135.0036  156.6198 LP  0  0  0  0  0  0  0  0  0  0  0  0  # atno 17394 bound_to 11000
  140.7735  133.8719  155.8510 LP  0  0  0  0  0  0  0  0  0  0  0  0  # atno 17395 bound_to 11000

$$$$
