AV-unprocessed.smi:2734|AV-procd|sdf|10537|dock4
  -GOLD-   2272014583D 1   1.00000     0.00000
 Structure written by MMmdl.
 40 42  0  0  0  0  0  0  0  0  1 V2000
  153.2587  142.4648  161.5143 C   0  0  0  0  0  0  0  0  0  0  0  0
  152.5781  142.2579  160.1726 C   0  0  0  0  0  0  0  0  0  0  0  0
  152.9437  141.1456  159.3812 C   0  0  0  0  0  0  0  0  0  0  0  0
  152.3336  140.9164  158.1284 C   0  0  0  0  0  0  0  0  0  0  0  0
  152.5333  139.9069  157.2024 N   0  0  0  0  0  0  0  0  0  0  0  0
  151.6705  140.2446  156.2480 C   0  0  0  0  0  0  0  0  0  0  0  0
  150.9353  141.3556  156.4466 N   0  0  0  0  0  0  0  0  0  0  0  0
  149.9384  141.9206  155.5551 C   0  0  0  0  0  0  0  0  0  0  0  0
  148.9858  140.8527  154.9851 C   0  0  2  0  0  0  0  0  0  0  0  0
  149.2613  140.6588  153.6109 O   0  0  0  0  0  0  0  0  0  0  0  0
  147.5109  141.2501  155.1550 C   0  0  0  0  0  0  0  0  0  0  0  0
  146.8502  142.0758  153.6745 S   0  0  0  0  0  0  0  0  0  0  0  0
  145.4648  142.9088  154.3865 C   0  0  0  0  0  0  0  0  0  0  0  0
  144.9288  142.6790  155.5799 N   0  0  0  0  0  0  0  0  0  0  0  0
  143.8847  143.5808  155.6573 N   0  0  0  0  0  0  0  0  0  0  0  0
  143.8033  144.3016  154.5771 N   0  0  0  0  0  0  0  0  0  0  0  0
  144.8009  143.8875  153.7589 N   0  0  0  0  0  0  0  0  0  0  0  0
  144.9982  144.4887  152.4550 C   0  0  0  0  0  0  0  0  0  0  0  0
  151.3413  141.8387  157.6852 C   0  0  0  0  0  0  0  0  0  0  0  0
  150.9694  142.9493  158.4628 C   0  0  0  0  0  0  0  0  0  0  0  0
  151.5874  143.1626  159.7128 C   0  0  0  0  0  0  0  0  0  0  0  0
  151.1766  144.3629  160.5471 C   0  0  0  0  0  0  0  0  0  0  0  0
  154.0027  141.6915  161.7072 H   0  0  0  0  0  0  0  0  0  0  0  0
  152.5269  142.4339  162.3219 H   0  0  0  0  0  0  0  0  0  0  0  0
  153.7653  143.4296  161.5417 H   0  0  0  0  0  0  0  0  0  0  0  0
  153.6977  140.4561  159.7310 H   0  0  0  0  0  0  0  0  0  0  0  0
  151.5646  139.6489  155.3530 H   0  0  0  0  0  0  0  0  0  0  0  0
  149.3748  142.6708  156.1110 H   0  0  0  0  0  0  0  0  0  0  0  0
  150.4484  142.4487  154.7478 H   0  0  0  0  0  0  0  0  0  0  0  0
  149.1607  139.9078  155.5013 H   0  0  0  0  0  0  0  0  0  0  0  0
  148.5483  140.1697  153.2291 H   0  0  0  0  0  0  0  0  0  0  0  0
  146.9128  140.3578  155.3439 H   0  0  0  0  0  0  0  0  0  0  0  0
  147.3932  141.9056  156.0191 H   0  0  0  0  0  0  0  0  0  0  0  0
  144.8160  143.7458  151.6785 H   0  0  0  0  0  0  0  0  0  0  0  0
  146.0225  144.8519  152.3689 H   0  0  0  0  0  0  0  0  0  0  0  0
  144.3139  145.3258  152.3116 H   0  0  0  0  0  0  0  0  0  0  0  0
  150.2132  143.6296  158.0998 H   0  0  0  0  0  0  0  0  0  0  0  0
  150.3974  144.9435  160.0523 H   0  0  0  0  0  0  0  0  0  0  0  0
  152.0290  145.0213  160.7149 H   0  0  0  0  0  0  0  0  0  0  0  0
  150.7903  144.0415  161.5146 H   0  0  0  0  0  0  0  0  0  0  0  0
  1  2  1  0  0  0  0
  1 23  1  0  0  0  0
  1 24  1  0  0  0  0
  1 25  1  0  0  0  0
  2 21  1  0  0  0  0
  2  3  2  0  0  0  0
  3  4  1  0  0  0  0
  3 26  1  0  0  0  0
  4 19  2  0  0  0  0
  4  5  1  0  0  0  0
  5  6  2  0  0  0  0
  6  7  1  0  0  0  0
  6 27  1  0  0  0  0
  7  8  1  0  0  0  0
  7 19  1  0  0  0  0
  8  9  1  0  0  0  0
  8 28  1  0  0  0  0
  8 29  1  0  0  0  0
  9 10  1  0  0  0  0
  9 11  1  0  0  0  0
  9 30  1  0  0  0  0
 10 31  1  0  0  0  0
 11 12  1  0  0  0  0
 11 32  1  0  0  0  0
 11 33  1  0  0  0  0
 12 13  1  0  0  0  0
 13 17  1  0  0  0  0
 13 14  2  0  0  0  0
 14 15  1  0  0  0  0
 15 16  2  0  0  0  0
 16 17  1  0  0  0  0
 17 18  1  0  0  0  0
 18 34  1  0  0  0  0
 18 35  1  0  0  0  0
 18 36  1  0  0  0  0
 19 20  1  0  0  0  0
 20 21  2  0  0  0  0
 20 37  1  0  0  0  0
 21 22  1  0  0  0  0
 22 38  1  0  0  0  0
 22 39  1  0  0  0  0
 22 40  1  0  0  0  0
M  END
> <s_m_source_file>
AV-unprocessed.smi

> <i_m_source_file_index>
2734

> <i_lp_mmshare_version>
43012

> <i_f3d_flags>
0

> <s_epik_input>
W0NIM11jKFtjSF0xKWMoW0NIM10pW2NIXWMoYzEyKW4oW2NIXW4yKVtDSDJdW0NASF0oW09IXSlbQ0gyXVNjM25ubm4zW0NIM10=

> <s_epik_cmdline>
J2VwaWtfcHl0aG9uJywgJy1waCcsICc3LjAnLCAnLXRuJywgJzgnLCAnLW1hJywgJzIwMCcsICctbWV0YWxfYmluZGluZycsICctaW1hZScsICc8aW5maWxlLm1hZT4nLCAnLW9tYWUnLCAnPG91dGZpbGUubWFlPic=

> <r_lp_tautomer_probability>
1

> <r_epik_Ionization_Penalty>
0.105517

> <r_epik_Ionization_Penalty_Charging>
0

> <r_epik_Ionization_Penalty_Neutral>
0.105517

> <r_epik_State_Penalty>
0.0953887

> <r_epik_Charging_Adjusted_Penalty>
0.0953887

> <i_epik_Tot_Q>
0

> <i_epik_Tot_abs_Q>
0

> <r_epik_Metal_State_Penalty>
0.0808533

> <b_epik_Metal_Only>
0

> <s_lp_Force_Field>
OPLS_2005

> <r_lp_Energy>
9.5145

> <b_lp_Chiralities_Consistent>
1

> <s_lp_Variant>
AV-unprocessed.smi:2734-1

> <Gold.Version>
5.8.1

> <Gold.Id.Protein>
6NUR|6NUR_protein|mol2

> <Gold.PLP.Fitness>
52.6326

> <Gold.PLP.PLP>
-49.6107

> <Gold.PLP.part.hbond>
-3.9481

> <Gold.PLP.part.metal>
0.0000

> <Gold.PLP.part.buried>
-5.7203

> <Gold.PLP.part.nonpolar>
-38.5867

> <Gold.PLP.part.repulsive>
0.3597

> <Gold.PLP.ligand.clash>
0.0000

> <Gold.PLP.ligand.torsion>
1.6098

> <Gold.PLP.Chemscore.Hbond>
2.0728

> <Gold.PLP.Chemscore.CHOScore>
0.0000

> <Gold.PLP.Chemscore.Metal>
0.0000

> <Gold.Chemscore.Hbonds>
donor molecule, donor type, donor heavy atom, donor atom, acceptor molecule, acceptor atom, score
      P1  H  7989  7998       L1    10  0.08
      P1  H  7997  8008       L1     5  1.00
      P1  H  8011  8017       L1    10  0.49

> <Gold.PLP.Chemscore.Internal.Correction>
0.0231

> <Gold.Rescore>
     Score         DG    S(hbond)    S(metal)    S(lipo)     H(rot)  DE(clash)    DE(int)     intcor
     13.94     -16.93       1.61        0.00     114.26       2.85       1.45       1.53       ----

> <Gold.Chemscore.Fitness>
13.9432

> <Gold.Chemscore.DG>
-16.9271

> <Gold.Chemscore.ZeroCoef>
-5.4800

> <Gold.Chemscore.Hbond>
1.6056

> <Gold.Chemscore.Metal>
0.0000

> <Gold.Chemscore.Lipo>
114.2567

> <Gold.Chemscore.Internal_Hbond>
0.0000

> <Gold.Chemscore.DEClash>
1.4513

> <Gold.Chemscore.DEInternal>
1.5326

> <Gold.Chemscore.Rot>
2.8452

> <Gold.Chemscore.Internal.Correction>
   9.000000E+99

> <Gold.Chemscore.Hbonds>
donor molecule, donor type, donor heavy atom, donor atom, acceptor molecule, acceptor atom, score
      P1  H  7989  7998       L1    10  0.04
      P1  H  7997  8008       L1     5  0.43
      P1  H  8011  8017       L1    10  0.38

> <Gold.Chemscore.Hbond.Weighted>
-5.3628

> <Gold.Chemscore.Metal.Weighted>
-0.0000

> <Gold.Chemscore.Lipo.Weighted>
-13.3680

> <Gold.Chemscore.Internal_Hbond.Weighted>
0.0000

> <Gold.Chemscore.DEClash.Weighted>
1.4513

> <Gold.Chemscore.DEInternal.Weighted>
1.5326

> <Gold.Chemscore.Rot.Weighted>
7.2837

> <Gold.Chemscore.Internal.Correction.Weighted>
   9.000000E+99

> <Gold.Protein.RotatedTorsions>
[ 6907 6896 6895 6894 ] final  113.76 input  -60.11 | X-H torsion
[ 7974 7965 7964 7962 ] final  173.62 input  175.53 | X-H torsion
[ 8008 7997 7996 7995 ] final  -55.69 input   59.86 | X-H torsion
[ 10167 10162 10161 10158 ] final  -61.98 input  -65.29 | X-H torsion
[ 10718 10713 10712 10709 ] final   13.59 input   66.30 | X-H torsion
[ 10763 10752 10751 10750 ] final   26.21 input  -60.55 | X-H torsion
[ 11005 11000 10999 10996 ] final  -17.20 input  -57.11 | X-H torsion

> <Gold.Protein.ActiveResidues>
 VAL166  LYS551  ARG553  GLY616  TRP617  ASP618  TYR619  PRO620  LYS621  CYS622 
 ASP623  PHE694  ASN695  SER759  ASP760  ASP761  ALA762  ILE779  LEU786  VAL792 
 PHE793  MET794  SER795  GLU796  ALA797  LYS798  CYS799  TRP800  GLU811  SER814 

> <Gold.Protein.RotatedAtoms>
  152.4842  133.8330  159.7112 H   0  0  0  0  0  0  0  0  0  0  0  0  # atno 6907 bound_to 6896
  150.8915  133.7228  159.2910 H   0  0  0  0  0  0  0  0  0  0  0  0  # atno 6908 bound_to 6896
  151.4699  135.1049  159.9800 H   0  0  0  0  0  0  0  0  0  0  0  0  # atno 6909 bound_to 6896
  144.7239  139.9675  143.6436 H   0  0  0  0  0  0  0  0  0  0  0  0  # atno 7974 bound_to 7965
  154.4203  140.1147  156.5517 H   0  0  0  0  0  0  0  0  0  0  0  0  # atno 8008 bound_to 7997
  155.6403  140.3496  155.4693 H   0  0  0  0  0  0  0  0  0  0  0  0  # atno 8009 bound_to 7997
  155.9876  140.1173  157.0658 H   0  0  0  0  0  0  0  0  0  0  0  0  # atno 8010 bound_to 7997
  140.5969  143.2353  151.6015 H   0  0  0  0  0  0  0  0  0  0  0  0  # atno 10167 bound_to 10162
  157.0268  130.6177  149.5729 H   0  0  0  0  0  0  0  0  0  0  0  0  # atno 10718 bound_to 10713
  153.0638  135.6565  154.0401 H   0  0  0  0  0  0  0  0  0  0  0  0  # atno 10763 bound_to 10752
  154.0063  135.2932  155.3399 H   0  0  0  0  0  0  0  0  0  0  0  0  # atno 10764 bound_to 10752
  154.6988  135.5253  153.8565 H   0  0  0  0  0  0  0  0  0  0  0  0  # atno 10765 bound_to 10752
  140.8145  133.8115  155.9596 H   0  0  0  0  0  0  0  0  0  0  0  0  # atno 11005 bound_to 11000
  146.0589  139.3584  143.0593 LP  0  0  0  0  0  0  0  0  0  0  0  0  # atno 17320 bound_to 7965
  145.8119  140.9722  143.0944 LP  0  0  0  0  0  0  0  0  0  0  0  0  # atno 17321 bound_to 7965
  139.5264  144.3045  152.1045 LP  0  0  0  0  0  0  0  0  0  0  0  0  # atno 17342 bound_to 10162
  140.2219  144.4457  150.6338 LP  0  0  0  0  0  0  0  0  0  0  0  0  # atno 17343 bound_to 10162
  156.0083  130.5172  150.7904 LP  0  0  0  0  0  0  0  0  0  0  0  0  # atno 17370 bound_to 10713
  157.5208  131.0931  151.0081 LP  0  0  0  0  0  0  0  0  0  0  0  0  # atno 17371 bound_to 10713
  140.9163  134.2197  157.4954 LP  0  0  0  0  0  0  0  0  0  0  0  0  # atno 17394 bound_to 11000
  139.8712  134.9773  156.4952 LP  0  0  0  0  0  0  0  0  0  0  0  0  # atno 17395 bound_to 11000

$$$$
