AV-unprocessed.smi:2840|AV-procd|sdf|10931|dock4
  -GOLD-   2272015373D 1   1.00000     0.00000
 Structure written by MMmdl.
 36 37  0  0  0  0  0  0  0  0  1 V2000
  150.0625  145.1607  159.7685 C   0  0  0  0  0  0  0  0  0  0  0  0
  150.9628  143.9193  159.8998 C   0  0  2  0  0  0  0  0  0  0  0  0
  151.8943  144.0589  161.1211 C   0  0  0  0  0  0  0  0  0  0  0  0
  152.8041  142.8335  161.2925 C   0  0  0  0  0  0  0  0  0  0  0  0
  153.6268  142.5782  160.0229 C   0  0  0  0  0  0  0  0  0  0  0  0
  152.7126  142.4179  158.8000 C   0  0  0  0  0  0  0  0  0  0  0  0
  151.7847  143.6352  158.6154 C   0  0  1  0  0  0  0  0  0  0  0  0
  150.9031  143.3823  157.4763 N   0  0  0  0  0  0  0  0  0  0  0  0
  150.2998  142.2190  157.1885 C   0  0  0  0  0  0  0  0  0  0  0  0
  150.4300  141.1968  157.8626 O   0  0  0  0  0  0  0  0  0  0  0  0
  149.5483  142.3278  156.0789 N   0  0  0  0  0  0  0  0  0  0  0  0
  148.7730  141.3237  155.4400 C   0  0  0  0  0  0  0  0  0  0  0  0
  148.2089  141.7023  154.2008 C   0  0  0  0  0  0  0  0  0  0  0  0
  147.4255  140.7768  153.4846 C   0  0  0  0  0  0  0  0  0  0  0  0
  147.2253  139.4949  154.0269 C   0  0  0  0  0  0  0  0  0  0  0  0
  147.8229  139.1985  155.2658 C   0  0  0  0  0  0  0  0  0  0  0  0
  148.5745  140.0839  155.9536 N   0  0  0  0  0  0  0  0  0  0  0  0
  150.6498  146.0509  159.5407 H   0  0  0  0  0  0  0  0  0  0  0  0
  149.5183  145.3499  160.6942 H   0  0  0  0  0  0  0  0  0  0  0  0
  149.3207  145.0405  158.9793 H   0  0  0  0  0  0  0  0  0  0  0  0
  150.3118  143.0623  160.0805 H   0  0  0  0  0  0  0  0  0  0  0  0
  152.5095  144.9536  161.0140 H   0  0  0  0  0  0  0  0  0  0  0  0
  151.3031  144.1999  162.0266 H   0  0  0  0  0  0  0  0  0  0  0  0
  153.4697  142.9803  162.1435 H   0  0  0  0  0  0  0  0  0  0  0  0
  152.1982  141.9558  161.5206 H   0  0  0  0  0  0  0  0  0  0  0  0
  154.3168  143.4070  159.8593 H   0  0  0  0  0  0  0  0  0  0  0  0
  154.2390  141.6850  160.1495 H   0  0  0  0  0  0  0  0  0  0  0  0
  153.3215  142.2748  157.9065 H   0  0  0  0  0  0  0  0  0  0  0  0
  152.1164  141.5113  158.9141 H   0  0  0  0  0  0  0  0  0  0  0  0
  152.4164  144.5029  158.4147 H   0  0  0  0  0  0  0  0  0  0  0  0
  150.7361  144.1628  156.8585 H   0  0  0  0  0  0  0  0  0  0  0  0
  149.5314  143.2349  155.6370 H   0  0  0  0  0  0  0  0  0  0  0  0
  148.3726  142.6919  153.7988 H   0  0  0  0  0  0  0  0  0  0  0  0
  146.9868  141.0469  152.5355 H   0  0  0  0  0  0  0  0  0  0  0  0
  146.6307  138.7581  153.5072 H   0  0  0  0  0  0  0  0  0  0  0  0
  147.6952  138.2252  155.7163 H   0  0  0  0  0  0  0  0  0  0  0  0
  1  2  1  0  0  0  0
  1 18  1  0  0  0  0
  1 19  1  0  0  0  0
  1 20  1  0  0  0  0
  2  7  1  0  0  0  0
  2  3  1  0  0  0  0
  2 21  1  0  0  0  0
  3  4  1  0  0  0  0
  3 22  1  0  0  0  0
  3 23  1  0  0  0  0
  4  5  1  0  0  0  0
  4 24  1  0  0  0  0
  4 25  1  0  0  0  0
  5  6  1  0  0  0  0
  5 26  1  0  0  0  0
  5 27  1  0  0  0  0
  6  7  1  0  0  0  0
  6 28  1  0  0  0  0
  6 29  1  0  0  0  0
  7  8  1  0  0  0  0
  7 30  1  0  0  0  0
  8  9  1  0  0  0  0
  8 31  1  0  0  0  0
  9 10  2  0  0  0  0
  9 11  1  0  0  0  0
 11 12  1  0  0  0  0
 11 32  1  0  0  0  0
 12 17  1  0  0  0  0
 12 13  2  0  0  0  0
 13 14  1  0  0  0  0
 13 33  1  0  0  0  0
 14 15  2  0  0  0  0
 14 34  1  0  0  0  0
 15 16  1  0  0  0  0
 15 35  1  0  0  0  0
 16 17  2  0  0  0  0
 16 36  1  0  0  0  0
M  END
> <s_m_source_file>
AV-unprocessed.smi

> <i_m_source_file_index>
2840

> <i_lp_mmshare_version>
43012

> <i_f3d_flags>
0

> <s_epik_input>
W0NIM11bQ0BASF0xW0NIMl1bQ0gyXVtDSDJdW0NIMl1bQ0BIXTFbTkhdQyg9TylbTkhdYzJbY0hdW2NIXVtjSF1bY0hdbjI=

> <s_epik_cmdline>
J2VwaWtfcHl0aG9uJywgJy1waCcsICc3LjAnLCAnLXRuJywgJzgnLCAnLW1hJywgJzIwMCcsICctbWV0YWxfYmluZGluZycsICctaW1hZScsICc8aW5maWxlLm1hZT4nLCAnLW9tYWUnLCAnPG91dGZpbGUubWFlPic=

> <r_lp_tautomer_probability>
1

> <r_epik_Ionization_Penalty>
5.29956e-05

> <r_epik_Ionization_Penalty_Charging>
0

> <r_epik_Ionization_Penalty_Neutral>
5.29956e-05

> <r_epik_State_Penalty>
-0

> <r_epik_Charging_Adjusted_Penalty>
0

> <i_epik_Tot_Q>
0

> <i_epik_Tot_abs_Q>
0

> <r_epik_Metal_State_Penalty>
-0

> <b_epik_Metal_Only>
0

> <s_lp_Force_Field>
OPLS_2005

> <r_lp_Energy>
13.2298

> <b_lp_Chiralities_Consistent>
1

> <s_lp_Variant>
AV-unprocessed.smi:2840-1

> <Gold.Version>
5.8.1

> <Gold.Id.Protein>
6NUR|6NUR_protein|mol2

> <Gold.PLP.Fitness>
38.0980

> <Gold.PLP.PLP>
-34.9126

> <Gold.PLP.part.hbond>
-1.9250

> <Gold.PLP.part.metal>
0.0000

> <Gold.PLP.part.buried>
-5.1543

> <Gold.PLP.part.nonpolar>
-29.2061

> <Gold.PLP.part.repulsive>
0.1513

> <Gold.PLP.ligand.clash>
0.0000

> <Gold.PLP.ligand.torsion>
0.2932

> <Gold.PLP.Chemscore.Hbond>
1.2560

> <Gold.PLP.Chemscore.CHOScore>
0.0000

> <Gold.PLP.Chemscore.Metal>
0.0000

> <Gold.Chemscore.Hbonds>
donor molecule, donor type, donor heavy atom, donor atom, acceptor molecule, acceptor atom, score
      L1  H     8    31       P1  8028  0.28
      L1  H    11    32       P1  8028  0.93

> <Gold.PLP.Chemscore.Internal.Correction>
0.0038

> <Gold.Rescore>
     Score         DG    S(hbond)    S(metal)    S(lipo)     H(rot)  DE(clash)    DE(int)     intcor
     17.39     -20.52       1.89        0.00      96.39       1.00       0.05       3.08       ----

> <Gold.Chemscore.Fitness>
17.3906

> <Gold.Chemscore.DG>
-20.5217

> <Gold.Chemscore.ZeroCoef>
-5.4800

> <Gold.Chemscore.Hbond>
1.8933

> <Gold.Chemscore.Metal>
0.0000

> <Gold.Chemscore.Lipo>
96.3935

> <Gold.Chemscore.Internal_Hbond>
0.0000

> <Gold.Chemscore.DEClash>
0.0466

> <Gold.Chemscore.DEInternal>
3.0845

> <Gold.Chemscore.Rot>
1.0000

> <Gold.Chemscore.Internal.Correction>
   9.000000E+99

> <Gold.Chemscore.Hbonds>
donor molecule, donor type, donor heavy atom, donor atom, acceptor molecule, acceptor atom, score
      L1  H     8    31       P1  8028  0.28
      L1  H    11    32       P1  8028  0.89

> <Gold.Chemscore.Hbond.Weighted>
-6.3237

> <Gold.Chemscore.Metal.Weighted>
-0.0000

> <Gold.Chemscore.Lipo.Weighted>
-11.2780

> <Gold.Chemscore.Internal_Hbond.Weighted>
0.0000

> <Gold.Chemscore.DEClash.Weighted>
0.0466

> <Gold.Chemscore.DEInternal.Weighted>
3.0845

> <Gold.Chemscore.Rot.Weighted>
2.5600

> <Gold.Chemscore.Internal.Correction.Weighted>
   9.000000E+99

> <Gold.Protein.RotatedTorsions>
[ 6907 6896 6895 6894 ] final    7.80 input  -60.11 | X-H torsion
[ 7974 7965 7964 7962 ] final -152.35 input  175.53 | X-H torsion
[ 8008 7997 7996 7995 ] final   12.86 input   59.86 | X-H torsion
[ 10167 10162 10161 10158 ] final  -87.27 input  -65.29 | X-H torsion
[ 10718 10713 10712 10709 ] final  -36.82 input   66.30 | X-H torsion
[ 10763 10752 10751 10750 ] final   90.96 input  -60.55 | X-H torsion
[ 11005 11000 10999 10996 ] final -174.09 input  -57.11 | X-H torsion

> <Gold.Protein.ActiveResidues>
 VAL166  LYS551  ARG553  GLY616  TRP617  ASP618  TYR619  PRO620  LYS621  CYS622 
 ASP623  PHE694  ASN695  SER759  ASP760  ASP761  ALA762  ILE779  LEU786  VAL792 
 PHE793  MET794  SER795  GLU796  ALA797  LYS798  CYS799  TRP800  GLU811  SER814 

> <Gold.Protein.RotatedAtoms>
  151.6958  135.0939  160.0241 H   0  0  0  0  0  0  0  0  0  0  0  0  # atno 6907 bound_to 6896
  152.3751  133.6466  159.6125 H   0  0  0  0  0  0  0  0  0  0  0  0  # atno 6908 bound_to 6896
  150.7703  133.9123  159.3414 H   0  0  0  0  0  0  0  0  0  0  0  0  # atno 6909 bound_to 6896
  144.7799  140.4674  143.5846 H   0  0  0  0  0  0  0  0  0  0  0  0  # atno 7974 bound_to 7965
  154.8265  140.2892  155.5751 H   0  0  0  0  0  0  0  0  0  0  0  0  # atno 8008 bound_to 7997
  156.3002  140.2540  156.3113 H   0  0  0  0  0  0  0  0  0  0  0  0  # atno 8009 bound_to 7997
  154.9279  140.0384  157.2022 H   0  0  0  0  0  0  0  0  0  0  0  0  # atno 8010 bound_to 7997
  140.3860  143.2726  151.9324 H   0  0  0  0  0  0  0  0  0  0  0  0  # atno 10167 bound_to 10162
  156.3224  130.4267  149.7948 H   0  0  0  0  0  0  0  0  0  0  0  0  # atno 10718 bound_to 10713
  153.2031  135.4415  155.0290 H   0  0  0  0  0  0  0  0  0  0  0  0  # atno 10763 bound_to 10752
  154.8158  135.3314  154.7182 H   0  0  0  0  0  0  0  0  0  0  0  0  # atno 10764 bound_to 10752
  153.7625  135.6990  153.4978 H   0  0  0  0  0  0  0  0  0  0  0  0  # atno 10765 bound_to 10752
  140.4784  134.6098  157.4910 H   0  0  0  0  0  0  0  0  0  0  0  0  # atno 11005 bound_to 11000
  145.6079  139.1510  143.3092 LP  0  0  0  0  0  0  0  0  0  0  0  0  # atno 17320 bound_to 7965
  146.2001  140.6197  142.9106 LP  0  0  0  0  0  0  0  0  0  0  0  0  # atno 17321 bound_to 7965
  139.4792  144.5773  151.7991 LP  0  0  0  0  0  0  0  0  0  0  0  0  # atno 17342 bound_to 10162
  140.4888  144.1341  150.5946 LP  0  0  0  0  0  0  0  0  0  0  0  0  # atno 17343 bound_to 10162
  156.5251  130.8232  151.3217 LP  0  0  0  0  0  0  0  0  0  0  0  0  # atno 17370 bound_to 10713
  157.7414  130.9870  150.2446 LP  0  0  0  0  0  0  0  0  0  0  0  0  # atno 17371 bound_to 10713
  139.9841  134.7089  155.9805 LP  0  0  0  0  0  0  0  0  0  0  0  0  # atno 17394 bound_to 11000
  141.1543  133.6544  156.4111 LP  0  0  0  0  0  0  0  0  0  0  0  0  # atno 17395 bound_to 11000

$$$$
