AV-unprocessed.smi:1565|AV-procd|sdf|6299|dock4
  -GOLD-   22720 6493D 1   1.00000     0.00000
 Structure written by MMmdl.
 40 41  0  0  0  0  0  0  0  0  1 V2000
  150.4136  142.2828  157.3165 C   0  0  0  0  0  0  0  0  0  0  0  0
  151.2775  142.1334  158.5731 C   0  0  1  0  0  0  0  0  0  0  0  0
  151.9881  140.7689  158.6208 C   0  0  0  0  0  0  0  0  0  0  0  0
  152.9000  140.7108  159.7583 N   0  0  0  0  0  0  0  0  0  0  0  0
  153.3590  139.4230  160.1085 C   0  0  0  0  0  0  0  0  0  0  0  0
  154.3693  139.2711  161.0870 C   0  0  0  0  0  0  0  0  0  0  0  0
  154.8095  137.9773  161.4257 C   0  0  0  0  0  0  0  0  0  0  0  0
  154.2280  136.8630  160.7857 C   0  0  0  0  0  0  0  0  0  0  0  0
  154.6879  135.4703  161.1066 C   0  0  0  0  0  0  0  0  0  0  0  0
  154.6166  134.5739  160.2658 O   0  0  0  0  0  0  0  0  0  0  0  0
  155.2234  135.3018  162.3262 N   0  0  0  0  0  0  0  0  0  0  0  0
  155.7841  134.0531  162.8322 C   0  0  0  0  0  0  0  0  0  0  0  0
  154.8831  133.4074  163.8984 C   0  0  0  0  0  0  0  0  0  0  0  0
  155.6472  132.8316  164.8255 F   0  0  0  0  0  0  0  0  0  0  0  0
  154.1139  134.3213  164.4898 F   0  0  0  0  0  0  0  0  0  0  0  0
  154.1090  132.4744  163.3438 F   0  0  0  0  0  0  0  0  0  0  0  0
  153.2393  137.1142  159.8083 C   0  0  0  0  0  0  0  0  0  0  0  0
  152.8144  138.3524  159.4800 N   0  0  0  0  0  0  0  0  0  0  0  0
  153.8589  141.8132  159.7830 C   0  0  0  0  0  0  0  0  0  0  0  0
  153.1409  143.1732  159.6846 C   0  0  2  0  0  0  0  0  0  0  0  0
  152.4432  143.5937  160.9907 C   0  0  0  0  0  0  0  0  0  0  0  0
  152.2480  143.1797  158.5686 O   0  0  0  0  0  0  0  0  0  0  0  0
  149.6450  141.5107  157.2746 H   0  0  0  0  0  0  0  0  0  0  0  0
  151.0167  142.2052  156.4114 H   0  0  0  0  0  0  0  0  0  0  0  0
  149.9129  143.2513  157.3013 H   0  0  0  0  0  0  0  0  0  0  0  0
  150.6275  142.2379  159.4421 H   0  0  0  0  0  0  0  0  0  0  0  0
  151.2398  139.9784  158.6613 H   0  0  0  0  0  0  0  0  0  0  0  0
  152.5625  140.6126  157.7067 H   0  0  0  0  0  0  0  0  0  0  0  0
  154.8193  140.1270  161.5678 H   0  0  0  0  0  0  0  0  0  0  0  0
  155.5829  137.8510  162.1695 H   0  0  0  0  0  0  0  0  0  0  0  0
  155.2645  136.1009  162.9418 H   0  0  0  0  0  0  0  0  0  0  0  0
  155.8975  133.3723  161.9878 H   0  0  0  0  0  0  0  0  0  0  0  0
  156.7873  134.2159  163.2298 H   0  0  0  0  0  0  0  0  0  0  0  0
  152.7716  136.3055  159.2659 H   0  0  0  0  0  0  0  0  0  0  0  0
  154.4588  141.7808  160.6937 H   0  0  0  0  0  0  0  0  0  0  0  0
  154.5442  141.6998  158.9416 H   0  0  0  0  0  0  0  0  0  0  0  0
  153.8959  143.9311  159.4740 H   0  0  0  0  0  0  0  0  0  0  0  0
  153.1699  143.7136  161.7944 H   0  0  0  0  0  0  0  0  0  0  0  0
  151.7121  142.8581  161.3249 H   0  0  0  0  0  0  0  0  0  0  0  0
  151.9285  144.5466  160.8672 H   0  0  0  0  0  0  0  0  0  0  0  0
  1  2  1  0  0  0  0
  1 23  1  0  0  0  0
  1 24  1  0  0  0  0
  1 25  1  0  0  0  0
  2 22  1  0  0  0  0
  2  3  1  0  0  0  0
  2 26  1  0  0  0  0
  3  4  1  0  0  0  0
  3 27  1  0  0  0  0
  3 28  1  0  0  0  0
  4  5  1  0  0  0  0
  4 19  1  0  0  0  0
  5 18  1  0  0  0  0
  5  6  2  0  0  0  0
  6  7  1  0  0  0  0
  6 29  1  0  0  0  0
  7  8  2  0  0  0  0
  7 30  1  0  0  0  0
  8  9  1  0  0  0  0
  8 17  1  0  0  0  0
  9 10  2  0  0  0  0
  9 11  1  0  0  0  0
 11 12  1  0  0  0  0
 11 31  1  0  0  0  0
 12 13  1  0  0  0  0
 12 32  1  0  0  0  0
 12 33  1  0  0  0  0
 13 14  1  0  0  0  0
 13 15  1  0  0  0  0
 13 16  1  0  0  0  0
 17 18  2  0  0  0  0
 17 34  1  0  0  0  0
 19 20  1  0  0  0  0
 19 35  1  0  0  0  0
 19 36  1  0  0  0  0
 20 21  1  0  0  0  0
 20 22  1  0  0  0  0
 20 37  1  0  0  0  0
 21 38  1  0  0  0  0
 21 39  1  0  0  0  0
 21 40  1  0  0  0  0
M  END
> <s_m_source_file>
AV-unprocessed.smi

> <i_m_source_file_index>
1565

> <i_lp_mmshare_version>
43012

> <i_f3d_flags>
0

> <s_epik_input>
W0NIM11bQ0BASF0xW0NIMl1OKFtDSDJdW0NASF0oTzEpW0NIM10pYzJbY0hdW2NIXWMoW2NIXW4yKUMoPU8pW05IXVtDSDJdQyhGKShGKUY=

> <s_epik_cmdline>
J2VwaWtfcHl0aG9uJywgJy1waCcsICc3LjAnLCAnLXRuJywgJzgnLCAnLW1hJywgJzIwMCcsICctbWV0YWxfYmluZGluZycsICctaW1hZScsICc8aW5maWxlLm1hZT4nLCAnLW9tYWUnLCAnPG91dGZpbGUubWFlPic=

> <r_lp_tautomer_probability>
1

> <r_epik_Ionization_Penalty>
1.48031e-05

> <r_epik_Ionization_Penalty_Charging>
0

> <r_epik_Ionization_Penalty_Neutral>
1.48031e-05

> <r_epik_State_Penalty>
-0

> <r_epik_Charging_Adjusted_Penalty>
0

> <i_epik_Tot_Q>
0

> <i_epik_Tot_abs_Q>
0

> <r_epik_Metal_State_Penalty>
0.00620302

> <b_epik_Metal_Only>
0

> <s_lp_Force_Field>
OPLS_2005

> <r_lp_Energy>
19.4369

> <b_lp_Chiralities_Consistent>
1

> <s_lp_Variant>
AV-unprocessed.smi:1565-3

> <Gold.Version>
5.8.1

> <Gold.Id.Protein>
6NUR|6NUR_protein|mol2

> <Gold.PLP.Fitness>
36.4862

> <Gold.PLP.PLP>
-36.3329

> <Gold.PLP.part.hbond>
-1.0000

> <Gold.PLP.part.metal>
0.0000

> <Gold.PLP.part.buried>
-4.9993

> <Gold.PLP.part.nonpolar>
-30.5572

> <Gold.PLP.part.repulsive>
0.0403

> <Gold.PLP.ligand.clash>
0.0000

> <Gold.PLP.ligand.torsion>
1.5106

> <Gold.PLP.Chemscore.Hbond>
0.9425

> <Gold.PLP.Chemscore.CHOScore>
0.0000

> <Gold.PLP.Chemscore.Metal>
0.0000

> <Gold.Chemscore.Hbonds>
donor molecule, donor type, donor heavy atom, donor atom, acceptor molecule, acceptor atom, score
      P1  H  6896  6908       L1    10  0.84

> <Gold.PLP.Chemscore.Internal.Correction>
0.3470

> <Gold.Rescore>
     Score         DG    S(hbond)    S(metal)    S(lipo)     H(rot)  DE(clash)    DE(int)     intcor
     14.67     -16.36       0.98        0.00      93.48       1.31       0.33       1.37       ----

> <Gold.Chemscore.Fitness>
14.6659

> <Gold.Chemscore.DG>
-16.3572

> <Gold.Chemscore.ZeroCoef>
-5.4800

> <Gold.Chemscore.Hbond>
0.9824

> <Gold.Chemscore.Metal>
0.0000

> <Gold.Chemscore.Lipo>
93.4813

> <Gold.Chemscore.Internal_Hbond>
0.0000

> <Gold.Chemscore.DEClash>
0.3258

> <Gold.Chemscore.DEInternal>
1.3656

> <Gold.Chemscore.Rot>
1.3052

> <Gold.Chemscore.Internal.Correction>
   9.000000E+99

> <Gold.Chemscore.Hbonds>
donor molecule, donor type, donor heavy atom, donor atom, acceptor molecule, acceptor atom, score
      P1  H  6896  6908       L1    10  0.21

> <Gold.Chemscore.Hbond.Weighted>
-3.2814

> <Gold.Chemscore.Metal.Weighted>
-0.0000

> <Gold.Chemscore.Lipo.Weighted>
-10.9373

> <Gold.Chemscore.Internal_Hbond.Weighted>
0.0000

> <Gold.Chemscore.DEClash.Weighted>
0.3258

> <Gold.Chemscore.DEInternal.Weighted>
1.3656

> <Gold.Chemscore.Rot.Weighted>
3.3414

> <Gold.Chemscore.Internal.Correction.Weighted>
   9.000000E+99

> <Gold.Protein.RotatedTorsions>
[ 6907 6896 6895 6894 ] final  -49.86 input  -60.11 | X-H torsion
[ 7974 7965 7964 7962 ] final  -71.14 input  175.53 | X-H torsion
[ 8008 7997 7996 7995 ] final    8.32 input   59.86 | X-H torsion
[ 10167 10162 10161 10158 ] final  126.34 input  -65.29 | X-H torsion
[ 10718 10713 10712 10709 ] final -143.19 input   66.30 | X-H torsion
[ 10763 10752 10751 10750 ] final  128.49 input  -60.55 | X-H torsion
[ 11005 11000 10999 10996 ] final  111.77 input  -57.11 | X-H torsion

> <Gold.Protein.ActiveResidues>
 VAL166  LYS551  ARG553  GLY616  TRP617  ASP618  TYR619  PRO620  LYS621  CYS622 
 ASP623  PHE694  ASN695  SER759  ASP760  ASP761  ALA762  ILE779  LEU786  VAL792 
 PHE793  MET794  SER795  GLU796  ALA797  LYS798  CYS799  TRP800  GLU811  SER814 

> <Gold.Protein.RotatedAtoms>
  150.8763  134.8147  159.7192 H   0  0  0  0  0  0  0  0  0  0  0  0  # atno 6907 bound_to 6896
  152.4749  134.4866  159.9692 H   0  0  0  0  0  0  0  0  0  0  0  0  # atno 6908 bound_to 6896
  151.4947  133.3478  159.2894 H   0  0  0  0  0  0  0  0  0  0  0  0  # atno 6909 bound_to 6896
  145.6819  140.9185  143.0828 H   0  0  0  0  0  0  0  0  0  0  0  0  # atno 7974 bound_to 7965
  154.7653  140.2792  155.6181 H   0  0  0  0  0  0  0  0  0  0  0  0  # atno 8008 bound_to 7997
  156.2923  140.2652  156.2369 H   0  0  0  0  0  0  0  0  0  0  0  0  # atno 8009 bound_to 7997
  154.9967  140.0373  157.2332 H   0  0  0  0  0  0  0  0  0  0  0  0  # atno 8010 bound_to 7997
  139.5636  144.6897  151.3972 H   0  0  0  0  0  0  0  0  0  0  0  0  # atno 10167 bound_to 10162
  156.3550  130.7708  151.1867 H   0  0  0  0  0  0  0  0  0  0  0  0  # atno 10718 bound_to 10713
  153.7264  135.3245  155.3277 H   0  0  0  0  0  0  0  0  0  0  0  0  # atno 10763 bound_to 10752
  154.8340  135.4512  154.1165 H   0  0  0  0  0  0  0  0  0  0  0  0  # atno 10764 bound_to 10752
  153.2300  135.6959  153.7981 H   0  0  0  0  0  0  0  0  0  0  0  0  # atno 10765 bound_to 10752
  139.8911  134.9515  156.6483 H   0  0  0  0  0  0  0  0  0  0  0  0  # atno 11005 bound_to 11000
  144.7023  139.8708  143.7440 LP  0  0  0  0  0  0  0  0  0  0  0  0  # atno 17320 bound_to 7965
  146.0957  139.3949  143.0378 LP  0  0  0  0  0  0  0  0  0  0  0  0  # atno 17321 bound_to 7965
  140.6918  143.7843  150.7267 LP  0  0  0  0  0  0  0  0  0  0  0  0  # atno 17342 bound_to 10162
  140.1327  143.4511  152.2244 LP  0  0  0  0  0  0  0  0  0  0  0  0  # atno 17343 bound_to 10162
  157.7466  131.0416  150.4656 LP  0  0  0  0  0  0  0  0  0  0  0  0  # atno 17370 bound_to 10713
  156.4858  130.4084  149.6435 LP  0  0  0  0  0  0  0  0  0  0  0  0  # atno 17371 bound_to 10713
  140.7540  133.8873  155.8368 LP  0  0  0  0  0  0  0  0  0  0  0  0  # atno 17394 bound_to 11000
  140.9977  134.1193  157.4348 LP  0  0  0  0  0  0  0  0  0  0  0  0  # atno 17395 bound_to 11000

$$$$
