AV-unprocessed.smi:1|AV-procd|sdf|17|dock4
  -GOLD-   2262015113D 1   1.00000     0.00000
 Structure written by MMmdl.
 56 61  0  0  0  0  0  0  0  0  2 V2000
  147.7108  132.0111  158.9290 O   0  0  0  0  0  0  0  0  0  0  0  0
  148.2948  133.0928  159.0245 C   0  0  0  0  0  0  0  0  0  0  0  0
  149.3078  133.5639  158.2536 N   0  5  0  0  0  0  0  0  0  0  0  0
  149.0383  134.3935  157.2343 C   0  0  0  0  0  0  0  0  0  0  0  0
  148.0632  134.0897  156.3393 N   0  0  0  0  0  0  0  0  0  0  0  0
  147.7917  134.9209  155.3261 C   0  0  0  0  0  0  0  0  0  0  0  0
  148.3657  136.0888  155.0192 N   0  0  0  0  0  0  0  0  0  0  0  0
  149.3560  136.3967  155.9060 C   0  0  0  0  0  0  0  0  0  0  0  0
  149.7496  135.6064  157.0238 C   0  0  0  0  0  0  0  0  0  0  0  0
  150.7899  136.2140  157.7113 N   0  0  0  0  0  0  0  0  0  0  0  0
  150.9717  137.3245  156.9991 C   0  0  0  0  0  0  0  0  0  0  0  0
  150.1684  137.5155  155.9309 N   0  0  0  0  0  0  0  0  0  0  0  0
  150.1175  138.6584  154.9638 C   0  0  2  0  0  0  0  0  0  0  0  0
  150.9660  139.6696  155.4179 O   0  0  0  0  0  0  0  0  0  0  0  0
  150.2099  140.6796  156.0746 C   0  0  1  0  0  0  0  0  0  0  0  0
  150.9832  142.0012  156.0816 C   0  0  0  0  0  0  0  0  0  0  0  0
  151.3361  142.3285  157.4154 O   0  0  0  0  0  0  0  0  0  0  0  0
  152.1458  141.5113  158.1158 C   0  0  0  0  0  0  0  0  0  0  0  0
  152.6078  140.4605  157.6664 O   0  0  0  0  0  0  0  0  0  0  0  0
  152.4240  142.0090  159.4940 C   0  0  0  0  0  0  0  0  0  0  0  0
  153.2311  141.2339  160.3594 C   0  0  0  0  0  0  0  0  0  0  0  0
  153.5102  141.6753  161.6674 C   0  0  0  0  0  0  0  0  0  0  0  0
  152.9850  142.8972  162.1263 C   0  0  0  0  0  0  0  0  0  0  0  0
  152.1809  143.6776  161.2752 C   0  0  0  0  0  0  0  0  0  0  0  0
  151.9011  143.2383  159.9663 C   0  0  0  0  0  0  0  0  0  0  0  0
  148.9267  140.7321  155.2457 C   0  0  2  0  0  0  0  0  0  0  0  0
  147.8252  141.1952  156.0066 O   0  0  0  0  0  0  0  0  0  0  0  0
  147.0254  139.8796  156.6550 S   0  0  0  0  0  0  0  0  0  0  0  0
  147.3975  139.7678  158.0737 O   0  0  0  0  0  0  0  0  0  0  0  0
  145.6264  139.9243  156.2038 O   0  0  0  0  0  0  0  0  0  0  0  0
  147.8111  138.6706  155.8146 O   0  0  0  0  0  0  0  0  0  0  0  0
  148.6995  139.2592  154.8747 C   0  0  2  0  0  0  0  0  0  0  0  0
  147.9255  134.0179  160.1530 C   0  0  0  0  0  0  0  0  0  0  0  0
  148.2327  135.3945  160.0591 C   0  0  0  0  0  0  0  0  0  0  0  0
  147.9217  136.2716  161.1164 C   0  0  0  0  0  0  0  0  0  0  0  0
  147.3081  135.7794  162.2836 C   0  0  0  0  0  0  0  0  0  0  0  0
  147.0088  134.4088  162.3940 C   0  0  0  0  0  0  0  0  0  0  0  0
  147.3192  133.5310  161.3370 C   0  0  0  0  0  0  0  0  0  0  0  0
  146.9985  134.6044  154.6652 H   0  0  0  0  0  0  0  0  0  0  0  0
  151.7321  138.0382  157.2779 H   0  0  0  0  0  0  0  0  0  0  0  0
  150.4833  138.2422  154.0243 H   0  0  0  0  0  0  0  0  0  0  0  0
  149.9827  140.3619  157.0934 H   0  0  0  0  0  0  0  0  0  0  0  0
  151.8718  141.9266  155.4529 H   0  0  0  0  0  0  0  0  0  0  0  0
  150.3580  142.7982  155.6770 H   0  0  0  0  0  0  0  0  0  0  0  0
  153.6445  140.2914  160.0297 H   0  0  0  0  0  0  0  0  0  0  0  0
  154.1273  141.0747  162.3190 H   0  0  0  0  0  0  0  0  0  0  0  0
  153.1986  143.2350  163.1297 H   0  0  0  0  0  0  0  0  0  0  0  0
  151.7773  144.6157  161.6270 H   0  0  0  0  0  0  0  0  0  0  0  0
  151.2810  143.8620  159.3390 H   0  0  0  0  0  0  0  0  0  0  0  0
  149.0651  141.3339  154.3465 H   0  0  0  0  0  0  0  0  0  0  0  0
  148.3008  139.1460  153.8662 H   0  0  0  0  0  0  0  0  0  0  0  0
  148.7058  135.7876  159.1706 H   0  0  0  0  0  0  0  0  0  0  0  0
  148.1564  137.3222  161.0314 H   0  0  0  0  0  0  0  0  0  0  0  0
  147.0706  136.4516  163.0947 H   0  0  0  0  0  0  0  0  0  0  0  0
  146.5435  134.0282  163.2911 H   0  0  0  0  0  0  0  0  0  0  0  0
  147.0914  132.4804  161.4462 H   0  0  0  0  0  0  0  0  0  0  0  0
  1  2  2  0  0  0  0
  2  3  1  0  0  0  0
  2 33  1  0  0  0  0
  3  4  1  0  0  0  0
  4  9  1  0  0  0  0
  4  5  2  0  0  0  0
  5  6  1  0  0  0  0
  6  7  2  0  0  0  0
  6 39  1  0  0  0  0
  7  8  1  0  0  0  0
  8 12  1  0  0  0  0
  8  9  2  0  0  0  0
  9 10  1  0  0  0  0
 10 11  2  0  0  0  0
 11 12  1  0  0  0  0
 11 40  1  0  0  0  0
 12 13  1  0  0  0  0
 13 32  1  0  0  0  0
 13 14  1  0  0  0  0
 13 41  1  0  0  0  0
 14 15  1  0  0  0  0
 15 16  1  0  0  0  0
 15 26  1  0  0  0  0
 15 42  1  0  0  0  0
 16 17  1  0  0  0  0
 16 43  1  0  0  0  0
 16 44  1  0  0  0  0
 17 18  1  0  0  0  0
 18 19  2  0  0  0  0
 18 20  1  0  0  0  0
 20 25  1  0  0  0  0
 20 21  2  0  0  0  0
 21 22  1  0  0  0  0
 21 45  1  0  0  0  0
 22 23  2  0  0  0  0
 22 46  1  0  0  0  0
 23 24  1  0  0  0  0
 23 47  1  0  0  0  0
 24 25  2  0  0  0  0
 24 48  1  0  0  0  0
 25 49  1  0  0  0  0
 26 32  1  0  0  0  0
 26 27  1  0  0  0  0
 26 50  1  0  0  0  0
 27 28  1  0  0  0  0
 28 29  2  0  0  0  0
 28 30  2  0  0  0  0
 28 31  1  0  0  0  0
 31 32  1  0  0  0  0
 32 51  1  0  0  0  0
 33 38  1  0  0  0  0
 33 34  2  0  0  0  0
 34 35  1  0  0  0  0
 34 52  1  0  0  0  0
 35 36  2  0  0  0  0
 35 53  1  0  0  0  0
 36 37  1  0  0  0  0
 36 54  1  0  0  0  0
 37 38  2  0  0  0  0
 37 55  1  0  0  0  0
 38 56  1  0  0  0  0
M  CHG  1   3  -1
M  END
> <s_m_source_file>
AV-unprocessed.smi

> <i_m_source_file_index>
1

> <i_lp_mmshare_version>
43012

> <i_f3d_flags>
0

> <s_epik_input>
W2NIXTFbY0hdW2NIXVtjSF1bY0hdYzFDKD1PKVtOSF1jKG5bY0hdbjIpYyhjMjMpbltjSF1uM1tDQEBIXShbQ0BIXShbQ0BIXTQ1KU9TKE81KSg9Tyk9TylPW0NASF00W0NIMl1PQyg9TyljNltjSF1bY0hdW2NIXVtjSF1bY0hdNg==

> <s_epik_cmdline>
J2VwaWtfcHl0aG9uJywgJy1waCcsICc3LjAnLCAnLXRuJywgJzgnLCAnLW1hJywgJzIwMCcsICctbWV0YWxfYmluZGluZycsICctaW1hZScsICc8aW5maWxlLm1hZT4nLCAnLW9tYWUnLCAnPG91dGZpbGUubWFlPic=

> <r_lp_tautomer_probability>
1

> <r_epik_Ionization_Penalty>
4.39121

> <r_epik_Ionization_Penalty_Charging>
3.39398

> <r_epik_Ionization_Penalty_Neutral>
0.997232

> <r_epik_State_Penalty>
3.39839

> <r_epik_Charging_Adjusted_Penalty>
6.79237

> <i_epik_Tot_Q>
-1

> <i_epik_Tot_abs_Q>
1

> <r_epik_Metal_State_Penalty>
0.497663

> <b_epik_Metal_Only>
1

> <s_epik_Chemistry_Notes>
This compound has an ester and may undergo hydrolysis at high or low pH. This compound contains an acetal/aminal-like group ( X-CH(R)-Y where X, Y are N, S, or O) that may be acid/base labile, releasing an aldehyde.

> <s_lp_Force_Field>
OPLS_2005

> <r_lp_Energy>
42.9132

> <b_lp_Chiralities_Consistent>
1

> <s_lp_Variant>
AV-unprocessed.smi:1-17

> <Gold.Version>
5.8.1

> <Gold.Id.Protein>
6NUR|6NUR_protein|mol2

> <Gold.PLP.Fitness>
61.0767

> <Gold.PLP.PLP>
-55.8036

> <Gold.PLP.part.hbond>
-3.7613

> <Gold.PLP.part.metal>
0.0000

> <Gold.PLP.part.buried>
-6.7065

> <Gold.PLP.part.nonpolar>
-42.7196

> <Gold.PLP.part.repulsive>
0.3187

> <Gold.PLP.ligand.clash>
0.0000

> <Gold.PLP.ligand.torsion>
2.1859

> <Gold.PLP.Chemscore.Hbond>
3.0590

> <Gold.PLP.Chemscore.CHOScore>
0.0000

> <Gold.PLP.Chemscore.Metal>
0.0000

> <Gold.Chemscore.Hbonds>
donor molecule, donor type, donor heavy atom, donor atom, acceptor molecule, acceptor atom, score
      P1  H  6896  6907       L1     3  2.00
      P1  H  7989  7998       L1    14  0.18
      P1  H  7997  8010       L1    19  0.81

> <Gold.PLP.Chemscore.Internal.Correction>
0.4679

> <Gold.Rescore>
     Score         DG    S(hbond)    S(metal)    S(lipo)     H(rot)  DE(clash)    DE(int)     intcor
     14.46     -22.05       1.78        0.00     137.06       2.11       0.33       7.26       ----

> <Gold.Chemscore.Fitness>
14.4574

> <Gold.Chemscore.DG>
-22.0486

> <Gold.Chemscore.ZeroCoef>
-5.4800

> <Gold.Chemscore.Hbond>
1.7795

> <Gold.Chemscore.Metal>
0.0000

> <Gold.Chemscore.Lipo>
137.0578

> <Gold.Chemscore.Internal_Hbond>
0.0000

> <Gold.Chemscore.DEClash>
0.3348

> <Gold.Chemscore.DEInternal>
7.2564

> <Gold.Chemscore.Rot>
2.1136

> <Gold.Chemscore.Internal.Correction>
   9.000000E+99

> <Gold.Chemscore.Hbonds>
donor molecule, donor type, donor heavy atom, donor atom, acceptor molecule, acceptor atom, score
      P1  H  6896  6907       L1     3  0.68
      P1  H  7989  7998       L1    14  0.03
      P1  H  7997  8010       L1    19  0.78

> <Gold.Chemscore.Hbond.Weighted>
-5.9436

> <Gold.Chemscore.Metal.Weighted>
-0.0000

> <Gold.Chemscore.Lipo.Weighted>
-16.0358

> <Gold.Chemscore.Internal_Hbond.Weighted>
0.0000

> <Gold.Chemscore.DEClash.Weighted>
0.3348

> <Gold.Chemscore.DEInternal.Weighted>
7.2564

> <Gold.Chemscore.Rot.Weighted>
5.4107

> <Gold.Chemscore.Internal.Correction.Weighted>
   9.000000E+99

> <Gold.Protein.RotatedTorsions>
[ 6907 6896 6895 6894 ] final -114.03 input  -60.11 | X-H torsion
[ 7974 7965 7964 7962 ] final  -97.68 input  175.53 | X-H torsion
[ 8008 7997 7996 7995 ] final   53.74 input   59.86 | X-H torsion
[ 10167 10162 10161 10158 ] final  -98.96 input  -65.29 | X-H torsion
[ 10718 10713 10712 10709 ] final  -36.26 input   66.30 | X-H torsion
[ 10763 10752 10751 10750 ] final   39.57 input  -60.55 | X-H torsion
[ 11005 11000 10999 10996 ] final -116.47 input  -57.11 | X-H torsion

> <Gold.Protein.ActiveResidues>
 VAL166  LYS551  ARG553  GLY616  TRP617  ASP618  TYR619  PRO620  LYS621  CYS622 
 ASP623  PHE694  ASN695  SER759  ASP760  ASP761  ALA762  ILE779  LEU786  VAL792 
 PHE793  MET794  SER795  GLU796  ALA797  LYS798  CYS799  TRP800  GLU811  SER814 

> <Gold.Protein.RotatedAtoms>
  150.7872  133.8859  159.3299 H   0  0  0  0  0  0  0  0  0  0  0  0  # atno 6907 bound_to 6896
  151.6707  135.0974  160.0207 H   0  0  0  0  0  0  0  0  0  0  0  0  # atno 6908 bound_to 6896
  152.3939  133.6679  159.6295 H   0  0  0  0  0  0  0  0  0  0  0  0  # atno 6909 bound_to 6896
  145.3306  140.9440  143.2664 H   0  0  0  0  0  0  0  0  0  0  0  0  # atno 7974 bound_to 7965
  155.4733  140.3466  155.4329 H   0  0  0  0  0  0  0  0  0  0  0  0  # atno 8008 bound_to 7997
  156.1086  140.1455  156.9398 H   0  0  0  0  0  0  0  0  0  0  0  0  # atno 8009 bound_to 7997
  154.4741  140.0891  156.7197 H   0  0  0  0  0  0  0  0  0  0  0  0  # atno 8010 bound_to 7997
  140.2674  143.3366  152.0567 H   0  0  0  0  0  0  0  0  0  0  0  0  # atno 10167 bound_to 10162
  156.3289  130.4276  149.7890 H   0  0  0  0  0  0  0  0  0  0  0  0  # atno 10718 bound_to 10713
  152.9963  135.6216  154.2487 H   0  0  0  0  0  0  0  0  0  0  0  0  # atno 10763 bound_to 10752
  154.2226  135.2795  155.2921 H   0  0  0  0  0  0  0  0  0  0  0  0  # atno 10764 bound_to 10752
  154.5516  135.5731  153.6985 H   0  0  0  0  0  0  0  0  0  0  0  0  # atno 10765 bound_to 10752
  141.0419  133.9822  157.2980 H   0  0  0  0  0  0  0  0  0  0  0  0  # atno 11005 bound_to 11000
  144.8867  139.4829  143.6697 LP  0  0  0  0  0  0  0  0  0  0  0  0  # atno 17320 bound_to 7965
  146.3047  139.7540  142.9065 LP  0  0  0  0  0  0  0  0  0  0  0  0  # atno 17321 bound_to 7965
  139.4999  144.6679  151.6313 LP  0  0  0  0  0  0  0  0  0  0  0  0  # atno 17342 bound_to 10162
  140.5917  143.9768  150.6329 LP  0  0  0  0  0  0  0  0  0  0  0  0  # atno 17343 bound_to 10162
  156.5170  130.8198  151.3190 LP  0  0  0  0  0  0  0  0  0  0  0  0  # atno 17370 bound_to 10713
  157.7426  130.9895  150.2533 LP  0  0  0  0  0  0  0  0  0  0  0  0  # atno 17371 bound_to 10713
  139.9282  135.0201  156.8310 LP  0  0  0  0  0  0  0  0  0  0  0  0  # atno 17394 bound_to 11000
  140.6218  133.9987  155.7621 LP  0  0  0  0  0  0  0  0  0  0  0  0  # atno 17395 bound_to 11000

$$$$
