AV-unprocessed.smi:1608|AV-procd|sdf|6467|dock1
  -GOLD-   22720 7123D 1   1.00000     0.00000
 Structure written by MMmdl.
 42 43  0  0  0  0  0  0  0  0  1 V2000
  146.1508  131.7354  149.4403 C   0  0  0  0  0  0  0  0  0  0  0  0
  145.4676  132.7498  150.2475 N   0  0  0  0  0  0  0  0  0  0  0  0
  146.2349  133.8244  150.7380 C   0  0  0  0  0  0  0  0  0  0  0  0
  145.6986  134.8094  151.4921 C   0  0  0  0  0  0  0  0  0  0  0  0
  146.3968  135.9137  152.0036 N   0  0  0  0  0  0  0  0  0  0  0  0
  145.9236  136.9889  152.6618 C   0  0  0  0  0  0  0  0  0  0  0  0
  144.7396  137.2223  152.9043 O   0  0  0  0  0  0  0  0  0  0  0  0
  146.9216  137.8118  153.0152 N   0  0  0  0  0  0  0  0  0  0  0  0
  146.7581  139.0865  153.7076 C   0  0  2  0  0  0  0  0  0  0  0  0
  147.1616  140.2524  152.7906 C   0  0  0  0  0  0  0  0  0  0  0  0
  147.0327  141.5771  153.5502 C   0  0  0  0  0  0  0  0  0  0  0  0
  147.8599  141.5602  154.8475 C   0  0  0  0  0  0  0  0  0  0  0  0
  147.5297  140.3931  155.6910 N   0  0  0  0  0  0  0  0  0  0  0  0
  146.4888  140.5838  157.0731 S   0  0  0  0  0  0  0  0  0  0  0  0
  146.8893  142.2615  157.7133 C   0  0  0  0  0  0  0  0  0  0  0  0
  145.0993  140.5976  156.5903 O   0  0  0  0  0  0  0  0  0  0  0  0
  146.8989  139.5970  158.0841 O   0  0  0  0  0  0  0  0  0  0  0  0
  147.6023  139.0911  154.9975 C   0  0  0  0  0  0  0  0  0  0  0  0
  144.2805  134.7217  151.7695 C   0  0  0  0  0  0  0  0  0  0  0  0
  143.5388  133.6993  151.3012 C   0  0  0  0  0  0  0  0  0  0  0  0
  144.1297  132.6335  150.4886 C   0  0  0  0  0  0  0  0  0  0  0  0
  143.4636  131.6950  150.0505 O   0  0  0  0  0  0  0  0  0  0  0  0
  147.2276  131.8969  149.3791 H   0  0  0  0  0  0  0  0  0  0  0  0
  145.7617  131.7358  148.4211 H   0  0  0  0  0  0  0  0  0  0  0  0
  145.9992  130.7403  149.8615 H   0  0  0  0  0  0  0  0  0  0  0  0
  147.2709  133.7835  150.4421 H   0  0  0  0  0  0  0  0  0  0  0  0
  147.3927  135.8945  151.8400 H   0  0  0  0  0  0  0  0  0  0  0  0
  147.8651  137.5444  152.7753 H   0  0  0  0  0  0  0  0  0  0  0  0
  145.7102  139.2057  153.9825 H   0  0  0  0  0  0  0  0  0  0  0  0
  148.1892  140.1229  152.4477 H   0  0  0  0  0  0  0  0  0  0  0  0
  146.5331  140.2739  151.8997 H   0  0  0  0  0  0  0  0  0  0  0  0
  147.3619  142.3999  152.9149 H   0  0  0  0  0  0  0  0  0  0  0  0
  145.9844  141.7688  153.7757 H   0  0  0  0  0  0  0  0  0  0  0  0
  148.9214  141.5156  154.6013 H   0  0  0  0  0  0  0  0  0  0  0  0
  147.7133  142.4858  155.4032 H   0  0  0  0  0  0  0  0  0  0  0  0
  146.2921  142.4538  158.6043 H   0  0  0  0  0  0  0  0  0  0  0  0
  146.6501  143.0130  156.9630 H   0  0  0  0  0  0  0  0  0  0  0  0
  147.9440  142.3180  157.9762 H   0  0  0  0  0  0  0  0  0  0  0  0
  147.2815  138.2918  155.6655 H   0  0  0  0  0  0  0  0  0  0  0  0
  148.6473  138.8903  154.7579 H   0  0  0  0  0  0  0  0  0  0  0  0
  143.8039  135.4860  152.3662 H   0  0  0  0  0  0  0  0  0  0  0  0
  142.4836  133.6626  151.5293 H   0  0  0  0  0  0  0  0  0  0  0  0
  1  2  1  0  0  0  0
  1 23  1  0  0  0  0
  1 24  1  0  0  0  0
  1 25  1  0  0  0  0
  2 21  1  0  0  0  0
  2  3  1  0  0  0  0
  3  4  2  0  0  0  0
  3 26  1  0  0  0  0
  4  5  1  0  0  0  0
  4 19  1  0  0  0  0
  5  6  1  0  0  0  0
  5 27  1  0  0  0  0
  6  7  2  0  0  0  0
  6  8  1  0  0  0  0
  8  9  1  0  0  0  0
  8 28  1  0  0  0  0
  9 18  1  0  0  0  0
  9 10  1  0  0  0  0
  9 29  1  0  0  0  0
 10 11  1  0  0  0  0
 10 30  1  0  0  0  0
 10 31  1  0  0  0  0
 11 12  1  0  0  0  0
 11 32  1  0  0  0  0
 11 33  1  0  0  0  0
 12 13  1  0  0  0  0
 12 34  1  0  0  0  0
 12 35  1  0  0  0  0
 13 14  1  0  0  0  0
 13 18  1  0  0  0  0
 14 15  1  0  0  0  0
 14 16  2  0  0  0  0
 14 17  2  0  0  0  0
 15 36  1  0  0  0  0
 15 37  1  0  0  0  0
 15 38  1  0  0  0  0
 18 39  1  0  0  0  0
 18 40  1  0  0  0  0
 19 20  2  0  0  0  0
 19 41  1  0  0  0  0
 20 21  1  0  0  0  0
 20 42  1  0  0  0  0
 21 22  2  0  0  0  0
M  END
> <s_m_source_file>
AV-unprocessed.smi

> <i_m_source_file_index>
1608

> <i_lp_mmshare_version>
43012

> <i_f3d_flags>
0

> <s_epik_input>
Tz1jMVtjSF1bY0hdYyhbY0hdbjFbQ0gzXSlbTkhdQyg9TylbTkhdW0NAQEhdMltDSDJdW0NIMl1bQ0gyXU4oW0NIMl0yKVMoPU8pKD1PKVtDSDNd

> <s_epik_cmdline>
J2VwaWtfcHl0aG9uJywgJy1waCcsICc3LjAnLCAnLXRuJywgJzgnLCAnLW1hJywgJzIwMCcsICctbWV0YWxfYmluZGluZycsICctaW1hZScsICc8aW5maWxlLm1hZT4nLCAnLW9tYWUnLCAnPG91dGZpbGUubWFlPic=

> <r_lp_tautomer_probability>
1

> <r_epik_Ionization_Penalty>
2.44111e-05

> <r_epik_Ionization_Penalty_Charging>
5.7429e-06

> <r_epik_Ionization_Penalty_Neutral>
1.86682e-05

> <r_epik_State_Penalty>
-0

> <r_epik_Charging_Adjusted_Penalty>
5.7429e-06

> <i_epik_Tot_Q>
0

> <i_epik_Tot_abs_Q>
0

> <r_epik_Metal_State_Penalty>
-0

> <b_epik_Metal_Only>
0

> <s_lp_Force_Field>
OPLS_2005

> <r_lp_Energy>
12.0986

> <b_lp_Chiralities_Consistent>
1

> <s_lp_Variant>
AV-unprocessed.smi:1608-1

> <Gold.Version>
5.8.1

> <Gold.Id.Protein>
6NUR|6NUR_protein|mol2

> <Gold.PLP.Fitness>
40.6432

> <Gold.PLP.PLP>
-32.5213

> <Gold.PLP.part.hbond>
-4.0000

> <Gold.PLP.part.metal>
0.0000

> <Gold.PLP.part.buried>
-3.6358

> <Gold.PLP.part.nonpolar>
-26.0350

> <Gold.PLP.part.repulsive>
1.2471

> <Gold.PLP.ligand.clash>
0.0000

> <Gold.PLP.ligand.torsion>
1.2386

> <Gold.PLP.Chemscore.Hbond>
2.8470

> <Gold.PLP.Chemscore.CHOScore>
0.0000

> <Gold.PLP.Chemscore.Metal>
0.0000

> <Gold.Chemscore.Hbonds>
donor molecule, donor type, donor heavy atom, donor atom, acceptor molecule, acceptor atom, score
      L1  H     5    27       P1  7948  1.00
      L1  H     8    28       P1  7948  0.91
      P1  H 10785 10796       L1    22  0.96

> <Gold.PLP.Chemscore.Internal.Correction>
2.0583

> <Gold.Rescore>
     Score         DG    S(hbond)    S(metal)    S(lipo)     H(rot)  DE(clash)    DE(int)     intcor
     16.72     -20.05       2.85        0.00      65.11       1.00       0.66       2.66       ----

> <Gold.Chemscore.Fitness>
16.7243

> <Gold.Chemscore.DG>
-20.0464

> <Gold.Chemscore.ZeroCoef>
-5.4800

> <Gold.Chemscore.Hbond>
2.8468

> <Gold.Chemscore.Metal>
0.0000

> <Gold.Chemscore.Lipo>
65.1125

> <Gold.Chemscore.Internal_Hbond>
0.0000

> <Gold.Chemscore.DEClash>
0.6575

> <Gold.Chemscore.DEInternal>
2.6646

> <Gold.Chemscore.Rot>
1.0000

> <Gold.Chemscore.Internal.Correction>
   9.000000E+99

> <Gold.Chemscore.Hbonds>
donor molecule, donor type, donor heavy atom, donor atom, acceptor molecule, acceptor atom, score
      L1  H     5    27       P1  7948  0.97
      L1  H     8    28       P1  7948  0.88
      P1  H 10785 10796       L1    22  0.86

> <Gold.Chemscore.Hbond.Weighted>
-9.5083

> <Gold.Chemscore.Metal.Weighted>
-0.0000

> <Gold.Chemscore.Lipo.Weighted>
-7.6182

> <Gold.Chemscore.Internal_Hbond.Weighted>
0.0000

> <Gold.Chemscore.DEClash.Weighted>
0.6575

> <Gold.Chemscore.DEInternal.Weighted>
2.6646

> <Gold.Chemscore.Rot.Weighted>
2.5600

> <Gold.Chemscore.Internal.Correction.Weighted>
   9.000000E+99

> <Gold.Protein.RotatedTorsions>
[ 6907 6896 6895 6894 ] final  -73.04 input  -60.11 | X-H torsion
[ 7974 7965 7964 7962 ] final   37.18 input  175.53 | X-H torsion
[ 8008 7997 7996 7995 ] final  -51.28 input   59.86 | X-H torsion
[ 10167 10162 10161 10158 ] final  123.27 input  -65.29 | X-H torsion
[ 10718 10713 10712 10709 ] final -175.89 input   66.30 | X-H torsion
[ 10763 10752 10751 10750 ] final  -11.60 input  -60.55 | X-H torsion
[ 11005 11000 10999 10996 ] final  164.38 input  -57.11 | X-H torsion

> <Gold.Protein.ActiveResidues>
 VAL166  LYS551  ARG553  GLY616  TRP617  ASP618  TYR619  PRO620  LYS621  CYS622 
 ASP623  PHE694  ASN695  SER759  ASP760  ASP761  ALA762  ILE779  LEU786  VAL792 
 PHE793  MET794  SER795  GLU796  ALA797  LYS798  CYS799  TRP800  GLU811  SER814 

> <Gold.Protein.RotatedAtoms>
  150.7146  134.5075  159.5590 H   0  0  0  0  0  0  0  0  0  0  0  0  # atno 6907 bound_to 6896
  152.2659  134.7982  160.0432 H   0  0  0  0  0  0  0  0  0  0  0  0  # atno 6908 bound_to 6896
  151.8679  133.3434  159.3762 H   0  0  0  0  0  0  0  0  0  0  0  0  # atno 6909 bound_to 6896
  146.1156  139.5926  142.9323 H   0  0  0  0  0  0  0  0  0  0  0  0  # atno 7974 bound_to 7965
  154.4079  140.1252  156.4803 H   0  0  0  0  0  0  0  0  0  0  0  0  # atno 8008 bound_to 7997
  155.7091  140.3494  155.4946 H   0  0  0  0  0  0  0  0  0  0  0  0  # atno 8009 bound_to 7997
  155.9316  140.1071  157.1117 H   0  0  0  0  0  0  0  0  0  0  0  0  # atno 8010 bound_to 7997
  139.5809  144.6986  151.3530 H   0  0  0  0  0  0  0  0  0  0  0  0  # atno 10167 bound_to 10162
  156.8065  130.9571  151.3117 H   0  0  0  0  0  0  0  0  0  0  0  0  # atno 10718 bound_to 10713
  153.4862  135.7017  153.5910 H   0  0  0  0  0  0  0  0  0  0  0  0  # atno 10763 bound_to 10752
  153.4102  135.3850  155.2045 H   0  0  0  0  0  0  0  0  0  0  0  0  # atno 10764 bound_to 10752
  154.8719  135.3902  154.4317 H   0  0  0  0  0  0  0  0  0  0  0  0  # atno 10765 bound_to 10752
  140.2453  134.8019  157.3450 H   0  0  0  0  0  0  0  0  0  0  0  0  # atno 11005 bound_to 11000
  145.5572  141.0408  143.2246 LP  0  0  0  0  0  0  0  0  0  0  0  0  # atno 17320 bound_to 7965
  144.7550  139.7096  143.7257 LP  0  0  0  0  0  0  0  0  0  0  0  0  # atno 17321 bound_to 7965
  140.7088  143.7446  150.7529 LP  0  0  0  0  0  0  0  0  0  0  0  0  # atno 17342 bound_to 10162
  140.0978  143.4816  152.2442 LP  0  0  0  0  0  0  0  0  0  0  0  0  # atno 17343 bound_to 10162
  157.6527  130.8898  149.9666 LP  0  0  0  0  0  0  0  0  0  0  0  0  # atno 17370 bound_to 10713
  156.1070  130.3652  150.0117 LP  0  0  0  0  0  0  0  0  0  0  0  0  # atno 17371 bound_to 10713
  140.1612  134.4727  155.7894 LP  0  0  0  0  0  0  0  0  0  0  0  0  # atno 17394 bound_to 11000
  141.2207  133.6902  156.7547 LP  0  0  0  0  0  0  0  0  0  0  0  0  # atno 17395 bound_to 11000

$$$$
