AV-unprocessed.smi:283|AV-procd|sdf|2145|dock8
  -GOLD-   2262021473D 1   1.00000     0.00000
 Structure written by MMmdl.
 48 51  0  0  0  0  0  0  0  0  1 V2000
  154.0128  140.8466  159.3422 C   0  0  0  0  0  0  0  0  0  0  0  0
  152.5034  141.1149  159.2753 C   0  0  2  0  0  0  0  0  0  0  0  0
  151.9629  140.6099  158.0143 N   0  0  0  0  0  0  0  0  0  0  0  0
  152.1678  139.3282  157.6369 C   0  0  0  0  0  0  0  0  0  0  0  0
  153.4208  138.8525  157.4135 N   0  0  0  0  0  0  0  0  0  0  0  0
  153.5966  137.5814  157.0418 C   0  0  0  0  0  0  0  0  0  0  0  0
  152.6750  136.6377  156.8365 N   0  0  0  0  0  0  0  0  0  0  0  0
  151.4137  137.1115  157.0564 C   0  0  0  0  0  0  0  0  0  0  0  0
  151.0804  138.4364  157.4531 C   0  0  0  0  0  0  0  0  0  0  0  0
  149.7027  138.5591  157.5779 N   0  0  0  0  0  0  0  0  0  0  0  0
  149.2512  137.3729  157.2702 C   0  0  0  0  0  0  0  0  0  0  0  0
  150.2112  136.4421  156.9412 N   0  0  0  0  0  0  0  0  0  0  0  0
  149.9958  135.0141  156.5476 C   0  0  2  0  0  0  0  0  0  0  0  0
  151.0358  134.2418  157.0436 O   0  0  0  0  0  0  0  0  0  0  0  0
  151.0850  133.0253  156.3100 C   0  0  1  0  0  0  0  0  0  0  0  0
  150.2801  131.9711  157.1016 C   0  0  0  0  0  0  0  0  0  0  0  0
  148.8961  132.2473  157.0494 O   0  0  0  0  0  0  0  0  0  0  0  0
  150.5733  133.3897  154.8923 C   0  0  1  0  0  0  0  0  0  0  0  0
  149.5951  132.4884  154.4075 O   0  0  0  0  0  0  0  0  0  0  0  0
  149.9709  134.7897  155.0291 C   0  0  2  0  0  0  0  0  0  0  0  0
  150.7261  135.7411  154.3013 O   0  0  0  0  0  0  0  0  0  0  0  0
  152.2104  142.5936  159.5391 C   0  0  0  0  0  0  0  0  0  0  0  0
  151.6886  143.4017  158.5021 C   0  0  0  0  0  0  0  0  0  0  0  0
  151.4125  144.7639  158.7228 C   0  0  0  0  0  0  0  0  0  0  0  0
  151.6625  145.3360  159.9830 C   0  0  0  0  0  0  0  0  0  0  0  0
  152.1918  144.5445  161.0189 C   0  0  0  0  0  0  0  0  0  0  0  0
  152.4691  143.1794  160.8039 C   0  0  0  0  0  0  0  0  0  0  0  0
  153.1288  142.2585  162.1101 Cl  0  0  0  0  0  0  0  0  0  0  0  0
  149.0619  134.7230  157.0312 H   0  0  0  0  0  0  0  0  0  0  0  0
  152.1293  132.7131  156.2660 H   0  0  0  0  0  0  0  0  0  0  0  0
  151.4056  133.3954  154.1867 H   0  0  0  0  0  0  0  0  0  0  0  0
  148.9366  134.8444  154.6862 H   0  0  0  0  0  0  0  0  0  0  0  0
  154.4190  141.1389  160.3109 H   0  0  0  0  0  0  0  0  0  0  0  0
  154.5505  141.4037  158.5741 H   0  0  0  0  0  0  0  0  0  0  0  0
  154.2310  139.7876  159.2014 H   0  0  0  0  0  0  0  0  0  0  0  0
  152.0375  140.5189  160.0592 H   0  0  0  0  0  0  0  0  0  0  0  0
  151.2937  141.2111  157.5554 H   0  0  0  0  0  0  0  0  0  0  0  0
  154.6210  137.2774  156.8852 H   0  0  0  0  0  0  0  0  0  0  0  0
  148.1958  137.1426  157.2728 H   0  0  0  0  0  0  0  0  0  0  0  0
  150.4294  130.9874  156.6557 H   0  0  0  0  0  0  0  0  0  0  0  0
  150.6119  131.9002  158.1379 H   0  0  0  0  0  0  0  0  0  0  0  0
  148.5321  131.8189  156.2904 H   0  0  0  0  0  0  0  0  0  0  0  0
  148.8204  132.5720  154.9418 H   0  0  0  0  0  0  0  0  0  0  0  0
  150.1889  136.0747  153.5991 H   0  0  0  0  0  0  0  0  0  0  0  0
  151.4946  142.9792  157.5272 H   0  0  0  0  0  0  0  0  0  0  0  0
  151.0099  145.3692  157.9241 H   0  0  0  0  0  0  0  0  0  0  0  0
  151.4516  146.3812  160.1546 H   0  0  0  0  0  0  0  0  0  0  0  0
  152.3874  144.9888  161.9838 H   0  0  0  0  0  0  0  0  0  0  0  0
  1  2  1  0  0  0  0
  1 33  1  0  0  0  0
  1 34  1  0  0  0  0
  1 35  1  0  0  0  0
  2  3  1  0  0  0  0
  2 22  1  0  0  0  0
  2 36  1  0  0  0  0
  3  4  1  0  0  0  0
  3 37  1  0  0  0  0
  4  9  1  0  0  0  0
  4  5  2  0  0  0  0
  5  6  1  0  0  0  0
  6  7  2  0  0  0  0
  6 38  1  0  0  0  0
  7  8  1  0  0  0  0
  8 12  1  0  0  0  0
  8  9  2  0  0  0  0
  9 10  1  0  0  0  0
 10 11  2  0  0  0  0
 11 12  1  0  0  0  0
 11 39  1  0  0  0  0
 12 13  1  0  0  0  0
 13 29  1  0  0  0  0
 13 20  1  0  0  0  0
 13 14  1  0  0  0  0
 14 15  1  0  0  0  0
 15 30  1  0  0  0  0
 15 16  1  0  0  0  0
 15 18  1  0  0  0  0
 16 17  1  0  0  0  0
 16 40  1  0  0  0  0
 16 41  1  0  0  0  0
 17 42  1  0  0  0  0
 18 31  1  0  0  0  0
 18 19  1  0  0  0  0
 18 20  1  0  0  0  0
 19 43  1  0  0  0  0
 20 32  1  0  0  0  0
 20 21  1  0  0  0  0
 21 44  1  0  0  0  0
 22 27  1  0  0  0  0
 22 23  2  0  0  0  0
 23 24  1  0  0  0  0
 23 45  1  0  0  0  0
 24 25  2  0  0  0  0
 24 46  1  0  0  0  0
 25 26  1  0  0  0  0
 25 47  1  0  0  0  0
 26 27  2  0  0  0  0
 26 48  1  0  0  0  0
 27 28  1  0  0  0  0
M  END
> <s_m_source_file>
AV-unprocessed.smi

> <i_m_source_file_index>
283

> <i_lp_mmshare_version>
43012

> <i_f3d_flags>
0

> <s_epik_input>
Q2xjMVtjSF1bY0hdW2NIXVtjSF1jMVtDQEhdKFtDSDNdKVtOSF1jKG5bY0hdbjIpYyhjMjMpbltjSF1uM1tDQEBIXTRPW0NASF0oW0NIMl1bT0hdKVtDQEBIXShbT0hdKVtDQEhdNFtPSF0=

> <s_epik_cmdline>
J2VwaWtfcHl0aG9uJywgJy1waCcsICc3LjAnLCAnLXRuJywgJzgnLCAnLW1hJywgJzIwMCcsICctbWV0YWxfYmluZGluZycsICctaW1hZScsICc8aW5maWxlLm1hZT4nLCAnLW9tYWUnLCAnPG91dGZpbGUubWFlPic=

> <r_lp_tautomer_probability>
1

> <r_epik_Ionization_Penalty>
0.000266407

> <r_epik_Ionization_Penalty_Charging>
0

> <r_epik_Ionization_Penalty_Neutral>
0.000266407

> <r_epik_State_Penalty>
-0

> <r_epik_Charging_Adjusted_Penalty>
0

> <i_epik_Tot_Q>
0

> <i_epik_Tot_abs_Q>
0

> <r_epik_Metal_State_Penalty>
-0

> <b_epik_Metal_Only>
0

> <s_epik_Chemistry_Notes>
This compound contains an acetal/aminal-like group ( X-CH(R)-Y where X, Y are N, S, or O) that may be acid/base labile, releasing an aldehyde.

> <s_lp_Force_Field>
OPLS_2005

> <r_lp_Energy>
49.3255

> <b_lp_Chiralities_Consistent>
1

> <s_lp_Variant>
AV-unprocessed.smi:283-21

> <Gold.Version>
5.8.1

> <Gold.Id.Protein>
6NUR|6NUR_protein|mol2

> <Gold.PLP.Fitness>
50.9026

> <Gold.PLP.PLP>
-46.1942

> <Gold.PLP.part.hbond>
-4.2189

> <Gold.PLP.part.metal>
0.0000

> <Gold.PLP.part.buried>
-7.4390

> <Gold.PLP.part.nonpolar>
-34.8207

> <Gold.PLP.part.repulsive>
0.0897

> <Gold.PLP.ligand.clash>
0.0000

> <Gold.PLP.ligand.torsion>
1.5136

> <Gold.PLP.Chemscore.Hbond>
2.5623

> <Gold.PLP.Chemscore.CHOScore>
0.0000

> <Gold.PLP.Chemscore.Metal>
0.0000

> <Gold.Chemscore.Hbonds>
donor molecule, donor type, donor heavy atom, donor atom, acceptor molecule, acceptor atom, score
      L1  H    21    44       P1  7948  0.39
      P1  H  6896  6907       L1    14  0.18
      P1  H  7997  8009       L1     5  1.00
      P1  H 10752 10765       L1     7  0.78

> <Gold.PLP.Chemscore.Internal.Correction>
0.0485

> <Gold.Rescore>
     Score         DG    S(hbond)    S(metal)    S(lipo)     H(rot)  DE(clash)    DE(int)     intcor
      9.42     -14.36       1.62        0.00     119.44       4.10       0.09       4.85       ----

> <Gold.Chemscore.Fitness>
9.4214

> <Gold.Chemscore.DG>
-14.3617

> <Gold.Chemscore.ZeroCoef>
-5.4800

> <Gold.Chemscore.Hbond>
1.6154

> <Gold.Chemscore.Metal>
0.0000

> <Gold.Chemscore.Lipo>
119.4374

> <Gold.Chemscore.Internal_Hbond>
0.0000

> <Gold.Chemscore.DEClash>
0.0882

> <Gold.Chemscore.DEInternal>
4.8521

> <Gold.Chemscore.Rot>
4.0968

> <Gold.Chemscore.Internal.Correction>
   9.000000E+99

> <Gold.Chemscore.Hbonds>
donor molecule, donor type, donor heavy atom, donor atom, acceptor molecule, acceptor atom, score
      L1  H    21    44       P1  7948  0.01
      P1  H  6896  6907       L1    14  0.12
      P1  H  7997  8009       L1     5  0.79
      P1  H 10752 10765       L1     7  0.49

> <Gold.Chemscore.Hbond.Weighted>
-5.3954

> <Gold.Chemscore.Metal.Weighted>
-0.0000

> <Gold.Chemscore.Lipo.Weighted>
-13.9742

> <Gold.Chemscore.Internal_Hbond.Weighted>
0.0000

> <Gold.Chemscore.DEClash.Weighted>
0.0882

> <Gold.Chemscore.DEInternal.Weighted>
4.8521

> <Gold.Chemscore.Rot.Weighted>
10.4879

> <Gold.Chemscore.Internal.Correction.Weighted>
   9.000000E+99

> <Gold.Protein.RotatedTorsions>
[ 6907 6896 6895 6894 ] final -114.37 input  -60.11 | X-H torsion
[ 7974 7965 7964 7962 ] final  -37.86 input  175.53 | X-H torsion
[ 8008 7997 7996 7995 ] final  169.86 input   59.86 | X-H torsion
[ 10167 10162 10161 10158 ] final  130.84 input  -65.29 | X-H torsion
[ 10718 10713 10712 10709 ] final   22.41 input   66.30 | X-H torsion
[ 10763 10752 10751 10750 ] final -137.22 input  -60.55 | X-H torsion
[ 11005 11000 10999 10996 ] final  158.63 input  -57.11 | X-H torsion

> <Gold.Protein.ActiveResidues>
 VAL166  LYS551  ARG553  GLY616  TRP617  ASP618  TYR619  PRO620  LYS621  CYS622 
 ASP623  PHE694  ASN695  SER759  ASP760  ASP761  ALA762  ILE779  LEU786  VAL792 
 PHE793  MET794  SER795  GLU796  ALA797  LYS798  CYS799  TRP800  GLU811  SER814 

> <Gold.Protein.RotatedAtoms>
  150.7897  133.8810  159.3285 H   0  0  0  0  0  0  0  0  0  0  0  0  # atno 6907 bound_to 6896
  151.6651  135.0982  160.0196 H   0  0  0  0  0  0  0  0  0  0  0  0  # atno 6908 bound_to 6896
  152.3969  133.6721  159.6319 H   0  0  0  0  0  0  0  0  0  0  0  0  # atno 6909 bound_to 6896
  146.0538  140.6444  142.9029 H   0  0  0  0  0  0  0  0  0  0  0  0  # atno 7974 bound_to 7965
  156.1419  140.1553  156.8907 H   0  0  0  0  0  0  0  0  0  0  0  0  # atno 8008 bound_to 7997
  154.4995  140.0829  156.7805 H   0  0  0  0  0  0  0  0  0  0  0  0  # atno 8009 bound_to 7997
  155.4062  140.3417  155.4262 H   0  0  0  0  0  0  0  0  0  0  0  0  # atno 8010 bound_to 7997
  139.5411  144.6731  151.4621 H   0  0  0  0  0  0  0  0  0  0  0  0  # atno 10167 bound_to 10162
  157.1520  130.6678  149.6015 H   0  0  0  0  0  0  0  0  0  0  0  0  # atno 10718 bound_to 10713
  154.8667  135.3649  154.5187 H   0  0  0  0  0  0  0  0  0  0  0  0  # atno 10763 bound_to 10752
  153.5818  135.7018  153.5465 H   0  0  0  0  0  0  0  0  0  0  0  0  # atno 10764 bound_to 10752
  153.3450  135.4087  155.1564 H   0  0  0  0  0  0  0  0  0  0  0  0  # atno 10765 bound_to 10752
  140.1884  134.8425  157.2883 H   0  0  0  0  0  0  0  0  0  0  0  0  # atno 11005 bound_to 11000
  144.7137  140.4132  143.7061 LP  0  0  0  0  0  0  0  0  0  0  0  0  # atno 17320 bound_to 7965
  145.6679  139.1593  143.2771 LP  0  0  0  0  0  0  0  0  0  0  0  0  # atno 17321 bound_to 7965
  140.6641  143.8435  150.6922 LP  0  0  0  0  0  0  0  0  0  0  0  0  # atno 17342 bound_to 10162
  140.1839  143.4092  152.1913 LP  0  0  0  0  0  0  0  0  0  0  0  0  # atno 17343 bound_to 10162
  155.9769  130.4741  150.6557 LP  0  0  0  0  0  0  0  0  0  0  0  0  # atno 17370 bound_to 10713
  157.4212  131.0837  151.1129 LP  0  0  0  0  0  0  0  0  0  0  0  0  # atno 17371 bound_to 10713
  140.2188  134.4049  155.7576 LP  0  0  0  0  0  0  0  0  0  0  0  0  # atno 17394 bound_to 11000
  141.2225  133.7155  156.8457 LP  0  0  0  0  0  0  0  0  0  0  0  0  # atno 17395 bound_to 11000

$$$$
