AV-unprocessed.smi:1047|AV-procd|sdf|4562|dock7
  -GOLD-   22720 3 03D 1   1.00000     0.00000
 Structure written by MMmdl.
 57 59  0  0  0  0  0  0  0  0  3 V2000
  147.1597  142.1075  157.3709 C   0  0  0  0  0  0  0  0  0  0  0  0
  148.5685  141.5124  157.2407 C   0  0  0  0  0  0  0  0  0  0  0  0
  149.3022  142.0486  156.0639 N   0  3  1  0  0  0  0  0  0  0  0  0
  150.7796  141.9211  156.1415 C   0  0  0  0  0  0  0  0  0  0  0  0
  151.2393  140.4874  155.8157 C   0  0  0  0  0  0  0  0  0  0  0  0
  150.7306  140.0961  154.5458 O   0  0  0  0  0  0  0  0  0  0  0  0
  149.3069  140.0919  154.5005 C   0  0  2  0  0  0  0  0  0  0  0  0
  148.8805  139.5909  153.1119 C   0  0  0  0  0  0  0  0  0  0  0  0
  147.9032  138.4877  153.2099 N   0  3  0  0  0  0  0  0  0  0  0  0
  146.5753  138.8118  152.6500 C   0  0  0  0  0  0  0  0  0  0  0  0
  145.7502  137.5417  152.3853 C   0  0  2  0  0  0  0  0  0  0  0  0
  145.3047  137.0246  153.6249 O   0  0  0  0  0  0  0  0  0  0  0  0
  146.5749  136.4669  151.6503 C   0  0  0  0  0  0  0  0  0  0  0  0
  145.7714  135.3257  151.2500 N   0  0  0  0  0  0  0  0  0  0  0  0
  144.6755  135.3365  150.4663 C   0  0  0  0  0  0  0  0  0  0  0  0
  144.0912  134.1676  150.2213 N   0  0  0  0  0  0  0  0  0  0  0  0
  144.8966  133.2976  150.9357 C   0  0  0  0  0  0  0  0  0  0  0  0
  144.8176  131.8969  151.0950 C   0  0  0  0  0  0  0  0  0  0  0  0
  145.7607  131.2035  151.8865 C   0  0  0  0  0  0  0  0  0  0  0  0
  145.6361  129.6969  152.0324 C   0  0  0  0  0  0  0  0  0  0  0  0
  146.8039  131.9129  152.5340 C   0  0  0  0  0  0  0  0  0  0  0  0
  147.8226  131.1889  153.3964 C   0  0  0  0  0  0  0  0  0  0  0  0
  146.9004  133.3120  152.3816 C   0  0  0  0  0  0  0  0  0  0  0  0
  145.9554  133.9907  151.5922 C   0  0  0  0  0  0  0  0  0  0  0  0
  148.8057  141.5285  154.7656 C   0  0  0  0  0  0  0  0  0  0  0  0
  146.6156  141.6285  158.1853 H   0  0  0  0  0  0  0  0  0  0  0  0
  146.5830  141.9582  156.4577 H   0  0  0  0  0  0  0  0  0  0  0  0
  147.1830  143.1757  157.5841 H   0  0  0  0  0  0  0  0  0  0  0  0
  149.1343  141.6696  158.1590 H   0  0  0  0  0  0  0  0  0  0  0  0
  148.4595  140.4328  157.1301 H   0  0  0  0  0  0  0  0  0  0  0  0
  151.2162  142.6082  155.4154 H   0  0  0  0  0  0  0  0  0  0  0  0
  151.1546  142.2338  157.1153 H   0  0  0  0  0  0  0  0  0  0  0  0
  152.3282  140.4448  155.7839 H   0  0  0  0  0  0  0  0  0  0  0  0
  150.9215  139.7809  156.5832 H   0  0  0  0  0  0  0  0  0  0  0  0
  148.9142  139.4140  155.2608 H   0  0  0  0  0  0  0  0  0  0  0  0
  148.4257  140.4050  152.5462 H   0  0  0  0  0  0  0  0  0  0  0  0
  149.7547  139.2590  152.5498 H   0  0  0  0  0  0  0  0  0  0  0  0
  148.2657  137.6922  152.7027 H   0  0  0  0  0  0  0  0  0  0  0  0
  146.0483  139.4531  153.3580 H   0  0  0  0  0  0  0  0  0  0  0  0
  146.6949  139.3838  151.7283 H   0  0  0  0  0  0  0  0  0  0  0  0
  144.8751  137.7935  151.7843 H   0  0  0  0  0  0  0  0  0  0  0  0
  145.3684  137.7083  154.2754 H   0  0  0  0  0  0  0  0  0  0  0  0
  147.0348  136.8890  150.7559 H   0  0  0  0  0  0  0  0  0  0  0  0
  147.3916  136.1130  152.2818 H   0  0  0  0  0  0  0  0  0  0  0  0
  144.2882  136.2540  150.0477 H   0  0  0  0  0  0  0  0  0  0  0  0
  144.0210  131.3577  150.6038 H   0  0  0  0  0  0  0  0  0  0  0  0
  145.4485  129.4284  153.0723 H   0  0  0  0  0  0  0  0  0  0  0  0
  146.5512  129.2025  151.7057 H   0  0  0  0  0  0  0  0  0  0  0  0
  144.8146  129.3055  151.4319 H   0  0  0  0  0  0  0  0  0  0  0  0
  148.5341  131.8849  153.8416 H   0  0  0  0  0  0  0  0  0  0  0  0
  148.3850  130.4691  152.8015 H   0  0  0  0  0  0  0  0  0  0  0  0
  147.3258  130.6555  154.2074 H   0  0  0  0  0  0  0  0  0  0  0  0
  147.6904  133.8643  152.8687 H   0  0  0  0  0  0  0  0  0  0  0  0
  147.7167  141.5758  154.7282 H   0  0  0  0  0  0  0  0  0  0  0  0
  149.1652  142.1902  153.9762 H   0  0  0  0  0  0  0  0  0  0  0  0
  147.7927  138.2286  154.1798 H   0  0  0  0  0  0  0  0  0  0  0  0
  149.0989  143.0384  156.0590 H   0  0  0  0  0  0  0  0  0  0  0  0
  1  2  1  0  0  0  0
  1 26  1  0  0  0  0
  1 27  1  0  0  0  0
  1 28  1  0  0  0  0
  2  3  1  0  0  0  0
  2 29  1  0  0  0  0
  2 30  1  0  0  0  0
  3 25  1  0  0  0  0
  3  4  1  0  0  0  0
  3 57  1  0  0  0  0
  4  5  1  0  0  0  0
  4 31  1  0  0  0  0
  4 32  1  0  0  0  0
  5  6  1  0  0  0  0
  5 33  1  0  0  0  0
  5 34  1  0  0  0  0
  6  7  1  0  0  0  0
  7  8  1  0  0  0  0
  7 25  1  0  0  0  0
  7 35  1  0  0  0  0
  8  9  1  0  0  0  0
  8 36  1  0  0  0  0
  8 37  1  0  0  0  0
  9 10  1  0  0  0  0
  9 38  1  0  0  0  0
  9 56  1  0  0  0  0
 10 11  1  0  0  0  0
 10 39  1  0  0  0  0
 10 40  1  0  0  0  0
 11 12  1  0  0  0  0
 11 13  1  0  0  0  0
 11 41  1  0  0  0  0
 12 42  1  0  0  0  0
 13 14  1  0  0  0  0
 13 43  1  0  0  0  0
 13 44  1  0  0  0  0
 14 24  1  0  0  0  0
 14 15  1  0  0  0  0
 15 16  2  0  0  0  0
 15 45  1  0  0  0  0
 16 17  1  0  0  0  0
 17 24  2  0  0  0  0
 17 18  1  0  0  0  0
 18 19  2  0  0  0  0
 18 46  1  0  0  0  0
 19 20  1  0  0  0  0
 19 21  1  0  0  0  0
 20 47  1  0  0  0  0
 20 48  1  0  0  0  0
 20 49  1  0  0  0  0
 21 22  1  0  0  0  0
 21 23  2  0  0  0  0
 22 50  1  0  0  0  0
 22 51  1  0  0  0  0
 22 52  1  0  0  0  0
 23 24  1  0  0  0  0
 23 53  1  0  0  0  0
 25 54  1  0  0  0  0
 25 55  1  0  0  0  0
M  CHG  1   3   1
M  CHG  1   9   1
M  END
> <s_m_source_file>
AV-unprocessed.smi

> <i_m_source_file_index>
1047

> <i_lp_mmshare_version>
43012

> <i_f3d_flags>
0

> <s_epik_input>
W0NIM11bQ0gyXU4xW0NIMl1bQ0gyXU9bQ0BIXShbQ0gyXTEpW0NIMl1bTkhdW0NIMl1bQ0BIXShbT0hdKVtDSDJdbihbY0hdbjIpYyhjMjMpW2NIXWMoW0NIM10pYyhbY0hdMylbQ0gzXQ==

> <s_epik_cmdline>
J2VwaWtfcHl0aG9uJywgJy1waCcsICc3LjAnLCAnLXRuJywgJzgnLCAnLW1hJywgJzIwMCcsICctbWV0YWxfYmluZGluZycsICctaW1hZScsICc8aW5maWxlLm1hZT4nLCAnLW9tYWUnLCAnPG91dGZpbGUubWFlPic=

> <r_epik_Ionization_Penalty>
0.528991

> <r_epik_Ionization_Penalty_Charging>
0.438567

> <r_epik_Ionization_Penalty_Neutral>
0.0904237

> <r_epik_State_Penalty>
0.533036

> <r_epik_Charging_Adjusted_Penalty>
0.971603

> <i_epik_Tot_Q>
2

> <i_epik_Tot_abs_Q>
2

> <r_epik_Metal_State_Penalty>
0.448985

> <b_epik_Metal_Only>
0

> <s_lp_Force_Field>
OPLS_2005

> <r_lp_Energy>
30.7538

> <b_lp_Chiralities_Consistent>
1

> <s_lp_Variant>
AV-unprocessed.smi:1047-3

> <Gold.Version>
5.8.1

> <Gold.Id.Protein>
6NUR|6NUR_protein|mol2

> <Gold.PLP.Fitness>
56.2461

> <Gold.PLP.PLP>
-40.9303

> <Gold.PLP.part.hbond>
-3.7808

> <Gold.PLP.part.metal>
0.0000

> <Gold.PLP.part.buried>
3.1040

> <Gold.PLP.part.nonpolar>
-42.3377

> <Gold.PLP.part.repulsive>
0.4195

> <Gold.PLP.ligand.clash>
0.0000

> <Gold.PLP.ligand.torsion>
1.4216

> <Gold.PLP.Chemscore.Hbond>
5.0000

> <Gold.PLP.Chemscore.CHOScore>
1.0000

> <Gold.PLP.Chemscore.Metal>
0.0000

> <Gold.Chemscore.Hbonds>
donor molecule, donor type, donor heavy atom, donor atom, acceptor molecule, acceptor atom, score
      L1  H     3    57       P1  8028  2.00
      L1  H     9    38       P1  7948  2.00
      P1  H  7989  7998       L1     6  1.00
      L1  C    15    45       P1 10171  1.00

> <Gold.PLP.Chemscore.Internal.Correction>
0.1589

> <Gold.Rescore>
     Score         DG    S(hbond)    S(metal)    S(lipo)     H(rot)  DE(clash)    DE(int)     intcor
     16.18     -21.64       2.79        0.00     117.70       2.70       4.06       1.41       ----

> <Gold.Chemscore.Fitness>
16.1788

> <Gold.Chemscore.DG>
-21.6449

> <Gold.Chemscore.ZeroCoef>
-5.4800

> <Gold.Chemscore.Hbond>
2.7851

> <Gold.Chemscore.Metal>
0.0000

> <Gold.Chemscore.Lipo>
117.6997

> <Gold.Chemscore.Internal_Hbond>
0.0000

> <Gold.Chemscore.DEClash>
4.0559

> <Gold.Chemscore.DEInternal>
1.4102

> <Gold.Chemscore.Rot>
2.6985

> <Gold.Chemscore.Internal.Correction>
   9.000000E+99

> <Gold.Chemscore.Hbonds>
donor molecule, donor type, donor heavy atom, donor atom, acceptor molecule, acceptor atom, score
      L1  H     3    57       P1  8028  1.00
      L1  H     9    38       P1  7948  1.00
      P1  H  7989  7998       L1     6  0.49

> <Gold.Chemscore.Hbond.Weighted>
-9.3022

> <Gold.Chemscore.Metal.Weighted>
-0.0000

> <Gold.Chemscore.Lipo.Weighted>
-13.7709

> <Gold.Chemscore.Internal_Hbond.Weighted>
0.0000

> <Gold.Chemscore.DEClash.Weighted>
4.0559

> <Gold.Chemscore.DEInternal.Weighted>
1.4102

> <Gold.Chemscore.Rot.Weighted>
6.9081

> <Gold.Chemscore.Internal.Correction.Weighted>
   9.000000E+99

> <Gold.Protein.RotatedTorsions>
[ 6907 6896 6895 6894 ] final  -77.42 input  -60.11 | X-H torsion
[ 7974 7965 7964 7962 ] final -101.17 input  175.53 | X-H torsion
[ 8008 7997 7996 7995 ] final    9.38 input   59.86 | X-H torsion
[ 10167 10162 10161 10158 ] final -174.35 input  -65.29 | X-H torsion
[ 10718 10713 10712 10709 ] final -126.25 input   66.30 | X-H torsion
[ 10763 10752 10751 10750 ] final   37.32 input  -60.55 | X-H torsion
[ 11005 11000 10999 10996 ] final -105.03 input  -57.11 | X-H torsion

> <Gold.Protein.ActiveResidues>
 VAL166  LYS551  ARG553  GLY616  TRP617  ASP618  TYR619  PRO620  LYS621  CYS622 
 ASP623  PHE694  ASN695  SER759  ASP760  ASP761  ALA762  ILE779  LEU786  VAL792 
 PHE793  MET794  SER795  GLU796  ALA797  LYS798  CYS799  TRP800  GLU811  SER814 

> <Gold.Protein.RotatedAtoms>
  150.6999  134.4424  159.5298 H   0  0  0  0  0  0  0  0  0  0  0  0  # atno 6907 bound_to 6896
  152.2132  134.8479  160.0504 H   0  0  0  0  0  0  0  0  0  0  0  0  # atno 6908 bound_to 6896
  151.9357  133.3588  159.3984 H   0  0  0  0  0  0  0  0  0  0  0  0  # atno 6909 bound_to 6896
  145.2850  140.9337  143.2910 H   0  0  0  0  0  0  0  0  0  0  0  0  # atno 7974 bound_to 7965
  154.7792  140.2816  155.6077 H   0  0  0  0  0  0  0  0  0  0  0  0  # atno 8008 bound_to 7997
  156.2947  140.2626  156.2542 H   0  0  0  0  0  0  0  0  0  0  0  0  # atno 8009 bound_to 7997
  154.9804  140.0375  157.2265 H   0  0  0  0  0  0  0  0  0  0  0  0  # atno 8010 bound_to 7997
  139.5638  144.1804  152.1281 H   0  0  0  0  0  0  0  0  0  0  0  0  # atno 10167 bound_to 10162
  156.1748  130.6692  151.0228 H   0  0  0  0  0  0  0  0  0  0  0  0  # atno 10718 bound_to 10713
  153.0042  135.6281  154.2126 H   0  0  0  0  0  0  0  0  0  0  0  0  # atno 10763 bound_to 10752
  154.1870  135.2810  155.3036 H   0  0  0  0  0  0  0  0  0  0  0  0  # atno 10764 bound_to 10752
  154.5790  135.5653  153.7226 H   0  0  0  0  0  0  0  0  0  0  0  0  # atno 10765 bound_to 10752
  141.1073  133.8773  157.1684 H   0  0  0  0  0  0  0  0  0  0  0  0  # atno 11005 bound_to 11000
  144.9220  139.4400  143.6536 LP  0  0  0  0  0  0  0  0  0  0  0  0  # atno 17320 bound_to 7965
  146.3204  139.8086  142.8950 LP  0  0  0  0  0  0  0  0  0  0  0  0  # atno 17321 bound_to 7965
  140.1323  144.5277  150.6795 LP  0  0  0  0  0  0  0  0  0  0  0  0  # atno 17342 bound_to 10162
  140.6920  143.2382  151.5104 LP  0  0  0  0  0  0  0  0  0  0  0  0  # atno 17343 bound_to 10162
  157.6828  131.0833  150.7323 LP  0  0  0  0  0  0  0  0  0  0  0  0  # atno 17370 bound_to 10713
  156.7381  130.4730  149.5484 LP  0  0  0  0  0  0  0  0  0  0  0  0  # atno 17371 bound_to 10713
  139.9949  135.0050  157.0059 LP  0  0  0  0  0  0  0  0  0  0  0  0  # atno 17394 bound_to 11000
  140.4869  134.1232  155.7226 LP  0  0  0  0  0  0  0  0  0  0  0  0  # atno 17395 bound_to 11000

$$$$
