AV-unprocessed.smi:1|AV-procd|sdf|9|dock6
  -GOLD-   2262015 93D 1   1.00000     0.00000
 Structure written by MMmdl.
 57 62  0  0  0  0  0  0  0  0  1 V2000
  147.8691  130.9453  153.4912 O   0  0  0  0  0  0  0  0  0  0  0  0
  147.8934  132.1442  153.2002 C   0  0  0  0  0  0  0  0  0  0  0  0
  148.7086  133.1474  153.7069 N   0  0  0  0  0  0  0  0  0  0  0  0
  148.2731  133.9291  154.6478 C   0  0  0  0  0  0  0  0  0  0  0  0
  147.0559  133.9927  155.3389 N   0  0  0  0  0  0  0  0  0  0  0  0
  146.7345  134.9034  156.3578 C   0  0  0  0  0  0  0  0  0  0  0  0
  147.5338  135.8331  156.8088 N   0  0  0  0  0  0  0  0  0  0  0  0
  148.7567  135.8132  156.1533 C   0  0  0  0  0  0  0  0  0  0  0  0
  149.1885  134.9774  155.1466 C   0  0  0  0  0  0  0  0  0  0  0  0
  150.4880  135.2936  154.7659 N   0  0  0  0  0  0  0  0  0  0  0  0
  150.7873  136.3112  155.5691 C   0  0  0  0  0  0  0  0  0  0  0  0
  149.8148  136.6730  156.4302 N   0  0  0  0  0  0  0  0  0  0  0  0
  149.8395  137.7644  157.4597 C   0  0  2  0  0  0  0  0  0  0  0  0
  150.1971  138.9609  156.8357 O   0  0  0  0  0  0  0  0  0  0  0  0
  151.5807  139.2161  157.0434 C   0  0  1  0  0  0  0  0  0  0  0  0
  151.8842  140.7018  156.8313 C   0  0  0  0  0  0  0  0  0  0  0  0
  152.3368  141.2533  158.0566 O   0  0  0  0  0  0  0  0  0  0  0  0
  152.1066  142.5488  158.3410 C   0  0  0  0  0  0  0  0  0  0  0  0
  151.6933  143.3658  157.5155 O   0  0  0  0  0  0  0  0  0  0  0  0
  152.4072  142.8921  159.7611 C   0  0  0  0  0  0  0  0  0  0  0  0
  153.1417  141.9797  160.5540 C   0  0  0  0  0  0  0  0  0  0  0  0
  153.4395  142.2756  161.8984 C   0  0  0  0  0  0  0  0  0  0  0  0
  153.0071  143.4882  162.4663 C   0  0  0  0  0  0  0  0  0  0  0  0
  152.2764  144.4046  161.6879 C   0  0  0  0  0  0  0  0  0  0  0  0
  151.9769  144.1101  160.3434 C   0  0  0  0  0  0  0  0  0  0  0  0
  151.7882  138.7437  158.4816 C   0  0  2  0  0  0  0  0  0  0  0  0
  153.1319  138.3697  158.7303 O   0  0  0  0  0  0  0  0  0  0  0  0
  153.2934  136.7273  158.4702 S   0  0  0  0  0  0  0  0  0  0  0  0
  153.9766  136.5278  157.1831 O   0  0  0  0  0  0  0  0  0  0  0  0
  153.7596  136.1069  159.7195 O   0  0  0  0  0  0  0  0  0  0  0  0
  151.6810  136.3475  158.2661 O   0  0  0  0  0  0  0  0  0  0  0  0
  150.8953  137.4955  158.5530 C   0  0  2  0  0  0  0  0  0  0  0  0
  146.9488  132.6294  152.1496 C   0  0  0  0  0  0  0  0  0  0  0  0
  146.7460  134.0138  151.9669 C   0  0  0  0  0  0  0  0  0  0  0  0
  145.8451  134.4723  150.9861 C   0  0  0  0  0  0  0  0  0  0  0  0
  145.1433  133.5490  150.1871 C   0  0  0  0  0  0  0  0  0  0  0  0
  145.3422  132.1665  150.3687 C   0  0  0  0  0  0  0  0  0  0  0  0
  146.2427  131.7062  151.3494 C   0  0  0  0  0  0  0  0  0  0  0  0
  145.7301  134.7768  156.7646 H   0  0  0  0  0  0  0  0  0  0  0  0
  151.7471  136.8037  155.5255 H   0  0  0  0  0  0  0  0  0  0  0  0
  148.8159  137.8145  157.8323 H   0  0  0  0  0  0  0  0  0  0  0  0
  152.1725  138.6028  156.3620 H   0  0  0  0  0  0  0  0  0  0  0  0
  152.6290  140.8321  156.0448 H   0  0  0  0  0  0  0  0  0  0  0  0
  150.9794  141.2264  156.5216 H   0  0  0  0  0  0  0  0  0  0  0  0
  153.4842  141.0423  160.1399 H   0  0  0  0  0  0  0  0  0  0  0  0
  154.0004  141.5706  162.4942 H   0  0  0  0  0  0  0  0  0  0  0  0
  153.2356  143.7155  163.4971 H   0  0  0  0  0  0  0  0  0  0  0  0
  151.9441  145.3358  162.1227 H   0  0  0  0  0  0  0  0  0  0  0  0
  151.4139  144.8357  159.7743 H   0  0  0  0  0  0  0  0  0  0  0  0
  151.4503  139.4974  159.1940 H   0  0  0  0  0  0  0  0  0  0  0  0
  150.4174  137.3853  159.5268 H   0  0  0  0  0  0  0  0  0  0  0  0
  147.2786  134.7278  152.5785 H   0  0  0  0  0  0  0  0  0  0  0  0
  145.6909  135.5322  150.8484 H   0  0  0  0  0  0  0  0  0  0  0  0
  144.4514  133.9014  149.4363 H   0  0  0  0  0  0  0  0  0  0  0  0
  144.8023  131.4587  149.7573 H   0  0  0  0  0  0  0  0  0  0  0  0
  146.3873  130.6441  151.4854 H   0  0  0  0  0  0  0  0  0  0  0  0
  146.3479  133.3202  155.0817 H   0  0  0  0  0  0  0  0  0  0  0  0
  1  2  2  0  0  0  0
  2  3  1  0  0  0  0
  2 33  1  0  0  0  0
  3  4  2  0  0  0  0
  4  9  1  0  0  0  0
  4  5  1  0  0  0  0
  5  6  1  0  0  0  0
  5 57  1  0  0  0  0
  6  7  2  0  0  0  0
  6 39  1  0  0  0  0
  7  8  1  0  0  0  0
  8 12  1  0  0  0  0
  8  9  2  0  0  0  0
  9 10  1  0  0  0  0
 10 11  2  0  0  0  0
 11 12  1  0  0  0  0
 11 40  1  0  0  0  0
 12 13  1  0  0  0  0
 13 32  1  0  0  0  0
 13 14  1  0  0  0  0
 13 41  1  0  0  0  0
 14 15  1  0  0  0  0
 15 16  1  0  0  0  0
 15 26  1  0  0  0  0
 15 42  1  0  0  0  0
 16 17  1  0  0  0  0
 16 43  1  0  0  0  0
 16 44  1  0  0  0  0
 17 18  1  0  0  0  0
 18 19  2  0  0  0  0
 18 20  1  0  0  0  0
 20 25  1  0  0  0  0
 20 21  2  0  0  0  0
 21 22  1  0  0  0  0
 21 45  1  0  0  0  0
 22 23  2  0  0  0  0
 22 46  1  0  0  0  0
 23 24  1  0  0  0  0
 23 47  1  0  0  0  0
 24 25  2  0  0  0  0
 24 48  1  0  0  0  0
 25 49  1  0  0  0  0
 26 32  1  0  0  0  0
 26 27  1  0  0  0  0
 26 50  1  0  0  0  0
 27 28  1  0  0  0  0
 28 29  2  0  0  0  0
 28 30  2  0  0  0  0
 28 31  1  0  0  0  0
 31 32  1  0  0  0  0
 32 51  1  0  0  0  0
 33 38  1  0  0  0  0
 33 34  2  0  0  0  0
 34 35  1  0  0  0  0
 34 52  1  0  0  0  0
 35 36  2  0  0  0  0
 35 53  1  0  0  0  0
 36 37  1  0  0  0  0
 36 54  1  0  0  0  0
 37 38  2  0  0  0  0
 37 55  1  0  0  0  0
 38 56  1  0  0  0  0
M  END
> <s_m_source_file>
AV-unprocessed.smi

> <i_m_source_file_index>
1

> <i_lp_mmshare_version>
43012

> <i_f3d_flags>
0

> <s_epik_input>
W2NIXTFbY0hdW2NIXVtjSF1bY0hdYzFDKD1PKVtOSF1jKG5bY0hdbjIpYyhjMjMpbltjSF1uM1tDQEBIXShbQ0BIXShbQ0BIXTQ1KU9TKE81KSg9Tyk9TylPW0NASF00W0NIMl1PQyg9TyljNltjSF1bY0hdW2NIXVtjSF1bY0hdNg==

> <s_epik_cmdline>
J2VwaWtfcHl0aG9uJywgJy1waCcsICc3LjAnLCAnLXRuJywgJzgnLCAnLW1hJywgJzIwMCcsICctbWV0YWxfYmluZGluZycsICctaW1hZScsICc8aW5maWxlLm1hZT4nLCAnLW9tYWUnLCAnPG91dGZpbGUubWFlPic=

> <r_epik_Ionization_Penalty>
0.122545

> <r_epik_Ionization_Penalty_Charging>
0.122545

> <r_epik_Ionization_Penalty_Neutral>
7.8935e-16

> <r_epik_State_Penalty>
2.69178

> <r_epik_Charging_Adjusted_Penalty>
2.81433

> <i_epik_Tot_Q>
0

> <i_epik_Tot_abs_Q>
0

> <r_epik_Metal_State_Penalty>
3.02665

> <b_epik_Metal_Only>
0

> <s_epik_Chemistry_Notes>
This compound has an ester and may undergo hydrolysis at high or low pH. This compound contains an acetal/aminal-like group ( X-CH(R)-Y where X, Y are N, S, or O) that may be acid/base labile, releasing an aldehyde.

> <s_lp_Force_Field>
OPLS_2005

> <r_lp_Energy>
57.7872

> <b_lp_Chiralities_Consistent>
1

> <s_lp_Variant>
AV-unprocessed.smi:1-9

> <Gold.Version>
5.8.1

> <Gold.Id.Protein>
6NUR|6NUR_protein|mol2

> <Gold.PLP.Fitness>
58.2619

> <Gold.PLP.PLP>
-56.2567

> <Gold.PLP.part.hbond>
-3.0000

> <Gold.PLP.part.metal>
0.0000

> <Gold.PLP.part.buried>
-8.9826

> <Gold.PLP.part.nonpolar>
-45.3389

> <Gold.PLP.part.repulsive>
1.5182

> <Gold.PLP.ligand.clash>
0.0000

> <Gold.PLP.ligand.torsion>
1.9917

> <Gold.PLP.Chemscore.Hbond>
1.9440

> <Gold.PLP.Chemscore.CHOScore>
0.0000

> <Gold.PLP.Chemscore.Metal>
0.0000

> <Gold.Chemscore.Hbonds>
donor molecule, donor type, donor heavy atom, donor atom, acceptor molecule, acceptor atom, score
      P1  H  6896  6907       L1    30  1.00
      P1  H 10752 10765       L1    29  0.73

> <Gold.PLP.Chemscore.Internal.Correction>
0.1567

> <Gold.Rescore>
     Score         DG    S(hbond)    S(metal)    S(lipo)     H(rot)  DE(clash)    DE(int)     intcor
     16.19     -21.64       1.81        0.00     132.99       2.13       2.32       3.13       ----

> <Gold.Chemscore.Fitness>
16.1903

> <Gold.Chemscore.DG>
-21.6375

> <Gold.Chemscore.ZeroCoef>
-5.4800

> <Gold.Chemscore.Hbond>
1.8139

> <Gold.Chemscore.Metal>
0.0000

> <Gold.Chemscore.Lipo>
132.9940

> <Gold.Chemscore.Internal_Hbond>
0.0000

> <Gold.Chemscore.DEClash>
2.3157

> <Gold.Chemscore.DEInternal>
3.1314

> <Gold.Chemscore.Rot>
2.1333

> <Gold.Chemscore.Internal.Correction>
   9.000000E+99

> <Gold.Chemscore.Hbonds>
donor molecule, donor type, donor heavy atom, donor atom, acceptor molecule, acceptor atom, score
      P1  H  6896  6907       L1    30  0.25
      P1  H 10752 10765       L1    29  0.71

> <Gold.Chemscore.Hbond.Weighted>
-6.0586

> <Gold.Chemscore.Metal.Weighted>
-0.0000

> <Gold.Chemscore.Lipo.Weighted>
-15.5603

> <Gold.Chemscore.Internal_Hbond.Weighted>
0.0000

> <Gold.Chemscore.DEClash.Weighted>
2.3157

> <Gold.Chemscore.DEInternal.Weighted>
3.1314

> <Gold.Chemscore.Rot.Weighted>
5.4614

> <Gold.Chemscore.Internal.Correction.Weighted>
   9.000000E+99

> <Gold.Protein.RotatedTorsions>
[ 6907 6896 6895 6894 ] final   49.01 input  -60.11 | X-H torsion
[ 7974 7965 7964 7962 ] final  175.12 input  175.53 | X-H torsion
[ 8008 7997 7996 7995 ] final -115.15 input   59.86 | X-H torsion
[ 10167 10162 10161 10158 ] final -172.57 input  -65.29 | X-H torsion
[ 10718 10713 10712 10709 ] final  -38.81 input   66.30 | X-H torsion
[ 10763 10752 10751 10750 ] final -100.69 input  -60.55 | X-H torsion
[ 11005 11000 10999 10996 ] final   98.15 input  -57.11 | X-H torsion

> <Gold.Protein.ActiveResidues>
 VAL166  LYS551  ARG553  GLY616  TRP617  ASP618  TYR619  PRO620  LYS621  CYS622 
 ASP623  PHE694  ASN695  SER759  ASP760  ASP761  ALA762  ILE779  LEU786  VAL792 
 PHE793  MET794  SER795  GLU796  ALA797  LYS798  CYS799  TRP800  GLU811  SER814 

> <Gold.Protein.RotatedAtoms>
  152.2860  134.7776  160.0387 H   0  0  0  0  0  0  0  0  0  0  0  0  # atno 6907 bound_to 6896
  151.8338  133.3407  159.3630 H   0  0  0  0  0  0  0  0  0  0  0  0  # atno 6908 bound_to 6896
  150.7209  134.5385  159.5780 H   0  0  0  0  0  0  0  0  0  0  0  0  # atno 6909 bound_to 6896
  144.7208  139.9899  143.6440 H   0  0  0  0  0  0  0  0  0  0  0  0  # atno 7974 bound_to 7965
  155.0475  140.0392  157.2531 H   0  0  0  0  0  0  0  0  0  0  0  0  # atno 8008 bound_to 7997
  154.7165  140.2703  155.6556 H   0  0  0  0  0  0  0  0  0  0  0  0  # atno 8009 bound_to 7997
  156.2805  140.2711  156.1824 H   0  0  0  0  0  0  0  0  0  0  0  0  # atno 8010 bound_to 7997
  139.5737  144.1582  152.1420 H   0  0  0  0  0  0  0  0  0  0  0  0  # atno 10167 bound_to 10162
  156.2995  130.4238  149.8157 H   0  0  0  0  0  0  0  0  0  0  0  0  # atno 10718 bound_to 10713
  154.7599  135.4925  153.9445 H   0  0  0  0  0  0  0  0  0  0  0  0  # atno 10763 bound_to 10752
  153.1239  135.6738  153.9297 H   0  0  0  0  0  0  0  0  0  0  0  0  # atno 10764 bound_to 10752
  153.9020  135.3108  155.3427 H   0  0  0  0  0  0  0  0  0  0  0  0  # atno 10765 bound_to 10752
  139.8773  134.9035  156.4413 H   0  0  0  0  0  0  0  0  0  0  0  0  # atno 11005 bound_to 11000
  146.0420  139.3430  143.0692 LP  0  0  0  0  0  0  0  0  0  0  0  0  # atno 17320 bound_to 7965
  145.8323  140.9624  143.0842 LP  0  0  0  0  0  0  0  0  0  0  0  0  # atno 17321 bound_to 7965
  140.1121  144.5448  150.6918 LP  0  0  0  0  0  0  0  0  0  0  0  0  # atno 17342 bound_to 10162
  140.7020  143.2441  151.4835 LP  0  0  0  0  0  0  0  0  0  0  0  0  # atno 17343 bound_to 10162
  156.5540  130.8354  151.3308 LP  0  0  0  0  0  0  0  0  0  0  0  0  # atno 17370 bound_to 10713
  157.7364  130.9778  150.2135 LP  0  0  0  0  0  0  0  0  0  0  0  0  # atno 17371 bound_to 10713
  140.8998  133.7788  155.9666 LP  0  0  0  0  0  0  0  0  0  0  0  0  # atno 17394 bound_to 11000
  140.8664  134.2779  157.5211 LP  0  0  0  0  0  0  0  0  0  0  0  0  # atno 17395 bound_to 11000

$$$$
