AV-unprocessed.smi:2530|AV-procd|sdf|9963|dock9
  -GOLD-   2272014 03D 1   1.00000     0.00000
 Structure written by MMmdl.
 44 46  0  0  0  0  0  0  0  0  1 V2000
  152.3969  144.5530  158.4467 C   0  0  0  0  0  0  0  0  0  0  0  0
  152.4938  143.0754  158.7650 C   0  0  0  0  0  0  0  0  0  0  0  0
  153.2858  142.6332  159.8409 C   0  0  0  0  0  0  0  0  0  0  0  0
  153.3755  141.2594  160.1289 C   0  0  0  0  0  0  0  0  0  0  0  0
  152.6724  140.3138  159.3520 C   0  0  0  0  0  0  0  0  0  0  0  0
  152.8187  138.8413  159.6960 C   0  0  0  0  0  0  0  0  0  0  0  0
  151.8587  140.7537  158.2741 C   0  0  0  0  0  0  0  0  0  0  0  0
  151.0774  139.7712  157.4006 C   0  0  1  0  0  0  0  0  0  0  0  0
  150.4108  140.4339  156.3426 O   0  0  0  0  0  0  0  0  0  0  0  0
  152.0181  138.7028  156.7996 C   0  0  0  0  0  0  0  0  0  0  0  0
  151.3274  137.4314  156.5228 N   0  0  0  0  0  0  0  0  0  0  0  0
  151.0194  137.1674  155.1741 C   0  0  0  0  0  0  0  0  0  0  0  0
  150.4155  136.0804  154.8121 N   0  0  0  0  0  0  0  0  0  0  0  0
  150.0502  135.1334  155.7756 C   0  0  0  0  0  0  0  0  0  0  0  0
  149.3189  133.8870  155.2957 C   0  0  0  0  0  0  0  0  0  0  0  0
  150.0380  132.5471  155.5272 C   0  0  0  0  0  0  0  0  0  0  0  0
  149.5193  132.1048  154.1545 C   0  0  0  0  0  0  0  0  0  0  0  0
  149.4120  133.5898  153.7900 C   0  0  0  0  0  0  0  0  0  0  0  0
  150.3164  135.3467  157.0862 C   0  0  0  0  0  0  0  0  0  0  0  0
  151.0016  136.5628  157.5240 C   0  0  0  0  0  0  0  0  0  0  0  0
  151.2619  136.7863  158.7060 O   0  0  0  0  0  0  0  0  0  0  0  0
  151.7867  142.1370  157.9882 C   0  0  0  0  0  0  0  0  0  0  0  0
  153.2950  145.0812  158.7685 H   0  0  0  0  0  0  0  0  0  0  0  0
  151.5387  144.9911  158.9565 H   0  0  0  0  0  0  0  0  0  0  0  0
  152.2781  144.7117  157.3744 H   0  0  0  0  0  0  0  0  0  0  0  0
  153.8297  143.3443  160.4456 H   0  0  0  0  0  0  0  0  0  0  0  0
  153.9930  140.9341  160.9533 H   0  0  0  0  0  0  0  0  0  0  0  0
  151.8669  138.4284  160.0304 H   0  0  0  0  0  0  0  0  0  0  0  0
  153.5458  138.6896  160.4942 H   0  0  0  0  0  0  0  0  0  0  0  0
  153.1612  138.2786  158.8280 H   0  0  0  0  0  0  0  0  0  0  0  0
  150.2997  139.2922  157.9930 H   0  0  0  0  0  0  0  0  0  0  0  0
  150.9955  141.0833  155.9824 H   0  0  0  0  0  0  0  0  0  0  0  0
  152.5223  139.0970  155.9146 H   0  0  0  0  0  0  0  0  0  0  0  0
  152.8269  138.5026  157.5047 H   0  0  0  0  0  0  0  0  0  0  0  0
  151.3204  137.9397  154.4642 H   0  0  0  0  0  0  0  0  0  0  0  0
  148.2877  133.8609  155.6526 H   0  0  0  0  0  0  0  0  0  0  0  0
  151.1262  132.6312  155.5500 H   0  0  0  0  0  0  0  0  0  0  0  0
  149.6600  131.9655  156.3685 H   0  0  0  0  0  0  0  0  0  0  0  0
  150.2331  131.5373  153.5568 H   0  0  0  0  0  0  0  0  0  0  0  0
  148.5485  131.6095  154.2070 H   0  0  0  0  0  0  0  0  0  0  0  0
  148.5241  133.8567  153.2161 H   0  0  0  0  0  0  0  0  0  0  0  0
  150.3236  133.9710  153.3258 H   0  0  0  0  0  0  0  0  0  0  0  0
  150.0237  134.6147  157.8247 H   0  0  0  0  0  0  0  0  0  0  0  0
  151.1836  142.4862  157.1624 H   0  0  0  0  0  0  0  0  0  0  0  0
  1  2  1  0  0  0  0
  1 23  1  0  0  0  0
  1 24  1  0  0  0  0
  1 25  1  0  0  0  0
  2 22  1  0  0  0  0
  2  3  2  0  0  0  0
  3  4  1  0  0  0  0
  3 26  1  0  0  0  0
  4  5  2  0  0  0  0
  4 27  1  0  0  0  0
  5  6  1  0  0  0  0
  5  7  1  0  0  0  0
  6 28  1  0  0  0  0
  6 29  1  0  0  0  0
  6 30  1  0  0  0  0
  7  8  1  0  0  0  0
  7 22  2  0  0  0  0
  8  9  1  0  0  0  0
  8 10  1  0  0  0  0
  8 31  1  0  0  0  0
  9 32  1  0  0  0  0
 10 11  1  0  0  0  0
 10 33  1  0  0  0  0
 10 34  1  0  0  0  0
 11 20  1  0  0  0  0
 11 12  1  0  0  0  0
 12 13  2  0  0  0  0
 12 35  1  0  0  0  0
 13 14  1  0  0  0  0
 14 15  1  0  0  0  0
 14 19  2  0  0  0  0
 15 18  1  0  0  0  0
 15 16  1  0  0  0  0
 15 36  1  0  0  0  0
 16 17  1  0  0  0  0
 16 37  1  0  0  0  0
 16 38  1  0  0  0  0
 17 18  1  0  0  0  0
 17 39  1  0  0  0  0
 17 40  1  0  0  0  0
 18 41  1  0  0  0  0
 18 42  1  0  0  0  0
 19 20  1  0  0  0  0
 19 43  1  0  0  0  0
 20 21  2  0  0  0  0
 22 44  1  0  0  0  0
M  END
> <s_m_source_file>
AV-unprocessed.smi

> <i_m_source_file_index>
2530

> <i_lp_mmshare_version>
43012

> <i_f3d_flags>
0

> <s_epik_input>
W0NIM11jMVtjSF1bY0hdYyhbQ0gzXSljKFtjSF0xKVtDQEhdKFtPSF0pW0NIMl1uMltjSF1uYyhbY0hdYzI9TylbQ0hdM1tDSDJdW0NIMl1bQ0gyXTM=

> <s_epik_cmdline>
J2VwaWtfcHl0aG9uJywgJy1waCcsICc3LjAnLCAnLXRuJywgJzgnLCAnLW1hJywgJzIwMCcsICctbWV0YWxfYmluZGluZycsICctaW1hZScsICc8aW5maWxlLm1hZT4nLCAnLW9tYWUnLCAnPG91dGZpbGUubWFlPic=

> <r_lp_tautomer_probability>
1

> <r_epik_Ionization_Penalty>
2.57341e-05

> <r_epik_Ionization_Penalty_Charging>
5.39435e-08

> <r_epik_Ionization_Penalty_Neutral>
2.56801e-05

> <r_epik_State_Penalty>
-0

> <r_epik_Charging_Adjusted_Penalty>
5.39435e-08

> <i_epik_Tot_Q>
0

> <i_epik_Tot_abs_Q>
0

> <r_epik_Metal_State_Penalty>
-0

> <b_epik_Metal_Only>
0

> <s_lp_Force_Field>
OPLS_2005

> <r_lp_Energy>
28.9103

> <b_lp_Chiralities_Consistent>
1

> <s_lp_Variant>
AV-unprocessed.smi:2530-2

> <Gold.Version>
5.8.1

> <Gold.Id.Protein>
6NUR|6NUR_protein|mol2

> <Gold.PLP.Fitness>
41.9971

> <Gold.PLP.PLP>
-40.8645

> <Gold.PLP.part.hbond>
-1.0000

> <Gold.PLP.part.metal>
0.0000

> <Gold.PLP.part.buried>
-5.4864

> <Gold.PLP.part.nonpolar>
-35.5034

> <Gold.PLP.part.repulsive>
0.1787

> <Gold.PLP.ligand.clash>
0.4021

> <Gold.PLP.ligand.torsion>
0.7654

> <Gold.PLP.Chemscore.Hbond>
0.8960

> <Gold.PLP.Chemscore.CHOScore>
0.0000

> <Gold.PLP.Chemscore.Metal>
0.0000

> <Gold.Chemscore.Hbonds>
donor molecule, donor type, donor heavy atom, donor atom, acceptor molecule, acceptor atom, score
      P1  H  6896  6909       L1    21  0.87

> <Gold.PLP.Chemscore.Internal.Correction>
0.3775

> <Gold.Rescore>
     Score         DG    S(hbond)    S(metal)    S(lipo)     H(rot)  DE(clash)    DE(int)     intcor
     14.48     -16.59       0.81        0.00     114.82       1.97       0.06       2.06       ----

> <Gold.Chemscore.Fitness>
14.4782

> <Gold.Chemscore.DG>
-16.5926

> <Gold.Chemscore.ZeroCoef>
-5.4800

> <Gold.Chemscore.Hbond>
0.8136

> <Gold.Chemscore.Metal>
0.0000

> <Gold.Chemscore.Lipo>
114.8241

> <Gold.Chemscore.Internal_Hbond>
0.0000

> <Gold.Chemscore.DEClash>
0.0589

> <Gold.Chemscore.DEInternal>
2.0555

> <Gold.Chemscore.Rot>
1.9684

> <Gold.Chemscore.Internal.Correction>
   9.000000E+99

> <Gold.Chemscore.Hbonds>
donor molecule, donor type, donor heavy atom, donor atom, acceptor molecule, acceptor atom, score
      P1  H  6896  6909       L1    21  0.68

> <Gold.Chemscore.Hbond.Weighted>
-2.7173

> <Gold.Chemscore.Metal.Weighted>
-0.0000

> <Gold.Chemscore.Lipo.Weighted>
-13.4344

> <Gold.Chemscore.Internal_Hbond.Weighted>
0.0000

> <Gold.Chemscore.DEClash.Weighted>
0.0589

> <Gold.Chemscore.DEInternal.Weighted>
2.0555

> <Gold.Chemscore.Rot.Weighted>
5.0391

> <Gold.Chemscore.Internal.Correction.Weighted>
   9.000000E+99

> <Gold.Protein.RotatedTorsions>
[ 6907 6896 6895 6894 ] final   99.23 input  -60.11 | X-H torsion
[ 7974 7965 7964 7962 ] final  -27.32 input  175.53 | X-H torsion
[ 8008 7997 7996 7995 ] final  -51.95 input   59.86 | X-H torsion
[ 10167 10162 10161 10158 ] final -121.08 input  -65.29 | X-H torsion
[ 10718 10713 10712 10709 ] final  158.77 input   66.30 | X-H torsion
[ 10763 10752 10751 10750 ] final  -26.98 input  -60.55 | X-H torsion
[ 11005 11000 10999 10996 ] final   33.16 input  -57.11 | X-H torsion

> <Gold.Protein.ActiveResidues>
 VAL166  LYS551  ARG553  GLY616  TRP617  ASP618  TYR619  PRO620  LYS621  CYS622 
 ASP623  PHE694  ASN695  SER759  ASP760  ASP761  ALA762  ILE779  LEU786  VAL792 
 PHE793  MET794  SER795  GLU796  ALA797  LYS798  CYS799  TRP800  GLU811  SER814 

> <Gold.Protein.RotatedAtoms>
  152.5396  134.0461  159.8088 H   0  0  0  0  0  0  0  0  0  0  0  0  # atno 6907 bound_to 6896
  151.0609  133.5537  159.2641 H   0  0  0  0  0  0  0  0  0  0  0  0  # atno 6908 bound_to 6896
  151.2436  135.0605  159.9088 H   0  0  0  0  0  0  0  0  0  0  0  0  # atno 6909 bound_to 6896
  146.1366  140.5136  142.8670 H   0  0  0  0  0  0  0  0  0  0  0  0  # atno 7974 bound_to 7965
  154.4095  140.1235  156.4912 H   0  0  0  0  0  0  0  0  0  0  0  0  # atno 8008 bound_to 7997
  155.6988  140.3495  155.4904 H   0  0  0  0  0  0  0  0  0  0  0  0  # atno 8009 bound_to 7997
  155.9404  140.1086  157.1050 H   0  0  0  0  0  0  0  0  0  0  0  0  # atno 8010 bound_to 7997
  140.0289  143.5268  152.2186 H   0  0  0  0  0  0  0  0  0  0  0  0  # atno 10167 bound_to 10162
  157.1733  131.0615  151.2171 H   0  0  0  0  0  0  0  0  0  0  0  0  # atno 10718 bound_to 10713
  153.7246  135.6942  153.5004 H   0  0  0  0  0  0  0  0  0  0  0  0  # atno 10763 bound_to 10752
  153.2179  135.4380  155.0454 H   0  0  0  0  0  0  0  0  0  0  0  0  # atno 10764 bound_to 10752
  154.8273  135.3453  154.6778 H   0  0  0  0  0  0  0  0  0  0  0  0  # atno 10765 bound_to 10752
  140.2659  134.3138  155.7843 H   0  0  0  0  0  0  0  0  0  0  0  0  # atno 11005 bound_to 11000
  144.7746  140.5712  143.6647 LP  0  0  0  0  0  0  0  0  0  0  0  0  # atno 17320 bound_to 7965
  145.5142  139.1478  143.3588 LP  0  0  0  0  0  0  0  0  0  0  0  0  # atno 17321 bound_to 7965
  139.6089  144.7603  151.2996 LP  0  0  0  0  0  0  0  0  0  0  0  0  # atno 17342 bound_to 10162
  140.7311  143.6862  150.7960 LP  0  0  0  0  0  0  0  0  0  0  0  0  # atno 17343 bound_to 10162
  157.4022  130.7339  149.6776 LP  0  0  0  0  0  0  0  0  0  0  0  0  # atno 17370 bound_to 10713
  155.9735  130.4117  150.3998 LP  0  0  0  0  0  0  0  0  0  0  0  0  # atno 17371 bound_to 10713
  141.2184  133.7437  156.9260 LP  0  0  0  0  0  0  0  0  0  0  0  0  # atno 17394 bound_to 11000
  140.1419  134.9288  157.2478 LP  0  0  0  0  0  0  0  0  0  0  0  0  # atno 17395 bound_to 11000

$$$$
