AV-unprocessed.smi:192|AV-procd|sdf|1495|dock10
  -GOLD-   2262019323D 1   1.00000     0.00000
 Structure written by MMmdl.
 58 60  0  0  0  0  0  0  0  0  1 V2000
  153.3313  138.5532  155.2986 C   0  0  0  0  0  0  0  0  0  0  0  0
  152.6698  137.5045  154.3926 C   0  0  0  0  0  0  0  0  0  0  0  0
  151.2688  137.0479  154.8635 C   0  0  0  0  0  0  0  0  0  0  0  0
  150.1899  138.1044  154.5359 C   0  0  0  0  0  0  0  0  0  0  0  0
  150.4845  139.4979  155.1112 C   0  0  0  0  0  0  0  0  0  0  0  0
  151.2810  136.7279  156.3808 C   0  0  0  0  0  0  0  0  0  0  0  0
  150.1629  135.8948  156.8276 N   0  0  0  0  0  0  0  0  0  0  0  0
  149.0670  136.5255  157.5606 C   0  0  0  0  0  0  0  0  0  0  0  0
  148.4875  135.6501  158.6866 C   0  0  0  0  0  0  0  0  0  0  0  0
  148.0961  136.3996  159.8904 C   0  0  0  0  0  0  0  0  0  0  0  0
  147.7884  136.9885  160.8375 N   0  0  0  0  0  0  0  0  0  0  0  0
  149.7814  134.8508  156.0526 C   0  0  0  0  0  0  0  0  0  0  0  0
  150.5702  133.7471  156.0694 N   0  0  0  0  0  0  0  0  0  0  0  0
  150.2659  132.6924  155.3079 C   0  0  0  0  0  0  0  0  0  0  0  0
  149.2321  132.5313  154.4800 N   0  0  0  0  0  0  0  0  0  0  0  0
  148.4221  133.6287  154.4774 C   0  0  0  0  0  0  0  0  0  0  0  0
  148.6202  134.8235  155.2261 C   0  0  0  0  0  0  0  0  0  0  0  0
  147.5894  135.7183  154.9635 N   0  0  0  0  0  0  0  0  0  0  0  0
  146.8384  135.0978  154.0961 C   0  0  0  0  0  0  0  0  0  0  0  0
  147.2501  133.8263  153.7684 N   0  0  0  0  0  0  0  0  0  0  0  0
  146.6379  132.9483  152.8152 C   0  0  0  0  0  0  0  0  0  0  0  0
  146.8665  133.1281  151.3132 C   0  0  0  0  0  0  0  0  0  0  0  0
  145.4425  132.5911  151.0412 C   0  0  0  0  0  0  0  0  0  0  0  0
  144.6273  133.3303  149.9656 C   0  0  0  0  0  0  0  0  0  0  0  0
  143.3043  132.8428  149.8774 O   0  0  0  0  0  0  0  0  0  0  0  0
  145.3119  131.0685  150.8230 C   0  0  0  0  0  0  0  0  0  0  0  0
  146.4273  130.3576  151.3188 O   0  0  0  0  0  0  0  0  0  0  0  0
  145.1455  133.0426  152.4890 C   0  0  0  0  0  0  0  0  0  0  0  0
  154.2764  138.8868  154.8698 H   0  0  0  0  0  0  0  0  0  0  0  0
  153.5481  138.1610  156.2914 H   0  0  0  0  0  0  0  0  0  0  0  0
  152.6946  139.4308  155.4140 H   0  0  0  0  0  0  0  0  0  0  0  0
  152.5958  137.9441  153.3977 H   0  0  0  0  0  0  0  0  0  0  0  0
  153.3266  136.6402  154.2872 H   0  0  0  0  0  0  0  0  0  0  0  0
  151.0111  136.1451  154.3093 H   0  0  0  0  0  0  0  0  0  0  0  0
  150.0530  138.1739  153.4560 H   0  0  0  0  0  0  0  0  0  0  0  0
  149.2286  137.7886  154.9384 H   0  0  0  0  0  0  0  0  0  0  0  0
  149.6466  140.1718  154.9320 H   0  0  0  0  0  0  0  0  0  0  0  0
  151.3654  139.9508  154.6576 H   0  0  0  0  0  0  0  0  0  0  0  0
  150.6470  139.4524  156.1885 H   0  0  0  0  0  0  0  0  0  0  0  0
  152.2140  136.2207  156.6289 H   0  0  0  0  0  0  0  0  0  0  0  0
  151.2831  137.6438  156.9664 H   0  0  0  0  0  0  0  0  0  0  0  0
  149.4164  137.4696  157.9801 H   0  0  0  0  0  0  0  0  0  0  0  0
  148.2759  136.7882  156.8577 H   0  0  0  0  0  0  0  0  0  0  0  0
  147.6247  135.0809  158.3405 H   0  0  0  0  0  0  0  0  0  0  0  0
  149.2358  134.9226  159.0010 H   0  0  0  0  0  0  0  0  0  0  0  0
  150.9497  131.8587  155.3686 H   0  0  0  0  0  0  0  0  0  0  0  0
  145.9538  135.5530  153.6745 H   0  0  0  0  0  0  0  0  0  0  0  0
  146.9028  131.9367  153.1271 H   0  0  0  0  0  0  0  0  0  0  0  0
  146.9830  134.1760  151.0300 H   0  0  0  0  0  0  0  0  0  0  0  0
  147.6764  132.5229  150.9050 H   0  0  0  0  0  0  0  0  0  0  0  0
  144.5968  134.4031  150.1586 H   0  0  0  0  0  0  0  0  0  0  0  0
  145.0829  133.2100  148.9823 H   0  0  0  0  0  0  0  0  0  0  0  0
  142.7179  133.5779  149.7857 H   0  0  0  0  0  0  0  0  0  0  0  0
  144.4270  130.6736  151.3226 H   0  0  0  0  0  0  0  0  0  0  0  0
  145.1897  130.8322  149.7655 H   0  0  0  0  0  0  0  0  0  0  0  0
  147.1633  130.5168  150.7480 H   0  0  0  0  0  0  0  0  0  0  0  0
  144.5151  132.3629  153.0634 H   0  0  0  0  0  0  0  0  0  0  0  0
  144.7723  134.0664  152.5552 H   0  0  0  0  0  0  0  0  0  0  0  0
  1  2  1  0  0  0  0
  1 29  1  0  0  0  0
  1 30  1  0  0  0  0
  1 31  1  0  0  0  0
  2  3  1  0  0  0  0
  2 32  1  0  0  0  0
  2 33  1  0  0  0  0
  3  4  1  0  0  0  0
  3  6  1  0  0  0  0
  3 34  1  0  0  0  0
  4  5  1  0  0  0  0
  4 35  1  0  0  0  0
  4 36  1  0  0  0  0
  5 37  1  0  0  0  0
  5 38  1  0  0  0  0
  5 39  1  0  0  0  0
  6  7  1  0  0  0  0
  6 40  1  0  0  0  0
  6 41  1  0  0  0  0
  7  8  1  0  0  0  0
  7 12  1  0  0  0  0
  8  9  1  0  0  0  0
  8 42  1  0  0  0  0
  8 43  1  0  0  0  0
  9 10  1  0  0  0  0
  9 44  1  0  0  0  0
  9 45  1  0  0  0  0
 10 11  3  0  0  0  0
 12 17  1  0  0  0  0
 12 13  2  0  0  0  0
 13 14  1  0  0  0  0
 14 15  2  0  0  0  0
 14 46  1  0  0  0  0
 15 16  1  0  0  0  0
 16 20  1  0  0  0  0
 16 17  2  0  0  0  0
 17 18  1  0  0  0  0
 18 19  2  0  0  0  0
 19 20  1  0  0  0  0
 19 47  1  0  0  0  0
 20 21  1  0  0  0  0
 21 28  1  0  0  0  0
 21 22  1  0  0  0  0
 21 48  1  0  0  0  0
 22 23  1  0  0  0  0
 22 49  1  0  0  0  0
 22 50  1  0  0  0  0
 23 24  1  0  0  0  0
 23 26  1  0  0  0  0
 23 28  1  0  0  0  0
 24 25  1  0  0  0  0
 24 51  1  0  0  0  0
 24 52  1  0  0  0  0
 25 53  1  0  0  0  0
 26 27  1  0  0  0  0
 26 54  1  0  0  0  0
 26 55  1  0  0  0  0
 27 56  1  0  0  0  0
 28 57  1  0  0  0  0
 28 58  1  0  0  0  0
M  END
> <s_m_source_file>
AV-unprocessed.smi

> <i_m_source_file_index>
192

> <i_lp_mmshare_version>
43012

> <i_f3d_flags>
0

> <s_epik_input>
W0NIM11bQ0gyXVtDSF0oW0NIMl1bQ0gzXSlbQ0gyXU4oW0NIMl1bQ0gyXUMjTiljKG5bY0hdbjEpYyhjMTIpbltjSF1uMltDSF0oW0NIMl0zKVtDSDJdQzMoW0NIMl1bT0hdKVtDSDJdW09IXQ==

> <s_epik_cmdline>
J2VwaWtfcHl0aG9uJywgJy1waCcsICc3LjAnLCAnLXRuJywgJzgnLCAnLW1hJywgJzIwMCcsICctbWV0YWxfYmluZGluZycsICctaW1hZScsICc8aW5maWxlLm1hZT4nLCAnLW9tYWUnLCAnPG91dGZpbGUubWFlPic=

> <r_lp_tautomer_probability>
1

> <r_epik_Ionization_Penalty>
0.000545077

> <r_epik_Ionization_Penalty_Charging>
0

> <r_epik_Ionization_Penalty_Neutral>
0.000545077

> <r_epik_State_Penalty>
0.000259443

> <r_epik_Charging_Adjusted_Penalty>
0.000259443

> <i_epik_Tot_Q>
0

> <i_epik_Tot_abs_Q>
0

> <r_epik_Metal_State_Penalty>
-0

> <b_epik_Metal_Only>
0

> <s_lp_Force_Field>
OPLS_2005

> <r_lp_Energy>
36.5324

> <b_lp_Chiralities_Consistent>
1

> <s_lp_Variant>
AV-unprocessed.smi:192-1

> <Gold.Version>
5.8.1

> <Gold.Id.Protein>
6NUR|6NUR_protein|mol2

> <Gold.PLP.Fitness>
49.0298

> <Gold.PLP.PLP>
-42.4174

> <Gold.PLP.part.hbond>
-4.1633

> <Gold.PLP.part.metal>
0.0000

> <Gold.PLP.part.buried>
-7.5573

> <Gold.PLP.part.nonpolar>
-30.9055

> <Gold.PLP.part.repulsive>
0.1850

> <Gold.PLP.ligand.clash>
0.0232

> <Gold.PLP.ligand.torsion>
3.2715

> <Gold.PLP.Chemscore.Hbond>
3.7440

> <Gold.PLP.Chemscore.CHOScore>
0.0000

> <Gold.PLP.Chemscore.Metal>
0.0000

> <Gold.Chemscore.Hbonds>
donor molecule, donor type, donor heavy atom, donor atom, acceptor molecule, acceptor atom, score
      L1  H    25    53       P1 10186  1.00
      L1  H    27    56       P1 10747  1.00
      P1  H  6931  6943       L1    11  0.86
      P1  H  6934  6947       L1    11  0.70

> <Gold.PLP.Chemscore.Internal.Correction>
1.9465

> <Gold.Rescore>
     Score         DG    S(hbond)    S(metal)    S(lipo)     H(rot)  DE(clash)    DE(int)     intcor
     12.87     -17.20       3.71        0.00      87.70       4.27       0.09       4.23       ----

> <Gold.Chemscore.Fitness>
12.8704

> <Gold.Chemscore.DG>
-17.1952

> <Gold.Chemscore.ZeroCoef>
-5.4800

> <Gold.Chemscore.Hbond>
3.7053

> <Gold.Chemscore.Metal>
0.0000

> <Gold.Chemscore.Lipo>
87.7046

> <Gold.Chemscore.Internal_Hbond>
0.0000

> <Gold.Chemscore.DEClash>
0.0941

> <Gold.Chemscore.DEInternal>
4.2307

> <Gold.Chemscore.Rot>
4.2663

> <Gold.Chemscore.Internal.Correction>
   9.000000E+99

> <Gold.Chemscore.Hbonds>
donor molecule, donor type, donor heavy atom, donor atom, acceptor molecule, acceptor atom, score
      L1  H    25    53       P1 10186  0.98
      L1  H    27    56       P1 10747  0.99
      P1  H  6931  6943       L1    11  0.79
      P1  H  6934  6947       L1    11  0.68

> <Gold.Chemscore.Hbond.Weighted>
-12.3756

> <Gold.Chemscore.Metal.Weighted>
-0.0000

> <Gold.Chemscore.Lipo.Weighted>
-10.2614

> <Gold.Chemscore.Internal_Hbond.Weighted>
0.0000

> <Gold.Chemscore.DEClash.Weighted>
0.0941

> <Gold.Chemscore.DEInternal.Weighted>
4.2307

> <Gold.Chemscore.Rot.Weighted>
10.9218

> <Gold.Chemscore.Internal.Correction.Weighted>
   9.000000E+99

> <Gold.Protein.RotatedTorsions>
[ 6907 6896 6895 6894 ] final -114.90 input  -60.11 | X-H torsion
[ 7974 7965 7964 7962 ] final   27.11 input  175.53 | X-H torsion
[ 8008 7997 7996 7995 ] final -168.76 input   59.86 | X-H torsion
[ 10167 10162 10161 10158 ] final  -21.27 input  -65.29 | X-H torsion
[ 10718 10713 10712 10709 ] final -135.74 input   66.30 | X-H torsion
[ 10763 10752 10751 10750 ] final  155.04 input  -60.55 | X-H torsion
[ 11005 11000 10999 10996 ] final   85.46 input  -57.11 | X-H torsion

> <Gold.Protein.ActiveResidues>
 VAL166  LYS551  ARG553  GLY616  TRP617  ASP618  TYR619  PRO620  LYS621  CYS622 
 ASP623  PHE694  ASN695  SER759  ASP760  ASP761  ALA762  ILE779  LEU786  VAL792 
 PHE793  MET794  SER795  GLU796  ALA797  LYS798  CYS799  TRP800  GLU811  SER814 

> <Gold.Protein.RotatedAtoms>
  150.7937  133.8735  159.3265 H   0  0  0  0  0  0  0  0  0  0  0  0  # atno 6907 bound_to 6896
  151.6566  135.0993  160.0181 H   0  0  0  0  0  0  0  0  0  0  0  0  # atno 6908 bound_to 6896
  152.4015  133.6786  159.6355 H   0  0  0  0  0  0  0  0  0  0  0  0  # atno 6909 bound_to 6896
  146.1802  139.7236  142.8906 H   0  0  0  0  0  0  0  0  0  0  0  0  # atno 7974 bound_to 7965
  155.8958  140.1032  157.1386 H   0  0  0  0  0  0  0  0  0  0  0  0  # atno 8008 bound_to 7997
  154.4020  140.1302  156.4437 H   0  0  0  0  0  0  0  0  0  0  0  0  # atno 8009 bound_to 7997
  155.7481  140.3465  155.5139 H   0  0  0  0  0  0  0  0  0  0  0  0  # atno 8010 bound_to 7997
  140.7281  143.4643  151.0335 H   0  0  0  0  0  0  0  0  0  0  0  0  # atno 10167 bound_to 10162
  156.2695  130.7257  151.1219 H   0  0  0  0  0  0  0  0  0  0  0  0  # atno 10718 bound_to 10713
  154.1620  135.2809  155.3106 H   0  0  0  0  0  0  0  0  0  0  0  0  # atno 10763 bound_to 10752
  154.6140  135.5489  153.7506 H   0  0  0  0  0  0  0  0  0  0  0  0  # atno 10764 bound_to 10752
  153.0189  135.6422  154.1762 H   0  0  0  0  0  0  0  0  0  0  0  0  # atno 10765 bound_to 10752
  139.8971  134.8288  156.2585 H   0  0  0  0  0  0  0  0  0  0  0  0  # atno 11005 bound_to 11000
  145.4098  141.0395  143.3023 LP  0  0  0  0  0  0  0  0  0  0  0  0  # atno 17320 bound_to 7965
  144.8302  139.5641  143.6947 LP  0  0  0  0  0  0  0  0  0  0  0  0  # atno 17321 bound_to 7965
  139.8330  143.7665  152.3180 LP  0  0  0  0  0  0  0  0  0  0  0  0  # atno 17342 bound_to 10162
  139.7787  144.7452  151.0119 LP  0  0  0  0  0  0  0  0  0  0  0  0  # atno 17343 bound_to 10162
  157.7279  131.0636  150.5845 LP  0  0  0  0  0  0  0  0  0  0  0  0  # atno 17370 bound_to 10713
  156.5940  130.4337  149.5924 LP  0  0  0  0  0  0  0  0  0  0  0  0  # atno 17371 bound_to 10713
  141.0177  133.7059  156.1217 LP  0  0  0  0  0  0  0  0  0  0  0  0  # atno 17394 bound_to 11000
  140.7277  134.4288  157.5569 LP  0  0  0  0  0  0  0  0  0  0  0  0  # atno 17395 bound_to 11000

$$$$
