AV-unprocessed.smi:1111|AV-procd|sdf|4794|dock1
  -GOLD-   22720 3343D 1   1.00000     0.00000
 Structure written by MMmdl.
 33 34  0  0  0  0  0  0  0  0  2 V2000
  149.2755  131.4759  154.2189 C   0  0  0  0  0  0  0  0  0  0  0  0
  148.7140  132.8360  154.6849 C   0  0  1  0  0  0  0  0  0  0  0  0
  148.0996  133.5536  153.5593 N   0  0  0  0  0  0  0  0  0  0  0  0
  147.1237  133.1332  152.7351 C   0  0  0  0  0  0  0  0  0  0  0  0
  146.5681  132.0394  152.8252 O   0  0  0  0  0  0  0  0  0  0  0  0
  146.7029  134.1058  151.6336 C   0  0  0  0  0  0  0  0  0  0  0  0
  145.5806  133.5728  150.8563 N   0  0  0  0  0  0  0  0  0  0  0  0
  145.5662  132.4377  150.0862 C   0  0  0  0  0  0  0  0  0  0  0  0
  144.3075  132.3447  149.5504 C   0  0  0  0  0  0  0  0  0  0  0  0
  143.6078  133.4270  150.0136 N   0  3  0  0  0  0  0  0  0  0  0  0
  144.3836  134.1730  150.8067 C   0  0  0  0  0  0  0  0  0  0  0  0
  147.6077  132.6137  155.7443 C   0  0  0  0  0  0  0  0  0  0  0  0
  147.3262  133.9277  156.4842 C   0  0  0  0  0  0  0  0  0  0  0  0
  148.9202  134.8254  156.5246 S   0  0  0  0  0  0  0  0  0  0  0  0
  148.7414  136.1379  155.8851 O   0  0  0  0  0  0  0  0  0  0  0  0
  149.5209  134.7083  157.8617 O   0  0  0  0  0  0  0  0  0  0  0  0
  149.7965  133.7007  155.3718 C   0  0  0  0  0  0  0  0  0  0  0  0
  149.6465  130.8922  155.0620 H   0  0  0  0  0  0  0  0  0  0  0  0
  150.1076  131.5923  153.5248 H   0  0  0  0  0  0  0  0  0  0  0  0
  148.5088  130.8806  153.7222 H   0  0  0  0  0  0  0  0  0  0  0  0
  148.4758  134.4731  153.3790 H   0  0  0  0  0  0  0  0  0  0  0  0
  146.4052  135.0664  152.0572 H   0  0  0  0  0  0  0  0  0  0  0  0
  147.5376  134.2932  150.9563 H   0  0  0  0  0  0  0  0  0  0  0  0
  146.4297  131.7970  149.9798 H   0  0  0  0  0  0  0  0  0  0  0  0
  143.8689  131.6094  148.8917 H   0  0  0  0  0  0  0  0  0  0  0  0
  144.1003  135.0823  151.3068 H   0  0  0  0  0  0  0  0  0  0  0  0
  146.6972  132.1983  155.3103 H   0  0  0  0  0  0  0  0  0  0  0  0
  147.9584  131.8851  156.4770 H   0  0  0  0  0  0  0  0  0  0  0  0
  146.6078  134.5389  155.9378 H   0  0  0  0  0  0  0  0  0  0  0  0
  146.9539  133.7743  157.4971 H   0  0  0  0  0  0  0  0  0  0  0  0
  150.4568  133.0770  155.9751 H   0  0  0  0  0  0  0  0  0  0  0  0
  150.4225  134.2771  154.6911 H   0  0  0  0  0  0  0  0  0  0  0  0
  142.6427  133.6352  149.7896 H   0  0  0  0  0  0  0  0  0  0  0  0
  1  2  1  0  0  0  0
  1 18  1  0  0  0  0
  1 19  1  0  0  0  0
  1 20  1  0  0  0  0
  2 17  1  0  0  0  0
  2  3  1  0  0  0  0
  2 12  1  0  0  0  0
  3  4  1  0  0  0  0
  3 21  1  0  0  0  0
  4  5  2  0  0  0  0
  4  6  1  0  0  0  0
  6  7  1  0  0  0  0
  6 22  1  0  0  0  0
  6 23  1  0  0  0  0
  7 11  1  0  0  0  0
  7  8  1  0  0  0  0
  8  9  2  0  0  0  0
  8 24  1  0  0  0  0
  9 10  1  0  0  0  0
  9 25  1  0  0  0  0
 10 11  2  0  0  0  0
 10 33  1  0  0  0  0
 11 26  1  0  0  0  0
 12 13  1  0  0  0  0
 12 27  1  0  0  0  0
 12 28  1  0  0  0  0
 13 14  1  0  0  0  0
 13 29  1  0  0  0  0
 13 30  1  0  0  0  0
 14 15  2  0  0  0  0
 14 16  2  0  0  0  0
 14 17  1  0  0  0  0
 17 31  1  0  0  0  0
 17 32  1  0  0  0  0
M  CHG  1  10   1
M  END
> <s_m_source_file>
AV-unprocessed.smi

> <i_m_source_file_index>
1111

> <i_lp_mmshare_version>
43012

> <i_f3d_flags>
0

> <s_epik_input>
Tz1TKD1PKShbQ0gyXTEpW0NIMl1bQ0gyXVtDQEBdMShbQ0gzXSlbTkhdQyg9TylbQ0gyXW4yW2NIXVtjSF1uW2NIXTI=

> <s_epik_cmdline>
J2VwaWtfcHl0aG9uJywgJy1waCcsICc3LjAnLCAnLXRuJywgJzgnLCAnLW1hJywgJzIwMCcsICctbWV0YWxfYmluZGluZycsICctaW1hZScsICc8aW5maWxlLm1hZT4nLCAnLW9tYWUnLCAnPG91dGZpbGUubWFlPic=

> <r_lp_tautomer_probability>
1

> <r_epik_Ionization_Penalty>
0.638881

> <r_epik_Ionization_Penalty_Charging>
0

> <r_epik_Ionization_Penalty_Neutral>
0.638881

> <r_epik_State_Penalty>
0.656385

> <r_epik_Charging_Adjusted_Penalty>
0.656385

> <i_epik_Tot_Q>
1

> <i_epik_Tot_abs_Q>
1

> <r_epik_Metal_State_Penalty>
0.832701

> <b_epik_Metal_Only>
0

> <s_lp_Force_Field>
OPLS_2005

> <r_lp_Energy>
7.94824

> <b_lp_Chiralities_Consistent>
1

> <s_lp_Variant>
AV-unprocessed.smi:1111-3

> <Gold.Version>
5.8.1

> <Gold.Id.Protein>
6NUR|6NUR_protein|mol2

> <Gold.PLP.Fitness>
38.8020

> <Gold.PLP.PLP>
-24.8261

> <Gold.PLP.part.hbond>
-2.9136

> <Gold.PLP.part.metal>
0.0000

> <Gold.PLP.part.buried>
-3.3349

> <Gold.PLP.part.nonpolar>
-18.9346

> <Gold.PLP.part.repulsive>
0.2403

> <Gold.PLP.ligand.clash>
0.0000

> <Gold.PLP.ligand.torsion>
0.0371

> <Gold.PLP.Chemscore.Hbond>
3.6829

> <Gold.PLP.Chemscore.CHOScore>
0.9949

> <Gold.PLP.Chemscore.Metal>
0.0000

> <Gold.Chemscore.Hbonds>
donor molecule, donor type, donor heavy atom, donor atom, acceptor molecule, acceptor atom, score
      L1  H     3    21       P1  7948  0.24
      L1  H    10    33       P1 10186  2.00
      P1  H  6896  6907       L1    16  1.00
      L1  C     8    24       P1 10747  0.53

> <Gold.PLP.Chemscore.Internal.Correction>
0.0169

> <Gold.Rescore>
     Score         DG    S(hbond)    S(metal)    S(lipo)     H(rot)  DE(clash)    DE(int)     intcor
     12.28     -13.82       2.14        0.00      49.06       1.78       0.20       1.35       ----

> <Gold.Chemscore.Fitness>
12.2769

> <Gold.Chemscore.DG>
-13.8231

> <Gold.Chemscore.ZeroCoef>
-5.4800

> <Gold.Chemscore.Hbond>
2.1427

> <Gold.Chemscore.Metal>
0.0000

> <Gold.Chemscore.Lipo>
49.0590

> <Gold.Chemscore.Internal_Hbond>
0.0000

> <Gold.Chemscore.DEClash>
0.2010

> <Gold.Chemscore.DEInternal>
1.3451

> <Gold.Chemscore.Rot>
1.7787

> <Gold.Chemscore.Internal.Correction>
   9.000000E+99

> <Gold.Chemscore.Hbonds>
donor molecule, donor type, donor heavy atom, donor atom, acceptor molecule, acceptor atom, score
      L1  H     3    21       P1  7948  0.10
      L1  H    10    33       P1 10186  1.00
      P1  H  6896  6907       L1    16  0.98

> <Gold.Chemscore.Hbond.Weighted>
-7.1567

> <Gold.Chemscore.Metal.Weighted>
-0.0000

> <Gold.Chemscore.Lipo.Weighted>
-5.7399

> <Gold.Chemscore.Internal_Hbond.Weighted>
0.0000

> <Gold.Chemscore.DEClash.Weighted>
0.2010

> <Gold.Chemscore.DEInternal.Weighted>
1.3451

> <Gold.Chemscore.Rot.Weighted>
4.5536

> <Gold.Chemscore.Internal.Correction.Weighted>
   9.000000E+99

> <Gold.Protein.RotatedTorsions>
[ 6907 6896 6895 6894 ] final  -95.10 input  -60.11 | X-H torsion
[ 7974 7965 7964 7962 ] final -152.68 input  175.53 | X-H torsion
[ 8008 7997 7996 7995 ] final -153.49 input   59.86 | X-H torsion
[ 10167 10162 10161 10158 ] final   52.36 input  -65.29 | X-H torsion
[ 10718 10713 10712 10709 ] final    2.84 input   66.30 | X-H torsion
[ 10763 10752 10751 10750 ] final   52.21 input  -60.55 | X-H torsion
[ 11005 11000 10999 10996 ] final  -93.20 input  -57.11 | X-H torsion

> <Gold.Protein.ActiveResidues>
 VAL166  LYS551  ARG553  GLY616  TRP617  ASP618  TYR619  PRO620  LYS621  CYS622 
 ASP623  PHE694  ASN695  SER759  ASP760  ASP761  ALA762  ILE779  LEU786  VAL792 
 PHE793  MET794  SER795  GLU796  ALA797  LYS798  CYS799  TRP800  GLU811  SER814 

> <Gold.Protein.RotatedAtoms>
  150.6956  134.1710  159.4211 H   0  0  0  0  0  0  0  0  0  0  0  0  # atno 6907 bound_to 6896
  151.9688  135.0085  160.0561 H   0  0  0  0  0  0  0  0  0  0  0  0  # atno 6908 bound_to 6896
  152.1861  133.4705  159.5020 H   0  0  0  0  0  0  0  0  0  0  0  0  # atno 6909 bound_to 6896
  144.7781  140.4629  143.5859 H   0  0  0  0  0  0  0  0  0  0  0  0  # atno 7974 bound_to 7965
  155.6716  140.0734  157.2518 H   0  0  0  0  0  0  0  0  0  0  0  0  # atno 8008 bound_to 7997
  154.4122  140.1698  156.1936 H   0  0  0  0  0  0  0  0  0  0  0  0  # atno 8009 bound_to 7997
  155.9612  140.3369  155.6495 H   0  0  0  0  0  0  0  0  0  0  0  0  # atno 8010 bound_to 7997
  140.2522  144.3466  150.6344 H   0  0  0  0  0  0  0  0  0  0  0  0  # atno 10167 bound_to 10162
  156.8689  130.5613  149.5658 H   0  0  0  0  0  0  0  0  0  0  0  0  # atno 10718 bound_to 10713
  152.9788  135.5820  154.4541 H   0  0  0  0  0  0  0  0  0  0  0  0  # atno 10763 bound_to 10752
  154.4126  135.2770  155.2029 H   0  0  0  0  0  0  0  0  0  0  0  0  # atno 10764 bound_to 10752
  154.3812  135.6146  153.5846 H   0  0  0  0  0  0  0  0  0  0  0  0  # atno 10765 bound_to 10752
  141.1503  133.7871  157.0126 H   0  0  0  0  0  0  0  0  0  0  0  0  # atno 11005 bound_to 11000
  145.6128  139.1515  143.3066 LP  0  0  0  0  0  0  0  0  0  0  0  0  # atno 17320 bound_to 7965
  146.1973  140.6243  142.9118 LP  0  0  0  0  0  0  0  0  0  0  0  0  # atno 17321 bound_to 7965
  140.6032  143.2167  151.7032 LP  0  0  0  0  0  0  0  0  0  0  0  0  # atno 17342 bound_to 10162
  139.5043  144.3760  152.0423 LP  0  0  0  0  0  0  0  0  0  0  0  0  # atno 17343 bound_to 10162
  156.0737  130.5764  150.9432 LP  0  0  0  0  0  0  0  0  0  0  0  0  # atno 17370 bound_to 10713
  157.6207  131.0930  150.8628 LP  0  0  0  0  0  0  0  0  0  0  0  0  # atno 17371 bound_to 10713
  140.0868  134.9616  157.1712 LP  0  0  0  0  0  0  0  0  0  0  0  0  # atno 17394 bound_to 11000
  140.3501  134.2608  155.7200 LP  0  0  0  0  0  0  0  0  0  0  0  0  # atno 17395 bound_to 11000

$$$$
