AV-unprocessed.smi:1483|AV-procd|sdf|5992|dock6
  -GOLD-   22720 6 83D 1   1.00000     0.00000
 Structure written by MMmdl.
 50 51  0  0  0  0  0  0  0  0  3 V2000
  151.0265  145.5668  158.8997 C   0  0  0  0  0  0  0  0  0  0  0  0
  151.2785  144.0845  158.7222 C   0  0  0  0  0  0  0  0  0  0  0  0
  152.2270  143.3835  159.4976 C   0  0  0  0  0  0  0  0  0  0  0  0
  152.4080  142.0017  159.2808 C   0  0  0  0  0  0  0  0  0  0  0  0
  151.6375  141.3475  158.2939 C   0  0  0  0  0  0  0  0  0  0  0  0
  151.8093  139.8612  158.0354 C   0  0  0  0  0  0  0  0  0  0  0  0
  151.7903  139.5802  156.5330 C   0  0  0  0  0  0  0  0  0  0  0  0
  152.8457  139.5668  155.9007 O   0  0  0  0  0  0  0  0  0  0  0  0
  150.5875  139.3472  155.9841 N   0  0  0  0  0  0  0  0  0  0  0  0
  150.3316  139.0280  154.5793 C   0  0  2  0  0  0  0  0  0  0  0  0
  148.8444  138.7071  154.3519 C   0  0  0  0  0  0  0  0  0  0  0  0
  148.4408  137.3567  154.9711 C   0  0  0  0  0  0  0  0  0  0  0  0
  149.3026  136.2542  154.4676 N   0  3  2  0  0  0  0  0  0  0  0  0
  148.8706  134.9111  154.9345 C   0  0  0  0  0  0  0  0  0  0  0  0
  149.5727  133.7562  154.1877 C   0  0  0  0  0  0  0  0  0  0  0  0
  148.6827  133.2284  153.0522 C   0  0  0  0  0  0  0  0  0  0  0  0
  149.9636  132.6121  155.1385 C   0  0  0  0  0  0  0  0  0  0  0  0
  150.7385  136.5124  154.7486 C   0  0  0  0  0  0  0  0  0  0  0  0
  151.2005  137.8424  154.1257 C   0  0  0  0  0  0  0  0  0  0  0  0
  150.7022  142.1005  157.5506 C   0  0  0  0  0  0  0  0  0  0  0  0
  150.5593  143.4227  157.7878 N   0  3  0  0  0  0  0  0  0  0  0  0
  151.8357  146.0367  159.4595 H   0  0  0  0  0  0  0  0  0  0  0  0
  150.0952  145.7288  159.4430 H   0  0  0  0  0  0  0  0  0  0  0  0
  150.9521  146.0637  157.9318 H   0  0  0  0  0  0  0  0  0  0  0  0
  152.8085  143.8964  160.2502 H   0  0  0  0  0  0  0  0  0  0  0  0
  153.1314  141.4530  159.8662 H   0  0  0  0  0  0  0  0  0  0  0  0
  152.7430  139.5054  158.4736 H   0  0  0  0  0  0  0  0  0  0  0  0
  151.0036  139.3094  158.5218 H   0  0  0  0  0  0  0  0  0  0  0  0
  149.7830  139.3857  156.5928 H   0  0  0  0  0  0  0  0  0  0  0  0
  150.5883  139.8865  153.9565 H   0  0  0  0  0  0  0  0  0  0  0  0
  148.2192  139.5062  154.7522 H   0  0  0  0  0  0  0  0  0  0  0  0
  148.6464  138.6776  153.2795 H   0  0  0  0  0  0  0  0  0  0  0  0
  148.5072  137.4052  156.0590 H   0  0  0  0  0  0  0  0  0  0  0  0
  147.3965  137.1615  154.7316 H   0  0  0  0  0  0  0  0  0  0  0  0
  149.0868  134.8063  155.9989 H   0  0  0  0  0  0  0  0  0  0  0  0
  147.7867  134.8299  154.8382 H   0  0  0  0  0  0  0  0  0  0  0  0
  150.4840  134.1304  153.7223 H   0  0  0  0  0  0  0  0  0  0  0  0
  147.7483  132.8187  153.4369 H   0  0  0  0  0  0  0  0  0  0  0  0
  149.1859  132.4390  152.4928 H   0  0  0  0  0  0  0  0  0  0  0  0
  148.4320  134.0201  152.3457 H   0  0  0  0  0  0  0  0  0  0  0  0
  149.0897  132.2005  155.6448 H   0  0  0  0  0  0  0  0  0  0  0  0
  150.6641  132.9483  155.9030 H   0  0  0  0  0  0  0  0  0  0  0  0
  150.4456  131.7987  154.5951 H   0  0  0  0  0  0  0  0  0  0  0  0
  150.9054  136.5174  155.8270 H   0  0  0  0  0  0  0  0  0  0  0  0
  151.3444  135.7030  154.3394 H   0  0  0  0  0  0  0  0  0  0  0  0
  151.1515  137.7606  153.0390 H   0  0  0  0  0  0  0  0  0  0  0  0
  152.2483  138.0264  154.3674 H   0  0  0  0  0  0  0  0  0  0  0  0
  150.0717  141.6887  156.7757 H   0  0  0  0  0  0  0  0  0  0  0  0
  149.2124  136.2451  153.4614 H   0  0  0  0  0  0  0  0  0  0  0  0
  149.8780  143.9456  157.2369 H   0  0  0  0  0  0  0  0  0  0  0  0
  1  2  1  0  0  0  0
  1 22  1  0  0  0  0
  1 23  1  0  0  0  0
  1 24  1  0  0  0  0
  2 21  1  0  0  0  0
  2  3  2  0  0  0  0
  3  4  1  0  0  0  0
  3 25  1  0  0  0  0
  4  5  2  0  0  0  0
  4 26  1  0  0  0  0
  5  6  1  0  0  0  0
  5 20  1  0  0  0  0
  6  7  1  0  0  0  0
  6 27  1  0  0  0  0
  6 28  1  0  0  0  0
  7  8  2  0  0  0  0
  7  9  1  0  0  0  0
  9 10  1  0  0  0  0
  9 29  1  0  0  0  0
 10 19  1  0  0  0  0
 10 11  1  0  0  0  0
 10 30  1  0  0  0  0
 11 12  1  0  0  0  0
 11 31  1  0  0  0  0
 11 32  1  0  0  0  0
 12 13  1  0  0  0  0
 12 33  1  0  0  0  0
 12 34  1  0  0  0  0
 13 14  1  0  0  0  0
 13 18  1  0  0  0  0
 13 49  1  0  0  0  0
 14 15  1  0  0  0  0
 14 35  1  0  0  0  0
 14 36  1  0  0  0  0
 15 16  1  0  0  0  0
 15 17  1  0  0  0  0
 15 37  1  0  0  0  0
 16 38  1  0  0  0  0
 16 39  1  0  0  0  0
 16 40  1  0  0  0  0
 17 41  1  0  0  0  0
 17 42  1  0  0  0  0
 17 43  1  0  0  0  0
 18 19  1  0  0  0  0
 18 44  1  0  0  0  0
 18 45  1  0  0  0  0
 19 46  1  0  0  0  0
 19 47  1  0  0  0  0
 20 21  2  0  0  0  0
 20 48  1  0  0  0  0
 21 50  1  0  0  0  0
M  CHG  1  13   1
M  CHG  1  21   1
M  END
> <s_m_source_file>
AV-unprocessed.smi

> <i_m_source_file_index>
1483

> <i_lp_mmshare_version>
43012

> <i_f3d_flags>
0

> <s_epik_input>
W0NIM11jMVtjSF1bY0hdYyhbY0hdbjEpW0NIMl1DKD1PKVtOSF1bQ0hdMltDSDJdW0NIMl1OKFtDSDJdW0NIMl0yKVtDSDJdW0NIXShbQ0gzXSlbQ0gzXQ==

> <s_epik_cmdline>
J2VwaWtfcHl0aG9uJywgJy1waCcsICc3LjAnLCAnLXRuJywgJzgnLCAnLW1hJywgJzIwMCcsICctbWV0YWxfYmluZGluZycsICctaW1hZScsICc8aW5maWxlLm1hZT4nLCAnLW9tYWUnLCAnPG91dGZpbGUubWFlPic=

> <r_epik_Ionization_Penalty>
2.20554

> <r_epik_Ionization_Penalty_Charging>
2.20554

> <r_epik_Ionization_Penalty_Neutral>
2.83835e-07

> <r_epik_State_Penalty>
2.34446

> <r_epik_Charging_Adjusted_Penalty>
4.55

> <i_epik_Tot_Q>
2

> <i_epik_Tot_abs_Q>
2

> <r_epik_Metal_State_Penalty>
2.35906

> <b_epik_Metal_Only>
0

> <s_lp_Force_Field>
OPLS_2005

> <r_lp_Energy>
28.5447

> <b_lp_Chiralities_Consistent>
1

> <s_lp_Variant>
AV-unprocessed.smi:1483-4

> <Gold.Version>
5.8.1

> <Gold.Id.Protein>
6NUR|6NUR_protein|mol2

> <Gold.PLP.Fitness>
54.6817

> <Gold.PLP.PLP>
-42.1126

> <Gold.PLP.part.hbond>
-2.9985

> <Gold.PLP.part.metal>
0.0000

> <Gold.PLP.part.buried>
-2.4490

> <Gold.PLP.part.nonpolar>
-36.3540

> <Gold.PLP.part.repulsive>
0.0851

> <Gold.PLP.ligand.clash>
0.0000

> <Gold.PLP.ligand.torsion>
1.2480

> <Gold.PLP.Chemscore.Hbond>
5.0000

> <Gold.PLP.Chemscore.CHOScore>
0.0000

> <Gold.PLP.Chemscore.Metal>
0.0000

> <Gold.Chemscore.Hbonds>
donor molecule, donor type, donor heavy atom, donor atom, acceptor molecule, acceptor atom, score
      L1  H    13    49       P1  7948  2.00
      L1  H    21    50       P1  8028  2.00
      P1  H  7997  8009       L1     8  1.00

> <Gold.PLP.Chemscore.Internal.Correction>
0.0651

> <Gold.Rescore>
     Score         DG    S(hbond)    S(metal)    S(lipo)     H(rot)  DE(clash)    DE(int)     intcor
     22.04     -24.12       2.89        0.00     110.80       1.55       0.12       1.96       ----

> <Gold.Chemscore.Fitness>
22.0416

> <Gold.Chemscore.DG>
-24.1176

> <Gold.Chemscore.ZeroCoef>
-5.4800

> <Gold.Chemscore.Hbond>
2.8883

> <Gold.Chemscore.Metal>
0.0000

> <Gold.Chemscore.Lipo>
110.8010

> <Gold.Chemscore.Internal_Hbond>
0.0000

> <Gold.Chemscore.DEClash>
0.1190

> <Gold.Chemscore.DEInternal>
1.9571

> <Gold.Chemscore.Rot>
1.5520

> <Gold.Chemscore.Internal.Correction>
   9.000000E+99

> <Gold.Chemscore.Hbonds>
donor molecule, donor type, donor heavy atom, donor atom, acceptor molecule, acceptor atom, score
      L1  H    13    49       P1  7948  0.89
      L1  H    21    50       P1  8028  0.75
      P1  H  7997  8009       L1     8  1.00

> <Gold.Chemscore.Hbond.Weighted>
-9.6469

> <Gold.Chemscore.Metal.Weighted>
-0.0000

> <Gold.Chemscore.Lipo.Weighted>
-12.9637

> <Gold.Chemscore.Internal_Hbond.Weighted>
0.0000

> <Gold.Chemscore.DEClash.Weighted>
0.1190

> <Gold.Chemscore.DEInternal.Weighted>
1.9571

> <Gold.Chemscore.Rot.Weighted>
3.9730

> <Gold.Chemscore.Internal.Correction.Weighted>
   9.000000E+99

> <Gold.Protein.RotatedTorsions>
[ 6907 6896 6895 6894 ] final -170.70 input  -60.11 | X-H torsion
[ 7974 7965 7964 7962 ] final -135.66 input  175.53 | X-H torsion
[ 8008 7997 7996 7995 ] final -165.34 input   59.86 | X-H torsion
[ 10167 10162 10161 10158 ] final   33.25 input  -65.29 | X-H torsion
[ 10718 10713 10712 10709 ] final -148.54 input   66.30 | X-H torsion
[ 10763 10752 10751 10750 ] final   64.23 input  -60.55 | X-H torsion
[ 11005 11000 10999 10996 ] final  -65.40 input  -57.11 | X-H torsion

> <Gold.Protein.ActiveResidues>
 VAL166  LYS551  ARG553  GLY616  TRP617  ASP618  TYR619  PRO620  LYS621  CYS622 
 ASP623  PHE694  ASN695  SER759  ASP760  ASP761  ALA762  ILE779  LEU786  VAL792 
 PHE793  MET794  SER795  GLU796  ALA797  LYS798  CYS799  TRP800  GLU811  SER814 

> <Gold.Protein.RotatedAtoms>
  151.5119  133.3483  159.2886 H   0  0  0  0  0  0  0  0  0  0  0  0  # atno 6907 bound_to 6896
  150.8706  134.8082  159.7163 H   0  0  0  0  0  0  0  0  0  0  0  0  # atno 6908 bound_to 6896
  152.4696  134.5003  159.9774 H   0  0  0  0  0  0  0  0  0  0  0  0  # atno 6909 bound_to 6896
  144.8994  140.6751  143.5094 H   0  0  0  0  0  0  0  0  0  0  0  0  # atno 7974 bound_to 7965
  155.8484  140.0959  157.1690 H   0  0  0  0  0  0  0  0  0  0  0  0  # atno 8008 bound_to 7997
  154.3984  140.1388  156.3876 H   0  0  0  0  0  0  0  0  0  0  0  0  # atno 8009 bound_to 7997
  155.7988  140.3453  155.5393 H   0  0  0  0  0  0  0  0  0  0  0  0  # atno 8010 bound_to 7997
  140.4424  144.1168  150.6176 H   0  0  0  0  0  0  0  0  0  0  0  0  # atno 10167 bound_to 10162
  156.4215  130.8031  151.2254 H   0  0  0  0  0  0  0  0  0  0  0  0  # atno 10718 bound_to 10713
  153.0048  135.5400  154.6477 H   0  0  0  0  0  0  0  0  0  0  0  0  # atno 10763 bound_to 10752
  154.5717  135.2842  155.0823 H   0  0  0  0  0  0  0  0  0  0  0  0  # atno 10764 bound_to 10752
  154.1986  135.6488  153.5133 H   0  0  0  0  0  0  0  0  0  0  0  0  # atno 10765 bound_to 10752
  141.1453  133.6681  156.5980 H   0  0  0  0  0  0  0  0  0  0  0  0  # atno 11005 bound_to 11000
  145.3642  139.1674  143.4367 LP  0  0  0  0  0  0  0  0  0  0  0  0  # atno 17320 bound_to 7965
  146.3100  140.3708  142.8674 LP  0  0  0  0  0  0  0  0  0  0  0  0  # atno 17321 bound_to 7965
  140.4303  143.2571  151.9604 LP  0  0  0  0  0  0  0  0  0  0  0  0  # atno 17342 bound_to 10162
  139.4790  144.5750  151.8026 LP  0  0  0  0  0  0  0  0  0  0  0  0  # atno 17343 bound_to 10162
  157.7508  131.0226  150.3801 LP  0  0  0  0  0  0  0  0  0  0  0  0  # atno 17370 bound_to 10713
  156.4119  130.3936  149.6885 LP  0  0  0  0  0  0  0  0  0  0  0  0  # atno 17371 bound_to 10713
  140.3711  134.7605  157.4599 LP  0  0  0  0  0  0  0  0  0  0  0  0  # atno 17394 bound_to 11000
  140.0710  134.5862  155.8642 LP  0  0  0  0  0  0  0  0  0  0  0  0  # atno 17395 bound_to 11000

$$$$
