AV-unprocessed.smi:1679|AV-procd|sdf|6732|dock5
  -GOLD-   22720 7473D 1   1.00000     0.00000
 Structure written by MMmdl.
 45 46  0  0  0  0  0  0  0  0  1 V2000
  153.5840  141.6331  160.6322 C   0  0  0  0  0  0  0  0  0  0  0  0
  152.3251  142.3229  160.0818 C   0  0  1  0  0  0  0  0  0  0  0  0
  152.4917  143.8553  160.1045 C   0  0  0  0  0  0  0  0  0  0  0  0
  151.2450  144.5707  159.5653 C   0  0  0  0  0  0  0  0  0  0  0  0
  150.9115  144.0931  158.1465 C   0  0  0  0  0  0  0  0  0  0  0  0
  150.7379  142.5689  158.1047 C   0  0  0  0  0  0  0  0  0  0  0  0
  151.9737  141.8254  158.6605 C   0  0  2  0  0  0  0  0  0  0  0  0
  151.6824  140.4373  158.7608 O   0  0  0  0  0  0  0  0  0  0  0  0
  151.0783  139.8620  157.6097 C   0  0  0  0  0  0  0  0  0  0  0  0
  151.2766  138.3376  157.6617 C   0  0  0  0  0  0  0  0  0  0  0  0
  150.0062  137.6360  157.8171 N   0  0  0  0  0  0  0  0  0  0  0  0
  149.6533  136.8823  158.8695 C   0  0  0  0  0  0  0  0  0  0  0  0
  150.3311  136.7811  159.8917 O   0  0  0  0  0  0  0  0  0  0  0  0
  148.3384  136.1081  158.7369 C   0  0  0  0  0  0  0  0  0  0  0  0
  148.0914  135.2957  159.9362 N   0  0  0  0  0  0  0  0  0  0  0  0
  148.1266  133.9105  159.8520 C   0  0  0  0  0  0  0  0  0  0  0  0
  147.9495  133.0922  160.9161 C   0  0  0  0  0  0  0  0  0  0  0  0
  147.7064  133.6487  162.2423 C   0  0  0  0  0  0  0  0  0  0  0  0
  147.5419  132.9918  163.2677 O   0  0  0  0  0  0  0  0  0  0  0  0
  147.6767  135.0450  162.2869 N   0  0  0  0  0  0  0  0  0  0  0  0
  147.8591  135.8944  161.1941 C   0  0  0  0  0  0  0  0  0  0  0  0
  147.8216  137.1142  161.3486 O   0  0  0  0  0  0  0  0  0  0  0  0
  147.5145  135.4766  163.1851 H   0  0  0  0  0  0  0  0  0  0  0  0
  154.4532  141.8377  160.0068 H   0  0  0  0  0  0  0  0  0  0  0  0
  153.4566  140.5514  160.6805 H   0  0  0  0  0  0  0  0  0  0  0  0
  153.8113  141.9789  161.6408 H   0  0  0  0  0  0  0  0  0  0  0  0
  151.4938  142.0703  160.7422 H   0  0  0  0  0  0  0  0  0  0  0  0
  152.6913  144.1936  161.1219 H   0  0  0  0  0  0  0  0  0  0  0  0
  153.3597  144.1413  159.5091 H   0  0  0  0  0  0  0  0  0  0  0  0
  150.3983  144.3817  160.2261 H   0  0  0  0  0  0  0  0  0  0  0  0
  151.4044  145.6492  159.5668 H   0  0  0  0  0  0  0  0  0  0  0  0
  150.0003  144.5788  157.7959 H   0  0  0  0  0  0  0  0  0  0  0  0
  151.7064  144.3905  157.4615 H   0  0  0  0  0  0  0  0  0  0  0  0
  149.8637  142.2925  158.6910 H   0  0  0  0  0  0  0  0  0  0  0  0
  150.5230  142.2664  157.0806 H   0  0  0  0  0  0  0  0  0  0  0  0
  152.8323  141.9841  158.0051 H   0  0  0  0  0  0  0  0  0  0  0  0
  150.0146  140.0892  157.5560 H   0  0  0  0  0  0  0  0  0  0  0  0
  151.5342  140.2771  156.7102 H   0  0  0  0  0  0  0  0  0  0  0  0
  151.7923  137.9869  156.7667 H   0  0  0  0  0  0  0  0  0  0  0  0
  151.9078  138.0785  158.5118 H   0  0  0  0  0  0  0  0  0  0  0  0
  149.3782  137.6619  157.0269 H   0  0  0  0  0  0  0  0  0  0  0  0
  147.5219  136.8108  158.5608 H   0  0  0  0  0  0  0  0  0  0  0  0
  148.3646  135.4753  157.8479 H   0  0  0  0  0  0  0  0  0  0  0  0
  148.3134  133.4544  158.8900 H   0  0  0  0  0  0  0  0  0  0  0  0
  147.9933  132.0204  160.7860 H   0  0  0  0  0  0  0  0  0  0  0  0
  1  2  1  0  0  0  0
  1 24  1  0  0  0  0
  1 25  1  0  0  0  0
  1 26  1  0  0  0  0
  2  7  1  0  0  0  0
  2  3  1  0  0  0  0
  2 27  1  0  0  0  0
  3  4  1  0  0  0  0
  3 28  1  0  0  0  0
  3 29  1  0  0  0  0
  4  5  1  0  0  0  0
  4 30  1  0  0  0  0
  4 31  1  0  0  0  0
  5  6  1  0  0  0  0
  5 32  1  0  0  0  0
  5 33  1  0  0  0  0
  6  7  1  0  0  0  0
  6 34  1  0  0  0  0
  6 35  1  0  0  0  0
  7  8  1  0  0  0  0
  7 36  1  0  0  0  0
  8  9  1  0  0  0  0
  9 10  1  0  0  0  0
  9 37  1  0  0  0  0
  9 38  1  0  0  0  0
 10 11  1  0  0  0  0
 10 39  1  0  0  0  0
 10 40  1  0  0  0  0
 11 12  1  0  0  0  0
 11 41  1  0  0  0  0
 12 13  2  0  0  0  0
 12 14  1  0  0  0  0
 14 15  1  0  0  0  0
 14 42  1  0  0  0  0
 14 43  1  0  0  0  0
 15 21  1  0  0  0  0
 15 16  1  0  0  0  0
 16 17  2  0  0  0  0
 16 44  1  0  0  0  0
 17 18  1  0  0  0  0
 17 45  1  0  0  0  0
 18 19  2  0  0  0  0
 18 20  1  0  0  0  0
 20 23  1  0  0  0  0
 20 21  1  0  0  0  0
 21 22  2  0  0  0  0
M  END
> <s_m_source_file>
AV-unprocessed.smi

> <i_m_source_file_index>
1679

> <i_lp_mmshare_version>
43012

> <i_f3d_flags>
0

> <s_epik_input>
W0NIM11bQ0BASF0xW0NIMl1bQ0gyXVtDSDJdW0NIMl1bQ0BIXTFPW0NIMl1bQ0gyXVtOSF1DKD1PKVtDSDJdbjJbY0hdW2NIXWMoPU8pW25IXWMyPU8=

> <s_epik_cmdline>
J2VwaWtfcHl0aG9uJywgJy1waCcsICc3LjAnLCAnLXRuJywgJzgnLCAnLW1hJywgJzIwMCcsICctbWV0YWxfYmluZGluZycsICctaW1hZScsICc8aW5maWxlLm1hZT4nLCAnLW9tYWUnLCAnPG91dGZpbGUubWFlPic=

> <r_lp_tautomer_probability>
0.999537

> <r_epik_Ionization_Penalty>
0.0033132

> <r_epik_Ionization_Penalty_Charging>
0.00331317

> <r_epik_Ionization_Penalty_Neutral>
2.78599e-08

> <r_epik_State_Penalty>
0.002342

> <r_epik_Charging_Adjusted_Penalty>
0.00565517

> <i_epik_Tot_Q>
0

> <i_epik_Tot_abs_Q>
0

> <r_epik_Metal_State_Penalty>
0.365595

> <b_epik_Metal_Only>
0

> <s_lp_Force_Field>
OPLS_2005

> <r_lp_Energy>
10.1003

> <b_lp_Chiralities_Consistent>
1

> <s_lp_Variant>
AV-unprocessed.smi:1679-4

> <Gold.Version>
5.8.1

> <Gold.Id.Protein>
6NUR|6NUR_protein|mol2

> <Gold.PLP.Fitness>
47.9188

> <Gold.PLP.PLP>
-41.1724

> <Gold.PLP.part.hbond>
-4.1176

> <Gold.PLP.part.metal>
0.0000

> <Gold.PLP.part.buried>
-4.2913

> <Gold.PLP.part.nonpolar>
-33.3142

> <Gold.PLP.part.repulsive>
0.1435

> <Gold.PLP.ligand.clash>
0.0000

> <Gold.PLP.ligand.torsion>
0.5810

> <Gold.PLP.Chemscore.Hbond>
2.6069

> <Gold.PLP.Chemscore.CHOScore>
0.0000

> <Gold.PLP.Chemscore.Metal>
0.0000

> <Gold.Chemscore.Hbonds>
donor molecule, donor type, donor heavy atom, donor atom, acceptor molecule, acceptor atom, score
      P1  H  6896  6907       L1    13  1.00
      P1  H  6931  6943       L1    22  1.00
      P1  H  6934  6947       L1    22  0.74

> <Gold.PLP.Chemscore.Internal.Correction>
0.0879

> <Gold.Rescore>
     Score         DG    S(hbond)    S(metal)    S(lipo)     H(rot)  DE(clash)    DE(int)     intcor
     16.82     -18.25       2.53        0.00      91.97       2.52       0.06       1.38       ----

> <Gold.Chemscore.Fitness>
16.8223

> <Gold.Chemscore.DG>
-18.2544

> <Gold.Chemscore.ZeroCoef>
-5.4800

> <Gold.Chemscore.Hbond>
2.5334

> <Gold.Chemscore.Metal>
0.0000

> <Gold.Chemscore.Lipo>
91.9657

> <Gold.Chemscore.Internal_Hbond>
0.0000

> <Gold.Chemscore.DEClash>
0.0550

> <Gold.Chemscore.DEInternal>
1.3771

> <Gold.Chemscore.Rot>
2.5185

> <Gold.Chemscore.Internal.Correction>
   9.000000E+99

> <Gold.Chemscore.Hbonds>
donor molecule, donor type, donor heavy atom, donor atom, acceptor molecule, acceptor atom, score
      P1  H  6896  6907       L1    13  0.65
      P1  H  6931  6943       L1    22  0.97
      P1  H  6934  6947       L1    22  0.70

> <Gold.Chemscore.Hbond.Weighted>
-8.4617

> <Gold.Chemscore.Metal.Weighted>
-0.0000

> <Gold.Chemscore.Lipo.Weighted>
-10.7600

> <Gold.Chemscore.Internal_Hbond.Weighted>
0.0000

> <Gold.Chemscore.DEClash.Weighted>
0.0550

> <Gold.Chemscore.DEInternal.Weighted>
1.3771

> <Gold.Chemscore.Rot.Weighted>
6.4472

> <Gold.Chemscore.Internal.Correction.Weighted>
   9.000000E+99

> <Gold.Protein.RotatedTorsions>
[ 6907 6896 6895 6894 ] final  -24.12 input  -60.11 | X-H torsion
[ 7974 7965 7964 7962 ] final -157.07 input  175.53 | X-H torsion
[ 8008 7997 7996 7995 ] final   81.89 input   59.86 | X-H torsion
[ 10167 10162 10161 10158 ] final   81.79 input  -65.29 | X-H torsion
[ 10718 10713 10712 10709 ] final  -11.52 input   66.30 | X-H torsion
[ 10763 10752 10751 10750 ] final    0.86 input  -60.55 | X-H torsion
[ 11005 11000 10999 10996 ] final  -69.08 input  -57.11 | X-H torsion

> <Gold.Protein.ActiveResidues>
 VAL166  LYS551  ARG553  GLY616  TRP617  ASP618  TYR619  PRO620  LYS621  CYS622 
 ASP623  PHE694  ASN695  SER759  ASP760  ASP761  ALA762  ILE779  LEU786  VAL792 
 PHE793  MET794  SER795  GLU796  ALA797  LYS798  CYS799  TRP800  GLU811  SER814 

> <Gold.Protein.RotatedAtoms>
  151.1942  135.0415  159.8844 H   0  0  0  0  0  0  0  0  0  0  0  0  # atno 6907 bound_to 6896
  152.5437  134.0922  159.8292 H   0  0  0  0  0  0  0  0  0  0  0  0  # atno 6908 bound_to 6896
  151.1055  133.5164  159.2640 H   0  0  0  0  0  0  0  0  0  0  0  0  # atno 6909 bound_to 6896
  144.7564  140.4020  143.6009 H   0  0  0  0  0  0  0  0  0  0  0  0  # atno 7974 bound_to 7965
  155.9032  140.3432  155.6042 H   0  0  0  0  0  0  0  0  0  0  0  0  # atno 8008 bound_to 7997
  155.7475  140.0815  157.2236 H   0  0  0  0  0  0  0  0  0  0  0  0  # atno 8009 bound_to 7997
  154.4046  140.1559  156.2673 H   0  0  0  0  0  0  0  0  0  0  0  0  # atno 8010 bound_to 7997
  139.9356  144.6124  150.8302 H   0  0  0  0  0  0  0  0  0  0  0  0  # atno 10167 bound_to 10162
  156.6578  130.4973  149.6040 H   0  0  0  0  0  0  0  0  0  0  0  0  # atno 10718 bound_to 10713
  153.3153  135.6965  153.7079 H   0  0  0  0  0  0  0  0  0  0  0  0  # atno 10763 bound_to 10752
  153.5940  135.3474  155.2922 H   0  0  0  0  0  0  0  0  0  0  0  0  # atno 10764 bound_to 10752
  154.8585  135.4324  154.2302 H   0  0  0  0  0  0  0  0  0  0  0  0  # atno 10765 bound_to 10752
  141.1546  133.6756  156.6544 H   0  0  0  0  0  0  0  0  0  0  0  0  # atno 11005 bound_to 11000
  145.6764  139.1609  143.2725 LP  0  0  0  0  0  0  0  0  0  0  0  0  # atno 17320 bound_to 7965
  146.1580  140.6830  142.9291 LP  0  0  0  0  0  0  0  0  0  0  0  0  # atno 17321 bound_to 7965
  140.7625  143.3201  151.2643 LP  0  0  0  0  0  0  0  0  0  0  0  0  # atno 17342 bound_to 10162
  139.6746  143.9959  152.2773 LP  0  0  0  0  0  0  0  0  0  0  0  0  # atno 17343 bound_to 10162
  156.2034  130.6634  151.1192 LP  0  0  0  0  0  0  0  0  0  0  0  0  # atno 17370 bound_to 10713
  157.7119  131.0729  150.6468 LP  0  0  0  0  0  0  0  0  0  0  0  0  # atno 17371 bound_to 10713
  140.3295  134.7940  157.4315 LP  0  0  0  0  0  0  0  0  0  0  0  0  # atno 17394 bound_to 11000
  140.1029  134.5449  155.8336 LP  0  0  0  0  0  0  0  0  0  0  0  0  # atno 17395 bound_to 11000

$$$$
