AV-unprocessed.smi:2613|AV-procd|sdf|10212|dock4
  -GOLD-   2272014223D 1   1.00000     0.00000
 Structure written by MMmdl.
 27 28  0  0  0  0  0  0  0  0  2 V2000
  152.8856  143.0066  161.8231 C   0  0  0  0  0  0  0  0  0  0  0  0
  152.4651  142.5588  160.4598 C   0  0  0  0  0  0  0  0  0  0  0  0
  152.5388  141.2852  160.0737 N   0  0  0  0  0  0  0  0  0  0  0  0
  152.0667  141.3346  158.7754 C   0  0  0  0  0  0  0  0  0  0  0  0
  151.9011  140.3082  157.8194 C   0  0  0  0  0  0  0  0  0  0  0  0
  151.3969  140.5910  156.5263 C   0  0  0  0  0  0  0  0  0  0  0  0
  151.2297  139.4861  155.5179 C   0  0  0  0  0  0  0  0  0  0  0  0
  151.5733  138.3243  155.8309 O   0  0  0  0  0  0  0  0  0  0  0  0
  150.7514  139.7612  154.3949 O   0  5  0  0  0  0  0  0  0  0  0  0
  151.0533  141.9239  156.1931 C   0  0  0  0  0  0  0  0  0  0  0  0
  151.2102  142.9621  157.1313 C   0  0  0  0  0  0  0  0  0  0  0  0
  151.7130  142.6629  158.4096 C   0  0  0  0  0  0  0  0  0  0  0  0
  151.9869  143.4291  159.5378 N   0  0  0  0  0  0  0  0  0  0  0  0
  151.8015  144.8649  159.6699 C   0  0  0  0  0  0  0  0  0  0  0  0
  150.3634  145.2081  160.0807 C   0  0  0  0  0  0  0  0  0  0  0  0
  149.4537  144.5688  159.2123 O   0  0  0  0  0  0  0  0  0  0  0  0
  153.3313  142.1796  162.3769 H   0  0  0  0  0  0  0  0  0  0  0  0
  152.0230  143.3703  162.3818 H   0  0  0  0  0  0  0  0  0  0  0  0
  153.6230  143.8061  161.7492 H   0  0  0  0  0  0  0  0  0  0  0  0
  152.1688  139.2976  158.0915 H   0  0  0  0  0  0  0  0  0  0  0  0
  150.6662  142.1614  155.2127 H   0  0  0  0  0  0  0  0  0  0  0  0
  150.9478  143.9762  156.8690 H   0  0  0  0  0  0  0  0  0  0  0  0
  152.5065  145.2368  160.4146 H   0  0  0  0  0  0  0  0  0  0  0  0
  152.0619  145.3521  158.7299 H   0  0  0  0  0  0  0  0  0  0  0  0
  150.1647  144.8860  161.1031 H   0  0  0  0  0  0  0  0  0  0  0  0
  150.1977  146.2852  160.0396 H   0  0  0  0  0  0  0  0  0  0  0  0
  149.2417  145.1632  158.5089 H   0  0  0  0  0  0  0  0  0  0  0  0
  1  2  1  0  0  0  0
  1 17  1  0  0  0  0
  1 18  1  0  0  0  0
  1 19  1  0  0  0  0
  2 13  1  0  0  0  0
  2  3  2  0  0  0  0
  3  4  1  0  0  0  0
  4 12  2  0  0  0  0
  4  5  1  0  0  0  0
  5  6  2  0  0  0  0
  5 20  1  0  0  0  0
  6  7  1  0  0  0  0
  6 10  1  0  0  0  0
  7  8  2  0  0  0  0
  7  9  1  0  0  0  0
 10 11  2  0  0  0  0
 10 21  1  0  0  0  0
 11 12  1  0  0  0  0
 11 22  1  0  0  0  0
 12 13  1  0  0  0  0
 13 14  1  0  0  0  0
 14 15  1  0  0  0  0
 14 23  1  0  0  0  0
 14 24  1  0  0  0  0
 15 16  1  0  0  0  0
 15 25  1  0  0  0  0
 15 26  1  0  0  0  0
 16 27  1  0  0  0  0
M  CHG  1   9  -1
M  END
> <s_m_source_file>
AV-unprocessed.smi

> <i_m_source_file_index>
2613

> <i_lp_mmshare_version>
43012

> <i_f3d_flags>
0

> <s_epik_input>
W09IXVtDSDJdW0NIMl1uKGMobjEpW0NIM10pYyhjMTIpW2NIXVtjSF1jKFtjSF0yKUMoPU8pW09IXQ==

> <s_epik_cmdline>
J2VwaWtfcHl0aG9uJywgJy1waCcsICc3LjAnLCAnLXRuJywgJzgnLCAnLW1hJywgJzIwMCcsICctbWV0YWxfYmluZGluZycsICctaW1hZScsICc8aW5maWxlLm1hZT4nLCAnLW9tYWUnLCAnPG91dGZpbGUubWFlPic=

> <r_epik_Ionization_Penalty>
0.138858

> <r_epik_Ionization_Penalty_Charging>
0.000449576

> <r_epik_Ionization_Penalty_Neutral>
0.138408

> <r_epik_State_Penalty>
0.127739

> <r_epik_Charging_Adjusted_Penalty>
0.128189

> <i_epik_Tot_Q>
-1

> <i_epik_Tot_abs_Q>
1

> <r_epik_Metal_State_Penalty>
0.000142538

> <b_epik_Metal_Only>
0

> <s_lp_Force_Field>
OPLS_2005

> <r_lp_Energy>
7.17367

> <b_lp_Chiralities_Consistent>
1

> <s_lp_Variant>
AV-unprocessed.smi:2613-1

> <Gold.Version>
5.8.1

> <Gold.Id.Protein>
6NUR|6NUR_protein|mol2

> <Gold.PLP.Fitness>
42.6059

> <Gold.PLP.PLP>
-37.3417

> <Gold.PLP.part.hbond>
-2.0000

> <Gold.PLP.part.metal>
0.0000

> <Gold.PLP.part.buried>
-6.1099

> <Gold.PLP.part.nonpolar>
-29.1169

> <Gold.PLP.part.repulsive>
0.1200

> <Gold.PLP.ligand.clash>
0.0000

> <Gold.PLP.ligand.torsion>
0.3695

> <Gold.PLP.Chemscore.Hbond>
2.0000

> <Gold.PLP.Chemscore.CHOScore>
0.0000

> <Gold.PLP.Chemscore.Metal>
0.0000

> <Gold.Chemscore.Hbonds>
donor molecule, donor type, donor heavy atom, donor atom, acceptor molecule, acceptor atom, score
      L1  H    16    27       P1  8029  1.00
      P1  H  7989  7998       L1     9  1.00

> <Gold.PLP.Chemscore.Internal.Correction>
0.0032

> <Gold.Rescore>
     Score         DG    S(hbond)    S(metal)    S(lipo)     H(rot)  DE(clash)    DE(int)     intcor
     16.24     -16.62       1.94        0.00      79.90       1.83       0.00       0.38       ----

> <Gold.Chemscore.Fitness>
16.2385

> <Gold.Chemscore.DG>
-16.6200

> <Gold.Chemscore.ZeroCoef>
-5.4800

> <Gold.Chemscore.Hbond>
1.9361

> <Gold.Chemscore.Metal>
0.0000

> <Gold.Chemscore.Lipo>
79.9005

> <Gold.Chemscore.Internal_Hbond>
0.0000

> <Gold.Chemscore.DEClash>
0.0029

> <Gold.Chemscore.DEInternal>
0.3786

> <Gold.Chemscore.Rot>
1.8262

> <Gold.Chemscore.Internal.Correction>
   9.000000E+99

> <Gold.Chemscore.Hbonds>
donor molecule, donor type, donor heavy atom, donor atom, acceptor molecule, acceptor atom, score
      L1  H    16    27       P1  8029  0.78
      P1  H  7989  7998       L1     9  0.93

> <Gold.Chemscore.Hbond.Weighted>
-6.4666

> <Gold.Chemscore.Metal.Weighted>
-0.0000

> <Gold.Chemscore.Lipo.Weighted>
-9.3484

> <Gold.Chemscore.Internal_Hbond.Weighted>
0.0000

> <Gold.Chemscore.DEClash.Weighted>
0.0029

> <Gold.Chemscore.DEInternal.Weighted>
0.3786

> <Gold.Chemscore.Rot.Weighted>
4.6750

> <Gold.Chemscore.Internal.Correction.Weighted>
   9.000000E+99

> <Gold.Protein.RotatedTorsions>
[ 6907 6896 6895 6894 ] final -113.60 input  -60.11 | X-H torsion
[ 7974 7965 7964 7962 ] final  141.25 input  175.53 | X-H torsion
[ 8008 7997 7996 7995 ] final  177.40 input   59.86 | X-H torsion
[ 10167 10162 10161 10158 ] final   52.54 input  -65.29 | X-H torsion
[ 10718 10713 10712 10709 ] final -104.63 input   66.30 | X-H torsion
[ 10763 10752 10751 10750 ] final  127.97 input  -60.55 | X-H torsion
[ 11005 11000 10999 10996 ] final   54.11 input  -57.11 | X-H torsion

> <Gold.Protein.ActiveResidues>
 VAL166  LYS551  ARG553  GLY616  TRP617  ASP618  TYR619  PRO620  LYS621  CYS622 
 ASP623  PHE694  ASN695  SER759  ASP760  ASP761  ALA762  ILE779  LEU786  VAL792 
 PHE793  MET794  SER795  GLU796  ALA797  LYS798  CYS799  TRP800  GLU811  SER814 

> <Gold.Protein.RotatedAtoms>
  150.7841  133.8921  159.3316 H   0  0  0  0  0  0  0  0  0  0  0  0  # atno 6907 bound_to 6896
  151.6776  135.0965  160.0219 H   0  0  0  0  0  0  0  0  0  0  0  0  # atno 6908 bound_to 6896
  152.3900  133.6627  159.6265 H   0  0  0  0  0  0  0  0  0  0  0  0  # atno 6909 bound_to 6896
  144.9113  139.5289  143.5707 H   0  0  0  0  0  0  0  0  0  0  0  0  # atno 7974 bound_to 7965
  156.0661  140.1359  156.9884 H   0  0  0  0  0  0  0  0  0  0  0  0  # atno 8008 bound_to 7997
  154.4507  140.0981  156.6660 H   0  0  0  0  0  0  0  0  0  0  0  0  # atno 8009 bound_to 7997
  155.5302  140.3458  155.4427 H   0  0  0  0  0  0  0  0  0  0  0  0  # atno 8010 bound_to 7997
  140.2503  144.3487  150.6350 H   0  0  0  0  0  0  0  0  0  0  0  0  # atno 10167 bound_to 10162
  156.0312  130.5524  150.7424 H   0  0  0  0  0  0  0  0  0  0  0  0  # atno 10718 bound_to 10713
  153.7181  135.3258  155.3260 H   0  0  0  0  0  0  0  0  0  0  0  0  # atno 10763 bound_to 10752
  154.8364  135.4493  154.1246 H   0  0  0  0  0  0  0  0  0  0  0  0  # atno 10764 bound_to 10752
  153.2358  135.6965  153.7918 H   0  0  0  0  0  0  0  0  0  0  0  0  # atno 10765 bound_to 10752
  140.0713  134.5466  155.9044 H   0  0  0  0  0  0  0  0  0  0  0  0  # atno 11005 bound_to 11000
  146.3160  139.7921  142.8983 LP  0  0  0  0  0  0  0  0  0  0  0  0  # atno 17320 bound_to 7965
  145.3450  141.0295  143.3371 LP  0  0  0  0  0  0  0  0  0  0  0  0  # atno 17321 bound_to 7965
  140.6046  143.2167  151.7006 LP  0  0  0  0  0  0  0  0  0  0  0  0  # atno 17342 bound_to 10162
  139.5048  144.3739  152.0443 LP  0  0  0  0  0  0  0  0  0  0  0  0  # atno 17343 bound_to 10162
  157.4989  131.0917  151.0338 LP  0  0  0  0  0  0  0  0  0  0  0  0  # atno 17370 bound_to 10713
  157.0724  130.5869  149.5405 LP  0  0  0  0  0  0  0  0  0  0  0  0  # atno 17371 bound_to 10713
  141.2012  133.6617  156.5941 LP  0  0  0  0  0  0  0  0  0  0  0  0  # atno 17394 bound_to 11000
  140.3624  134.7676  157.4542 LP  0  0  0  0  0  0  0  0  0  0  0  0  # atno 17395 bound_to 11000

$$$$
