AV-unprocessed.smi:3292|AV-procd|sdf|12624|dock5
  -GOLD-   2272018553D 1   1.00000     0.00000
 Structure written by MMmdl.
 39 40  0  0  0  0  0  0  0  0  2 V2000
  144.1739  137.1260  153.0121 C   0  0  0  0  0  0  0  0  0  0  0  0
  145.0627  135.9435  152.5937 C   0  0  1  0  0  0  0  0  0  0  0  0
  145.0627  135.6946  151.0696 C   0  0  0  0  0  0  0  0  0  0  0  0
  145.3097  134.2922  150.7227 N   0  0  0  0  0  0  0  0  0  0  0  0
  144.4152  133.4050  150.1817 C   0  0  0  0  0  0  0  0  0  0  0  0
  145.0838  132.2173  150.0335 C   0  0  0  0  0  0  0  0  0  0  0  0
  146.3560  132.4286  150.4935 N   0  3  0  0  0  0  0  0  0  0  0  0
  146.4907  133.6903  150.9152 C   0  0  0  0  0  0  0  0  0  0  0  0
  146.4252  136.1739  153.0651 N   0  0  0  0  0  0  0  0  0  0  0  0
  146.7677  136.4121  154.3394 C   0  0  0  0  0  0  0  0  0  0  0  0
  145.9617  136.4706  155.2683 O   0  0  0  0  0  0  0  0  0  0  0  0
  148.0919  136.5646  154.4801 N   0  0  0  0  0  0  0  0  0  0  0  0
  148.7834  136.8107  155.7416 C   0  0  0  0  0  0  0  0  0  0  0  0
  149.9420  137.8126  155.5757 C   0  0  1  0  0  0  0  0  0  0  0  0
  151.0872  137.2881  154.7345 C   0  0  0  0  0  0  0  0  0  0  0  0
  151.8239  138.5727  154.3665 C   0  0  0  0  0  0  0  0  0  0  0  0
  150.8272  139.5886  154.3026 O   0  0  0  0  0  0  0  0  0  0  0  0
  149.5943  139.0959  154.8178 C   0  0  0  0  0  0  0  0  0  0  0  0
  143.1284  136.9500  152.7584 H   0  0  0  0  0  0  0  0  0  0  0  0
  144.4853  138.0492  152.5226 H   0  0  0  0  0  0  0  0  0  0  0  0
  144.2204  137.2886  154.0893 H   0  0  0  0  0  0  0  0  0  0  0  0
  144.6736  135.0532  153.0919 H   0  0  0  0  0  0  0  0  0  0  0  0
  144.1112  135.9976  150.6293 H   0  0  0  0  0  0  0  0  0  0  0  0
  145.8381  136.2866  150.5812 H   0  0  0  0  0  0  0  0  0  0  0  0
  143.3964  133.6795  149.9479 H   0  0  0  0  0  0  0  0  0  0  0  0
  144.7577  131.2627  149.6467 H   0  0  0  0  0  0  0  0  0  0  0  0
  147.3797  134.1350  151.3262 H   0  0  0  0  0  0  0  0  0  0  0  0
  147.1593  136.1452  152.3724 H   0  0  0  0  0  0  0  0  0  0  0  0
  148.6684  136.4982  153.6537 H   0  0  0  0  0  0  0  0  0  0  0  0
  148.0532  137.2145  156.4434 H   0  0  0  0  0  0  0  0  0  0  0  0
  149.1402  135.8762  156.1784 H   0  0  0  0  0  0  0  0  0  0  0  0
  150.3326  138.0808  156.5589 H   0  0  0  0  0  0  0  0  0  0  0  0
  151.7184  136.5750  155.2656 H   0  0  0  0  0  0  0  0  0  0  0  0
  150.7081  136.8040  153.8332 H   0  0  0  0  0  0  0  0  0  0  0  0
  152.5380  138.8383  155.1467 H   0  0  0  0  0  0  0  0  0  0  0  0
  152.3671  138.4862  153.4252 H   0  0  0  0  0  0  0  0  0  0  0  0
  148.9341  138.8809  153.9765 H   0  0  0  0  0  0  0  0  0  0  0  0
  149.1053  139.8366  155.4508 H   0  0  0  0  0  0  0  0  0  0  0  0
  147.0904  131.7321  150.5140 H   0  0  0  0  0  0  0  0  0  0  0  0
  1  2  1  0  0  0  0
  1 19  1  0  0  0  0
  1 20  1  0  0  0  0
  1 21  1  0  0  0  0
  2  3  1  0  0  0  0
  2  9  1  0  0  0  0
  2 22  1  0  0  0  0
  3  4  1  0  0  0  0
  3 23  1  0  0  0  0
  3 24  1  0  0  0  0
  4  8  1  0  0  0  0
  4  5  1  0  0  0  0
  5  6  2  0  0  0  0
  5 25  1  0  0  0  0
  6  7  1  0  0  0  0
  6 26  1  0  0  0  0
  7  8  2  0  0  0  0
  7 39  1  0  0  0  0
  8 27  1  0  0  0  0
  9 10  1  0  0  0  0
  9 28  1  0  0  0  0
 10 11  2  0  0  0  0
 10 12  1  0  0  0  0
 12 13  1  0  0  0  0
 12 29  1  0  0  0  0
 13 14  1  0  0  0  0
 13 30  1  0  0  0  0
 13 31  1  0  0  0  0
 14 18  1  0  0  0  0
 14 15  1  0  0  0  0
 14 32  1  0  0  0  0
 15 16  1  0  0  0  0
 15 33  1  0  0  0  0
 15 34  1  0  0  0  0
 16 17  1  0  0  0  0
 16 35  1  0  0  0  0
 16 36  1  0  0  0  0
 17 18  1  0  0  0  0
 18 37  1  0  0  0  0
 18 38  1  0  0  0  0
M  CHG  1   7   1
M  END
> <s_m_source_file>
AV-unprocessed.smi

> <i_m_source_file_index>
3292

> <i_lp_mmshare_version>
43012

> <i_f3d_flags>
0

> <s_epik_input>
W2NIXTFuW2NIXVtjSF1uMVtDSDJdW0NAQEhdKFtDSDNdKVtOSF1DKD1PKVtOSF1bQ0gyXVtDQEBIXTJbQ0gyXVtDSDJdT1tDSDJdMg==

> <s_epik_cmdline>
J2VwaWtfcHl0aG9uJywgJy1waCcsICc3LjAnLCAnLXRuJywgJzgnLCAnLW1hJywgJzIwMCcsICctbWV0YWxfYmluZGluZycsICctaW1hZScsICc8aW5maWxlLm1hZT4nLCAnLW9tYWUnLCAnPG91dGZpbGUubWFlPic=

> <r_lp_tautomer_probability>
1

> <r_epik_Ionization_Penalty>
0.255703

> <r_epik_Ionization_Penalty_Charging>
0

> <r_epik_Ionization_Penalty_Neutral>
0.255703

> <r_epik_State_Penalty>
0.247169

> <r_epik_Charging_Adjusted_Penalty>
0.247169

> <i_epik_Tot_Q>
1

> <i_epik_Tot_abs_Q>
1

> <r_epik_Metal_State_Penalty>
0.536791

> <b_epik_Metal_Only>
0

> <s_lp_Force_Field>
OPLS_2005

> <r_lp_Energy>
19.2817

> <b_lp_Chiralities_Consistent>
1

> <s_lp_Variant>
AV-unprocessed.smi:3292-4

> <Gold.Version>
5.8.1

> <Gold.Id.Protein>
6NUR|6NUR_protein|mol2

> <Gold.PLP.Fitness>
45.4069

> <Gold.PLP.PLP>
-29.8956

> <Gold.PLP.part.hbond>
-4.0000

> <Gold.PLP.part.metal>
0.0000

> <Gold.PLP.part.buried>
-5.5712

> <Gold.PLP.part.nonpolar>
-20.6005

> <Gold.PLP.part.repulsive>
0.2452

> <Gold.PLP.ligand.clash>
0.0000

> <Gold.PLP.ligand.torsion>
0.6010

> <Gold.PLP.Chemscore.Hbond>
3.9913

> <Gold.PLP.Chemscore.CHOScore>
1.5500

> <Gold.PLP.Chemscore.Metal>
0.0000

> <Gold.Chemscore.Hbonds>
donor molecule, donor type, donor heavy atom, donor atom, acceptor molecule, acceptor atom, score
      L1  H     7    39       P1 10747  0.86
      L1  H     9    28       P1  7948  1.00
      L1  H    12    29       P1  7948  1.00
      P1  H  7989  7998       L1    17  1.00
      L1  C     5    25       P1 10186  1.00
      L1  C     8    27       P1  7948  0.61

> <Gold.PLP.Chemscore.Internal.Correction>
0.0894

> <Gold.Rescore>
     Score         DG    S(hbond)    S(metal)    S(lipo)     H(rot)  DE(clash)    DE(int)     intcor
     17.64     -19.60       3.84        0.00      59.91       2.24       0.06       1.90       ----

> <Gold.Chemscore.Fitness>
17.6384

> <Gold.Chemscore.DG>
-19.6024

> <Gold.Chemscore.ZeroCoef>
-5.4800

> <Gold.Chemscore.Hbond>
3.8440

> <Gold.Chemscore.Metal>
0.0000

> <Gold.Chemscore.Lipo>
59.9081

> <Gold.Chemscore.Internal_Hbond>
0.0000

> <Gold.Chemscore.DEClash>
0.0639

> <Gold.Chemscore.DEInternal>
1.9001

> <Gold.Chemscore.Rot>
2.2367

> <Gold.Chemscore.Internal.Correction>
   9.000000E+99

> <Gold.Chemscore.Hbonds>
donor molecule, donor type, donor heavy atom, donor atom, acceptor molecule, acceptor atom, score
      L1  H     7    39       P1 10747  0.84
      L1  H     9    28       P1  7948  0.97
      L1  H    12    29       P1  7948  0.98
      P1  H  7989  7998       L1    17  0.40

> <Gold.Chemscore.Hbond.Weighted>
-12.8391

> <Gold.Chemscore.Metal.Weighted>
-0.0000

> <Gold.Chemscore.Lipo.Weighted>
-7.0093

> <Gold.Chemscore.Internal_Hbond.Weighted>
0.0000

> <Gold.Chemscore.DEClash.Weighted>
0.0639

> <Gold.Chemscore.DEInternal.Weighted>
1.9001

> <Gold.Chemscore.Rot.Weighted>
5.7259

> <Gold.Chemscore.Internal.Correction.Weighted>
   9.000000E+99

> <Gold.Protein.RotatedTorsions>
[ 6907 6896 6895 6894 ] final  124.44 input  -60.11 | X-H torsion
[ 7974 7965 7964 7962 ] final   66.75 input  175.53 | X-H torsion
[ 8008 7997 7996 7995 ] final  115.17 input   59.86 | X-H torsion
[ 10167 10162 10161 10158 ] final -125.67 input  -65.29 | X-H torsion
[ 10718 10713 10712 10709 ] final -118.50 input   66.30 | X-H torsion
[ 10763 10752 10751 10750 ] final -121.69 input  -60.55 | X-H torsion
[ 11005 11000 10999 10996 ] final   -6.00 input  -57.11 | X-H torsion

> <Gold.Protein.ActiveResidues>
 VAL166  LYS551  ARG553  GLY616  TRP617  ASP618  TYR619  PRO620  LYS621  CYS622 
 ASP623  PHE694  ASN695  SER759  ASP760  ASP761  ALA762  ILE779  LEU786  VAL792 
 PHE793  MET794  SER795  GLU796  ALA797  LYS798  CYS799  TRP800  GLU811  SER814 

> <Gold.Protein.RotatedAtoms>
  152.4077  133.6915  159.6370 H   0  0  0  0  0  0  0  0  0  0  0  0  # atno 6907 bound_to 6896
  150.7961  133.8679  159.3259 H   0  0  0  0  0  0  0  0  0  0  0  0  # atno 6908 bound_to 6896
  151.6429  135.1012  160.0196 H   0  0  0  0  0  0  0  0  0  0  0  0  # atno 6909 bound_to 6896
  145.8228  139.3094  143.1033 H   0  0  0  0  0  0  0  0  0  0  0  0  # atno 7974 bound_to 7965
  156.2366  140.2944  156.0328 H   0  0  0  0  0  0  0  0  0  0  0  0  # atno 8008 bound_to 7997
  155.2075  140.0411  157.2945 H   0  0  0  0  0  0  0  0  0  0  0  0  # atno 8009 bound_to 7997
  154.6089  140.2446  155.7701 H   0  0  0  0  0  0  0  0  0  0  0  0  # atno 8010 bound_to 7997
  139.9796  143.5757  152.2383 H   0  0  0  0  0  0  0  0  0  0  0  0  # atno 10167 bound_to 10162
  156.1111  130.6249  150.9299 H   0  0  0  0  0  0  0  0  0  0  0  0  # atno 10718 bound_to 10713
  154.8674  135.4159  154.2661 H   0  0  0  0  0  0  0  0  0  0  0  0  # atno 10763 bound_to 10752
  153.3580  135.7002  153.6741 H   0  0  0  0  0  0  0  0  0  0  0  0  # atno 10764 bound_to 10752
  153.5653  135.3602  155.2788 H   0  0  0  0  0  0  0  0  0  0  0  0  # atno 10765 bound_to 10752
  140.6973  133.9020  155.8658 H   0  0  0  0  0  0  0  0  0  0  0  0  # atno 11005 bound_to 11000
  145.9656  140.8801  143.0188 LP  0  0  0  0  0  0  0  0  0  0  0  0  # atno 17320 bound_to 7965
  144.6746  140.1873  143.7400 LP  0  0  0  0  0  0  0  0  0  0  0  0  # atno 17321 bound_to 7965
  139.6420  144.7655  151.2320 LP  0  0  0  0  0  0  0  0  0  0  0  0  # atno 17342 bound_to 10162
  140.7494  143.6302  150.8430 LP  0  0  0  0  0  0  0  0  0  0  0  0  # atno 17343 bound_to 10162
  157.6292  131.0923  150.8474 LP  0  0  0  0  0  0  0  0  0  0  0  0  # atno 17370 bound_to 10713
  156.8585  130.5105  149.5305 LP  0  0  0  0  0  0  0  0  0  0  0  0  # atno 17371 bound_to 10713
  141.0193  134.0912  157.4138 LP  0  0  0  0  0  0  0  0  0  0  0  0  # atno 17394 bound_to 11000
  139.8906  135.0113  156.6748 LP  0  0  0  0  0  0  0  0  0  0  0  0  # atno 17395 bound_to 11000

$$$$
