AV-unprocessed.smi:926|AV-procd|sdf|4186|dock2
  -GOLD-   22720 2 93D 1   1.00000     0.00000
 Structure written by MMmdl.
 37 39  0  0  0  0  0  0  0  0  1 V2000
  149.6939  140.9422  153.8137 O   0  0  0  0  0  0  0  0  0  0  0  0
  149.6635  140.2136  154.8070 C   0  0  0  0  0  0  0  0  0  0  0  0
  149.2403  138.7434  154.7029 C   0  0  0  0  0  0  0  0  0  0  0  0
  150.2093  137.8338  155.2899 N   0  0  0  0  0  0  0  0  0  0  0  0
  150.9575  136.8740  154.7411 C   0  0  0  0  0  0  0  0  0  0  0  0
  151.7184  136.2717  155.6420 N   0  0  0  0  0  0  0  0  0  0  0  0
  151.3934  136.9281  156.8175 N   0  0  0  0  0  0  0  0  0  0  0  0
  150.4987  137.8562  156.6147 N   0  0  0  0  0  0  0  0  0  0  0  0
  149.9988  140.6370  156.0352 N   0  0  0  0  0  0  0  0  0  0  0  0
  150.4365  141.9888  156.3613 C   0  0  0  0  0  0  0  0  0  0  0  0
  150.2132  142.3118  157.8490 C   0  0  0  0  0  0  0  0  0  0  0  0
  150.6669  143.7325  158.2391 C   0  0  1  0  0  0  0  0  0  0  0  0
  150.2668  144.1482  159.6714 C   0  0  0  0  0  0  0  0  0  0  0  0
  151.5928  144.6587  160.2656 C   0  0  1  0  0  0  0  0  0  0  0  0
  152.5122  143.4576  160.5547 C   0  0  0  0  0  0  0  0  0  0  0  0
  152.9549  143.0239  159.1454 C   0  0  0  0  0  0  0  0  0  0  0  0
  152.1919  144.0045  158.2312 C   0  0  2  0  0  0  0  0  0  0  0  0
  152.2666  145.2883  159.0514 C   0  0  0  0  0  0  0  0  0  0  0  0
  148.2853  138.6053  155.2110 H   0  0  0  0  0  0  0  0  0  0  0  0
  149.0910  138.4781  153.6549 H   0  0  0  0  0  0  0  0  0  0  0  0
  150.9415  136.6178  153.6919 H   0  0  0  0  0  0  0  0  0  0  0  0
  149.9469  139.9771  156.7981 H   0  0  0  0  0  0  0  0  0  0  0  0
  151.4867  142.1085  156.0910 H   0  0  0  0  0  0  0  0  0  0  0  0
  149.8751  142.6876  155.7407 H   0  0  0  0  0  0  0  0  0  0  0  0
  149.1510  142.2118  158.0758 H   0  0  0  0  0  0  0  0  0  0  0  0
  150.7136  141.5720  158.4736 H   0  0  0  0  0  0  0  0  0  0  0  0
  150.2004  144.4310  157.5419 H   0  0  0  0  0  0  0  0  0  0  0  0
  149.5204  144.9430  159.6438 H   0  0  0  0  0  0  0  0  0  0  0  0
  149.8506  143.3259  160.2548 H   0  0  0  0  0  0  0  0  0  0  0  0
  151.4620  145.3242  161.1193 H   0  0  0  0  0  0  0  0  0  0  0  0
  153.3742  143.7593  161.1512 H   0  0  0  0  0  0  0  0  0  0  0  0
  151.9957  142.6611  161.0919 H   0  0  0  0  0  0  0  0  0  0  0  0
  154.0312  143.1607  159.0315 H   0  0  0  0  0  0  0  0  0  0  0  0
  152.7420  141.9764  158.9353 H   0  0  0  0  0  0  0  0  0  0  0  0
  152.6163  144.0858  157.2302 H   0  0  0  0  0  0  0  0  0  0  0  0
  151.6984  146.1145  158.6203 H   0  0  0  0  0  0  0  0  0  0  0  0
  153.2879  145.6206  159.2466 H   0  0  0  0  0  0  0  0  0  0  0  0
  1  2  2  0  0  0  0
  2  3  1  0  0  0  0
  2  9  1  0  0  0  0
  3  4  1  0  0  0  0
  3 19  1  0  0  0  0
  3 20  1  0  0  0  0
  4  8  1  0  0  0  0
  4  5  1  0  0  0  0
  5  6  2  0  0  0  0
  5 21  1  0  0  0  0
  6  7  1  0  0  0  0
  7  8  2  0  0  0  0
  9 10  1  0  0  0  0
  9 22  1  0  0  0  0
 10 11  1  0  0  0  0
 10 23  1  0  0  0  0
 10 24  1  0  0  0  0
 11 12  1  0  0  0  0
 11 25  1  0  0  0  0
 11 26  1  0  0  0  0
 12 17  1  0  0  0  0
 12 13  1  0  0  0  0
 12 27  1  0  0  0  0
 13 14  1  0  0  0  0
 13 28  1  0  0  0  0
 13 29  1  0  0  0  0
 14 18  1  0  0  0  0
 14 15  1  0  0  0  0
 14 30  1  0  0  0  0
 15 16  1  0  0  0  0
 15 31  1  0  0  0  0
 15 32  1  0  0  0  0
 16 17  1  0  0  0  0
 16 33  1  0  0  0  0
 16 34  1  0  0  0  0
 17 18  1  0  0  0  0
 17 35  1  0  0  0  0
 18 36  1  0  0  0  0
 18 37  1  0  0  0  0
M  END
> <s_m_source_file>
AV-unprocessed.smi

> <i_m_source_file_index>
926

> <i_lp_mmshare_version>
43012

> <i_f3d_flags>
0

> <s_epik_input>
bjFubltjSF1uMVtDSDJdQyg9TylbTkhdW0NIMl1bQ0gyXVtDQEhdKFtDSDJdW0NASF0yMylbQ0BIXShbQ0gyXTMpW0NIMl1bQ0gyXTI=

> <s_epik_cmdline>
J2VwaWtfcHl0aG9uJywgJy1waCcsICc3LjAnLCAnLXRuJywgJzgnLCAnLW1hJywgJzIwMCcsICctbWV0YWxfYmluZGluZycsICctaW1hZScsICc8aW5maWxlLm1hZT4nLCAnLW9tYWUnLCAnPG91dGZpbGUubWFlPic=

> <r_lp_tautomer_probability>
1

> <r_epik_Ionization_Penalty>
4.22645e-07

> <r_epik_Ionization_Penalty_Charging>
0

> <r_epik_Ionization_Penalty_Neutral>
4.22645e-07

> <r_epik_State_Penalty>
-0

> <r_epik_Charging_Adjusted_Penalty>
0

> <i_epik_Tot_Q>
0

> <i_epik_Tot_abs_Q>
0

> <r_epik_Metal_State_Penalty>
-0

> <b_epik_Metal_Only>
0

> <s_lp_Force_Field>
OPLS_2005

> <r_lp_Energy>
51.6894

> <b_lp_Chiralities_Consistent>
1

> <s_lp_Variant>
AV-unprocessed.smi:926-4

> <Gold.Version>
5.8.1

> <Gold.Id.Protein>
6NUR|6NUR_protein|mol2

> <Gold.PLP.Fitness>
46.4045

> <Gold.PLP.PLP>
-36.8444

> <Gold.PLP.part.hbond>
-3.0000

> <Gold.PLP.part.metal>
0.0000

> <Gold.PLP.part.buried>
-3.8945

> <Gold.PLP.part.nonpolar>
-33.3694

> <Gold.PLP.part.repulsive>
2.4458

> <Gold.PLP.ligand.clash>
0.0000

> <Gold.PLP.ligand.torsion>
0.2685

> <Gold.PLP.Chemscore.Hbond>
2.3005

> <Gold.PLP.Chemscore.CHOScore>
1.0330

> <Gold.PLP.Chemscore.Metal>
0.0000

> <Gold.Chemscore.Hbonds>
donor molecule, donor type, donor heavy atom, donor atom, acceptor molecule, acceptor atom, score
      P1  H  7989  7998       L1     1  0.38
      P1  H  8011  8017       L1     1  0.81
      P1  H 10752 10765       L1     6  1.00
      L1  C     5    21       P1  7948  0.06
      L1  C     5    21       P1  7949  0.95

> <Gold.PLP.Chemscore.Internal.Correction>
0.0964

> <Gold.Rescore>
     Score         DG    S(hbond)    S(metal)    S(lipo)     H(rot)  DE(clash)    DE(int)     intcor
     15.84     -16.34       1.76        0.00      98.12       2.54       0.29       0.21       ----

> <Gold.Chemscore.Fitness>
15.8407

> <Gold.Chemscore.DG>
-16.3425

> <Gold.Chemscore.ZeroCoef>
-5.4800

> <Gold.Chemscore.Hbond>
1.7648

> <Gold.Chemscore.Metal>
0.0000

> <Gold.Chemscore.Lipo>
98.1185

> <Gold.Chemscore.Internal_Hbond>
0.0000

> <Gold.Chemscore.DEClash>
0.2901

> <Gold.Chemscore.DEInternal>
0.2117

> <Gold.Chemscore.Rot>
2.5436

> <Gold.Chemscore.Internal.Correction>
   9.000000E+99

> <Gold.Chemscore.Hbonds>
donor molecule, donor type, donor heavy atom, donor atom, acceptor molecule, acceptor atom, score
      P1  H  7989  7998       L1     1  0.09
      P1  H  8011  8017       L1     1  0.76
      P1  H 10752 10765       L1     6  0.50

> <Gold.Chemscore.Hbond.Weighted>
-5.8943

> <Gold.Chemscore.Metal.Weighted>
-0.0000

> <Gold.Chemscore.Lipo.Weighted>
-11.4799

> <Gold.Chemscore.Internal_Hbond.Weighted>
0.0000

> <Gold.Chemscore.DEClash.Weighted>
0.2901

> <Gold.Chemscore.DEInternal.Weighted>
0.2117

> <Gold.Chemscore.Rot.Weighted>
6.5117

> <Gold.Chemscore.Internal.Correction.Weighted>
   9.000000E+99

> <Gold.Protein.RotatedTorsions>
[ 6907 6896 6895 6894 ] final   85.34 input  -60.11 | X-H torsion
[ 7974 7965 7964 7962 ] final   -6.47 input  175.53 | X-H torsion
[ 8008 7997 7996 7995 ] final   20.32 input   59.86 | X-H torsion
[ 10167 10162 10161 10158 ] final -177.69 input  -65.29 | X-H torsion
[ 10718 10713 10712 10709 ] final  -94.86 input   66.30 | X-H torsion
[ 10763 10752 10751 10750 ] final -171.59 input  -60.55 | X-H torsion
[ 11005 11000 10999 10996 ] final  162.36 input  -57.11 | X-H torsion

> <Gold.Protein.ActiveResidues>
 VAL166  LYS551  ARG553  GLY616  TRP617  ASP618  TYR619  PRO620  LYS621  CYS622 
 ASP623  PHE694  ASN695  SER759  ASP760  ASP761  ALA762  ILE779  LEU786  VAL792 
 PHE793  MET794  SER795  GLU796  ALA797  LYS798  CYS799  TRP800  GLU811  SER814 

> <Gold.Protein.RotatedAtoms>
  152.5372  134.2602  159.8931 H   0  0  0  0  0  0  0  0  0  0  0  0  # atno 6907 bound_to 6896
  151.2562  133.4318  159.2621 H   0  0  0  0  0  0  0  0  0  0  0  0  # atno 6908 bound_to 6896
  151.0494  134.9677  159.8260 H   0  0  0  0  0  0  0  0  0  0  0  0  # atno 6909 bound_to 6896
  146.2330  140.2175  142.8336 H   0  0  0  0  0  0  0  0  0  0  0  0  # atno 7974 bound_to 7965
  154.9338  140.3044  155.5154 H   0  0  0  0  0  0  0  0  0  0  0  0  # atno 8008 bound_to 7997
  156.3001  140.2349  156.4337 H   0  0  0  0  0  0  0  0  0  0  0  0  # atno 8009 bound_to 7997
  154.8212  140.0423  157.1400 H   0  0  0  0  0  0  0  0  0  0  0  0  # atno 8010 bound_to 7997
  139.5468  144.2214  152.1003 H   0  0  0  0  0  0  0  0  0  0  0  0  # atno 10167 bound_to 10162
  156.0034  130.5085  150.5990 H   0  0  0  0  0  0  0  0  0  0  0  0  # atno 10718 bound_to 10713
  154.6287  135.2884  155.0241 H   0  0  0  0  0  0  0  0  0  0  0  0  # atno 10763 bound_to 10752
  154.1410  135.6518  153.4946 H   0  0  0  0  0  0  0  0  0  0  0  0  # atno 10764 bound_to 10752
  153.0269  135.5333  154.7106 H   0  0  0  0  0  0  0  0  0  0  0  0  # atno 10765 bound_to 10752
  140.2249  134.8168  157.3259 H   0  0  0  0  0  0  0  0  0  0  0  0  # atno 11005 bound_to 11000
  144.9658  140.8320  143.5485 LP  0  0  0  0  0  0  0  0  0  0  0  0  # atno 17320 bound_to 7965
  145.2150  139.2186  143.5123 LP  0  0  0  0  0  0  0  0  0  0  0  0  # atno 17321 bound_to 7965
  140.1702  144.4943  150.6583 LP  0  0  0  0  0  0  0  0  0  0  0  0  # atno 17342 bound_to 10162
  140.6719  143.2289  151.5605 LP  0  0  0  0  0  0  0  0  0  0  0  0  # atno 17343 bound_to 10162
  157.3842  131.0785  151.1450 LP  0  0  0  0  0  0  0  0  0  0  0  0  # atno 17370 bound_to 10713
  157.2162  130.6460  149.5793 LP  0  0  0  0  0  0  0  0  0  0  0  0  # atno 17371 bound_to 10713
  140.1810  134.4489  155.7772 LP  0  0  0  0  0  0  0  0  0  0  0  0  # atno 17394 bound_to 11000
  141.2221  133.6984  156.7869 LP  0  0  0  0  0  0  0  0  0  0  0  0  # atno 17395 bound_to 11000

$$$$
