AV-unprocessed.smi:927|AV-procd|sdf|4190|dock9
  -GOLD-   22720 2 93D 1   1.00000     0.00000
 Structure written by MMmdl.
 20 20  0  0  0  0  0  0  0  0  1 V2000
  144.3876  137.6191  152.2813 N   0  0  0  0  0  0  0  0  0  0  0  0
  144.1609  136.1940  151.9932 C   0  0  0  0  0  0  0  0  0  0  0  0
  145.4284  135.4741  151.4994 C   0  0  1  0  0  0  0  0  0  0  0  0
  146.3689  135.4537  152.5549 O   0  0  0  0  0  0  0  0  0  0  0  0
  145.1060  134.0651  151.0257 C   0  0  0  0  0  0  0  0  0  0  0  0
  143.7884  133.5604  151.0777 C   0  0  0  0  0  0  0  0  0  0  0  0
  143.5489  132.2505  150.6174 C   0  0  0  0  0  0  0  0  0  0  0  0
  144.5174  131.4487  150.1253 N   0  0  0  0  0  0  0  0  0  0  0  0
  145.7753  131.9368  150.0760 C   0  0  0  0  0  0  0  0  0  0  0  0
  146.1215  133.2318  150.5111 C   0  0  0  0  0  0  0  0  0  0  0  0
  145.3477  137.7731  152.5860 H   0  0  0  0  0  0  0  0  0  0  0  0
  144.2466  138.1790  151.4417 H   0  0  0  0  0  0  0  0  0  0  0  0
  143.7535  135.6876  152.8692 H   0  0  0  0  0  0  0  0  0  0  0  0
  143.3959  136.1204  151.2197 H   0  0  0  0  0  0  0  0  0  0  0  0
  145.8665  136.0295  150.6688 H   0  0  0  0  0  0  0  0  0  0  0  0
  147.1402  135.9229  152.2766 H   0  0  0  0  0  0  0  0  0  0  0  0
  142.9771  134.1624  151.4601 H   0  0  0  0  0  0  0  0  0  0  0  0
  142.5519  131.8362  150.6440 H   0  0  0  0  0  0  0  0  0  0  0  0
  146.5299  131.2754  149.6767 H   0  0  0  0  0  0  0  0  0  0  0  0
  147.1442  133.5734  150.4477 H   0  0  0  0  0  0  0  0  0  0  0  0
  1  2  1  0  0  0  0
  1 11  1  0  0  0  0
  1 12  1  0  0  0  0
  2  3  1  0  0  0  0
  2 13  1  0  0  0  0
  2 14  1  0  0  0  0
  3  4  1  0  0  0  0
  3  5  1  0  0  0  0
  3 15  1  0  0  0  0
  4 16  1  0  0  0  0
  5 10  1  0  0  0  0
  5  6  2  0  0  0  0
  6  7  1  0  0  0  0
  6 17  1  0  0  0  0
  7  8  2  0  0  0  0
  7 18  1  0  0  0  0
  8  9  1  0  0  0  0
  9 10  2  0  0  0  0
  9 19  1  0  0  0  0
 10 20  1  0  0  0  0
M  END
> <s_m_source_file>
AV-unprocessed.smi

> <i_m_source_file_index>
927

> <i_lp_mmshare_version>
43012

> <i_f3d_flags>
0

> <s_epik_input>
W05IMl1bQ0gyXVtDQEhdKFtPSF0pYzFbY0hdW2NIXW5bY0hdW2NIXTE=

> <s_epik_cmdline>
J2VwaWtfcHl0aG9uJywgJy1waCcsICc3LjAnLCAnLXRuJywgJzgnLCAnLW1hJywgJzIwMCcsICctbWV0YWxfYmluZGluZycsICctaW1hZScsICc8aW5maWxlLm1hZT4nLCAnLW9tYWUnLCAnPG91dGZpbGUubWFlPic=

> <r_epik_Ionization_Penalty>
2.24668

> <r_epik_Ionization_Penalty_Charging>
0

> <r_epik_Ionization_Penalty_Neutral>
2.24668

> <r_epik_State_Penalty>
2.36938

> <r_epik_Charging_Adjusted_Penalty>
2.36938

> <i_epik_Tot_Q>
0

> <i_epik_Tot_abs_Q>
0

> <r_epik_Metal_State_Penalty>
2.3492

> <b_epik_Metal_Only>
0

> <s_lp_Force_Field>
OPLS_2005

> <r_lp_Energy>
12.0252

> <b_lp_Chiralities_Consistent>
1

> <s_lp_Variant>
AV-unprocessed.smi:927-4

> <Gold.Version>
5.8.1

> <Gold.Id.Protein>
6NUR|6NUR_protein|mol2

> <Gold.PLP.Fitness>
34.9086

> <Gold.PLP.PLP>
-22.5731

> <Gold.PLP.part.hbond>
-4.0000

> <Gold.PLP.part.metal>
0.0000

> <Gold.PLP.part.buried>
-2.8980

> <Gold.PLP.part.nonpolar>
-16.3556

> <Gold.PLP.part.repulsive>
0.1244

> <Gold.PLP.ligand.clash>
0.0000

> <Gold.PLP.ligand.torsion>
0.0270

> <Gold.PLP.Chemscore.Hbond>
2.1433

> <Gold.PLP.Chemscore.CHOScore>
1.9859

> <Gold.PLP.Chemscore.Metal>
0.0000

> <Gold.Chemscore.Hbonds>
donor molecule, donor type, donor heavy atom, donor atom, acceptor molecule, acceptor atom, score
      L1  H     1    12       P1 10171  1.00
      L1  H     4    16       P1  7948  1.00
      P1  H 10785 10796       L1     8  0.14
      L1  C     7    18       P1 10952  1.00
      L1  C     9    19       P1 10747  0.99

> <Gold.PLP.Chemscore.Internal.Correction>
0.0021

> <Gold.Rescore>
     Score         DG    S(hbond)    S(metal)    S(lipo)     H(rot)  DE(clash)    DE(int)     intcor
     15.41     -15.48       2.57        0.00      52.38       1.85       0.04       0.04       ----

> <Gold.Chemscore.Fitness>
15.4089

> <Gold.Chemscore.DG>
-15.4836

> <Gold.Chemscore.ZeroCoef>
-5.4800

> <Gold.Chemscore.Hbond>
2.5747

> <Gold.Chemscore.Metal>
0.0000

> <Gold.Chemscore.Lipo>
52.3822

> <Gold.Chemscore.Internal_Hbond>
0.0000

> <Gold.Chemscore.DEClash>
0.0363

> <Gold.Chemscore.DEInternal>
0.0383

> <Gold.Chemscore.Rot>
1.8455

> <Gold.Chemscore.Internal.Correction>
   9.000000E+99

> <Gold.Chemscore.Hbonds>
donor molecule, donor type, donor heavy atom, donor atom, acceptor molecule, acceptor atom, score
      L1  H     1    12       P1 10171  1.00
      L1  H     4    16       P1  7948  0.99
      P1  H 10785 10796       L1     8  0.03

> <Gold.Chemscore.Hbond.Weighted>
-8.5994

> <Gold.Chemscore.Metal.Weighted>
-0.0000

> <Gold.Chemscore.Lipo.Weighted>
-6.1287

> <Gold.Chemscore.Internal_Hbond.Weighted>
0.0000

> <Gold.Chemscore.DEClash.Weighted>
0.0363

> <Gold.Chemscore.DEInternal.Weighted>
0.0383

> <Gold.Chemscore.Rot.Weighted>
4.7245

> <Gold.Chemscore.Internal.Correction.Weighted>
   9.000000E+99

> <Gold.Protein.RotatedTorsions>
[ 6907 6896 6895 6894 ] final  -46.03 input  -60.11 | X-H torsion
[ 7974 7965 7964 7962 ] final  124.62 input  175.53 | X-H torsion
[ 8008 7997 7996 7995 ] final  121.31 input   59.86 | X-H torsion
[ 10167 10162 10161 10158 ] final  151.23 input  -65.29 | X-H torsion
[ 10718 10713 10712 10709 ] final  125.07 input   66.30 | X-H torsion
[ 10763 10752 10751 10750 ] final   97.46 input  -60.55 | X-H torsion
[ 11005 11000 10999 10996 ] final  -98.72 input  -57.11 | X-H torsion

> <Gold.Protein.ActiveResidues>
 VAL166  LYS551  ARG553  GLY616  TRP617  ASP618  TYR619  PRO620  LYS621  CYS622 
 ASP623  PHE694  ASN695  SER759  ASP760  ASP761  ALA762  ILE779  LEU786  VAL792 
 PHE793  MET794  SER795  GLU796  ALA797  LYS798  CYS799  TRP800  GLU811  SER814 

> <Gold.Protein.RotatedAtoms>
  150.9156  134.8573  159.7454 H   0  0  0  0  0  0  0  0  0  0  0  0  # atno 6907 bound_to 6896
  152.4966  134.4295  159.9517 H   0  0  0  0  0  0  0  0  0  0  0  0  # atno 6908 bound_to 6896
  151.4333  133.3624  159.2807 H   0  0  0  0  0  0  0  0  0  0  0  0  # atno 6909 bound_to 6896
  145.0823  139.3648  143.4903 H   0  0  0  0  0  0  0  0  0  0  0  0  # atno 7974 bound_to 7965
  156.2681  140.2811  156.1288 H   0  0  0  0  0  0  0  0  0  0  0  0  # atno 8008 bound_to 7997
  155.1077  140.0390  157.2732 H   0  0  0  0  0  0  0  0  0  0  0  0  # atno 8009 bound_to 7997
  154.6766  140.2599  155.6957 H   0  0  0  0  0  0  0  0  0  0  0  0  # atno 8010 bound_to 7997
  139.4842  144.5458  151.7487 H   0  0  0  0  0  0  0  0  0  0  0  0  # atno 10167 bound_to 10162
  157.5533  131.1093  150.8665 H   0  0  0  0  0  0  0  0  0  0  0  0  # atno 10718 bound_to 10713
  153.2771  135.4182  155.1043 H   0  0  0  0  0  0  0  0  0  0  0  0  # atno 10763 bound_to 10752
  154.8476  135.3486  154.6163 H   0  0  0  0  0  0  0  0  0  0  0  0  # atno 10764 bound_to 10752
  153.6583  135.7049  153.5243 H   0  0  0  0  0  0  0  0  0  0  0  0  # atno 10765 bound_to 10752
  141.1335  133.8266  157.0876 H   0  0  0  0  0  0  0  0  0  0  0  0  # atno 11005 bound_to 11000
  146.3531  140.0619  142.8629 LP  0  0  0  0  0  0  0  0  0  0  0  0  # atno 17320 bound_to 7965
  145.1164  140.9436  143.4626 LP  0  0  0  0  0  0  0  0  0  0  0  0  # atno 17321 bound_to 7965
  140.5004  144.1177  150.5970 LP  0  0  0  0  0  0  0  0  0  0  0  0  # atno 17342 bound_to 10162
  140.4069  143.2676  151.9880 LP  0  0  0  0  0  0  0  0  0  0  0  0  # atno 17343 bound_to 10162
  156.9183  130.5306  149.5279 LP  0  0  0  0  0  0  0  0  0  0  0  0  # atno 17370 bound_to 10713
  156.0596  130.5651  150.9164 LP  0  0  0  0  0  0  0  0  0  0  0  0  # atno 17371 bound_to 10713
  140.0412  134.9853  157.0965 LP  0  0  0  0  0  0  0  0  0  0  0  0  # atno 17394 bound_to 11000
  140.4132  134.1959  155.7163 LP  0  0  0  0  0  0  0  0  0  0  0  0  # atno 17395 bound_to 11000

$$$$
