AV-unprocessed.smi:1157|AV-procd|sdf|4906|dock5
  -GOLD-   22720 3483D 1   1.00000     0.00000
 Structure written by MMmdl.
 54 56  0  0  0  0  0  0  0  0  1 V2000
  155.0331  131.9612  161.5130 C   0  0  0  0  0  0  0  0  0  0  0  0
  155.4597  133.4238  161.7995 C   0  0  0  0  0  0  0  0  0  0  0  0
  156.8740  133.6149  161.2005 C   0  0  0  0  0  0  0  0  0  0  0  0
  154.4886  134.3263  160.9860 C   0  0  0  0  0  0  0  0  0  0  0  0
  154.6799  135.7438  161.2768 N   0  0  0  0  0  0  0  0  0  0  0  0
  153.9747  136.7362  160.7208 C   0  0  0  0  0  0  0  0  0  0  0  0
  153.0742  136.5511  159.9023 O   0  0  0  0  0  0  0  0  0  0  0  0
  154.3960  137.9350  161.1578 N   0  0  0  0  0  0  0  0  0  0  0  0
  153.9033  139.2221  160.8130 C   0  0  0  0  0  0  0  0  0  0  0  0
  154.3477  140.4280  161.4027 C   0  0  0  0  0  0  0  0  0  0  0  0
  153.7946  141.6462  160.9637 C   0  0  0  0  0  0  0  0  0  0  0  0
  152.8141  141.6316  159.9436 C   0  0  0  0  0  0  0  0  0  0  0  0
  152.2373  142.8292  159.4765 N   0  0  0  0  0  0  0  0  0  0  0  0
  152.7869  144.1306  159.8240 C   0  0  0  0  0  0  0  0  0  0  0  0
  151.9684  145.1267  159.0043 C   0  0  0  0  0  0  0  0  0  0  0  0
  151.6381  144.3418  157.7349 C   0  0  0  0  0  0  0  0  0  0  0  0
  151.5165  142.8899  158.2122 C   0  0  0  0  0  0  0  0  0  0  0  0
  152.4059  140.4766  159.3657 N   0  0  0  0  0  0  0  0  0  0  0  0
  152.9397  139.3119  159.7891 C   0  0  0  0  0  0  0  0  0  0  0  0
  155.3973  133.7244  163.2577 N   0  0  0  0  0  0  0  0  0  0  0  0
  156.4725  133.1252  164.0572 C   0  0  0  0  0  0  0  0  0  0  0  0
  156.4205  133.5761  165.5266 C   0  0  0  0  0  0  0  0  0  0  0  0
  155.1501  133.2562  166.0806 O   0  0  0  0  0  0  0  0  0  0  0  0
  154.0793  133.8658  165.3699 C   0  0  0  0  0  0  0  0  0  0  0  0
  154.1123  133.4200  163.8980 C   0  0  0  0  0  0  0  0  0  0  0  0
  154.9121  131.7818  160.4440 H   0  0  0  0  0  0  0  0  0  0  0  0
  154.0847  131.7159  161.9924 H   0  0  0  0  0  0  0  0  0  0  0  0
  155.7736  131.2394  161.8578 H   0  0  0  0  0  0  0  0  0  0  0  0
  156.8827  133.3765  160.1363 H   0  0  0  0  0  0  0  0  0  0  0  0
  157.6129  132.9673  161.6720 H   0  0  0  0  0  0  0  0  0  0  0  0
  157.2256  134.6424  161.2936 H   0  0  0  0  0  0  0  0  0  0  0  0
  154.6018  134.1654  159.9134 H   0  0  0  0  0  0  0  0  0  0  0  0
  153.4540  134.0577  161.2076 H   0  0  0  0  0  0  0  0  0  0  0  0
  155.4084  135.9782  161.9354 H   0  0  0  0  0  0  0  0  0  0  0  0
  155.2051  137.9283  161.7617 H   0  0  0  0  0  0  0  0  0  0  0  0
  155.1085  140.4459  162.1672 H   0  0  0  0  0  0  0  0  0  0  0  0
  154.1366  142.5698  161.4064 H   0  0  0  0  0  0  0  0  0  0  0  0
  152.7098  144.3287  160.8936 H   0  0  0  0  0  0  0  0  0  0  0  0
  153.8392  144.1702  159.5389 H   0  0  0  0  0  0  0  0  0  0  0  0
  151.0477  145.3736  159.5349 H   0  0  0  0  0  0  0  0  0  0  0  0
  152.5044  146.0552  158.8067 H   0  0  0  0  0  0  0  0  0  0  0  0
  150.7374  144.6995  157.2354 H   0  0  0  0  0  0  0  0  0  0  0  0
  152.4667  144.4258  157.0306 H   0  0  0  0  0  0  0  0  0  0  0  0
  151.9245  142.2017  157.4710 H   0  0  0  0  0  0  0  0  0  0  0  0
  150.4732  142.6265  158.3890 H   0  0  0  0  0  0  0  0  0  0  0  0
  152.5789  138.4212  159.2956 H   0  0  0  0  0  0  0  0  0  0  0  0
  156.4072  132.0376  164.0218 H   0  0  0  0  0  0  0  0  0  0  0  0
  157.4499  133.3966  163.6624 H   0  0  0  0  0  0  0  0  0  0  0  0
  157.1971  133.0748  166.1043 H   0  0  0  0  0  0  0  0  0  0  0  0
  156.6027  134.6489  165.6081 H   0  0  0  0  0  0  0  0  0  0  0  0
  153.1354  133.5765  165.8320 H   0  0  0  0  0  0  0  0  0  0  0  0
  154.1540  134.9518  165.4464 H   0  0  0  0  0  0  0  0  0  0  0  0
  153.2933  133.9200  163.3840 H   0  0  0  0  0  0  0  0  0  0  0  0
  153.9109  132.3498  163.8508 H   0  0  0  0  0  0  0  0  0  0  0  0
  1  2  1  0  0  0  0
  1 26  1  0  0  0  0
  1 27  1  0  0  0  0
  1 28  1  0  0  0  0
  2  3  1  0  0  0  0
  2  4  1  0  0  0  0
  2 20  1  0  0  0  0
  3 29  1  0  0  0  0
  3 30  1  0  0  0  0
  3 31  1  0  0  0  0
  4  5  1  0  0  0  0
  4 32  1  0  0  0  0
  4 33  1  0  0  0  0
  5  6  1  0  0  0  0
  5 34  1  0  0  0  0
  6  7  2  0  0  0  0
  6  8  1  0  0  0  0
  8  9  1  0  0  0  0
  8 35  1  0  0  0  0
  9 19  1  0  0  0  0
  9 10  2  0  0  0  0
 10 11  1  0  0  0  0
 10 36  1  0  0  0  0
 11 12  2  0  0  0  0
 11 37  1  0  0  0  0
 12 13  1  0  0  0  0
 12 18  1  0  0  0  0
 13 17  1  0  0  0  0
 13 14  1  0  0  0  0
 14 15  1  0  0  0  0
 14 38  1  0  0  0  0
 14 39  1  0  0  0  0
 15 16  1  0  0  0  0
 15 40  1  0  0  0  0
 15 41  1  0  0  0  0
 16 17  1  0  0  0  0
 16 42  1  0  0  0  0
 16 43  1  0  0  0  0
 17 44  1  0  0  0  0
 17 45  1  0  0  0  0
 18 19  2  0  0  0  0
 19 46  1  0  0  0  0
 20 25  1  0  0  0  0
 20 21  1  0  0  0  0
 21 22  1  0  0  0  0
 21 47  1  0  0  0  0
 21 48  1  0  0  0  0
 22 23  1  0  0  0  0
 22 49  1  0  0  0  0
 22 50  1  0  0  0  0
 23 24  1  0  0  0  0
 24 25  1  0  0  0  0
 24 51  1  0  0  0  0
 24 52  1  0  0  0  0
 25 53  1  0  0  0  0
 25 54  1  0  0  0  0
M  END
> <s_m_source_file>
AV-unprocessed.smi

> <i_m_source_file_index>
1157

> <i_lp_mmshare_version>
43012

> <i_f3d_flags>
0

> <s_epik_input>
W0NIMl0xW0NIMl1PW0NIMl1bQ0gyXU4xQyhbQ0gzXSkoW0NIM10pW0NIMl1bTkhdQyg9TylbTkhdYzJbY0hdW2NIXWMobltjSF0yKU4zW0NIMl1bQ0gyXVtDSDJdW0NIMl0z

> <s_epik_cmdline>
J2VwaWtfcHl0aG9uJywgJy1waCcsICc3LjAnLCAnLXRuJywgJzgnLCAnLW1hJywgJzIwMCcsICctbWV0YWxfYmluZGluZycsICctaW1hZScsICc8aW5maWxlLm1hZT4nLCAnLW9tYWUnLCAnPG91dGZpbGUubWFlPic=

> <r_lp_tautomer_probability>
1

> <r_epik_Ionization_Penalty>
0.366523

> <r_epik_Ionization_Penalty_Charging>
0

> <r_epik_Ionization_Penalty_Neutral>
0.366523

> <r_epik_State_Penalty>
0.351681

> <r_epik_Charging_Adjusted_Penalty>
0.351681

> <i_epik_Tot_Q>
0

> <i_epik_Tot_abs_Q>
0

> <r_epik_Metal_State_Penalty>
0.334658

> <b_epik_Metal_Only>
0

> <s_lp_Force_Field>
OPLS_2005

> <r_lp_Energy>
67.3279

> <b_lp_Chiralities_Consistent>
1

> <s_lp_Variant>
AV-unprocessed.smi:1157-1

> <Gold.Version>
5.8.1

> <Gold.Id.Protein>
6NUR|6NUR_protein|mol2

> <Gold.PLP.Fitness>
46.0000

> <Gold.PLP.PLP>
-43.3897

> <Gold.PLP.part.hbond>
-1.0000

> <Gold.PLP.part.metal>
0.0000

> <Gold.PLP.part.buried>
-5.7720

> <Gold.PLP.part.nonpolar>
-37.3760

> <Gold.PLP.part.repulsive>
0.1503

> <Gold.PLP.ligand.clash>
0.0000

> <Gold.PLP.ligand.torsion>
0.3180

> <Gold.PLP.Chemscore.Hbond>
1.0000

> <Gold.PLP.Chemscore.CHOScore>
0.0000

> <Gold.PLP.Chemscore.Metal>
0.0000

> <Gold.Chemscore.Hbonds>
donor molecule, donor type, donor heavy atom, donor atom, acceptor molecule, acceptor atom, score
      P1  H  6896  6909       L1     7  1.00

> <Gold.PLP.Chemscore.Internal.Correction>
0.2464

> <Gold.Rescore>
     Score         DG    S(hbond)    S(metal)    S(lipo)     H(rot)  DE(clash)    DE(int)     intcor
     17.03     -18.87       0.98        0.00     116.78       1.38       0.17       1.67       ----

> <Gold.Chemscore.Fitness>
17.0276

> <Gold.Chemscore.DG>
-18.8726

> <Gold.Chemscore.ZeroCoef>
-5.4800

> <Gold.Chemscore.Hbond>
0.9774

> <Gold.Chemscore.Metal>
0.0000

> <Gold.Chemscore.Lipo>
116.7843

> <Gold.Chemscore.Internal_Hbond>
0.0000

> <Gold.Chemscore.DEClash>
0.1703

> <Gold.Chemscore.DEInternal>
1.6747

> <Gold.Chemscore.Rot>
1.3812

> <Gold.Chemscore.Internal.Correction>
   9.000000E+99

> <Gold.Chemscore.Hbonds>
donor molecule, donor type, donor heavy atom, donor atom, acceptor molecule, acceptor atom, score
      P1  H  6896  6909       L1     7  0.91

> <Gold.Chemscore.Hbond.Weighted>
-3.2646

> <Gold.Chemscore.Metal.Weighted>
-0.0000

> <Gold.Chemscore.Lipo.Weighted>
-13.6638

> <Gold.Chemscore.Internal_Hbond.Weighted>
0.0000

> <Gold.Chemscore.DEClash.Weighted>
0.1703

> <Gold.Chemscore.DEInternal.Weighted>
1.6747

> <Gold.Chemscore.Rot.Weighted>
3.5358

> <Gold.Chemscore.Internal.Correction.Weighted>
   9.000000E+99

> <Gold.Protein.RotatedTorsions>
[ 6907 6896 6895 6894 ] final  161.25 input  -60.11 | X-H torsion
[ 7974 7965 7964 7962 ] final  -19.34 input  175.53 | X-H torsion
[ 8008 7997 7996 7995 ] final  159.19 input   59.86 | X-H torsion
[ 10167 10162 10161 10158 ] final   52.62 input  -65.29 | X-H torsion
[ 10718 10713 10712 10709 ] final  142.42 input   66.30 | X-H torsion
[ 10763 10752 10751 10750 ] final  -38.16 input  -60.55 | X-H torsion
[ 11005 11000 10999 10996 ] final  176.66 input  -57.11 | X-H torsion

> <Gold.Protein.ActiveResidues>
 VAL166  LYS551  ARG553  GLY616  TRP617  ASP618  TYR619  PRO620  LYS621  CYS622 
 ASP623  PHE694  ASN695  SER759  ASP760  ASP761  ALA762  ILE779  LEU786  VAL792 
 PHE793  MET794  SER795  GLU796  ALA797  LYS798  CYS799  TRP800  GLU811  SER814 

> <Gold.Protein.RotatedAtoms>
  151.9584  133.3687  159.4025 H   0  0  0  0  0  0  0  0  0  0  0  0  # atno 6907 bound_to 6896
  150.6968  134.4266  159.5238 H   0  0  0  0  0  0  0  0  0  0  0  0  # atno 6908 bound_to 6896
  152.1951  134.8638  160.0564 H   0  0  0  0  0  0  0  0  0  0  0  0  # atno 6909 bound_to 6896
  146.1846  140.4048  142.8481 H   0  0  0  0  0  0  0  0  0  0  0  0  # atno 7974 bound_to 7965
  156.2255  140.1838  156.7374 H   0  0  0  0  0  0  0  0  0  0  0  0  # atno 8008 bound_to 7997
  154.5934  140.0647  156.9298 H   0  0  0  0  0  0  0  0  0  0  0  0  # atno 8009 bound_to 7997
  155.2297  140.3314  155.4307 H   0  0  0  0  0  0  0  0  0  0  0  0  # atno 8010 bound_to 7997
  140.2495  144.3495  150.6353 H   0  0  0  0  0  0  0  0  0  0  0  0  # atno 10167 bound_to 10162
  157.3807  131.0992  151.0741 H   0  0  0  0  0  0  0  0  0  0  0  0  # atno 10718 bound_to 10713
  153.9083  135.6795  153.4752 H   0  0  0  0  0  0  0  0  0  0  0  0  # atno 10763 bound_to 10752
  153.1092  135.4791  154.9003 H   0  0  0  0  0  0  0  0  0  0  0  0  # atno 10764 bound_to 10752
  154.7540  135.3192  154.8459 H   0  0  0  0  0  0  0  0  0  0  0  0  # atno 10765 bound_to 10752
  140.3756  134.6991  157.4419 H   0  0  0  0  0  0  0  0  0  0  0  0  # atno 11005 bound_to 11000
  144.8374  140.6804  143.6251 LP  0  0  0  0  0  0  0  0  0  0  0  0  # atno 17320 bound_to 7965
  145.3976  139.1604  143.4195 LP  0  0  0  0  0  0  0  0  0  0  0  0  # atno 17321 bound_to 7965
  140.6052  143.2167  151.6995 LP  0  0  0  0  0  0  0  0  0  0  0  0  # atno 17342 bound_to 10162
  139.5051  144.3730  152.0451 LP  0  0  0  0  0  0  0  0  0  0  0  0  # atno 17343 bound_to 10162
  157.1811  130.6310  149.5672 LP  0  0  0  0  0  0  0  0  0  0  0  0  # atno 17370 bound_to 10713
  155.9775  130.4753  150.6598 LP  0  0  0  0  0  0  0  0  0  0  0  0  # atno 17371 bound_to 10713
  140.0518  134.6120  155.8853 LP  0  0  0  0  0  0  0  0  0  0  0  0  # atno 17394 bound_to 11000
  141.1940  133.6581  156.5576 LP  0  0  0  0  0  0  0  0  0  0  0  0  # atno 17395 bound_to 11000

$$$$
