AV-unprocessed.smi:2826|AV-procd|sdf|10894|dock6
  -GOLD-   2272015343D 1   1.00000     0.00000
 Structure written by MMmdl.
 50 51  0  0  0  0  0  0  0  0  1 V2000
  148.6763  128.5973  153.6108 C   0  0  0  0  0  0  0  0  0  0  0  0
  149.3595  129.2931  154.6476 O   0  0  0  0  0  0  0  0  0  0  0  0
  149.3744  130.6723  154.6110 C   0  0  0  0  0  0  0  0  0  0  0  0
  150.1739  131.3631  155.5415 C   0  0  0  0  0  0  0  0  0  0  0  0
  150.1942  132.7697  155.5083 C   0  0  0  0  0  0  0  0  0  0  0  0
  149.4200  133.4478  154.5365 C   0  0  0  0  0  0  0  0  0  0  0  0
  149.3613  134.8666  154.4415 N   0  0  0  0  0  0  0  0  0  0  0  0
  150.1661  135.7726  155.0226 C   0  0  0  0  0  0  0  0  0  0  0  0
  151.1302  135.5094  155.7412 O   0  0  0  0  0  0  0  0  0  0  0  0
  149.8026  137.0224  154.7011 N   0  0  0  0  0  0  0  0  0  0  0  0
  150.4815  138.2347  155.1495 C   0  0  2  0  0  0  0  0  0  0  0  0
  151.8280  138.3806  154.4270 C   0  0  0  0  0  0  0  0  0  0  0  0
  152.6167  139.5720  154.9923 C   0  0  0  0  0  0  0  0  0  0  0  0
  152.7895  139.4169  156.3967 O   0  0  0  0  0  0  0  0  0  0  0  0
  151.5607  139.4105  157.1199 C   0  0  2  0  0  0  0  0  0  0  0  0
  151.8767  139.3544  158.6261 C   0  0  0  0  0  0  0  0  0  0  0  0
  152.8935  140.4089  159.1153 C   0  0  0  0  0  0  0  0  0  0  0  0
  153.4476  140.0244  160.4958 C   0  0  0  0  0  0  0  0  0  0  0  0
  152.3005  141.8277  159.1556 C   0  0  0  0  0  0  0  0  0  0  0  0
  150.7210  138.2000  156.6686 C   0  0  0  0  0  0  0  0  0  0  0  0
  148.6368  132.6633  153.6556 C   0  0  0  0  0  0  0  0  0  0  0  0
  147.7585  133.3019  152.5940 C   0  0  0  0  0  0  0  0  0  0  0  0
  148.6168  131.3125  153.6871 N   0  0  0  0  0  0  0  0  0  0  0  0
  148.7607  127.5240  153.7805 H   0  0  0  0  0  0  0  0  0  0  0  0
  149.1098  128.8122  152.6331 H   0  0  0  0  0  0  0  0  0  0  0  0
  147.6146  128.8472  153.5950 H   0  0  0  0  0  0  0  0  0  0  0  0
  150.7580  130.8235  156.2724 H   0  0  0  0  0  0  0  0  0  0  0  0
  150.7893  133.2994  156.2359 H   0  0  0  0  0  0  0  0  0  0  0  0
  148.6714  135.2302  153.8006 H   0  0  0  0  0  0  0  0  0  0  0  0
  149.0012  137.1460  154.1000 H   0  0  0  0  0  0  0  0  0  0  0  0
  149.8668  139.1034  154.9050 H   0  0  0  0  0  0  0  0  0  0  0  0
  152.4175  137.4709  154.5510 H   0  0  0  0  0  0  0  0  0  0  0  0
  151.6724  138.5100  153.3554 H   0  0  0  0  0  0  0  0  0  0  0  0
  153.5982  139.6283  154.5214 H   0  0  0  0  0  0  0  0  0  0  0  0
  152.1077  140.5132  154.7790 H   0  0  0  0  0  0  0  0  0  0  0  0
  151.0056  140.3225  156.8981 H   0  0  0  0  0  0  0  0  0  0  0  0
  150.9516  139.4614  159.1942 H   0  0  0  0  0  0  0  0  0  0  0  0
  152.2558  138.3584  158.8593 H   0  0  0  0  0  0  0  0  0  0  0  0
  153.7374  140.4185  158.4247 H   0  0  0  0  0  0  0  0  0  0  0  0
  152.6571  139.9953  161.2463 H   0  0  0  0  0  0  0  0  0  0  0  0
  154.1994  140.7394  160.8314 H   0  0  0  0  0  0  0  0  0  0  0  0
  153.9200  139.0419  160.4713 H   0  0  0  0  0  0  0  0  0  0  0  0
  151.4176  141.8699  159.7941 H   0  0  0  0  0  0  0  0  0  0  0  0
  152.0132  142.1744  158.1635 H   0  0  0  0  0  0  0  0  0  0  0  0
  153.0252  142.5431  159.5453 H   0  0  0  0  0  0  0  0  0  0  0  0
  149.7681  138.1900  157.1994 H   0  0  0  0  0  0  0  0  0  0  0  0
  151.2379  137.2778  156.9389 H   0  0  0  0  0  0  0  0  0  0  0  0
  148.3558  133.9348  151.9370 H   0  0  0  0  0  0  0  0  0  0  0  0
  146.9882  133.9168  153.0596 H   0  0  0  0  0  0  0  0  0  0  0  0
  147.2636  132.5501  151.9773 H   0  0  0  0  0  0  0  0  0  0  0  0
  1  2  1  0  0  0  0
  1 24  1  0  0  0  0
  1 25  1  0  0  0  0
  1 26  1  0  0  0  0
  2  3  1  0  0  0  0
  3 23  1  0  0  0  0
  3  4  2  0  0  0  0
  4  5  1  0  0  0  0
  4 27  1  0  0  0  0
  5  6  2  0  0  0  0
  5 28  1  0  0  0  0
  6  7  1  0  0  0  0
  6 21  1  0  0  0  0
  7  8  1  0  0  0  0
  7 29  1  0  0  0  0
  8  9  2  0  0  0  0
  8 10  1  0  0  0  0
 10 11  1  0  0  0  0
 10 30  1  0  0  0  0
 11 20  1  0  0  0  0
 11 12  1  0  0  0  0
 11 31  1  0  0  0  0
 12 13  1  0  0  0  0
 12 32  1  0  0  0  0
 12 33  1  0  0  0  0
 13 14  1  0  0  0  0
 13 34  1  0  0  0  0
 13 35  1  0  0  0  0
 14 15  1  0  0  0  0
 15 16  1  0  0  0  0
 15 20  1  0  0  0  0
 15 36  1  0  0  0  0
 16 17  1  0  0  0  0
 16 37  1  0  0  0  0
 16 38  1  0  0  0  0
 17 18  1  0  0  0  0
 17 19  1  0  0  0  0
 17 39  1  0  0  0  0
 18 40  1  0  0  0  0
 18 41  1  0  0  0  0
 18 42  1  0  0  0  0
 19 43  1  0  0  0  0
 19 44  1  0  0  0  0
 19 45  1  0  0  0  0
 20 46  1  0  0  0  0
 20 47  1  0  0  0  0
 21 22  1  0  0  0  0
 21 23  2  0  0  0  0
 22 48  1  0  0  0  0
 22 49  1  0  0  0  0
 22 50  1  0  0  0  0
M  END
> <s_m_source_file>
AV-unprocessed.smi

> <i_m_source_file_index>
2826

> <i_lp_mmshare_version>
43012

> <i_f3d_flags>
0

> <s_epik_input>
W0NIM11PYzFbY0hdW2NIXWMoYyhuMSlbQ0gzXSlbTkhdQyg9TylbTkhdW0NAQEhdMltDSDJdW0NIMl1PW0NASF0oW0NIMl0yKVtDSDJdW0NIXShbQ0gzXSlbQ0gzXQ==

> <s_epik_cmdline>
J2VwaWtfcHl0aG9uJywgJy1waCcsICc3LjAnLCAnLXRuJywgJzgnLCAnLW1hJywgJzIwMCcsICctbWV0YWxfYmluZGluZycsICctaW1hZScsICc8aW5maWxlLm1hZT4nLCAnLW9tYWUnLCAnPG91dGZpbGUubWFlPic=

> <r_lp_tautomer_probability>
1

> <r_epik_Ionization_Penalty>
0.000249977

> <r_epik_Ionization_Penalty_Charging>
0

> <r_epik_Ionization_Penalty_Neutral>
0.000249977

> <r_epik_State_Penalty>
-0

> <r_epik_Charging_Adjusted_Penalty>
0

> <i_epik_Tot_Q>
0

> <i_epik_Tot_abs_Q>
0

> <r_epik_Metal_State_Penalty>
-0

> <b_epik_Metal_Only>
0

> <s_lp_Force_Field>
OPLS_2005

> <r_lp_Energy>
13.3689

> <b_lp_Chiralities_Consistent>
1

> <s_lp_Variant>
AV-unprocessed.smi:2826-3

> <Gold.Version>
5.8.1

> <Gold.Id.Protein>
6NUR|6NUR_protein|mol2

> <Gold.PLP.Fitness>
45.0465

> <Gold.PLP.PLP>
-38.9245

> <Gold.PLP.part.hbond>
-3.8894

> <Gold.PLP.part.metal>
0.0000

> <Gold.PLP.part.buried>
-2.9967

> <Gold.PLP.part.nonpolar>
-31.9125

> <Gold.PLP.part.repulsive>
0.3146

> <Gold.PLP.ligand.clash>
0.0000

> <Gold.PLP.ligand.torsion>
0.3662

> <Gold.PLP.Chemscore.Hbond>
2.2652

> <Gold.PLP.Chemscore.CHOScore>
0.0000

> <Gold.PLP.Chemscore.Metal>
0.0000

> <Gold.Chemscore.Hbonds>
donor molecule, donor type, donor heavy atom, donor atom, acceptor molecule, acceptor atom, score
      L1  H     7    29       P1  7948  0.37
      L1  H    10    30       P1  7948  0.03
      P1  H  7997  8008       L1    14  0.95
      P1  H 10752 10764       L1     9  0.88

> <Gold.PLP.Chemscore.Internal.Correction>
0.0587

> <Gold.Rescore>
     Score         DG    S(hbond)    S(metal)    S(lipo)     H(rot)  DE(clash)    DE(int)     intcor
     15.65     -19.99       2.12        0.00      96.37       1.51       1.56       2.77       ----

> <Gold.Chemscore.Fitness>
15.6522

> <Gold.Chemscore.DG>
-19.9885

> <Gold.Chemscore.ZeroCoef>
-5.4800

> <Gold.Chemscore.Hbond>
2.1222

> <Gold.Chemscore.Metal>
0.0000

> <Gold.Chemscore.Lipo>
96.3682

> <Gold.Chemscore.Internal_Hbond>
0.0000

> <Gold.Chemscore.DEClash>
1.5645

> <Gold.Chemscore.DEInternal>
2.7717

> <Gold.Chemscore.Rot>
1.5057

> <Gold.Chemscore.Internal.Correction>
   9.000000E+99

> <Gold.Chemscore.Hbonds>
donor molecule, donor type, donor heavy atom, donor atom, acceptor molecule, acceptor atom, score
      L1  H     7    29       P1  7948  0.31
      L1  H    10    30       P1  7948  0.05
      P1  H  7997  8008       L1    14  0.22
      P1  H 10752 10764       L1     9  0.77

> <Gold.Chemscore.Hbond.Weighted>
-7.0881

> <Gold.Chemscore.Metal.Weighted>
-0.0000

> <Gold.Chemscore.Lipo.Weighted>
-11.2751

> <Gold.Chemscore.Internal_Hbond.Weighted>
0.0000

> <Gold.Chemscore.DEClash.Weighted>
1.5645

> <Gold.Chemscore.DEInternal.Weighted>
2.7717

> <Gold.Chemscore.Rot.Weighted>
3.8547

> <Gold.Chemscore.Internal.Correction.Weighted>
   9.000000E+99

> <Gold.Protein.RotatedTorsions>
[ 6907 6896 6895 6894 ] final  109.45 input  -60.11 | X-H torsion
[ 7974 7965 7964 7962 ] final -157.97 input  175.53 | X-H torsion
[ 8008 7997 7996 7995 ] final  -56.26 input   59.86 | X-H torsion
[ 10167 10162 10161 10158 ] final  -42.52 input  -65.29 | X-H torsion
[ 10718 10713 10712 10709 ] final    7.65 input   66.30 | X-H torsion
[ 10763 10752 10751 10750 ] final  -49.73 input  -60.55 | X-H torsion
[ 11005 11000 10999 10996 ] final   80.24 input  -57.11 | X-H torsion

> <Gold.Protein.ActiveResidues>
 VAL166  LYS551  ARG553  GLY616  TRP617  ASP618  TYR619  PRO620  LYS621  CYS622 
 ASP623  PHE694  ASN695  SER759  ASP760  ASP761  ALA762  ILE779  LEU786  VAL792 
 PHE793  MET794  SER795  GLU796  ALA797  LYS798  CYS799  TRP800  GLU811  SER814 

> <Gold.Protein.RotatedAtoms>
  152.5067  133.8943  159.7409 H   0  0  0  0  0  0  0  0  0  0  0  0  # atno 6907 bound_to 6896
  150.9374  133.6687  159.2804 H   0  0  0  0  0  0  0  0  0  0  0  0  # atno 6908 bound_to 6896
  151.4010  135.0976  159.9608 H   0  0  0  0  0  0  0  0  0  0  0  0  # atno 6909 bound_to 6896
  144.7525  140.3894  143.6037 H   0  0  0  0  0  0  0  0  0  0  0  0  # atno 7974 bound_to 7965
  154.4224  140.1134  156.5608 H   0  0  0  0  0  0  0  0  0  0  0  0  # atno 8008 bound_to 7997
  155.6313  140.3495  155.4665 H   0  0  0  0  0  0  0  0  0  0  0  0  # atno 8009 bound_to 7997
  155.9946  140.1186  157.0595 H   0  0  0  0  0  0  0  0  0  0  0  0  # atno 8010 bound_to 7997
  140.6966  143.3033  151.3221 H   0  0  0  0  0  0  0  0  0  0  0  0  # atno 10167 bound_to 10162
  156.9401  130.5858  149.5652 H   0  0  0  0  0  0  0  0  0  0  0  0  # atno 10718 bound_to 10713
  154.0989  135.6566  153.4865 H   0  0  0  0  0  0  0  0  0  0  0  0  # atno 10763 bound_to 10752
  153.0295  135.5220  154.7306 H   0  0  0  0  0  0  0  0  0  0  0  0  # atno 10764 bound_to 10752
  154.6452  135.2993  155.0024 H   0  0  0  0  0  0  0  0  0  0  0  0  # atno 10765 bound_to 10752
  139.9142  134.7905  156.1883 H   0  0  0  0  0  0  0  0  0  0  0  0  # atno 11005 bound_to 11000
  145.6893  139.1635  143.2656 LP  0  0  0  0  0  0  0  0  0  0  0  0  # atno 17320 bound_to 7965
  146.1495  140.6946  142.9329 LP  0  0  0  0  0  0  0  0  0  0  0  0  # atno 17321 bound_to 7965
  139.6429  144.0505  152.2568 LP  0  0  0  0  0  0  0  0  0  0  0  0  # atno 17342 bound_to 10162
  140.0016  144.6289  150.7724 LP  0  0  0  0  0  0  0  0  0  0  0  0  # atno 17343 bound_to 10162
  156.0408  130.5491  150.8766 LP  0  0  0  0  0  0  0  0  0  0  0  0  # atno 17370 bound_to 10713
  157.5790  131.0946  150.9300 LP  0  0  0  0  0  0  0  0  0  0  0  0  # atno 17371 bound_to 10713
  141.0599  133.6847  156.1933 LP  0  0  0  0  0  0  0  0  0  0  0  0  # atno 17394 bound_to 11000
  140.6677  134.4901  157.5586 LP  0  0  0  0  0  0  0  0  0  0  0  0  # atno 17395 bound_to 11000

$$$$
