AV-unprocessed.smi:1512|AV-procd|sdf|6101|dock10
  -GOLD-   22720 6233D 1   1.00000     0.00000
 Structure written by MMmdl.
 44 46  0  0  0  0  0  0  0  0  3 V2000
  147.0908  134.7369  154.7348 C   0  0  0  0  0  0  0  0  0  0  0  0
  146.3894  135.0977  153.4145 C   0  0  1  0  0  0  0  0  0  0  0  0
  146.9405  136.3625  152.9309 N   0  0  0  0  0  0  0  0  0  0  0  0
  146.4449  137.5847  153.1777 C   0  0  0  0  0  0  0  0  0  0  0  0
  145.4780  137.7932  153.9114 O   0  0  0  0  0  0  0  0  0  0  0  0
  147.1612  138.7534  152.4885 C   0  0  0  0  0  0  0  0  0  0  0  0
  147.4977  139.8396  153.4245 N   0  0  0  0  0  0  0  0  0  0  0  0
  146.5197  140.8299  153.6327 C   0  0  0  0  0  0  0  0  0  0  0  0
  146.7268  141.8684  154.4548 C   0  0  0  0  0  0  0  0  0  0  0  0
  147.9936  141.9555  155.1392 C   0  0  0  0  0  0  0  0  0  0  0  0
  148.9494  141.0157  154.9553 C   0  0  0  0  0  0  0  0  0  0  0  0
  150.1945  141.1619  155.6743 N   0  3  0  0  0  0  0  0  0  0  0  0
  150.2125  141.8387  156.6978 O   0  0  0  0  0  0  0  0  0  0  0  0
  151.1972  140.6132  155.2266 O   0  5  0  0  0  0  0  0  0  0  0  0
  148.7198  139.8764  154.0425 C   0  0  0  0  0  0  0  0  0  0  0  0
  149.5685  139.0078  153.8302 O   0  0  0  0  0  0  0  0  0  0  0  0
  146.5590  134.0117  152.3226 C   0  0  2  0  0  0  0  0  0  0  0  0
  145.9610  134.4052  150.9467 C   0  0  0  0  0  0  0  0  0  0  0  0
  145.0406  133.2208  150.6065 C   0  0  1  0  0  0  0  0  0  0  0  0
  145.8908  131.9721  150.3101 C   0  0  0  0  0  0  0  0  0  0  0  0
  146.4102  131.5783  151.7052 C   0  0  0  0  0  0  0  0  0  0  0  0
  145.8228  132.6785  152.6103 C   0  0  2  0  0  0  0  0  0  0  0  0
  144.4537  132.8928  151.9721 C   0  0  0  0  0  0  0  0  0  0  0  0
  146.6681  133.8410  155.1878 H   0  0  0  0  0  0  0  0  0  0  0  0
  146.9867  135.5413  155.4638 H   0  0  0  0  0  0  0  0  0  0  0  0
  148.1568  134.5629  154.5836 H   0  0  0  0  0  0  0  0  0  0  0  0
  145.3246  135.2114  153.6233 H   0  0  0  0  0  0  0  0  0  0  0  0
  147.7429  136.2980  152.3214 H   0  0  0  0  0  0  0  0  0  0  0  0
  148.0573  138.3624  152.0048 H   0  0  0  0  0  0  0  0  0  0  0  0
  146.5449  139.1431  151.6757 H   0  0  0  0  0  0  0  0  0  0  0  0
  145.6019  140.6971  153.0783 H   0  0  0  0  0  0  0  0  0  0  0  0
  145.9664  142.6220  154.5984 H   0  0  0  0  0  0  0  0  0  0  0  0
  148.1650  142.7841  155.8110 H   0  0  0  0  0  0  0  0  0  0  0  0
  147.6270  133.8186  152.2079 H   0  0  0  0  0  0  0  0  0  0  0  0
  145.3683  135.3186  151.0103 H   0  0  0  0  0  0  0  0  0  0  0  0
  146.7297  134.5662  150.1902 H   0  0  0  0  0  0  0  0  0  0  0  0
  144.3079  133.4462  149.8312 H   0  0  0  0  0  0  0  0  0  0  0  0
  145.2785  131.1735  149.8891 H   0  0  0  0  0  0  0  0  0  0  0  0
  146.6991  132.1814  149.6087 H   0  0  0  0  0  0  0  0  0  0  0  0
  146.0276  130.5978  151.9918 H   0  0  0  0  0  0  0  0  0  0  0  0
  147.4990  131.5354  151.7498 H   0  0  0  0  0  0  0  0  0  0  0  0
  145.7938  132.3885  153.6596 H   0  0  0  0  0  0  0  0  0  0  0  0
  143.8898  133.7177  152.4111 H   0  0  0  0  0  0  0  0  0  0  0  0
  143.8309  131.9962  151.9704 H   0  0  0  0  0  0  0  0  0  0  0  0
  1  2  1  0  0  0  0
  1 24  1  0  0  0  0
  1 25  1  0  0  0  0
  1 26  1  0  0  0  0
  2  3  1  0  0  0  0
  2 17  1  0  0  0  0
  2 27  1  0  0  0  0
  3  4  1  0  0  0  0
  3 28  1  0  0  0  0
  4  5  2  0  0  0  0
  4  6  1  0  0  0  0
  6  7  1  0  0  0  0
  6 29  1  0  0  0  0
  6 30  1  0  0  0  0
  7 15  1  0  0  0  0
  7  8  1  0  0  0  0
  8  9  2  0  0  0  0
  8 31  1  0  0  0  0
  9 10  1  0  0  0  0
  9 32  1  0  0  0  0
 10 11  2  0  0  0  0
 10 33  1  0  0  0  0
 11 12  1  0  0  0  0
 11 15  1  0  0  0  0
 12 13  2  0  0  0  0
 12 14  1  0  0  0  0
 15 16  2  0  0  0  0
 17 22  1  0  0  0  0
 17 18  1  0  0  0  0
 17 34  1  0  0  0  0
 18 19  1  0  0  0  0
 18 35  1  0  0  0  0
 18 36  1  0  0  0  0
 19 23  1  0  0  0  0
 19 20  1  0  0  0  0
 19 37  1  0  0  0  0
 20 21  1  0  0  0  0
 20 38  1  0  0  0  0
 20 39  1  0  0  0  0
 21 22  1  0  0  0  0
 21 40  1  0  0  0  0
 21 41  1  0  0  0  0
 22 23  1  0  0  0  0
 22 42  1  0  0  0  0
 23 43  1  0  0  0  0
 23 44  1  0  0  0  0
M  CHG  1  12   1
M  CHG  1  14  -1
M  END
> <s_m_source_file>
AV-unprocessed.smi

> <i_m_source_file_index>
1512

> <i_lp_mmshare_version>
43012

> <i_f3d_flags>
0

> <s_epik_input>
W0NIMl0xW0NIMl1bQ0BIXShbQ0gyXTIpW0NAQEhdKFtDSDJdW0NAQEhdMTIpW0NASF0oW0NIM10pW05IXUMoPU8pW0NIMl1uM1tjSF1bY0hdW2NIXWMoW04rXSg9TylbTy1dKWMzPU8=

> <s_epik_cmdline>
J2VwaWtfcHl0aG9uJywgJy1waCcsICc3LjAnLCAnLXRuJywgJzgnLCAnLW1hJywgJzIwMCcsICctbWV0YWxfYmluZGluZycsICctaW1hZScsICc8aW5maWxlLm1hZT4nLCAnLW9tYWUnLCAnPG91dGZpbGUubWFlPic=

> <r_lp_tautomer_probability>
1

> <r_epik_Ionization_Penalty>
2.17697e-08

> <r_epik_Ionization_Penalty_Charging>
1.42735e-10

> <r_epik_Ionization_Penalty_Neutral>
2.16269e-08

> <r_epik_State_Penalty>
-0

> <r_epik_Charging_Adjusted_Penalty>
1.42735e-10

> <i_epik_Tot_Q>
0

> <i_epik_Tot_abs_Q>
2

> <r_epik_Metal_State_Penalty>
-0

> <b_epik_Metal_Only>
0

> <s_lp_Force_Field>
OPLS_2005

> <r_lp_Energy>
64.6124

> <b_lp_Chiralities_Consistent>
1

> <s_lp_Variant>
AV-unprocessed.smi:1512-2

> <Gold.Version>
5.8.1

> <Gold.Id.Protein>
6NUR|6NUR_protein|mol2

> <Gold.PLP.Fitness>
42.9193

> <Gold.PLP.PLP>
-36.0543

> <Gold.PLP.part.hbond>
-2.0000

> <Gold.PLP.part.metal>
0.0000

> <Gold.PLP.part.buried>
-2.8082

> <Gold.PLP.part.nonpolar>
-33.2257

> <Gold.PLP.part.repulsive>
1.6422

> <Gold.PLP.ligand.clash>
0.0000

> <Gold.PLP.ligand.torsion>
1.0957

> <Gold.PLP.Chemscore.Hbond>
2.0000

> <Gold.PLP.Chemscore.CHOScore>
1.0000

> <Gold.PLP.Chemscore.Metal>
0.0000

> <Gold.Chemscore.Hbonds>
donor molecule, donor type, donor heavy atom, donor atom, acceptor molecule, acceptor atom, score
      L1  H     3    28       P1  7948  0.39
      P1  H  7989  7998       L1    14  0.88
      L1  C     8    31       P1 10175  0.97

> <Gold.PLP.Chemscore.Internal.Correction>
0.0565

> <Gold.Rescore>
     Score         DG    S(hbond)    S(metal)    S(lipo)     H(rot)  DE(clash)    DE(int)     intcor
     13.79     -16.61       1.85        0.00      80.38       1.75       0.18       2.64       ----

> <Gold.Chemscore.Fitness>
13.7881

> <Gold.Chemscore.DG>
-16.6057

> <Gold.Chemscore.ZeroCoef>
-5.4800

> <Gold.Chemscore.Hbond>
1.8545

> <Gold.Chemscore.Metal>
0.0000

> <Gold.Chemscore.Lipo>
80.3848

> <Gold.Chemscore.Internal_Hbond>
0.0000

> <Gold.Chemscore.DEClash>
0.1754

> <Gold.Chemscore.DEInternal>
2.6422

> <Gold.Chemscore.Rot>
1.7474

> <Gold.Chemscore.Internal.Correction>
   9.000000E+99

> <Gold.Chemscore.Hbonds>
donor molecule, donor type, donor heavy atom, donor atom, acceptor molecule, acceptor atom, score
      L1  H     3    28       P1  7948  0.39
      P1  H  7989  7998       L1    14  0.84

> <Gold.Chemscore.Hbond.Weighted>
-6.1940

> <Gold.Chemscore.Metal.Weighted>
-0.0000

> <Gold.Chemscore.Lipo.Weighted>
-9.4050

> <Gold.Chemscore.Internal_Hbond.Weighted>
0.0000

> <Gold.Chemscore.DEClash.Weighted>
0.1754

> <Gold.Chemscore.DEInternal.Weighted>
2.6422

> <Gold.Chemscore.Rot.Weighted>
4.4733

> <Gold.Chemscore.Internal.Correction.Weighted>
   9.000000E+99

> <Gold.Protein.RotatedTorsions>
[ 6907 6896 6895 6894 ] final  -67.87 input  -60.11 | X-H torsion
[ 7974 7965 7964 7962 ] final  -43.29 input  175.53 | X-H torsion
[ 8008 7997 7996 7995 ] final  -23.71 input   59.86 | X-H torsion
[ 10167 10162 10161 10158 ] final  -44.95 input  -65.29 | X-H torsion
[ 10718 10713 10712 10709 ] final   41.47 input   66.30 | X-H torsion
[ 10763 10752 10751 10750 ] final  -27.09 input  -60.55 | X-H torsion
[ 11005 11000 10999 10996 ] final   -3.84 input  -57.11 | X-H torsion

> <Gold.Protein.ActiveResidues>
 VAL166  LYS551  ARG553  GLY616  TRP617  ASP618  TYR619  PRO620  LYS621  CYS622 
 ASP623  PHE694  ASN695  SER759  ASP760  ASP761  ALA762  ILE779  LEU786  VAL792 
 PHE793  MET794  SER795  GLU796  ALA797  LYS798  CYS799  TRP800  GLU811  SER814 

> <Gold.Protein.RotatedAtoms>
  150.7386  134.5819  159.5942 H   0  0  0  0  0  0  0  0  0  0  0  0  # atno 6907 bound_to 6896
  152.3230  134.7353  160.0318 H   0  0  0  0  0  0  0  0  0  0  0  0  # atno 6908 bound_to 6896
  151.7862  133.3319  159.3522 H   0  0  0  0  0  0  0  0  0  0  0  0  # atno 6909 bound_to 6896
  146.0033  140.7049  142.9259 H   0  0  0  0  0  0  0  0  0  0  0  0  # atno 7974 bound_to 7965
  154.4570  140.1973  156.0353 H   0  0  0  0  0  0  0  0  0  0  0  0  # atno 8008 bound_to 7997
  156.0765  140.3277  155.7612 H   0  0  0  0  0  0  0  0  0  0  0  0  # atno 8009 bound_to 7997
  155.5181  140.0567  157.2902 H   0  0  0  0  0  0  0  0  0  0  0  0  # atno 8010 bound_to 7997
  140.6877  143.2904  151.3569 H   0  0  0  0  0  0  0  0  0  0  0  0  # atno 10167 bound_to 10162
  157.3939  130.7822  149.7292 H   0  0  0  0  0  0  0  0  0  0  0  0  # atno 10718 bound_to 10713
  153.7264  135.6941  153.5000 H   0  0  0  0  0  0  0  0  0  0  0  0  # atno 10763 bound_to 10752
  153.2167  135.4384  155.0441 H   0  0  0  0  0  0  0  0  0  0  0  0  # atno 10764 bound_to 10752
  154.8267  135.3450  154.6796 H   0  0  0  0  0  0  0  0  0  0  0  0  # atno 10765 bound_to 10752
  140.6738  133.9214  155.8511 H   0  0  0  0  0  0  0  0  0  0  0  0  # atno 11005 bound_to 11000
  144.6927  140.3272  143.7222 LP  0  0  0  0  0  0  0  0  0  0  0  0  # atno 17320 bound_to 7965
  145.7454  139.1777  143.2352 LP  0  0  0  0  0  0  0  0  0  0  0  0  # atno 17321 bound_to 7965
  139.6250  144.0832  152.2426 LP  0  0  0  0  0  0  0  0  0  0  0  0  # atno 17342 bound_to 10162
  140.0289  144.6096  150.7504 LP  0  0  0  0  0  0  0  0  0  0  0  0  # atno 17343 bound_to 10162
  155.9805  130.4028  150.3524 LP  0  0  0  0  0  0  0  0  0  0  0  0  # atno 17370 bound_to 10713
  157.1643  131.0353  151.2826 LP  0  0  0  0  0  0  0  0  0  0  0  0  # atno 17371 bound_to 10713
  141.0372  134.0673  157.3946 LP  0  0  0  0  0  0  0  0  0  0  0  0  # atno 17394 bound_to 11000
  139.8973  135.0150  156.7095 LP  0  0  0  0  0  0  0  0  0  0  0  0  # atno 17395 bound_to 11000

$$$$
