AV-unprocessed.smi:171|AV-procd|sdf|1419|dock6
  -GOLD-   2262019183D 1   1.00000     0.00000
 Structure written by MMmdl.
 56 59  0  0  0  0  0  0  0  0  1 V2000
  152.6459  143.7454  159.0313 C   0  0  0  0  0  0  0  0  0  0  0  0
  152.2075  142.8419  160.1964 C   0  0  0  0  0  0  0  0  0  0  0  0
  151.9633  143.6779  161.4618 C   0  0  0  0  0  0  0  0  0  0  0  0
  153.2188  141.7068  160.4828 C   0  0  0  0  0  0  0  0  0  0  0  0
  153.5359  140.7808  159.2829 C   0  0  1  0  0  0  0  0  0  0  0  0
  154.7057  139.8330  159.6322 C   0  0  0  0  0  0  0  0  0  0  0  0
  155.8364  140.2935  159.7755 O   0  0  0  0  0  0  0  0  0  0  0  0
  154.4659  138.5165  159.7718 N   0  0  0  0  0  0  0  0  0  0  0  0
  153.1698  137.8600  159.6036 C   0  0  0  0  0  0  0  0  0  0  0  0
  151.9934  138.8498  159.6460 C   0  0  0  0  0  0  0  0  0  0  0  0
  152.3233  140.0501  158.8839 N   0  0  0  0  0  0  0  0  0  0  0  0
  151.9799  140.0089  157.5723 C   0  0  0  0  0  0  0  0  0  0  0  0
  152.7175  139.2802  156.6932 N   0  0  0  0  0  0  0  0  0  0  0  0
  152.3712  139.2315  155.4035 C   0  0  0  0  0  0  0  0  0  0  0  0
  151.3421  139.8223  154.7922 N   0  0  0  0  0  0  0  0  0  0  0  0
  150.5984  140.5531  155.6717 C   0  0  0  0  0  0  0  0  0  0  0  0
  150.8455  140.6993  157.0652 C   0  0  0  0  0  0  0  0  0  0  0  0
  149.8856  141.5273  157.6344 N   0  0  0  0  0  0  0  0  0  0  0  0
  149.1103  141.8469  156.6345 C   0  0  0  0  0  0  0  0  0  0  0  0
  149.4607  141.2997  155.4206 N   0  0  0  0  0  0  0  0  0  0  0  0
  148.7746  141.4823  154.1515 C   0  0  0  0  0  0  0  0  0  0  0  0
  147.2445  141.2746  154.2461 C   0  0  1  0  0  0  0  0  0  0  0  0
  146.7644  140.8584  152.9770 O   0  0  0  0  0  0  0  0  0  0  0  0
  146.8232  140.2353  155.2755 C   0  0  0  0  0  0  0  0  0  0  0  0
  145.4014  140.6644  155.6119 C   0  0  0  0  0  0  0  0  0  0  0  0
  145.4557  142.0839  155.6104 O   0  0  0  0  0  0  0  0  0  0  0  0
  146.4921  142.5337  154.7383 C   0  0  2  0  0  0  0  0  0  0  0  0
  145.9226  143.4636  153.6541 C   0  0  0  0  0  0  0  0  0  0  0  0
  153.6280  144.1822  159.2156 H   0  0  0  0  0  0  0  0  0  0  0  0
  151.9407  144.5638  158.8836 H   0  0  0  0  0  0  0  0  0  0  0  0
  152.6940  143.1948  158.0920 H   0  0  0  0  0  0  0  0  0  0  0  0
  151.2497  142.3957  159.9261 H   0  0  0  0  0  0  0  0  0  0  0  0
  152.8796  144.1638  161.7990 H   0  0  0  0  0  0  0  0  0  0  0  0
  151.5951  143.0573  162.2791 H   0  0  0  0  0  0  0  0  0  0  0  0
  151.2210  144.4563  161.2826 H   0  0  0  0  0  0  0  0  0  0  0  0
  154.1464  142.1517  160.8470 H   0  0  0  0  0  0  0  0  0  0  0  0
  152.8415  141.1040  161.3103 H   0  0  0  0  0  0  0  0  0  0  0  0
  153.8876  141.4140  158.4678 H   0  0  0  0  0  0  0  0  0  0  0  0
  155.2485  137.9212  160.0017 H   0  0  0  0  0  0  0  0  0  0  0  0
  153.1837  137.3506  158.6394 H   0  0  0  0  0  0  0  0  0  0  0  0
  153.0482  137.0895  160.3651 H   0  0  0  0  0  0  0  0  0  0  0  0
  151.0835  138.3664  159.2883 H   0  0  0  0  0  0  0  0  0  0  0  0
  151.7919  139.1418  160.6770 H   0  0  0  0  0  0  0  0  0  0  0  0
  153.0098  138.6328  154.7707 H   0  0  0  0  0  0  0  0  0  0  0  0
  148.2522  142.4918  156.7570 H   0  0  0  0  0  0  0  0  0  0  0  0
  148.9982  142.4875  153.7916 H   0  0  0  0  0  0  0  0  0  0  0  0
  149.2053  140.7951  153.4221 H   0  0  0  0  0  0  0  0  0  0  0  0
  145.8211  140.9171  152.9793 H   0  0  0  0  0  0  0  0  0  0  0  0
  146.8873  139.2075  154.9155 H   0  0  0  0  0  0  0  0  0  0  0  0
  147.4425  140.3165  156.1700 H   0  0  0  0  0  0  0  0  0  0  0  0
  144.7058  140.3328  154.8398 H   0  0  0  0  0  0  0  0  0  0  0  0
  145.0579  140.2767  156.5710 H   0  0  0  0  0  0  0  0  0  0  0  0
  147.1629  143.1205  155.3669 H   0  0  0  0  0  0  0  0  0  0  0  0
  146.7065  143.8035  152.9768 H   0  0  0  0  0  0  0  0  0  0  0  0
  145.4684  144.3463  154.1047 H   0  0  0  0  0  0  0  0  0  0  0  0
  145.1530  142.9678  153.0615 H   0  0  0  0  0  0  0  0  0  0  0  0
  1  2  1  0  0  0  0
  1 29  1  0  0  0  0
  1 30  1  0  0  0  0
  1 31  1  0  0  0  0
  2  3  1  0  0  0  0
  2  4  1  0  0  0  0
  2 32  1  0  0  0  0
  3 33  1  0  0  0  0
  3 34  1  0  0  0  0
  3 35  1  0  0  0  0
  4  5  1  0  0  0  0
  4 36  1  0  0  0  0
  4 37  1  0  0  0  0
  5 11  1  0  0  0  0
  5  6  1  0  0  0  0
  5 38  1  0  0  0  0
  6  7  2  0  0  0  0
  6  8  1  0  0  0  0
  8  9  1  0  0  0  0
  8 39  1  0  0  0  0
  9 10  1  0  0  0  0
  9 40  1  0  0  0  0
  9 41  1  0  0  0  0
 10 11  1  0  0  0  0
 10 42  1  0  0  0  0
 10 43  1  0  0  0  0
 11 12  1  0  0  0  0
 12 17  1  0  0  0  0
 12 13  2  0  0  0  0
 13 14  1  0  0  0  0
 14 15  2  0  0  0  0
 14 44  1  0  0  0  0
 15 16  1  0  0  0  0
 16 20  1  0  0  0  0
 16 17  2  0  0  0  0
 17 18  1  0  0  0  0
 18 19  2  0  0  0  0
 19 20  1  0  0  0  0
 19 45  1  0  0  0  0
 20 21  1  0  0  0  0
 21 22  1  0  0  0  0
 21 46  1  0  0  0  0
 21 47  1  0  0  0  0
 22 27  1  0  0  0  0
 22 23  1  0  0  0  0
 22 24  1  0  0  0  0
 23 48  1  0  0  0  0
 24 25  1  0  0  0  0
 24 49  1  0  0  0  0
 24 50  1  0  0  0  0
 25 26  1  0  0  0  0
 25 51  1  0  0  0  0
 25 52  1  0  0  0  0
 26 27  1  0  0  0  0
 27 28  1  0  0  0  0
 27 53  1  0  0  0  0
 28 54  1  0  0  0  0
 28 55  1  0  0  0  0
 28 56  1  0  0  0  0
M  END
> <s_m_source_file>
AV-unprocessed.smi

> <i_m_source_file_index>
171

> <i_lp_mmshare_version>
43012

> <i_f3d_flags>
0

> <s_epik_input>
W0NIM11bQ0hdKFtDSDNdKVtDSDJdW0NAQEhdMUMoPU8pW05IXVtDSDJdW0NIMl1OMWMobltjSF1uMiljKGMyMyluW2NIXW4zW0NIMl1bQ0BAXTQoW09IXSlbQ0gyXVtDSDJdT1tDQEhdNFtDSDNd

> <s_epik_cmdline>
J2VwaWtfcHl0aG9uJywgJy1waCcsICc3LjAnLCAnLXRuJywgJzgnLCAnLW1hJywgJzIwMCcsICctbWV0YWxfYmluZGluZycsICctaW1hZScsICc8aW5maWxlLm1hZT4nLCAnLW9tYWUnLCAnPG91dGZpbGUubWFlPic=

> <r_lp_tautomer_probability>
1

> <r_epik_Ionization_Penalty>
0.000670584

> <r_epik_Ionization_Penalty_Charging>
0

> <r_epik_Ionization_Penalty_Neutral>
0.000670584

> <r_epik_State_Penalty>
0.000304767

> <r_epik_Charging_Adjusted_Penalty>
0.000304767

> <i_epik_Tot_Q>
0

> <i_epik_Tot_abs_Q>
0

> <r_epik_Metal_State_Penalty>
-0

> <b_epik_Metal_Only>
0

> <s_lp_Force_Field>
OPLS_2005

> <r_lp_Energy>
42.7998

> <b_lp_Chiralities_Consistent>
1

> <s_lp_Variant>
AV-unprocessed.smi:171-6

> <Gold.Version>
5.8.1

> <Gold.Id.Protein>
6NUR|6NUR_protein|mol2

> <Gold.PLP.Fitness>
57.4414

> <Gold.PLP.PLP>
-51.4824

> <Gold.PLP.part.hbond>
-3.4231

> <Gold.PLP.part.metal>
0.0000

> <Gold.PLP.part.buried>
-4.1963

> <Gold.PLP.part.nonpolar>
-43.3759

> <Gold.PLP.part.repulsive>
0.3056

> <Gold.PLP.ligand.clash>
0.0000

> <Gold.PLP.ligand.torsion>
1.9634

> <Gold.PLP.Chemscore.Hbond>
2.6369

> <Gold.PLP.Chemscore.CHOScore>
0.5371

> <Gold.PLP.Chemscore.Metal>
0.0000

> <Gold.Chemscore.Hbonds>
donor molecule, donor type, donor heavy atom, donor atom, acceptor molecule, acceptor atom, score
      L1  H    23    48       P1 10175  0.50
      P1  H  7989  7998       L1    15  1.00
      P1  H  7997  8010       L1    13  0.85
      L1  C    19    45       P1  8028  0.51

> <Gold.PLP.Chemscore.Internal.Correction>
0.3638

> <Gold.Rescore>
     Score         DG    S(hbond)    S(metal)    S(lipo)     H(rot)  DE(clash)    DE(int)     intcor
     14.98     -17.05       1.71        0.00     100.22       2.29       0.16       1.91       ----

> <Gold.Chemscore.Fitness>
14.9811

> <Gold.Chemscore.DG>
-17.0480

> <Gold.Chemscore.ZeroCoef>
-5.4800

> <Gold.Chemscore.Hbond>
1.7100

> <Gold.Chemscore.Metal>
0.0000

> <Gold.Chemscore.Lipo>
100.2244

> <Gold.Chemscore.Internal_Hbond>
0.0000

> <Gold.Chemscore.DEClash>
0.1581

> <Gold.Chemscore.DEInternal>
1.9088

> <Gold.Chemscore.Rot>
2.2928

> <Gold.Chemscore.Internal.Correction>
   9.000000E+99

> <Gold.Chemscore.Hbonds>
donor molecule, donor type, donor heavy atom, donor atom, acceptor molecule, acceptor atom, score
      L1  H    23    48       P1 10175  0.20
      P1  H  7989  7998       L1    15  0.48
      P1  H  7997  8010       L1    13  0.10

> <Gold.Chemscore.Hbond.Weighted>
-5.7114

> <Gold.Chemscore.Metal.Weighted>
-0.0000

> <Gold.Chemscore.Lipo.Weighted>
-11.7262

> <Gold.Chemscore.Internal_Hbond.Weighted>
0.0000

> <Gold.Chemscore.DEClash.Weighted>
0.1581

> <Gold.Chemscore.DEInternal.Weighted>
1.9088

> <Gold.Chemscore.Rot.Weighted>
5.8696

> <Gold.Chemscore.Internal.Correction.Weighted>
   9.000000E+99

> <Gold.Protein.RotatedTorsions>
[ 6907 6896 6895 6894 ] final   87.94 input  -60.11 | X-H torsion
[ 7974 7965 7964 7962 ] final   28.21 input  175.53 | X-H torsion
[ 8008 7997 7996 7995 ] final   69.95 input   59.86 | X-H torsion
[ 10167 10162 10161 10158 ] final  147.64 input  -65.29 | X-H torsion
[ 10718 10713 10712 10709 ] final   45.13 input   66.30 | X-H torsion
[ 10763 10752 10751 10750 ] final  -14.35 input  -60.55 | X-H torsion
[ 11005 11000 10999 10996 ] final   11.62 input  -57.11 | X-H torsion

> <Gold.Protein.ActiveResidues>
 VAL166  LYS551  ARG553  GLY616  TRP617  ASP618  TYR619  PRO620  LYS621  CYS622 
 ASP623  PHE694  ASN695  SER759  ASP760  ASP761  ALA762  ILE779  LEU786  VAL792 
 PHE793  MET794  SER795  GLU796  ALA797  LYS798  CYS799  TRP800  GLU811  SER814 

> <Gold.Protein.RotatedAtoms>
  152.5418  134.2199  159.8783 H   0  0  0  0  0  0  0  0  0  0  0  0  # atno 6907 bound_to 6896
  151.2176  133.4513  159.2607 H   0  0  0  0  0  0  0  0  0  0  0  0  # atno 6908 bound_to 6896
  151.0836  134.9886  159.8424 H   0  0  0  0  0  0  0  0  0  0  0  0  # atno 6909 bound_to 6896
  146.1741  139.7086  142.8946 H   0  0  0  0  0  0  0  0  0  0  0  0  # atno 7974 bound_to 7965
  155.7314  140.3492  155.5061 H   0  0  0  0  0  0  0  0  0  0  0  0  # atno 8008 bound_to 7997
  155.9179  140.1062  157.1251 H   0  0  0  0  0  0  0  0  0  0  0  0  # atno 8009 bound_to 7997
  154.4065  140.1255  156.4628 H   0  0  0  0  0  0  0  0  0  0  0  0  # atno 8010 bound_to 7997
  139.4887  144.5740  151.7001 H   0  0  0  0  0  0  0  0  0  0  0  0  # atno 10167 bound_to 10162
  157.4343  130.8043  149.7633 H   0  0  0  0  0  0  0  0  0  0  0  0  # atno 10718 bound_to 10713
  153.5270  135.7015  153.5702 H   0  0  0  0  0  0  0  0  0  0  0  0  # atno 10763 bound_to 10752
  153.3726  135.3940  155.1800 H   0  0  0  0  0  0  0  0  0  0  0  0  # atno 10764 bound_to 10752
  154.8689  135.3815  154.4764 H   0  0  0  0  0  0  0  0  0  0  0  0  # atno 10765 bound_to 10752
  140.5012  134.0744  155.7794 H   0  0  0  0  0  0  0  0  0  0  0  0  # atno 11005 bound_to 11000
  145.4259  141.0411  143.2938 LP  0  0  0  0  0  0  0  0  0  0  0  0  # atno 17320 bound_to 7965
  144.8209  139.5793  143.6987 LP  0  0  0  0  0  0  0  0  0  0  0  0  # atno 17321 bound_to 7965
  140.5332  144.0697  150.6061 LP  0  0  0  0  0  0  0  0  0  0  0  0  # atno 17342 bound_to 10162
  140.3694  143.2863  152.0295 LP  0  0  0  0  0  0  0  0  0  0  0  0  # atno 17343 bound_to 10162
  155.9924  130.3931  150.2941 LP  0  0  0  0  0  0  0  0  0  0  0  0  # atno 17370 bound_to 10713
  157.1101  131.0219  151.3051 LP  0  0  0  0  0  0  0  0  0  0  0  0  # atno 17371 bound_to 10713
  141.1435  133.9097  157.2271 LP  0  0  0  0  0  0  0  0  0  0  0  0  # atno 17394 bound_to 11000
  139.9712  135.0127  156.9518 LP  0  0  0  0  0  0  0  0  0  0  0  0  # atno 17395 bound_to 11000

$$$$
