AV-unprocessed.smi:95|AV-procd|sdf|857|dock6
  -GOLD-   2262017303D 1   1.00000     0.00000
 Structure written by MMmdl.
 42 45  0  0  0  0  0  0  0  0  2 V2000
  146.8286  142.7694  154.2325 O   0  0  0  0  0  0  0  0  0  0  0  0
  146.4081  142.5582  155.3712 C   0  0  0  0  0  0  0  0  0  0  0  0
  145.1604  143.1160  155.8820 C   0  0  0  0  0  0  0  0  0  0  0  0
  144.4228  143.9210  155.0990 F   0  0  0  0  0  0  0  0  0  0  0  0
  144.7290  142.8310  157.1296 C   0  0  0  0  0  0  0  0  0  0  0  0
  145.4218  142.0061  157.9987 N   0  0  0  0  0  0  0  0  0  0  0  0
  144.8782  141.7151  159.3775 C   0  0  2  0  0  0  0  0  0  0  0  0
  143.5626  142.4706  159.6066 C   0  0  0  0  0  0  0  0  0  0  0  0
  144.0018  143.6273  160.4806 C   0  0  0  0  0  0  0  0  0  0  0  0
  145.1501  143.0047  161.2647 C   0  0  0  0  0  0  0  0  0  0  0  0
  145.8047  142.1619  160.3242 O   0  0  0  0  0  0  0  0  0  0  0  0
  146.6333  141.4106  157.5858 C   0  0  0  0  0  0  0  0  0  0  0  0
  147.2458  140.6327  158.3210 O   0  0  0  0  0  0  0  0  0  0  0  0
  147.0986  141.7266  156.2876 N   0  0  0  0  0  0  0  0  0  0  0  0
  148.3459  141.1174  155.8543 C   0  0  0  0  0  0  0  0  0  0  0  0
  149.5366  141.2903  156.7900 C   0  0  0  0  0  0  0  0  0  0  0  0
  150.1894  140.2196  157.4448 C   0  0  0  0  0  0  0  0  0  0  0  0
  151.2846  140.4902  158.2905 C   0  0  0  0  0  0  0  0  0  0  0  0
  151.7080  141.8244  158.4656 C   0  0  0  0  0  0  0  0  0  0  0  0
  152.7987  142.1373  159.3027 C   0  0  0  0  0  0  0  0  0  0  0  0
  153.2023  143.4786  159.4591 C   0  0  0  0  0  0  0  0  0  0  0  0
  152.5196  144.5088  158.7814 C   0  0  0  0  0  0  0  0  0  0  0  0
  151.4287  144.2028  157.9437 C   0  0  0  0  0  0  0  0  0  0  0  0
  151.0231  142.8628  157.7865 C   0  0  0  0  0  0  0  0  0  0  0  0
  149.9787  142.5529  156.9870 N   0  3  0  0  0  0  0  0  0  0  0  0
  143.7962  143.2680  157.4535 H   0  0  0  0  0  0  0  0  0  0  0  0
  144.7776  140.6325  159.4630 H   0  0  0  0  0  0  0  0  0  0  0  0
  143.0901  142.7760  158.6721 H   0  0  0  0  0  0  0  0  0  0  0  0
  142.8786  141.8185  160.1512 H   0  0  0  0  0  0  0  0  0  0  0  0
  144.3660  144.4504  159.8649 H   0  0  0  0  0  0  0  0  0  0  0  0
  143.2049  144.0066  161.1208 H   0  0  0  0  0  0  0  0  0  0  0  0
  145.8312  143.7479  161.6795 H   0  0  0  0  0  0  0  0  0  0  0  0
  144.7675  142.3945  162.0841 H   0  0  0  0  0  0  0  0  0  0  0  0
  148.1638  140.0573  155.6733 H   0  0  0  0  0  0  0  0  0  0  0  0
  148.5751  141.5243  154.8673 H   0  0  0  0  0  0  0  0  0  0  0  0
  149.8642  139.1989  157.3081 H   0  0  0  0  0  0  0  0  0  0  0  0
  151.7907  139.6800  158.7952 H   0  0  0  0  0  0  0  0  0  0  0  0
  153.3288  141.3550  159.8264 H   0  0  0  0  0  0  0  0  0  0  0  0
  154.0383  143.7184  160.1001 H   0  0  0  0  0  0  0  0  0  0  0  0
  152.8340  145.5348  158.9042 H   0  0  0  0  0  0  0  0  0  0  0  0
  150.9107  144.9978  157.4268 H   0  0  0  0  0  0  0  0  0  0  0  0
  149.4975  143.3126  156.5059 H   0  0  0  0  0  0  0  0  0  0  0  0
  1  2  2  0  0  0  0
  2 14  1  0  0  0  0
  2  3  1  0  0  0  0
  3  4  1  0  0  0  0
  3  5  2  0  0  0  0
  5  6  1  0  0  0  0
  5 26  1  0  0  0  0
  6  7  1  0  0  0  0
  6 12  1  0  0  0  0
  7 11  1  0  0  0  0
  7  8  1  0  0  0  0
  7 27  1  0  0  0  0
  8  9  1  0  0  0  0
  8 28  1  0  0  0  0
  8 29  1  0  0  0  0
  9 10  1  0  0  0  0
  9 30  1  0  0  0  0
  9 31  1  0  0  0  0
 10 11  1  0  0  0  0
 10 32  1  0  0  0  0
 10 33  1  0  0  0  0
 12 13  2  0  0  0  0
 12 14  1  0  0  0  0
 14 15  1  0  0  0  0
 15 16  1  0  0  0  0
 15 34  1  0  0  0  0
 15 35  1  0  0  0  0
 16 25  1  0  0  0  0
 16 17  2  0  0  0  0
 17 18  1  0  0  0  0
 17 36  1  0  0  0  0
 18 19  2  0  0  0  0
 18 37  1  0  0  0  0
 19 24  1  0  0  0  0
 19 20  1  0  0  0  0
 20 21  2  0  0  0  0
 20 38  1  0  0  0  0
 21 22  1  0  0  0  0
 21 39  1  0  0  0  0
 22 23  2  0  0  0  0
 22 40  1  0  0  0  0
 23 24  1  0  0  0  0
 23 41  1  0  0  0  0
 24 25  2  0  0  0  0
 25 42  1  0  0  0  0
M  CHG  1  25   1
M  END
> <s_m_source_file>
AV-unprocessed.smi

> <i_m_source_file_index>
95

> <i_lp_mmshare_version>
43012

> <i_f3d_flags>
0

> <s_epik_input>
TzFbQ0gyXVtDSDJdW0NIMl1bQ0BIXTFuKFtjSF1jKEYpYzI9TyljKD1PKW4yW0NIMl1jKFtjSF1bY0hdMyluYyhjMzQpW2NIXVtjSF1bY0hdW2NIXTQ=

> <s_epik_cmdline>
J2VwaWtfcHl0aG9uJywgJy1waCcsICc3LjAnLCAnLXRuJywgJzgnLCAnLW1hJywgJzIwMCcsICctbWV0YWxfYmluZGluZycsICctaW1hZScsICc8aW5maWxlLm1hZT4nLCAnLW9tYWUnLCAnPG91dGZpbGUubWFlPic=

> <r_lp_tautomer_probability>
1

> <r_epik_Ionization_Penalty>
1.83445

> <r_epik_Ionization_Penalty_Charging>
1.83445

> <r_epik_Ionization_Penalty_Neutral>
6.33322e-12

> <r_epik_State_Penalty>
1.95069

> <r_epik_Charging_Adjusted_Penalty>
3.78513

> <i_epik_Tot_Q>
1

> <i_epik_Tot_abs_Q>
1

> <r_epik_Metal_State_Penalty>
6.02102

> <b_epik_Metal_Only>
0

> <s_epik_Chemistry_Notes>
This compound contains an acetal/aminal-like group ( X-CH(R)-Y where X, Y are N, S, or O) that may be acid/base labile, releasing an aldehyde.

> <s_lp_Force_Field>
OPLS_2005

> <r_lp_Energy>
36.4977

> <b_lp_Chiralities_Consistent>
1

> <s_lp_Variant>
AV-unprocessed.smi:95-3

> <Gold.Version>
5.8.1

> <Gold.Id.Protein>
6NUR|6NUR_protein|mol2

> <Gold.PLP.Fitness>
51.4526

> <Gold.PLP.PLP>
-42.6170

> <Gold.PLP.part.hbond>
-3.0000

> <Gold.PLP.part.metal>
0.0000

> <Gold.PLP.part.buried>
-6.9538

> <Gold.PLP.part.nonpolar>
-33.0887

> <Gold.PLP.part.repulsive>
0.2130

> <Gold.PLP.ligand.clash>
0.0000

> <Gold.PLP.ligand.torsion>
0.0862

> <Gold.PLP.Chemscore.Hbond>
3.0000

> <Gold.PLP.Chemscore.CHOScore>
0.0000

> <Gold.PLP.Chemscore.Metal>
0.0000

> <Gold.Chemscore.Hbonds>
donor molecule, donor type, donor heavy atom, donor atom, acceptor molecule, acceptor atom, score
      L1  H    25    42       P1  8028  2.00
      P1  H  6934  6946       L1    11  1.00

> <Gold.PLP.Chemscore.Internal.Correction>
0.0080

> <Gold.Rescore>
     Score         DG    S(hbond)    S(metal)    S(lipo)     H(rot)  DE(clash)    DE(int)     intcor
     17.01     -19.76       1.85        0.00     103.01       1.54       0.20       2.55       ----

> <Gold.Chemscore.Fitness>
17.0094

> <Gold.Chemscore.DG>
-19.7641

> <Gold.Chemscore.ZeroCoef>
-5.4800

> <Gold.Chemscore.Hbond>
1.8490

> <Gold.Chemscore.Metal>
0.0000

> <Gold.Chemscore.Lipo>
103.0146

> <Gold.Chemscore.Internal_Hbond>
0.0000

> <Gold.Chemscore.DEClash>
0.2042

> <Gold.Chemscore.DEInternal>
2.5505

> <Gold.Chemscore.Rot>
1.5407

> <Gold.Chemscore.Internal.Correction>
   9.000000E+99

> <Gold.Chemscore.Hbonds>
donor molecule, donor type, donor heavy atom, donor atom, acceptor molecule, acceptor atom, score
      L1  H    25    42       P1  8028  1.00
      P1  H  6934  6946       L1    11  0.70

> <Gold.Chemscore.Hbond.Weighted>
-6.1757

> <Gold.Chemscore.Metal.Weighted>
-0.0000

> <Gold.Chemscore.Lipo.Weighted>
-12.0527

> <Gold.Chemscore.Internal_Hbond.Weighted>
0.0000

> <Gold.Chemscore.DEClash.Weighted>
0.2042

> <Gold.Chemscore.DEInternal.Weighted>
2.5505

> <Gold.Chemscore.Rot.Weighted>
3.9443

> <Gold.Chemscore.Internal.Correction.Weighted>
   9.000000E+99

> <Gold.Protein.RotatedTorsions>
[ 6907 6896 6895 6894 ] final  -89.13 input  -60.11 | X-H torsion
[ 7974 7965 7964 7962 ] final -113.34 input  175.53 | X-H torsion
[ 8008 7997 7996 7995 ] final   47.60 input   59.86 | X-H torsion
[ 10167 10162 10161 10158 ] final -120.77 input  -65.29 | X-H torsion
[ 10718 10713 10712 10709 ] final  -46.22 input   66.30 | X-H torsion
[ 10763 10752 10751 10750 ] final  -88.29 input  -60.55 | X-H torsion
[ 11005 11000 10999 10996 ] final  -84.02 input  -57.11 | X-H torsion

> <Gold.Protein.ActiveResidues>
 VAL166  LYS551  ARG553  GLY616  TRP617  ASP618  TYR619  PRO620  LYS621  CYS622 
 ASP623  PHE694  ASN695  SER759  ASP760  ASP761  ALA762  ILE779  LEU786  VAL792 
 PHE793  MET794  SER795  GLU796  ALA797  LYS798  CYS799  TRP800  GLU811  SER814 

> <Gold.Protein.RotatedAtoms>
  150.6872  134.2634  159.4558 H   0  0  0  0  0  0  0  0  0  0  0  0  # atno 6907 bound_to 6896
  152.0562  134.9620  160.0584 H   0  0  0  0  0  0  0  0  0  0  0  0  # atno 6908 bound_to 6896
  152.1065  133.4243  159.4648 H   0  0  0  0  0  0  0  0  0  0  0  0  # atno 6909 bound_to 6896
  145.1332  140.8736  143.3745 H   0  0  0  0  0  0  0  0  0  0  0  0  # atno 7974 bound_to 7965
  155.3717  140.3424  155.4243 H   0  0  0  0  0  0  0  0  0  0  0  0  # atno 8008 bound_to 7997
  156.1659  140.1616  156.8567 H   0  0  0  0  0  0  0  0  0  0  0  0  # atno 8009 bound_to 7997
  154.5184  140.0773  156.8108 H   0  0  0  0  0  0  0  0  0  0  0  0  # atno 8010 bound_to 7997
  140.0322  143.5237  152.2171 H   0  0  0  0  0  0  0  0  0  0  0  0  # atno 10167 bound_to 10162
  156.2205  130.4166  149.8999 H   0  0  0  0  0  0  0  0  0  0  0  0  # atno 10718 bound_to 10713
  154.6429  135.5382  153.7811 H   0  0  0  0  0  0  0  0  0  0  0  0  # atno 10763 bound_to 10752
  153.0344  135.6463  154.1132 H   0  0  0  0  0  0  0  0  0  0  0  0  # atno 10764 bound_to 10752
  154.1055  135.2930  155.3222 H   0  0  0  0  0  0  0  0  0  0  0  0  # atno 10765 bound_to 10752
  141.1653  133.7324  156.8807 H   0  0  0  0  0  0  0  0  0  0  0  0  # atno 11005 bound_to 11000
  145.0612  139.3104  143.5879 LP  0  0  0  0  0  0  0  0  0  0  0  0  # atno 17320 bound_to 7965
  146.3512  140.0055  142.8672 LP  0  0  0  0  0  0  0  0  0  0  0  0  # atno 17321 bound_to 7965
  139.6068  144.7598  151.3042 LP  0  0  0  0  0  0  0  0  0  0  0  0  # atno 17342 bound_to 10162
  140.7297  143.6900  150.7929 LP  0  0  0  0  0  0  0  0  0  0  0  0  # atno 17343 bound_to 10162
  156.6647  130.8796  151.3553 LP  0  0  0  0  0  0  0  0  0  0  0  0  # atno 17370 bound_to 10713
  157.7085  130.9412  150.1009 LP  0  0  0  0  0  0  0  0  0  0  0  0  # atno 17371 bound_to 10713
  140.1717  134.9095  157.2841 LP  0  0  0  0  0  0  0  0  0  0  0  0  # atno 17394 bound_to 11000
  140.2495  134.3700  155.7448 LP  0  0  0  0  0  0  0  0  0  0  0  0  # atno 17395 bound_to 11000

$$$$
