AV-unprocessed.smi:3152|AV-procd|sdf|12017|dock8
  -GOLD-   2272017433D 1   1.00000     0.00000
 Structure written by MMmdl.
 41 42  0  0  0  0  0  0  0  0  2 V2000
  145.9902  143.2757  154.9839 C   0  0  0  0  0  0  0  0  0  0  0  0
  146.6857  142.0213  154.5395 C   0  0  0  0  0  0  0  0  0  0  0  0
  148.0835  141.8143  154.3644 C   0  0  0  0  0  0  0  0  0  0  0  0
  148.3754  140.5875  153.9638 N   0  0  0  0  0  0  0  0  0  0  0  0
  147.1793  139.9694  153.8711 N   0  0  0  0  0  0  0  0  0  0  0  0
  147.1201  138.5822  153.4537 C   0  0  0  0  0  0  0  0  0  0  0  0
  146.5671  138.4447  152.0281 C   0  0  0  0  0  0  0  0  0  0  0  0
  146.6305  137.0457  151.5644 N   0  3  0  0  0  0  0  0  0  0  0  0
  145.5011  136.2093  152.0231 C   0  0  0  0  0  0  0  0  0  0  0  0
  145.2293  135.0148  151.0818 C   0  0  0  0  0  0  0  0  0  0  0  0
  144.9486  135.5459  149.7988 O   0  0  0  0  0  0  0  0  0  0  0  0
  146.4467  134.0613  150.9917 C   0  0  0  0  0  0  0  0  0  0  0  0
  146.1550  132.7906  150.1733 C   0  0  0  0  0  0  0  0  0  0  0  0
  144.9227  132.0486  150.7088 C   0  0  0  0  0  0  0  0  0  0  0  0
  143.6974  132.9722  150.7415 C   0  0  0  0  0  0  0  0  0  0  0  0
  143.9775  134.2431  151.5636 C   0  0  0  0  0  0  0  0  0  0  0  0
  146.1416  140.8118  154.2104 C   0  0  0  0  0  0  0  0  0  0  0  0
  146.5092  144.1698  154.6379 H   0  0  0  0  0  0  0  0  0  0  0  0
  145.9323  143.3379  156.0705 H   0  0  0  0  0  0  0  0  0  0  0  0
  144.9699  143.3304  154.6032 H   0  0  0  0  0  0  0  0  0  0  0  0
  148.8905  142.5160  154.5165 H   0  0  0  0  0  0  0  0  0  0  0  0
  148.1224  138.1562  153.5169 H   0  0  0  0  0  0  0  0  0  0  0  0
  146.4966  138.0344  154.1620 H   0  0  0  0  0  0  0  0  0  0  0  0
  145.5302  138.7822  151.9932 H   0  0  0  0  0  0  0  0  0  0  0  0
  147.1358  139.0772  151.3452 H   0  0  0  0  0  0  0  0  0  0  0  0
  146.6405  137.0362  150.5541 H   0  0  0  0  0  0  0  0  0  0  0  0
  145.7197  135.8452  153.0282 H   0  0  0  0  0  0  0  0  0  0  0  0
  144.6108  136.8352  152.1028 H   0  0  0  0  0  0  0  0  0  0  0  0
  145.4104  135.0310  149.1539 H   0  0  0  0  0  0  0  0  0  0  0  0
  147.3070  134.5746  150.5604 H   0  0  0  0  0  0  0  0  0  0  0  0
  146.7452  133.7657  151.9986 H   0  0  0  0  0  0  0  0  0  0  0  0
  145.9979  133.0528  149.1263 H   0  0  0  0  0  0  0  0  0  0  0  0
  147.0222  132.1300  150.1960 H   0  0  0  0  0  0  0  0  0  0  0  0
  144.7149  131.1758  150.0888 H   0  0  0  0  0  0  0  0  0  0  0  0
  145.1268  131.6738  151.7126 H   0  0  0  0  0  0  0  0  0  0  0  0
  143.4138  133.2423  149.7237 H   0  0  0  0  0  0  0  0  0  0  0  0
  142.8453  132.4397  151.1646 H   0  0  0  0  0  0  0  0  0  0  0  0
  144.1135  133.9553  152.6071 H   0  0  0  0  0  0  0  0  0  0  0  0
  143.1007  134.8921  151.5435 H   0  0  0  0  0  0  0  0  0  0  0  0
  145.1123  140.4850  154.1924 H   0  0  0  0  0  0  0  0  0  0  0  0
  147.4900  136.6340  151.8988 H   0  0  0  0  0  0  0  0  0  0  0  0
  1  2  1  0  0  0  0
  1 18  1  0  0  0  0
  1 19  1  0  0  0  0
  1 20  1  0  0  0  0
  2 17  2  0  0  0  0
  2  3  1  0  0  0  0
  3  4  2  0  0  0  0
  3 21  1  0  0  0  0
  4  5  1  0  0  0  0
  5  6  1  0  0  0  0
  5 17  1  0  0  0  0
  6  7  1  0  0  0  0
  6 22  1  0  0  0  0
  6 23  1  0  0  0  0
  7  8  1  0  0  0  0
  7 24  1  0  0  0  0
  7 25  1  0  0  0  0
  8  9  1  0  0  0  0
  8 26  1  0  0  0  0
  8 41  1  0  0  0  0
  9 10  1  0  0  0  0
  9 27  1  0  0  0  0
  9 28  1  0  0  0  0
 10 16  1  0  0  0  0
 10 11  1  0  0  0  0
 10 12  1  0  0  0  0
 11 29  1  0  0  0  0
 12 13  1  0  0  0  0
 12 30  1  0  0  0  0
 12 31  1  0  0  0  0
 13 14  1  0  0  0  0
 13 32  1  0  0  0  0
 13 33  1  0  0  0  0
 14 15  1  0  0  0  0
 14 34  1  0  0  0  0
 14 35  1  0  0  0  0
 15 16  1  0  0  0  0
 15 36  1  0  0  0  0
 15 37  1  0  0  0  0
 16 38  1  0  0  0  0
 16 39  1  0  0  0  0
 17 40  1  0  0  0  0
M  CHG  1   8   1
M  END
> <s_m_source_file>
AV-unprocessed.smi

> <i_m_source_file_index>
3152

> <i_lp_mmshare_version>
43012

> <i_f3d_flags>
0

> <s_epik_input>
W0NIM11jMVtjSF1ubihbY0hdMSlbQ0gyXVtDSDJdW05IXVtDSDJdQzIoW09IXSlbQ0gyXVtDSDJdW0NIMl1bQ0gyXVtDSDJdMg==

> <s_epik_cmdline>
J2VwaWtfcHl0aG9uJywgJy1waCcsICc3LjAnLCAnLXRuJywgJzgnLCAnLW1hJywgJzIwMCcsICctbWV0YWxfYmluZGluZycsICctaW1hZScsICc8aW5maWxlLm1hZT4nLCAnLW9tYWUnLCAnPG91dGZpbGUubWFlPic=

> <r_lp_tautomer_probability>
1

> <r_epik_Ionization_Penalty>
0.0240188

> <r_epik_Ionization_Penalty_Charging>
0.0240119

> <r_epik_Ionization_Penalty_Neutral>
6.9154e-06

> <r_epik_State_Penalty>
0.0194671

> <r_epik_Charging_Adjusted_Penalty>
0.043479

> <i_epik_Tot_Q>
1

> <i_epik_Tot_abs_Q>
1

> <r_epik_Metal_State_Penalty>
0.0195537

> <b_epik_Metal_Only>
0

> <s_lp_Force_Field>
OPLS_2005

> <r_lp_Energy>
14.7618

> <b_lp_Chiralities_Consistent>
1

> <s_lp_Variant>
AV-unprocessed.smi:3152-1

> <Gold.Version>
5.8.1

> <Gold.Id.Protein>
6NUR|6NUR_protein|mol2

> <Gold.PLP.Fitness>
50.3219

> <Gold.PLP.PLP>
-36.1417

> <Gold.PLP.part.hbond>
-2.3790

> <Gold.PLP.part.metal>
0.0000

> <Gold.PLP.part.buried>
-4.0207

> <Gold.PLP.part.nonpolar>
-30.4563

> <Gold.PLP.part.repulsive>
1.1415

> <Gold.PLP.ligand.clash>
0.0000

> <Gold.PLP.ligand.torsion>
0.4134

> <Gold.PLP.Chemscore.Hbond>
3.0000

> <Gold.PLP.Chemscore.CHOScore>
1.9998

> <Gold.PLP.Chemscore.Metal>
0.0000

> <Gold.Chemscore.Hbonds>
donor molecule, donor type, donor heavy atom, donor atom, acceptor molecule, acceptor atom, score
      L1  H     8    41       P1  7948  1.82
      L1  H    11    29       P1  7921  1.00
      L1  C     3    21       P1  8028  0.99
      L1  C    17    40       P1 10175  0.98

> <Gold.PLP.Chemscore.Internal.Correction>
0.0075

> <Gold.Rescore>
     Score         DG    S(hbond)    S(metal)    S(lipo)     H(rot)  DE(clash)    DE(int)     intcor
     15.50     -15.98       1.99        0.00      80.54       2.17       0.13       0.35       ----

> <Gold.Chemscore.Fitness>
15.5038

> <Gold.Chemscore.DG>
-15.9826

> <Gold.Chemscore.ZeroCoef>
-5.4800

> <Gold.Chemscore.Hbond>
1.9852

> <Gold.Chemscore.Metal>
0.0000

> <Gold.Chemscore.Lipo>
80.5414

> <Gold.Chemscore.Internal_Hbond>
0.0000

> <Gold.Chemscore.DEClash>
0.1290

> <Gold.Chemscore.DEInternal>
0.3498

> <Gold.Chemscore.Rot>
2.1685

> <Gold.Chemscore.Internal.Correction>
   9.000000E+99

> <Gold.Chemscore.Hbonds>
donor molecule, donor type, donor heavy atom, donor atom, acceptor molecule, acceptor atom, score
      L1  H     8    41       P1  7948  0.87
      L1  H    11    29       P1  7921  0.96

> <Gold.Chemscore.Hbond.Weighted>
-6.6307

> <Gold.Chemscore.Metal.Weighted>
-0.0000

> <Gold.Chemscore.Lipo.Weighted>
-9.4233

> <Gold.Chemscore.Internal_Hbond.Weighted>
0.0000

> <Gold.Chemscore.DEClash.Weighted>
0.1290

> <Gold.Chemscore.DEInternal.Weighted>
0.3498

> <Gold.Chemscore.Rot.Weighted>
5.5514

> <Gold.Chemscore.Internal.Correction.Weighted>
   9.000000E+99

> <Gold.Protein.RotatedTorsions>
[ 6907 6896 6895 6894 ] final  -17.40 input  -60.11 | X-H torsion
[ 7974 7965 7964 7962 ] final  119.47 input  175.53 | X-H torsion
[ 8008 7997 7996 7995 ] final  -79.85 input   59.86 | X-H torsion
[ 10167 10162 10161 10158 ] final  147.90 input  -65.29 | X-H torsion
[ 10718 10713 10712 10709 ] final   36.89 input   66.30 | X-H torsion
[ 10763 10752 10751 10750 ] final  160.61 input  -60.55 | X-H torsion
[ 11005 11000 10999 10996 ] final  121.43 input  -57.11 | X-H torsion

> <Gold.Protein.ActiveResidues>
 VAL166  LYS551  ARG553  GLY616  TRP617  ASP618  TYR619  PRO620  LYS621  CYS622 
 ASP623  PHE694  ASN695  SER759  ASP760  ASP761  ALA762  ILE779  LEU786  VAL792 
 PHE793  MET794  SER795  GLU796  ALA797  LYS798  CYS799  TRP800  GLU811  SER814 

> <Gold.Protein.RotatedAtoms>
  151.2940  135.0750  159.9214 H   0  0  0  0  0  0  0  0  0  0  0  0  # atno 6907 bound_to 6896
  152.5311  133.9903  159.7858 H   0  0  0  0  0  0  0  0  0  0  0  0  # atno 6908 bound_to 6896
  151.0177  133.5854  159.2705 H   0  0  0  0  0  0  0  0  0  0  0  0  # atno 6909 bound_to 6896
  145.1428  139.3257  143.4607 H   0  0  0  0  0  0  0  0  0  0  0  0  # atno 7974 bound_to 7965
  154.5825  140.0672  156.9124 H   0  0  0  0  0  0  0  0  0  0  0  0  # atno 8008 bound_to 7997
  155.2437  140.3346  155.4271 H   0  0  0  0  0  0  0  0  0  0  0  0  # atno 8009 bound_to 7997
  156.2199  140.1794  156.7485 H   0  0  0  0  0  0  0  0  0  0  0  0  # atno 8010 bound_to 7997
  139.4883  144.5720  151.7036 H   0  0  0  0  0  0  0  0  0  0  0  0  # atno 10167 bound_to 10162
  157.3403  130.7544  149.6907 H   0  0  0  0  0  0  0  0  0  0  0  0  # atno 10718 bound_to 10713
  154.2500  135.2772  155.2820 H   0  0  0  0  0  0  0  0  0  0  0  0  # atno 10763 bound_to 10752
  154.5473  135.5685  153.6894 H   0  0  0  0  0  0  0  0  0  0  0  0  # atno 10764 bound_to 10752
  152.9982  135.6266  154.2647 H   0  0  0  0  0  0  0  0  0  0  0  0  # atno 10765 bound_to 10752
  139.9225  134.9639  156.7956 H   0  0  0  0  0  0  0  0  0  0  0  0  # atno 11005 bound_to 11000
  146.3503  140.1472  142.8593 LP  0  0  0  0  0  0  0  0  0  0  0  0  # atno 17320 bound_to 7965
  145.0514  140.9020  143.4993 LP  0  0  0  0  0  0  0  0  0  0  0  0  # atno 17321 bound_to 7965
  140.5310  144.0731  150.6053 LP  0  0  0  0  0  0  0  0  0  0  0  0  # atno 17342 bound_to 10162
  140.3721  143.2849  152.0266 LP  0  0  0  0  0  0  0  0  0  0  0  0  # atno 17343 bound_to 10162
  155.9707  130.4169  150.4255 LP  0  0  0  0  0  0  0  0  0  0  0  0  # atno 17370 bound_to 10713
  157.2302  131.0502  151.2496 LP  0  0  0  0  0  0  0  0  0  0  0  0  # atno 17371 bound_to 10713
  140.6431  133.9800  155.7717 LP  0  0  0  0  0  0  0  0  0  0  0  0  # atno 17394 bound_to 11000
  141.0758  134.0137  157.3460 LP  0  0  0  0  0  0  0  0  0  0  0  0  # atno 17395 bound_to 11000

$$$$
