AV-unprocessed.smi:1411|AV-procd|sdf|5739|dock6
  -GOLD-   22720 5373D 1   1.00000     0.00000
 Structure written by MMmdl.
 43 44  0  0  0  0  0  0  0  0  3 V2000
  151.5133  140.7329  155.5870 O   0  0  0  0  0  0  0  0  0  0  0  0
  150.5896  141.4332  156.0040 C   0  0  0  0  0  0  0  0  0  0  0  0
  149.2199  141.4329  155.3101 C   0  0  0  0  0  0  0  0  0  0  0  0
  148.1158  141.0336  156.1987 N   0  0  0  0  0  0  0  0  0  0  0  0
  147.6634  141.9994  157.1192 C   0  0  0  0  0  0  0  0  0  0  0  0
  146.6554  141.7534  157.9787 C   0  0  0  0  0  0  0  0  0  0  0  0
  146.2014  142.7594  158.9138 N   0  3  0  0  0  0  0  0  0  0  0  0
  145.5858  142.3995  159.9121 O   0  0  0  0  0  0  0  0  0  0  0  0
  146.4446  143.9401  158.6827 O   0  5  0  0  0  0  0  0  0  0  0  0
  146.0358  140.4431  157.9329 C   0  0  0  0  0  0  0  0  0  0  0  0
  146.4605  139.5165  157.0514 C   0  0  0  0  0  0  0  0  0  0  0  0
  147.5549  139.7883  156.1138 C   0  0  0  0  0  0  0  0  0  0  0  0
  147.9423  138.9482  155.3017 O   0  0  0  0  0  0  0  0  0  0  0  0
  150.7000  142.2319  157.0766 N   0  0  0  0  0  0  0  0  0  0  0  0
  151.9000  142.4046  157.8930 C   0  0  0  0  0  0  0  0  0  0  0  0
  151.6765  141.7271  159.2628 C   0  0  0  0  0  0  0  0  0  0  0  0
  152.7500  142.0121  160.3324 C   0  0  0  0  0  0  0  0  0  0  0  0
  152.3297  143.0410  161.4021 C   0  0  0  0  0  0  0  0  0  0  0  0
  152.1895  144.5072  160.9433 C   0  0  0  0  0  0  0  0  0  0  0  0
  150.9978  144.7789  160.0023 C   0  0  0  0  0  0  0  0  0  0  0  0
  151.3503  144.9127  158.5080 C   0  0  0  0  0  0  0  0  0  0  0  0
  152.3456  143.8862  157.9322 C   0  0  0  0  0  0  0  0  0  0  0  0
  149.0437  142.4236  154.8878 H   0  0  0  0  0  0  0  0  0  0  0  0
  149.2596  140.7628  154.4495 H   0  0  0  0  0  0  0  0  0  0  0  0
  148.1861  142.9440  157.0686 H   0  0  0  0  0  0  0  0  0  0  0  0
  145.2260  140.1960  158.6036 H   0  0  0  0  0  0  0  0  0  0  0  0
  145.9832  138.5476  157.0338 H   0  0  0  0  0  0  0  0  0  0  0  0
  149.8886  142.7675  157.3494 H   0  0  0  0  0  0  0  0  0  0  0  0
  152.7106  141.8532  157.4127 H   0  0  0  0  0  0  0  0  0  0  0  0
  150.6856  141.9510  159.6562 H   0  0  0  0  0  0  0  0  0  0  0  0
  151.6554  140.6505  159.0869 H   0  0  0  0  0  0  0  0  0  0  0  0
  152.9453  141.0756  160.8562 H   0  0  0  0  0  0  0  0  0  0  0  0
  153.7042  142.2815  159.8799 H   0  0  0  0  0  0  0  0  0  0  0  0
  151.4002  142.7172  161.8720 H   0  0  0  0  0  0  0  0  0  0  0  0
  153.0770  143.0146  162.1960 H   0  0  0  0  0  0  0  0  0  0  0  0
  152.0368  145.1047  161.8429 H   0  0  0  0  0  0  0  0  0  0  0  0
  153.1238  144.8762  160.5202 H   0  0  0  0  0  0  0  0  0  0  0  0
  150.2169  144.0346  160.1488 H   0  0  0  0  0  0  0  0  0  0  0  0
  150.5324  145.7177  160.3046 H   0  0  0  0  0  0  0  0  0  0  0  0
  150.4316  144.9087  157.9209 H   0  0  0  0  0  0  0  0  0  0  0  0
  151.7843  145.9017  158.3573 H   0  0  0  0  0  0  0  0  0  0  0  0
  153.3044  143.9740  158.4397 H   0  0  0  0  0  0  0  0  0  0  0  0
  152.5684  144.1946  156.9100 H   0  0  0  0  0  0  0  0  0  0  0  0
  1  2  2  0  0  0  0
  2  3  1  0  0  0  0
  2 14  1  0  0  0  0
  3  4  1  0  0  0  0
  3 23  1  0  0  0  0
  3 24  1  0  0  0  0
  4 12  1  0  0  0  0
  4  5  1  0  0  0  0
  5  6  2  0  0  0  0
  5 25  1  0  0  0  0
  6  7  1  0  0  0  0
  6 10  1  0  0  0  0
  7  8  2  0  0  0  0
  7  9  1  0  0  0  0
 10 11  2  0  0  0  0
 10 26  1  0  0  0  0
 11 12  1  0  0  0  0
 11 27  1  0  0  0  0
 12 13  2  0  0  0  0
 14 15  1  0  0  0  0
 14 28  1  0  0  0  0
 15 22  1  0  0  0  0
 15 16  1  0  0  0  0
 15 29  1  0  0  0  0
 16 17  1  0  0  0  0
 16 30  1  0  0  0  0
 16 31  1  0  0  0  0
 17 18  1  0  0  0  0
 17 32  1  0  0  0  0
 17 33  1  0  0  0  0
 18 19  1  0  0  0  0
 18 34  1  0  0  0  0
 18 35  1  0  0  0  0
 19 20  1  0  0  0  0
 19 36  1  0  0  0  0
 19 37  1  0  0  0  0
 20 21  1  0  0  0  0
 20 38  1  0  0  0  0
 20 39  1  0  0  0  0
 21 22  1  0  0  0  0
 21 40  1  0  0  0  0
 21 41  1  0  0  0  0
 22 42  1  0  0  0  0
 22 43  1  0  0  0  0
M  CHG  1   7   1
M  CHG  1   9  -1
M  END
> <s_m_source_file>
AV-unprocessed.smi

> <i_m_source_file_index>
1411

> <i_lp_mmshare_version>
43012

> <i_f3d_flags>
0

> <s_epik_input>
Tz1jMVtjSF1bY0hdYyhbTitdKD1PKVtPLV0pW2NIXW4xW0NIMl1DKD1PKVtOSF1bQ0hdMltDSDJdW0NIMl1bQ0gyXVtDSDJdW0NIMl1bQ0gyXVtDSDJdMg==

> <s_epik_cmdline>
J2VwaWtfcHl0aG9uJywgJy1waCcsICc3LjAnLCAnLXRuJywgJzgnLCAnLW1hJywgJzIwMCcsICctbWV0YWxfYmluZGluZycsICctaW1hZScsICc8aW5maWxlLm1hZT4nLCAnLW9tYWUnLCAnPG91dGZpbGUubWFlPic=

> <r_lp_tautomer_probability>
1

> <r_epik_Ionization_Penalty>
2.02954e-08

> <r_epik_Ionization_Penalty_Charging>
8.05481e-11

> <r_epik_Ionization_Penalty_Neutral>
2.02148e-08

> <r_epik_State_Penalty>
-0

> <r_epik_Charging_Adjusted_Penalty>
8.05481e-11

> <i_epik_Tot_Q>
0

> <i_epik_Tot_abs_Q>
2

> <r_epik_Metal_State_Penalty>
-0

> <b_epik_Metal_Only>
0

> <s_lp_Force_Field>
OPLS_2005

> <r_lp_Energy>
31.3753

> <b_lp_Chiralities_Consistent>
1

> <s_lp_Variant>
AV-unprocessed.smi:1411-1

> <Gold.Version>
5.8.1

> <Gold.Id.Protein>
6NUR|6NUR_protein|mol2

> <Gold.PLP.Fitness>
43.8425

> <Gold.PLP.PLP>
-36.7365

> <Gold.PLP.part.hbond>
-1.9979

> <Gold.PLP.part.metal>
0.0000

> <Gold.PLP.part.buried>
-5.6079

> <Gold.PLP.part.nonpolar>
-29.2341

> <Gold.PLP.part.repulsive>
1.2065

> <Gold.PLP.ligand.clash>
0.0000

> <Gold.PLP.ligand.torsion>
0.4741

> <Gold.PLP.Chemscore.Hbond>
1.6708

> <Gold.PLP.Chemscore.CHOScore>
0.9970

> <Gold.PLP.Chemscore.Metal>
0.0000

> <Gold.Chemscore.Hbonds>
donor molecule, donor type, donor heavy atom, donor atom, acceptor molecule, acceptor atom, score
      P1  H  6934  6946       L1     8  0.62
      P1  H  7989  7998       L1     1  0.62
      L1  C     5    25       P1  8028  0.99

> <Gold.PLP.Chemscore.Internal.Correction>
0.0508

> <Gold.Rescore>
     Score         DG    S(hbond)    S(metal)    S(lipo)     H(rot)  DE(clash)    DE(int)     intcor
     16.70     -18.37       1.60        0.00      98.12       1.54       0.77       0.91       ----

> <Gold.Chemscore.Fitness>
16.6992

> <Gold.Chemscore.DG>
-18.3734

> <Gold.Chemscore.ZeroCoef>
-5.4800

> <Gold.Chemscore.Hbond>
1.6030

> <Gold.Chemscore.Metal>
0.0000

> <Gold.Chemscore.Lipo>
98.1191

> <Gold.Chemscore.Internal_Hbond>
0.0000

> <Gold.Chemscore.DEClash>
0.7679

> <Gold.Chemscore.DEInternal>
0.9063

> <Gold.Chemscore.Rot>
1.5393

> <Gold.Chemscore.Internal.Correction>
   9.000000E+99

> <Gold.Chemscore.Hbonds>
donor molecule, donor type, donor heavy atom, donor atom, acceptor molecule, acceptor atom, score
      P1  H  6934  6946       L1     8  0.22
      P1  H  7989  7998       L1     1  0.44

> <Gold.Chemscore.Hbond.Weighted>
-5.3542

> <Gold.Chemscore.Metal.Weighted>
-0.0000

> <Gold.Chemscore.Lipo.Weighted>
-11.4799

> <Gold.Chemscore.Internal_Hbond.Weighted>
0.0000

> <Gold.Chemscore.DEClash.Weighted>
0.7679

> <Gold.Chemscore.DEInternal.Weighted>
0.9063

> <Gold.Chemscore.Rot.Weighted>
3.9407

> <Gold.Chemscore.Internal.Correction.Weighted>
   9.000000E+99

> <Gold.Protein.RotatedTorsions>
[ 6907 6896 6895 6894 ] final   68.18 input  -60.11 | X-H torsion
[ 7974 7965 7964 7962 ] final  175.15 input  175.53 | X-H torsion
[ 8008 7997 7996 7995 ] final   -7.86 input   59.86 | X-H torsion
[ 10167 10162 10161 10158 ] final  156.29 input  -65.29 | X-H torsion
[ 10718 10713 10712 10709 ] final  158.89 input   66.30 | X-H torsion
[ 10763 10752 10751 10750 ] final   42.77 input  -60.55 | X-H torsion
[ 11005 11000 10999 10996 ] final  125.91 input  -57.11 | X-H torsion

> <Gold.Protein.ActiveResidues>
 VAL166  LYS551  ARG553  GLY616  TRP617  ASP618  TYR619  PRO620  LYS621  CYS622 
 ASP623  PHE694  ASN695  SER759  ASP760  ASP761  ALA762  ILE779  LEU786  VAL792 
 PHE793  MET794  SER795  GLU796  ALA797  LYS798  CYS799  TRP800  GLU811  SER814 

> <Gold.Protein.RotatedAtoms>
  152.4603  134.5199  159.9779 H   0  0  0  0  0  0  0  0  0  0  0  0  # atno 6907 bound_to 6896
  151.5250  133.3453  159.2916 H   0  0  0  0  0  0  0  0  0  0  0  0  # atno 6908 bound_to 6896
  150.8563  134.7932  159.7110 H   0  0  0  0  0  0  0  0  0  0  0  0  # atno 6909 bound_to 6896
  144.7207  139.9904  143.6440 H   0  0  0  0  0  0  0  0  0  0  0  0  # atno 7974 bound_to 7965
  154.5797  140.2396  155.8071 H   0  0  0  0  0  0  0  0  0  0  0  0  # atno 8008 bound_to 7997
  156.2170  140.3009  155.9819 H   0  0  0  0  0  0  0  0  0  0  0  0  # atno 8009 bound_to 7997
  155.2563  140.0412  157.2983 H   0  0  0  0  0  0  0  0  0  0  0  0  # atno 8010 bound_to 7997
  139.4821  144.5022  151.8151 H   0  0  0  0  0  0  0  0  0  0  0  0  # atno 10167 bound_to 10162
  157.1717  131.0611  151.2179 H   0  0  0  0  0  0  0  0  0  0  0  0  # atno 10718 bound_to 10713
  152.9875  135.6121  154.3003 H   0  0  0  0  0  0  0  0  0  0  0  0  # atno 10763 bound_to 10752
  154.2724  135.2779  155.2734 H   0  0  0  0  0  0  0  0  0  0  0  0  # atno 10764 bound_to 10752
  154.5110  135.5841  153.6662 H   0  0  0  0  0  0  0  0  0  0  0  0  # atno 10765 bound_to 10752
  139.9430  134.9633  156.8629 H   0  0  0  0  0  0  0  0  0  0  0  0  # atno 11005 bound_to 11000
  146.0416  139.3427  143.0694 LP  0  0  0  0  0  0  0  0  0  0  0  0  # atno 17320 bound_to 7965
  145.8327  140.9622  143.0840 LP  0  0  0  0  0  0  0  0  0  0  0  0  # atno 17321 bound_to 7965
  140.4516  144.1847  150.5898 LP  0  0  0  0  0  0  0  0  0  0  0  0  # atno 17342 bound_to 10162
  140.4578  143.2460  151.9260 LP  0  0  0  0  0  0  0  0  0  0  0  0  # atno 17343 bound_to 10162
  157.4037  130.7347  149.6786 LP  0  0  0  0  0  0  0  0  0  0  0  0  # atno 17370 bound_to 10713
  155.9737  130.4114  150.3979 LP  0  0  0  0  0  0  0  0  0  0  0  0  # atno 17371 bound_to 10713
  140.5905  134.0266  155.7498 LP  0  0  0  0  0  0  0  0  0  0  0  0  # atno 17394 bound_to 11000
  141.1071  133.9676  157.2977 LP  0  0  0  0  0  0  0  0  0  0  0  0  # atno 17395 bound_to 11000

$$$$
