AV-unprocessed.smi:3280|AV-procd|sdf|12553|dock6
  -GOLD-   2272018473D 1   1.00000     0.00000
 Structure written by MMmdl.
 39 40  0  0  0  0  0  0  0  0  2 V2000
  151.2081  129.6108  157.8778 C   0  0  0  0  0  0  0  0  0  0  0  0
  151.9874  130.5134  156.9100 C   0  0  0  0  0  0  0  0  0  0  0  0
  153.3413  130.9690  157.4746 C   0  0  0  0  0  0  0  0  0  0  0  0
  151.1608  131.6737  156.4459 C   0  0  0  0  0  0  0  0  0  0  0  0
  150.6932  132.5741  157.3034 N   0  0  0  0  0  0  0  0  0  0  0  0
  149.9954  133.4733  156.4847 O   0  0  0  0  0  0  0  0  0  0  0  0
  150.1135  132.9920  155.2247 C   0  0  0  0  0  0  0  0  0  0  0  0
  149.5125  133.7637  154.0986 C   0  0  0  0  0  0  0  0  0  0  0  0
  148.5296  132.9218  153.2756 C   0  0  0  0  0  0  0  0  0  0  0  0
  147.4262  133.7520  152.7522 N   0  3  0  0  0  0  0  0  0  0  0  0
  146.6039  133.1028  151.7082 C   0  0  1  0  0  0  0  0  0  0  0  0
  146.0966  131.7402  152.2176 C   0  0  0  0  0  0  0  0  0  0  0  0
  145.2812  130.9769  151.1607 C   0  0  0  0  0  0  0  0  0  0  0  0
  144.0276  131.7451  150.7196 C   0  0  0  0  0  0  0  0  0  0  0  0
  144.4669  133.3272  149.9505 S   0  0  0  0  0  0  0  0  0  0  0  0
  145.4409  134.0286  151.3104 C   0  0  0  0  0  0  0  0  0  0  0  0
  150.8467  131.8859  155.1366 N   0  0  0  0  0  0  0  0  0  0  0  0
  150.2874  129.2480  157.4201 H   0  0  0  0  0  0  0  0  0  0  0  0
  150.9397  130.1439  158.7904 H   0  0  0  0  0  0  0  0  0  0  0  0
  151.7994  128.7407  158.1643 H   0  0  0  0  0  0  0  0  0  0  0  0
  152.2105  129.9028  156.0332 H   0  0  0  0  0  0  0  0  0  0  0  0
  153.9005  131.5445  156.7362 H   0  0  0  0  0  0  0  0  0  0  0  0
  153.9544  130.1140  157.7603 H   0  0  0  0  0  0  0  0  0  0  0  0
  153.2136  131.5950  158.3583 H   0  0  0  0  0  0  0  0  0  0  0  0
  149.0072  134.6391  154.5087 H   0  0  0  0  0  0  0  0  0  0  0  0
  150.3177  134.1348  153.4629 H   0  0  0  0  0  0  0  0  0  0  0  0
  149.0500  132.4495  152.4413 H   0  0  0  0  0  0  0  0  0  0  0  0
  148.1151  132.1241  153.8940 H   0  0  0  0  0  0  0  0  0  0  0  0
  146.8215  134.0008  153.5221 H   0  0  0  0  0  0  0  0  0  0  0  0
  147.2200  132.9295  150.8237 H   0  0  0  0  0  0  0  0  0  0  0  0
  146.9464  131.1255  152.5172 H   0  0  0  0  0  0  0  0  0  0  0  0
  145.4902  131.8800  153.1137 H   0  0  0  0  0  0  0  0  0  0  0  0
  145.9069  130.7644  150.2928 H   0  0  0  0  0  0  0  0  0  0  0  0
  144.9844  130.0092  151.5662 H   0  0  0  0  0  0  0  0  0  0  0  0
  143.4557  131.1552  150.0029 H   0  0  0  0  0  0  0  0  0  0  0  0
  143.3748  131.9320  151.5728 H   0  0  0  0  0  0  0  0  0  0  0  0
  144.7816  134.2062  152.1610 H   0  0  0  0  0  0  0  0  0  0  0  0
  145.8196  135.0003  150.9913 H   0  0  0  0  0  0  0  0  0  0  0  0
  147.8178  134.5997  152.3667 H   0  0  0  0  0  0  0  0  0  0  0  0
  1  2  1  0  0  0  0
  1 18  1  0  0  0  0
  1 19  1  0  0  0  0
  1 20  1  0  0  0  0
  2  3  1  0  0  0  0
  2  4  1  0  0  0  0
  2 21  1  0  0  0  0
  3 22  1  0  0  0  0
  3 23  1  0  0  0  0
  3 24  1  0  0  0  0
  4 17  1  0  0  0  0
  4  5  2  0  0  0  0
  5  6  1  0  0  0  0
  6  7  1  0  0  0  0
  7  8  1  0  0  0  0
  7 17  2  0  0  0  0
  8  9  1  0  0  0  0
  8 25  1  0  0  0  0
  8 26  1  0  0  0  0
  9 10  1  0  0  0  0
  9 27  1  0  0  0  0
  9 28  1  0  0  0  0
 10 11  1  0  0  0  0
 10 29  1  0  0  0  0
 10 39  1  0  0  0  0
 11 16  1  0  0  0  0
 11 12  1  0  0  0  0
 11 30  1  0  0  0  0
 12 13  1  0  0  0  0
 12 31  1  0  0  0  0
 12 32  1  0  0  0  0
 13 14  1  0  0  0  0
 13 33  1  0  0  0  0
 13 34  1  0  0  0  0
 14 15  1  0  0  0  0
 14 35  1  0  0  0  0
 14 36  1  0  0  0  0
 15 16  1  0  0  0  0
 16 37  1  0  0  0  0
 16 38  1  0  0  0  0
M  CHG  1  10   1
M  END
> <s_m_source_file>
AV-unprocessed.smi

> <i_m_source_file_index>
3280

> <i_lp_mmshare_version>
43012

> <i_f3d_flags>
0

> <s_epik_input>
W0NIM11bQ0hdKFtDSDNdKWMxbm9jKG4xKVtDSDJdW0NIMl1bTkhdW0NAQEhdMltDSDJdW0NIMl1bQ0gyXVNbQ0gyXTI=

> <s_epik_cmdline>
J2VwaWtfcHl0aG9uJywgJy1waCcsICc3LjAnLCAnLXRuJywgJzgnLCAnLW1hJywgJzIwMCcsICctbWV0YWxfYmluZGluZycsICctaW1hZScsICc8aW5maWxlLm1hZT4nLCAnLW9tYWUnLCAnPG91dGZpbGUubWFlPic=

> <r_lp_tautomer_probability>
1

> <r_epik_Ionization_Penalty>
0.0103043

> <r_epik_Ionization_Penalty_Charging>
0.0103043

> <r_epik_Ionization_Penalty_Neutral>
2.61801e-13

> <r_epik_State_Penalty>
0.0078728

> <r_epik_Charging_Adjusted_Penalty>
0.0181771

> <i_epik_Tot_Q>
1

> <i_epik_Tot_abs_Q>
1

> <r_epik_Metal_State_Penalty>
0.0078728

> <b_epik_Metal_Only>
0

> <s_lp_Force_Field>
OPLS_2005

> <r_lp_Energy>
2.51022

> <b_lp_Chiralities_Consistent>
1

> <s_lp_Variant>
AV-unprocessed.smi:3280-2

> <Gold.Version>
5.8.1

> <Gold.Id.Protein>
6NUR|6NUR_protein|mol2

> <Gold.PLP.Fitness>
37.6420

> <Gold.PLP.PLP>
-29.2121

> <Gold.PLP.part.hbond>
-2.0000

> <Gold.PLP.part.metal>
0.0000

> <Gold.PLP.part.buried>
-4.2044

> <Gold.PLP.part.nonpolar>
-23.1179

> <Gold.PLP.part.repulsive>
0.0020

> <Gold.PLP.ligand.clash>
0.0000

> <Gold.PLP.ligand.torsion>
0.3264

> <Gold.PLP.Chemscore.Hbond>
3.0000

> <Gold.PLP.Chemscore.CHOScore>
0.0000

> <Gold.PLP.Chemscore.Metal>
0.0000

> <Gold.Chemscore.Hbonds>
donor molecule, donor type, donor heavy atom, donor atom, acceptor molecule, acceptor atom, score
      L1  H    10    39       P1  7948  2.00
      P1  H  6896  6907       L1     5  0.71

> <Gold.PLP.Chemscore.Internal.Correction>
0.0828

> <Gold.Rescore>
     Score         DG    S(hbond)    S(metal)    S(lipo)     H(rot)  DE(clash)    DE(int)     intcor
     14.59     -15.01       1.85        0.00      67.18       1.76       0.00       0.42       ----

> <Gold.Chemscore.Fitness>
14.5924

> <Gold.Chemscore.DG>
-15.0126

> <Gold.Chemscore.ZeroCoef>
-5.4800

> <Gold.Chemscore.Hbond>
1.8476

> <Gold.Chemscore.Metal>
0.0000

> <Gold.Chemscore.Lipo>
67.1801

> <Gold.Chemscore.Internal_Hbond>
0.0000

> <Gold.Chemscore.DEClash>
0.0000

> <Gold.Chemscore.DEInternal>
0.4202

> <Gold.Chemscore.Rot>
1.7572

> <Gold.Chemscore.Internal.Correction>
   9.000000E+99

> <Gold.Chemscore.Hbonds>
donor molecule, donor type, donor heavy atom, donor atom, acceptor molecule, acceptor atom, score
      L1  H    10    39       P1  7948  0.57
      P1  H  6896  6907       L1     5  0.62

> <Gold.Chemscore.Hbond.Weighted>
-6.1709

> <Gold.Chemscore.Metal.Weighted>
-0.0000

> <Gold.Chemscore.Lipo.Weighted>
-7.8601

> <Gold.Chemscore.Internal_Hbond.Weighted>
0.0000

> <Gold.Chemscore.DEClash.Weighted>
0.0000

> <Gold.Chemscore.DEInternal.Weighted>
0.4202

> <Gold.Chemscore.Rot.Weighted>
4.4984

> <Gold.Chemscore.Internal.Correction.Weighted>
   9.000000E+99

> <Gold.Protein.RotatedTorsions>
[ 6907 6896 6895 6894 ] final -156.94 input  -60.11 | X-H torsion
[ 7974 7965 7964 7962 ] final   27.88 input  175.53 | X-H torsion
[ 8008 7997 7996 7995 ] final  -42.06 input   59.86 | X-H torsion
[ 10167 10162 10161 10158 ] final  106.90 input  -65.29 | X-H torsion
[ 10718 10713 10712 10709 ] final -179.35 input   66.30 | X-H torsion
[ 10763 10752 10751 10750 ] final  142.61 input  -60.55 | X-H torsion
[ 11005 11000 10999 10996 ] final   11.60 input  -57.11 | X-H torsion

> <Gold.Protein.ActiveResidues>
 VAL166  LYS551  ARG553  GLY616  TRP617  ASP618  TYR619  PRO620  LYS621  CYS622 
 ASP623  PHE694  ASN695  SER759  ASP760  ASP761  ALA762  ILE779  LEU786  VAL792 
 PHE793  MET794  SER795  GLU796  ALA797  LYS798  CYS799  TRP800  GLU811  SER814 

> <Gold.Protein.RotatedAtoms>
  151.2952  133.4147  159.2635 H   0  0  0  0  0  0  0  0  0  0  0  0  # atno 6907 bound_to 6896
  151.0243  134.9493  159.8087 H   0  0  0  0  0  0  0  0  0  0  0  0  # atno 6908 bound_to 6896
  152.5331  134.2914  159.9097 H   0  0  0  0  0  0  0  0  0  0  0  0  # atno 6909 bound_to 6896
  146.1760  139.7131  142.8934 H   0  0  0  0  0  0  0  0  0  0  0  0  # atno 7974 bound_to 7965
  154.4000  140.1483  156.3294 H   0  0  0  0  0  0  0  0  0  0  0  0  # atno 8008 bound_to 7997
  155.8457  140.3460  155.5639 H   0  0  0  0  0  0  0  0  0  0  0  0  # atno 8009 bound_to 7997
  155.8038  140.0874  157.1932 H   0  0  0  0  0  0  0  0  0  0  0  0  # atno 8010 bound_to 7997
  139.6971  144.7100  151.1248 H   0  0  0  0  0  0  0  0  0  0  0  0  # atno 10167 bound_to 10162
  156.8578  130.9741  151.3086 H   0  0  0  0  0  0  0  0  0  0  0  0  # atno 10718 bound_to 10713
  153.9587  135.2962  155.3435 H   0  0  0  0  0  0  0  0  0  0  0  0  # atno 10763 bound_to 10752
  154.7387  135.5035  153.9088 H   0  0  0  0  0  0  0  0  0  0  0  0  # atno 10764 bound_to 10752
  153.0957  135.6720  153.9877 H   0  0  0  0  0  0  0  0  0  0  0  0  # atno 10765 bound_to 10752
  140.5014  134.0742  155.7794 H   0  0  0  0  0  0  0  0  0  0  0  0  # atno 11005 bound_to 11000
  145.4211  141.0406  143.2963 LP  0  0  0  0  0  0  0  0  0  0  0  0  # atno 17320 bound_to 7965
  144.8236  139.5748  143.6975 LP  0  0  0  0  0  0  0  0  0  0  0  0  # atno 17321 bound_to 7965
  140.7699  143.5476  150.9241 LP  0  0  0  0  0  0  0  0  0  0  0  0  # atno 17342 bound_to 10162
  139.9156  143.6668  152.3107 LP  0  0  0  0  0  0  0  0  0  0  0  0  # atno 17343 bound_to 10162
  157.6267  130.8697  149.9202 LP  0  0  0  0  0  0  0  0  0  0  0  0  # atno 17370 bound_to 10713
  156.0793  130.3675  150.0613 LP  0  0  0  0  0  0  0  0  0  0  0  0  # atno 17371 bound_to 10713
  141.1433  133.9099  157.2274 LP  0  0  0  0  0  0  0  0  0  0  0  0  # atno 17394 bound_to 11000
  139.9711  135.0128  156.9514 LP  0  0  0  0  0  0  0  0  0  0  0  0  # atno 17395 bound_to 11000

$$$$
