AV-unprocessed.smi:3348|AV-procd|sdf|12927|dock3
  -GOLD-   2272019353D 1   1.00000     0.00000
 Structure written by MMmdl.
 46 47  0  0  0  0  0  0  0  0  1 V2000
  144.2338  135.1297  153.3714 C   0  0  0  0  0  0  0  0  0  0  0  0
  144.9133  136.1291  152.4194 C   0  0  2  0  0  0  0  0  0  0  0  0
  144.8848  135.6584  150.9443 C   0  0  0  0  0  0  0  0  0  0  0  0
  145.1833  134.2456  150.7905 N   0  0  0  0  0  0  0  0  0  0  0  0
  144.4169  133.2657  150.1947 C   0  0  0  0  0  0  0  0  0  0  0  0
  145.1053  132.0911  150.3011 C   0  0  0  0  0  0  0  0  0  0  0  0
  146.2944  132.4577  150.9916 C   0  0  0  0  0  0  0  0  0  0  0  0
  146.3364  133.7467  151.2869 N   0  0  0  0  0  0  0  0  0  0  0  0
  146.2802  136.3812  152.8862 N   0  0  0  0  0  0  0  0  0  0  0  0
  146.5402  137.7354  153.3743 C   0  0  0  0  0  0  0  0  0  0  0  0
  147.4482  137.7090  154.6081 C   0  0  0  0  0  0  0  0  0  0  0  0
  147.8759  139.0339  154.8867 O   0  0  0  0  0  0  0  0  0  0  0  0
  148.8185  139.5620  153.9596 C   0  0  2  0  0  0  0  0  0  0  0  0
  150.1880  138.8711  154.1340 C   0  0  0  0  0  0  0  0  0  0  0  0
  150.8073  139.1734  155.5086 C   0  0  0  0  0  0  0  0  0  0  0  0
  150.9192  140.6867  155.7482 C   0  0  0  0  0  0  0  0  0  0  0  0
  149.5590  141.3823  155.5788 C   0  0  0  0  0  0  0  0  0  0  0  0
  148.9395  141.0837  154.1985 C   0  0  2  0  0  0  0  0  0  0  0  0
  147.5969  141.8057  154.0052 C   0  0  0  0  0  0  0  0  0  0  0  0
  143.1789  134.9976  153.1308 H   0  0  0  0  0  0  0  0  0  0  0  0
  144.2846  135.4751  154.4045 H   0  0  0  0  0  0  0  0  0  0  0  0
  144.7119  134.1505  153.3240 H   0  0  0  0  0  0  0  0  0  0  0  0
  144.3505  137.0611  152.4848 H   0  0  0  0  0  0  0  0  0  0  0  0
  143.9076  135.8347  150.4945 H   0  0  0  0  0  0  0  0  0  0  0  0
  145.6068  136.2263  150.3560 H   0  0  0  0  0  0  0  0  0  0  0  0
  143.4580  133.4837  149.7481 H   0  0  0  0  0  0  0  0  0  0  0  0
  144.8049  131.1180  149.9419 H   0  0  0  0  0  0  0  0  0  0  0  0
  147.1221  131.8295  151.2865 H   0  0  0  0  0  0  0  0  0  0  0  0
  146.5217  135.7094  153.6077 H   0  0  0  0  0  0  0  0  0  0  0  0
  146.9942  138.3562  152.6023 H   0  0  0  0  0  0  0  0  0  0  0  0
  145.5959  138.2085  153.6456 H   0  0  0  0  0  0  0  0  0  0  0  0
  146.8874  137.3132  155.4548 H   0  0  0  0  0  0  0  0  0  0  0  0
  148.3017  137.0489  154.4452 H   0  0  0  0  0  0  0  0  0  0  0  0
  148.4609  139.4048  152.9402 H   0  0  0  0  0  0  0  0  0  0  0  0
  150.1019  137.7940  153.9942 H   0  0  0  0  0  0  0  0  0  0  0  0
  150.8656  139.2197  153.3536 H   0  0  0  0  0  0  0  0  0  0  0  0
  150.1971  138.7225  156.2924 H   0  0  0  0  0  0  0  0  0  0  0  0
  151.7928  138.7122  155.5811 H   0  0  0  0  0  0  0  0  0  0  0  0
  151.3121  140.8770  156.7475 H   0  0  0  0  0  0  0  0  0  0  0  0
  151.6375  141.1147  155.0476 H   0  0  0  0  0  0  0  0  0  0  0  0
  148.8808  141.0552  156.3682 H   0  0  0  0  0  0  0  0  0  0  0  0
  149.6827  142.4580  155.7070 H   0  0  0  0  0  0  0  0  0  0  0  0
  149.6216  141.4783  153.4437 H   0  0  0  0  0  0  0  0  0  0  0  0
  146.8591  141.4808  154.7396 H   0  0  0  0  0  0  0  0  0  0  0  0
  147.1866  141.6120  153.0137 H   0  0  0  0  0  0  0  0  0  0  0  0
  147.7138  142.8846  154.1081 H   0  0  0  0  0  0  0  0  0  0  0  0
  1  2  1  0  0  0  0
  1 20  1  0  0  0  0
  1 21  1  0  0  0  0
  1 22  1  0  0  0  0
  2  3  1  0  0  0  0
  2  9  1  0  0  0  0
  2 23  1  0  0  0  0
  3  4  1  0  0  0  0
  3 24  1  0  0  0  0
  3 25  1  0  0  0  0
  4  8  1  0  0  0  0
  4  5  1  0  0  0  0
  5  6  2  0  0  0  0
  5 26  1  0  0  0  0
  6  7  1  0  0  0  0
  6 27  1  0  0  0  0
  7  8  2  0  0  0  0
  7 28  1  0  0  0  0
  9 10  1  0  0  0  0
  9 29  1  0  0  0  0
 10 11  1  0  0  0  0
 10 30  1  0  0  0  0
 10 31  1  0  0  0  0
 11 12  1  0  0  0  0
 11 32  1  0  0  0  0
 11 33  1  0  0  0  0
 12 13  1  0  0  0  0
 13 18  1  0  0  0  0
 13 14  1  0  0  0  0
 13 34  1  0  0  0  0
 14 15  1  0  0  0  0
 14 35  1  0  0  0  0
 14 36  1  0  0  0  0
 15 16  1  0  0  0  0
 15 37  1  0  0  0  0
 15 38  1  0  0  0  0
 16 17  1  0  0  0  0
 16 39  1  0  0  0  0
 16 40  1  0  0  0  0
 17 18  1  0  0  0  0
 17 41  1  0  0  0  0
 17 42  1  0  0  0  0
 18 19  1  0  0  0  0
 18 43  1  0  0  0  0
 19 44  1  0  0  0  0
 19 45  1  0  0  0  0
 19 46  1  0  0  0  0
M  END
> <s_m_source_file>
AV-unprocessed.smi

> <i_m_source_file_index>
3348

> <i_lp_mmshare_version>
43012

> <i_f3d_flags>
0

> <s_epik_input>
bjFbY0hdW2NIXVtjSF1uMVtDSDJdW0NAQEhdKFtDSDNdKVtOSF1bQ0gyXVtDSDJdT1tDQEBIXTJbQ0gyXVtDSDJdW0NIMl1bQ0gyXVtDQEhdMltDSDNd

> <s_epik_cmdline>
J2VwaWtfcHl0aG9uJywgJy1waCcsICc3LjAnLCAnLXRuJywgJzgnLCAnLW1hJywgJzIwMCcsICctbWV0YWxfYmluZGluZycsICctaW1hZScsICc8aW5maWxlLm1hZT4nLCAnLW9tYWUnLCAnPG91dGZpbGUubWFlPic=

> <r_lp_tautomer_probability>
1

> <r_epik_Ionization_Penalty>
2.46945

> <r_epik_Ionization_Penalty_Charging>
0

> <r_epik_Ionization_Penalty_Neutral>
2.46945

> <r_epik_State_Penalty>
2.6322

> <r_epik_Charging_Adjusted_Penalty>
2.6322

> <i_epik_Tot_Q>
0

> <i_epik_Tot_abs_Q>
0

> <r_epik_Metal_State_Penalty>
2.63217

> <b_epik_Metal_Only>
0

> <s_lp_Force_Field>
OPLS_2005

> <r_lp_Energy>
16.5117

> <b_lp_Chiralities_Consistent>
1

> <s_lp_Variant>
AV-unprocessed.smi:3348-13

> <Gold.Version>
5.8.1

> <Gold.Id.Protein>
6NUR|6NUR_protein|mol2

> <Gold.PLP.Fitness>
39.2987

> <Gold.PLP.PLP>
-35.7531

> <Gold.PLP.part.hbond>
-1.0000

> <Gold.PLP.part.metal>
0.0000

> <Gold.PLP.part.buried>
-1.6002

> <Gold.PLP.part.nonpolar>
-32.9651

> <Gold.PLP.part.repulsive>
0.2566

> <Gold.PLP.ligand.clash>
0.0000

> <Gold.PLP.ligand.torsion>
1.3328

> <Gold.PLP.Chemscore.Hbond>
0.0000

> <Gold.PLP.Chemscore.CHOScore>
2.0000

> <Gold.PLP.Chemscore.Metal>
0.0000

> <Gold.Chemscore.Hbonds>
donor molecule, donor type, donor heavy atom, donor atom, acceptor molecule, acceptor atom, score
      L1  C     5    26       P1 10186  0.75
      L1  C     7    28       P1 10747  1.00

> <Gold.PLP.Chemscore.Internal.Correction>
0.2112

> <Gold.Rescore>
     Score         DG    S(hbond)    S(metal)    S(lipo)     H(rot)  DE(clash)    DE(int)     intcor
     10.72     -12.04       0.00        0.00      93.77       1.72       0.08       1.24       ----

> <Gold.Chemscore.Fitness>
10.7218

> <Gold.Chemscore.DG>
-12.0386

> <Gold.Chemscore.ZeroCoef>
-5.4800

> <Gold.Chemscore.Hbond>
0.0000

> <Gold.Chemscore.Metal>
0.0000

> <Gold.Chemscore.Lipo>
93.7711

> <Gold.Chemscore.Internal_Hbond>
0.0000

> <Gold.Chemscore.DEClash>
0.0785

> <Gold.Chemscore.DEInternal>
1.2384

> <Gold.Chemscore.Rot>
1.7237

> <Gold.Chemscore.Internal.Correction>
   9.000000E+99

> <Gold.Chemscore.Hbond.Weighted>
-0.0000

> <Gold.Chemscore.Metal.Weighted>
-0.0000

> <Gold.Chemscore.Lipo.Weighted>
-10.9712

> <Gold.Chemscore.Internal_Hbond.Weighted>
0.0000

> <Gold.Chemscore.DEClash.Weighted>
0.0785

> <Gold.Chemscore.DEInternal.Weighted>
1.2384

> <Gold.Chemscore.Rot.Weighted>
4.4126

> <Gold.Chemscore.Internal.Correction.Weighted>
   9.000000E+99

> <Gold.Protein.RotatedTorsions>
[ 6907 6896 6895 6894 ] final  -95.80 input  -60.11 | X-H torsion
[ 7974 7965 7964 7962 ] final  117.83 input  175.53 | X-H torsion
[ 8008 7997 7996 7995 ] final  -25.53 input   59.86 | X-H torsion
[ 10167 10162 10161 10158 ] final   95.90 input  -65.29 | X-H torsion
[ 10718 10713 10712 10709 ] final  161.66 input   66.30 | X-H torsion
[ 10763 10752 10751 10750 ] final  134.46 input  -60.55 | X-H torsion
[ 11005 11000 10999 10996 ] final  139.94 input  -57.11 | X-H torsion

> <Gold.Protein.ActiveResidues>
 VAL166  LYS551  ARG553  GLY616  TRP617  ASP618  TYR619  PRO620  LYS621  CYS622 
 ASP623  PHE694  ASN695  SER759  ASP760  ASP761  ALA762  ILE779  LEU786  VAL792 
 PHE793  MET794  SER795  GLU796  ALA797  LYS798  CYS799  TRP800  GLU811  SER814 

> <Gold.Protein.RotatedAtoms>
  150.6973  134.1601  159.4172 H   0  0  0  0  0  0  0  0  0  0  0  0  # atno 6907 bound_to 6896
  151.9582  135.0134  160.0555 H   0  0  0  0  0  0  0  0  0  0  0  0  # atno 6908 bound_to 6896
  152.1951  133.4765  159.5065 H   0  0  0  0  0  0  0  0  0  0  0  0  # atno 6909 bound_to 6896
  145.1625  139.3147  143.4509 H   0  0  0  0  0  0  0  0  0  0  0  0  # atno 7974 bound_to 7965
  154.4471  140.1924  156.0633 H   0  0  0  0  0  0  0  0  0  0  0  0  # atno 8008 bound_to 7997
  156.0566  140.3302  155.7385 H   0  0  0  0  0  0  0  0  0  0  0  0  # atno 8009 bound_to 7997
  155.5476  140.0592  157.2847 H   0  0  0  0  0  0  0  0  0  0  0  0  # atno 8010 bound_to 7997
  139.7945  144.6839  150.9848 H   0  0  0  0  0  0  0  0  0  0  0  0  # atno 10167 bound_to 10162
  157.1334  131.0522  151.2361 H   0  0  0  0  0  0  0  0  0  0  0  0  # atno 10718 bound_to 10713
  153.8239  135.3112  155.3413 H   0  0  0  0  0  0  0  0  0  0  0  0  # atno 10763 bound_to 10752
  154.8001  135.4731  154.0259 H   0  0  0  0  0  0  0  0  0  0  0  0  # atno 10764 bound_to 10752
  153.1676  135.6872  153.8743 H   0  0  0  0  0  0  0  0  0  0  0  0  # atno 10765 bound_to 10752
  140.0291  134.9360  157.0626 H   0  0  0  0  0  0  0  0  0  0  0  0  # atno 11005 bound_to 11000
  146.3480  140.1741  142.8589 LP  0  0  0  0  0  0  0  0  0  0  0  0  # atno 17320 bound_to 7965
  145.0316  140.8875  143.5106 LP  0  0  0  0  0  0  0  0  0  0  0  0  # atno 17321 bound_to 7965
  140.7820  143.4346  151.0642 LP  0  0  0  0  0  0  0  0  0  0  0  0  # atno 17342 bound_to 10162
  139.8021  143.8069  152.3164 LP  0  0  0  0  0  0  0  0  0  0  0  0  # atno 17343 bound_to 10162
  157.4372  130.7523  149.7039 LP  0  0  0  0  0  0  0  0  0  0  0  0  # atno 17370 bound_to 10713
  155.9803  130.4031  150.3536 LP  0  0  0  0  0  0  0  0  0  0  0  0  # atno 17371 bound_to 10713
  140.4256  134.1834  155.7166 LP  0  0  0  0  0  0  0  0  0  0  0  0  # atno 17394 bound_to 11000
  141.1820  133.8393  157.1223 LP  0  0  0  0  0  0  0  0  0  0  0  0  # atno 17395 bound_to 11000

$$$$
