AV-unprocessed.smi:2456|AV-procd|sdf|9701|dock2
  -GOLD-   2272013343D 1   1.00000     0.00000
 Structure written by MMmdl.
 34 35  0  0  0  0  0  0  0  0  1 V2000
  147.4054  141.7614  153.7513 C   0  0  0  0  0  0  0  0  0  0  0  0
  148.6914  141.1361  154.3349 C   0  0  1  0  0  0  0  0  0  0  0  0
  149.3668  142.0286  155.2831 N   0  0  0  0  0  0  0  0  0  0  0  0
  150.2516  141.7010  156.2396 C   0  0  0  0  0  0  0  0  0  0  0  0
  150.6796  140.5610  156.4186 O   0  0  0  0  0  0  0  0  0  0  0  0
  150.6071  142.7820  156.9556 N   0  0  0  0  0  0  0  0  0  0  0  0
  151.5082  142.8532  158.0503 C   0  0  0  0  0  0  0  0  0  0  0  0
  151.9429  141.7929  158.7412 N   0  0  0  0  0  0  0  0  0  0  0  0
  152.8209  142.1577  159.7646 C   0  0  0  0  0  0  0  0  0  0  0  0
  153.0445  143.5100  159.8397 C   0  0  0  0  0  0  0  0  0  0  0  0
  152.1568  144.3838  158.6201 S   0  0  0  0  0  0  0  0  0  0  0  0
  148.5036  139.7185  154.9146 C   0  0  0  0  0  0  0  0  0  0  0  0
  147.4493  139.4428  155.4887 O   0  0  0  0  0  0  0  0  0  0  0  0
  149.5032  138.8168  154.7948 N   0  0  0  0  0  0  0  0  0  0  0  0
  150.7886  139.0270  154.1272 C   0  0  0  0  0  0  0  0  0  0  0  0
  151.6353  137.7972  154.4559 C   0  0  0  0  0  0  0  0  0  0  0  0
  150.6143  136.7047  154.7379 C   0  0  0  0  0  0  0  0  0  0  0  0
  149.4176  137.4554  155.3214 C   0  0  0  0  0  0  0  0  0  0  0  0
  147.0077  141.1451  152.9443 H   0  0  0  0  0  0  0  0  0  0  0  0
  147.6045  142.7497  153.3363 H   0  0  0  0  0  0  0  0  0  0  0  0
  146.6145  141.8670  154.4939 H   0  0  0  0  0  0  0  0  0  0  0  0
  149.3737  141.0442  153.4898 H   0  0  0  0  0  0  0  0  0  0  0  0
  149.1058  143.0015  155.2214 H   0  0  0  0  0  0  0  0  0  0  0  0
  150.1788  143.6565  156.6912 H   0  0  0  0  0  0  0  0  0  0  0  0
  153.2419  141.3878  160.3942 H   0  0  0  0  0  0  0  0  0  0  0  0
  153.6755  144.0425  160.5358 H   0  0  0  0  0  0  0  0  0  0  0  0
  150.6235  139.0966  153.0511 H   0  0  0  0  0  0  0  0  0  0  0  0
  151.2893  139.9375  154.4560 H   0  0  0  0  0  0  0  0  0  0  0  0
  152.3272  137.5336  153.6555 H   0  0  0  0  0  0  0  0  0  0  0  0
  152.2220  137.9879  155.3555 H   0  0  0  0  0  0  0  0  0  0  0  0
  150.3245  136.2251  153.8022 H   0  0  0  0  0  0  0  0  0  0  0  0
  150.9950  135.9314  155.4058 H   0  0  0  0  0  0  0  0  0  0  0  0
  149.4835  137.4936  156.4097 H   0  0  0  0  0  0  0  0  0  0  0  0
  148.4780  136.9683  155.0557 H   0  0  0  0  0  0  0  0  0  0  0  0
  1  2  1  0  0  0  0
  1 19  1  0  0  0  0
  1 20  1  0  0  0  0
  1 21  1  0  0  0  0
  2  3  1  0  0  0  0
  2 12  1  0  0  0  0
  2 22  1  0  0  0  0
  3  4  1  0  0  0  0
  3 23  1  0  0  0  0
  4  5  2  0  0  0  0
  4  6  1  0  0  0  0
  6  7  1  0  0  0  0
  6 24  1  0  0  0  0
  7 11  1  0  0  0  0
  7  8  2  0  0  0  0
  8  9  1  0  0  0  0
  9 10  2  0  0  0  0
  9 25  1  0  0  0  0
 10 11  1  0  0  0  0
 10 26  1  0  0  0  0
 12 13  2  0  0  0  0
 12 14  1  0  0  0  0
 14 18  1  0  0  0  0
 14 15  1  0  0  0  0
 15 16  1  0  0  0  0
 15 27  1  0  0  0  0
 15 28  1  0  0  0  0
 16 17  1  0  0  0  0
 16 29  1  0  0  0  0
 16 30  1  0  0  0  0
 17 18  1  0  0  0  0
 17 31  1  0  0  0  0
 17 32  1  0  0  0  0
 18 33  1  0  0  0  0
 18 34  1  0  0  0  0
M  END
> <s_m_source_file>
AV-unprocessed.smi

> <i_m_source_file_index>
2456

> <i_lp_mmshare_version>
43012

> <i_f3d_flags>
0

> <s_epik_input>
W0NIMl0xW0NIMl1bQ0gyXVtDSDJdTjFDKD1PKVtDQEhdKFtDSDNdKVtOSF1DKD1PKVtOSF1jMm5bY0hdW2NIXXMy

> <s_epik_cmdline>
J2VwaWtfcHl0aG9uJywgJy1waCcsICc3LjAnLCAnLXRuJywgJzgnLCAnLW1hJywgJzIwMCcsICctbWV0YWxfYmluZGluZycsICctaW1hZScsICc8aW5maWxlLm1hZT4nLCAnLW9tYWUnLCAnPG91dGZpbGUubWFlPic=

> <r_lp_tautomer_probability>
1

> <r_epik_Ionization_Penalty>
0.000150201

> <r_epik_Ionization_Penalty_Charging>
0

> <r_epik_Ionization_Penalty_Neutral>
0.000150201

> <r_epik_State_Penalty>
-0

> <r_epik_Charging_Adjusted_Penalty>
0

> <i_epik_Tot_Q>
0

> <i_epik_Tot_abs_Q>
0

> <r_epik_Metal_State_Penalty>
0.0705602

> <b_epik_Metal_Only>
0

> <s_lp_Force_Field>
OPLS_2005

> <r_lp_Energy>
30.7

> <b_lp_Chiralities_Consistent>
1

> <s_lp_Variant>
AV-unprocessed.smi:2456-2

> <Gold.Version>
5.8.1

> <Gold.Id.Protein>
6NUR|6NUR_protein|mol2

> <Gold.PLP.Fitness>
41.2248

> <Gold.PLP.PLP>
-37.2673

> <Gold.PLP.part.hbond>
-2.0000

> <Gold.PLP.part.metal>
0.0000

> <Gold.PLP.part.buried>
-5.0722

> <Gold.PLP.part.nonpolar>
-30.1989

> <Gold.PLP.part.repulsive>
0.2311

> <Gold.PLP.ligand.clash>
0.0000

> <Gold.PLP.ligand.torsion>
1.0920

> <Gold.PLP.Chemscore.Hbond>
2.0000

> <Gold.PLP.Chemscore.CHOScore>
0.0000

> <Gold.PLP.Chemscore.Metal>
0.0000

> <Gold.Chemscore.Hbonds>
donor molecule, donor type, donor heavy atom, donor atom, acceptor molecule, acceptor atom, score
      L1  H     3    23       P1  8028  1.00
      L1  H     6    24       P1  8028  1.00

> <Gold.PLP.Chemscore.Internal.Correction>
0.1413

> <Gold.Rescore>
     Score         DG    S(hbond)    S(metal)    S(lipo)     H(rot)  DE(clash)    DE(int)     intcor
     11.14     -17.86       1.98        0.00      78.74       1.34       0.00       6.71       ----

> <Gold.Chemscore.Fitness>
11.1443

> <Gold.Chemscore.DG>
-17.8580

> <Gold.Chemscore.ZeroCoef>
-5.4800

> <Gold.Chemscore.Hbond>
1.9784

> <Gold.Chemscore.Metal>
0.0000

> <Gold.Chemscore.Lipo>
78.7421

> <Gold.Chemscore.Internal_Hbond>
0.0000

> <Gold.Chemscore.DEClash>
0.0048

> <Gold.Chemscore.DEInternal>
6.7089

> <Gold.Chemscore.Rot>
1.3448

> <Gold.Chemscore.Internal.Correction>
   9.000000E+99

> <Gold.Chemscore.Hbonds>
donor molecule, donor type, donor heavy atom, donor atom, acceptor molecule, acceptor atom, score
      L1  H     3    23       P1  8028  1.00
      L1  H     6    24       P1  8028  0.96

> <Gold.Chemscore.Hbond.Weighted>
-6.6079

> <Gold.Chemscore.Metal.Weighted>
-0.0000

> <Gold.Chemscore.Lipo.Weighted>
-9.2128

> <Gold.Chemscore.Internal_Hbond.Weighted>
0.0000

> <Gold.Chemscore.DEClash.Weighted>
0.0048

> <Gold.Chemscore.DEInternal.Weighted>
6.7089

> <Gold.Chemscore.Rot.Weighted>
3.4427

> <Gold.Chemscore.Internal.Correction.Weighted>
   9.000000E+99

> <Gold.Protein.RotatedTorsions>
[ 6907 6896 6895 6894 ] final  175.68 input  -60.11 | X-H torsion
[ 7974 7965 7964 7962 ] final  154.23 input  175.53 | X-H torsion
[ 8008 7997 7996 7995 ] final  -23.27 input   59.86 | X-H torsion
[ 10167 10162 10161 10158 ] final -129.41 input  -65.29 | X-H torsion
[ 10718 10713 10712 10709 ] final   78.59 input   66.30 | X-H torsion
[ 10763 10752 10751 10750 ] final  131.04 input  -60.55 | X-H torsion
[ 11005 11000 10999 10996 ] final   71.36 input  -57.11 | X-H torsion

> <Gold.Protein.ActiveResidues>
 VAL166  LYS551  ARG553  GLY616  TRP617  ASP618  TYR619  PRO620  LYS621  CYS622 
 ASP623  PHE694  ASN695  SER759  ASP760  ASP761  ALA762  ILE779  LEU786  VAL792 
 PHE793  MET794  SER795  GLU796  ALA797  LYS798  CYS799  TRP800  GLU811  SER814 

> <Gold.Protein.RotatedAtoms>
  151.7323  133.3318  159.3343 H   0  0  0  0  0  0  0  0  0  0  0  0  # atno 6907 bound_to 6896
  150.7607  134.6352  159.6217 H   0  0  0  0  0  0  0  0  0  0  0  0  # atno 6908 bound_to 6896
  152.3583  134.6910  160.0266 H   0  0  0  0  0  0  0  0  0  0  0  0  # atno 6909 bound_to 6896
  144.8102  139.6906  143.6145 H   0  0  0  0  0  0  0  0  0  0  0  0  # atno 7974 bound_to 7965
  154.4595  140.1985  156.0284 H   0  0  0  0  0  0  0  0  0  0  0  0  # atno 8008 bound_to 7997
  156.0812  140.3271  155.7668 H   0  0  0  0  0  0  0  0  0  0  0  0  # atno 8009 bound_to 7997
  155.5108  140.0561  157.2914 H   0  0  0  0  0  0  0  0  0  0  0  0  # atno 8010 bound_to 7997
  139.9400  143.6173  152.2506 H   0  0  0  0  0  0  0  0  0  0  0  0  # atno 10167 bound_to 10162
  157.6750  130.9875  150.1809 H   0  0  0  0  0  0  0  0  0  0  0  0  # atno 10718 bound_to 10713
  153.7678  135.3186  155.3347 H   0  0  0  0  0  0  0  0  0  0  0  0  # atno 10763 bound_to 10752
  154.8207  135.4605  154.0774 H   0  0  0  0  0  0  0  0  0  0  0  0  # atno 10764 bound_to 10752
  153.2024  135.6924  153.8299 H   0  0  0  0  0  0  0  0  0  0  0  0  # atno 10765 bound_to 10752
  139.9547  134.7164  156.0779 H   0  0  0  0  0  0  0  0  0  0  0  0  # atno 11005 bound_to 11000
  146.2400  139.5981  142.9498 LP  0  0  0  0  0  0  0  0  0  0  0  0  # atno 17320 bound_to 7965
  145.5342  141.0425  143.2366 LP  0  0  0  0  0  0  0  0  0  0  0  0  # atno 17321 bound_to 7965
  139.6712  144.7661  151.1780 LP  0  0  0  0  0  0  0  0  0  0  0  0  # atno 17342 bound_to 10162
  140.7613  143.5862  150.8843 LP  0  0  0  0  0  0  0  0  0  0  0  0  # atno 17343 bound_to 10162
  156.2542  130.3704  149.8200 LP  0  0  0  0  0  0  0  0  0  0  0  0  # atno 17370 bound_to 10713
  156.5964  130.8528  151.3421 LP  0  0  0  0  0  0  0  0  0  0  0  0  # atno 17371 bound_to 10713
  141.1217  133.6611  156.3232 LP  0  0  0  0  0  0  0  0  0  0  0  0  # atno 17394 bound_to 11000
  140.5636  134.5910  157.5440 LP  0  0  0  0  0  0  0  0  0  0  0  0  # atno 17395 bound_to 11000

$$$$
