AV-unprocessed.smi:14|AV-procd|sdf|78|dock8
  -GOLD-   2262015203D 1   1.00000     0.00000
 Structure written by MMmdl.
 57 60  0  0  0  0  0  0  0  0  1 V2000
  146.0534  142.4806  154.6902 N   0  0  0  0  0  0  0  0  0  0  0  0
  146.9347  142.0791  155.3234 C   0  0  0  0  0  0  0  0  0  0  0  0
  148.0542  141.5693  156.1286 C   0  0  0  0  0  0  0  0  0  0  0  0
  149.3957  141.6620  155.3852 C   0  0  0  0  0  0  0  0  0  0  0  0
  150.5047  141.0655  156.1335 N   0  0  0  0  0  0  0  0  0  0  0  0
  150.6131  141.4178  157.5510 C   0  0  0  0  0  0  0  0  0  0  0  0
  151.5229  142.6332  157.8283 C   0  0  1  0  0  0  0  0  0  0  0  0
  150.8913  143.7411  158.6522 C   0  0  0  0  0  0  0  0  0  0  0  0
  152.1103  144.4849  159.1893 C   0  0  0  0  0  0  0  0  0  0  0  0
  153.1527  143.5185  159.2798 O   0  0  0  0  0  0  0  0  0  0  0  0
  152.7248  142.2879  158.7068 C   0  0  0  0  0  0  0  0  0  0  0  0
  150.9212  139.8148  155.7953 C   0  0  0  0  0  0  0  0  0  0  0  0
  152.2493  139.5740  155.6235 N   0  0  0  0  0  0  0  0  0  0  0  0
  152.6781  138.3642  155.2555 C   0  0  0  0  0  0  0  0  0  0  0  0
  151.9628  137.2663  155.0104 N   0  0  0  0  0  0  0  0  0  0  0  0
  150.6311  137.4910  155.1943 C   0  0  0  0  0  0  0  0  0  0  0  0
  150.0299  138.7236  155.5802 C   0  0  0  0  0  0  0  0  0  0  0  0
  148.6516  138.5656  155.6644 N   0  0  0  0  0  0  0  0  0  0  0  0
  148.4492  137.3214  155.3294 C   0  0  0  0  0  0  0  0  0  0  0  0
  149.5848  136.5954  155.0486 N   0  0  0  0  0  0  0  0  0  0  0  0
  149.6446  135.1963  154.6461 C   0  0  0  0  0  0  0  0  0  0  0  0
  149.1118  134.1731  155.6994 C   0  0  0  0  0  0  0  0  0  0  0  0
  149.6527  134.5693  157.1023 C   0  0  0  0  0  0  0  0  0  0  0  0
  149.3807  133.6094  158.1043 O   0  0  0  0  0  0  0  0  0  0  0  0
  147.5610  134.2119  155.6957 C   0  0  0  0  0  0  0  0  0  0  0  0
  146.9533  133.5778  154.4307 C   0  0  0  0  0  0  0  0  0  0  0  0
  147.4229  132.2437  154.2826 O   0  0  0  0  0  0  0  0  0  0  0  0
  148.8328  132.1702  154.1120 C   0  0  0  0  0  0  0  0  0  0  0  0
  149.5429  132.7220  155.3623 C   0  0  0  0  0  0  0  0  0  0  0  0
  148.0696  142.1350  157.0593 H   0  0  0  0  0  0  0  0  0  0  0  0
  147.8341  140.5325  156.3843 H   0  0  0  0  0  0  0  0  0  0  0  0
  149.3016  141.1517  154.4261 H   0  0  0  0  0  0  0  0  0  0  0  0
  149.6249  142.7024  155.1508 H   0  0  0  0  0  0  0  0  0  0  0  0
  149.6336  141.5763  157.9982 H   0  0  0  0  0  0  0  0  0  0  0  0
  151.0220  140.5498  158.0692 H   0  0  0  0  0  0  0  0  0  0  0  0
  151.8934  143.0501  156.8906 H   0  0  0  0  0  0  0  0  0  0  0  0
  150.2335  144.3900  158.0746 H   0  0  0  0  0  0  0  0  0  0  0  0
  150.3150  143.3201  159.4778 H   0  0  0  0  0  0  0  0  0  0  0  0
  152.4201  145.2628  158.4904 H   0  0  0  0  0  0  0  0  0  0  0  0
  151.9167  144.9538  160.1545 H   0  0  0  0  0  0  0  0  0  0  0  0
  152.4316  141.6164  159.5154 H   0  0  0  0  0  0  0  0  0  0  0  0
  153.5290  141.8099  158.1470 H   0  0  0  0  0  0  0  0  0  0  0  0
  153.7467  138.2621  155.1367 H   0  0  0  0  0  0  0  0  0  0  0  0
  147.4585  136.8927  155.2859 H   0  0  0  0  0  0  0  0  0  0  0  0
  149.0700  135.1006  153.7236 H   0  0  0  0  0  0  0  0  0  0  0  0
  150.6743  134.9813  154.3646 H   0  0  0  0  0  0  0  0  0  0  0  0
  150.7338  134.7046  157.0781 H   0  0  0  0  0  0  0  0  0  0  0  0
  149.2206  135.5186  157.4209 H   0  0  0  0  0  0  0  0  0  0  0  0
  148.8563  132.9201  157.7259 H   0  0  0  0  0  0  0  0  0  0  0  0
  147.1655  133.6648  156.5518 H   0  0  0  0  0  0  0  0  0  0  0  0
  147.2043  135.2365  155.8070 H   0  0  0  0  0  0  0  0  0  0  0  0
  145.8669  133.5542  154.5163 H   0  0  0  0  0  0  0  0  0  0  0  0
  147.1791  134.1596  153.5369 H   0  0  0  0  0  0  0  0  0  0  0  0
  149.1095  131.1268  153.9604 H   0  0  0  0  0  0  0  0  0  0  0  0
  149.1283  132.7032  153.2086 H   0  0  0  0  0  0  0  0  0  0  0  0
  150.6239  132.6512  155.2462 H   0  0  0  0  0  0  0  0  0  0  0  0
  149.2953  132.0606  156.1928 H   0  0  0  0  0  0  0  0  0  0  0  0
  1  2  3  0  0  0  0
  2  3  1  0  0  0  0
  3  4  1  0  0  0  0
  3 30  1  0  0  0  0
  3 31  1  0  0  0  0
  4  5  1  0  0  0  0
  4 32  1  0  0  0  0
  4 33  1  0  0  0  0
  5  6  1  0  0  0  0
  5 12  1  0  0  0  0
  6  7  1  0  0  0  0
  6 34  1  0  0  0  0
  6 35  1  0  0  0  0
  7 11  1  0  0  0  0
  7  8  1  0  0  0  0
  7 36  1  0  0  0  0
  8  9  1  0  0  0  0
  8 37  1  0  0  0  0
  8 38  1  0  0  0  0
  9 10  1  0  0  0  0
  9 39  1  0  0  0  0
  9 40  1  0  0  0  0
 10 11  1  0  0  0  0
 11 41  1  0  0  0  0
 11 42  1  0  0  0  0
 12 17  1  0  0  0  0
 12 13  2  0  0  0  0
 13 14  1  0  0  0  0
 14 15  2  0  0  0  0
 14 43  1  0  0  0  0
 15 16  1  0  0  0  0
 16 20  1  0  0  0  0
 16 17  2  0  0  0  0
 17 18  1  0  0  0  0
 18 19  2  0  0  0  0
 19 20  1  0  0  0  0
 19 44  1  0  0  0  0
 20 21  1  0  0  0  0
 21 22  1  0  0  0  0
 21 45  1  0  0  0  0
 21 46  1  0  0  0  0
 22 29  1  0  0  0  0
 22 23  1  0  0  0  0
 22 25  1  0  0  0  0
 23 24  1  0  0  0  0
 23 47  1  0  0  0  0
 23 48  1  0  0  0  0
 24 49  1  0  0  0  0
 25 26  1  0  0  0  0
 25 50  1  0  0  0  0
 25 51  1  0  0  0  0
 26 27  1  0  0  0  0
 26 52  1  0  0  0  0
 26 53  1  0  0  0  0
 27 28  1  0  0  0  0
 28 29  1  0  0  0  0
 28 54  1  0  0  0  0
 28 55  1  0  0  0  0
 29 56  1  0  0  0  0
 29 57  1  0  0  0  0
M  END
> <s_m_source_file>
AV-unprocessed.smi

> <i_m_source_file_index>
14

> <i_lp_mmshare_version>
43012

> <i_f3d_flags>
0

> <s_epik_input>
W0NIMl0xT1tDSDJdW0NIMl1bQ0BIXTFbQ0gyXU4oW0NIMl1bQ0gyXUMjTiljKG5bY0hdbjIpYyhjMjMpbltjSF1uM1tDSDJdQzQoW0NIMl1bT0hdKVtDSDJdW0NIMl1PW0NIMl1bQ0gyXTQ=

> <s_epik_cmdline>
J2VwaWtfcHl0aG9uJywgJy1waCcsICc3LjAnLCAnLXRuJywgJzgnLCAnLW1hJywgJzIwMCcsICctbWV0YWxfYmluZGluZycsICctaW1hZScsICc8aW5maWxlLm1hZT4nLCAnLW9tYWUnLCAnPG91dGZpbGUubWFlPic=

> <r_lp_tautomer_probability>
1

> <r_epik_Ionization_Penalty>
0.000542547

> <r_epik_Ionization_Penalty_Charging>
0

> <r_epik_Ionization_Penalty_Neutral>
0.000542547

> <r_epik_State_Penalty>
0.000265709

> <r_epik_Charging_Adjusted_Penalty>
0.000265709

> <i_epik_Tot_Q>
0

> <i_epik_Tot_abs_Q>
0

> <r_epik_Metal_State_Penalty>
-0

> <b_epik_Metal_Only>
0

> <s_lp_Force_Field>
OPLS_2005

> <r_lp_Energy>
43.0361

> <b_lp_Chiralities_Consistent>
1

> <s_lp_Variant>
AV-unprocessed.smi:14-2

> <Gold.Version>
5.8.1

> <Gold.Id.Protein>
6NUR|6NUR_protein|mol2

> <Gold.PLP.Fitness>
49.6470

> <Gold.PLP.PLP>
-46.8614

> <Gold.PLP.part.hbond>
-3.0000

> <Gold.PLP.part.metal>
0.0000

> <Gold.PLP.part.buried>
-5.9058

> <Gold.PLP.part.nonpolar>
-40.0792

> <Gold.PLP.part.repulsive>
0.3721

> <Gold.PLP.ligand.clash>
0.0000

> <Gold.PLP.ligand.torsion>
2.5267

> <Gold.PLP.Chemscore.Hbond>
2.2520

> <Gold.PLP.Chemscore.CHOScore>
0.0000

> <Gold.PLP.Chemscore.Metal>
0.0000

> <Gold.Chemscore.Hbonds>
donor molecule, donor type, donor heavy atom, donor atom, acceptor molecule, acceptor atom, score
      P1  H  6896  6907       L1    24  1.00
      P1  H  7997  8009       L1    13  0.20
      P1  H 10752 10765       L1    15  0.86

> <Gold.PLP.Chemscore.Internal.Correction>
1.0831

> <Gold.Rescore>
     Score         DG    S(hbond)    S(metal)    S(lipo)     H(rot)  DE(clash)    DE(int)     intcor
     11.16     -13.97       1.68        0.00      95.69       3.26       0.04       2.77       ----

> <Gold.Chemscore.Fitness>
11.1577

> <Gold.Chemscore.DG>
-13.9654

> <Gold.Chemscore.ZeroCoef>
-5.4800

> <Gold.Chemscore.Hbond>
1.6836

> <Gold.Chemscore.Metal>
0.0000

> <Gold.Chemscore.Lipo>
95.6914

> <Gold.Chemscore.Internal_Hbond>
0.0000

> <Gold.Chemscore.DEClash>
0.0413

> <Gold.Chemscore.DEInternal>
2.7664

> <Gold.Chemscore.Rot>
3.2553

> <Gold.Chemscore.Internal.Correction>
   9.000000E+99

> <Gold.Chemscore.Hbonds>
donor molecule, donor type, donor heavy atom, donor atom, acceptor molecule, acceptor atom, score
      P1  H  6896  6907       L1    24  0.40
      P1  H  7997  8009       L1    13  0.01
      P1  H 10752 10765       L1    15  0.76

> <Gold.Chemscore.Hbond.Weighted>
-5.6231

> <Gold.Chemscore.Metal.Weighted>
-0.0000

> <Gold.Chemscore.Lipo.Weighted>
-11.1959

> <Gold.Chemscore.Internal_Hbond.Weighted>
0.0000

> <Gold.Chemscore.DEClash.Weighted>
0.0413

> <Gold.Chemscore.DEInternal.Weighted>
2.7664

> <Gold.Chemscore.Rot.Weighted>
8.3336

> <Gold.Chemscore.Internal.Correction.Weighted>
   9.000000E+99

> <Gold.Protein.RotatedTorsions>
[ 6907 6896 6895 6894 ] final -114.77 input  -60.11 | X-H torsion
[ 7974 7965 7964 7962 ] final   59.53 input  175.53 | X-H torsion
[ 8008 7997 7996 7995 ] final -166.40 input   59.86 | X-H torsion
[ 10167 10162 10161 10158 ] final   65.49 input  -65.29 | X-H torsion
[ 10718 10713 10712 10709 ] final  -51.43 input   66.30 | X-H torsion
[ 10763 10752 10751 10750 ] final -170.05 input  -60.55 | X-H torsion
[ 11005 11000 10999 10996 ] final  -98.14 input  -57.11 | X-H torsion

> <Gold.Protein.ActiveResidues>
 VAL166  LYS551  ARG553  GLY616  TRP617  ASP618  TYR619  PRO620  LYS621  CYS622 
 ASP623  PHE694  ASN695  SER759  ASP760  ASP761  ALA762  ILE779  LEU786  VAL792 
 PHE793  MET794  SER795  GLU796  ALA797  LYS798  CYS799  TRP800  GLU811  SER814 

> <Gold.Protein.RotatedAtoms>
  150.7927  133.8754  159.3270 H   0  0  0  0  0  0  0  0  0  0  0  0  # atno 6907 bound_to 6896
  151.6588  135.0990  160.0185 H   0  0  0  0  0  0  0  0  0  0  0  0  # atno 6908 bound_to 6896
  152.4003  133.6769  159.6346 H   0  0  0  0  0  0  0  0  0  0  0  0  # atno 6909 bound_to 6896
  145.9061  139.3618  143.0563 H   0  0  0  0  0  0  0  0  0  0  0  0  # atno 7974 bound_to 7965
  155.8634  140.0981  157.1598 H   0  0  0  0  0  0  0  0  0  0  0  0  # atno 8008 bound_to 7997
  154.3992  140.1361  156.4051 H   0  0  0  0  0  0  0  0  0  0  0  0  # atno 8009 bound_to 7997
  155.7832  140.3458  155.5311 H   0  0  0  0  0  0  0  0  0  0  0  0  # atno 8010 bound_to 7997
  140.1107  144.4820  150.6980 H   0  0  0  0  0  0  0  0  0  0  0  0  # atno 10167 bound_to 10162
  156.1711  130.4149  149.9646 H   0  0  0  0  0  0  0  0  0  0  0  0  # atno 10718 bound_to 10713
  154.6457  135.2904  155.0049 H   0  0  0  0  0  0  0  0  0  0  0  0  # atno 10763 bound_to 10752
  154.1160  135.6555  153.4898 H   0  0  0  0  0  0  0  0  0  0  0  0  # atno 10764 bound_to 10752
  153.0349  135.5276  154.7343 H   0  0  0  0  0  0  0  0  0  0  0  0  # atno 10765 bound_to 10752
  141.1355  133.8223  157.0799 H   0  0  0  0  0  0  0  0  0  0  0  0  # atno 11005 bound_to 11000
  145.8730  140.9408  143.0640 LP  0  0  0  0  0  0  0  0  0  0  0  0  # atno 17320 bound_to 7965
  144.6739  140.0680  143.7474 LP  0  0  0  0  0  0  0  0  0  0  0  0  # atno 17321 bound_to 7965
  140.6927  143.2385  151.5086 LP  0  0  0  0  0  0  0  0  0  0  0  0  # atno 17342 bound_to 10162
  139.5621  144.2132  152.1707 LP  0  0  0  0  0  0  0  0  0  0  0  0  # atno 17343 bound_to 10162
  156.7446  130.9092  151.3634 LP  0  0  0  0  0  0  0  0  0  0  0  0  # atno 17370 bound_to 10713
  157.6803  130.9133  150.0251 LP  0  0  0  0  0  0  0  0  0  0  0  0  # atno 17371 bound_to 10713
  140.0458  134.9831  157.1046 LP  0  0  0  0  0  0  0  0  0  0  0  0  # atno 17394 bound_to 11000
  140.4065  134.2027  155.7163 LP  0  0  0  0  0  0  0  0  0  0  0  0  # atno 17395 bound_to 11000

$$$$
