AV-unprocessed.smi:2601|AV-procd|sdf|10183|dock8
  -GOLD-   2272014193D 1   1.00000     0.00000
 Structure written by MMmdl.
 47 48  0  0  0  0  0  0  0  0  1 V2000
  152.8144  138.7491  154.6976 C   0  0  0  0  0  0  0  0  0  0  0  0
  151.3693  138.8642  154.6451 N   0  0  0  0  0  0  0  0  0  0  0  0
  150.8166  140.0661  154.3735 N   0  0  0  0  0  0  0  0  0  0  0  0
  149.5138  139.8471  154.3920 C   0  0  0  0  0  0  0  0  0  0  0  0
  149.1927  138.4923  154.6796 C   0  0  0  0  0  0  0  0  0  0  0  0
  150.4082  137.8863  154.8384 C   0  0  0  0  0  0  0  0  0  0  0  0
  150.7382  136.4566  155.1530 C   0  0  0  0  0  0  0  0  0  0  0  0
  149.5177  135.5874  155.5148 C   0  0  0  0  0  0  0  0  0  0  0  0
  149.1614  134.6402  154.4624 N   0  0  0  0  0  0  0  0  0  0  0  0
  148.9921  133.3176  154.6260 C   0  0  0  0  0  0  0  0  0  0  0  0
  149.1364  132.7675  155.7183 O   0  0  0  0  0  0  0  0  0  0  0  0
  148.6260  132.6527  153.5027 N   0  0  0  0  0  0  0  0  0  0  0  0
  148.0213  133.2142  152.2900 C   0  0  0  0  0  0  0  0  0  0  0  0
  146.5713  132.6967  152.1512 C   0  0  0  0  0  0  0  0  0  0  0  0
  145.6118  133.3702  153.1528 C   0  0  0  0  0  0  0  0  0  0  0  0
  146.0600  132.9773  150.7286 C   0  0  0  0  0  0  0  0  0  0  0  0
  146.5312  131.2642  152.2739 O   0  0  0  0  0  0  0  0  0  0  0  0
  147.3126  130.5907  153.2766 C   0  0  0  0  0  0  0  0  0  0  0  0
  146.5906  130.5903  154.6401 C   0  0  0  0  0  0  0  0  0  0  0  0
  147.4079  129.1386  152.7810 C   0  0  0  0  0  0  0  0  0  0  0  0
  148.7306  131.2013  153.3620 C   0  0  0  0  0  0  0  0  0  0  0  0
  153.1558  138.0747  153.9120 H   0  0  0  0  0  0  0  0  0  0  0  0
  153.1184  138.3507  155.6656 H   0  0  0  0  0  0  0  0  0  0  0  0
  153.2849  139.7232  154.5565 H   0  0  0  0  0  0  0  0  0  0  0  0
  148.8435  140.6717  154.1998 H   0  0  0  0  0  0  0  0  0  0  0  0
  148.2178  138.0345  154.7586 H   0  0  0  0  0  0  0  0  0  0  0  0
  151.2457  136.0144  154.2956 H   0  0  0  0  0  0  0  0  0  0  0  0
  151.4583  136.4058  155.9690 H   0  0  0  0  0  0  0  0  0  0  0  0
  149.7406  135.0056  156.4094 H   0  0  0  0  0  0  0  0  0  0  0  0
  148.6608  136.2159  155.7610 H   0  0  0  0  0  0  0  0  0  0  0  0
  149.0163  135.0212  153.5388 H   0  0  0  0  0  0  0  0  0  0  0  0
  148.0369  134.3037  152.2524 H   0  0  0  0  0  0  0  0  0  0  0  0
  148.6152  132.8966  151.4314 H   0  0  0  0  0  0  0  0  0  0  0  0
  145.4797  134.4255  152.9134 H   0  0  0  0  0  0  0  0  0  0  0  0
  145.9758  133.3381  154.1750 H   0  0  0  0  0  0  0  0  0  0  0  0
  144.6269  132.9031  153.1328 H   0  0  0  0  0  0  0  0  0  0  0  0
  146.0662  134.0450  150.5066 H   0  0  0  0  0  0  0  0  0  0  0  0
  145.0389  132.6171  150.5979 H   0  0  0  0  0  0  0  0  0  0  0  0
  146.6790  132.4809  149.9806 H   0  0  0  0  0  0  0  0  0  0  0  0
  147.0742  129.9018  155.3337 H   0  0  0  0  0  0  0  0  0  0  0  0
  145.5519  130.2761  154.5363 H   0  0  0  0  0  0  0  0  0  0  0  0
  146.5982  131.5608  155.1264 H   0  0  0  0  0  0  0  0  0  0  0  0
  147.9983  128.5235  153.4611 H   0  0  0  0  0  0  0  0  0  0  0  0
  147.8756  129.0859  151.7973 H   0  0  0  0  0  0  0  0  0  0  0  0
  146.4200  128.6844  152.6975 H   0  0  0  0  0  0  0  0  0  0  0  0
  149.2965  130.9765  152.4564 H   0  0  0  0  0  0  0  0  0  0  0  0
  149.2914  130.7374  154.1750 H   0  0  0  0  0  0  0  0  0  0  0  0
  1  2  1  0  0  0  0
  1 22  1  0  0  0  0
  1 23  1  0  0  0  0
  1 24  1  0  0  0  0
  2  6  1  0  0  0  0
  2  3  1  0  0  0  0
  3  4  2  0  0  0  0
  4  5  1  0  0  0  0
  4 25  1  0  0  0  0
  5  6  2  0  0  0  0
  5 26  1  0  0  0  0
  6  7  1  0  0  0  0
  7  8  1  0  0  0  0
  7 27  1  0  0  0  0
  7 28  1  0  0  0  0
  8  9  1  0  0  0  0
  8 29  1  0  0  0  0
  8 30  1  0  0  0  0
  9 10  1  0  0  0  0
  9 31  1  0  0  0  0
 10 11  2  0  0  0  0
 10 12  1  0  0  0  0
 12 21  1  0  0  0  0
 12 13  1  0  0  0  0
 13 14  1  0  0  0  0
 13 32  1  0  0  0  0
 13 33  1  0  0  0  0
 14 15  1  0  0  0  0
 14 16  1  0  0  0  0
 14 17  1  0  0  0  0
 15 34  1  0  0  0  0
 15 35  1  0  0  0  0
 15 36  1  0  0  0  0
 16 37  1  0  0  0  0
 16 38  1  0  0  0  0
 16 39  1  0  0  0  0
 17 18  1  0  0  0  0
 18 19  1  0  0  0  0
 18 20  1  0  0  0  0
 18 21  1  0  0  0  0
 19 40  1  0  0  0  0
 19 41  1  0  0  0  0
 19 42  1  0  0  0  0
 20 43  1  0  0  0  0
 20 44  1  0  0  0  0
 20 45  1  0  0  0  0
 21 46  1  0  0  0  0
 21 47  1  0  0  0  0
M  END
> <s_m_source_file>
AV-unprocessed.smi

> <i_m_source_file_index>
2601

> <i_lp_mmshare_version>
43012

> <i_f3d_flags>
0

> <s_epik_input>
W0NIM11uMW5bY0hdW2NIXWMxW0NIMl1bQ0gyXVtOSF1DKD1PKU4oW0NIMl1DMihbQ0gzXSlbQ0gzXSlbQ0gyXUMoTzIpKFtDSDNdKVtDSDNd

> <s_epik_cmdline>
J2VwaWtfcHl0aG9uJywgJy1waCcsICc3LjAnLCAnLXRuJywgJzgnLCAnLW1hJywgJzIwMCcsICctbWV0YWxfYmluZGluZycsICctaW1hZScsICc8aW5maWxlLm1hZT4nLCAnLW9tYWUnLCAnPG91dGZpbGUubWFlPic=

> <r_lp_tautomer_probability>
1

> <r_epik_Ionization_Penalty>
0.00250606

> <r_epik_Ionization_Penalty_Charging>
0

> <r_epik_Ionization_Penalty_Neutral>
0.00250606

> <r_epik_State_Penalty>
0.0017149

> <r_epik_Charging_Adjusted_Penalty>
0.0017149

> <i_epik_Tot_Q>
0

> <i_epik_Tot_abs_Q>
0

> <r_epik_Metal_State_Penalty>
-0

> <b_epik_Metal_Only>
0

> <s_lp_Force_Field>
OPLS_2005

> <r_lp_Energy>
30.5553

> <b_lp_Chiralities_Consistent>
1

> <s_lp_Variant>
AV-unprocessed.smi:2601-1

> <Gold.Version>
5.8.1

> <Gold.Id.Protein>
6NUR|6NUR_protein|mol2

> <Gold.PLP.Fitness>
40.8990

> <Gold.PLP.PLP>
-36.1657

> <Gold.PLP.part.hbond>
-1.9228

> <Gold.PLP.part.metal>
0.0000

> <Gold.PLP.part.buried>
-3.8168

> <Gold.PLP.part.nonpolar>
-30.8225

> <Gold.PLP.part.repulsive>
0.2582

> <Gold.PLP.ligand.clash>
0.0000

> <Gold.PLP.ligand.torsion>
0.5852

> <Gold.PLP.Chemscore.Hbond>
1.9663

> <Gold.PLP.Chemscore.CHOScore>
0.0000

> <Gold.PLP.Chemscore.Metal>
0.0000

> <Gold.Chemscore.Hbonds>
donor molecule, donor type, donor heavy atom, donor atom, acceptor molecule, acceptor atom, score
      L1  H     9    31       P1  7948  0.99
      P1  H  7989  7998       L1     3  0.78

> <Gold.PLP.Chemscore.Internal.Correction>
0.0049

> <Gold.Rescore>
     Score         DG    S(hbond)    S(metal)    S(lipo)     H(rot)  DE(clash)    DE(int)     intcor
     15.32     -15.94       1.33        0.00      80.63       1.33       0.06       0.56       ----

> <Gold.Chemscore.Fitness>
15.3222

> <Gold.Chemscore.DG>
-15.9410

> <Gold.Chemscore.ZeroCoef>
-5.4800

> <Gold.Chemscore.Hbond>
1.3270

> <Gold.Chemscore.Metal>
0.0000

> <Gold.Chemscore.Lipo>
80.6337

> <Gold.Chemscore.Internal_Hbond>
0.0000

> <Gold.Chemscore.DEClash>
0.0575

> <Gold.Chemscore.DEInternal>
0.5613

> <Gold.Chemscore.Rot>
1.3303

> <Gold.Chemscore.Internal.Correction>
   9.000000E+99

> <Gold.Chemscore.Hbonds>
donor molecule, donor type, donor heavy atom, donor atom, acceptor molecule, acceptor atom, score
      L1  H     9    31       P1  7948  0.32
      P1  H  7989  7998       L1     3  0.65

> <Gold.Chemscore.Hbond.Weighted>
-4.4323

> <Gold.Chemscore.Metal.Weighted>
-0.0000

> <Gold.Chemscore.Lipo.Weighted>
-9.4341

> <Gold.Chemscore.Internal_Hbond.Weighted>
0.0000

> <Gold.Chemscore.DEClash.Weighted>
0.0575

> <Gold.Chemscore.DEInternal.Weighted>
0.5613

> <Gold.Chemscore.Rot.Weighted>
3.4055

> <Gold.Chemscore.Internal.Correction.Weighted>
   9.000000E+99

> <Gold.Protein.RotatedTorsions>
[ 6907 6896 6895 6894 ] final -137.09 input  -60.11 | X-H torsion
[ 7974 7965 7964 7962 ] final -152.60 input  175.53 | X-H torsion
[ 8008 7997 7996 7995 ] final -179.33 input   59.86 | X-H torsion
[ 10167 10162 10161 10158 ] final    5.66 input  -65.29 | X-H torsion
[ 10718 10713 10712 10709 ] final  -28.12 input   66.30 | X-H torsion
[ 10763 10752 10751 10750 ] final   84.63 input  -60.55 | X-H torsion
[ 11005 11000 10999 10996 ] final   85.91 input  -57.11 | X-H torsion

> <Gold.Protein.ActiveResidues>
 VAL166  LYS551  ARG553  GLY616  TRP617  ASP618  TYR619  PRO620  LYS621  CYS622 
 ASP623  PHE694  ASN695  SER759  ASP760  ASP761  ALA762  ILE779  LEU786  VAL792 
 PHE793  MET794  SER795  GLU796  ALA797  LYS798  CYS799  TRP800  GLU811  SER814 

> <Gold.Protein.RotatedAtoms>
  151.0182  133.5902  159.2674 H   0  0  0  0  0  0  0  0  0  0  0  0  # atno 6907 bound_to 6896
  151.3028  135.0772  159.9254 H   0  0  0  0  0  0  0  0  0  0  0  0  # atno 6908 bound_to 6896
  152.5316  133.9860  159.7883 H   0  0  0  0  0  0  0  0  0  0  0  0  # atno 6909 bound_to 6896
  144.7785  140.4640  143.5856 H   0  0  0  0  0  0  0  0  0  0  0  0  # atno 7974 bound_to 7965
  156.0292  140.1278  157.0276 H   0  0  0  0  0  0  0  0  0  0  0  0  # atno 8008 bound_to 7997
  154.4343  140.1053  156.6145 H   0  0  0  0  0  0  0  0  0  0  0  0  # atno 8009 bound_to 7997
  155.5832  140.3468  155.4548 H   0  0  0  0  0  0  0  0  0  0  0  0  # atno 8010 bound_to 7997
  140.6470  143.7638  150.7514 H   0  0  0  0  0  0  0  0  0  0  0  0  # atno 10167 bound_to 10162
  156.4294  130.4442  149.7128 H   0  0  0  0  0  0  0  0  0  0  0  0  # atno 10718 bound_to 10713
  153.1400  135.4647  154.9480 H   0  0  0  0  0  0  0  0  0  0  0  0  # atno 10763 bound_to 10752
  154.7738  135.3167  154.8136 H   0  0  0  0  0  0  0  0  0  0  0  0  # atno 10764 bound_to 10752
  153.8661  135.6908  153.4832 H   0  0  0  0  0  0  0  0  0  0  0  0  # atno 10765 bound_to 10752
  139.8958  134.8319  156.2647 H   0  0  0  0  0  0  0  0  0  0  0  0  # atno 11005 bound_to 11000
  145.6116  139.1514  143.3073 LP  0  0  0  0  0  0  0  0  0  0  0  0  # atno 17320 bound_to 7965
  146.1980  140.6231  142.9115 LP  0  0  0  0  0  0  0  0  0  0  0  0  # atno 17321 bound_to 7965
  140.1281  143.4551  152.2272 LP  0  0  0  0  0  0  0  0  0  0  0  0  # atno 17342 bound_to 10162
  139.5681  144.7447  151.3965 LP  0  0  0  0  0  0  0  0  0  0  0  0  # atno 17343 bound_to 10162
  156.4037  130.7687  151.2697 LP  0  0  0  0  0  0  0  0  0  0  0  0  # atno 17370 bound_to 10713
  157.7508  131.0232  150.3825 LP  0  0  0  0  0  0  0  0  0  0  0  0  # atno 17371 bound_to 10713
  141.0139  133.7079  156.1157 LP  0  0  0  0  0  0  0  0  0  0  0  0  # atno 17394 bound_to 11000
  140.7328  134.4236  157.5564 LP  0  0  0  0  0  0  0  0  0  0  0  0  # atno 17395 bound_to 11000

$$$$
