AV-unprocessed.smi:99|AV-procd|sdf|887|dock10
  -GOLD-   2262017373D 1   1.00000     0.00000
 Structure written by MMmdl.
 52 55  0  0  0  0  0  0  0  0  2 V2000
  154.7838  141.5690  161.3237 O   0  0  0  0  0  0  0  0  0  0  0  0
  154.2954  141.8445  160.2257 C   0  0  0  0  0  0  0  0  0  0  0  0
  154.5259  141.1299  159.1076 O   0  0  0  0  0  0  0  0  0  0  0  0
  155.5433  140.1425  159.0948 C   0  0  0  0  0  0  0  0  0  0  0  0
  155.0027  138.8683  158.4392 C   0  0  2  0  0  0  0  0  0  0  0  0
  154.2306  139.1946  157.2963 O   0  0  0  0  0  0  0  0  0  0  0  0
  153.3847  138.1255  157.0106 C   0  0  2  0  0  0  0  0  0  0  0  0
  152.1121  138.6713  156.4004 N   0  0  0  0  0  0  0  0  0  0  0  0
  151.6385  138.1661  155.2015 C   0  0  0  0  0  0  0  0  0  0  0  0
  150.5095  138.6418  154.6370 C   0  0  0  0  0  0  0  0  0  0  0  0
  149.7728  139.7133  155.3015 C   0  0  0  0  0  0  0  0  0  0  0  0
  148.7378  140.1329  154.7867 O   0  0  0  0  0  0  0  0  0  0  0  0
  150.2712  140.2055  156.4729 N   0  5  0  0  0  0  0  0  0  0  0  0
  151.4181  139.7322  157.0425 C   0  0  0  0  0  0  0  0  0  0  0  0
  151.8881  140.1853  158.0867 O   0  0  0  0  0  0  0  0  0  0  0  0
  153.1539  137.3454  158.3251 C   0  0  2  0  0  0  0  0  0  0  0  0
  151.8083  137.3069  158.7657 O   0  0  0  0  0  0  0  0  0  0  0  0
  154.0167  138.1087  159.3268 C   0  0  1  0  0  0  0  0  0  0  0  0
  154.7384  137.2220  160.1737 O   0  0  0  0  0  0  0  0  0  0  0  0
  155.3334  137.6728  161.2984 C   0  0  0  0  0  0  0  0  0  0  0  0
  155.4186  138.8658  161.5961 O   0  0  0  0  0  0  0  0  0  0  0  0
  155.8760  136.5735  162.1475 C   0  0  0  0  0  0  0  0  0  0  0  0
  155.9013  136.7318  163.5529 C   0  0  0  0  0  0  0  0  0  0  0  0
  156.4096  135.7122  164.3809 C   0  0  0  0  0  0  0  0  0  0  0  0
  156.9001  134.5217  163.8134 C   0  0  0  0  0  0  0  0  0  0  0  0
  156.8810  134.3521  162.4168 C   0  0  0  0  0  0  0  0  0  0  0  0
  156.3719  135.3703  161.5871 C   0  0  0  0  0  0  0  0  0  0  0  0
  153.3890  143.0063  159.9960 C   0  0  0  0  0  0  0  0  0  0  0  0
  152.9118  143.7429  161.1054 C   0  0  0  0  0  0  0  0  0  0  0  0
  152.0556  144.8457  160.9198 C   0  0  0  0  0  0  0  0  0  0  0  0
  151.6651  145.2247  159.6222 C   0  0  0  0  0  0  0  0  0  0  0  0
  152.1316  144.4993  158.5106 C   0  0  0  0  0  0  0  0  0  0  0  0
  152.9887  143.3968  158.6941 C   0  0  0  0  0  0  0  0  0  0  0  0
  156.3917  140.5208  158.5226 H   0  0  0  0  0  0  0  0  0  0  0  0
  155.8947  139.9325  160.1062 H   0  0  0  0  0  0  0  0  0  0  0  0
  155.8177  138.2075  158.1364 H   0  0  0  0  0  0  0  0  0  0  0  0
  153.8726  137.5223  156.2433 H   0  0  0  0  0  0  0  0  0  0  0  0
  152.1824  137.3807  154.6980 H   0  0  0  0  0  0  0  0  0  0  0  0
  150.1554  138.2380  153.6999 H   0  0  0  0  0  0  0  0  0  0  0  0
  153.5195  136.3282  158.1769 H   0  0  0  0  0  0  0  0  0  0  0  0
  151.2828  136.9008  158.0934 H   0  0  0  0  0  0  0  0  0  0  0  0
  153.4158  138.8262  159.8888 H   0  0  0  0  0  0  0  0  0  0  0  0
  155.5310  137.6372  164.0120 H   0  0  0  0  0  0  0  0  0  0  0  0
  156.4235  135.8444  165.4528 H   0  0  0  0  0  0  0  0  0  0  0  0
  157.2907  133.7401  164.4483 H   0  0  0  0  0  0  0  0  0  0  0  0
  157.2583  133.4391  161.9800 H   0  0  0  0  0  0  0  0  0  0  0  0
  156.3732  135.2080  160.5191 H   0  0  0  0  0  0  0  0  0  0  0  0
  153.1980  143.4706  162.1113 H   0  0  0  0  0  0  0  0  0  0  0  0
  151.6982  145.4009  161.7745 H   0  0  0  0  0  0  0  0  0  0  0  0
  151.0088  146.0704  159.4798 H   0  0  0  0  0  0  0  0  0  0  0  0
  151.8316  144.7882  157.5141 H   0  0  0  0  0  0  0  0  0  0  0  0
  153.3277  142.8619  157.8190 H   0  0  0  0  0  0  0  0  0  0  0  0
  1  2  2  0  0  0  0
  2  3  1  0  0  0  0
  2 28  1  0  0  0  0
  3  4  1  0  0  0  0
  4  5  1  0  0  0  0
  4 34  1  0  0  0  0
  4 35  1  0  0  0  0
  5 18  1  0  0  0  0
  5  6  1  0  0  0  0
  5 36  1  0  0  0  0
  6  7  1  0  0  0  0
  7  8  1  0  0  0  0
  7 16  1  0  0  0  0
  7 37  1  0  0  0  0
  8 14  1  0  0  0  0
  8  9  1  0  0  0  0
  9 10  2  0  0  0  0
  9 38  1  0  0  0  0
 10 11  1  0  0  0  0
 10 39  1  0  0  0  0
 11 12  2  0  0  0  0
 11 13  1  0  0  0  0
 13 14  1  0  0  0  0
 14 15  2  0  0  0  0
 16 17  1  0  0  0  0
 16 18  1  0  0  0  0
 16 40  1  0  0  0  0
 17 41  1  0  0  0  0
 18 19  1  0  0  0  0
 18 42  1  0  0  0  0
 19 20  1  0  0  0  0
 20 21  2  0  0  0  0
 20 22  1  0  0  0  0
 22 27  1  0  0  0  0
 22 23  2  0  0  0  0
 23 24  1  0  0  0  0
 23 43  1  0  0  0  0
 24 25  2  0  0  0  0
 24 44  1  0  0  0  0
 25 26  1  0  0  0  0
 25 45  1  0  0  0  0
 26 27  2  0  0  0  0
 26 46  1  0  0  0  0
 27 47  1  0  0  0  0
 28 33  1  0  0  0  0
 28 29  2  0  0  0  0
 29 30  1  0  0  0  0
 29 48  1  0  0  0  0
 30 31  2  0  0  0  0
 30 49  1  0  0  0  0
 31 32  1  0  0  0  0
 31 50  1  0  0  0  0
 32 33  2  0  0  0  0
 32 51  1  0  0  0  0
 33 52  1  0  0  0  0
M  CHG  1  13  -1
M  END
> <s_m_source_file>
AV-unprocessed.smi

> <i_m_source_file_index>
99

> <i_lp_mmshare_version>
43012

> <i_f3d_flags>
0

> <s_epik_input>
W2NIXTFbY0hdW2NIXVtjSF1bY0hdYzFDKD1PKU9bQ0gyXVtDQEBIXTJPW0NAQEhdKG4zW2NIXVtjSF1jKD1PKVtuSF1jMz1PKVtDQEBIXShbT0hdKVtDQEhdMk9DKD1PKWM0W2NIXVtjSF1bY0hdW2NIXVtjSF00

> <s_epik_cmdline>
J2VwaWtfcHl0aG9uJywgJy1waCcsICc3LjAnLCAnLXRuJywgJzgnLCAnLW1hJywgJzIwMCcsICctbWV0YWxfYmluZGluZycsICctaW1hZScsICc8aW5maWxlLm1hZT4nLCAnLW9tYWUnLCAnPG91dGZpbGUubWFlPic=

> <r_lp_tautomer_probability>
1

> <r_epik_Ionization_Penalty>
2.89159

> <r_epik_Ionization_Penalty_Charging>
2.1077e-08

> <r_epik_Ionization_Penalty_Neutral>
2.89159

> <r_epik_State_Penalty>
2.88671

> <r_epik_Charging_Adjusted_Penalty>
2.88671

> <i_epik_Tot_Q>
-1

> <i_epik_Tot_abs_Q>
1

> <r_epik_Metal_State_Penalty>
0.0727308

> <b_epik_Metal_Only>
1

> <s_epik_Chemistry_Notes>
This compound has an ester and may undergo hydrolysis at high or low pH. This compound contains an acetal/aminal-like group ( X-CH(R)-Y where X, Y are N, S, or O) that may be acid/base labile, releasing an aldehyde.

> <s_lp_Force_Field>
OPLS_2005

> <r_lp_Energy>
47.3257

> <b_lp_Chiralities_Consistent>
1

> <s_lp_Variant>
AV-unprocessed.smi:99-23

> <Gold.Version>
5.8.1

> <Gold.Id.Protein>
6NUR|6NUR_protein|mol2

> <Gold.PLP.Fitness>
64.2803

> <Gold.PLP.PLP>
-63.6038

> <Gold.PLP.part.hbond>
-1.0197

> <Gold.PLP.part.metal>
0.0000

> <Gold.PLP.part.buried>
-5.3669

> <Gold.PLP.part.nonpolar>
-58.1439

> <Gold.PLP.part.repulsive>
0.4888

> <Gold.PLP.ligand.clash>
0.0000

> <Gold.PLP.ligand.torsion>
1.3581

> <Gold.PLP.Chemscore.Hbond>
0.9672

> <Gold.PLP.Chemscore.CHOScore>
0.0000

> <Gold.PLP.Chemscore.Metal>
0.0000

> <Gold.PLP.Chemscore.Internal.Correction>
0.4910

> <Gold.Rescore>
     Score         DG    S(hbond)    S(metal)    S(lipo)     H(rot)  DE(clash)    DE(int)     intcor
     12.80     -17.55       0.89        0.00     146.39       3.13       0.18       4.56       ----

> <Gold.Chemscore.Fitness>
12.8012

> <Gold.Chemscore.DG>
-17.5479

> <Gold.Chemscore.ZeroCoef>
-5.4800

> <Gold.Chemscore.Hbond>
0.8877

> <Gold.Chemscore.Metal>
0.0000

> <Gold.Chemscore.Lipo>
146.3889

> <Gold.Chemscore.Internal_Hbond>
0.0000

> <Gold.Chemscore.DEClash>
0.1824

> <Gold.Chemscore.DEInternal>
4.5644

> <Gold.Chemscore.Rot>
3.1346

> <Gold.Chemscore.Internal.Correction>
   9.000000E+99

> <Gold.Chemscore.Hbond.Weighted>
-2.9650

> <Gold.Chemscore.Metal.Weighted>
-0.0000

> <Gold.Chemscore.Lipo.Weighted>
-17.1275

> <Gold.Chemscore.Internal_Hbond.Weighted>
0.0000

> <Gold.Chemscore.DEClash.Weighted>
0.1824

> <Gold.Chemscore.DEInternal.Weighted>
4.5644

> <Gold.Chemscore.Rot.Weighted>
8.0246

> <Gold.Chemscore.Internal.Correction.Weighted>
   9.000000E+99

> <Gold.Protein.RotatedTorsions>
[ 6907 6896 6895 6894 ] final -144.17 input  -60.11 | X-H torsion
[ 7974 7965 7964 7962 ] final   54.21 input  175.53 | X-H torsion
[ 8008 7997 7996 7995 ] final  -75.75 input   59.86 | X-H torsion
[ 10167 10162 10161 10158 ] final   82.78 input  -65.29 | X-H torsion
[ 10718 10713 10712 10709 ] final    6.91 input   66.30 | X-H torsion
[ 10763 10752 10751 10750 ] final  172.82 input  -60.55 | X-H torsion
[ 11005 11000 10999 10996 ] final   98.33 input  -57.11 | X-H torsion

> <Gold.Protein.ActiveResidues>
 VAL166  LYS551  ARG553  GLY616  TRP617  ASP618  TYR619  PRO620  LYS621  CYS622 
 ASP623  PHE694  ASN695  SER759  ASP760  ASP761  ALA762  ILE779  LEU786  VAL792 
 PHE793  MET794  SER795  GLU796  ALA797  LYS798  CYS799  TRP800  GLU811  SER814 

> <Gold.Protein.RotatedAtoms>
  151.1104  133.5177  159.2605 H   0  0  0  0  0  0  0  0  0  0  0  0  # atno 6907 bound_to 6896
  151.1974  135.0427  159.8868 H   0  0  0  0  0  0  0  0  0  0  0  0  # atno 6908 bound_to 6896
  152.5449  134.0936  159.8341 H   0  0  0  0  0  0  0  0  0  0  0  0  # atno 6909 bound_to 6896
  145.9632  139.4079  143.0235 H   0  0  0  0  0  0  0  0  0  0  0  0  # atno 7974 bound_to 7965
  154.5444  140.0739  156.8564 H   0  0  0  0  0  0  0  0  0  0  0  0  # atno 8008 bound_to 7997
  155.3116  140.3390  155.4225 H   0  0  0  0  0  0  0  0  0  0  0  0  # atno 8009 bound_to 7997
  156.1904  140.1684  156.8089 H   0  0  0  0  0  0  0  0  0  0  0  0  # atno 8010 bound_to 7997
  139.9253  144.6187  150.8399 H   0  0  0  0  0  0  0  0  0  0  0  0  # atno 10167 bound_to 10162
  156.9292  130.5819  149.5649 H   0  0  0  0  0  0  0  0  0  0  0  0  # atno 10718 bound_to 10713
  154.4315  135.2760  155.1909 H   0  0  0  0  0  0  0  0  0  0  0  0  # atno 10763 bound_to 10752
  154.3813  135.6087  153.5796 H   0  0  0  0  0  0  0  0  0  0  0  0  # atno 10764 bound_to 10752
  152.9836  135.5881  154.4627 H   0  0  0  0  0  0  0  0  0  0  0  0  # atno 10765 bound_to 10752
  139.8773  134.9044  156.4440 H   0  0  0  0  0  0  0  0  0  0  0  0  # atno 11005 bound_to 11000
  145.8010  140.9771  143.0998 LP  0  0  0  0  0  0  0  0  0  0  0  0  # atno 17320 bound_to 7965
  144.6819  139.9802  143.7483 LP  0  0  0  0  0  0  0  0  0  0  0  0  # atno 17321 bound_to 7965
  140.7652  143.3268  151.2498 LP  0  0  0  0  0  0  0  0  0  0  0  0  # atno 17342 bound_to 10162
  139.6827  143.9826  152.2817 LP  0  0  0  0  0  0  0  0  0  0  0  0  # atno 17343 bound_to 10162
  156.0455  130.5532  150.8871 LP  0  0  0  0  0  0  0  0  0  0  0  0  # atno 17370 bound_to 10713
  157.5858  131.0945  150.9198 LP  0  0  0  0  0  0  0  0  0  0  0  0  # atno 17371 bound_to 10713
  140.8979  133.7801  155.9646 LP  0  0  0  0  0  0  0  0  0  0  0  0  # atno 17394 bound_to 11000
  140.8683  134.2757  157.5203 LP  0  0  0  0  0  0  0  0  0  0  0  0  # atno 17395 bound_to 11000

$$$$
