AV-unprocessed.smi:2078|AV-procd|sdf|8471|dock2
  -GOLD-   2272011173D 1   1.00000     0.00000
 Structure written by MMmdl.
 41 42  0  0  0  0  0  0  0  0  3 V2000
  150.7505  142.4479  157.2231 C   0  0  0  0  0  0  0  0  0  0  0  0
  150.4926  141.4465  156.1501 C   0  0  0  0  0  0  0  0  0  0  0  0
  149.3468  140.9752  155.5739 C   0  0  0  0  0  0  0  0  0  0  0  0
  149.8280  140.0376  154.6217 C   0  0  0  0  0  0  0  0  0  0  0  0
  148.9244  139.3162  153.7974 N   0  0  0  0  0  0  0  0  0  0  0  0
  147.8253  138.6257  154.1524 C   0  0  0  0  0  0  0  0  0  0  0  0
  147.4800  138.5678  155.3386 O   0  0  0  0  0  0  0  0  0  0  0  0
  147.2107  138.0531  153.0811 N   0  5  0  0  0  0  0  0  0  0  0  0
  145.7949  137.6981  153.0304 C   0  0  0  0  0  0  0  0  0  0  0  0
  145.5135  136.8773  151.7574 C   0  0  0  0  0  0  0  0  0  0  0  0
  146.2010  135.5583  151.7803 N   0  3  1  0  0  0  0  0  0  0  0  0
  146.2560  134.9645  153.1417 C   0  0  0  0  0  0  0  0  0  0  0  0
  147.1090  133.6857  153.1539 C   0  0  0  0  0  0  0  0  0  0  0  0
  146.5904  132.6660  152.1316 C   0  0  0  0  0  0  0  0  0  0  0  0
  146.5115  133.3038  150.7344 C   0  0  1  0  0  0  0  0  0  0  0  0
  145.9727  132.3130  149.6930 C   0  0  0  0  0  0  0  0  0  0  0  0
  145.6609  134.5883  150.7856 C   0  0  0  0  0  0  0  0  0  0  0  0
  151.1497  139.9466  154.6171 N   0  0  0  0  0  0  0  0  0  0  0  0
  151.5820  140.8487  155.5965 O   0  0  0  0  0  0  0  0  0  0  0  0
  149.8157  142.8564  157.6071 H   0  0  0  0  0  0  0  0  0  0  0  0
  151.3505  143.2748  156.8431 H   0  0  0  0  0  0  0  0  0  0  0  0
  151.2879  141.9927  158.0550 H   0  0  0  0  0  0  0  0  0  0  0  0
  148.3289  141.2563  155.7989 H   0  0  0  0  0  0  0  0  0  0  0  0
  149.1355  139.3233  152.8107 H   0  0  0  0  0  0  0  0  0  0  0  0
  145.4909  137.1143  153.9001 H   0  0  0  0  0  0  0  0  0  0  0  0
  145.1576  138.5832  153.0277 H   0  0  0  0  0  0  0  0  0  0  0  0
  144.4345  136.7296  151.6865 H   0  0  0  0  0  0  0  0  0  0  0  0
  145.7994  137.4315  150.8618 H   0  0  0  0  0  0  0  0  0  0  0  0
  146.6852  135.6832  153.8411 H   0  0  0  0  0  0  0  0  0  0  0  0
  145.2436  134.7487  153.4872 H   0  0  0  0  0  0  0  0  0  0  0  0
  148.1465  133.9359  152.9286 H   0  0  0  0  0  0  0  0  0  0  0  0
  147.1066  133.2461  154.1518 H   0  0  0  0  0  0  0  0  0  0  0  0
  147.2441  131.7933  152.1139 H   0  0  0  0  0  0  0  0  0  0  0  0
  145.6045  132.3115  152.4359 H   0  0  0  0  0  0  0  0  0  0  0  0
  147.5223  133.5814  150.4305 H   0  0  0  0  0  0  0  0  0  0  0  0
  144.9623  131.9866  149.9405 H   0  0  0  0  0  0  0  0  0  0  0  0
  146.6037  131.4259  149.6319 H   0  0  0  0  0  0  0  0  0  0  0  0
  145.9424  132.7637  148.7006 H   0  0  0  0  0  0  0  0  0  0  0  0
  144.6270  134.3473  151.0391 H   0  0  0  0  0  0  0  0  0  0  0  0
  145.6411  135.0436  149.7948 H   0  0  0  0  0  0  0  0  0  0  0  0
  147.1583  135.7463  151.5191 H   0  0  0  0  0  0  0  0  0  0  0  0
  1  2  1  0  0  0  0
  1 20  1  0  0  0  0
  1 21  1  0  0  0  0
  1 22  1  0  0  0  0
  2 19  1  0  0  0  0
  2  3  2  0  0  0  0
  3  4  1  0  0  0  0
  3 23  1  0  0  0  0
  4  5  1  0  0  0  0
  4 18  2  0  0  0  0
  5  6  1  0  0  0  0
  5 24  1  0  0  0  0
  6  7  2  0  0  0  0
  6  8  1  0  0  0  0
  8  9  1  0  0  0  0
  9 10  1  0  0  0  0
  9 25  1  0  0  0  0
  9 26  1  0  0  0  0
 10 11  1  0  0  0  0
 10 27  1  0  0  0  0
 10 28  1  0  0  0  0
 11 17  1  0  0  0  0
 11 12  1  0  0  0  0
 11 41  1  0  0  0  0
 12 13  1  0  0  0  0
 12 29  1  0  0  0  0
 12 30  1  0  0  0  0
 13 14  1  0  0  0  0
 13 31  1  0  0  0  0
 13 32  1  0  0  0  0
 14 15  1  0  0  0  0
 14 33  1  0  0  0  0
 14 34  1  0  0  0  0
 15 16  1  0  0  0  0
 15 17  1  0  0  0  0
 15 35  1  0  0  0  0
 16 36  1  0  0  0  0
 16 37  1  0  0  0  0
 16 38  1  0  0  0  0
 17 39  1  0  0  0  0
 17 40  1  0  0  0  0
 18 19  1  0  0  0  0
M  CHG  1   8  -1
M  CHG  1  11   1
M  END
> <s_m_source_file>
AV-unprocessed.smi

> <i_m_source_file_index>
2078

> <i_lp_mmshare_version>
43012

> <i_f3d_flags>
0

> <s_epik_input>
W0NIM11jMVtjSF1jKG5vMSlbTkhdQyg9TylbTkhdW0NIMl1bQ0gyXU4yW0NIMl1bQ0gyXVtDSDJdW0NAQEhdKFtDSDNdKVtDSDJdMg==

> <s_epik_cmdline>
J2VwaWtfcHl0aG9uJywgJy1waCcsICc3LjAnLCAnLXRuJywgJzgnLCAnLW1hJywgJzIwMCcsICctbWV0YWxfYmluZGluZycsICctaW1hZScsICc8aW5maWxlLm1hZT4nLCAnLW9tYWUnLCAnPG91dGZpbGUubWFlPic=

> <r_epik_Ionization_Penalty>
6.76934

> <r_epik_Ionization_Penalty_Charging>
6.76934

> <r_epik_Ionization_Penalty_Neutral>
5.77849e-06

> <r_epik_State_Penalty>
6.79457

> <r_epik_Charging_Adjusted_Penalty>
13.5639

> <i_epik_Tot_Q>
0

> <i_epik_Tot_abs_Q>
2

> <r_epik_Metal_State_Penalty>
2.72837

> <b_epik_Metal_Only>
1

> <s_lp_Force_Field>
OPLS_2005

> <r_lp_Energy>
13.3019

> <b_lp_Chiralities_Consistent>
1

> <s_lp_Variant>
AV-unprocessed.smi:2078-9

> <Gold.Version>
5.8.1

> <Gold.Id.Protein>
6NUR|6NUR_protein|mol2

> <Gold.PLP.Fitness>
38.3407

> <Gold.PLP.PLP>
-29.2715

> <Gold.PLP.part.hbond>
-4.0000

> <Gold.PLP.part.metal>
0.0000

> <Gold.PLP.part.buried>
-1.9359

> <Gold.PLP.part.nonpolar>
-24.7185

> <Gold.PLP.part.repulsive>
2.5557

> <Gold.PLP.ligand.clash>
0.0000

> <Gold.PLP.ligand.torsion>
0.8111

> <Gold.PLP.Chemscore.Hbond>
3.5500

> <Gold.PLP.Chemscore.CHOScore>
0.0000

> <Gold.PLP.Chemscore.Metal>
0.0000

> <Gold.Chemscore.Hbonds>
donor molecule, donor type, donor heavy atom, donor atom, acceptor molecule, acceptor atom, score
      L1  H     5    24       P1  7957  1.00
      L1  H    11    41       P1  7948  2.00
      P1  H  7989  7998       L1    18  0.59

> <Gold.PLP.Chemscore.Internal.Correction>
0.0415

> <Gold.Rescore>
     Score         DG    S(hbond)    S(metal)    S(lipo)     H(rot)  DE(clash)    DE(int)     intcor
     14.78     -16.00       1.97        0.00      67.41       1.54       0.32       0.90       ----

> <Gold.Chemscore.Fitness>
14.7803

> <Gold.Chemscore.DG>
-15.9955

> <Gold.Chemscore.ZeroCoef>
-5.4800

> <Gold.Chemscore.Hbond>
1.9681

> <Gold.Chemscore.Metal>
0.0000

> <Gold.Chemscore.Lipo>
67.4074

> <Gold.Chemscore.Internal_Hbond>
0.0000

> <Gold.Chemscore.DEClash>
0.3180

> <Gold.Chemscore.DEInternal>
0.8972

> <Gold.Chemscore.Rot>
1.5409

> <Gold.Chemscore.Internal.Correction>
   9.000000E+99

> <Gold.Chemscore.Hbonds>
donor molecule, donor type, donor heavy atom, donor atom, acceptor molecule, acceptor atom, score
      L1  H     5    24       P1  7957  0.99
      L1  H    11    41       P1  7948  0.98
      P1  H  7989  7998       L1    18  0.02

> <Gold.Chemscore.Hbond.Weighted>
-6.5734

> <Gold.Chemscore.Metal.Weighted>
-0.0000

> <Gold.Chemscore.Lipo.Weighted>
-7.8867

> <Gold.Chemscore.Internal_Hbond.Weighted>
0.0000

> <Gold.Chemscore.DEClash.Weighted>
0.3180

> <Gold.Chemscore.DEInternal.Weighted>
0.8972

> <Gold.Chemscore.Rot.Weighted>
3.9446

> <Gold.Chemscore.Internal.Correction.Weighted>
   9.000000E+99

> <Gold.Protein.RotatedTorsions>
[ 6907 6896 6895 6894 ] final   62.94 input  -60.11 | X-H torsion
[ 7974 7965 7964 7962 ] final   50.20 input  175.53 | X-H torsion
[ 8008 7997 7996 7995 ] final  -38.56 input   59.86 | X-H torsion
[ 10167 10162 10161 10158 ] final -154.05 input  -65.29 | X-H torsion
[ 10718 10713 10712 10709 ] final -121.70 input   66.30 | X-H torsion
[ 10763 10752 10751 10750 ] final  -73.45 input  -60.55 | X-H torsion
[ 11005 11000 10999 10996 ] final  -93.28 input  -57.11 | X-H torsion

> <Gold.Protein.ActiveResidues>
 VAL166  LYS551  ARG553  GLY616  TRP617  ASP618  TYR619  PRO620  LYS621  CYS622 
 ASP623  PHE694  ASN695  SER759  ASP760  ASP761  ALA762  ILE779  LEU786  VAL792 
 PHE793  MET794  SER795  GLU796  ALA797  LYS798  CYS799  TRP800  GLU811  SER814 

> <Gold.Protein.RotatedAtoms>
  152.4213  134.5950  159.9984 H   0  0  0  0  0  0  0  0  0  0  0  0  # atno 6907 bound_to 6896
  151.6100  133.3342  159.3073 H   0  0  0  0  0  0  0  0  0  0  0  0  # atno 6908 bound_to 6896
  150.8101  134.7288  159.6745 H   0  0  0  0  0  0  0  0  0  0  0  0  # atno 6909 bound_to 6896
  146.0035  139.4465  143.0000 H   0  0  0  0  0  0  0  0  0  0  0  0  # atno 7974 bound_to 7965
  154.4035  140.1574  156.2720 H   0  0  0  0  0  0  0  0  0  0  0  0  # atno 8008 bound_to 7997
  155.8945  140.3437  155.5958 H   0  0  0  0  0  0  0  0  0  0  0  0  # atno 8009 bound_to 7997
  155.7520  140.0806  157.2187 H   0  0  0  0  0  0  0  0  0  0  0  0  # atno 8010 bound_to 7997
  139.7046  143.9207  152.2443 H   0  0  0  0  0  0  0  0  0  0  0  0  # atno 10167 bound_to 10162
  156.1358  130.6429  150.9694 H   0  0  0  0  0  0  0  0  0  0  0  0  # atno 10718 bound_to 10713
  154.4596  135.5897  153.6247 H   0  0  0  0  0  0  0  0  0  0  0  0  # atno 10763 bound_to 10752
  152.9822  135.6040  154.3503 H   0  0  0  0  0  0  0  0  0  0  0  0  # atno 10764 bound_to 10752
  154.3373  135.2842  155.2420 H   0  0  0  0  0  0  0  0  0  0  0  0  # atno 10765 bound_to 10752
  141.1501  133.7877  157.0137 H   0  0  0  0  0  0  0  0  0  0  0  0  # atno 11005 bound_to 11000
  145.7451  140.9993  143.1280 LP  0  0  0  0  0  0  0  0  0  0  0  0  # atno 17320 bound_to 7965
  144.6927  139.9146  143.7465 LP  0  0  0  0  0  0  0  0  0  0  0  0  # atno 17321 bound_to 7965
  139.9059  144.6884  150.8614 LP  0  0  0  0  0  0  0  0  0  0  0  0  # atno 17342 bound_to 10162
  140.7718  143.3479  151.2074 LP  0  0  0  0  0  0  0  0  0  0  0  0  # atno 17343 bound_to 10162
  157.6531  131.0894  150.8007 LP  0  0  0  0  0  0  0  0  0  0  0  0  # atno 17370 bound_to 10713
  156.8087  130.4945  149.5359 LP  0  0  0  0  0  0  0  0  0  0  0  0  # atno 17371 bound_to 10713
  140.0861  134.9620  157.1702 LP  0  0  0  0  0  0  0  0  0  0  0  0  # atno 17394 bound_to 11000
  140.3510  134.2599  155.7198 LP  0  0  0  0  0  0  0  0  0  0  0  0  # atno 17395 bound_to 11000

$$$$
