AV-unprocessed.smi:2888|AV-procd|sdf|11101|dock1
  -GOLD-   2272015573D 1   1.00000     0.00000
 Structure written by MMmdl.
 33 35  0  0  0  0  0  0  0  0  1 V2000
  151.0386  144.9630  159.8186 C   0  0  0  0  0  0  0  0  0  0  0  0
  151.5369  143.5579  159.5566 C   0  0  0  0  0  0  0  0  0  0  0  0
  152.6261  143.0145  160.2694 C   0  0  0  0  0  0  0  0  0  0  0  0
  152.9918  141.6949  159.9306 C   0  0  0  0  0  0  0  0  0  0  0  0
  154.1414  140.9907  160.6195 C   0  0  0  0  0  0  0  0  0  0  0  0
  152.3334  140.9943  158.9805 N   0  0  0  0  0  0  0  0  0  0  0  0
  151.3147  141.6062  158.3715 C   0  0  0  0  0  0  0  0  0  0  0  0
  150.6587  140.8556  157.4133 N   0  0  0  0  0  0  0  0  0  0  0  0
  150.4395  141.2912  156.0388 C   0  0  1  0  0  0  0  0  0  0  0  0
  151.1246  140.3962  155.0038 C   0  0  0  0  0  0  0  0  0  0  0  0
  149.9568  140.0451  154.0706 C   0  0  1  0  0  0  0  0  0  0  0  0
  149.0182  139.0129  154.7080 C   0  0  0  0  0  0  0  0  0  0  0  0
  148.3154  139.8503  155.7746 C   0  0  0  0  0  0  0  0  0  0  0  0
  148.9693  141.2293  155.5795 C   0  0  2  0  0  0  0  0  0  0  0  0
  149.1619  141.2150  154.1749 O   0  0  0  0  0  0  0  0  0  0  0  0
  150.8836  142.8509  158.6087 N   0  0  0  0  0  0  0  0  0  0  0  0
  151.6884  145.4872  160.5196 H   0  0  0  0  0  0  0  0  0  0  0  0
  150.0334  144.9347  160.2398 H   0  0  0  0  0  0  0  0  0  0  0  0
  151.0075  145.5352  158.8909 H   0  0  0  0  0  0  0  0  0  0  0  0
  153.1489  143.5757  161.0300 H   0  0  0  0  0  0  0  0  0  0  0  0
  154.6933  141.6760  161.2636 H   0  0  0  0  0  0  0  0  0  0  0  0
  154.8350  140.5830  159.8837 H   0  0  0  0  0  0  0  0  0  0  0  0
  153.7685  140.1702  161.2329 H   0  0  0  0  0  0  0  0  0  0  0  0
  150.1386  140.0554  157.7417 H   0  0  0  0  0  0  0  0  0  0  0  0
  150.8134  142.3096  155.9232 H   0  0  0  0  0  0  0  0  0  0  0  0
  151.8950  140.9553  154.4718 H   0  0  0  0  0  0  0  0  0  0  0  0
  151.5875  139.5047  155.4294 H   0  0  0  0  0  0  0  0  0  0  0  0
  150.2613  139.7968  153.0535 H   0  0  0  0  0  0  0  0  0  0  0  0
  148.2977  138.6401  153.9793 H   0  0  0  0  0  0  0  0  0  0  0  0
  149.5569  138.1608  155.1238 H   0  0  0  0  0  0  0  0  0  0  0  0
  147.2453  139.9021  155.5709 H   0  0  0  0  0  0  0  0  0  0  0  0
  148.4456  139.4530  156.7815 H   0  0  0  0  0  0  0  0  0  0  0  0
  148.3594  142.0598  155.9357 H   0  0  0  0  0  0  0  0  0  0  0  0
  1  2  1  0  0  0  0
  1 17  1  0  0  0  0
  1 18  1  0  0  0  0
  1 19  1  0  0  0  0
  2 16  1  0  0  0  0
  2  3  2  0  0  0  0
  3  4  1  0  0  0  0
  3 20  1  0  0  0  0
  4  5  1  0  0  0  0
  4  6  2  0  0  0  0
  5 21  1  0  0  0  0
  5 22  1  0  0  0  0
  5 23  1  0  0  0  0
  6  7  1  0  0  0  0
  7  8  1  0  0  0  0
  7 16  2  0  0  0  0
  8  9  1  0  0  0  0
  8 24  1  0  0  0  0
  9 14  1  0  0  0  0
  9 10  1  0  0  0  0
  9 25  1  0  0  0  0
 10 11  1  0  0  0  0
 10 26  1  0  0  0  0
 10 27  1  0  0  0  0
 11 15  1  0  0  0  0
 11 12  1  0  0  0  0
 11 28  1  0  0  0  0
 12 13  1  0  0  0  0
 12 29  1  0  0  0  0
 12 30  1  0  0  0  0
 13 14  1  0  0  0  0
 13 31  1  0  0  0  0
 13 32  1  0  0  0  0
 14 15  1  0  0  0  0
 14 33  1  0  0  0  0
M  END
> <s_m_source_file>
AV-unprocessed.smi

> <i_m_source_file_index>
2888

> <i_lp_mmshare_version>
43012

> <i_f3d_flags>
0

> <s_epik_input>
W0NIM11jMVtjSF1jKFtDSDNdKW5jKG4xKVtOSF1bQ0BIXShbQ0gyXVtDQEBIXTIzKVtDQEBIXShPMylbQ0gyXVtDSDJdMg==

> <s_epik_cmdline>
J2VwaWtfcHl0aG9uJywgJy1waCcsICc3LjAnLCAnLXRuJywgJzgnLCAnLW1hJywgJzIwMCcsICctbWV0YWxfYmluZGluZycsICctaW1hZScsICc8aW5maWxlLm1hZT4nLCAnLW9tYWUnLCAnPG91dGZpbGUubWFlPic=

> <r_lp_tautomer_probability>
1

> <r_epik_Ionization_Penalty>
0.00890508

> <r_epik_Ionization_Penalty_Charging>
0

> <r_epik_Ionization_Penalty_Neutral>
0.00890508

> <r_epik_State_Penalty>
0.0067342

> <r_epik_Charging_Adjusted_Penalty>
0.0067342

> <i_epik_Tot_Q>
0

> <i_epik_Tot_abs_Q>
0

> <r_epik_Metal_State_Penalty>
0.00663442

> <b_epik_Metal_Only>
0

> <s_lp_Force_Field>
OPLS_2005

> <r_lp_Energy>
31.8734

> <b_lp_Chiralities_Consistent>
1

> <s_lp_Variant>
AV-unprocessed.smi:2888-2

> <Gold.Version>
5.8.1

> <Gold.Id.Protein>
6NUR|6NUR_protein|mol2

> <Gold.PLP.Fitness>
38.2487

> <Gold.PLP.PLP>
-36.2986

> <Gold.PLP.part.hbond>
-0.7560

> <Gold.PLP.part.metal>
0.0000

> <Gold.PLP.part.buried>
-5.3495

> <Gold.PLP.part.nonpolar>
-31.6245

> <Gold.PLP.part.repulsive>
0.7945

> <Gold.PLP.ligand.clash>
0.0000

> <Gold.PLP.ligand.torsion>
0.5166

> <Gold.PLP.Chemscore.Hbond>
0.9913

> <Gold.PLP.Chemscore.CHOScore>
0.0000

> <Gold.PLP.Chemscore.Metal>
0.0000

> <Gold.Chemscore.Hbonds>
donor molecule, donor type, donor heavy atom, donor atom, acceptor molecule, acceptor atom, score
      P1  H  8011  8017       L1    15  0.27

> <Gold.PLP.Chemscore.Internal.Correction>
0.0095

> <Gold.Rescore>
     Score         DG    S(hbond)    S(metal)    S(lipo)     H(rot)  DE(clash)    DE(int)     intcor
     16.43     -16.85       0.91        0.00      92.97       1.00       0.00       0.42       ----

> <Gold.Chemscore.Fitness>
16.4280

> <Gold.Chemscore.DG>
-16.8519

> <Gold.Chemscore.ZeroCoef>
-5.4800

> <Gold.Chemscore.Hbond>
0.9144

> <Gold.Chemscore.Metal>
0.0000

> <Gold.Chemscore.Lipo>
92.9727

> <Gold.Chemscore.Internal_Hbond>
0.0000

> <Gold.Chemscore.DEClash>
0.0000

> <Gold.Chemscore.DEInternal>
0.4239

> <Gold.Chemscore.Rot>
1.0000

> <Gold.Chemscore.Internal.Correction>
   9.000000E+99

> <Gold.Chemscore.Hbonds>
donor molecule, donor type, donor heavy atom, donor atom, acceptor molecule, acceptor atom, score
      P1  H  8011  8017       L1    15  0.11

> <Gold.Chemscore.Hbond.Weighted>
-3.0541

> <Gold.Chemscore.Metal.Weighted>
-0.0000

> <Gold.Chemscore.Lipo.Weighted>
-10.8778

> <Gold.Chemscore.Internal_Hbond.Weighted>
0.0000

> <Gold.Chemscore.DEClash.Weighted>
0.0000

> <Gold.Chemscore.DEInternal.Weighted>
0.4239

> <Gold.Chemscore.Rot.Weighted>
2.5600

> <Gold.Chemscore.Internal.Correction.Weighted>
   9.000000E+99

> <Gold.Protein.RotatedTorsions>
[ 6907 6896 6895 6894 ] final   37.24 input  -60.11 | X-H torsion
[ 7974 7965 7964 7962 ] final -114.46 input  175.53 | X-H torsion
[ 8008 7997 7996 7995 ] final   65.05 input   59.86 | X-H torsion
[ 10167 10162 10161 10158 ] final   26.27 input  -65.29 | X-H torsion
[ 10718 10713 10712 10709 ] final -179.59 input   66.30 | X-H torsion
[ 10763 10752 10751 10750 ] final  135.98 input  -60.55 | X-H torsion
[ 11005 11000 10999 10996 ] final   98.02 input  -57.11 | X-H torsion

> <Gold.Protein.ActiveResidues>
 VAL166  LYS551  ARG553  GLY616  TRP617  ASP618  TYR619  PRO620  LYS621  CYS622 
 ASP623  PHE694  ASN695  SER759  ASP760  ASP761  ALA762  ILE779  LEU786  VAL792 
 PHE793  MET794  SER795  GLU796  ALA797  LYS798  CYS799  TRP800  GLU811  SER814 

> <Gold.Protein.RotatedAtoms>
  152.1405  134.9066  160.0553 H   0  0  0  0  0  0  0  0  0  0  0  0  # atno 6907 bound_to 6896
  152.0136  133.3866  159.4238 H   0  0  0  0  0  0  0  0  0  0  0  0  # atno 6908 bound_to 6896
  150.6864  134.3625  159.5000 H   0  0  0  0  0  0  0  0  0  0  0  0  # atno 6909 bound_to 6896
  145.1199  140.8663  143.3820 H   0  0  0  0  0  0  0  0  0  0  0  0  # atno 7974 bound_to 7965
  155.6557  140.3497  155.4764 H   0  0  0  0  0  0  0  0  0  0  0  0  # atno 8008 bound_to 7997
  155.9811  140.1174  157.0749 H   0  0  0  0  0  0  0  0  0  0  0  0  # atno 8009 bound_to 7997
  154.4192  140.1138  156.5422 H   0  0  0  0  0  0  0  0  0  0  0  0  # atno 8010 bound_to 7997
  140.5036  144.0274  150.6343 H   0  0  0  0  0  0  0  0  0  0  0  0  # atno 10167 bound_to 10162
  156.8613  130.9752  151.3083 H   0  0  0  0  0  0  0  0  0  0  0  0  # atno 10718 bound_to 10713
  153.8490  135.3082  155.3431 H   0  0  0  0  0  0  0  0  0  0  0  0  # atno 10763 bound_to 10752
  154.7900  135.4788  154.0033 H   0  0  0  0  0  0  0  0  0  0  0  0  # atno 10764 bound_to 10752
  153.1530  135.6846  153.8947 H   0  0  0  0  0  0  0  0  0  0  0  0  # atno 10765 bound_to 10752
  139.8773  134.9029  156.4394 H   0  0  0  0  0  0  0  0  0  0  0  0  # atno 11005 bound_to 11000
  145.0752  139.3001  143.5812 LP  0  0  0  0  0  0  0  0  0  0  0  0  # atno 17320 bound_to 7965
  146.3521  140.0240  142.8656 LP  0  0  0  0  0  0  0  0  0  0  0  0  # atno 17321 bound_to 7965
  140.3577  143.2926  152.0417 LP  0  0  0  0  0  0  0  0  0  0  0  0  # atno 17342 bound_to 10162
  139.4878  144.6326  151.7039 LP  0  0  0  0  0  0  0  0  0  0  0  0  # atno 17343 bound_to 10162
  157.6248  130.8683  149.9171 LP  0  0  0  0  0  0  0  0  0  0  0  0  # atno 17370 bound_to 10713
  156.0775  130.3677  150.0648 LP  0  0  0  0  0  0  0  0  0  0  0  0  # atno 17371 bound_to 10713
  140.9010  133.7779  155.9680 LP  0  0  0  0  0  0  0  0  0  0  0  0  # atno 17394 bound_to 11000
  140.8651  134.2794  157.5217 LP  0  0  0  0  0  0  0  0  0  0  0  0  # atno 17395 bound_to 11000

$$$$
