AV-unprocessed.smi:264|AV-procd|sdf|2010|dock1
  -GOLD-   2262021203D 1   1.00000     0.00000
 Structure written by MMmdl.
 52 56  0  0  0  0  0  0  0  0  1 V2000
  143.0723  134.3957  153.3512 C   0  0  0  0  0  0  0  0  0  0  0  0
  142.6188  135.7992  153.7815 C   0  0  1  0  0  0  0  0  0  0  0  0
  142.4786  135.7963  155.1997 O   0  0  0  0  0  0  0  0  0  0  0  0
  142.7305  137.1025  155.6857 C   0  0  0  0  0  0  0  0  0  0  0  0
  143.9129  137.5422  154.8363 C   0  0  0  0  0  0  0  0  0  0  0  0
  143.5781  136.9794  153.4567 C   0  0  2  0  0  0  0  0  0  0  0  0
  142.8307  137.9618  152.7592 O   0  0  0  0  0  0  0  0  0  0  0  0
  144.8319  136.6356  152.6096 C   0  0  0  0  0  0  0  0  0  0  0  0
  146.0518  137.2523  153.1082 N   0  0  0  0  0  0  0  0  0  0  0  0
  146.7097  138.3352  152.5700 C   0  0  0  0  0  0  0  0  0  0  0  0
  147.7949  138.6957  153.1985 N   0  0  0  0  0  0  0  0  0  0  0  0
  147.8910  137.7963  154.2541 C   0  0  0  0  0  0  0  0  0  0  0  0
  148.8180  137.6131  155.3189 C   0  0  0  0  0  0  0  0  0  0  0  0
  149.9216  138.3882  155.4679 N   0  0  0  0  0  0  0  0  0  0  0  0
  151.1893  137.8933  154.9428 C   0  0  0  0  0  0  0  0  0  0  0  0
  152.3477  138.7337  155.4987 C   0  0  0  0  0  0  0  0  0  0  0  0
  152.1268  140.1194  155.2373 O   0  0  0  0  0  0  0  0  0  0  0  0
  150.8906  140.6455  155.7371 C   0  0  1  0  0  0  0  0  0  0  0  0
  150.8984  140.8004  157.2552 C   0  0  0  0  0  0  0  0  0  0  0  0
  151.6835  142.0897  157.4403 C   0  0  0  0  0  0  0  0  0  0  0  0
  151.2158  142.9207  156.3896 O   0  0  0  0  0  0  0  0  0  0  0  0
  150.8181  142.1133  155.2834 C   0  0  0  0  0  0  0  0  0  0  0  0
  149.7146  139.8059  155.1954 C   0  0  0  0  0  0  0  0  0  0  0  0
  148.5633  136.6124  156.2043 N   0  0  0  0  0  0  0  0  0  0  0  0
  147.4858  135.8363  156.0546 C   0  0  0  0  0  0  0  0  0  0  0  0
  146.5471  135.8859  155.1079 N   0  0  0  0  0  0  0  0  0  0  0  0
  146.7925  136.8915  154.2202 C   0  0  0  0  0  0  0  0  0  0  0  0
  143.1871  134.3276  152.2694 H   0  0  0  0  0  0  0  0  0  0  0  0
  142.3363  133.6481  153.6472 H   0  0  0  0  0  0  0  0  0  0  0  0
  144.0197  134.1204  153.8149 H   0  0  0  0  0  0  0  0  0  0  0  0
  141.6306  135.9851  153.3560 H   0  0  0  0  0  0  0  0  0  0  0  0
  141.8604  137.7379  155.5122 H   0  0  0  0  0  0  0  0  0  0  0  0
  142.9537  137.1001  156.7528 H   0  0  0  0  0  0  0  0  0  0  0  0
  144.0730  138.6215  154.8475 H   0  0  0  0  0  0  0  0  0  0  0  0
  144.8153  137.0691  155.2256 H   0  0  0  0  0  0  0  0  0  0  0  0
  143.4068  138.6774  152.5392 H   0  0  0  0  0  0  0  0  0  0  0  0
  144.9945  135.5577  152.5872 H   0  0  0  0  0  0  0  0  0  0  0  0
  144.6908  136.9490  151.5744 H   0  0  0  0  0  0  0  0  0  0  0  0
  146.3602  138.8505  151.6871 H   0  0  0  0  0  0  0  0  0  0  0  0
  151.3316  136.8468  155.2159 H   0  0  0  0  0  0  0  0  0  0  0  0
  151.1777  137.9489  153.8533 H   0  0  0  0  0  0  0  0  0  0  0  0
  152.4751  138.5553  156.5657 H   0  0  0  0  0  0  0  0  0  0  0  0
  153.2828  138.4351  155.0250 H   0  0  0  0  0  0  0  0  0  0  0  0
  149.8809  140.9433  157.6222 H   0  0  0  0  0  0  0  0  0  0  0  0
  151.3246  139.9603  157.8008 H   0  0  0  0  0  0  0  0  0  0  0  0
  151.5226  142.5473  158.4164 H   0  0  0  0  0  0  0  0  0  0  0  0
  152.7527  141.9131  157.3136 H   0  0  0  0  0  0  0  0  0  0  0  0
  151.4480  142.3065  154.4145 H   0  0  0  0  0  0  0  0  0  0  0  0
  149.7990  142.3965  155.0175 H   0  0  0  0  0  0  0  0  0  0  0  0
  149.6382  139.9361  154.1150 H   0  0  0  0  0  0  0  0  0  0  0  0
  148.7765  140.1672  155.6156 H   0  0  0  0  0  0  0  0  0  0  0  0
  147.3582  135.0645  156.7990 H   0  0  0  0  0  0  0  0  0  0  0  0
  1  2  1  0  0  0  0
  1 28  1  0  0  0  0
  1 29  1  0  0  0  0
  1 30  1  0  0  0  0
  2  6  1  0  0  0  0
  2  3  1  0  0  0  0
  2 31  1  0  0  0  0
  3  4  1  0  0  0  0
  4  5  1  0  0  0  0
  4 32  1  0  0  0  0
  4 33  1  0  0  0  0
  5  6  1  0  0  0  0
  5 34  1  0  0  0  0
  5 35  1  0  0  0  0
  6  7  1  0  0  0  0
  6  8  1  0  0  0  0
  7 36  1  0  0  0  0
  8  9  1  0  0  0  0
  8 37  1  0  0  0  0
  8 38  1  0  0  0  0
  9 27  1  0  0  0  0
  9 10  1  0  0  0  0
 10 11  2  0  0  0  0
 10 39  1  0  0  0  0
 11 12  1  0  0  0  0
 12 27  2  0  0  0  0
 12 13  1  0  0  0  0
 13 14  1  0  0  0  0
 13 24  2  0  0  0  0
 14 23  1  0  0  0  0
 14 15  1  0  0  0  0
 15 16  1  0  0  0  0
 15 40  1  0  0  0  0
 15 41  1  0  0  0  0
 16 17  1  0  0  0  0
 16 42  1  0  0  0  0
 16 43  1  0  0  0  0
 17 18  1  0  0  0  0
 18 22  1  0  0  0  0
 18 19  1  0  0  0  0
 18 23  1  0  0  0  0
 19 20  1  0  0  0  0
 19 44  1  0  0  0  0
 19 45  1  0  0  0  0
 20 21  1  0  0  0  0
 20 46  1  0  0  0  0
 20 47  1  0  0  0  0
 21 22  1  0  0  0  0
 22 48  1  0  0  0  0
 22 49  1  0  0  0  0
 23 50  1  0  0  0  0
 23 51  1  0  0  0  0
 24 25  1  0  0  0  0
 25 26  2  0  0  0  0
 25 52  1  0  0  0  0
 26 27  1  0  0  0  0
M  END
> <s_m_source_file>
AV-unprocessed.smi

> <i_m_source_file_index>
264

> <i_lp_mmshare_version>
43012

> <i_f3d_flags>
0

> <s_epik_input>
W0NIMl0xW0NIMl1PW0NAQEhdKFtDSDNdKVtDQEBdMShbT0hdKVtDSDJdbihbY0hdbjIpYyhjMjMpbltjSF1uYzNOKFtDSDJdNClbQ0gyXVtDSDJdT1tDQF00NVtDSDJdW0NIMl1PW0NIMl01

> <s_epik_cmdline>
J2VwaWtfcHl0aG9uJywgJy1waCcsICc3LjAnLCAnLXRuJywgJzgnLCAnLW1hJywgJzIwMCcsICctbWV0YWxfYmluZGluZycsICctaW1hZScsICc8aW5maWxlLm1hZT4nLCAnLW9tYWUnLCAnPG91dGZpbGUubWFlPic=

> <r_lp_tautomer_probability>
1

> <r_epik_Ionization_Penalty>
0.00539389

> <r_epik_Ionization_Penalty_Charging>
0

> <r_epik_Ionization_Penalty_Neutral>
0.00539389

> <r_epik_State_Penalty>
0.00375441

> <r_epik_Charging_Adjusted_Penalty>
0.00375441

> <i_epik_Tot_Q>
0

> <i_epik_Tot_abs_Q>
0

> <r_epik_Metal_State_Penalty>
-0

> <b_epik_Metal_Only>
0

> <s_lp_Force_Field>
OPLS_2005

> <r_lp_Energy>
53.4902

> <b_lp_Chiralities_Consistent>
1

> <s_lp_Variant>
AV-unprocessed.smi:264-4

> <Gold.Version>
5.8.1

> <Gold.Id.Protein>
6NUR|6NUR_protein|mol2

> <Gold.PLP.Fitness>
36.3729

> <Gold.PLP.PLP>
-31.5201

> <Gold.PLP.part.hbond>
-2.9428

> <Gold.PLP.part.metal>
0.0000

> <Gold.PLP.part.buried>
-3.8023

> <Gold.PLP.part.nonpolar>
-25.1587

> <Gold.PLP.part.repulsive>
0.6153

> <Gold.PLP.ligand.clash>
0.0000

> <Gold.PLP.ligand.torsion>
1.7206

> <Gold.PLP.Chemscore.Hbond>
1.7520

> <Gold.PLP.Chemscore.CHOScore>
0.9163

> <Gold.PLP.Chemscore.Metal>
0.0000

> <Gold.Chemscore.Hbonds>
donor molecule, donor type, donor heavy atom, donor atom, acceptor molecule, acceptor atom, score
      L1  H     7    36       P1 10175  0.93
      P1  H  7989  7998       L1    17  0.29

> <Gold.PLP.Chemscore.Internal.Correction>
0.2891

> <Gold.Rescore>
     Score         DG    S(hbond)    S(metal)    S(lipo)     H(rot)  DE(clash)    DE(int)     intcor
      7.89     -12.21       1.23        0.00      68.48       2.11       0.31       4.02       ----

> <Gold.Chemscore.Fitness>
7.8912

> <Gold.Chemscore.DG>
-12.2149

> <Gold.Chemscore.ZeroCoef>
-5.4800

> <Gold.Chemscore.Hbond>
1.2321

> <Gold.Chemscore.Metal>
0.0000

> <Gold.Chemscore.Lipo>
68.4767

> <Gold.Chemscore.Internal_Hbond>
0.0000

> <Gold.Chemscore.DEClash>
0.3081

> <Gold.Chemscore.DEInternal>
4.0156

> <Gold.Chemscore.Rot>
2.1063

> <Gold.Chemscore.Internal.Correction>
   9.000000E+99

> <Gold.Chemscore.Hbonds>
donor molecule, donor type, donor heavy atom, donor atom, acceptor molecule, acceptor atom, score
      L1  H     7    36       P1 10175  0.91
      P1  H  7989  7998       L1    17  0.01

> <Gold.Chemscore.Hbond.Weighted>
-4.1153

> <Gold.Chemscore.Metal.Weighted>
-0.0000

> <Gold.Chemscore.Lipo.Weighted>
-8.0118

> <Gold.Chemscore.Internal_Hbond.Weighted>
0.0000

> <Gold.Chemscore.DEClash.Weighted>
0.3081

> <Gold.Chemscore.DEInternal.Weighted>
4.0156

> <Gold.Chemscore.Rot.Weighted>
5.3921

> <Gold.Chemscore.Internal.Correction.Weighted>
   9.000000E+99

> <Gold.Protein.RotatedTorsions>
[ 6907 6896 6895 6894 ] final  156.58 input  -60.11 | X-H torsion
[ 7974 7965 7964 7962 ] final  -45.35 input  175.53 | X-H torsion
[ 8008 7997 7996 7995 ] final  -12.87 input   59.86 | X-H torsion
[ 10167 10162 10161 10158 ] final   26.49 input  -65.29 | X-H torsion
[ 10718 10713 10712 10709 ] final  -65.95 input   66.30 | X-H torsion
[ 10763 10752 10751 10750 ] final  154.32 input  -60.55 | X-H torsion
[ 11005 11000 10999 10996 ] final  -43.66 input  -57.11 | X-H torsion

> <Gold.Protein.ActiveResidues>
 VAL166  LYS551  ARG553  GLY616  TRP617  ASP618  TYR619  PRO620  LYS621  CYS622 
 ASP623  PHE694  ASN695  SER759  ASP760  ASP761  ALA762  ILE779  LEU786  VAL792 
 PHE793  MET794  SER795  GLU796  ALA797  LYS798  CYS799  TRP800  GLU811  SER814 

> <Gold.Protein.RotatedAtoms>
  152.0276  133.3924  159.4283 H   0  0  0  0  0  0  0  0  0  0  0  0  # atno 6907 bound_to 6896
  150.6885  134.3556  159.4937 H   0  0  0  0  0  0  0  0  0  0  0  0  # atno 6908 bound_to 6896
  152.1338  134.9114  160.0608 H   0  0  0  0  0  0  0  0  0  0  0  0  # atno 6909 bound_to 6896
  145.9829  140.7264  142.9355 H   0  0  0  0  0  0  0  0  0  0  0  0  # atno 7974 bound_to 7965
  154.5341  140.2265  155.8754 H   0  0  0  0  0  0  0  0  0  0  0  0  # atno 8008 bound_to 7997
  156.1793  140.3104  155.9082 H   0  0  0  0  0  0  0  0  0  0  0  0  # atno 8009 bound_to 7997
  155.3391  140.0449  157.3035 H   0  0  0  0  0  0  0  0  0  0  0  0  # atno 8010 bound_to 7997
  140.5019  144.0302  150.6336 H   0  0  0  0  0  0  0  0  0  0  0  0  # atno 10167 bound_to 10162
  156.0640  130.4255  150.1639 H   0  0  0  0  0  0  0  0  0  0  0  0  # atno 10718 bound_to 10713
  154.1504  135.2815  155.3137 H   0  0  0  0  0  0  0  0  0  0  0  0  # atno 10763 bound_to 10752
  154.6222  135.5463  153.7591 H   0  0  0  0  0  0  0  0  0  0  0  0  # atno 10764 bound_to 10752
  153.0223  135.6442  154.1648 H   0  0  0  0  0  0  0  0  0  0  0  0  # atno 10765 bound_to 10752
  141.0399  133.6784  156.2764 H   0  0  0  0  0  0  0  0  0  0  0  0  # atno 11005 bound_to 11000
  144.6866  140.2939  143.7274 LP  0  0  0  0  0  0  0  0  0  0  0  0  # atno 17320 bound_to 7965
  145.7743  139.1868  143.2194 LP  0  0  0  0  0  0  0  0  0  0  0  0  # atno 17321 bound_to 7965
  140.3600  143.2913  152.0394 LP  0  0  0  0  0  0  0  0  0  0  0  0  # atno 17342 bound_to 10162
  139.4874  144.6310  151.7070 LP  0  0  0  0  0  0  0  0  0  0  0  0  # atno 17343 bound_to 10162
  156.9702  130.9832  151.3460 LP  0  0  0  0  0  0  0  0  0  0  0  0  # atno 17370 bound_to 10713
  157.5668  130.8283  149.8339 LP  0  0  0  0  0  0  0  0  0  0  0  0  # atno 17371 bound_to 10713
  140.6254  134.5319  157.5553 LP  0  0  0  0  0  0  0  0  0  0  0  0  # atno 17394 bound_to 11000
  139.9268  134.8041  156.1046 LP  0  0  0  0  0  0  0  0  0  0  0  0  # atno 17395 bound_to 11000

$$$$
