AV-unprocessed.smi:784|AV-procd|sdf|3718|dock2
  -GOLD-   22720 1143D 1   1.00000     0.00000
 Structure written by MMmdl.
 38 39  0  0  0  0  0  0  0  0  1 V2000
  152.0283  141.7709  159.5223 C   0  0  0  0  0  0  0  0  0  0  0  0
  151.7788  140.3960  158.9767 C   0  0  0  0  0  0  0  0  0  0  0  0
  151.0050  140.0206  157.8444 C   0  0  0  0  0  0  0  0  0  0  0  0
  151.1271  138.6607  157.8074 C   0  0  0  0  0  0  0  0  0  0  0  0
  150.5878  137.6161  156.8908 C   0  0  0  0  0  0  0  0  0  0  0  0
  151.1602  137.9577  155.1726 S   0  0  0  0  0  0  0  0  0  0  0  0
  151.7428  139.3078  155.1381 O   0  0  0  0  0  0  0  0  0  0  0  0
  151.9373  136.8052  154.6912 O   0  0  0  0  0  0  0  0  0  0  0  0
  149.6863  138.0120  154.2772 N   0  0  0  0  0  0  0  0  0  0  0  0
  149.0888  139.2864  153.8712 C   0  0  0  0  0  0  0  0  0  0  0  0
  149.1204  140.2571  155.0687 C   0  0  0  0  0  0  0  0  0  0  0  0
  148.8383  141.7152  154.6697 C   0  0  0  0  0  0  0  0  0  0  0  0
  147.3531  142.1163  154.6280 C   0  0  0  0  0  0  0  0  0  0  0  0
  146.3745  141.0773  154.0519 C   0  0  0  0  0  0  0  0  0  0  0  0
  146.9035  140.2612  152.8613 C   0  0  0  0  0  0  0  0  0  0  0  0
  147.6868  139.0112  153.2973 C   0  0  0  0  0  0  0  0  0  0  0  0
  151.9078  138.2320  158.8320 O   0  0  0  0  0  0  0  0  0  0  0  0
  152.3194  139.3458  159.5718 N   0  0  0  0  0  0  0  0  0  0  0  0
  151.3137  142.4891  159.1201 H   0  0  0  0  0  0  0  0  0  0  0  0
  153.0286  142.1179  159.2631 H   0  0  0  0  0  0  0  0  0  0  0  0
  151.9389  141.7890  160.6090 H   0  0  0  0  0  0  0  0  0  0  0  0
  150.4522  140.6502  157.1634 H   0  0  0  0  0  0  0  0  0  0  0  0
  150.9324  136.6259  157.1880 H   0  0  0  0  0  0  0  0  0  0  0  0
  149.4982  137.6157  156.9023 H   0  0  0  0  0  0  0  0  0  0  0  0
  149.5428  137.2300  153.6385 H   0  0  0  0  0  0  0  0  0  0  0  0
  149.7061  139.7092  153.0776 H   0  0  0  0  0  0  0  0  0  0  0  0
  148.4436  139.9318  155.8599 H   0  0  0  0  0  0  0  0  0  0  0  0
  150.1215  140.2258  155.5018 H   0  0  0  0  0  0  0  0  0  0  0  0
  149.3423  142.3776  155.3744 H   0  0  0  0  0  0  0  0  0  0  0  0
  149.3011  141.9235  153.7044 H   0  0  0  0  0  0  0  0  0  0  0  0
  147.0231  142.3696  155.6361 H   0  0  0  0  0  0  0  0  0  0  0  0
  147.2697  143.0401  154.0546 H   0  0  0  0  0  0  0  0  0  0  0  0
  146.0565  140.3977  154.8436 H   0  0  0  0  0  0  0  0  0  0  0  0
  145.4689  141.6030  153.7473 H   0  0  0  0  0  0  0  0  0  0  0  0
  146.0449  139.9242  152.2795 H   0  0  0  0  0  0  0  0  0  0  0  0
  147.4941  140.8827  152.1873 H   0  0  0  0  0  0  0  0  0  0  0  0
  147.7929  138.3574  152.4307 H   0  0  0  0  0  0  0  0  0  0  0  0
  147.0943  138.4468  154.0187 H   0  0  0  0  0  0  0  0  0  0  0  0
  1  2  1  0  0  0  0
  1 19  1  0  0  0  0
  1 20  1  0  0  0  0
  1 21  1  0  0  0  0
  2 18  2  0  0  0  0
  2  3  1  0  0  0  0
  3  4  2  0  0  0  0
  3 22  1  0  0  0  0
  4  5  1  0  0  0  0
  4 17  1  0  0  0  0
  5  6  1  0  0  0  0
  5 23  1  0  0  0  0
  5 24  1  0  0  0  0
  6  7  2  0  0  0  0
  6  8  2  0  0  0  0
  6  9  1  0  0  0  0
  9 10  1  0  0  0  0
  9 25  1  0  0  0  0
 10 16  1  0  0  0  0
 10 11  1  0  0  0  0
 10 26  1  0  0  0  0
 11 12  1  0  0  0  0
 11 27  1  0  0  0  0
 11 28  1  0  0  0  0
 12 13  1  0  0  0  0
 12 29  1  0  0  0  0
 12 30  1  0  0  0  0
 13 14  1  0  0  0  0
 13 31  1  0  0  0  0
 13 32  1  0  0  0  0
 14 15  1  0  0  0  0
 14 33  1  0  0  0  0
 14 34  1  0  0  0  0
 15 16  1  0  0  0  0
 15 35  1  0  0  0  0
 15 36  1  0  0  0  0
 16 37  1  0  0  0  0
 16 38  1  0  0  0  0
 17 18  1  0  0  0  0
M  END
> <s_m_source_file>
AV-unprocessed.smi

> <i_m_source_file_index>
784

> <i_lp_mmshare_version>
43012

> <i_f3d_flags>
0

> <s_epik_input>
W0NIM11jMVtjSF1jKG9uMSlbQ0gyXVMoPU8pKD1PKVtOSF1bQ0hdMltDSDJdW0NIMl1bQ0gyXVtDSDJdW0NIMl1bQ0gyXTI=

> <s_epik_cmdline>
J2VwaWtfcHl0aG9uJywgJy1waCcsICc3LjAnLCAnLXRuJywgJzgnLCAnLW1hJywgJzIwMCcsICctbWV0YWxfYmluZGluZycsICctaW1hZScsICc8aW5maWxlLm1hZT4nLCAnLW9tYWUnLCAnPG91dGZpbGUubWFlPic=

> <r_lp_tautomer_probability>
1

> <r_epik_Ionization_Penalty>
4.92328e-05

> <r_epik_Ionization_Penalty_Charging>
0

> <r_epik_Ionization_Penalty_Neutral>
4.92328e-05

> <r_epik_State_Penalty>
-0

> <r_epik_Charging_Adjusted_Penalty>
0

> <i_epik_Tot_Q>
0

> <i_epik_Tot_abs_Q>
0

> <r_epik_Metal_State_Penalty>
0.0438012

> <b_epik_Metal_Only>
0

> <s_lp_Force_Field>
OPLS_2005

> <r_lp_Energy>
5.5121

> <b_lp_Chiralities_Consistent>
1

> <s_lp_Variant>
AV-unprocessed.smi:784-1

> <Gold.Version>
5.8.1

> <Gold.Id.Protein>
6NUR|6NUR_protein|mol2

> <Gold.PLP.Fitness>
33.9025

> <Gold.PLP.PLP>
-25.3974

> <Gold.PLP.part.hbond>
-2.7038

> <Gold.PLP.part.metal>
0.0000

> <Gold.PLP.part.buried>
2.1198

> <Gold.PLP.part.nonpolar>
-25.5766

> <Gold.PLP.part.repulsive>
0.2948

> <Gold.PLP.ligand.clash>
0.0000

> <Gold.PLP.ligand.torsion>
0.7187

> <Gold.PLP.Chemscore.Hbond>
2.9420

> <Gold.PLP.Chemscore.CHOScore>
0.0000

> <Gold.PLP.Chemscore.Metal>
0.0000

> <Gold.Chemscore.Hbonds>
donor molecule, donor type, donor heavy atom, donor atom, acceptor molecule, acceptor atom, score
      L1  H     9    25       P1  7948  0.84
      P1  H  7989  7998       L1     7  0.44
      P1  H 10752 10764       L1     8  1.00

> <Gold.PLP.Chemscore.Internal.Correction>
1.1165

> <Gold.Rescore>
     Score         DG    S(hbond)    S(metal)    S(lipo)     H(rot)  DE(clash)    DE(int)     intcor
     15.74     -19.46       2.70        0.00      72.52       1.37       1.60       2.12       ----

> <Gold.Chemscore.Fitness>
15.7396

> <Gold.Chemscore.DG>
-19.4584

> <Gold.Chemscore.ZeroCoef>
-5.4800

> <Gold.Chemscore.Hbond>
2.6978

> <Gold.Chemscore.Metal>
0.0000

> <Gold.Chemscore.Lipo>
72.5164

> <Gold.Chemscore.Internal_Hbond>
0.0000

> <Gold.Chemscore.DEClash>
1.5965

> <Gold.Chemscore.DEInternal>
2.1222

> <Gold.Chemscore.Rot>
1.3738

> <Gold.Chemscore.Internal.Correction>
   9.000000E+99

> <Gold.Chemscore.Hbonds>
donor molecule, donor type, donor heavy atom, donor atom, acceptor molecule, acceptor atom, score
      L1  H     9    25       P1  7948  0.72
      P1  H  7989  7998       L1     7  0.42
      P1  H 10752 10764       L1     8  0.93

> <Gold.Chemscore.Hbond.Weighted>
-9.0108

> <Gold.Chemscore.Metal.Weighted>
-0.0000

> <Gold.Chemscore.Lipo.Weighted>
-8.4844

> <Gold.Chemscore.Internal_Hbond.Weighted>
0.0000

> <Gold.Chemscore.DEClash.Weighted>
1.5965

> <Gold.Chemscore.DEInternal.Weighted>
2.1222

> <Gold.Chemscore.Rot.Weighted>
3.5168

> <Gold.Chemscore.Internal.Correction.Weighted>
   9.000000E+99

> <Gold.Protein.RotatedTorsions>
[ 6907 6896 6895 6894 ] final -148.57 input  -60.11 | X-H torsion
[ 7974 7965 7964 7962 ] final  160.79 input  175.53 | X-H torsion
[ 8008 7997 7996 7995 ] final  -48.74 input   59.86 | X-H torsion
[ 10167 10162 10161 10158 ] final   -8.47 input  -65.29 | X-H torsion
[ 10718 10713 10712 10709 ] final   52.03 input   66.30 | X-H torsion
[ 10763 10752 10751 10750 ] final  -75.22 input  -60.55 | X-H torsion
[ 11005 11000 10999 10996 ] final  176.74 input  -57.11 | X-H torsion

> <Gold.Protein.ActiveResidues>
 VAL166  LYS551  ARG553  GLY616  TRP617  ASP618  TYR619  PRO620  LYS621  CYS622 
 ASP623  PHE694  ASN695  SER759  ASP760  ASP761  ALA762  ILE779  LEU786  VAL792 
 PHE793  MET794  SER795  GLU796  ALA797  LYS798  CYS799  TRP800  GLU811  SER814 

> <Gold.Protein.RotatedAtoms>
  151.1717  133.4780  159.2593 H   0  0  0  0  0  0  0  0  0  0  0  0  # atno 6907 bound_to 6896
  151.1349  135.0149  159.8609 H   0  0  0  0  0  0  0  0  0  0  0  0  # atno 6908 bound_to 6896
  152.5461  134.1616  159.8613 H   0  0  0  0  0  0  0  0  0  0  0  0  # atno 6909 bound_to 6896
  144.7718  139.7807  143.6294 H   0  0  0  0  0  0  0  0  0  0  0  0  # atno 7974 bound_to 7965
  154.4033  140.1314  156.4389 H   0  0  0  0  0  0  0  0  0  0  0  0  # atno 8008 bound_to 7997
  155.7478  140.3488  155.5115 H   0  0  0  0  0  0  0  0  0  0  0  0  # atno 8009 bound_to 7997
  155.8978  140.1014  157.1362 H   0  0  0  0  0  0  0  0  0  0  0  0  # atno 8010 bound_to 7997
  140.7060  143.5965  150.8841 H   0  0  0  0  0  0  0  0  0  0  0  0  # atno 10167 bound_to 10162
  157.5036  130.8454  149.8347 H   0  0  0  0  0  0  0  0  0  0  0  0  # atno 10718 bound_to 10713
  154.4836  135.5838  153.6407 H   0  0  0  0  0  0  0  0  0  0  0  0  # atno 10763 bound_to 10752
  152.9851  135.6095  154.3215 H   0  0  0  0  0  0  0  0  0  0  0  0  # atno 10764 bound_to 10752
  154.3108  135.2845  155.2546 H   0  0  0  0  0  0  0  0  0  0  0  0  # atno 10765 bound_to 10752
  140.3765  134.6984  157.4424 H   0  0  0  0  0  0  0  0  0  0  0  0  # atno 11005 bound_to 11000
  146.1870  139.5091  142.9829 LP  0  0  0  0  0  0  0  0  0  0  0  0  # atno 17320 bound_to 7965
  145.6300  141.0306  143.1868 LP  0  0  0  0  0  0  0  0  0  0  0  0  # atno 17321 bound_to 7965
  139.9690  143.6079  152.2979 LP  0  0  0  0  0  0  0  0  0  0  0  0  # atno 17342 bound_to 10162
  139.6658  144.7662  151.1875 LP  0  0  0  0  0  0  0  0  0  0  0  0  # atno 17343 bound_to 10162
  156.0245  130.3784  150.1865 LP  0  0  0  0  0  0  0  0  0  0  0  0  # atno 17370 bound_to 10713
  157.0054  130.9935  151.3380 LP  0  0  0  0  0  0  0  0  0  0  0  0  # atno 17371 bound_to 10713
  140.0511  134.6129  155.8860 LP  0  0  0  0  0  0  0  0  0  0  0  0  # atno 17394 bound_to 11000
  141.1938  133.6580  156.5563 LP  0  0  0  0  0  0  0  0  0  0  0  0  # atno 17395 bound_to 11000

$$$$
