AV-unprocessed.smi:1754|AV-procd|sdf|7066|dock4
  -GOLD-   22720 8283D 1   1.00000     0.00000
 Structure written by MMmdl.
 44 45  0  0  0  0  0  0  0  0  1 V2000
  153.1114  142.1770  161.8207 C   0  0  0  0  0  0  0  0  0  0  0  0
  153.5886  142.6231  160.4296 C   0  0  0  0  0  0  0  0  0  0  0  0
  152.5051  142.6971  159.4463 N   0  0  0  0  0  0  0  0  0  0  0  0
  152.3993  143.9306  158.6673 C   0  0  0  0  0  0  0  0  0  0  0  0
  151.6102  145.0308  159.3935 C   0  0  0  0  0  0  0  0  0  0  0  0
  152.1446  141.5241  158.7457 C   0  0  0  0  0  0  0  0  0  0  0  0
  152.5925  140.2626  159.2017 C   0  0  0  0  0  0  0  0  0  0  0  0
  152.2136  139.1013  158.5017 C   0  0  0  0  0  0  0  0  0  0  0  0
  151.3969  139.2291  157.3539 C   0  0  0  0  0  0  0  0  0  0  0  0
  150.9311  138.1419  156.5653 N   0  0  0  0  0  0  0  0  0  0  0  0
  151.0533  136.8174  156.7830 C   0  0  0  0  0  0  0  0  0  0  0  0
  151.6351  136.3130  157.7404 O   0  0  0  0  0  0  0  0  0  0  0  0
  150.4921  136.0488  155.8321 N   0  0  0  0  0  0  0  0  0  0  0  0
  150.4417  134.5877  155.7566 C   0  0  2  0  0  0  0  0  0  0  0  0
  149.7493  133.9978  156.9997 C   0  0  0  0  0  0  0  0  0  0  0  0
  150.0382  132.4926  157.0596 C   0  0  0  0  0  0  0  0  0  0  0  0
  151.6852  132.2587  156.2894 S   0  0  0  0  0  0  0  0  0  0  0  0
  152.6929  132.0299  157.3359 O   0  0  0  0  0  0  0  0  0  0  0  0
  151.5515  131.3367  155.1513 O   0  0  0  0  0  0  0  0  0  0  0  0
  151.8485  133.9735  155.6663 C   0  0  0  0  0  0  0  0  0  0  0  0
  150.9918  140.5272  156.9846 C   0  0  0  0  0  0  0  0  0  0  0  0
  151.3523  141.6424  157.6527 N   0  0  0  0  0  0  0  0  0  0  0  0
  153.9406  142.1782  162.5281 H   0  0  0  0  0  0  0  0  0  0  0  0
  152.6940  141.1704  161.8102 H   0  0  0  0  0  0  0  0  0  0  0  0
  152.3472  142.8520  162.2067 H   0  0  0  0  0  0  0  0  0  0  0  0
  154.0500  143.6069  160.5194 H   0  0  0  0  0  0  0  0  0  0  0  0
  154.3723  141.9558  160.0691 H   0  0  0  0  0  0  0  0  0  0  0  0
  153.3865  144.3040  158.3974 H   0  0  0  0  0  0  0  0  0  0  0  0
  151.9073  143.7001  157.7219 H   0  0  0  0  0  0  0  0  0  0  0  0
  151.5395  145.9248  158.7739 H   0  0  0  0  0  0  0  0  0  0  0  0
  152.0929  145.3161  160.3288 H   0  0  0  0  0  0  0  0  0  0  0  0
  150.5948  144.7078  159.6242 H   0  0  0  0  0  0  0  0  0  0  0  0
  153.2257  140.1759  160.0722 H   0  0  0  0  0  0  0  0  0  0  0  0
  152.5498  138.1448  158.8688 H   0  0  0  0  0  0  0  0  0  0  0  0
  150.4827  138.4031  155.6994 H   0  0  0  0  0  0  0  0  0  0  0  0
  150.0595  136.5392  155.0624 H   0  0  0  0  0  0  0  0  0  0  0  0
  149.8634  134.2765  154.8846 H   0  0  0  0  0  0  0  0  0  0  0  0
  150.1602  134.4658  157.8957 H   0  0  0  0  0  0  0  0  0  0  0  0
  148.6774  134.1983  157.0005 H   0  0  0  0  0  0  0  0  0  0  0  0
  150.0371  132.0993  158.0765 H   0  0  0  0  0  0  0  0  0  0  0  0
  149.3098  131.9355  156.4701 H   0  0  0  0  0  0  0  0  0  0  0  0
  152.2530  133.9673  154.6540 H   0  0  0  0  0  0  0  0  0  0  0  0
  152.5503  134.4965  156.3170 H   0  0  0  0  0  0  0  0  0  0  0  0
  150.3586  140.6788  156.1226 H   0  0  0  0  0  0  0  0  0  0  0  0
  1  2  1  0  0  0  0
  1 23  1  0  0  0  0
  1 24  1  0  0  0  0
  1 25  1  0  0  0  0
  2  3  1  0  0  0  0
  2 26  1  0  0  0  0
  2 27  1  0  0  0  0
  3  4  1  0  0  0  0
  3  6  1  0  0  0  0
  4  5  1  0  0  0  0
  4 28  1  0  0  0  0
  4 29  1  0  0  0  0
  5 30  1  0  0  0  0
  5 31  1  0  0  0  0
  5 32  1  0  0  0  0
  6 22  1  0  0  0  0
  6  7  2  0  0  0  0
  7  8  1  0  0  0  0
  7 33  1  0  0  0  0
  8  9  2  0  0  0  0
  8 34  1  0  0  0  0
  9 10  1  0  0  0  0
  9 21  1  0  0  0  0
 10 11  1  0  0  0  0
 10 35  1  0  0  0  0
 11 12  2  0  0  0  0
 11 13  1  0  0  0  0
 13 14  1  0  0  0  0
 13 36  1  0  0  0  0
 14 20  1  0  0  0  0
 14 15  1  0  0  0  0
 14 37  1  0  0  0  0
 15 16  1  0  0  0  0
 15 38  1  0  0  0  0
 15 39  1  0  0  0  0
 16 17  1  0  0  0  0
 16 40  1  0  0  0  0
 16 41  1  0  0  0  0
 17 18  2  0  0  0  0
 17 19  2  0  0  0  0
 17 20  1  0  0  0  0
 20 42  1  0  0  0  0
 20 43  1  0  0  0  0
 21 22  2  0  0  0  0
 21 44  1  0  0  0  0
M  END
> <s_m_source_file>
AV-unprocessed.smi

> <i_m_source_file_index>
1754

> <i_lp_mmshare_version>
43012

> <i_f3d_flags>
0

> <s_epik_input>
W0NIM11bQ0gyXU4oW0NIMl1bQ0gzXSljMVtjSF1bY0hdYyhbY0hdbjEpW05IXUMoPU8pW05IXVtDQEBIXShbQ0gyXTIpW0NIMl1bQ0gyXVMyKD1PKT1P

> <s_epik_cmdline>
J2VwaWtfcHl0aG9uJywgJy1waCcsICc3LjAnLCAnLXRuJywgJzgnLCAnLW1hJywgJzIwMCcsICctbWV0YWxfYmluZGluZycsICctaW1hZScsICc8aW5maWxlLm1hZT4nLCAnLW9tYWUnLCAnPG91dGZpbGUubWFlPic=

> <r_lp_tautomer_probability>
1

> <r_epik_Ionization_Penalty>
0.615754

> <r_epik_Ionization_Penalty_Charging>
0

> <r_epik_Ionization_Penalty_Neutral>
0.615754

> <r_epik_State_Penalty>
2.08676

> <r_epik_Charging_Adjusted_Penalty>
2.08676

> <i_epik_Tot_Q>
0

> <i_epik_Tot_abs_Q>
0

> <r_epik_Metal_State_Penalty>
1.53042

> <b_epik_Metal_Only>
0

> <s_lp_Force_Field>
OPLS_2005

> <r_lp_Energy>
24.3589

> <b_lp_Chiralities_Consistent>
1

> <s_lp_Variant>
AV-unprocessed.smi:1754-3

> <Gold.Version>
5.8.1

> <Gold.Id.Protein>
6NUR|6NUR_protein|mol2

> <Gold.PLP.Fitness>
41.5105

> <Gold.PLP.PLP>
-37.0819

> <Gold.PLP.part.hbond>
-2.0000

> <Gold.PLP.part.metal>
0.0000

> <Gold.PLP.part.buried>
-5.7790

> <Gold.PLP.part.nonpolar>
-30.4387

> <Gold.PLP.part.repulsive>
0.1009

> <Gold.PLP.ligand.clash>
0.0000

> <Gold.PLP.ligand.torsion>
0.5965

> <Gold.PLP.Chemscore.Hbond>
1.5868

> <Gold.PLP.Chemscore.CHOScore>
0.0000

> <Gold.PLP.Chemscore.Metal>
0.0000

> <Gold.PLP.Chemscore.Internal.Correction>
0.8610

> <Gold.Rescore>
     Score         DG    S(hbond)    S(metal)    S(lipo)     H(rot)  DE(clash)    DE(int)     intcor
     14.87     -16.65       1.63        0.00      79.39       1.39       0.00       1.78       ----

> <Gold.Chemscore.Fitness>
14.8714

> <Gold.Chemscore.DG>
-16.6522

> <Gold.Chemscore.ZeroCoef>
-5.4800

> <Gold.Chemscore.Hbond>
1.6276

> <Gold.Chemscore.Metal>
0.0000

> <Gold.Chemscore.Lipo>
79.3866

> <Gold.Chemscore.Internal_Hbond>
0.0000

> <Gold.Chemscore.DEClash>
0.0021

> <Gold.Chemscore.DEInternal>
1.7786

> <Gold.Chemscore.Rot>
1.3876

> <Gold.Chemscore.Internal.Correction>
   9.000000E+99

> <Gold.Chemscore.Hbonds>
donor molecule, donor type, donor heavy atom, donor atom, acceptor molecule, acceptor atom, score
      P1  H  6896  6909       L1    12  0.01

> <Gold.Chemscore.Hbond.Weighted>
-5.4363

> <Gold.Chemscore.Metal.Weighted>
-0.0000

> <Gold.Chemscore.Lipo.Weighted>
-9.2882

> <Gold.Chemscore.Internal_Hbond.Weighted>
0.0000

> <Gold.Chemscore.DEClash.Weighted>
0.0021

> <Gold.Chemscore.DEInternal.Weighted>
1.7786

> <Gold.Chemscore.Rot.Weighted>
3.5524

> <Gold.Chemscore.Internal.Correction.Weighted>
   9.000000E+99

> <Gold.Protein.RotatedTorsions>
[ 6907 6896 6895 6894 ] final   82.62 input  -60.11 | X-H torsion
[ 7974 7965 7964 7962 ] final  -80.54 input  175.53 | X-H torsion
[ 8008 7997 7996 7995 ] final  -14.56 input   59.86 | X-H torsion
[ 10167 10162 10161 10158 ] final   80.04 input  -65.29 | X-H torsion
[ 10718 10713 10712 10709 ] final  155.41 input   66.30 | X-H torsion
[ 10763 10752 10751 10750 ] final  -11.76 input  -60.55 | X-H torsion
[ 11005 11000 10999 10996 ] final  111.43 input  -57.11 | X-H torsion

> <Gold.Protein.ActiveResidues>
 VAL166  LYS551  ARG553  GLY616  TRP617  ASP618  TYR619  PRO620  LYS621  CYS622 
 ASP623  PHE694  ASN695  SER759  ASP760  ASP761  ALA762  ILE779  LEU786  VAL792 
 PHE793  MET794  SER795  GLU796  ALA797  LYS798  CYS799  TRP800  GLU811  SER814 

> <Gold.Protein.RotatedAtoms>
  152.5304  134.3021  159.9082 H   0  0  0  0  0  0  0  0  0  0  0  0  # atno 6907 bound_to 6896
  151.2972  133.4132  159.2645 H   0  0  0  0  0  0  0  0  0  0  0  0  # atno 6908 bound_to 6896
  151.0150  134.9442  159.8085 H   0  0  0  0  0  0  0  0  0  0  0  0  # atno 6909 bound_to 6896
  145.5586  140.9485  143.1460 H   0  0  0  0  0  0  0  0  0  0  0  0  # atno 7974 bound_to 7965
  154.5200  140.2219  155.8993 H   0  0  0  0  0  0  0  0  0  0  0  0  # atno 8008 bound_to 7997
  156.1651  140.3134  155.8840 H   0  0  0  0  0  0  0  0  0  0  0  0  # atno 8009 bound_to 7997
  155.3672  140.0464  157.3036 H   0  0  0  0  0  0  0  0  0  0  0  0  # atno 8010 bound_to 7997
  139.9540  144.6007  150.8134 H   0  0  0  0  0  0  0  0  0  0  0  0  # atno 10167 bound_to 10162
  157.2188  131.0714  151.1925 H   0  0  0  0  0  0  0  0  0  0  0  0  # atno 10718 bound_to 10713
  153.4885  135.7017  153.5898 H   0  0  0  0  0  0  0  0  0  0  0  0  # atno 10763 bound_to 10752
  153.4080  135.3855  155.2032 H   0  0  0  0  0  0  0  0  0  0  0  0  # atno 10764 bound_to 10752
  154.8718  135.3897  154.4342 H   0  0  0  0  0  0  0  0  0  0  0  0  # atno 10765 bound_to 10752
  139.8903  134.9508  156.6432 H   0  0  0  0  0  0  0  0  0  0  0  0  # atno 11005 bound_to 11000
  144.7494  139.7233  143.7279 LP  0  0  0  0  0  0  0  0  0  0  0  0  # atno 17320 bound_to 7965
  146.1867  139.5086  142.9831 LP  0  0  0  0  0  0  0  0  0  0  0  0  # atno 17321 bound_to 7965
  140.7574  143.3086  151.2901 LP  0  0  0  0  0  0  0  0  0  0  0  0  # atno 17342 bound_to 10162
  139.6606  144.0196  152.2690 LP  0  0  0  0  0  0  0  0  0  0  0  0  # atno 17343 bound_to 10162
  157.3597  130.7125  149.6494 LP  0  0  0  0  0  0  0  0  0  0  0  0  # atno 17370 bound_to 10713
  155.9684  130.4229  150.4537 LP  0  0  0  0  0  0  0  0  0  0  0  0  # atno 17371 bound_to 10713
  140.7578  133.8843  155.8395 LP  0  0  0  0  0  0  0  0  0  0  0  0  # atno 17394 bound_to 11000
  140.9947  134.1231  157.4374 LP  0  0  0  0  0  0  0  0  0  0  0  0  # atno 17395 bound_to 11000

$$$$
