AV-unprocessed.smi:2136|AV-procd|sdf|8703|dock8
  -GOLD-   2272011463D 1   1.00000     0.00000
 Structure written by MMmdl.
 42 43  0  0  0  0  0  0  0  0  1 V2000
  145.8710  143.1880  157.5739 C   0  0  0  0  0  0  0  0  0  0  0  0
  147.0228  141.8314  158.0422 S   0  0  0  0  0  0  0  0  0  0  0  0
  148.2070  142.4350  158.6708 O   0  0  0  0  0  0  0  0  0  0  0  0
  146.2581  140.8200  158.7881 O   0  0  0  0  0  0  0  0  0  0  0  0
  147.4631  141.1381  156.4916 N   0  0  0  0  0  0  0  0  0  0  0  0
  146.3079  140.6765  155.6826 C   0  0  0  0  0  0  0  0  0  0  0  0
  146.7150  139.8308  154.4703 C   0  0  0  0  0  0  0  0  0  0  0  0
  147.6963  140.5951  153.5906 C   0  0  0  0  0  0  0  0  0  0  0  0
  148.9251  140.9269  154.4306 C   0  0  0  0  0  0  0  0  0  0  0  0
  148.5791  141.7488  155.6971 C   0  0  2  0  0  0  0  0  0  0  0  0
  149.8923  142.0173  156.4472 C   0  0  0  0  0  0  0  0  0  0  0  0
  150.4908  141.0866  156.9862 O   0  0  0  0  0  0  0  0  0  0  0  0
  150.3266  143.2880  156.4760 N   0  0  0  0  0  0  0  0  0  0  0  0
  151.5528  143.7387  157.1205 C   0  0  0  0  0  0  0  0  0  0  0  0
  151.2702  144.8034  158.1926 C   0  0  0  0  0  0  0  0  0  0  0  0
  151.7889  144.3895  159.5551 C   0  0  0  0  0  0  0  0  0  0  0  0
  152.6068  143.2509  159.7056 C   0  0  0  0  0  0  0  0  0  0  0  0
  153.0577  142.9061  160.9944 C   0  0  0  0  0  0  0  0  0  0  0  0
  152.6699  143.7172  162.0798 C   0  0  0  0  0  0  0  0  0  0  0  0
  151.8867  144.8093  161.9472 N   0  0  0  0  0  0  0  0  0  0  0  0
  151.4588  145.1331  160.7079 C   0  0  0  0  0  0  0  0  0  0  0  0
  145.4941  143.6669  158.4771 H   0  0  0  0  0  0  0  0  0  0  0  0
  145.0341  142.7835  157.0060 H   0  0  0  0  0  0  0  0  0  0  0  0
  146.3992  143.9270  156.9720 H   0  0  0  0  0  0  0  0  0  0  0  0
  145.6362  140.0832  156.3025 H   0  0  0  0  0  0  0  0  0  0  0  0
  145.7410  141.5467  155.3500 H   0  0  0  0  0  0  0  0  0  0  0  0
  147.1619  138.8936  154.8048 H   0  0  0  0  0  0  0  0  0  0  0  0
  145.8297  139.5632  153.8927 H   0  0  0  0  0  0  0  0  0  0  0  0
  147.9797  139.9930  152.7267 H   0  0  0  0  0  0  0  0  0  0  0  0
  147.2373  141.5079  153.2085 H   0  0  0  0  0  0  0  0  0  0  0  0
  149.4186  139.9944  154.7107 H   0  0  0  0  0  0  0  0  0  0  0  0
  149.6404  141.4736  153.8140 H   0  0  0  0  0  0  0  0  0  0  0  0
  148.2157  142.7188  155.3545 H   0  0  0  0  0  0  0  0  0  0  0  0
  149.7765  143.9870  155.9980 H   0  0  0  0  0  0  0  0  0  0  0  0
  152.0794  142.8859  157.5528 H   0  0  0  0  0  0  0  0  0  0  0  0
  152.2071  144.1499  156.3512 H   0  0  0  0  0  0  0  0  0  0  0  0
  151.7267  145.7526  157.9081 H   0  0  0  0  0  0  0  0  0  0  0  0
  150.1981  144.9892  158.2710 H   0  0  0  0  0  0  0  0  0  0  0  0
  152.8830  142.6506  158.8510 H   0  0  0  0  0  0  0  0  0  0  0  0
  153.6854  142.0408  161.1478 H   0  0  0  0  0  0  0  0  0  0  0  0
  152.9972  143.4821  163.0817 H   0  0  0  0  0  0  0  0  0  0  0  0
  150.8327  146.0102  160.6345 H   0  0  0  0  0  0  0  0  0  0  0  0
  1  2  1  0  0  0  0
  1 22  1  0  0  0  0
  1 23  1  0  0  0  0
  1 24  1  0  0  0  0
  2  3  2  0  0  0  0
  2  4  2  0  0  0  0
  2  5  1  0  0  0  0
  5 10  1  0  0  0  0
  5  6  1  0  0  0  0
  6  7  1  0  0  0  0
  6 25  1  0  0  0  0
  6 26  1  0  0  0  0
  7  8  1  0  0  0  0
  7 27  1  0  0  0  0
  7 28  1  0  0  0  0
  8  9  1  0  0  0  0
  8 29  1  0  0  0  0
  8 30  1  0  0  0  0
  9 10  1  0  0  0  0
  9 31  1  0  0  0  0
  9 32  1  0  0  0  0
 10 11  1  0  0  0  0
 10 33  1  0  0  0  0
 11 12  2  0  0  0  0
 11 13  1  0  0  0  0
 13 14  1  0  0  0  0
 13 34  1  0  0  0  0
 14 15  1  0  0  0  0
 14 35  1  0  0  0  0
 14 36  1  0  0  0  0
 15 16  1  0  0  0  0
 15 37  1  0  0  0  0
 15 38  1  0  0  0  0
 16 21  1  0  0  0  0
 16 17  2  0  0  0  0
 17 18  1  0  0  0  0
 17 39  1  0  0  0  0
 18 19  2  0  0  0  0
 18 40  1  0  0  0  0
 19 20  1  0  0  0  0
 19 41  1  0  0  0  0
 20 21  2  0  0  0  0
 21 42  1  0  0  0  0
M  END
> <s_m_source_file>
AV-unprocessed.smi

> <i_m_source_file_index>
2136

> <i_lp_mmshare_version>
43012

> <i_f3d_flags>
0

> <s_epik_input>
W0NIM11TKD1PKSg9TylOMVtDSDJdW0NIMl1bQ0gyXVtDSDJdW0NASF0xQyg9TylbTkhdW0NIMl1bQ0gyXWMyW2NIXVtjSF1bY0hdbltjSF0y

> <s_epik_cmdline>
J2VwaWtfcHl0aG9uJywgJy1waCcsICc3LjAnLCAnLXRuJywgJzgnLCAnLW1hJywgJzIwMCcsICctbWV0YWxfYmluZGluZycsICctaW1hZScsICc8aW5maWxlLm1hZT4nLCAnLW9tYWUnLCAnPG91dGZpbGUubWFlPic=

> <r_epik_Ionization_Penalty>
0.0126915

> <r_epik_Ionization_Penalty_Charging>
0

> <r_epik_Ionization_Penalty_Neutral>
0.0126915

> <r_epik_State_Penalty>
0.0098379

> <r_epik_Charging_Adjusted_Penalty>
0.0098379

> <i_epik_Tot_Q>
0

> <i_epik_Tot_abs_Q>
0

> <r_epik_Metal_State_Penalty>
0.00962913

> <b_epik_Metal_Only>
0

> <s_lp_Force_Field>
OPLS_2005

> <r_lp_Energy>
2.71494

> <b_lp_Chiralities_Consistent>
1

> <s_lp_Variant>
AV-unprocessed.smi:2136-2

> <Gold.Version>
5.8.1

> <Gold.Id.Protein>
6NUR|6NUR_protein|mol2

> <Gold.PLP.Fitness>
43.7325

> <Gold.PLP.PLP>
-41.0935

> <Gold.PLP.part.hbond>
-2.3549

> <Gold.PLP.part.metal>
0.0000

> <Gold.PLP.part.buried>
-5.2684

> <Gold.PLP.part.nonpolar>
-33.7760

> <Gold.PLP.part.repulsive>
0.4534

> <Gold.PLP.ligand.clash>
0.0000

> <Gold.PLP.ligand.torsion>
1.0611

> <Gold.PLP.Chemscore.Hbond>
1.3370

> <Gold.PLP.Chemscore.CHOScore>
0.0000

> <Gold.PLP.Chemscore.Metal>
0.0000

> <Gold.Chemscore.Hbonds>
donor molecule, donor type, donor heavy atom, donor atom, acceptor molecule, acceptor atom, score
      L1  H    13    34       P1  8028  0.16
      P1  H  6934  6946       L1     4  0.40

> <Gold.PLP.Chemscore.Internal.Correction>
0.7502

> <Gold.Rescore>
     Score         DG    S(hbond)    S(metal)    S(lipo)     H(rot)  DE(clash)    DE(int)     intcor
     13.82     -18.05       1.27        0.00     111.55       1.84       1.84       2.39       ----

> <Gold.Chemscore.Fitness>
13.8204

> <Gold.Chemscore.DG>
-18.0459

> <Gold.Chemscore.ZeroCoef>
-5.4800

> <Gold.Chemscore.Hbond>
1.2665

> <Gold.Chemscore.Metal>
0.0000

> <Gold.Chemscore.Lipo>
111.5493

> <Gold.Chemscore.Internal_Hbond>
0.0000

> <Gold.Chemscore.DEClash>
1.8393

> <Gold.Chemscore.DEInternal>
2.3862

> <Gold.Chemscore.Rot>
1.8419

> <Gold.Chemscore.Internal.Correction>
   9.000000E+99

> <Gold.Chemscore.Hbonds>
donor molecule, donor type, donor heavy atom, donor atom, acceptor molecule, acceptor atom, score
      L1  H    13    34       P1  8028  0.18
      P1  H  6934  6946       L1     4  0.25

> <Gold.Chemscore.Hbond.Weighted>
-4.2300

> <Gold.Chemscore.Metal.Weighted>
-0.0000

> <Gold.Chemscore.Lipo.Weighted>
-13.0513

> <Gold.Chemscore.Internal_Hbond.Weighted>
0.0000

> <Gold.Chemscore.DEClash.Weighted>
1.8393

> <Gold.Chemscore.DEInternal.Weighted>
2.3862

> <Gold.Chemscore.Rot.Weighted>
4.7153

> <Gold.Chemscore.Internal.Correction.Weighted>
   9.000000E+99

> <Gold.Protein.RotatedTorsions>
[ 6907 6896 6895 6894 ] final  -74.11 input  -60.11 | X-H torsion
[ 7974 7965 7964 7962 ] final -101.05 input  175.53 | X-H torsion
[ 8008 7997 7996 7995 ] final  -78.53 input   59.86 | X-H torsion
[ 10167 10162 10161 10158 ] final   20.06 input  -65.29 | X-H torsion
[ 10718 10713 10712 10709 ] final   78.78 input   66.30 | X-H torsion
[ 10763 10752 10751 10750 ] final  -76.51 input  -60.55 | X-H torsion
[ 11005 11000 10999 10996 ] final  -73.48 input  -57.11 | X-H torsion

> <Gold.Protein.ActiveResidues>
 VAL166  LYS551  ARG553  GLY616  TRP617  ASP618  TYR619  PRO620  LYS621  CYS622 
 ASP623  PHE694  ASN695  SER759  ASP760  ASP761  ALA762  ILE779  LEU786  VAL792 
 PHE793  MET794  SER795  GLU796  ALA797  LYS798  CYS799  TRP800  GLU811  SER814 

> <Gold.Protein.RotatedAtoms>
  150.7105  134.4917  159.5518 H   0  0  0  0  0  0  0  0  0  0  0  0  # atno 6907 bound_to 6896
  152.2533  134.8107  160.0451 H   0  0  0  0  0  0  0  0  0  0  0  0  # atno 6908 bound_to 6896
  151.8846  133.3467  159.3814 H   0  0  0  0  0  0  0  0  0  0  0  0  # atno 6909 bound_to 6896
  145.2866  140.9341  143.2901 H   0  0  0  0  0  0  0  0  0  0  0  0  # atno 7974 bound_to 7965
  154.5698  140.0693  156.8947 H   0  0  0  0  0  0  0  0  0  0  0  0  # atno 8008 bound_to 7997
  155.2656  140.3361  155.4251 H   0  0  0  0  0  0  0  0  0  0  0  0  # atno 8009 bound_to 7997
  156.2109  140.1759  156.7682 H   0  0  0  0  0  0  0  0  0  0  0  0  # atno 8010 bound_to 7997
  140.5532  143.9471  150.6592 H   0  0  0  0  0  0  0  0  0  0  0  0  # atno 10167 bound_to 10162
  157.6756  130.9884  150.1837 H   0  0  0  0  0  0  0  0  0  0  0  0  # atno 10718 bound_to 10713
  154.5008  135.5795  153.6529 H   0  0  0  0  0  0  0  0  0  0  0  0  # atno 10763 bound_to 10752
  152.9878  135.6135  154.3005 H   0  0  0  0  0  0  0  0  0  0  0  0  # atno 10764 bound_to 10752
  154.2912  135.2848  155.2633 H   0  0  0  0  0  0  0  0  0  0  0  0  # atno 10765 bound_to 10752
  141.1623  133.6880  156.7219 H   0  0  0  0  0  0  0  0  0  0  0  0  # atno 11005 bound_to 11000
  144.9208  139.4414  143.6542 LP  0  0  0  0  0  0  0  0  0  0  0  0  # atno 17320 bound_to 7965
  146.3199  139.8067  142.8954 LP  0  0  0  0  0  0  0  0  0  0  0  0  # atno 17321 bound_to 7965
  140.2903  143.3329  152.1069 LP  0  0  0  0  0  0  0  0  0  0  0  0  # atno 17342 bound_to 10162
  139.5036  144.6759  151.6129 LP  0  0  0  0  0  0  0  0  0  0  0  0  # atno 17343 bound_to 10162
  156.2563  130.3706  149.8178 LP  0  0  0  0  0  0  0  0  0  0  0  0  # atno 17370 bound_to 10713
  156.5936  130.8516  151.3414 LP  0  0  0  0  0  0  0  0  0  0  0  0  # atno 17371 bound_to 10713
  140.2810  134.8317  157.3933 LP  0  0  0  0  0  0  0  0  0  0  0  0  # atno 17394 bound_to 11000
  140.1434  134.4943  155.8015 LP  0  0  0  0  0  0  0  0  0  0  0  0  # atno 17395 bound_to 11000

$$$$
