AV-unprocessed.smi:2069|AV-procd|sdf|8434|dock7
  -GOLD-   2272011133D 1   1.00000     0.00000
 Structure written by MMmdl.
 39 40  0  0  0  0  0  0  0  0  2 V2000
  144.1730  133.3797  150.0762 C   0  0  0  0  0  0  0  0  0  0  0  0
  144.1102  134.5714  150.9691 C   0  0  0  0  0  0  0  0  0  0  0  0
  143.1595  134.7297  151.8980 N   0  0  0  0  0  0  0  0  0  0  0  0
  143.3102  135.9121  152.6089 N   0  0  0  0  0  0  0  0  0  0  0  0
  144.3750  136.6121  152.1943 C   0  0  0  0  0  0  0  0  0  0  0  0
  144.7667  137.8573  152.7533 N   0  0  0  0  0  0  0  0  0  0  0  0
  145.7125  138.0933  153.6793 C   0  0  0  0  0  0  0  0  0  0  0  0
  146.4039  137.2354  154.2291 O   0  0  0  0  0  0  0  0  0  0  0  0
  145.8224  139.4036  153.9404 N   0  0  0  0  0  0  0  0  0  0  0  0
  146.7683  139.9854  154.8882 C   0  0  0  0  0  0  0  0  0  0  0  0
  147.3769  141.3256  154.3954 C   0  0  1  0  0  0  0  0  0  0  0  0
  146.2535  142.3644  154.1583 C   0  0  0  0  0  0  0  0  0  0  0  0
  148.4354  141.7949  155.3481 N   0  3  0  0  0  0  0  0  0  0  0  0
  148.0255  141.6476  156.7718 C   0  0  0  0  0  0  0  0  0  0  0  0
  149.0892  142.2286  157.7169 C   0  0  0  0  0  0  0  0  0  0  0  0
  150.3285  141.5736  157.4918 O   0  0  0  0  0  0  0  0  0  0  0  0
  150.7936  141.7795  156.1661 C   0  0  0  0  0  0  0  0  0  0  0  0
  149.7864  141.1978  155.1589 C   0  0  0  0  0  0  0  0  0  0  0  0
  145.2881  135.8760  150.8886 S   0  0  0  0  0  0  0  0  0  0  0  0
  143.1705  132.9987  149.8789 H   0  0  0  0  0  0  0  0  0  0  0  0
  144.7619  132.5928  150.5477 H   0  0  0  0  0  0  0  0  0  0  0  0
  144.6373  133.6445  149.1263 H   0  0  0  0  0  0  0  0  0  0  0  0
  144.2739  138.6637  152.3987 H   0  0  0  0  0  0  0  0  0  0  0  0
  145.2155  140.0428  153.4480 H   0  0  0  0  0  0  0  0  0  0  0  0
  146.2408  140.1461  155.8289 H   0  0  0  0  0  0  0  0  0  0  0  0
  147.5343  139.2401  155.0986 H   0  0  0  0  0  0  0  0  0  0  0  0
  147.8588  141.1620  153.4301 H   0  0  0  0  0  0  0  0  0  0  0  0
  145.4866  141.9832  153.4844 H   0  0  0  0  0  0  0  0  0  0  0  0
  146.6294  143.2737  153.6894 H   0  0  0  0  0  0  0  0  0  0  0  0
  145.7599  142.6384  155.0913 H   0  0  0  0  0  0  0  0  0  0  0  0
  147.0796  142.1497  156.9660 H   0  0  0  0  0  0  0  0  0  0  0  0
  147.8713  140.5915  156.9986 H   0  0  0  0  0  0  0  0  0  0  0  0
  149.1964  143.3051  157.5729 H   0  0  0  0  0  0  0  0  0  0  0  0
  148.7930  142.0741  158.7547 H   0  0  0  0  0  0  0  0  0  0  0  0
  150.9531  142.8439  155.9851 H   0  0  0  0  0  0  0  0  0  0  0  0
  151.7613  141.2906  156.0529 H   0  0  0  0  0  0  0  0  0  0  0  0
  149.7281  140.1138  155.2698 H   0  0  0  0  0  0  0  0  0  0  0  0
  150.1681  141.4060  154.1600 H   0  0  0  0  0  0  0  0  0  0  0  0
  148.5489  142.7835  155.1758 H   0  0  0  0  0  0  0  0  0  0  0  0
  1  2  1  0  0  0  0
  1 20  1  0  0  0  0
  1 21  1  0  0  0  0
  1 22  1  0  0  0  0
  2 19  1  0  0  0  0
  2  3  2  0  0  0  0
  3  4  1  0  0  0  0
  4  5  2  0  0  0  0
  5  6  1  0  0  0  0
  5 19  1  0  0  0  0
  6  7  1  0  0  0  0
  6 23  1  0  0  0  0
  7  8  2  0  0  0  0
  7  9  1  0  0  0  0
  9 10  1  0  0  0  0
  9 24  1  0  0  0  0
 10 11  1  0  0  0  0
 10 25  1  0  0  0  0
 10 26  1  0  0  0  0
 11 12  1  0  0  0  0
 11 13  1  0  0  0  0
 11 27  1  0  0  0  0
 12 28  1  0  0  0  0
 12 29  1  0  0  0  0
 12 30  1  0  0  0  0
 13 18  1  0  0  0  0
 13 14  1  0  0  0  0
 13 39  1  0  0  0  0
 14 15  1  0  0  0  0
 14 31  1  0  0  0  0
 14 32  1  0  0  0  0
 15 16  1  0  0  0  0
 15 33  1  0  0  0  0
 15 34  1  0  0  0  0
 16 17  1  0  0  0  0
 17 18  1  0  0  0  0
 17 35  1  0  0  0  0
 17 36  1  0  0  0  0
 18 37  1  0  0  0  0
 18 38  1  0  0  0  0
M  CHG  1  13   1
M  END
> <s_m_source_file>
AV-unprocessed.smi

> <i_m_source_file_index>
2069

> <i_lp_mmshare_version>
43012

> <i_f3d_flags>
0

> <s_epik_input>
W0NIM11jMW5uYyhzMSlbTkhdQyg9TylbTkhdW0NIMl1bQ0BIXShbQ0gzXSlOMltDSDJdW0NIMl1PW0NIMl1bQ0gyXTI=

> <s_epik_cmdline>
J2VwaWtfcHl0aG9uJywgJy1waCcsICc3LjAnLCAnLXRuJywgJzgnLCAnLW1hJywgJzIwMCcsICctbWV0YWxfYmluZGluZycsICctaW1hZScsICc8aW5maWxlLm1hZT4nLCAnLW9tYWUnLCAnPG91dGZpbGUubWFlPic=

> <r_lp_tautomer_probability>
1

> <r_epik_Ionization_Penalty>
0.70016

> <r_epik_Ionization_Penalty_Charging>
0.695697

> <r_epik_Ionization_Penalty_Neutral>
0.00446266

> <r_epik_State_Penalty>
0.717972

> <r_epik_Charging_Adjusted_Penalty>
1.41367

> <i_epik_Tot_Q>
1

> <i_epik_Tot_abs_Q>
1

> <r_epik_Metal_State_Penalty>
1.06969

> <b_epik_Metal_Only>
0

> <s_lp_Force_Field>
OPLS_2005

> <r_lp_Energy>
18.8851

> <b_lp_Chiralities_Consistent>
1

> <s_lp_Variant>
AV-unprocessed.smi:2069-4

> <Gold.Version>
5.8.1

> <Gold.Id.Protein>
6NUR|6NUR_protein|mol2

> <Gold.PLP.Fitness>
38.7750

> <Gold.PLP.PLP>
-29.4061

> <Gold.PLP.part.hbond>
-3.3806

> <Gold.PLP.part.metal>
0.0000

> <Gold.PLP.part.buried>
-5.1230

> <Gold.PLP.part.nonpolar>
-21.8411

> <Gold.PLP.part.repulsive>
0.6219

> <Gold.PLP.ligand.clash>
0.0000

> <Gold.PLP.ligand.torsion>
1.3382

> <Gold.PLP.Chemscore.Hbond>
4.0000

> <Gold.PLP.Chemscore.CHOScore>
0.0000

> <Gold.PLP.Chemscore.Metal>
0.0000

> <Gold.Chemscore.Hbonds>
donor molecule, donor type, donor heavy atom, donor atom, acceptor molecule, acceptor atom, score
      L1  H     6    23       P1 10175  1.00
      L1  H     9    24       P1 10175  1.00
      L1  H    13    39       P1  8028  2.00

> <Gold.PLP.Chemscore.Internal.Correction>
0.0453

> <Gold.Rescore>
     Score         DG    S(hbond)    S(metal)    S(lipo)     H(rot)  DE(clash)    DE(int)     intcor
     16.29     -17.80       2.91        0.00      58.22       1.65       0.09       1.43       ----

> <Gold.Chemscore.Fitness>
16.2869

> <Gold.Chemscore.DG>
-17.8033

> <Gold.Chemscore.ZeroCoef>
-5.4800

> <Gold.Chemscore.Hbond>
2.9129

> <Gold.Chemscore.Metal>
0.0000

> <Gold.Chemscore.Lipo>
58.2242

> <Gold.Chemscore.Internal_Hbond>
0.0000

> <Gold.Chemscore.DEClash>
0.0859

> <Gold.Chemscore.DEInternal>
1.4305

> <Gold.Chemscore.Rot>
1.6476

> <Gold.Chemscore.Internal.Correction>
   9.000000E+99

> <Gold.Chemscore.Hbonds>
donor molecule, donor type, donor heavy atom, donor atom, acceptor molecule, acceptor atom, score
      L1  H     6    23       P1 10175  0.98
      L1  H     9    24       P1 10175  0.98
      L1  H    13    39       P1  8028  0.94

> <Gold.Chemscore.Hbond.Weighted>
-9.7289

> <Gold.Chemscore.Metal.Weighted>
-0.0000

> <Gold.Chemscore.Lipo.Weighted>
-6.8122

> <Gold.Chemscore.Internal_Hbond.Weighted>
0.0000

> <Gold.Chemscore.DEClash.Weighted>
0.0859

> <Gold.Chemscore.DEInternal.Weighted>
1.4305

> <Gold.Chemscore.Rot.Weighted>
4.2179

> <Gold.Chemscore.Internal.Correction.Weighted>
   9.000000E+99

> <Gold.Protein.RotatedTorsions>
[ 6907 6896 6895 6894 ] final  156.20 input  -60.11 | X-H torsion
[ 7974 7965 7964 7962 ] final  -21.66 input  175.53 | X-H torsion
[ 8008 7997 7996 7995 ] final   -5.29 input   59.86 | X-H torsion
[ 10167 10162 10161 10158 ] final   99.01 input  -65.29 | X-H torsion
[ 10718 10713 10712 10709 ] final  -47.05 input   66.30 | X-H torsion
[ 10763 10752 10751 10750 ] final  -40.19 input  -60.55 | X-H torsion
[ 11005 11000 10999 10996 ] final  -30.38 input  -57.11 | X-H torsion

> <Gold.Protein.ActiveResidues>
 VAL166  LYS551  ARG553  GLY616  TRP617  ASP618  TYR619  PRO620  LYS621  CYS622 
 ASP623  PHE694  ASN695  SER759  ASP760  ASP761  ALA762  ILE779  LEU786  VAL792 
 PHE793  MET794  SER795  GLU796  ALA797  LYS798  CYS799  TRP800  GLU811  SER814 

> <Gold.Protein.RotatedAtoms>
  152.0331  133.3945  159.4305 H   0  0  0  0  0  0  0  0  0  0  0  0  # atno 6907 bound_to 6896
  150.6881  134.3499  159.4913 H   0  0  0  0  0  0  0  0  0  0  0  0  # atno 6908 bound_to 6896
  152.1288  134.9150  160.0610 H   0  0  0  0  0  0  0  0  0  0  0  0  # atno 6909 bound_to 6896
  146.1720  140.4372  142.8528 H   0  0  0  0  0  0  0  0  0  0  0  0  # atno 7974 bound_to 7965
  154.6054  140.2462  155.7738 H   0  0  0  0  0  0  0  0  0  0  0  0  # atno 8008 bound_to 7997
  156.2337  140.2957  156.0208 H   0  0  0  0  0  0  0  0  0  0  0  0  # atno 8009 bound_to 7997
  155.2141  140.0398  157.2928 H   0  0  0  0  0  0  0  0  0  0  0  0  # atno 8010 bound_to 7997
  139.7656  144.6940  151.0228 H   0  0  0  0  0  0  0  0  0  0  0  0  # atno 10167 bound_to 10162
  156.2122  130.4161  149.9100 H   0  0  0  0  0  0  0  0  0  0  0  0  # atno 10718 bound_to 10713
  153.9419  135.6760  153.4744 H   0  0  0  0  0  0  0  0  0  0  0  0  # atno 10763 bound_to 10752
  153.0927  135.4866  154.8717 H   0  0  0  0  0  0  0  0  0  0  0  0  # atno 10764 bound_to 10752
  154.7372  135.3152  154.8749 H   0  0  0  0  0  0  0  0  0  0  0  0  # atno 10765 bound_to 10752
  140.9378  133.7298  156.1030 H   0  0  0  0  0  0  0  0  0  0  0  0  # atno 11005 bound_to 11000
  144.8178  140.6497  143.6373 LP  0  0  0  0  0  0  0  0  0  0  0  0  # atno 17320 bound_to 7965
  145.4314  139.1548  143.4020 LP  0  0  0  0  0  0  0  0  0  0  0  0  # atno 17321 bound_to 7965
  140.7810  143.4646  151.0230 LP  0  0  0  0  0  0  0  0  0  0  0  0  # atno 17342 bound_to 10162
  139.8331  143.7664  152.3180 LP  0  0  0  0  0  0  0  0  0  0  0  0  # atno 17343 bound_to 10162
  156.6774  130.8844  151.3571 LP  0  0  0  0  0  0  0  0  0  0  0  0  # atno 17370 bound_to 10713
  157.7044  130.9369  150.0886 LP  0  0  0  0  0  0  0  0  0  0  0  0  # atno 17371 bound_to 10713
  140.7776  134.3762  157.5494 LP  0  0  0  0  0  0  0  0  0  0  0  0  # atno 17394 bound_to 11000
  139.8812  134.9061  156.2915 LP  0  0  0  0  0  0  0  0  0  0  0  0  # atno 17395 bound_to 11000

$$$$
