AV-unprocessed.smi:1384|AV-procd|sdf|5626|dock1
  -GOLD-   22720 5243D 1   1.00000     0.00000
 Structure written by MMmdl.
 41 42  0  0  0  0  0  0  0  0  1 V2000
  142.3902  143.7299  161.4390 C   0  0  0  0  0  0  0  0  0  0  0  0
  143.7912  143.8504  160.8228 C   0  0  2  0  0  0  0  0  0  0  0  0
  144.8927  143.6806  161.8861 C   0  0  0  0  0  0  0  0  0  0  0  0
  146.2966  143.8007  161.2714 C   0  0  0  0  0  0  0  0  0  0  0  0
  146.4726  145.1363  160.5202 C   0  0  1  0  0  0  0  0  0  0  0  0
  147.7802  145.1978  159.8742 N   0  0  0  0  0  0  0  0  0  0  0  0
  148.9403  144.8101  160.4252 C   0  0  0  0  0  0  0  0  0  0  0  0
  149.0243  144.3403  161.5608 O   0  0  0  0  0  0  0  0  0  0  0  0
  150.1840  144.9694  159.5383 C   0  0  0  0  0  0  0  0  0  0  0  0
  151.0347  143.7676  159.4885 N   0  0  0  0  0  0  0  0  0  0  0  0
  152.1697  143.7587  160.3186 C   0  0  0  0  0  0  0  0  0  0  0  0
  153.0094  142.7154  160.3544 C   0  0  0  0  0  0  0  0  0  0  0  0
  152.7212  141.5790  159.5142 C   0  0  0  0  0  0  0  0  0  0  0  0
  151.6411  141.5613  158.6992 C   0  0  0  0  0  0  0  0  0  0  0  0
  151.3158  140.3611  157.8129 C   0  0  0  0  0  0  0  0  0  0  0  0
  150.0989  139.8884  158.0858 F   0  0  0  0  0  0  0  0  0  0  0  0
  151.3487  140.7096  156.5265 F   0  0  0  0  0  0  0  0  0  0  0  0
  152.1861  139.3656  157.9889 F   0  0  0  0  0  0  0  0  0  0  0  0
  150.7264  142.7209  158.6612 C   0  0  0  0  0  0  0  0  0  0  0  0
  149.7363  142.7564  157.9287 O   0  0  0  0  0  0  0  0  0  0  0  0
  145.3690  145.3117  159.4611 C   0  0  0  0  0  0  0  0  0  0  0  0
  143.9669  145.1880  160.0790 C   0  0  0  0  0  0  0  0  0  0  0  0
  142.2151  144.5077  162.1829 H   0  0  0  0  0  0  0  0  0  0  0  0
  142.2588  142.7645  161.9287 H   0  0  0  0  0  0  0  0  0  0  0  0
  141.6171  143.8192  160.6754 H   0  0  0  0  0  0  0  0  0  0  0  0
  143.8997  143.0445  160.0952 H   0  0  0  0  0  0  0  0  0  0  0  0
  144.7729  144.4342  162.6655 H   0  0  0  0  0  0  0  0  0  0  0  0
  144.7921  142.7118  162.3767 H   0  0  0  0  0  0  0  0  0  0  0  0
  147.0459  143.7078  162.0584 H   0  0  0  0  0  0  0  0  0  0  0  0
  146.4634  142.9674  160.5873 H   0  0  0  0  0  0  0  0  0  0  0  0
  146.3917  145.9581  161.2346 H   0  0  0  0  0  0  0  0  0  0  0  0
  147.8046  145.5687  158.9353 H   0  0  0  0  0  0  0  0  0  0  0  0
  149.8524  145.2413  158.5350 H   0  0  0  0  0  0  0  0  0  0  0  0
  150.7625  145.8271  159.8868 H   0  0  0  0  0  0  0  0  0  0  0  0
  152.3154  144.6499  160.9118 H   0  0  0  0  0  0  0  0  0  0  0  0
  153.8796  142.7256  160.9942 H   0  0  0  0  0  0  0  0  0  0  0  0
  153.3904  140.7327  159.5499 H   0  0  0  0  0  0  0  0  0  0  0  0
  145.4695  146.2823  158.9735 H   0  0  0  0  0  0  0  0  0  0  0  0
  145.4843  144.5599  158.6789 H   0  0  0  0  0  0  0  0  0  0  0  0
  143.2144  145.2800  159.2951 H   0  0  0  0  0  0  0  0  0  0  0  0
  143.7988  146.0182  160.7665 H   0  0  0  0  0  0  0  0  0  0  0  0
  1  2  1  0  0  0  0
  1 23  1  0  0  0  0
  1 24  1  0  0  0  0
  1 25  1  0  0  0  0
  2 22  1  0  0  0  0
  2  3  1  0  0  0  0
  2 26  1  0  0  0  0
  3  4  1  0  0  0  0
  3 27  1  0  0  0  0
  3 28  1  0  0  0  0
  4  5  1  0  0  0  0
  4 29  1  0  0  0  0
  4 30  1  0  0  0  0
  5  6  1  0  0  0  0
  5 21  1  0  0  0  0
  5 31  1  0  0  0  0
  6  7  1  0  0  0  0
  6 32  1  0  0  0  0
  7  8  2  0  0  0  0
  7  9  1  0  0  0  0
  9 10  1  0  0  0  0
  9 33  1  0  0  0  0
  9 34  1  0  0  0  0
 10 19  1  0  0  0  0
 10 11  1  0  0  0  0
 11 12  2  0  0  0  0
 11 35  1  0  0  0  0
 12 13  1  0  0  0  0
 12 36  1  0  0  0  0
 13 14  2  0  0  0  0
 13 37  1  0  0  0  0
 14 15  1  0  0  0  0
 14 19  1  0  0  0  0
 15 16  1  0  0  0  0
 15 17  1  0  0  0  0
 15 18  1  0  0  0  0
 19 20  2  0  0  0  0
 21 22  1  0  0  0  0
 21 38  1  0  0  0  0
 21 39  1  0  0  0  0
 22 40  1  0  0  0  0
 22 41  1  0  0  0  0
M  END
> <s_m_source_file>
AV-unprocessed.smi

> <i_m_source_file_index>
1384

> <i_lp_mmshare_version>
43012

> <i_f3d_flags>
0

> <s_epik_input>
W0NIM11bQ0BASF0xW0NIMl1bQ0gyXVtDQEhdKFtDSDJdW0NIMl0xKVtOSF1DKD1PKVtDSDJdbjJbY0hdW2NIXVtjSF1jKEMoRikoRilGKWMyPU8=

> <s_epik_cmdline>
J2VwaWtfcHl0aG9uJywgJy1waCcsICc3LjAnLCAnLXRuJywgJzgnLCAnLW1hJywgJzIwMCcsICctbWV0YWxfYmluZGluZycsICctaW1hZScsICc8aW5maWxlLm1hZT4nLCAnLW9tYWUnLCAnPG91dGZpbGUubWFlPic=

> <r_lp_tautomer_probability>
1

> <r_epik_Ionization_Penalty>
2.11165e-08

> <r_epik_Ionization_Penalty_Charging>
2.06965e-09

> <r_epik_Ionization_Penalty_Neutral>
1.90469e-08

> <r_epik_State_Penalty>
-0

> <r_epik_Charging_Adjusted_Penalty>
2.06965e-09

> <i_epik_Tot_Q>
0

> <i_epik_Tot_abs_Q>
0

> <r_epik_Metal_State_Penalty>
-0

> <b_epik_Metal_Only>
0

> <s_lp_Force_Field>
OPLS_2005

> <r_lp_Energy>
18.7612

> <b_lp_Chiralities_Consistent>
1

> <s_lp_Variant>
AV-unprocessed.smi:1384-1

> <Gold.Version>
5.8.1

> <Gold.Id.Protein>
6NUR|6NUR_protein|mol2

> <Gold.PLP.Fitness>
46.3933

> <Gold.PLP.PLP>
-43.1350

> <Gold.PLP.part.hbond>
-2.0000

> <Gold.PLP.part.metal>
0.0000

> <Gold.PLP.part.buried>
-9.4324

> <Gold.PLP.part.nonpolar>
-33.8924

> <Gold.PLP.part.repulsive>
0.8885

> <Gold.PLP.ligand.clash>
0.3331

> <Gold.PLP.ligand.torsion>
0.6507

> <Gold.PLP.Chemscore.Hbond>
1.4774

> <Gold.PLP.Chemscore.CHOScore>
0.0000

> <Gold.PLP.Chemscore.Metal>
0.0000

> <Gold.Chemscore.Hbonds>
donor molecule, donor type, donor heavy atom, donor atom, acceptor molecule, acceptor atom, score
      L1  H     6    32       P1  8029  1.00
      P1  H  6933  6944       L1     8  0.53

> <Gold.PLP.Chemscore.Internal.Correction>
0.4609

> <Gold.Rescore>
     Score         DG    S(hbond)    S(metal)    S(lipo)     H(rot)  DE(clash)    DE(int)     intcor
     13.94     -16.83       1.47        0.00      88.40       1.52       0.08       2.80       ----

> <Gold.Chemscore.Fitness>
13.9429

> <Gold.Chemscore.DG>
-16.8325

> <Gold.Chemscore.ZeroCoef>
-5.4800

> <Gold.Chemscore.Hbond>
1.4704

> <Gold.Chemscore.Metal>
0.0000

> <Gold.Chemscore.Lipo>
88.4028

> <Gold.Chemscore.Internal_Hbond>
0.0000

> <Gold.Chemscore.DEClash>
0.0846

> <Gold.Chemscore.DEInternal>
2.8049

> <Gold.Chemscore.Rot>
1.5242

> <Gold.Chemscore.Internal.Correction>
   9.000000E+99

> <Gold.Chemscore.Hbonds>
donor molecule, donor type, donor heavy atom, donor atom, acceptor molecule, acceptor atom, score
      L1  H     6    32       P1  8029  1.00
      P1  H  6933  6944       L1     8  0.33

> <Gold.Chemscore.Hbond.Weighted>
-4.9112

> <Gold.Chemscore.Metal.Weighted>
-0.0000

> <Gold.Chemscore.Lipo.Weighted>
-10.3431

> <Gold.Chemscore.Internal_Hbond.Weighted>
0.0000

> <Gold.Chemscore.DEClash.Weighted>
0.0846

> <Gold.Chemscore.DEInternal.Weighted>
2.8049

> <Gold.Chemscore.Rot.Weighted>
3.9019

> <Gold.Chemscore.Internal.Correction.Weighted>
   9.000000E+99

> <Gold.Protein.RotatedTorsions>
[ 6907 6896 6895 6894 ] final   80.03 input  -60.11 | X-H torsion
[ 7974 7965 7964 7962 ] final -137.17 input  175.53 | X-H torsion
[ 8008 7997 7996 7995 ] final  147.96 input   59.86 | X-H torsion
[ 10167 10162 10161 10158 ] final   72.88 input  -65.29 | X-H torsion
[ 10718 10713 10712 10709 ] final   40.21 input   66.30 | X-H torsion
[ 10763 10752 10751 10750 ] final -168.74 input  -60.55 | X-H torsion
[ 11005 11000 10999 10996 ] final   87.57 input  -57.11 | X-H torsion

> <Gold.Protein.ActiveResidues>
 VAL166  LYS551  ARG553  GLY616  TRP617  ASP618  TYR619  PRO620  LYS621  CYS622 
 ASP623  PHE694  ASN695  SER759  ASP760  ASP761  ALA762  ILE779  LEU786  VAL792 
 PHE793  MET794  SER795  GLU796  ALA797  LYS798  CYS799  TRP800  GLU811  SER814 

> <Gold.Protein.RotatedAtoms>
  152.5220  134.3420  159.9220 H   0  0  0  0  0  0  0  0  0  0  0  0  # atno 6907 bound_to 6896
  151.3370  133.3971  159.2675 H   0  0  0  0  0  0  0  0  0  0  0  0  # atno 6908 bound_to 6896
  150.9834  134.9203  159.7915 H   0  0  0  0  0  0  0  0  0  0  0  0  # atno 6909 bound_to 6896
  144.8865  140.6581  143.5173 H   0  0  0  0  0  0  0  0  0  0  0  0  # atno 7974 bound_to 7965
  156.2807  140.2141  156.5622 H   0  0  0  0  0  0  0  0  0  0  0  0  # atno 8008 bound_to 7997
  154.7204  140.0504  157.0657 H   0  0  0  0  0  0  0  0  0  0  0  0  # atno 8009 bound_to 7997
  155.0486  140.3153  155.4703 H   0  0  0  0  0  0  0  0  0  0  0  0  # atno 8010 bound_to 7997
  140.0305  144.5469  150.7510 H   0  0  0  0  0  0  0  0  0  0  0  0  # atno 10167 bound_to 10162
  157.3795  130.7746  149.7182 H   0  0  0  0  0  0  0  0  0  0  0  0  # atno 10718 bound_to 10713
  154.6597  135.2923  154.9882 H   0  0  0  0  0  0  0  0  0  0  0  0  # atno 10763 bound_to 10752
  154.0946  135.6585  153.4862 H   0  0  0  0  0  0  0  0  0  0  0  0  # atno 10764 bound_to 10752
  153.0422  135.5228  154.7542 H   0  0  0  0  0  0  0  0  0  0  0  0  # atno 10765 bound_to 10752
  139.8916  134.8431  156.2879 H   0  0  0  0  0  0  0  0  0  0  0  0  # atno 11005 bound_to 11000
  145.3860  139.1626  143.4255 LP  0  0  0  0  0  0  0  0  0  0  0  0  # atno 17320 bound_to 7965
  146.3027  140.3945  142.8698 LP  0  0  0  0  0  0  0  0  0  0  0  0  # atno 17321 bound_to 7965
  140.7304  143.2683  151.3973 LP  0  0  0  0  0  0  0  0  0  0  0  0  # atno 17342 bound_to 10162
  139.6079  144.1159  152.2268 LP  0  0  0  0  0  0  0  0  0  0  0  0  # atno 17343 bound_to 10162
  155.9773  130.4065  150.3724 LP  0  0  0  0  0  0  0  0  0  0  0  0  # atno 17370 bound_to 10713
  157.1826  131.0396  151.2741 LP  0  0  0  0  0  0  0  0  0  0  0  0  # atno 17371 bound_to 10713
  140.9996  133.7159  156.0939 LP  0  0  0  0  0  0  0  0  0  0  0  0  # atno 17394 bound_to 11000
  140.7516  134.4039  157.5540 LP  0  0  0  0  0  0  0  0  0  0  0  0  # atno 17395 bound_to 11000

$$$$
