AV-unprocessed.smi:208|AV-procd|sdf|1606|dock9
  -GOLD-   2262019523D 1   1.00000     0.00000
 Structure written by MMmdl.
 50 53  0  0  0  0  0  0  0  0  1 V2000
  153.8468  141.1646  160.7573 C   0  0  0  0  0  0  0  0  0  0  0  0
  152.9169  140.9115  159.5604 C   0  0  0  0  0  0  0  0  0  0  0  0
  151.6301  141.7822  159.5364 C   0  0  1  0  0  0  0  0  0  0  0  0
  151.9370  143.1870  160.1020 C   0  0  0  0  0  0  0  0  0  0  0  0
  152.1802  143.2883  161.3057 O   0  0  0  0  0  0  0  0  0  0  0  0
  151.9245  144.2627  159.2791 N   0  0  0  0  0  0  0  0  0  0  0  0
  152.2045  145.6021  159.7987 C   0  0  0  0  0  0  0  0  0  0  0  0
  151.6156  144.2091  157.8445 C   0  0  0  0  0  0  0  0  0  0  0  0
  151.6294  142.7943  157.2492 C   0  0  0  0  0  0  0  0  0  0  0  0
  151.0417  141.8464  158.1904 N   0  0  0  0  0  0  0  0  0  0  0  0
  150.4014  140.7514  157.7006 C   0  0  0  0  0  0  0  0  0  0  0  0
  150.0425  139.7567  158.5559 N   0  0  0  0  0  0  0  0  0  0  0  0
  149.3795  138.6862  158.1109 C   0  0  0  0  0  0  0  0  0  0  0  0
  148.9832  138.4091  156.8683 N   0  0  0  0  0  0  0  0  0  0  0  0
  149.3547  139.3908  155.9990 C   0  0  0  0  0  0  0  0  0  0  0  0
  150.0598  140.5847  156.3271 C   0  0  0  0  0  0  0  0  0  0  0  0
  150.2659  141.3368  155.1763 N   0  0  0  0  0  0  0  0  0  0  0  0
  149.7006  140.6403  154.2299 C   0  0  0  0  0  0  0  0  0  0  0  0
  149.1363  139.4514  154.6332 N   0  0  0  0  0  0  0  0  0  0  0  0
  148.4478  138.4883  153.7861 C   0  0  0  0  0  0  0  0  0  0  0  0
  147.2426  139.0618  153.0143 C   0  0  0  0  0  0  0  0  0  0  0  0
  147.7405  139.6992  151.7001 C   0  0  0  0  0  0  0  0  0  0  0  0
  148.2074  138.7381  150.7742 O   0  0  0  0  0  0  0  0  0  0  0  0
  146.0144  138.1473  152.8934 C   0  0  0  0  0  0  0  0  0  0  0  0
  145.1380  139.1561  153.4419 O   0  0  0  0  0  0  0  0  0  0  0  0
  146.2906  139.9173  153.8634 C   0  0  0  0  0  0  0  0  0  0  0  0
  154.7910  140.6360  160.6256 H   0  0  0  0  0  0  0  0  0  0  0  0
  153.4155  140.8156  161.6938 H   0  0  0  0  0  0  0  0  0  0  0  0
  154.0745  142.2254  160.8643 H   0  0  0  0  0  0  0  0  0  0  0  0
  153.5070  141.1117  158.6649 H   0  0  0  0  0  0  0  0  0  0  0  0
  152.6668  139.8517  159.5093 H   0  0  0  0  0  0  0  0  0  0  0  0
  150.9155  141.3534  160.2361 H   0  0  0  0  0  0  0  0  0  0  0  0
  153.2418  145.6735  160.1287 H   0  0  0  0  0  0  0  0  0  0  0  0
  151.5586  145.8340  160.6470 H   0  0  0  0  0  0  0  0  0  0  0  0
  152.0410  146.3754  159.0470 H   0  0  0  0  0  0  0  0  0  0  0  0
  150.6209  144.6376  157.7139 H   0  0  0  0  0  0  0  0  0  0  0  0
  152.3032  144.8443  157.2843 H   0  0  0  0  0  0  0  0  0  0  0  0
  151.0932  142.8102  156.2991 H   0  0  0  0  0  0  0  0  0  0  0  0
  152.6533  142.4903  157.0297 H   0  0  0  0  0  0  0  0  0  0  0  0
  149.1279  137.9479  158.8579 H   0  0  0  0  0  0  0  0  0  0  0  0
  149.6877  140.9732  153.2022 H   0  0  0  0  0  0  0  0  0  0  0  0
  149.1809  138.0678  153.0966 H   0  0  0  0  0  0  0  0  0  0  0  0
  148.1271  137.6566  154.4146 H   0  0  0  0  0  0  0  0  0  0  0  0
  146.9460  140.2725  151.2214 H   0  0  0  0  0  0  0  0  0  0  0  0
  148.5641  140.3891  151.8843 H   0  0  0  0  0  0  0  0  0  0  0  0
  148.5436  137.9959  151.2532 H   0  0  0  0  0  0  0  0  0  0  0  0
  145.7571  137.8764  151.8689 H   0  0  0  0  0  0  0  0  0  0  0  0
  146.0485  137.2639  153.5315 H   0  0  0  0  0  0  0  0  0  0  0  0
  146.4579  139.8307  154.9383 H   0  0  0  0  0  0  0  0  0  0  0  0
  146.2363  140.9651  153.5665 H   0  0  0  0  0  0  0  0  0  0  0  0
  1  2  1  0  0  0  0
  1 27  1  0  0  0  0
  1 28  1  0  0  0  0
  1 29  1  0  0  0  0
  2  3  1  0  0  0  0
  2 30  1  0  0  0  0
  2 31  1  0  0  0  0
  3 10  1  0  0  0  0
  3  4  1  0  0  0  0
  3 32  1  0  0  0  0
  4  5  2  0  0  0  0
  4  6  1  0  0  0  0
  6  7  1  0  0  0  0
  6  8  1  0  0  0  0
  7 33  1  0  0  0  0
  7 34  1  0  0  0  0
  7 35  1  0  0  0  0
  8  9  1  0  0  0  0
  8 36  1  0  0  0  0
  8 37  1  0  0  0  0
  9 10  1  0  0  0  0
  9 38  1  0  0  0  0
  9 39  1  0  0  0  0
 10 11  1  0  0  0  0
 11 16  1  0  0  0  0
 11 12  2  0  0  0  0
 12 13  1  0  0  0  0
 13 14  2  0  0  0  0
 13 40  1  0  0  0  0
 14 15  1  0  0  0  0
 15 19  1  0  0  0  0
 15 16  2  0  0  0  0
 16 17  1  0  0  0  0
 17 18  2  0  0  0  0
 18 19  1  0  0  0  0
 18 41  1  0  0  0  0
 19 20  1  0  0  0  0
 20 21  1  0  0  0  0
 20 42  1  0  0  0  0
 20 43  1  0  0  0  0
 21 26  1  0  0  0  0
 21 22  1  0  0  0  0
 21 24  1  0  0  0  0
 22 23  1  0  0  0  0
 22 44  1  0  0  0  0
 22 45  1  0  0  0  0
 23 46  1  0  0  0  0
 24 25  1  0  0  0  0
 24 47  1  0  0  0  0
 24 48  1  0  0  0  0
 25 26  1  0  0  0  0
 26 49  1  0  0  0  0
 26 50  1  0  0  0  0
M  END
> <s_m_source_file>
AV-unprocessed.smi

> <i_m_source_file_index>
208

> <i_lp_mmshare_version>
43012

> <i_f3d_flags>
0

> <s_epik_input>
W0NIM11bQ0gyXVtDQEBIXTFDKD1PKU4oW0NIM10pW0NIMl1bQ0gyXU4xYyhuW2NIXW4yKWMoYzIzKW5bY0hdbjNbQ0gyXUM0KFtDSDJdW09IXSlbQ0gyXU9bQ0gyXTQ=

> <s_epik_cmdline>
J2VwaWtfcHl0aG9uJywgJy1waCcsICc3LjAnLCAnLXRuJywgJzgnLCAnLW1hJywgJzIwMCcsICctbWV0YWxfYmluZGluZycsICctaW1hZScsICc8aW5maWxlLm1hZT4nLCAnLW9tYWUnLCAnPG91dGZpbGUubWFlPic=

> <r_lp_tautomer_probability>
1

> <r_epik_Ionization_Penalty>
0.000581289

> <r_epik_Ionization_Penalty_Charging>
0

> <r_epik_Ionization_Penalty_Neutral>
0.000581289

> <r_epik_State_Penalty>
0.000280365

> <r_epik_Charging_Adjusted_Penalty>
0.000280365

> <i_epik_Tot_Q>
0

> <i_epik_Tot_abs_Q>
0

> <r_epik_Metal_State_Penalty>
-0

> <b_epik_Metal_Only>
0

> <s_lp_Force_Field>
OPLS_2005

> <r_lp_Energy>
42.9171

> <b_lp_Chiralities_Consistent>
1

> <s_lp_Variant>
AV-unprocessed.smi:208-2

> <Gold.Version>
5.8.1

> <Gold.Id.Protein>
6NUR|6NUR_protein|mol2

> <Gold.PLP.Fitness>
48.6054

> <Gold.PLP.PLP>
-42.1288

> <Gold.PLP.part.hbond>
-2.8139

> <Gold.PLP.part.metal>
0.0000

> <Gold.PLP.part.buried>
-5.2604

> <Gold.PLP.part.nonpolar>
-35.0639

> <Gold.PLP.part.repulsive>
0.2768

> <Gold.PLP.ligand.clash>
0.0000

> <Gold.PLP.ligand.torsion>
0.8984

> <Gold.PLP.Chemscore.Hbond>
1.6000

> <Gold.PLP.Chemscore.CHOScore>
0.9950

> <Gold.PLP.Chemscore.Metal>
0.0000

> <Gold.Chemscore.Hbonds>
donor molecule, donor type, donor heavy atom, donor atom, acceptor molecule, acceptor atom, score
      L1  H    23    46       P1  7948  1.00
      L1  C    18    41       P1  7957  1.00

> <Gold.PLP.Chemscore.Internal.Correction>
0.4883

> <Gold.Rescore>
     Score         DG    S(hbond)    S(metal)    S(lipo)     H(rot)  DE(clash)    DE(int)     intcor
      8.65     -12.35       1.00        0.00      84.04       2.46       0.27       3.44       ----

> <Gold.Chemscore.Fitness>
8.6493

> <Gold.Chemscore.DG>
-12.3539

> <Gold.Chemscore.ZeroCoef>
-5.4800

> <Gold.Chemscore.Hbond>
0.9994

> <Gold.Chemscore.Metal>
0.0000

> <Gold.Chemscore.Lipo>
84.0426

> <Gold.Chemscore.Internal_Hbond>
0.0000

> <Gold.Chemscore.DEClash>
0.2686

> <Gold.Chemscore.DEInternal>
3.4359

> <Gold.Chemscore.Rot>
2.4598

> <Gold.Chemscore.Internal.Correction>
   9.000000E+99

> <Gold.Chemscore.Hbonds>
donor molecule, donor type, donor heavy atom, donor atom, acceptor molecule, acceptor atom, score
      L1  H    23    46       P1  7948  0.82

> <Gold.Chemscore.Hbond.Weighted>
-3.3381

> <Gold.Chemscore.Metal.Weighted>
-0.0000

> <Gold.Chemscore.Lipo.Weighted>
-9.8330

> <Gold.Chemscore.Internal_Hbond.Weighted>
0.0000

> <Gold.Chemscore.DEClash.Weighted>
0.2686

> <Gold.Chemscore.DEInternal.Weighted>
3.4359

> <Gold.Chemscore.Rot.Weighted>
6.2972

> <Gold.Chemscore.Internal.Correction.Weighted>
   9.000000E+99

> <Gold.Protein.RotatedTorsions>
[ 6907 6896 6895 6894 ] final  156.10 input  -60.11 | X-H torsion
[ 7974 7965 7964 7962 ] final    4.63 input  175.53 | X-H torsion
[ 8008 7997 7996 7995 ] final   27.32 input   59.86 | X-H torsion
[ 10167 10162 10161 10158 ] final  -96.16 input  -65.29 | X-H torsion
[ 10718 10713 10712 10709 ] final  -57.06 input   66.30 | X-H torsion
[ 10763 10752 10751 10750 ] final  -31.30 input  -60.55 | X-H torsion
[ 11005 11000 10999 10996 ] final  -64.11 input  -57.11 | X-H torsion

> <Gold.Protein.ActiveResidues>
 VAL166  LYS551  ARG553  GLY616  TRP617  ASP618  TYR619  PRO620  LYS621  CYS622 
 ASP623  PHE694  ASN695  SER759  ASP760  ASP761  ALA762  ILE779  LEU786  VAL792 
 PHE793  MET794  SER795  GLU796  ALA797  LYS798  CYS799  TRP800  GLU811  SER814 

> <Gold.Protein.RotatedAtoms>
  152.0346  133.3951  159.4311 H   0  0  0  0  0  0  0  0  0  0  0  0  # atno 6907 bound_to 6896
  150.6880  134.3483  159.4907 H   0  0  0  0  0  0  0  0  0  0  0  0  # atno 6908 bound_to 6896
  152.1273  134.9160  160.0611 H   0  0  0  0  0  0  0  0  0  0  0  0  # atno 6909 bound_to 6896
  146.2443  140.0505  142.8375 H   0  0  0  0  0  0  0  0  0  0  0  0  # atno 7974 bound_to 7965
  155.0411  140.3169  155.4724 H   0  0  0  0  0  0  0  0  0  0  0  0  # atno 8008 bound_to 7997
  156.2854  140.2163  156.5478 H   0  0  0  0  0  0  0  0  0  0  0  0  # atno 8009 bound_to 7997
  154.7289  140.0483  157.0696 H   0  0  0  0  0  0  0  0  0  0  0  0  # atno 8010 bound_to 7997
  140.2967  143.3187  152.0290 H   0  0  0  0  0  0  0  0  0  0  0  0  # atno 10167 bound_to 10162
  156.1240  130.4164  150.0389 H   0  0  0  0  0  0  0  0  0  0  0  0  # atno 10718 bound_to 10713
  153.7951  135.6894  153.4865 H   0  0  0  0  0  0  0  0  0  0  0  0  # atno 10763 bound_to 10752
  153.1724  135.4537  154.9919 H   0  0  0  0  0  0  0  0  0  0  0  0  # atno 10764 bound_to 10752
  154.8029  135.3345  154.7444 H   0  0  0  0  0  0  0  0  0  0  0  0  # atno 10765 bound_to 10752
  141.1414  133.6661  156.5783 H   0  0  0  0  0  0  0  0  0  0  0  0  # atno 11005 bound_to 11000
  145.0989  140.9333  143.4725 LP  0  0  0  0  0  0  0  0  0  0  0  0  # atno 17320 bound_to 7965
  145.0693  139.3044  143.5840 LP  0  0  0  0  0  0  0  0  0  0  0  0  # atno 17321 bound_to 7965
  139.4925  144.6486  151.6726 LP  0  0  0  0  0  0  0  0  0  0  0  0  # atno 17342 bound_to 10162
  140.5686  144.0147  150.6205 LP  0  0  0  0  0  0  0  0  0  0  0  0  # atno 17343 bound_to 10162
  156.8319  130.9395  151.3636 LP  0  0  0  0  0  0  0  0  0  0  0  0  # atno 17370 bound_to 10713
  157.6423  130.8815  149.9471 LP  0  0  0  0  0  0  0  0  0  0  0  0  # atno 17371 bound_to 10713
  140.3858  134.7484  157.4690 LP  0  0  0  0  0  0  0  0  0  0  0  0  # atno 17394 bound_to 11000
  140.0603  134.6004  155.8756 LP  0  0  0  0  0  0  0  0  0  0  0  0  # atno 17395 bound_to 11000

$$$$
