AV-unprocessed.smi:1406|AV-procd|sdf|5712|dock4
  -GOLD-   22720 5343D 1   1.00000     0.00000
 Structure written by MMmdl.
 41 43  0  0  0  0  0  0  0  0  2 V2000
  153.5558  138.9902  154.6427 C   0  0  0  0  0  0  0  0  0  0  0  0
  152.3053  138.8402  155.5331 C   0  0  1  0  0  0  0  0  0  0  0  0
  151.4136  140.0979  155.5335 C   0  0  0  0  0  0  0  0  0  0  0  0
  150.8697  140.4837  154.4980 O   0  0  0  0  0  0  0  0  0  0  0  0
  151.2855  140.7510  156.7006 N   0  0  0  0  0  0  0  0  0  0  0  0
  150.4828  141.9533  156.9030 C   0  0  1  0  0  0  0  0  0  0  0  0
  149.2578  141.7184  157.7963 C   0  0  0  0  0  0  0  0  0  0  0  0
  149.0360  143.0531  158.5299 C   0  0  0  0  0  0  0  0  0  0  0  0
  150.1212  143.9553  158.0832 N   0  3  1  0  0  0  0  0  0  0  0  0
  150.4983  145.0483  159.0158 C   0  0  0  0  0  0  0  0  0  0  0  0
  151.3998  144.5648  160.1641 C   0  0  0  0  0  0  0  0  0  0  0  0
  152.6228  143.8223  159.6161 C   0  0  0  0  0  0  0  0  0  0  0  0
  152.1616  142.6430  158.7538 C   0  0  0  0  0  0  0  0  0  0  0  0
  151.2303  143.1013  157.6018 C   0  0  1  0  0  0  0  0  0  0  0  0
  151.5452  137.6443  155.1826 N   0  0  0  0  0  0  0  0  0  0  0  0
  150.3104  137.5251  154.6895 C   0  0  0  0  0  0  0  0  0  0  0  0
  149.9456  136.2739  154.4483 N   0  0  0  0  0  0  0  0  0  0  0  0
  151.0814  135.6248  154.8423 C   0  0  0  0  0  0  0  0  0  0  0  0
  152.0731  136.3988  155.2828 N   0  0  0  0  0  0  0  0  0  0  0  0
  154.1783  139.8241  154.9688 H   0  0  0  0  0  0  0  0  0  0  0  0
  153.2920  139.1621  153.5982 H   0  0  0  0  0  0  0  0  0  0  0  0
  154.1729  138.0922  154.6843 H   0  0  0  0  0  0  0  0  0  0  0  0
  152.6499  138.7092  156.5599 H   0  0  0  0  0  0  0  0  0  0  0  0
  151.7629  140.3767  157.5080 H   0  0  0  0  0  0  0  0  0  0  0  0
  150.1241  142.3101  155.9350 H   0  0  0  0  0  0  0  0  0  0  0  0
  148.3866  141.4186  157.2128 H   0  0  0  0  0  0  0  0  0  0  0  0
  149.4510  140.9289  158.5244 H   0  0  0  0  0  0  0  0  0  0  0  0
  148.0659  143.4916  158.2939 H   0  0  0  0  0  0  0  0  0  0  0  0
  149.0767  142.8961  159.6082 H   0  0  0  0  0  0  0  0  0  0  0  0
  151.0287  145.8088  158.4415 H   0  0  0  0  0  0  0  0  0  0  0  0
  149.5998  145.5271  159.4064 H   0  0  0  0  0  0  0  0  0  0  0  0
  151.7205  145.4154  160.7664 H   0  0  0  0  0  0  0  0  0  0  0  0
  150.8399  143.9103  160.8328 H   0  0  0  0  0  0  0  0  0  0  0  0
  153.2391  144.5000  159.0239 H   0  0  0  0  0  0  0  0  0  0  0  0
  153.2462  143.4667  160.4371 H   0  0  0  0  0  0  0  0  0  0  0  0
  153.0329  142.1268  158.3496 H   0  0  0  0  0  0  0  0  0  0  0  0
  151.6480  141.9215  159.3904 H   0  0  0  0  0  0  0  0  0  0  0  0
  151.8199  143.6660  156.8781 H   0  0  0  0  0  0  0  0  0  0  0  0
  149.6673  138.3713  154.4962 H   0  0  0  0  0  0  0  0  0  0  0  0
  151.1831  134.5504  154.7964 H   0  0  0  0  0  0  0  0  0  0  0  0
  149.7545  144.4059  157.2566 H   0  0  0  0  0  0  0  0  0  0  0  0
  1  2  1  0  0  0  0
  1 20  1  0  0  0  0
  1 21  1  0  0  0  0
  1 22  1  0  0  0  0
  2  3  1  0  0  0  0
  2 15  1  0  0  0  0
  2 23  1  0  0  0  0
  3  4  2  0  0  0  0
  3  5  1  0  0  0  0
  5  6  1  0  0  0  0
  5 24  1  0  0  0  0
  6 14  1  0  0  0  0
  6  7  1  0  0  0  0
  6 25  1  0  0  0  0
  7  8  1  0  0  0  0
  7 26  1  0  0  0  0
  7 27  1  0  0  0  0
  8  9  1  0  0  0  0
  8 28  1  0  0  0  0
  8 29  1  0  0  0  0
  9 14  1  0  0  0  0
  9 10  1  0  0  0  0
  9 41  1  0  0  0  0
 10 11  1  0  0  0  0
 10 30  1  0  0  0  0
 10 31  1  0  0  0  0
 11 12  1  0  0  0  0
 11 32  1  0  0  0  0
 11 33  1  0  0  0  0
 12 13  1  0  0  0  0
 12 34  1  0  0  0  0
 12 35  1  0  0  0  0
 13 14  1  0  0  0  0
 13 36  1  0  0  0  0
 13 37  1  0  0  0  0
 14 38  1  0  0  0  0
 15 19  1  0  0  0  0
 15 16  1  0  0  0  0
 16 17  2  0  0  0  0
 16 39  1  0  0  0  0
 17 18  1  0  0  0  0
 18 19  2  0  0  0  0
 18 40  1  0  0  0  0
M  CHG  1   9   1
M  END
> <s_m_source_file>
AV-unprocessed.smi

> <i_m_source_file_index>
1406

> <i_lp_mmshare_version>
43012

> <i_f3d_flags>
0

> <s_epik_input>
bjFbY0hdbltjSF1uMVtDQEhdKFtDSDNdKUMoPU8pW05IXVtDQEhdKFtDSDJdW0NIMl0yKVtDQEBIXShOMjMpW0NIMl1bQ0gyXVtDSDJdW0NIMl0z

> <s_epik_cmdline>
J2VwaWtfcHl0aG9uJywgJy1waCcsICc3LjAnLCAnLXRuJywgJzgnLCAnLW1hJywgJzIwMCcsICctbWV0YWxfYmluZGluZycsICctaW1hZScsICc8aW5maWxlLm1hZT4nLCAnLW9tYWUnLCAnPG91dGZpbGUubWFlPic=

> <r_lp_tautomer_probability>
1

> <r_epik_Ionization_Penalty>
0.00197066

> <r_epik_Ionization_Penalty_Charging>
0.00196223

> <r_epik_Ionization_Penalty_Neutral>
8.43107e-06

> <r_epik_State_Penalty>
0.00133866

> <r_epik_Charging_Adjusted_Penalty>
0.00330089

> <i_epik_Tot_Q>
1

> <i_epik_Tot_abs_Q>
1

> <r_epik_Metal_State_Penalty>
-0

> <b_epik_Metal_Only>
0

> <s_lp_Force_Field>
OPLS_2005

> <r_lp_Energy>
42.4798

> <b_lp_Chiralities_Consistent>
1

> <s_lp_Variant>
AV-unprocessed.smi:1406-4

> <Gold.Version>
5.8.1

> <Gold.Id.Protein>
6NUR|6NUR_protein|mol2

> <Gold.PLP.Fitness>
49.8183

> <Gold.PLP.PLP>
-38.1118

> <Gold.PLP.part.hbond>
-3.4614

> <Gold.PLP.part.metal>
0.0000

> <Gold.PLP.part.buried>
-7.0231

> <Gold.PLP.part.nonpolar>
-28.9175

> <Gold.PLP.part.repulsive>
0.4602

> <Gold.PLP.ligand.clash>
0.0000

> <Gold.PLP.ligand.torsion>
0.1970

> <Gold.PLP.Chemscore.Hbond>
4.0000

> <Gold.PLP.Chemscore.CHOScore>
0.0000

> <Gold.PLP.Chemscore.Metal>
0.0000

> <Gold.Chemscore.Hbonds>
donor molecule, donor type, donor heavy atom, donor atom, acceptor molecule, acceptor atom, score
      L1  H     9    41       P1  8028  2.00
      P1  H  7989  7998       L1     4  0.46
      P1  H 10752 10763       L1    19  0.29

> <Gold.PLP.Chemscore.Internal.Correction>
0.1006

> <Gold.Rescore>
     Score         DG    S(hbond)    S(metal)    S(lipo)     H(rot)  DE(clash)    DE(int)     intcor
     19.95     -20.33       2.82        0.00      87.66       1.89       0.21       0.17       ----

> <Gold.Chemscore.Fitness>
19.9495

> <Gold.Chemscore.DG>
-20.3261

> <Gold.Chemscore.ZeroCoef>
-5.4800

> <Gold.Chemscore.Hbond>
2.8200

> <Gold.Chemscore.Metal>
0.0000

> <Gold.Chemscore.Lipo>
87.6644

> <Gold.Chemscore.Internal_Hbond>
0.0000

> <Gold.Chemscore.DEClash>
0.2062

> <Gold.Chemscore.DEInternal>
0.1704

> <Gold.Chemscore.Rot>
1.8865

> <Gold.Chemscore.Internal.Correction>
   9.000000E+99

> <Gold.Chemscore.Hbonds>
donor molecule, donor type, donor heavy atom, donor atom, acceptor molecule, acceptor atom, score
      L1  H     9    41       P1  8028  0.26
      P1  H  7989  7998       L1     4  0.44
      P1  H 10752 10763       L1    19  0.02

> <Gold.Chemscore.Hbond.Weighted>
-9.4189

> <Gold.Chemscore.Metal.Weighted>
-0.0000

> <Gold.Chemscore.Lipo.Weighted>
-10.2567

> <Gold.Chemscore.Internal_Hbond.Weighted>
0.0000

> <Gold.Chemscore.DEClash.Weighted>
0.2062

> <Gold.Chemscore.DEInternal.Weighted>
0.1704

> <Gold.Chemscore.Rot.Weighted>
4.8295

> <Gold.Chemscore.Internal.Correction.Weighted>
   9.000000E+99

> <Gold.Protein.RotatedTorsions>
[ 6907 6896 6895 6894 ] final  -50.47 input  -60.11 | X-H torsion
[ 7974 7965 7964 7962 ] final  -78.58 input  175.53 | X-H torsion
[ 8008 7997 7996 7995 ] final -148.78 input   59.86 | X-H torsion
[ 10167 10162 10161 10158 ] final  -23.74 input  -65.29 | X-H torsion
[ 10718 10713 10712 10709 ] final   43.18 input   66.30 | X-H torsion
[ 10763 10752 10751 10750 ] final   68.78 input  -60.55 | X-H torsion
[ 11005 11000 10999 10996 ] final   26.94 input  -57.11 | X-H torsion

> <Gold.Protein.ActiveResidues>
 VAL166  LYS551  ARG553  GLY616  TRP617  ASP618  TYR619  PRO620  LYS621  CYS622 
 ASP623  PHE694  ASN695  SER759  ASP760  ASP761  ALA762  ILE779  LEU786  VAL792 
 PHE793  MET794  SER795  GLU796  ALA797  LYS798  CYS799  TRP800  GLU811  SER814 

> <Gold.Protein.RotatedAtoms>
  150.8704  134.8076  159.7149 H   0  0  0  0  0  0  0  0  0  0  0  0  # atno 6907 bound_to 6896
  152.4710  134.4956  159.9719 H   0  0  0  0  0  0  0  0  0  0  0  0  # atno 6908 bound_to 6896
  151.5046  133.3459  159.2910 H   0  0  0  0  0  0  0  0  0  0  0  0  # atno 6909 bound_to 6896
  145.5845  140.9442  143.1326 H   0  0  0  0  0  0  0  0  0  0  0  0  # atno 7974 bound_to 7965
  155.5971  140.0658  157.2743 H   0  0  0  0  0  0  0  0  0  0  0  0  # atno 8008 bound_to 7997
  154.4289  140.1825  156.1182 H   0  0  0  0  0  0  0  0  0  0  0  0  # atno 8009 bound_to 7997
  156.0188  140.3319  155.7020 H   0  0  0  0  0  0  0  0  0  0  0  0  # atno 8010 bound_to 7997
  140.7288  143.4416  151.0648 H   0  0  0  0  0  0  0  0  0  0  0  0  # atno 10167 bound_to 10162
  157.4131  130.7925  149.7448 H   0  0  0  0  0  0  0  0  0  0  0  0  # atno 10718 bound_to 10713
  153.0253  135.5234  154.7187 H   0  0  0  0  0  0  0  0  0  0  0  0  # atno 10763 bound_to 10752
  154.6249  135.2893  155.0286 H   0  0  0  0  0  0  0  0  0  0  0  0  # atno 10764 bound_to 10752
  154.1259  135.6600  153.4964 H   0  0  0  0  0  0  0  0  0  0  0  0  # atno 10765 bound_to 10752
  140.3316  134.2432  155.7701 H   0  0  0  0  0  0  0  0  0  0  0  0  # atno 11005 bound_to 11000
  144.7379  139.7533  143.7322 LP  0  0  0  0  0  0  0  0  0  0  0  0  # atno 17320 bound_to 7965
  146.1692  139.4835  142.9938 LP  0  0  0  0  0  0  0  0  0  0  0  0  # atno 17321 bound_to 7965
  139.8084  143.7986  152.3169 LP  0  0  0  0  0  0  0  0  0  0  0  0  # atno 17342 bound_to 10162
  139.8027  144.7368  150.9803 LP  0  0  0  0  0  0  0  0  0  0  0  0  # atno 17343 bound_to 10162
  155.9856  130.3981  150.3251 LP  0  0  0  0  0  0  0  0  0  0  0  0  # atno 17370 bound_to 10713
  157.1391  131.0292  151.2936 LP  0  0  0  0  0  0  0  0  0  0  0  0  # atno 17371 bound_to 10713
  141.2062  133.7840  157.0191 LP  0  0  0  0  0  0  0  0  0  0  0  0  # atno 17394 bound_to 11000
  140.0856  134.9623  157.1694 LP  0  0  0  0  0  0  0  0  0  0  0  0  # atno 17395 bound_to 11000

$$$$
