AV-unprocessed.smi:744|AV-procd|sdf|3570|dock2
  -GOLD-   22720 0563D 1   1.00000     0.00000
 Structure written by MMmdl.
 34 35  0  0  0  0  0  0  0  0  1 V2000
  144.6605  137.2705  152.2843 O   0  0  0  0  0  0  0  0  0  0  0  0
  145.8640  137.0347  152.1765 C   0  0  0  0  0  0  0  0  0  0  0  0
  146.8210  137.9387  152.4324 N   0  0  0  0  0  0  0  0  0  0  0  0
  146.5949  139.3148  152.8655 C   0  0  0  0  0  0  0  0  0  0  0  0
  147.5564  139.7264  153.9997 C   0  0  2  0  0  0  0  0  0  0  0  0
  148.1801  141.1153  153.8210 C   0  0  0  0  0  0  0  0  0  0  0  0
  149.4321  141.1258  154.7113 C   0  0  0  0  0  0  0  0  0  0  0  0
  149.6855  139.6677  155.1272 C   0  0  0  0  0  0  0  0  0  0  0  0
  148.7669  138.8113  154.2489 C   0  0  2  0  0  0  0  0  0  0  0  0
  149.4444  138.5072  153.0438 O   0  0  0  0  0  0  0  0  0  0  0  0
  146.3942  135.8611  151.7888 N   0  0  0  0  0  0  0  0  0  0  0  0
  145.7132  134.6687  151.4247 C   0  0  0  0  0  0  0  0  0  0  0  0
  146.5493  133.5829  151.0787 C   0  0  0  0  0  0  0  0  0  0  0  0
  145.9707  132.3552  150.7026 C   0  0  0  0  0  0  0  0  0  0  0  0
  144.5688  132.2442  150.6830 C   0  0  0  0  0  0  0  0  0  0  0  0
  143.8092  133.3729  151.0413 C   0  0  0  0  0  0  0  0  0  0  0  0
  144.3618  134.5506  151.4014 N   0  0  0  0  0  0  0  0  0  0  0  0
  147.7829  137.6547  152.3184 H   0  0  0  0  0  0  0  0  0  0  0  0
  146.6596  140.0097  152.0265 H   0  0  0  0  0  0  0  0  0  0  0  0
  145.5677  139.3784  153.2255 H   0  0  0  0  0  0  0  0  0  0  0  0
  146.9805  139.7546  154.9267 H   0  0  0  0  0  0  0  0  0  0  0  0
  148.4755  141.2594  152.7806 H   0  0  0  0  0  0  0  0  0  0  0  0
  147.4840  141.9150  154.0757 H   0  0  0  0  0  0  0  0  0  0  0  0
  150.2833  141.5309  154.1630 H   0  0  0  0  0  0  0  0  0  0  0  0
  149.2839  141.7521  155.5916 H   0  0  0  0  0  0  0  0  0  0  0  0
  150.7361  139.3842  155.0494 H   0  0  0  0  0  0  0  0  0  0  0  0
  149.3974  139.5423  156.1717 H   0  0  0  0  0  0  0  0  0  0  0  0
  148.4865  137.8798  154.7419 H   0  0  0  0  0  0  0  0  0  0  0  0
  149.3828  137.5753  152.8917 H   0  0  0  0  0  0  0  0  0  0  0  0
  147.4015  135.8158  151.7461 H   0  0  0  0  0  0  0  0  0  0  0  0
  147.6249  133.6849  151.0998 H   0  0  0  0  0  0  0  0  0  0  0  0
  146.5925  131.5141  150.4338 H   0  0  0  0  0  0  0  0  0  0  0  0
  144.0882  131.3193  150.4010 H   0  0  0  0  0  0  0  0  0  0  0  0
  142.7302  133.3298  151.0395 H   0  0  0  0  0  0  0  0  0  0  0  0
  1  2  2  0  0  0  0
  2  3  1  0  0  0  0
  2 11  1  0  0  0  0
  3  4  1  0  0  0  0
  3 18  1  0  0  0  0
  4  5  1  0  0  0  0
  4 19  1  0  0  0  0
  4 20  1  0  0  0  0
  5  9  1  0  0  0  0
  5  6  1  0  0  0  0
  5 21  1  0  0  0  0
  6  7  1  0  0  0  0
  6 22  1  0  0  0  0
  6 23  1  0  0  0  0
  7  8  1  0  0  0  0
  7 24  1  0  0  0  0
  7 25  1  0  0  0  0
  8  9  1  0  0  0  0
  8 26  1  0  0  0  0
  8 27  1  0  0  0  0
  9 10  1  0  0  0  0
  9 28  1  0  0  0  0
 10 29  1  0  0  0  0
 11 12  1  0  0  0  0
 11 30  1  0  0  0  0
 12 17  1  0  0  0  0
 12 13  2  0  0  0  0
 13 14  1  0  0  0  0
 13 31  1  0  0  0  0
 14 15  2  0  0  0  0
 14 32  1  0  0  0  0
 15 16  1  0  0  0  0
 15 33  1  0  0  0  0
 16 17  2  0  0  0  0
 16 34  1  0  0  0  0
M  END
> <s_m_source_file>
AV-unprocessed.smi

> <i_m_source_file_index>
744

> <i_lp_mmshare_version>
43012

> <i_f3d_flags>
0

> <s_epik_input>
bjFbY0hdW2NIXVtjSF1bY0hdYzFbTkhdQyg9TylbTkhdW0NIMl1bQ0BASF0yW0NIMl1bQ0gyXVtDSDJdW0NASF0yW09IXQ==

> <s_epik_cmdline>
J2VwaWtfcHl0aG9uJywgJy1waCcsICc3LjAnLCAnLXRuJywgJzgnLCAnLW1hJywgJzIwMCcsICctbWV0YWxfYmluZGluZycsICctaW1hZScsICc8aW5maWxlLm1hZT4nLCAnLW9tYWUnLCAnPG91dGZpbGUubWFlPic=

> <r_lp_tautomer_probability>
1

> <r_epik_Ionization_Penalty>
5.04769e-05

> <r_epik_Ionization_Penalty_Charging>
0

> <r_epik_Ionization_Penalty_Neutral>
5.04769e-05

> <r_epik_State_Penalty>
-0

> <r_epik_Charging_Adjusted_Penalty>
0

> <i_epik_Tot_Q>
0

> <i_epik_Tot_abs_Q>
0

> <r_epik_Metal_State_Penalty>
-0

> <b_epik_Metal_Only>
0

> <s_lp_Force_Field>
OPLS_2005

> <r_lp_Energy>
26.8719

> <b_lp_Chiralities_Consistent>
1

> <s_lp_Variant>
AV-unprocessed.smi:744-3

> <Gold.Version>
5.8.1

> <Gold.Id.Protein>
6NUR|6NUR_protein|mol2

> <Gold.PLP.Fitness>
40.7284

> <Gold.PLP.PLP>
-30.4426

> <Gold.PLP.part.hbond>
-3.5486

> <Gold.PLP.part.metal>
0.0000

> <Gold.PLP.part.buried>
-3.3470

> <Gold.PLP.part.nonpolar>
-25.4077

> <Gold.PLP.part.repulsive>
1.7910

> <Gold.PLP.ligand.clash>
0.0000

> <Gold.PLP.ligand.torsion>
0.7519

> <Gold.PLP.Chemscore.Hbond>
2.9280

> <Gold.PLP.Chemscore.CHOScore>
1.0000

> <Gold.PLP.Chemscore.Metal>
0.0000

> <Gold.Chemscore.Hbonds>
donor molecule, donor type, donor heavy atom, donor atom, acceptor molecule, acceptor atom, score
      L1  H     3    18       P1  7948  0.93
      L1  H    10    29       P1  7948  0.99
      L1  H    11    30       P1  7948  1.00
      L1  C    16    34       P1 10186  1.00

> <Gold.PLP.Chemscore.Internal.Correction>
0.0056

> <Gold.Rescore>
     Score         DG    S(hbond)    S(metal)    S(lipo)     H(rot)  DE(clash)    DE(int)     intcor
     15.07     -18.53       2.89        0.00      68.44       1.81       0.09       3.36       ----

> <Gold.Chemscore.Fitness>
15.0713

> <Gold.Chemscore.DG>
-18.5253

> <Gold.Chemscore.ZeroCoef>
-5.4800

> <Gold.Chemscore.Hbond>
2.8921

> <Gold.Chemscore.Metal>
0.0000

> <Gold.Chemscore.Lipo>
68.4358

> <Gold.Chemscore.Internal_Hbond>
0.0000

> <Gold.Chemscore.DEClash>
0.0934

> <Gold.Chemscore.DEInternal>
3.3607

> <Gold.Chemscore.Rot>
1.8052

> <Gold.Chemscore.Internal.Correction>
   9.000000E+99

> <Gold.Chemscore.Hbonds>
donor molecule, donor type, donor heavy atom, donor atom, acceptor molecule, acceptor atom, score
      L1  H     3    18       P1  7948  0.89
      L1  H    10    29       P1  7948  0.86
      L1  H    11    30       P1  7948  0.97

> <Gold.Chemscore.Hbond.Weighted>
-9.6596

> <Gold.Chemscore.Metal.Weighted>
-0.0000

> <Gold.Chemscore.Lipo.Weighted>
-8.0070

> <Gold.Chemscore.Internal_Hbond.Weighted>
0.0000

> <Gold.Chemscore.DEClash.Weighted>
0.0934

> <Gold.Chemscore.DEInternal.Weighted>
3.3607

> <Gold.Chemscore.Rot.Weighted>
4.6212

> <Gold.Chemscore.Internal.Correction.Weighted>
   9.000000E+99

> <Gold.Protein.RotatedTorsions>
[ 6907 6896 6895 6894 ] final  -42.61 input  -60.11 | X-H torsion
[ 7974 7965 7964 7962 ] final -115.71 input  175.53 | X-H torsion
[ 8008 7997 7996 7995 ] final  -98.93 input   59.86 | X-H torsion
[ 10167 10162 10161 10158 ] final -109.14 input  -65.29 | X-H torsion
[ 10718 10713 10712 10709 ] final  -35.12 input   66.30 | X-H torsion
[ 10763 10752 10751 10750 ] final -112.63 input  -60.55 | X-H torsion
[ 11005 11000 10999 10996 ] final -151.44 input  -57.11 | X-H torsion

> <Gold.Protein.ActiveResidues>
 VAL166  LYS551  ARG553  GLY616  TRP617  ASP618  TYR619  PRO620  LYS621  CYS622 
 ASP623  PHE694  ASN695  SER759  ASP760  ASP761  ALA762  ILE779  LEU786  VAL792 
 PHE793  MET794  SER795  GLU796  ALA797  LYS798  CYS799  TRP800  GLU811  SER814 

> <Gold.Protein.RotatedAtoms>
  150.9533  134.8931  159.7685 H   0  0  0  0  0  0  0  0  0  0  0  0  # atno 6907 bound_to 6896
  152.5128  134.3775  159.9349 H   0  0  0  0  0  0  0  0  0  0  0  0  # atno 6908 bound_to 6896
  151.3790  133.3787  159.2743 H   0  0  0  0  0  0  0  0  0  0  0  0  # atno 6909 bound_to 6896
  145.1053  140.8577  143.3902 H   0  0  0  0  0  0  0  0  0  0  0  0  # atno 7974 bound_to 7965
  154.8079  140.0451  157.1321 H   0  0  0  0  0  0  0  0  0  0  0  0  # atno 8008 bound_to 7997
  154.9403  140.3051  155.5104 H   0  0  0  0  0  0  0  0  0  0  0  0  # atno 8009 bound_to 7997
  156.2968  140.2307  156.4471 H   0  0  0  0  0  0  0  0  0  0  0  0  # atno 8010 bound_to 7997
  140.1586  143.4139  152.1442 H   0  0  0  0  0  0  0  0  0  0  0  0  # atno 10167 bound_to 10162
  156.3425  130.4295  149.7775 H   0  0  0  0  0  0  0  0  0  0  0  0  # atno 10718 bound_to 10713
  154.8359  135.4483  154.1224 H   0  0  0  0  0  0  0  0  0  0  0  0  # atno 10763 bound_to 10752
  153.2456  135.6921  153.7741 H   0  0  0  0  0  0  0  0  0  0  0  0  # atno 10764 bound_to 10752
  153.7072  135.3362  155.3214 H   0  0  0  0  0  0  0  0  0  0  0  0  # atno 10765 bound_to 10752
  140.7295  134.3637  157.5169 H   0  0  0  0  0  0  0  0  0  0  0  0  # atno 11005 bound_to 11000
  145.0909  139.2891  143.5735 LP  0  0  0  0  0  0  0  0  0  0  0  0  # atno 17320 bound_to 7965
  146.3528  140.0446  142.8640 LP  0  0  0  0  0  0  0  0  0  0  0  0  # atno 17321 bound_to 7965
  139.5392  144.7240  151.4791 LP  0  0  0  0  0  0  0  0  0  0  0  0  # atno 17342 bound_to 10162
  140.6657  143.8402  150.6939 LP  0  0  0  0  0  0  0  0  0  0  0  0  # atno 17343 bound_to 10162
  156.5006  130.8127  151.3131 LP  0  0  0  0  0  0  0  0  0  0  0  0  # atno 17370 bound_to 10713
  157.7449  130.9946  150.2713 LP  0  0  0  0  0  0  0  0  0  0  0  0  # atno 17371 bound_to 10713
  139.8829  134.9009  156.2798 LP  0  0  0  0  0  0  0  0  0  0  0  0  # atno 17394 bound_to 11000
  140.9933  133.7195  156.0847 LP  0  0  0  0  0  0  0  0  0  0  0  0  # atno 17395 bound_to 11000

$$$$
