AV-unprocessed.smi:240|AV-procd|sdf|1832|dock1
  -GOLD-   2262020433D 1   1.00000     0.00000
 Structure written by MMmdl.
 55 59  0  0  0  0  0  0  0  0  1 V2000
  150.2101  139.9480  153.9106 O   0  0  0  0  0  0  0  0  0  0  0  0
  150.5250  139.1050  154.9993 C   0  0  2  0  0  0  0  0  0  0  0  0
  151.8256  138.3392  154.7576 C   0  0  0  0  0  0  0  0  0  0  0  0
  151.7409  137.1300  155.6955 C   0  0  0  0  0  0  0  0  0  0  0  0
  150.2475  136.9107  155.9878 C   0  0  0  0  0  0  0  0  0  0  0  0
  149.4878  137.9898  155.1937 C   0  0  1  0  0  0  0  0  0  0  0  0
  148.1094  138.4267  155.7774 C   0  0  2  0  0  0  0  0  0  0  0  0
  148.2224  139.3939  156.9842 C   0  0  0  0  0  0  0  0  0  0  0  0
  146.9289  139.7542  157.4557 O   0  0  0  0  0  0  0  0  0  0  0  0
  146.1960  138.6252  157.9109 C   0  0  0  0  0  0  0  0  0  0  0  0
  145.9828  137.6651  156.7340 C   0  0  0  0  0  0  0  0  0  0  0  0
  147.2646  137.2836  156.1527 N   0  0  0  0  0  0  0  0  0  0  0  0
  147.0965  136.3070  155.2325 C   0  0  0  0  0  0  0  0  0  0  0  0
  147.7938  135.1599  155.4209 N   0  0  0  0  0  0  0  0  0  0  0  0
  147.6755  134.1549  154.5483 C   0  0  0  0  0  0  0  0  0  0  0  0
  146.9240  134.0888  153.4471 N   0  0  0  0  0  0  0  0  0  0  0  0
  146.2100  135.2368  153.2638 C   0  0  0  0  0  0  0  0  0  0  0  0
  146.2352  136.3874  154.1012 C   0  0  0  0  0  0  0  0  0  0  0  0
  145.3759  137.3569  153.5988 N   0  0  0  0  0  0  0  0  0  0  0  0
  144.8735  136.8117  152.5248 C   0  0  0  0  0  0  0  0  0  0  0  0
  145.3126  135.5354  152.2531 N   0  0  0  0  0  0  0  0  0  0  0  0
  144.9196  134.6977  151.1296 C   0  0  0  0  0  0  0  0  0  0  0  0
  144.1478  133.4162  151.5354 C   0  0  2  0  0  0  0  0  0  0  0  0
  143.2404  133.7307  152.5759 O   0  0  0  0  0  0  0  0  0  0  0  0
  145.0430  132.2603  151.9837 C   0  0  0  0  0  0  0  0  0  0  0  0
  145.1920  131.4400  150.7120 C   0  0  0  0  0  0  0  0  0  0  0  0
  143.8862  131.4923  150.1651 O   0  0  0  0  0  0  0  0  0  0  0  0
  143.3835  132.8125  150.3387 C   0  0  0  0  0  0  0  0  0  0  0  0
  149.2844  140.1364  153.9335 H   0  0  0  0  0  0  0  0  0  0  0  0
  150.6384  139.7053  155.9010 H   0  0  0  0  0  0  0  0  0  0  0  0
  151.8677  137.9899  153.7248 H   0  0  0  0  0  0  0  0  0  0  0  0
  152.7121  138.9485  154.9366 H   0  0  0  0  0  0  0  0  0  0  0  0
  152.2023  136.2483  155.2499 H   0  0  0  0  0  0  0  0  0  0  0  0
  152.2702  137.3396  156.6255 H   0  0  0  0  0  0  0  0  0  0  0  0
  149.9257  135.9103  155.6976 H   0  0  0  0  0  0  0  0  0  0  0  0
  150.0746  136.9998  157.0591 H   0  0  0  0  0  0  0  0  0  0  0  0
  149.3189  137.5733  154.1994 H   0  0  0  0  0  0  0  0  0  0  0  0
  147.5846  138.9747  154.9947 H   0  0  0  0  0  0  0  0  0  0  0  0
  148.7949  138.9595  157.8036 H   0  0  0  0  0  0  0  0  0  0  0  0
  148.7262  140.3157  156.6979 H   0  0  0  0  0  0  0  0  0  0  0  0
  146.7245  138.1328  158.7288 H   0  0  0  0  0  0  0  0  0  0  0  0
  145.2354  138.9587  158.3035 H   0  0  0  0  0  0  0  0  0  0  0  0
  145.4463  136.7785  157.0756 H   0  0  0  0  0  0  0  0  0  0  0  0
  145.3636  138.1429  155.9731 H   0  0  0  0  0  0  0  0  0  0  0  0
  148.2669  133.2772  154.7641 H   0  0  0  0  0  0  0  0  0  0  0  0
  144.1590  137.3271  151.8994 H   0  0  0  0  0  0  0  0  0  0  0  0
  144.3135  135.3022  150.4533 H   0  0  0  0  0  0  0  0  0  0  0  0
  145.8192  134.4323  150.5727 H   0  0  0  0  0  0  0  0  0  0  0  0
  143.2028  132.9971  153.1706 H   0  0  0  0  0  0  0  0  0  0  0  0
  145.9997  132.5625  152.4066 H   0  0  0  0  0  0  0  0  0  0  0  0
  144.5373  131.6491  152.7331 H   0  0  0  0  0  0  0  0  0  0  0  0
  145.9031  131.9019  150.0252 H   0  0  0  0  0  0  0  0  0  0  0  0
  145.5086  130.4147  150.9044 H   0  0  0  0  0  0  0  0  0  0  0  0
  142.3041  132.7783  150.4931 H   0  0  0  0  0  0  0  0  0  0  0  0
  143.5627  133.3792  149.4241 H   0  0  0  0  0  0  0  0  0  0  0  0
  1  2  1  0  0  0  0
  1 29  1  0  0  0  0
  2  6  1  0  0  0  0
  2  3  1  0  0  0  0
  2 30  1  0  0  0  0
  3  4  1  0  0  0  0
  3 31  1  0  0  0  0
  3 32  1  0  0  0  0
  4  5  1  0  0  0  0
  4 33  1  0  0  0  0
  4 34  1  0  0  0  0
  5  6  1  0  0  0  0
  5 35  1  0  0  0  0
  5 36  1  0  0  0  0
  6  7  1  0  0  0  0
  6 37  1  0  0  0  0
  7 12  1  0  0  0  0
  7  8  1  0  0  0  0
  7 38  1  0  0  0  0
  8  9  1  0  0  0  0
  8 39  1  0  0  0  0
  8 40  1  0  0  0  0
  9 10  1  0  0  0  0
 10 11  1  0  0  0  0
 10 41  1  0  0  0  0
 10 42  1  0  0  0  0
 11 12  1  0  0  0  0
 11 43  1  0  0  0  0
 11 44  1  0  0  0  0
 12 13  1  0  0  0  0
 13 18  1  0  0  0  0
 13 14  2  0  0  0  0
 14 15  1  0  0  0  0
 15 16  2  0  0  0  0
 15 45  1  0  0  0  0
 16 17  1  0  0  0  0
 17 21  1  0  0  0  0
 17 18  2  0  0  0  0
 18 19  1  0  0  0  0
 19 20  2  0  0  0  0
 20 21  1  0  0  0  0
 20 46  1  0  0  0  0
 21 22  1  0  0  0  0
 22 23  1  0  0  0  0
 22 47  1  0  0  0  0
 22 48  1  0  0  0  0
 23 28  1  0  0  0  0
 23 24  1  0  0  0  0
 23 25  1  0  0  0  0
 24 49  1  0  0  0  0
 25 26  1  0  0  0  0
 25 50  1  0  0  0  0
 25 51  1  0  0  0  0
 26 27  1  0  0  0  0
 26 52  1  0  0  0  0
 26 53  1  0  0  0  0
 27 28  1  0  0  0  0
 28 54  1  0  0  0  0
 28 55  1  0  0  0  0
M  END
> <s_m_source_file>
AV-unprocessed.smi

> <i_m_source_file_index>
240

> <i_lp_mmshare_version>
43012

> <i_f3d_flags>
0

> <s_epik_input>
W09IXVtDQEBIXTFbQ0gyXVtDSDJdW0NIMl1bQ0BIXTFbQ0BASF0yW0NIMl1PW0NIMl1bQ0gyXU4yYyhuW2NIXW4zKWMoYzM0KW5bY0hdbjRbQ0gyXVtDQEBdNShbT0hdKVtDSDJdW0NIMl1PW0NIMl01

> <s_epik_cmdline>
J2VwaWtfcHl0aG9uJywgJy1waCcsICc3LjAnLCAnLXRuJywgJzgnLCAnLW1hJywgJzIwMCcsICctbWV0YWxfYmluZGluZycsICctaW1hZScsICc8aW5maWxlLm1hZT4nLCAnLW9tYWUnLCAnPG91dGZpbGUubWFlPic=

> <r_lp_tautomer_probability>
1

> <r_epik_Ionization_Penalty>
0.000130618

> <r_epik_Ionization_Penalty_Charging>
0

> <r_epik_Ionization_Penalty_Neutral>
0.000130618

> <r_epik_State_Penalty>
-0

> <r_epik_Charging_Adjusted_Penalty>
0

> <i_epik_Tot_Q>
0

> <i_epik_Tot_abs_Q>
0

> <r_epik_Metal_State_Penalty>
-0

> <b_epik_Metal_Only>
0

> <s_lp_Force_Field>
OPLS_2005

> <r_lp_Energy>
62.3789

> <b_lp_Chiralities_Consistent>
1

> <s_lp_Variant>
AV-unprocessed.smi:240-9

> <Gold.Version>
5.8.1

> <Gold.Id.Protein>
6NUR|6NUR_protein|mol2

> <Gold.PLP.Fitness>
40.5355

> <Gold.PLP.PLP>
-31.1763

> <Gold.PLP.part.hbond>
-4.0000

> <Gold.PLP.part.metal>
0.0000

> <Gold.PLP.part.buried>
-4.5696

> <Gold.PLP.part.nonpolar>
-24.1758

> <Gold.PLP.part.repulsive>
0.4776

> <Gold.PLP.ligand.clash>
0.0000

> <Gold.PLP.ligand.torsion>
0.7311

> <Gold.PLP.Chemscore.Hbond>
2.5334

> <Gold.PLP.Chemscore.CHOScore>
1.0000

> <Gold.PLP.Chemscore.Metal>
0.0000

> <Gold.Chemscore.Hbonds>
donor molecule, donor type, donor heavy atom, donor atom, acceptor molecule, acceptor atom, score
      L1  H    24    49       P1 10957  0.86
      P1  H  7989  7998       L1     1  0.94
      P1  H 10785 10796       L1    27  0.66
      L1  C    20    46       P1 10171  1.00

> <Gold.PLP.Chemscore.Internal.Correction>
0.2211

> <Gold.Rescore>
     Score         DG    S(hbond)    S(metal)    S(lipo)     H(rot)  DE(clash)    DE(int)     intcor
     11.48     -12.43       2.21        0.00      62.12       3.00       0.03       0.91       ----

> <Gold.Chemscore.Fitness>
11.4846

> <Gold.Chemscore.DG>
-12.4285

> <Gold.Chemscore.ZeroCoef>
-5.4800

> <Gold.Chemscore.Hbond>
2.2069

> <Gold.Chemscore.Metal>
0.0000

> <Gold.Chemscore.Lipo>
62.1154

> <Gold.Chemscore.Internal_Hbond>
0.0000

> <Gold.Chemscore.DEClash>
0.0300

> <Gold.Chemscore.DEInternal>
0.9139

> <Gold.Chemscore.Rot>
3.0039

> <Gold.Chemscore.Internal.Correction>
   9.000000E+99

> <Gold.Chemscore.Hbonds>
donor molecule, donor type, donor heavy atom, donor atom, acceptor molecule, acceptor atom, score
      L1  H    24    49       P1 10957  0.55
      P1  H  7989  7998       L1     1  0.68
      P1  H 10785 10796       L1    27  0.64

> <Gold.Chemscore.Hbond.Weighted>
-7.3709

> <Gold.Chemscore.Metal.Weighted>
-0.0000

> <Gold.Chemscore.Lipo.Weighted>
-7.2675

> <Gold.Chemscore.Internal_Hbond.Weighted>
0.0000

> <Gold.Chemscore.DEClash.Weighted>
0.0300

> <Gold.Chemscore.DEInternal.Weighted>
0.9139

> <Gold.Chemscore.Rot.Weighted>
7.6899

> <Gold.Chemscore.Internal.Correction.Weighted>
   9.000000E+99

> <Gold.Protein.RotatedTorsions>
[ 6907 6896 6895 6894 ] final   74.66 input  -60.11 | X-H torsion
[ 7974 7965 7964 7962 ] final  -59.45 input  175.53 | X-H torsion
[ 8008 7997 7996 7995 ] final -100.55 input   59.86 | X-H torsion
[ 10167 10162 10161 10158 ] final  -88.55 input  -65.29 | X-H torsion
[ 10718 10713 10712 10709 ] final  -74.09 input   66.30 | X-H torsion
[ 10763 10752 10751 10750 ] final   50.03 input  -60.55 | X-H torsion
[ 11005 11000 10999 10996 ] final -159.93 input  -57.11 | X-H torsion

> <Gold.Protein.ActiveResidues>
 VAL166  LYS551  ARG553  GLY616  TRP617  ASP618  TYR619  PRO620  LYS621  CYS622 
 ASP623  PHE694  ASN695  SER759  ASP760  ASP761  ALA762  ILE779  LEU786  VAL792 
 PHE793  MET794  SER795  GLU796  ALA797  LYS798  CYS799  TRP800  GLU811  SER814 

> <Gold.Protein.RotatedAtoms>
  152.4987  134.4238  159.9489 H   0  0  0  0  0  0  0  0  0  0  0  0  # atno 6907 bound_to 6896
  151.4213  133.3691  159.2764 H   0  0  0  0  0  0  0  0  0  0  0  0  # atno 6908 bound_to 6896
  150.9221  134.8660  159.7555 H   0  0  0  0  0  0  0  0  0  0  0  0  # atno 6909 bound_to 6896
  145.8273  140.8502  143.0102 H   0  0  0  0  0  0  0  0  0  0  0  0  # atno 7974 bound_to 7965
  154.8302  140.0440  157.1472 H   0  0  0  0  0  0  0  0  0  0  0  0  # atno 8008 bound_to 7997
  154.9160  140.3020  155.5220 H   0  0  0  0  0  0  0  0  0  0  0  0  # atno 8009 bound_to 7997
  156.2986  140.2349  156.4205 H   0  0  0  0  0  0  0  0  0  0  0  0  # atno 8010 bound_to 7997
  140.3735  143.2783  151.9471 H   0  0  0  0  0  0  0  0  0  0  0  0  # atno 10167 bound_to 10162
  156.0255  130.4409  150.2840 H   0  0  0  0  0  0  0  0  0  0  0  0  # atno 10718 bound_to 10713
  152.9785  135.5892  154.4185 H   0  0  0  0  0  0  0  0  0  0  0  0  # atno 10763 bound_to 10752
  154.3812  135.2767  155.2212 H   0  0  0  0  0  0  0  0  0  0  0  0  # atno 10764 bound_to 10752
  154.4124  135.6078  153.6015 H   0  0  0  0  0  0  0  0  0  0  0  0  # atno 10765 bound_to 10752
  140.6372  134.4589  157.5232 H   0  0  0  0  0  0  0  0  0  0  0  0  # atno 11005 bound_to 11000
  144.6742  140.0620  143.7476 LP  0  0  0  0  0  0  0  0  0  0  0  0  # atno 17320 bound_to 7965
  145.9610  139.2800  143.1155 LP  0  0  0  0  0  0  0  0  0  0  0  0  # atno 17321 bound_to 7965
  139.4801  144.5885  151.7813 LP  0  0  0  0  0  0  0  0  0  0  0  0  # atno 17342 bound_to 10162
  140.5009  144.1170  150.5971 LP  0  0  0  0  0  0  0  0  0  0  0  0  # atno 17343 bound_to 10162
  157.0944  131.0178  151.3109 LP  0  0  0  0  0  0  0  0  0  0  0  0  # atno 17370 bound_to 10713
  157.4829  130.7776  149.7432 LP  0  0  0  0  0  0  0  0  0  0  0  0  # atno 17371 bound_to 10713
  139.9094  134.8378  156.1585 LP  0  0  0  0  0  0  0  0  0  0  0  0  # atno 17394 bound_to 11000
  141.0633  133.6831  156.1995 LP  0  0  0  0  0  0  0  0  0  0  0  0  # atno 17395 bound_to 11000

$$$$
