AV-unprocessed.smi:2221|AV-procd|sdf|8982|dock5
  -GOLD-   2272012193D 1   1.00000     0.00000
 Structure written by MMmdl.
 53 54  0  0  0  0  0  0  0  0  2 V2000
  151.9464  145.8071  160.5110 C   0  0  0  0  0  0  0  0  0  0  0  0
  151.8294  144.4102  159.9382 C   0  0  0  0  0  0  0  0  0  0  0  0
  152.5133  143.3332  160.5333 C   0  0  0  0  0  0  0  0  0  0  0  0
  152.3713  142.0557  159.9577 C   0  0  0  0  0  0  0  0  0  0  0  0
  153.0752  140.8536  160.5514 C   0  0  0  0  0  0  0  0  0  0  0  0
  151.6115  141.8196  158.8672 N   0  0  0  0  0  0  0  0  0  0  0  0
  150.9494  142.8494  158.2838 C   0  0  0  0  0  0  0  0  0  0  0  0
  150.1281  142.7070  157.1338 N   0  0  0  0  0  0  0  0  0  0  0  0
  149.4498  141.6194  156.7269 C   0  0  0  0  0  0  0  0  0  0  0  0
  149.4293  140.5331  157.3067 O   0  0  0  0  0  0  0  0  0  0  0  0
  148.7849  141.8598  155.5876 N   0  0  0  0  0  0  0  0  0  0  0  0
  147.9585  140.8881  154.8823 C   0  0  0  0  0  0  0  0  0  0  0  0
  148.7867  139.6615  154.4516 C   0  0  0  0  0  0  0  0  0  0  0  0
  148.0039  138.7185  153.6532 N   0  0  0  0  0  0  0  0  0  0  0  0
  147.4668  139.4237  152.4861 C   0  0  0  0  0  0  0  0  0  0  0  0
  146.7210  138.4456  151.5619 C   0  0  0  0  0  0  0  0  0  0  0  0
  145.5672  137.7609  152.3211 C   0  0  0  0  0  0  0  0  0  0  0  0
  144.7800  136.7944  151.5013 N   0  3  0  0  0  0  0  0  0  0  0  0
  143.5919  136.2096  152.1698 C   0  0  0  0  0  0  0  0  0  0  0  0
  145.6219  135.7528  150.8695 C   0  0  0  0  0  0  0  0  0  0  0  0
  146.1237  137.1186  153.6034 C   0  0  0  0  0  0  0  0  0  0  0  0
  146.9008  138.1523  154.4378 C   0  0  0  0  0  0  0  0  0  0  0  0
  151.0383  144.1628  158.7976 C   0  0  0  0  0  0  0  0  0  0  0  0
  152.0070  145.7732  161.5992 H   0  0  0  0  0  0  0  0  0  0  0  0
  151.0827  146.4143  160.2390 H   0  0  0  0  0  0  0  0  0  0  0  0
  152.8438  146.2956  160.1315 H   0  0  0  0  0  0  0  0  0  0  0  0
  153.1292  143.4830  161.4080 H   0  0  0  0  0  0  0  0  0  0  0  0
  153.9218  141.1600  161.1665 H   0  0  0  0  0  0  0  0  0  0  0  0
  153.4494  140.1973  159.7649 H   0  0  0  0  0  0  0  0  0  0  0  0
  152.3857  140.2843  161.1751 H   0  0  0  0  0  0  0  0  0  0  0  0
  150.0501  143.5282  156.5526 H   0  0  0  0  0  0  0  0  0  0  0  0
  148.8554  142.7800  155.1783 H   0  0  0  0  0  0  0  0  0  0  0  0
  147.1206  140.5840  155.5125 H   0  0  0  0  0  0  0  0  0  0  0  0
  147.5316  141.3982  154.0200 H   0  0  0  0  0  0  0  0  0  0  0  0
  149.6828  139.9676  153.9092 H   0  0  0  0  0  0  0  0  0  0  0  0
  149.1291  139.1532  155.3545 H   0  0  0  0  0  0  0  0  0  0  0  0
  146.8037  140.2297  152.8048 H   0  0  0  0  0  0  0  0  0  0  0  0
  148.2829  139.8841  151.9277 H   0  0  0  0  0  0  0  0  0  0  0  0
  146.3419  138.9847  150.6937 H   0  0  0  0  0  0  0  0  0  0  0  0
  147.4333  137.7098  151.1876 H   0  0  0  0  0  0  0  0  0  0  0  0
  144.8749  138.5398  152.6456 H   0  0  0  0  0  0  0  0  0  0  0  0
  143.8787  135.5230  152.9670 H   0  0  0  0  0  0  0  0  0  0  0  0
  142.9966  135.6469  151.4501 H   0  0  0  0  0  0  0  0  0  0  0  0
  142.9444  136.9772  152.5919 H   0  0  0  0  0  0  0  0  0  0  0  0
  146.0638  135.0929  151.6169 H   0  0  0  0  0  0  0  0  0  0  0  0
  146.4278  136.2010  150.2872 H   0  0  0  0  0  0  0  0  0  0  0  0
  145.0279  135.1423  150.1885 H   0  0  0  0  0  0  0  0  0  0  0  0
  145.3088  136.7065  154.1991 H   0  0  0  0  0  0  0  0  0  0  0  0
  146.7878  136.2872  153.3681 H   0  0  0  0  0  0  0  0  0  0  0  0
  147.2823  137.6569  155.3293 H   0  0  0  0  0  0  0  0  0  0  0  0
  146.2336  138.9468  154.7760 H   0  0  0  0  0  0  0  0  0  0  0  0
  150.5054  144.9740  158.3225 H   0  0  0  0  0  0  0  0  0  0  0  0
  144.4181  137.3393  150.7316 H   0  0  0  0  0  0  0  0  0  0  0  0
  1  2  1  0  0  0  0
  1 24  1  0  0  0  0
  1 25  1  0  0  0  0
  1 26  1  0  0  0  0
  2 23  1  0  0  0  0
  2  3  2  0  0  0  0
  3  4  1  0  0  0  0
  3 27  1  0  0  0  0
  4  5  1  0  0  0  0
  4  6  2  0  0  0  0
  5 28  1  0  0  0  0
  5 29  1  0  0  0  0
  5 30  1  0  0  0  0
  6  7  1  0  0  0  0
  7  8  1  0  0  0  0
  7 23  2  0  0  0  0
  8  9  1  0  0  0  0
  8 31  1  0  0  0  0
  9 10  2  0  0  0  0
  9 11  1  0  0  0  0
 11 12  1  0  0  0  0
 11 32  1  0  0  0  0
 12 13  1  0  0  0  0
 12 33  1  0  0  0  0
 12 34  1  0  0  0  0
 13 14  1  0  0  0  0
 13 35  1  0  0  0  0
 13 36  1  0  0  0  0
 14 22  1  0  0  0  0
 14 15  1  0  0  0  0
 15 16  1  0  0  0  0
 15 37  1  0  0  0  0
 15 38  1  0  0  0  0
 16 17  1  0  0  0  0
 16 39  1  0  0  0  0
 16 40  1  0  0  0  0
 17 18  1  0  0  0  0
 17 21  1  0  0  0  0
 17 41  1  0  0  0  0
 18 19  1  0  0  0  0
 18 20  1  0  0  0  0
 18 53  1  0  0  0  0
 19 42  1  0  0  0  0
 19 43  1  0  0  0  0
 19 44  1  0  0  0  0
 20 45  1  0  0  0  0
 20 46  1  0  0  0  0
 20 47  1  0  0  0  0
 21 22  1  0  0  0  0
 21 48  1  0  0  0  0
 21 49  1  0  0  0  0
 22 50  1  0  0  0  0
 22 51  1  0  0  0  0
 23 52  1  0  0  0  0
M  CHG  1  18   1
M  END
> <s_m_source_file>
AV-unprocessed.smi

> <i_m_source_file_index>
2221

> <i_lp_mmshare_version>
43012

> <i_f3d_flags>
0

> <s_epik_input>
W0NIM11jMVtjSF1jKFtDSDNdKW5jKFtjSF0xKVtOSF1DKD1PKVtOSF1bQ0gyXVtDSDJdTjJbQ0gyXVtDSDJdW0NIXShOKFtDSDNdKVtDSDNdKVtDSDJdW0NIMl0y

> <s_epik_cmdline>
J2VwaWtfcHl0aG9uJywgJy1waCcsICc3LjAnLCAnLXRuJywgJzgnLCAnLW1hJywgJzIwMCcsICctbWV0YWxfYmluZGluZycsICctaW1hZScsICc8aW5maWxlLm1hZT4nLCAnLW9tYWUnLCAnPG91dGZpbGUubWFlPic=

> <r_epik_Ionization_Penalty>
0.929621

> <r_epik_Ionization_Penalty_Charging>
0.000679816

> <r_epik_Ionization_Penalty_Neutral>
0.928941

> <r_epik_State_Penalty>
1.01912

> <r_epik_Charging_Adjusted_Penalty>
1.0198

> <i_epik_Tot_Q>
1

> <i_epik_Tot_abs_Q>
1

> <r_epik_Metal_State_Penalty>
1.01908

> <b_epik_Metal_Only>
0

> <s_lp_Force_Field>
OPLS_2005

> <r_lp_Energy>
22.8604

> <b_lp_Chiralities_Consistent>
1

> <s_lp_Variant>
AV-unprocessed.smi:2221-3

> <Gold.Version>
5.8.1

> <Gold.Id.Protein>
6NUR|6NUR_protein|mol2

> <Gold.PLP.Fitness>
52.9951

> <Gold.PLP.PLP>
-44.5938

> <Gold.PLP.part.hbond>
-3.0000

> <Gold.PLP.part.metal>
0.0000

> <Gold.PLP.part.buried>
-2.9305

> <Gold.PLP.part.nonpolar>
-40.6591

> <Gold.PLP.part.repulsive>
0.4121

> <Gold.PLP.ligand.clash>
0.0000

> <Gold.PLP.ligand.torsion>
0.2113

> <Gold.PLP.Chemscore.Hbond>
2.9120

> <Gold.PLP.Chemscore.CHOScore>
0.0000

> <Gold.PLP.Chemscore.Metal>
0.0000

> <Gold.Chemscore.Hbonds>
donor molecule, donor type, donor heavy atom, donor atom, acceptor molecule, acceptor atom, score
      L1  H     8    31       P1  8028  0.94
      L1  H    11    32       P1  8028  0.86
      L1  H    18    53       P1 10171  1.00

> <Gold.PLP.Chemscore.Internal.Correction>
0.0880

> <Gold.Rescore>
     Score         DG    S(hbond)    S(metal)    S(lipo)     H(rot)  DE(clash)    DE(int)     intcor
     21.23     -24.55       2.90        0.00     116.19       1.64       1.97       1.35       ----

> <Gold.Chemscore.Fitness>
21.2293

> <Gold.Chemscore.DG>
-24.5512

> <Gold.Chemscore.ZeroCoef>
-5.4800

> <Gold.Chemscore.Hbond>
2.8958

> <Gold.Chemscore.Metal>
0.0000

> <Gold.Chemscore.Lipo>
116.1858

> <Gold.Chemscore.Internal_Hbond>
0.0000

> <Gold.Chemscore.DEClash>
1.9703

> <Gold.Chemscore.DEInternal>
1.3515

> <Gold.Chemscore.Rot>
1.6385

> <Gold.Chemscore.Internal.Correction>
   9.000000E+99

> <Gold.Chemscore.Hbonds>
donor molecule, donor type, donor heavy atom, donor atom, acceptor molecule, acceptor atom, score
      L1  H     8    31       P1  8028  0.91
      L1  H    11    32       P1  8028  0.83
      L1  H    18    53       P1 10171  1.00

> <Gold.Chemscore.Hbond.Weighted>
-9.6719

> <Gold.Chemscore.Metal.Weighted>
-0.0000

> <Gold.Chemscore.Lipo.Weighted>
-13.5937

> <Gold.Chemscore.Internal_Hbond.Weighted>
0.0000

> <Gold.Chemscore.DEClash.Weighted>
1.9703

> <Gold.Chemscore.DEInternal.Weighted>
1.3515

> <Gold.Chemscore.Rot.Weighted>
4.1945

> <Gold.Chemscore.Internal.Correction.Weighted>
   9.000000E+99

> <Gold.Protein.RotatedTorsions>
[ 6907 6896 6895 6894 ] final -139.02 input  -60.11 | X-H torsion
[ 7974 7965 7964 7962 ] final  -21.60 input  175.53 | X-H torsion
[ 8008 7997 7996 7995 ] final -142.98 input   59.86 | X-H torsion
[ 10167 10162 10161 10158 ] final -171.64 input  -65.29 | X-H torsion
[ 10718 10713 10712 10709 ] final  -95.66 input   66.30 | X-H torsion
[ 10763 10752 10751 10750 ] final  -54.75 input  -60.55 | X-H torsion
[ 11005 11000 10999 10996 ] final  -40.06 input  -57.11 | X-H torsion

> <Gold.Protein.ActiveResidues>
 VAL166  LYS551  ARG553  GLY616  TRP617  ASP618  TYR619  PRO620  LYS621  CYS622 
 ASP623  PHE694  ASN695  SER759  ASP760  ASP761  ALA762  ILE779  LEU786  VAL792 
 PHE793  MET794  SER795  GLU796  ALA797  LYS798  CYS799  TRP800  GLU811  SER814 

> <Gold.Protein.RotatedAtoms>
  151.0424  133.5694  159.2649 H   0  0  0  0  0  0  0  0  0  0  0  0  # atno 6907 bound_to 6896
  151.2735  135.0691  159.9153 H   0  0  0  0  0  0  0  0  0  0  0  0  # atno 6908 bound_to 6896
  152.5367  134.0151  159.8010 H   0  0  0  0  0  0  0  0  0  0  0  0  # atno 6909 bound_to 6896
  146.1724  140.4363  142.8527 H   0  0  0  0  0  0  0  0  0  0  0  0  # atno 7974 bound_to 7965
  155.5032  140.0577  157.2936 H   0  0  0  0  0  0  0  0  0  0  0  0  # atno 8008 bound_to 7997
  154.4579  140.1982  156.0276 H   0  0  0  0  0  0  0  0  0  0  0  0  # atno 8009 bound_to 7997
  156.0835  140.3243  155.7728 H   0  0  0  0  0  0  0  0  0  0  0  0  # atno 8010 bound_to 7997
  139.5790  144.1466  152.1490 H   0  0  0  0  0  0  0  0  0  0  0  0  # atno 10167 bound_to 10162
  156.0047  130.5118  150.6110 H   0  0  0  0  0  0  0  0  0  0  0  0  # atno 10718 bound_to 10713
  154.1798  135.6445  153.5031 H   0  0  0  0  0  0  0  0  0  0  0  0  # atno 10763 bound_to 10752
  153.0062  135.5403  154.6526 H   0  0  0  0  0  0  0  0  0  0  0  0  # atno 10764 bound_to 10752
  154.5887  135.2932  155.0630 H   0  0  0  0  0  0  0  0  0  0  0  0  # atno 10765 bound_to 10752
  141.0147  133.6891  156.2270 H   0  0  0  0  0  0  0  0  0  0  0  0  # atno 11005 bound_to 11000
  144.8183  140.6506  143.6370 LP  0  0  0  0  0  0  0  0  0  0  0  0  # atno 17320 bound_to 7965
  145.4305  139.1550  143.4025 LP  0  0  0  0  0  0  0  0  0  0  0  0  # atno 17321 bound_to 7965
  140.1015  144.5535  150.6986 LP  0  0  0  0  0  0  0  0  0  0  0  0  # atno 17342 bound_to 10162
  140.7070  143.2476  151.4695 LP  0  0  0  0  0  0  0  0  0  0  0  0  # atno 17343 bound_to 10162
  157.3943  131.0800  151.1366 LP  0  0  0  0  0  0  0  0  0  0  0  0  # atno 17370 bound_to 10713
  157.2048  130.6411  149.5752 LP  0  0  0  0  0  0  0  0  0  0  0  0  # atno 17371 bound_to 10713
  140.6675  134.4903  157.5586 LP  0  0  0  0  0  0  0  0  0  0  0  0  # atno 17394 bound_to 11000
  139.9110  134.8345  156.1529 LP  0  0  0  0  0  0  0  0  0  0  0  0  # atno 17395 bound_to 11000

$$$$
