AV-unprocessed.smi:983|AV-procd|sdf|4316|dock5
  -GOLD-   22720 2223D 1   1.00000     0.00000
 Structure written by MMmdl.
 35 36  0  0  0  0  0  0  0  0  1 V2000
  152.6645  142.9134  163.5142 C   0  0  0  0  0  0  0  0  0  0  0  0
  152.3597  143.0835  162.0402 C   0  0  0  0  0  0  0  0  0  0  0  0
  152.7699  142.0814  161.0785 C   0  0  0  0  0  0  0  0  0  0  0  0
  152.4865  142.2670  159.7800 C   0  0  0  0  0  0  0  0  0  0  0  0
  151.8007  143.4077  159.3243 N   0  0  0  0  0  0  0  0  0  0  0  0
  151.5378  143.5042  157.8789 C   0  0  0  0  0  0  0  0  0  0  0  0
  150.9229  142.2249  157.2945 C   0  0  0  0  0  0  0  0  0  0  0  0
  151.4649  141.1321  157.4660 O   0  0  0  0  0  0  0  0  0  0  0  0
  149.7964  142.3820  156.5831 N   0  0  0  0  0  0  0  0  0  0  0  0
  149.0544  141.2995  155.9428 C   0  0  0  0  0  0  0  0  0  0  0  0
  149.7410  140.8252  154.6461 C   0  0  0  0  0  0  0  0  0  0  0  0
  148.6330  140.7256  153.5975 C   0  0  0  0  0  0  0  0  0  0  0  0
  147.6355  141.8052  154.0050 C   0  0  0  0  0  0  0  0  0  0  0  0
  147.6459  141.7697  155.5342 C   0  0  0  0  0  0  0  0  0  0  0  0
  151.3816  144.3878  160.1801 C   0  0  0  0  0  0  0  0  0  0  0  0
  150.7757  145.3856  159.7880 O   0  0  0  0  0  0  0  0  0  0  0  0
  151.6997  144.1763  161.5970 C   0  0  0  0  0  0  0  0  0  0  0  0
  153.0792  141.9262  163.7195 H   0  0  0  0  0  0  0  0  0  0  0  0
  151.7571  143.0302  164.1072 H   0  0  0  0  0  0  0  0  0  0  0  0
  153.3873  143.6619  163.8396 H   0  0  0  0  0  0  0  0  0  0  0  0
  153.2941  141.1926  161.3985 H   0  0  0  0  0  0  0  0  0  0  0  0
  152.7574  141.5555  159.0134 H   0  0  0  0  0  0  0  0  0  0  0  0
  150.8840  144.3544  157.6734 H   0  0  0  0  0  0  0  0  0  0  0  0
  152.4594  143.7153  157.3349 H   0  0  0  0  0  0  0  0  0  0  0  0
  149.4213  143.3141  156.4844 H   0  0  0  0  0  0  0  0  0  0  0  0
  148.9534  140.4648  156.6393 H   0  0  0  0  0  0  0  0  0  0  0  0
  150.4770  141.5585  154.3119 H   0  0  0  0  0  0  0  0  0  0  0  0
  150.2670  139.8795  154.7799 H   0  0  0  0  0  0  0  0  0  0  0  0
  149.0036  140.8563  152.5806 H   0  0  0  0  0  0  0  0  0  0  0  0
  148.1578  139.7455  153.6563 H   0  0  0  0  0  0  0  0  0  0  0  0
  147.9852  142.7780  153.6571 H   0  0  0  0  0  0  0  0  0  0  0  0
  146.6419  141.6391  153.5878 H   0  0  0  0  0  0  0  0  0  0  0  0
  146.9109  141.0422  155.8813 H   0  0  0  0  0  0  0  0  0  0  0  0
  147.3680  142.7326  155.9654 H   0  0  0  0  0  0  0  0  0  0  0  0
  151.3909  144.9278  162.3093 H   0  0  0  0  0  0  0  0  0  0  0  0
  1  2  1  0  0  0  0
  1 18  1  0  0  0  0
  1 19  1  0  0  0  0
  1 20  1  0  0  0  0
  2 17  2  0  0  0  0
  2  3  1  0  0  0  0
  3  4  2  0  0  0  0
  3 21  1  0  0  0  0
  4  5  1  0  0  0  0
  4 22  1  0  0  0  0
  5  6  1  0  0  0  0
  5 15  1  0  0  0  0
  6  7  1  0  0  0  0
  6 23  1  0  0  0  0
  6 24  1  0  0  0  0
  7  8  2  0  0  0  0
  7  9  1  0  0  0  0
  9 10  1  0  0  0  0
  9 25  1  0  0  0  0
 10 14  1  0  0  0  0
 10 11  1  0  0  0  0
 10 26  1  0  0  0  0
 11 12  1  0  0  0  0
 11 27  1  0  0  0  0
 11 28  1  0  0  0  0
 12 13  1  0  0  0  0
 12 29  1  0  0  0  0
 12 30  1  0  0  0  0
 13 14  1  0  0  0  0
 13 31  1  0  0  0  0
 13 32  1  0  0  0  0
 14 33  1  0  0  0  0
 14 34  1  0  0  0  0
 15 16  2  0  0  0  0
 15 17  1  0  0  0  0
 17 35  1  0  0  0  0
M  END
> <s_m_source_file>
AV-unprocessed.smi

> <i_m_source_file_index>
983

> <i_lp_mmshare_version>
43012

> <i_f3d_flags>
0

> <s_epik_input>
W0NIM11jMVtjSF1bY0hdbihjKD1PKVtjSF0xKVtDSDJdQyg9TylbTkhdW0NIXTJbQ0gyXVtDSDJdW0NIMl1bQ0gyXTI=

> <s_epik_cmdline>
J2VwaWtfcHl0aG9uJywgJy1waCcsICc3LjAnLCAnLXRuJywgJzgnLCAnLW1hJywgJzIwMCcsICctbWV0YWxfYmluZGluZycsICctaW1hZScsICc8aW5maWxlLm1hZT4nLCAnLW9tYWUnLCAnPG91dGZpbGUubWFlPic=

> <r_lp_tautomer_probability>
1

> <r_epik_Ionization_Penalty>
5.52576e-07

> <r_epik_Ionization_Penalty_Charging>
5.33275e-07

> <r_epik_Ionization_Penalty_Neutral>
1.93017e-08

> <r_epik_State_Penalty>
-0

> <r_epik_Charging_Adjusted_Penalty>
5.33275e-07

> <i_epik_Tot_Q>
0

> <i_epik_Tot_abs_Q>
0

> <r_epik_Metal_State_Penalty>
-0

> <b_epik_Metal_Only>
0

> <s_lp_Force_Field>
OPLS_2005

> <r_lp_Energy>
27.4502

> <b_lp_Chiralities_Consistent>
1

> <s_lp_Variant>
AV-unprocessed.smi:983-1

> <Gold.Version>
5.8.1

> <Gold.Id.Protein>
6NUR|6NUR_protein|mol2

> <Gold.PLP.Fitness>
48.7241

> <Gold.PLP.PLP>
-46.4372

> <Gold.PLP.part.hbond>
-1.0651

> <Gold.PLP.part.metal>
0.0000

> <Gold.PLP.part.buried>
-3.9973

> <Gold.PLP.part.nonpolar>
-41.0693

> <Gold.PLP.part.repulsive>
0.2506

> <Gold.PLP.ligand.clash>
0.0000

> <Gold.PLP.ligand.torsion>
0.3585

> <Gold.PLP.Chemscore.Hbond>
1.0000

> <Gold.PLP.Chemscore.CHOScore>
0.0000

> <Gold.PLP.Chemscore.Metal>
0.0000

> <Gold.Chemscore.Hbonds>
donor molecule, donor type, donor heavy atom, donor atom, acceptor molecule, acceptor atom, score
      L1  H     9    25       P1  8028  1.00

> <Gold.PLP.Chemscore.Internal.Correction>
0.0040

> <Gold.Rescore>
     Score         DG    S(hbond)    S(metal)    S(lipo)     H(rot)  DE(clash)    DE(int)     intcor
     14.22     -17.01       1.00        0.00     100.20       1.38       0.13       2.66       ----

> <Gold.Chemscore.Fitness>
14.2227

> <Gold.Chemscore.DG>
-17.0081

> <Gold.Chemscore.ZeroCoef>
-5.4800

> <Gold.Chemscore.Hbond>
0.9985

> <Gold.Chemscore.Metal>
0.0000

> <Gold.Chemscore.Lipo>
100.1990

> <Gold.Chemscore.Internal_Hbond>
0.0000

> <Gold.Chemscore.DEClash>
0.1291

> <Gold.Chemscore.DEInternal>
2.6564

> <Gold.Chemscore.Rot>
1.3789

> <Gold.Chemscore.Internal.Correction>
   9.000000E+99

> <Gold.Chemscore.Hbonds>
donor molecule, donor type, donor heavy atom, donor atom, acceptor molecule, acceptor atom, score
      L1  H     9    25       P1  8028  0.99

> <Gold.Chemscore.Hbond.Weighted>
-3.3349

> <Gold.Chemscore.Metal.Weighted>
-0.0000

> <Gold.Chemscore.Lipo.Weighted>
-11.7233

> <Gold.Chemscore.Internal_Hbond.Weighted>
0.0000

> <Gold.Chemscore.DEClash.Weighted>
0.1291

> <Gold.Chemscore.DEInternal.Weighted>
2.6564

> <Gold.Chemscore.Rot.Weighted>
3.5301

> <Gold.Chemscore.Internal.Correction.Weighted>
   9.000000E+99

> <Gold.Protein.RotatedTorsions>
[ 6907 6896 6895 6894 ] final -139.10 input  -60.11 | X-H torsion
[ 7974 7965 7964 7962 ] final -130.61 input  175.53 | X-H torsion
[ 8008 7997 7996 7995 ] final -111.04 input   59.86 | X-H torsion
[ 10167 10162 10161 10158 ] final  118.15 input  -65.29 | X-H torsion
[ 10718 10713 10712 10709 ] final  -63.93 input   66.30 | X-H torsion
[ 10763 10752 10751 10750 ] final  141.98 input  -60.55 | X-H torsion
[ 11005 11000 10999 10996 ] final  -18.07 input  -57.11 | X-H torsion

> <Gold.Protein.ActiveResidues>
 VAL166  LYS551  ARG553  GLY616  TRP617  ASP618  TYR619  PRO620  LYS621  CYS622 
 ASP623  PHE694  ASN695  SER759  ASP760  ASP761  ALA762  ILE779  LEU786  VAL792 
 PHE793  MET794  SER795  GLU796  ALA797  LYS798  CYS799  TRP800  GLU811  SER814 

> <Gold.Protein.RotatedAtoms>
  151.0435  133.5686  159.2648 H   0  0  0  0  0  0  0  0  0  0  0  0  # atno 6907 bound_to 6896
  151.2723  135.0687  159.9148 H   0  0  0  0  0  0  0  0  0  0  0  0  # atno 6908 bound_to 6896
  152.5368  134.0163  159.8015 H   0  0  0  0  0  0  0  0  0  0  0  0  # atno 6909 bound_to 6896
  144.9458  140.7290  143.4818 H   0  0  0  0  0  0  0  0  0  0  0  0  # atno 7974 bound_to 7965
  154.9838  140.0396  157.2289 H   0  0  0  0  0  0  0  0  0  0  0  0  # atno 8008 bound_to 7997
  154.7690  140.2798  155.6130 H   0  0  0  0  0  0  0  0  0  0  0  0  # atno 8009 bound_to 7997
  156.2917  140.2613  156.2488 H   0  0  0  0  0  0  0  0  0  0  0  0  # atno 8010 bound_to 7997
  139.6131  144.7086  151.2800 H   0  0  0  0  0  0  0  0  0  0  0  0  # atno 10167 bound_to 10162
  156.0760  130.4227  150.1347 H   0  0  0  0  0  0  0  0  0  0  0  0  # atno 10718 bound_to 10713
  153.9482  135.2973  155.3440 H   0  0  0  0  0  0  0  0  0  0  0  0  # atno 10763 bound_to 10752
  154.7440  135.5011  153.9176 H   0  0  0  0  0  0  0  0  0  0  0  0  # atno 10764 bound_to 10752
  153.1007  135.6733  153.9785 H   0  0  0  0  0  0  0  0  0  0  0  0  # atno 10765 bound_to 10752
  140.8232  133.8053  155.9680 H   0  0  0  0  0  0  0  0  0  0  0  0  # atno 11005 bound_to 11000
  145.2920  139.1880  143.4735 LP  0  0  0  0  0  0  0  0  0  0  0  0  # atno 17320 bound_to 7965
  146.3303  140.2898  142.8614 LP  0  0  0  0  0  0  0  0  0  0  0  0  # atno 17321 bound_to 7965
  140.7332  143.6800  150.8009 LP  0  0  0  0  0  0  0  0  0  0  0  0  # atno 17342 bound_to 10162
  140.0398  143.5358  152.2723 LP  0  0  0  0  0  0  0  0  0  0  0  0  # atno 17343 bound_to 10162
  156.9388  130.9738  151.3520 LP  0  0  0  0  0  0  0  0  0  0  0  0  # atno 17370 bound_to 10713
  157.5856  130.8407  149.8584 LP  0  0  0  0  0  0  0  0  0  0  0  0  # atno 17371 bound_to 10713
  140.9077  134.2299  157.5004 LP  0  0  0  0  0  0  0  0  0  0  0  0  # atno 17394 bound_to 11000
  139.8707  134.9736  156.4815 LP  0  0  0  0  0  0  0  0  0  0  0  0  # atno 17395 bound_to 11000

$$$$
