AV-unprocessed.smi:1885|AV-procd|sdf|7651|dock3
  -GOLD-   22720 9383D 1   1.00000     0.00000
 Structure written by MMmdl.
 43 45  0  0  0  0  0  0  0  0  1 V2000
  141.7384  145.6808  156.4249 C   0  0  0  0  0  0  0  0  0  0  0  0
  142.3236  145.4811  155.1465 O   0  0  0  0  0  0  0  0  0  0  0  0
  143.2519  144.4712  155.0096 C   0  0  0  0  0  0  0  0  0  0  0  0
  143.5445  143.5164  156.0162 C   0  0  0  0  0  0  0  0  0  0  0  0
  144.5150  142.5201  155.7940 C   0  0  0  0  0  0  0  0  0  0  0  0
  145.2105  142.4653  154.5693 C   0  0  0  0  0  0  0  0  0  0  0  0
  146.2647  141.4022  154.3340 C   0  0  0  0  0  0  0  0  0  0  0  0
  147.2371  141.4033  155.3658 O   0  0  0  0  0  0  0  0  0  0  0  0
  148.1058  140.2834  155.3157 C   0  0  0  0  0  0  0  0  0  0  0  0
  149.4386  140.6809  154.6521 C   0  0  1  0  0  0  0  0  0  0  0  0
  149.2004  141.0622  153.3137 O   0  0  0  0  0  0  0  0  0  0  0  0
  150.2389  141.7837  155.3793 C   0  0  0  0  0  0  0  0  0  0  0  0
  151.0718  141.2672  156.4520 N   0  0  0  0  0  0  0  0  0  0  0  0
  151.5388  140.0103  156.5814 C   0  0  0  0  0  0  0  0  0  0  0  0
  152.2774  139.7423  157.6545 N   0  0  0  0  0  0  0  0  0  0  0  0
  152.3026  140.9713  158.2913 C   0  0  0  0  0  0  0  0  0  0  0  0
  152.9221  141.3655  159.4989 C   0  0  0  0  0  0  0  0  0  0  0  0
  152.8147  142.6949  159.9578 C   0  0  0  0  0  0  0  0  0  0  0  0
  153.4139  143.0553  161.1175 F   0  0  0  0  0  0  0  0  0  0  0  0
  152.0885  143.6498  159.2162 C   0  0  0  0  0  0  0  0  0  0  0  0
  151.9918  144.9244  159.6628 F   0  0  0  0  0  0  0  0  0  0  0  0
  151.4590  143.2794  158.0126 C   0  0  0  0  0  0  0  0  0  0  0  0
  151.5659  141.9508  157.5594 C   0  0  0  0  0  0  0  0  0  0  0  0
  144.9156  143.4045  153.5612 C   0  0  0  0  0  0  0  0  0  0  0  0
  143.9447  144.3993  153.7838 C   0  0  0  0  0  0  0  0  0  0  0  0
  141.0445  146.5198  156.3753 H   0  0  0  0  0  0  0  0  0  0  0  0
  142.4933  145.9208  157.1753 H   0  0  0  0  0  0  0  0  0  0  0  0
  141.1738  144.8047  156.7462 H   0  0  0  0  0  0  0  0  0  0  0  0
  143.0402  143.5285  156.9705 H   0  0  0  0  0  0  0  0  0  0  0  0
  144.7292  141.8043  156.5740 H   0  0  0  0  0  0  0  0  0  0  0  0
  145.7811  140.4253  154.2799 H   0  0  0  0  0  0  0  0  0  0  0  0
  146.7448  141.5826  153.3713 H   0  0  0  0  0  0  0  0  0  0  0  0
  148.3081  139.9452  156.3334 H   0  0  0  0  0  0  0  0  0  0  0  0
  147.6355  139.4491  154.7926 H   0  0  0  0  0  0  0  0  0  0  0  0
  150.0585  139.7849  154.6028 H   0  0  0  0  0  0  0  0  0  0  0  0
  149.6269  140.4383  152.7458 H   0  0  0  0  0  0  0  0  0  0  0  0
  150.8749  142.3195  154.6737 H   0  0  0  0  0  0  0  0  0  0  0  0
  149.5569  142.5225  155.8017 H   0  0  0  0  0  0  0  0  0  0  0  0
  151.3146  139.2465  155.8509 H   0  0  0  0  0  0  0  0  0  0  0  0
  153.4825  140.6437  160.0742 H   0  0  0  0  0  0  0  0  0  0  0  0
  150.8943  144.0081  157.4507 H   0  0  0  0  0  0  0  0  0  0  0  0
  145.4384  143.3686  152.6165 H   0  0  0  0  0  0  0  0  0  0  0  0
  143.7318  145.1179  153.0059 H   0  0  0  0  0  0  0  0  0  0  0  0
  1  2  1  0  0  0  0
  1 26  1  0  0  0  0
  1 27  1  0  0  0  0
  1 28  1  0  0  0  0
  2  3  1  0  0  0  0
  3 25  1  0  0  0  0
  3  4  2  0  0  0  0
  4  5  1  0  0  0  0
  4 29  1  0  0  0  0
  5  6  2  0  0  0  0
  5 30  1  0  0  0  0
  6  7  1  0  0  0  0
  6 24  1  0  0  0  0
  7  8  1  0  0  0  0
  7 31  1  0  0  0  0
  7 32  1  0  0  0  0
  8  9  1  0  0  0  0
  9 10  1  0  0  0  0
  9 33  1  0  0  0  0
  9 34  1  0  0  0  0
 10 11  1  0  0  0  0
 10 12  1  0  0  0  0
 10 35  1  0  0  0  0
 11 36  1  0  0  0  0
 12 13  1  0  0  0  0
 12 37  1  0  0  0  0
 12 38  1  0  0  0  0
 13 23  1  0  0  0  0
 13 14  1  0  0  0  0
 14 15  2  0  0  0  0
 14 39  1  0  0  0  0
 15 16  1  0  0  0  0
 16 23  2  0  0  0  0
 16 17  1  0  0  0  0
 17 18  2  0  0  0  0
 17 40  1  0  0  0  0
 18 19  1  0  0  0  0
 18 20  1  0  0  0  0
 20 21  1  0  0  0  0
 20 22  2  0  0  0  0
 22 23  1  0  0  0  0
 22 41  1  0  0  0  0
 24 25  2  0  0  0  0
 24 42  1  0  0  0  0
 25 43  1  0  0  0  0
M  END
> <s_m_source_file>
AV-unprocessed.smi

> <i_m_source_file_index>
1885

> <i_lp_mmshare_version>
43012

> <i_f3d_flags>
0

> <s_epik_input>
W0NIM11PYzFbY0hdW2NIXWMoW2NIXVtjSF0xKVtDSDJdT1tDSDJdW0NASF0oW09IXSlbQ0gyXW4oW2NIXW4yKWMoYzIzKVtjSF1jKEYpYyhGKVtjSF0z

> <s_epik_cmdline>
J2VwaWtfcHl0aG9uJywgJy1waCcsICc3LjAnLCAnLXRuJywgJzgnLCAnLW1hJywgJzIwMCcsICctbWV0YWxfYmluZGluZycsICctaW1hZScsICc8aW5maWxlLm1hZT4nLCAnLW9tYWUnLCAnPG91dGZpbGUubWFlPic=

> <r_lp_tautomer_probability>
1

> <r_epik_Ionization_Penalty>
0.0160256

> <r_epik_Ionization_Penalty_Charging>
0

> <r_epik_Ionization_Penalty_Neutral>
0.0160256

> <r_epik_State_Penalty>
0.0126263

> <r_epik_Charging_Adjusted_Penalty>
0.0126263

> <i_epik_Tot_Q>
0

> <i_epik_Tot_abs_Q>
0

> <r_epik_Metal_State_Penalty>
1.27616e-05

> <b_epik_Metal_Only>
0

> <s_lp_Force_Field>
OPLS_2005

> <r_lp_Energy>
16.1037

> <b_lp_Chiralities_Consistent>
1

> <s_lp_Variant>
AV-unprocessed.smi:1885-2

> <Gold.Version>
5.8.1

> <Gold.Id.Protein>
6NUR|6NUR_protein|mol2

> <Gold.PLP.Fitness>
64.0358

> <Gold.PLP.PLP>
-60.8951

> <Gold.PLP.part.hbond>
-3.3897

> <Gold.PLP.part.metal>
0.0000

> <Gold.PLP.part.buried>
-6.1529

> <Gold.PLP.part.nonpolar>
-51.7550

> <Gold.PLP.part.repulsive>
0.1517

> <Gold.PLP.ligand.clash>
0.0000

> <Gold.PLP.ligand.torsion>
1.0457

> <Gold.PLP.Chemscore.Hbond>
1.6720

> <Gold.PLP.Chemscore.CHOScore>
0.0000

> <Gold.PLP.Chemscore.Metal>
0.0000

> <Gold.Chemscore.Hbonds>
donor molecule, donor type, donor heavy atom, donor atom, acceptor molecule, acceptor atom, score
      L1  H    11    36       P1  7957  0.75
      P1  H  7997  8009       L1    15  0.07
      P1  H  8011  8017       L1    11  0.55

> <Gold.PLP.Chemscore.Internal.Correction>
0.2161

> <Gold.Rescore>
     Score         DG    S(hbond)    S(metal)    S(lipo)     H(rot)  DE(clash)    DE(int)     intcor
     15.57     -17.83       1.31        0.00     132.27       2.93       0.90       1.36       ----

> <Gold.Chemscore.Fitness>
15.5678

> <Gold.Chemscore.DG>
-17.8266

> <Gold.Chemscore.ZeroCoef>
-5.4800

> <Gold.Chemscore.Hbond>
1.3117

> <Gold.Chemscore.Metal>
0.0000

> <Gold.Chemscore.Lipo>
132.2657

> <Gold.Chemscore.Internal_Hbond>
0.0000

> <Gold.Chemscore.DEClash>
0.8978

> <Gold.Chemscore.DEInternal>
1.3609

> <Gold.Chemscore.Rot>
2.9335

> <Gold.Chemscore.Internal.Correction>
   9.000000E+99

> <Gold.Chemscore.Hbonds>
donor molecule, donor type, donor heavy atom, donor atom, acceptor molecule, acceptor atom, score
      L1  H    11    36       P1  7957  0.75
      P1  H  8011  8017       L1    11  0.03

> <Gold.Chemscore.Hbond.Weighted>
-4.3812

> <Gold.Chemscore.Metal.Weighted>
-0.0000

> <Gold.Chemscore.Lipo.Weighted>
-15.4751

> <Gold.Chemscore.Internal_Hbond.Weighted>
0.0000

> <Gold.Chemscore.DEClash.Weighted>
0.8978

> <Gold.Chemscore.DEInternal.Weighted>
1.3609

> <Gold.Chemscore.Rot.Weighted>
7.5097

> <Gold.Chemscore.Internal.Correction.Weighted>
   9.000000E+99

> <Gold.Protein.RotatedTorsions>
[ 6907 6896 6895 6894 ] final -114.85 input  -60.11 | X-H torsion
[ 7974 7965 7964 7962 ] final  -51.92 input  175.53 | X-H torsion
[ 8008 7997 7996 7995 ] final  160.25 input   59.86 | X-H torsion
[ 10167 10162 10161 10158 ] final  -31.79 input  -65.29 | X-H torsion
[ 10718 10713 10712 10709 ] final -113.31 input   66.30 | X-H torsion
[ 10763 10752 10751 10750 ] final -121.40 input  -60.55 | X-H torsion
[ 11005 11000 10999 10996 ] final -171.44 input  -57.11 | X-H torsion

> <Gold.Protein.ActiveResidues>
 VAL166  LYS551  ARG553  GLY616  TRP617  ASP618  TYR619  PRO620  LYS621  CYS622 
 ASP623  PHE694  ASN695  SER759  ASP760  ASP761  ALA762  ILE779  LEU786  VAL792 
 PHE793  MET794  SER795  GLU796  ALA797  LYS798  CYS799  TRP800  GLU811  SER814 

> <Gold.Protein.RotatedAtoms>
  150.7933  133.8742  159.3267 H   0  0  0  0  0  0  0  0  0  0  0  0  # atno 6907 bound_to 6896
  151.6574  135.0992  160.0182 H   0  0  0  0  0  0  0  0  0  0  0  0  # atno 6908 bound_to 6896
  152.4011  133.6780  159.6352 H   0  0  0  0  0  0  0  0  0  0  0  0  # atno 6909 bound_to 6896
  145.9136  140.7894  142.9683 H   0  0  0  0  0  0  0  0  0  0  0  0  # atno 7974 bound_to 7965
  156.2185  140.1809  156.7534 H   0  0  0  0  0  0  0  0  0  0  0  0  # atno 8008 bound_to 7997
  154.5828  140.0663  156.9157 H   0  0  0  0  0  0  0  0  0  0  0  0  # atno 8009 bound_to 7997
  155.2473  140.3326  155.4288 H   0  0  0  0  0  0  0  0  0  0  0  0  # atno 8010 bound_to 7997
  140.7231  143.3744  151.1718 H   0  0  0  0  0  0  0  0  0  0  0  0  # atno 10167 bound_to 10162
  156.0759  130.5966  150.8625 H   0  0  0  0  0  0  0  0  0  0  0  0  # atno 10718 bound_to 10713
  154.8667  135.4169  154.2614 H   0  0  0  0  0  0  0  0  0  0  0  0  # atno 10763 bound_to 10752
  153.3542  135.7000  153.6770 H   0  0  0  0  0  0  0  0  0  0  0  0  # atno 10764 bound_to 10752
  153.5697  135.3593  155.2805 H   0  0  0  0  0  0  0  0  0  0  0  0  # atno 10765 bound_to 10752
  140.5082  134.5827  157.5010 H   0  0  0  0  0  0  0  0  0  0  0  0  # atno 11005 bound_to 11000
  144.6745  140.1865  143.7401 LP  0  0  0  0  0  0  0  0  0  0  0  0  # atno 17320 bound_to 7965
  145.8640  139.2237  143.1700 LP  0  0  0  0  0  0  0  0  0  0  0  0  # atno 17321 bound_to 7965
  139.7321  143.9056  152.3023 LP  0  0  0  0  0  0  0  0  0  0  0  0  # atno 17342 bound_to 10162
  139.8849  144.6997  150.8836 LP  0  0  0  0  0  0  0  0  0  0  0  0  # atno 17343 bound_to 10162
  157.5854  131.0945  150.9205 LP  0  0  0  0  0  0  0  0  0  0  0  0  # atno 17370 bound_to 10713
  156.9392  130.5378  149.5280 LP  0  0  0  0  0  0  0  0  0  0  0  0  # atno 17371 bound_to 10713
  139.9674  134.7350  156.0111 LP  0  0  0  0  0  0  0  0  0  0  0  0  # atno 17394 bound_to 11000
  141.1399  133.6567  156.3701 LP  0  0  0  0  0  0  0  0  0  0  0  0  # atno 17395 bound_to 11000

$$$$
