AV-unprocessed.smi:2160|AV-procd|sdf|8800|dock10
  -GOLD-   2272011583D 1   1.00000     0.00000
 Structure written by MMmdl.
 44 46  0  0  0  0  0  0  0  0  2 V2000
  150.4018  145.0467  160.0600 C   0  0  0  0  0  0  0  0  0  0  0  0
  151.0844  144.3806  161.1122 O   0  0  0  0  0  0  0  0  0  0  0  0
  151.8303  143.2651  160.7969 C   0  0  0  0  0  0  0  0  0  0  0  0
  151.9771  142.7501  159.4845 C   0  0  0  0  0  0  0  0  0  0  0  0
  152.7603  141.6031  159.2519 C   0  0  0  0  0  0  0  0  0  0  0  0
  153.4120  140.9538  160.3193 C   0  0  0  0  0  0  0  0  0  0  0  0
  154.2356  139.7080  160.0448 C   0  0  0  0  0  0  0  0  0  0  0  0
  154.1841  139.3003  158.6862 O   0  0  0  0  0  0  0  0  0  0  0  0
  154.1159  137.8915  158.5393 C   0  0  0  0  0  0  0  0  0  0  0  0
  153.2978  137.5526  157.2832 C   0  0  1  0  0  0  0  0  0  0  0  0
  153.5330  136.1989  156.9473 O   0  0  0  0  0  0  0  0  0  0  0  0
  151.7871  137.7662  157.5061 C   0  0  0  0  0  0  0  0  0  0  0  0
  151.0217  137.7686  156.2505 N   0  0  0  0  0  0  0  0  0  0  0  0
  150.8754  136.7820  155.3250 C   0  0  0  0  0  0  0  0  0  0  0  0
  150.0659  137.2581  154.3391 N   0  3  0  0  0  0  0  0  0  0  0  0
  149.6874  138.5683  154.6383 C   0  0  0  0  0  0  0  0  0  0  0  0
  148.8762  139.4616  153.9454 C   0  0  0  0  0  0  0  0  0  0  0  0
  148.6878  140.7305  154.5309 C   0  0  0  0  0  0  0  0  0  0  0  0
  149.2939  141.0702  155.7577 C   0  0  0  0  0  0  0  0  0  0  0  0
  150.1149  140.1569  156.4513 C   0  0  0  0  0  0  0  0  0  0  0  0
  150.2978  138.9041  155.8657 C   0  0  0  0  0  0  0  0  0  0  0  0
  153.2622  141.4574  161.6284 C   0  0  0  0  0  0  0  0  0  0  0  0
  152.4802  142.6053  161.8600 C   0  0  0  0  0  0  0  0  0  0  0  0
  149.8607  145.9014  160.4657 H   0  0  0  0  0  0  0  0  0  0  0  0
  149.6723  144.3923  159.5810 H   0  0  0  0  0  0  0  0  0  0  0  0
  151.0974  145.4241  159.3092 H   0  0  0  0  0  0  0  0  0  0  0  0
  151.4972  143.2159  158.6373 H   0  0  0  0  0  0  0  0  0  0  0  0
  152.8591  141.2209  158.2465 H   0  0  0  0  0  0  0  0  0  0  0  0
  155.2686  139.9123  160.3300 H   0  0  0  0  0  0  0  0  0  0  0  0
  153.8739  138.9004  160.6834 H   0  0  0  0  0  0  0  0  0  0  0  0
  155.1105  137.4441  158.4919 H   0  0  0  0  0  0  0  0  0  0  0  0
  153.6214  137.4834  159.4222 H   0  0  0  0  0  0  0  0  0  0  0  0
  153.6226  138.1818  156.4532 H   0  0  0  0  0  0  0  0  0  0  0  0
  152.8756  135.6663  157.3674 H   0  0  0  0  0  0  0  0  0  0  0  0
  151.3759  137.0172  158.1830 H   0  0  0  0  0  0  0  0  0  0  0  0
  151.6164  138.7320  157.9831 H   0  0  0  0  0  0  0  0  0  0  0  0
  151.3187  135.7975  155.3672 H   0  0  0  0  0  0  0  0  0  0  0  0
  148.4091  139.2027  153.0065 H   0  0  0  0  0  0  0  0  0  0  0  0
  148.0652  141.4575  154.0297 H   0  0  0  0  0  0  0  0  0  0  0  0
  149.1249  142.0516  156.1767 H   0  0  0  0  0  0  0  0  0  0  0  0
  150.5692  140.4296  157.3918 H   0  0  0  0  0  0  0  0  0  0  0  0
  153.7427  140.9694  162.4638 H   0  0  0  0  0  0  0  0  0  0  0  0
  152.3760  142.9823  162.8669 H   0  0  0  0  0  0  0  0  0  0  0  0
  149.7916  136.7247  153.5240 H   0  0  0  0  0  0  0  0  0  0  0  0
  1  2  1  0  0  0  0
  1 24  1  0  0  0  0
  1 25  1  0  0  0  0
  1 26  1  0  0  0  0
  2  3  1  0  0  0  0
  3 23  1  0  0  0  0
  3  4  2  0  0  0  0
  4  5  1  0  0  0  0
  4 27  1  0  0  0  0
  5  6  2  0  0  0  0
  5 28  1  0  0  0  0
  6  7  1  0  0  0  0
  6 22  1  0  0  0  0
  7  8  1  0  0  0  0
  7 29  1  0  0  0  0
  7 30  1  0  0  0  0
  8  9  1  0  0  0  0
  9 10  1  0  0  0  0
  9 31  1  0  0  0  0
  9 32  1  0  0  0  0
 10 11  1  0  0  0  0
 10 12  1  0  0  0  0
 10 33  1  0  0  0  0
 11 34  1  0  0  0  0
 12 13  1  0  0  0  0
 12 35  1  0  0  0  0
 12 36  1  0  0  0  0
 13 21  1  0  0  0  0
 13 14  1  0  0  0  0
 14 15  2  0  0  0  0
 14 37  1  0  0  0  0
 15 16  1  0  0  0  0
 15 44  1  0  0  0  0
 16 21  2  0  0  0  0
 16 17  1  0  0  0  0
 17 18  2  0  0  0  0
 17 38  1  0  0  0  0
 18 19  1  0  0  0  0
 18 39  1  0  0  0  0
 19 20  2  0  0  0  0
 19 40  1  0  0  0  0
 20 21  1  0  0  0  0
 20 41  1  0  0  0  0
 22 23  2  0  0  0  0
 22 42  1  0  0  0  0
 23 43  1  0  0  0  0
M  CHG  1  15   1
M  END
> <s_m_source_file>
AV-unprocessed.smi

> <i_m_source_file_index>
2160

> <i_lp_mmshare_version>
43012

> <i_f3d_flags>
0

> <s_epik_input>
W0NIM11PYzFbY0hdW2NIXWMoW2NIXVtjSF0xKVtDSDJdT1tDSDJdW0NASF0oW09IXSlbQ0gyXW4oW2NIXW4yKWMoYzIzKVtjSF1bY0hdW2NIXVtjSF0z

> <s_epik_cmdline>
J2VwaWtfcHl0aG9uJywgJy1waCcsICc3LjAnLCAnLXRuJywgJzgnLCAnLW1hJywgJzIwMCcsICctbWV0YWxfYmluZGluZycsICctaW1hZScsICc8aW5maWxlLm1hZT4nLCAnLW9tYWUnLCAnPG91dGZpbGUubWFlPic=

> <r_lp_tautomer_probability>
1

> <r_epik_Ionization_Penalty>
1.28975

> <r_epik_Ionization_Penalty_Charging>
1.28975

> <r_epik_Ionization_Penalty_Neutral>
9.74819e-07

> <r_epik_State_Penalty>
1.36276

> <r_epik_Charging_Adjusted_Penalty>
2.65251

> <i_epik_Tot_Q>
1

> <i_epik_Tot_abs_Q>
1

> <r_epik_Metal_State_Penalty>
5.39298

> <b_epik_Metal_Only>
0

> <s_lp_Force_Field>
OPLS_2005

> <r_lp_Energy>
25.2455

> <b_lp_Chiralities_Consistent>
1

> <s_lp_Variant>
AV-unprocessed.smi:2160-4

> <Gold.Version>
5.8.1

> <Gold.Id.Protein>
6NUR|6NUR_protein|mol2

> <Gold.PLP.Fitness>
57.3082

> <Gold.PLP.PLP>
-46.6359

> <Gold.PLP.part.hbond>
-3.0000

> <Gold.PLP.part.metal>
0.0000

> <Gold.PLP.part.buried>
-1.6952

> <Gold.PLP.part.nonpolar>
-40.9212

> <Gold.PLP.part.repulsive>
0.2455

> <Gold.PLP.ligand.clash>
0.0000

> <Gold.PLP.ligand.torsion>
0.7098

> <Gold.PLP.Chemscore.Hbond>
4.0000

> <Gold.PLP.Chemscore.CHOScore>
0.0000

> <Gold.PLP.Chemscore.Metal>
0.0000

> <Gold.Chemscore.Hbonds>
donor molecule, donor type, donor heavy atom, donor atom, acceptor molecule, acceptor atom, score
      L1  H    15    44       P1  7948  2.00
      P1  H  7997  8009       L1     8  1.00
      P1  H 10752 10763       L1    11  0.85

> <Gold.PLP.Chemscore.Internal.Correction>
0.0920

> <Gold.Rescore>
     Score         DG    S(hbond)    S(metal)    S(lipo)     H(rot)  DE(clash)    DE(int)     intcor
     21.82     -24.04       2.96        0.00     134.15       2.74       1.32       0.90       ----

> <Gold.Chemscore.Fitness>
21.8160

> <Gold.Chemscore.DG>
-24.0387

> <Gold.Chemscore.ZeroCoef>
-5.4800

> <Gold.Chemscore.Hbond>
2.9566

> <Gold.Chemscore.Metal>
0.0000

> <Gold.Chemscore.Lipo>
134.1499

> <Gold.Chemscore.Internal_Hbond>
0.0000

> <Gold.Chemscore.DEClash>
1.3199

> <Gold.Chemscore.DEInternal>
0.9028

> <Gold.Chemscore.Rot>
2.7390

> <Gold.Chemscore.Internal.Correction>
   9.000000E+99

> <Gold.Chemscore.Hbonds>
donor molecule, donor type, donor heavy atom, donor atom, acceptor molecule, acceptor atom, score
      L1  H    15    44       P1  7948  0.45
      P1  H  7997  8009       L1     8  0.74
      P1  H 10752 10763       L1    11  0.14

> <Gold.Chemscore.Hbond.Weighted>
-9.8749

> <Gold.Chemscore.Metal.Weighted>
-0.0000

> <Gold.Chemscore.Lipo.Weighted>
-15.6955

> <Gold.Chemscore.Internal_Hbond.Weighted>
0.0000

> <Gold.Chemscore.DEClash.Weighted>
1.3199

> <Gold.Chemscore.DEInternal.Weighted>
0.9028

> <Gold.Chemscore.Rot.Weighted>
7.0118

> <Gold.Chemscore.Internal.Correction.Weighted>
   9.000000E+99

> <Gold.Protein.RotatedTorsions>
[ 6907 6896 6895 6894 ] final  172.85 input  -60.11 | X-H torsion
[ 7974 7965 7964 7962 ] final   -1.72 input  175.53 | X-H torsion
[ 8008 7997 7996 7995 ] final  131.62 input   59.86 | X-H torsion
[ 10167 10162 10161 10158 ] final   67.03 input  -65.29 | X-H torsion
[ 10718 10713 10712 10709 ] final -110.16 input   66.30 | X-H torsion
[ 10763 10752 10751 10750 ] final  111.29 input  -60.55 | X-H torsion
[ 11005 11000 10999 10996 ] final   96.79 input  -57.11 | X-H torsion

> <Gold.Protein.ActiveResidues>
 VAL166  LYS551  ARG553  GLY616  TRP617  ASP618  TYR619  PRO620  LYS621  CYS622 
 ASP623  PHE694  ASN695  SER759  ASP760  ASP761  ALA762  ILE779  LEU786  VAL792 
 PHE793  MET794  SER795  GLU796  ALA797  LYS798  CYS799  TRP800  GLU811  SER814 

> <Gold.Protein.RotatedAtoms>
  151.7777  133.3347  159.3462 H   0  0  0  0  0  0  0  0  0  0  0  0  # atno 6907 bound_to 6896
  150.7438  134.5959  159.6021 H   0  0  0  0  0  0  0  0  0  0  0  0  # atno 6908 bound_to 6896
  152.3297  134.7276  160.0344 H   0  0  0  0  0  0  0  0  0  0  0  0  # atno 6909 bound_to 6896
  146.2413  140.1463  142.8334 H   0  0  0  0  0  0  0  0  0  0  0  0  # atno 7974 bound_to 7965
  156.2972  140.2567  156.2956 H   0  0  0  0  0  0  0  0  0  0  0  0  # atno 8008 bound_to 7997
  154.9467  140.0395  157.2143 H   0  0  0  0  0  0  0  0  0  0  0  0  # atno 8009 bound_to 7997
  154.8074  140.2838  155.5882 H   0  0  0  0  0  0  0  0  0  0  0  0  # atno 8010 bound_to 7997
  140.0940  144.4963  150.7080 H   0  0  0  0  0  0  0  0  0  0  0  0  # atno 10167 bound_to 10162
  156.0576  130.5801  150.8200 H   0  0  0  0  0  0  0  0  0  0  0  0  # atno 10718 bound_to 10713
  153.4612  135.3721  155.2339 H   0  0  0  0  0  0  0  0  0  0  0  0  # atno 10763 bound_to 10752
  154.8757  135.3909  154.3922 H   0  0  0  0  0  0  0  0  0  0  0  0  # atno 10764 bound_to 10752
  153.4496  135.7085  153.6181 H   0  0  0  0  0  0  0  0  0  0  0  0  # atno 10765 bound_to 10752
  139.8779  134.8968  156.4211 H   0  0  0  0  0  0  0  0  0  0  0  0  # atno 11005 bound_to 11000
  145.0205  140.8789  143.5170 LP  0  0  0  0  0  0  0  0  0  0  0  0  # atno 17320 bound_to 7965
  145.1511  139.2514  143.5440 LP  0  0  0  0  0  0  0  0  0  0  0  0  # atno 17321 bound_to 7965
  140.7013  143.2437  151.4855 LP  0  0  0  0  0  0  0  0  0  0  0  0  # atno 17342 bound_to 10162
  139.5708  144.1932  152.1834 LP  0  0  0  0  0  0  0  0  0  0  0  0  # atno 17343 bound_to 10162
  157.5559  131.0945  150.9630 LP  0  0  0  0  0  0  0  0  0  0  0  0  # atno 17370 bound_to 10713
  156.9879  130.5552  149.5301 LP  0  0  0  0  0  0  0  0  0  0  0  0  # atno 17371 bound_to 10713
  140.9133  133.7696  155.9817 LP  0  0  0  0  0  0  0  0  0  0  0  0  # atno 17394 bound_to 11000
  140.8522  134.2940  157.5270 LP  0  0  0  0  0  0  0  0  0  0  0  0  # atno 17395 bound_to 11000

$$$$
