AV-unprocessed.smi:1859|AV-procd|sdf|7545|dock6
  -GOLD-   22720 9263D 1   1.00000     0.00000
 Structure written by MMmdl.
 46 48  0  0  0  0  0  0  0  0  2 V2000
  151.1448  135.0360  155.6049 O   0  0  0  0  0  0  0  0  0  0  0  0
  150.2219  135.6121  155.0278 C   0  0  0  0  0  0  0  0  0  0  0  0
  149.4183  135.0031  154.1416 N   0  0  0  0  0  0  0  0  0  0  0  0
  149.5141  133.5997  153.7567 C   0  0  0  0  0  0  0  0  0  0  0  0
  148.1985  132.8453  154.0152 C   0  0  0  0  0  0  0  0  0  0  0  0
  147.3272  132.7728  152.7768 C   0  0  0  0  0  0  0  0  0  0  0  0
  146.6113  131.6054  152.4334 C   0  0  0  0  0  0  0  0  0  0  0  0
  145.8108  131.6043  151.2722 C   0  0  0  0  0  0  0  0  0  0  0  0
  145.7423  132.7694  150.4803 C   0  0  0  0  0  0  0  0  0  0  0  0
  146.4755  133.9083  150.8717 C   0  0  0  0  0  0  0  0  0  0  0  0
  147.2305  133.8704  151.9918 N   0  3  0  0  0  0  0  0  0  0  0  0
  149.9400  137.0941  155.3064 C   0  0  2  0  0  0  0  0  0  0  0  0
  148.4820  137.4611  154.9423 C   0  0  0  0  0  0  0  0  0  0  0  0
  148.2210  138.9736  155.0809 C   0  0  0  0  0  0  0  0  0  0  0  0
  149.2914  139.7838  154.3286 C   0  0  0  0  0  0  0  0  0  0  0  0
  150.6156  139.4041  154.8415 N   0  0  0  0  0  0  0  0  0  0  0  0
  151.4354  140.1823  155.5920 C   0  0  0  0  0  0  0  0  0  0  0  0
  152.5426  139.7951  155.9685 O   0  0  0  0  0  0  0  0  0  0  0  0
  150.9301  141.5408  155.9729 C   0  0  0  0  0  0  0  0  0  0  0  0
  150.9714  141.8985  157.4436 C   0  0  0  0  0  0  0  0  0  0  0  0
  149.6465  141.6333  156.7785 C   0  0  0  0  0  0  0  0  0  0  0  0
  150.9238  138.0017  154.5322 C   0  0  0  0  0  0  0  0  0  0  0  0
  148.6827  135.5480  153.7150 H   0  0  0  0  0  0  0  0  0  0  0  0
  149.7957  133.5263  152.7049 H   0  0  0  0  0  0  0  0  0  0  0  0
  150.3244  133.1451  154.3271 H   0  0  0  0  0  0  0  0  0  0  0  0
  148.4092  131.8329  154.3627 H   0  0  0  0  0  0  0  0  0  0  0  0
  147.6315  133.3302  154.8109 H   0  0  0  0  0  0  0  0  0  0  0  0
  146.6717  130.7217  153.0524 H   0  0  0  0  0  0  0  0  0  0  0  0
  145.2558  130.7206  150.9930 H   0  0  0  0  0  0  0  0  0  0  0  0
  145.1353  132.7891  149.5869 H   0  0  0  0  0  0  0  0  0  0  0  0
  146.4813  134.8411  150.3268 H   0  0  0  0  0  0  0  0  0  0  0  0
  150.0811  137.2772  156.3734 H   0  0  0  0  0  0  0  0  0  0  0  0
  148.2712  137.1631  153.9139 H   0  0  0  0  0  0  0  0  0  0  0  0
  147.7836  136.9075  155.5711 H   0  0  0  0  0  0  0  0  0  0  0  0
  147.2286  139.2170  154.7005 H   0  0  0  0  0  0  0  0  0  0  0  0
  148.2267  139.2523  156.1353 H   0  0  0  0  0  0  0  0  0  0  0  0
  149.2439  139.5559  153.2627 H   0  0  0  0  0  0  0  0  0  0  0  0
  149.0792  140.8496  154.3980 H   0  0  0  0  0  0  0  0  0  0  0  0
  151.0890  142.3401  155.2513 H   0  0  0  0  0  0  0  0  0  0  0  0
  151.3383  141.1502  158.1441 H   0  0  0  0  0  0  0  0  0  0  0  0
  151.2235  142.9268  157.6937 H   0  0  0  0  0  0  0  0  0  0  0  0
  148.9984  142.4837  156.5774 H   0  0  0  0  0  0  0  0  0  0  0  0
  149.1269  140.7193  157.0595 H   0  0  0  0  0  0  0  0  0  0  0  0
  151.9530  137.7332  154.7758 H   0  0  0  0  0  0  0  0  0  0  0  0
  150.8281  137.8461  153.4559 H   0  0  0  0  0  0  0  0  0  0  0  0
  147.7525  134.7064  152.2557 H   0  0  0  0  0  0  0  0  0  0  0  0
  1  2  2  0  0  0  0
  2  3  1  0  0  0  0
  2 12  1  0  0  0  0
  3  4  1  0  0  0  0
  3 23  1  0  0  0  0
  4  5  1  0  0  0  0
  4 24  1  0  0  0  0
  4 25  1  0  0  0  0
  5  6  1  0  0  0  0
  5 26  1  0  0  0  0
  5 27  1  0  0  0  0
  6 11  1  0  0  0  0
  6  7  2  0  0  0  0
  7  8  1  0  0  0  0
  7 28  1  0  0  0  0
  8  9  2  0  0  0  0
  8 29  1  0  0  0  0
  9 10  1  0  0  0  0
  9 30  1  0  0  0  0
 10 11  2  0  0  0  0
 10 31  1  0  0  0  0
 11 46  1  0  0  0  0
 12 22  1  0  0  0  0
 12 13  1  0  0  0  0
 12 32  1  0  0  0  0
 13 14  1  0  0  0  0
 13 33  1  0  0  0  0
 13 34  1  0  0  0  0
 14 15  1  0  0  0  0
 14 35  1  0  0  0  0
 14 36  1  0  0  0  0
 15 16  1  0  0  0  0
 15 37  1  0  0  0  0
 15 38  1  0  0  0  0
 16 17  1  0  0  0  0
 16 22  1  0  0  0  0
 17 18  2  0  0  0  0
 17 19  1  0  0  0  0
 19 21  1  0  0  0  0
 19 20  1  0  0  0  0
 19 39  1  0  0  0  0
 20 21  1  0  0  0  0
 20 40  1  0  0  0  0
 20 41  1  0  0  0  0
 21 42  1  0  0  0  0
 21 43  1  0  0  0  0
 22 44  1  0  0  0  0
 22 45  1  0  0  0  0
M  CHG  1  11   1
M  END
> <s_m_source_file>
AV-unprocessed.smi

> <i_m_source_file_index>
1859

> <i_lp_mmshare_version>
43012

> <i_f3d_flags>
0

> <s_epik_input>
W0NIMl0xW0NIMl1bQ0hdMUMoPU8pTihbQ0gyXTIpW0NIMl1bQ0gyXVtDSDJdW0NASF0yQyg9TylbTkhdW0NIMl1bQ0gyXWMzW2NIXVtjSF1bY0hdW2NIXW4z

> <s_epik_cmdline>
J2VwaWtfcHl0aG9uJywgJy1waCcsICc3LjAnLCAnLXRuJywgJzgnLCAnLW1hJywgJzIwMCcsICctbWV0YWxfYmluZGluZycsICctaW1hZScsICc8aW5maWxlLm1hZT4nLCAnLW9tYWUnLCAnPG91dGZpbGUubWFlPic=

> <r_epik_Ionization_Penalty>
1.84754

> <r_epik_Ionization_Penalty_Charging>
1.84754

> <r_epik_Ionization_Penalty_Neutral>
7.35743e-08

> <r_epik_State_Penalty>
1.96477

> <r_epik_Charging_Adjusted_Penalty>
3.81231

> <i_epik_Tot_Q>
1

> <i_epik_Tot_abs_Q>
1

> <r_epik_Metal_State_Penalty>
1.99062

> <b_epik_Metal_Only>
0

> <s_lp_Force_Field>
OPLS_2005

> <r_lp_Energy>
35.3834

> <b_lp_Chiralities_Consistent>
1

> <s_lp_Variant>
AV-unprocessed.smi:1859-3

> <Gold.Version>
5.8.1

> <Gold.Id.Protein>
6NUR|6NUR_protein|mol2

> <Gold.PLP.Fitness>
51.3325

> <Gold.PLP.PLP>
-40.7356

> <Gold.PLP.part.hbond>
-4.0000

> <Gold.PLP.part.metal>
0.0000

> <Gold.PLP.part.buried>
-2.3611

> <Gold.PLP.part.nonpolar>
-32.5076

> <Gold.PLP.part.repulsive>
0.1246

> <Gold.PLP.ligand.clash>
0.0194

> <Gold.PLP.ligand.torsion>
1.1702

> <Gold.PLP.Chemscore.Hbond>
4.2789

> <Gold.PLP.Chemscore.CHOScore>
0.0000

> <Gold.PLP.Chemscore.Metal>
0.0000

> <Gold.Chemscore.Hbonds>
donor molecule, donor type, donor heavy atom, donor atom, acceptor molecule, acceptor atom, score
      L1  H     3    23       P1  7948  0.35
      L1  H    11    46       P1  7948  2.00
      P1  H  7997  8008       L1    18  1.00
      P1  H 10752 10763       L1     1  0.87

> <Gold.PLP.Chemscore.Internal.Correction>
0.1200

> <Gold.Rescore>
     Score         DG    S(hbond)    S(metal)    S(lipo)     H(rot)  DE(clash)    DE(int)     intcor
     19.85     -21.28       2.89        0.00      89.62       1.70       0.25       1.18       ----

> <Gold.Chemscore.Fitness>
19.8476

> <Gold.Chemscore.DG>
-21.2783

> <Gold.Chemscore.ZeroCoef>
-5.4800

> <Gold.Chemscore.Hbond>
2.8922

> <Gold.Chemscore.Metal>
0.0000

> <Gold.Chemscore.Lipo>
89.6189

> <Gold.Chemscore.Internal_Hbond>
0.0000

> <Gold.Chemscore.DEClash>
0.2479

> <Gold.Chemscore.DEInternal>
1.1828

> <Gold.Chemscore.Rot>
1.6980

> <Gold.Chemscore.Internal.Correction>
   9.000000E+99

> <Gold.Chemscore.Hbonds>
donor molecule, donor type, donor heavy atom, donor atom, acceptor molecule, acceptor atom, score
      L1  H     3    23       P1  7948  0.32
      L1  H    11    46       P1  7948  0.66
      P1  H  7997  8008       L1    18  1.00
      P1  H 10752 10763       L1     1  0.73

> <Gold.Chemscore.Hbond.Weighted>
-9.6598

> <Gold.Chemscore.Metal.Weighted>
-0.0000

> <Gold.Chemscore.Lipo.Weighted>
-10.4854

> <Gold.Chemscore.Internal_Hbond.Weighted>
0.0000

> <Gold.Chemscore.DEClash.Weighted>
0.2479

> <Gold.Chemscore.DEInternal.Weighted>
1.1828

> <Gold.Chemscore.Rot.Weighted>
4.3469

> <Gold.Chemscore.Internal.Correction.Weighted>
   9.000000E+99

> <Gold.Protein.RotatedTorsions>
[ 6907 6896 6895 6894 ] final -140.78 input  -60.11 | X-H torsion
[ 7974 7965 7964 7962 ] final  -69.59 input  175.53 | X-H torsion
[ 8008 7997 7996 7995 ] final  -36.52 input   59.86 | X-H torsion
[ 10167 10162 10161 10158 ] final  -68.63 input  -65.29 | X-H torsion
[ 10718 10713 10712 10709 ] final  136.56 input   66.30 | X-H torsion
[ 10763 10752 10751 10750 ] final   77.50 input  -60.55 | X-H torsion
[ 11005 11000 10999 10996 ] final  149.26 input  -57.11 | X-H torsion

> <Gold.Protein.ActiveResidues>
 VAL166  LYS551  ARG553  GLY616  TRP617  ASP618  TYR619  PRO620  LYS621  CYS622 
 ASP623  PHE694  ASN695  SER759  ASP760  ASP761  ALA762  ILE779  LEU786  VAL792 
 PHE793  MET794  SER795  GLU796  ALA797  LYS798  CYS799  TRP800  GLU811  SER814 

> <Gold.Protein.RotatedAtoms>
  151.0651  133.5512  159.2631 H   0  0  0  0  0  0  0  0  0  0  0  0  # atno 6907 bound_to 6896
  151.2472  135.0609  159.9058 H   0  0  0  0  0  0  0  0  0  0  0  0  # atno 6908 bound_to 6896
  152.5403  134.0417  159.8124 H   0  0  0  0  0  0  0  0  0  0  0  0  # atno 6909 bound_to 6896
  145.7018  140.9113  143.0727 H   0  0  0  0  0  0  0  0  0  0  0  0  # atno 7974 bound_to 7965
  154.4071  140.1628  156.2387 H   0  0  0  0  0  0  0  0  0  0  0  0  # atno 8008 bound_to 7997
  155.9220  140.3420  155.6157 H   0  0  0  0  0  0  0  0  0  0  0  0  # atno 8009 bound_to 7997
  155.7211  140.0768  157.2321 H   0  0  0  0  0  0  0  0  0  0  0  0  # atno 8010 bound_to 7997
  140.5493  143.2312  151.6942 H   0  0  0  0  0  0  0  0  0  0  0  0  # atno 10167 bound_to 10162
  157.4454  131.1061  151.0095 H   0  0  0  0  0  0  0  0  0  0  0  0  # atno 10718 bound_to 10713
  153.0803  135.4912  154.8489 H   0  0  0  0  0  0  0  0  0  0  0  0  # atno 10763 bound_to 10752
  154.7142  135.3026  154.9152 H   0  0  0  0  0  0  0  0  0  0  0  0  # atno 10764 bound_to 10752
  153.9836  135.6787  153.4804 H   0  0  0  0  0  0  0  0  0  0  0  0  # atno 10765 bound_to 10752
  140.1029  134.8972  157.1823 H   0  0  0  0  0  0  0  0  0  0  0  0  # atno 11005 bound_to 11000
  144.6966  139.8958  143.7456 LP  0  0  0  0  0  0  0  0  0  0  0  0  # atno 17320 bound_to 7965
  146.0791  139.3779  143.0476 LP  0  0  0  0  0  0  0  0  0  0  0  0  # atno 17321 bound_to 7965
  139.5020  144.3844  152.0343 LP  0  0  0  0  0  0  0  0  0  0  0  0  # atno 17342 bound_to 10162
  140.2959  144.3701  150.6074 LP  0  0  0  0  0  0  0  0  0  0  0  0  # atno 17343 bound_to 10162
  157.0944  130.5955  149.5446 LP  0  0  0  0  0  0  0  0  0  0  0  0  # atno 17370 bound_to 10713
  155.9965  130.5035  150.7500 LP  0  0  0  0  0  0  0  0  0  0  0  0  # atno 17371 bound_to 10713
  140.3195  134.2933  155.7249 LP  0  0  0  0  0  0  0  0  0  0  0  0  # atno 17394 bound_to 11000
  141.2110  133.7701  156.9890 LP  0  0  0  0  0  0  0  0  0  0  0  0  # atno 17395 bound_to 11000

$$$$
