AV-unprocessed.smi:2945|AV-procd|sdf|11277|dock1
  -GOLD-   2272016173D 1   1.00000     0.00000
 Structure written by MMmdl.
 36 37  0  0  0  0  0  0  0  0  1 V2000
  146.8007  141.2654  153.4632 C   0  0  0  0  0  0  0  0  0  0  0  0
  147.4166  141.1068  154.8111 C   0  0  0  0  0  0  0  0  0  0  0  0
  148.5403  141.6285  155.3877 C   0  0  0  0  0  0  0  0  0  0  0  0
  148.5280  141.0561  156.6874 C   0  0  0  0  0  0  0  0  0  0  0  0
  149.5540  141.3511  157.6206 N   0  0  0  0  0  0  0  0  0  0  0  0
  150.6225  142.1460  157.4420 C   0  0  0  0  0  0  0  0  0  0  0  0
  150.8929  142.7472  156.4021 O   0  0  0  0  0  0  0  0  0  0  0  0
  151.3719  142.2013  158.5531 N   0  0  0  0  0  0  0  0  0  0  0  0
  152.6028  142.9749  158.7305 C   0  0  1  0  0  0  0  0  0  0  0  0
  152.3734  144.4300  158.2742 C   0  0  0  0  0  0  0  0  0  0  0  0
  151.4391  145.1973  159.2258 C   0  0  0  0  0  0  0  0  0  0  0  0
  151.9548  145.1469  160.6717 C   0  0  0  0  0  0  0  0  0  0  0  0
  152.1649  143.6983  161.1415 C   0  0  0  0  0  0  0  0  0  0  0  0
  153.1075  142.9254  160.1955 C   0  0  1  0  0  0  0  0  0  0  0  0
  153.3635  141.4939  160.6967 C   0  0  0  0  0  0  0  0  0  0  0  0
  147.4900  140.2588  156.8872 N   0  0  0  0  0  0  0  0  0  0  0  0
  146.7719  140.2876  155.6857 O   0  0  0  0  0  0  0  0  0  0  0  0
  147.4385  141.8619  152.8107 H   0  0  0  0  0  0  0  0  0  0  0  0
  145.8331  141.7621  153.5369 H   0  0  0  0  0  0  0  0  0  0  0  0
  146.6486  140.2950  152.9904 H   0  0  0  0  0  0  0  0  0  0  0  0
  149.2548  142.3079  154.9473 H   0  0  0  0  0  0  0  0  0  0  0  0
  149.4594  140.9167  158.5264 H   0  0  0  0  0  0  0  0  0  0  0  0
  151.0646  141.6664  159.3520 H   0  0  0  0  0  0  0  0  0  0  0  0
  153.3839  142.5586  158.0921 H   0  0  0  0  0  0  0  0  0  0  0  0
  153.3337  144.9452  158.2283 H   0  0  0  0  0  0  0  0  0  0  0  0
  151.9720  144.4489  157.2603 H   0  0  0  0  0  0  0  0  0  0  0  0
  151.3494  146.2340  158.9003 H   0  0  0  0  0  0  0  0  0  0  0  0
  150.4349  144.7744  159.1804 H   0  0  0  0  0  0  0  0  0  0  0  0
  152.8960  145.6937  160.7422 H   0  0  0  0  0  0  0  0  0  0  0  0
  151.2529  145.6544  161.3339 H   0  0  0  0  0  0  0  0  0  0  0  0
  152.5744  143.7022  162.1522 H   0  0  0  0  0  0  0  0  0  0  0  0
  151.2013  143.1915  161.2050 H   0  0  0  0  0  0  0  0  0  0  0  0
  154.0710  143.4373  160.2156 H   0  0  0  0  0  0  0  0  0  0  0  0
  152.4399  140.9193  160.7705 H   0  0  0  0  0  0  0  0  0  0  0  0
  153.8235  141.5031  161.6851 H   0  0  0  0  0  0  0  0  0  0  0  0
  154.0362  140.9591  160.0259 H   0  0  0  0  0  0  0  0  0  0  0  0
  1  2  1  0  0  0  0
  1 18  1  0  0  0  0
  1 19  1  0  0  0  0
  1 20  1  0  0  0  0
  2 17  1  0  0  0  0
  2  3  2  0  0  0  0
  3  4  1  0  0  0  0
  3 21  1  0  0  0  0
  4  5  1  0  0  0  0
  4 16  2  0  0  0  0
  5  6  1  0  0  0  0
  5 22  1  0  0  0  0
  6  7  2  0  0  0  0
  6  8  1  0  0  0  0
  8  9  1  0  0  0  0
  8 23  1  0  0  0  0
  9 14  1  0  0  0  0
  9 10  1  0  0  0  0
  9 24  1  0  0  0  0
 10 11  1  0  0  0  0
 10 25  1  0  0  0  0
 10 26  1  0  0  0  0
 11 12  1  0  0  0  0
 11 27  1  0  0  0  0
 11 28  1  0  0  0  0
 12 13  1  0  0  0  0
 12 29  1  0  0  0  0
 12 30  1  0  0  0  0
 13 14  1  0  0  0  0
 13 31  1  0  0  0  0
 13 32  1  0  0  0  0
 14 15  1  0  0  0  0
 14 33  1  0  0  0  0
 15 34  1  0  0  0  0
 15 35  1  0  0  0  0
 15 36  1  0  0  0  0
 16 17  1  0  0  0  0
M  END
> <s_m_source_file>
AV-unprocessed.smi

> <i_m_source_file_index>
2945

> <i_lp_mmshare_version>
43012

> <i_f3d_flags>
0

> <s_epik_input>
W0NIM11jMVtjSF1jKG5vMSlbTkhdQyg9TylbTkhdW0NAQEhdMltDSDJdW0NIMl1bQ0gyXVtDSDJdW0NASF0yW0NIM10=

> <s_epik_cmdline>
J2VwaWtfcHl0aG9uJywgJy1waCcsICc3LjAnLCAnLXRuJywgJzgnLCAnLW1hJywgJzIwMCcsICctbWV0YWxfYmluZGluZycsICctaW1hZScsICc8aW5maWxlLm1hZT4nLCAnLW9tYWUnLCAnPG91dGZpbGUubWFlPic=

> <r_lp_tautomer_probability>
1

> <r_epik_Ionization_Penalty>
2.357e-05

> <r_epik_Ionization_Penalty_Charging>
0

> <r_epik_Ionization_Penalty_Neutral>
2.357e-05

> <r_epik_State_Penalty>
-0

> <r_epik_Charging_Adjusted_Penalty>
0

> <i_epik_Tot_Q>
0

> <i_epik_Tot_abs_Q>
0

> <r_epik_Metal_State_Penalty>
-0

> <b_epik_Metal_Only>
0

> <s_lp_Force_Field>
OPLS_2005

> <r_lp_Energy>
7.46694

> <b_lp_Chiralities_Consistent>
1

> <s_lp_Variant>
AV-unprocessed.smi:2945-2

> <Gold.Version>
5.8.1

> <Gold.Id.Protein>
6NUR|6NUR_protein|mol2

> <Gold.PLP.Fitness>
37.5159

> <Gold.PLP.PLP>
-37.6492

> <Gold.PLP.part.hbond>
0.0000

> <Gold.PLP.part.metal>
0.0000

> <Gold.PLP.part.buried>
-3.9753

> <Gold.PLP.part.nonpolar>
-34.1147

> <Gold.PLP.part.repulsive>
0.4367

> <Gold.PLP.ligand.clash>
0.0000

> <Gold.PLP.ligand.torsion>
0.0700

> <Gold.PLP.Chemscore.Hbond>
0.0000

> <Gold.PLP.Chemscore.CHOScore>
0.0000

> <Gold.PLP.Chemscore.Metal>
0.0000

> <Gold.PLP.Chemscore.Internal.Correction>
0.0068

> <Gold.Rescore>
     Score         DG    S(hbond)    S(metal)    S(lipo)     H(rot)  DE(clash)    DE(int)     intcor
     13.41     -14.84       0.00        0.00     101.86       1.00       0.01       1.42       ----

> <Gold.Chemscore.Fitness>
13.4088

> <Gold.Chemscore.DG>
-14.8378

> <Gold.Chemscore.ZeroCoef>
-5.4800

> <Gold.Chemscore.Hbond>
0.0000

> <Gold.Chemscore.Metal>
0.0000

> <Gold.Chemscore.Lipo>
101.8618

> <Gold.Chemscore.Internal_Hbond>
0.0000

> <Gold.Chemscore.DEClash>
0.0123

> <Gold.Chemscore.DEInternal>
1.4168

> <Gold.Chemscore.Rot>
1.0000

> <Gold.Chemscore.Internal.Correction>
   9.000000E+99

> <Gold.Chemscore.Hbond.Weighted>
-0.0000

> <Gold.Chemscore.Metal.Weighted>
-0.0000

> <Gold.Chemscore.Lipo.Weighted>
-11.9178

> <Gold.Chemscore.Internal_Hbond.Weighted>
0.0000

> <Gold.Chemscore.DEClash.Weighted>
0.0123

> <Gold.Chemscore.DEInternal.Weighted>
1.4168

> <Gold.Chemscore.Rot.Weighted>
2.5600

> <Gold.Chemscore.Internal.Correction.Weighted>
   9.000000E+99

> <Gold.Protein.RotatedTorsions>
[ 6907 6896 6895 6894 ] final -166.72 input  -60.11 | X-H torsion
[ 7974 7965 7964 7962 ] final  -82.79 input  175.53 | X-H torsion
[ 8008 7997 7996 7995 ] final -130.26 input   59.86 | X-H torsion
[ 10167 10162 10161 10158 ] final  -98.72 input  -65.29 | X-H torsion
[ 10718 10713 10712 10709 ] final  152.33 input   66.30 | X-H torsion
[ 10763 10752 10751 10750 ] final -121.67 input  -60.55 | X-H torsion
[ 11005 11000 10999 10996 ] final  148.42 input  -57.11 | X-H torsion

> <Gold.Protein.ActiveResidues>
 VAL166  LYS551  ARG553  GLY616  TRP617  ASP618  TYR619  PRO620  LYS621  CYS622 
 ASP623  PHE694  ASN695  SER759  ASP760  ASP761  ALA762  ILE779  LEU786  VAL792 
 PHE793  MET794  SER795  GLU796  ALA797  LYS798  CYS799  TRP800  GLU811  SER814 

> <Gold.Protein.RotatedAtoms>
  151.4481  133.3625  159.2791 H   0  0  0  0  0  0  0  0  0  0  0  0  # atno 6907 bound_to 6896
  150.9110  134.8529  159.7436 H   0  0  0  0  0  0  0  0  0  0  0  0  # atno 6908 bound_to 6896
  152.4932  134.4410  159.9595 H   0  0  0  0  0  0  0  0  0  0  0  0  # atno 6909 bound_to 6896
  145.5286  140.9524  143.1615 H   0  0  0  0  0  0  0  0  0  0  0  0  # atno 7974 bound_to 7965
  155.2929  140.0449  157.3024 H   0  0  0  0  0  0  0  0  0  0  0  0  # atno 8008 bound_to 7997
  154.5531  140.2323  155.8421 H   0  0  0  0  0  0  0  0  0  0  0  0  # atno 8009 bound_to 7997
  156.1984  140.3032  155.9482 H   0  0  0  0  0  0  0  0  0  0  0  0  # atno 8010 bound_to 7997
  140.2700  143.3350  152.0544 H   0  0  0  0  0  0  0  0  0  0  0  0  # atno 10167 bound_to 10162
  157.2591  131.0794  151.1678 H   0  0  0  0  0  0  0  0  0  0  0  0  # atno 10718 bound_to 10713
  154.8673  135.4159  154.2658 H   0  0  0  0  0  0  0  0  0  0  0  0  # atno 10763 bound_to 10752
  153.3578  135.7002  153.6742 H   0  0  0  0  0  0  0  0  0  0  0  0  # atno 10764 bound_to 10752
  153.5656  135.3601  155.2789 H   0  0  0  0  0  0  0  0  0  0  0  0  # atno 10765 bound_to 10752
  140.0959  134.9013  157.1722 H   0  0  0  0  0  0  0  0  0  0  0  0  # atno 11005 bound_to 11000
  144.7638  139.6894  143.7223 LP  0  0  0  0  0  0  0  0  0  0  0  0  # atno 17320 bound_to 7965
  146.2059  139.5382  142.9713 LP  0  0  0  0  0  0  0  0  0  0  0  0  # atno 17321 bound_to 7965
  139.4992  144.6663  151.6349 LP  0  0  0  0  0  0  0  0  0  0  0  0  # atno 17342 bound_to 10162
  140.5897  143.9801  150.6317 LP  0  0  0  0  0  0  0  0  0  0  0  0  # atno 17343 bound_to 10162
  157.3194  130.6930  149.6261 LP  0  0  0  0  0  0  0  0  0  0  0  0  # atno 17370 bound_to 10713
  155.9664  130.4340  150.5029 LP  0  0  0  0  0  0  0  0  0  0  0  0  # atno 17371 bound_to 10713
  140.3288  134.2834  155.7232 LP  0  0  0  0  0  0  0  0  0  0  0  0  # atno 17394 bound_to 11000
  141.2092  133.7757  157.0014 LP  0  0  0  0  0  0  0  0  0  0  0  0  # atno 17395 bound_to 11000

$$$$
