AV-unprocessed.smi:2923|AV-procd|sdf|11210|dock5
  -GOLD-   2272016103D 1   1.00000     0.00000
 Structure written by MMmdl.
 46 48  0  0  0  0  0  0  0  0  1 V2000
  152.2535  140.3796  158.0650 C   0  0  0  0  0  0  0  0  0  0  0  0
  151.4768  140.9449  156.9726 N   0  0  0  0  0  0  0  0  0  0  0  0
  150.7769  142.1888  157.2558 C   0  0  0  0  0  0  0  0  0  0  0  0
  150.6703  139.9970  156.3297 C   0  0  0  0  0  0  0  0  0  0  0  0
  149.6681  139.2879  157.0301 C   0  0  0  0  0  0  0  0  0  0  0  0
  148.8871  138.3483  156.3303 C   0  0  0  0  0  0  0  0  0  0  0  0
  149.1376  138.1420  154.9529 C   0  0  0  0  0  0  0  0  0  0  0  0
  148.4044  137.2438  154.1321 N   0  0  0  0  0  0  0  0  0  0  0  0
  147.2557  136.6040  154.4087 C   0  0  0  0  0  0  0  0  0  0  0  0
  146.6427  136.6648  155.4743 O   0  0  0  0  0  0  0  0  0  0  0  0
  146.8554  135.8621  153.3682 N   0  0  0  0  0  0  0  0  0  0  0  0
  145.6522  135.0233  153.3541 C   0  0  2  0  0  0  0  0  0  0  0  0
  145.9776  133.5317  153.4674 C   0  0  2  0  0  0  0  0  0  0  0  0
  147.1504  132.7280  153.8999 C   0  0  0  0  0  0  0  0  0  0  0  0
  147.0818  131.6623  152.7724 C   0  0  0  0  0  0  0  0  0  0  0  0
  146.1102  132.1559  151.8146 O   0  0  0  0  0  0  0  0  0  0  0  0
  146.1688  133.5606  151.9647 C   0  0  1  0  0  0  0  0  0  0  0  0
  145.0855  134.6614  151.9232 C   0  0  0  0  0  0  0  0  0  0  0  0
  143.6192  134.1993  151.8414 C   0  0  0  0  0  0  0  0  0  0  0  0
  145.2537  135.7088  150.8168 C   0  0  0  0  0  0  0  0  0  0  0  0
  150.1538  138.9103  154.3482 C   0  0  0  0  0  0  0  0  0  0  0  0
  150.9071  139.8113  155.0132 N   0  0  0  0  0  0  0  0  0  0  0  0
  152.7366  139.4509  157.7584 H   0  0  0  0  0  0  0  0  0  0  0  0
  151.6208  140.1707  158.9282 H   0  0  0  0  0  0  0  0  0  0  0  0
  153.0322  141.0777  158.3728 H   0  0  0  0  0  0  0  0  0  0  0  0
  150.2394  142.5409  156.3743 H   0  0  0  0  0  0  0  0  0  0  0  0
  151.4877  142.9623  157.5471 H   0  0  0  0  0  0  0  0  0  0  0  0
  150.0609  142.0603  158.0680 H   0  0  0  0  0  0  0  0  0  0  0  0
  149.4945  139.4613  158.0821 H   0  0  0  0  0  0  0  0  0  0  0  0
  148.1077  137.8210  156.8579 H   0  0  0  0  0  0  0  0  0  0  0  0
  148.8314  137.0247  153.2439 H   0  0  0  0  0  0  0  0  0  0  0  0
  147.4202  135.8662  152.5315 H   0  0  0  0  0  0  0  0  0  0  0  0
  144.8820  135.3430  154.0581 H   0  0  0  0  0  0  0  0  0  0  0  0
  145.0684  133.0057  153.7683 H   0  0  0  0  0  0  0  0  0  0  0  0
  148.0788  133.2995  153.8681 H   0  0  0  0  0  0  0  0  0  0  0  0
  147.0279  132.2967  154.8937 H   0  0  0  0  0  0  0  0  0  0  0  0
  148.0554  131.5378  152.2964 H   0  0  0  0  0  0  0  0  0  0  0  0
  146.7624  130.6901  153.1490 H   0  0  0  0  0  0  0  0  0  0  0  0
  147.1466  133.9358  151.6452 H   0  0  0  0  0  0  0  0  0  0  0  0
  143.4185  133.6933  150.8965 H   0  0  0  0  0  0  0  0  0  0  0  0
  142.9335  135.0446  151.9091 H   0  0  0  0  0  0  0  0  0  0  0  0
  143.3346  133.5084  152.6329 H   0  0  0  0  0  0  0  0  0  0  0  0
  144.9341  135.3241  149.8479 H   0  0  0  0  0  0  0  0  0  0  0  0
  146.2918  136.0208  150.7026 H   0  0  0  0  0  0  0  0  0  0  0  0
  144.6681  136.6047  151.0256 H   0  0  0  0  0  0  0  0  0  0  0  0
  150.3740  138.7973  153.2967 H   0  0  0  0  0  0  0  0  0  0  0  0
  1  2  1  0  0  0  0
  1 23  1  0  0  0  0
  1 24  1  0  0  0  0
  1 25  1  0  0  0  0
  2  3  1  0  0  0  0
  2  4  1  0  0  0  0
  3 26  1  0  0  0  0
  3 27  1  0  0  0  0
  3 28  1  0  0  0  0
  4 22  1  0  0  0  0
  4  5  2  0  0  0  0
  5  6  1  0  0  0  0
  5 29  1  0  0  0  0
  6  7  2  0  0  0  0
  6 30  1  0  0  0  0
  7  8  1  0  0  0  0
  7 21  1  0  0  0  0
  8  9  1  0  0  0  0
  8 31  1  0  0  0  0
  9 10  2  0  0  0  0
  9 11  1  0  0  0  0
 11 12  1  0  0  0  0
 11 32  1  0  0  0  0
 12 18  1  0  0  0  0
 12 13  1  0  0  0  0
 12 33  1  0  0  0  0
 13 17  1  0  0  0  0
 13 14  1  0  0  0  0
 13 34  1  0  0  0  0
 14 15  1  0  0  0  0
 14 35  1  0  0  0  0
 14 36  1  0  0  0  0
 15 16  1  0  0  0  0
 15 37  1  0  0  0  0
 15 38  1  0  0  0  0
 16 17  1  0  0  0  0
 17 18  1  0  0  0  0
 17 39  1  0  0  0  0
 18 19  1  0  0  0  0
 18 20  1  0  0  0  0
 19 40  1  0  0  0  0
 19 41  1  0  0  0  0
 19 42  1  0  0  0  0
 20 43  1  0  0  0  0
 20 44  1  0  0  0  0
 20 45  1  0  0  0  0
 21 22  2  0  0  0  0
 21 46  1  0  0  0  0
M  END
> <s_m_source_file>
AV-unprocessed.smi

> <i_m_source_file_index>
2923

> <i_lp_mmshare_version>
43012

> <i_f3d_flags>
0

> <s_epik_input>
W0NIM11OKFtDSDNdKWMxW2NIXVtjSF1jKFtjSF1uMSlbTkhdQyg9TylbTkhdW0NASF0yQyhbQ0gzXSkoW0NIM10pW0NAQEhdKFtDQEhdMjMpT1tDSDJdW0NIMl0z

> <s_epik_cmdline>
J2VwaWtfcHl0aG9uJywgJy1waCcsICc3LjAnLCAnLXRuJywgJzgnLCAnLW1hJywgJzIwMCcsICctbWV0YWxfYmluZGluZycsICctaW1hZScsICc8aW5maWxlLm1hZT4nLCAnLW9tYWUnLCAnPG91dGZpbGUubWFlPic=

> <r_lp_tautomer_probability>
1

> <r_epik_Ionization_Penalty>
0.628785

> <r_epik_Ionization_Penalty_Charging>
0

> <r_epik_Ionization_Penalty_Neutral>
0.628785

> <r_epik_State_Penalty>
0.644286

> <r_epik_Charging_Adjusted_Penalty>
0.644286

> <i_epik_Tot_Q>
0

> <i_epik_Tot_abs_Q>
0

> <r_epik_Metal_State_Penalty>
0.308404

> <b_epik_Metal_Only>
0

> <s_lp_Force_Field>
OPLS_2005

> <r_lp_Energy>
70.0189

> <b_lp_Chiralities_Consistent>
1

> <s_lp_Variant>
AV-unprocessed.smi:2923-9

> <Gold.Version>
5.8.1

> <Gold.Id.Protein>
6NUR|6NUR_protein|mol2

> <Gold.PLP.Fitness>
38.3499

> <Gold.PLP.PLP>
-26.9534

> <Gold.PLP.part.hbond>
-2.9985

> <Gold.PLP.part.metal>
0.0000

> <Gold.PLP.part.buried>
-4.8756

> <Gold.PLP.part.nonpolar>
-20.5385

> <Gold.PLP.part.repulsive>
0.2166

> <Gold.PLP.ligand.clash>
0.0000

> <Gold.PLP.ligand.torsion>
0.4529

> <Gold.PLP.Chemscore.Hbond>
2.9440

> <Gold.PLP.Chemscore.CHOScore>
1.0000

> <Gold.PLP.Chemscore.Metal>
0.0000

> <Gold.Chemscore.Hbonds>
donor molecule, donor type, donor heavy atom, donor atom, acceptor molecule, acceptor atom, score
      L1  H     8    31       P1  7948  1.00
      L1  H    11    32       P1  7948  0.94
      P1  H  7989  7998       L1    22  1.00
      L1  C    21    46       P1  7957  0.90

> <Gold.PLP.Chemscore.Internal.Correction>
0.4702

> <Gold.Rescore>
     Score         DG    S(hbond)    S(metal)    S(lipo)     H(rot)  DE(clash)    DE(int)     intcor
     16.81     -18.53       2.64        0.00      62.30       1.19       0.15       1.57       ----

> <Gold.Chemscore.Fitness>
16.8080

> <Gold.Chemscore.DG>
-18.5259

> <Gold.Chemscore.ZeroCoef>
-5.4800

> <Gold.Chemscore.Hbond>
2.6385

> <Gold.Chemscore.Metal>
0.0000

> <Gold.Chemscore.Lipo>
62.3000

> <Gold.Chemscore.Internal_Hbond>
0.0000

> <Gold.Chemscore.DEClash>
0.1504

> <Gold.Chemscore.DEInternal>
1.5675

> <Gold.Chemscore.Rot>
1.1937

> <Gold.Chemscore.Internal.Correction>
   9.000000E+99

> <Gold.Chemscore.Hbonds>
donor molecule, donor type, donor heavy atom, donor atom, acceptor molecule, acceptor atom, score
      L1  H     8    31       P1  7948  0.96
      L1  H    11    32       P1  7948  0.91
      P1  H  7989  7998       L1    22  0.29

> <Gold.Chemscore.Hbond.Weighted>
-8.8127

> <Gold.Chemscore.Metal.Weighted>
-0.0000

> <Gold.Chemscore.Lipo.Weighted>
-7.2891

> <Gold.Chemscore.Internal_Hbond.Weighted>
0.0000

> <Gold.Chemscore.DEClash.Weighted>
0.1504

> <Gold.Chemscore.DEInternal.Weighted>
1.5675

> <Gold.Chemscore.Rot.Weighted>
3.0559

> <Gold.Chemscore.Internal.Correction.Weighted>
   9.000000E+99

> <Gold.Protein.RotatedTorsions>
[ 6907 6896 6895 6894 ] final -176.45 input  -60.11 | X-H torsion
[ 7974 7965 7964 7962 ] final   -5.85 input  175.53 | X-H torsion
[ 8008 7997 7996 7995 ] final  -96.54 input   59.86 | X-H torsion
[ 10167 10162 10161 10158 ] final  163.90 input  -65.29 | X-H torsion
[ 10718 10713 10712 10709 ] final -106.13 input   66.30 | X-H torsion
[ 10763 10752 10751 10750 ] final   19.12 input  -60.55 | X-H torsion
[ 11005 11000 10999 10996 ] final  -40.14 input  -57.11 | X-H torsion

> <Gold.Protein.ActiveResidues>
 VAL166  LYS551  ARG553  GLY616  TRP617  ASP618  TYR619  PRO620  LYS621  CYS622 
 ASP623  PHE694  ASN695  SER759  ASP760  ASP761  ALA762  ILE779  LEU786  VAL792 
 PHE793  MET794  SER795  GLU796  ALA797  LYS798  CYS799  TRP800  GLU811  SER814 

> <Gold.Protein.RotatedAtoms>
  151.6050  133.3352  159.3055 H   0  0  0  0  0  0  0  0  0  0  0  0  # atno 6907 bound_to 6896
  150.8187  134.7386  159.6764 H   0  0  0  0  0  0  0  0  0  0  0  0  # atno 6908 bound_to 6896
  152.4282  134.5834  160.0006 H   0  0  0  0  0  0  0  0  0  0  0  0  # atno 6909 bound_to 6896
  146.2344  140.2082  142.8335 H   0  0  0  0  0  0  0  0  0  0  0  0  # atno 7974 bound_to 7965
  154.7758  140.0470  157.1088 H   0  0  0  0  0  0  0  0  0  0  0  0  # atno 8008 bound_to 7997
  154.9765  140.3096  155.4945 H   0  0  0  0  0  0  0  0  0  0  0  0  # atno 8009 bound_to 7997
  156.2928  140.2244  156.4861 H   0  0  0  0  0  0  0  0  0  0  0  0  # atno 8010 bound_to 7997
  139.4880  144.4290  151.9094 H   0  0  0  0  0  0  0  0  0  0  0  0  # atno 10167 bound_to 10162
  156.0376  130.5598  150.7638 H   0  0  0  0  0  0  0  0  0  0  0  0  # atno 10718 bound_to 10713
  153.1190  135.6714  153.9369 H   0  0  0  0  0  0  0  0  0  0  0  0  # atno 10763 bound_to 10752
  153.8890  135.3049  155.3448 H   0  0  0  0  0  0  0  0  0  0  0  0  # atno 10764 bound_to 10752
  154.7603  135.4991  153.9531 H   0  0  0  0  0  0  0  0  0  0  0  0  # atno 10765 bound_to 10752
  141.0153  133.6888  156.2282 H   0  0  0  0  0  0  0  0  0  0  0  0  # atno 11005 bound_to 11000
  144.9727  140.8384  143.5445 LP  0  0  0  0  0  0  0  0  0  0  0  0  # atno 17320 bound_to 7965
  145.2066  139.2225  143.5165 LP  0  0  0  0  0  0  0  0  0  0  0  0  # atno 17321 bound_to 7965
  140.3737  144.2823  150.5917 LP  0  0  0  0  0  0  0  0  0  0  0  0  # atno 17342 bound_to 10162
  140.5296  143.2246  151.8260 LP  0  0  0  0  0  0  0  0  0  0  0  0  # atno 17343 bound_to 10162
  157.5150  131.0928  151.0151 LP  0  0  0  0  0  0  0  0  0  0  0  0  # atno 17370 bound_to 10713
  157.0496  130.5782  149.5368 LP  0  0  0  0  0  0  0  0  0  0  0  0  # atno 17371 bound_to 10713
  140.6664  134.4913  157.5585 LP  0  0  0  0  0  0  0  0  0  0  0  0  # atno 17394 bound_to 11000
  139.9113  134.8338  156.1517 LP  0  0  0  0  0  0  0  0  0  0  0  0  # atno 17395 bound_to 11000

$$$$
