AV-unprocessed.smi:21|AV-procd|sdf|130|dock4
  -GOLD-   2262015313D 1   1.00000     0.00000
 Structure written by MMmdl.
 62 65  0  0  0  0  0  0  0  0  2 V2000
  145.7383  132.0234  151.0333 C   0  0  0  0  0  0  0  0  0  0  0  0
  146.3332  131.6268  152.2581 O   0  0  0  0  0  0  0  0  0  0  0  0
  147.2034  132.6047  152.8075 C   0  0  2  0  0  0  0  0  0  0  0  0
  147.9536  132.0359  154.0057 C   0  0  0  0  0  0  0  0  0  0  0  0
  148.3417  133.2676  154.8443 C   0  0  1  0  0  0  0  0  0  0  0  0
  149.8005  133.7254  154.6267 C   0  0  0  0  0  0  0  0  0  0  0  0
  150.5202  133.9941  155.8716 N   0  0  0  0  0  0  0  0  0  0  0  0
  151.0464  132.8628  156.6347 C   0  0  0  0  0  0  0  0  0  0  0  0
  150.5337  135.2384  156.4353 C   0  0  0  0  0  0  0  0  0  0  0  0
  150.0161  135.3794  157.6860 N   0  0  0  0  0  0  0  0  0  0  0  0
  149.9952  136.5671  158.2946 C   0  0  0  0  0  0  0  0  0  0  0  0
  150.4381  137.7398  157.8439 N   0  0  0  0  0  0  0  0  0  0  0  0
  150.9660  137.6180  156.5939 C   0  0  0  0  0  0  0  0  0  0  0  0
  151.0540  136.4217  155.8215 C   0  0  0  0  0  0  0  0  0  0  0  0
  151.6630  136.7109  154.6034 N   0  0  0  0  0  0  0  0  0  0  0  0
  151.9201  137.9886  154.6550 C   0  0  0  0  0  0  0  0  0  0  0  0
  151.5395  138.6111  155.8193 N   0  0  0  0  0  0  0  0  0  0  0  0
  151.7083  140.0176  156.1445 C   0  0  0  0  0  0  0  0  0  0  0  0
  150.3778  140.7352  156.4879 C   0  0  2  0  0  0  0  0  0  0  0  0
  149.6265  141.1695  155.2026 C   0  0  0  0  0  0  0  0  0  0  0  0
  149.6960  140.1836  154.1943 O   0  0  0  0  0  0  0  0  0  0  0  0
  150.6456  141.9300  157.4449 C   0  0  1  0  0  0  0  0  0  0  0  0
  151.6234  141.6666  158.5777 C   0  0  0  0  0  0  0  0  0  0  0  0
  152.0077  143.0760  159.0112 C   0  0  0  0  0  0  0  0  0  0  0  0
  151.9758  143.8598  157.8252 O   0  0  0  0  0  0  0  0  0  0  0  0
  151.3186  143.1413  156.7861 C   0  0  0  0  0  0  0  0  0  0  0  0
  147.4134  134.3483  154.4243 N   0  3  2  0  0  0  0  0  0  0  0  0
  146.7552  135.0639  155.5382 C   0  0  0  0  0  0  0  0  0  0  0  0
  146.4709  133.7916  153.4312 C   0  0  0  0  0  0  0  0  0  0  0  0
  147.9256  132.9493  152.0648 H   0  0  0  0  0  0  0  0  0  0  0  0
  148.1842  133.0343  155.8986 H   0  0  0  0  0  0  0  0  0  0  0  0
  145.1089  131.2172  150.6572 H   0  0  0  0  0  0  0  0  0  0  0  0
  146.4950  132.2377  150.2777 H   0  0  0  0  0  0  0  0  0  0  0  0
  145.1100  132.9053  151.1600 H   0  0  0  0  0  0  0  0  0  0  0  0
  147.2796  131.4072  154.5896 H   0  0  0  0  0  0  0  0  0  0  0  0
  148.7956  131.4122  153.7095 H   0  0  0  0  0  0  0  0  0  0  0  0
  150.3329  132.9558  154.0672 H   0  0  0  0  0  0  0  0  0  0  0  0
  149.8418  134.6037  153.9849 H   0  0  0  0  0  0  0  0  0  0  0  0
  152.0756  133.0527  156.9417 H   0  0  0  0  0  0  0  0  0  0  0  0
  151.0436  131.9461  156.0451 H   0  0  0  0  0  0  0  0  0  0  0  0
  150.4468  132.6852  157.5282 H   0  0  0  0  0  0  0  0  0  0  0  0
  149.5653  136.5791  159.2854 H   0  0  0  0  0  0  0  0  0  0  0  0
  152.4021  138.5144  153.8435 H   0  0  0  0  0  0  0  0  0  0  0  0
  152.4042  140.0690  156.9814 H   0  0  0  0  0  0  0  0  0  0  0  0
  152.1993  140.5162  155.3079 H   0  0  0  0  0  0  0  0  0  0  0  0
  149.7515  140.0117  157.0127 H   0  0  0  0  0  0  0  0  0  0  0  0
  148.5833  141.3986  155.4220 H   0  0  0  0  0  0  0  0  0  0  0  0
  150.0590  142.0691  154.7678 H   0  0  0  0  0  0  0  0  0  0  0  0
  148.8517  139.7640  154.1261 H   0  0  0  0  0  0  0  0  0  0  0  0
  149.7006  142.2584  157.8812 H   0  0  0  0  0  0  0  0  0  0  0  0
  151.1922  141.0904  159.3967 H   0  0  0  0  0  0  0  0  0  0  0  0
  152.5023  141.1355  158.2088 H   0  0  0  0  0  0  0  0  0  0  0  0
  151.2701  143.4729  159.7097 H   0  0  0  0  0  0  0  0  0  0  0  0
  152.9859  143.1150  159.4908 H   0  0  0  0  0  0  0  0  0  0  0  0
  152.0723  142.8209  156.0656 H   0  0  0  0  0  0  0  0  0  0  0  0
  150.6062  143.7823  156.2663 H   0  0  0  0  0  0  0  0  0  0  0  0
  146.1416  134.3866  156.1338 H   0  0  0  0  0  0  0  0  0  0  0  0
  146.1156  135.8592  155.1548 H   0  0  0  0  0  0  0  0  0  0  0  0
  147.4992  135.5184  156.1926 H   0  0  0  0  0  0  0  0  0  0  0  0
  146.1757  134.5415  152.6968 H   0  0  0  0  0  0  0  0  0  0  0  0
  145.5691  133.4400  153.9362 H   0  0  0  0  0  0  0  0  0  0  0  0
  147.9791  135.0229  153.9293 H   0  0  0  0  0  0  0  0  0  0  0  0
  1  2  1  0  0  0  0
  1 32  1  0  0  0  0
  1 33  1  0  0  0  0
  1 34  1  0  0  0  0
  2  3  1  0  0  0  0
  3 30  1  0  0  0  0
  3 29  1  0  0  0  0
  3  4  1  0  0  0  0
  4  5  1  0  0  0  0
  4 35  1  0  0  0  0
  4 36  1  0  0  0  0
  5 31  1  0  0  0  0
  5  6  1  0  0  0  0
  5 27  1  0  0  0  0
  6  7  1  0  0  0  0
  6 37  1  0  0  0  0
  6 38  1  0  0  0  0
  7  8  1  0  0  0  0
  7  9  1  0  0  0  0
  8 39  1  0  0  0  0
  8 40  1  0  0  0  0
  8 41  1  0  0  0  0
  9 14  1  0  0  0  0
  9 10  2  0  0  0  0
 10 11  1  0  0  0  0
 11 12  2  0  0  0  0
 11 42  1  0  0  0  0
 12 13  1  0  0  0  0
 13 17  1  0  0  0  0
 13 14  2  0  0  0  0
 14 15  1  0  0  0  0
 15 16  2  0  0  0  0
 16 17  1  0  0  0  0
 16 43  1  0  0  0  0
 17 18  1  0  0  0  0
 18 19  1  0  0  0  0
 18 44  1  0  0  0  0
 18 45  1  0  0  0  0
 19 20  1  0  0  0  0
 19 22  1  0  0  0  0
 19 46  1  0  0  0  0
 20 21  1  0  0  0  0
 20 47  1  0  0  0  0
 20 48  1  0  0  0  0
 21 49  1  0  0  0  0
 22 26  1  0  0  0  0
 22 23  1  0  0  0  0
 22 50  1  0  0  0  0
 23 24  1  0  0  0  0
 23 51  1  0  0  0  0
 23 52  1  0  0  0  0
 24 25  1  0  0  0  0
 24 53  1  0  0  0  0
 24 54  1  0  0  0  0
 25 26  1  0  0  0  0
 26 55  1  0  0  0  0
 26 56  1  0  0  0  0
 27 28  1  0  0  0  0
 27 29  1  0  0  0  0
 27 62  1  0  0  0  0
 28 57  1  0  0  0  0
 28 58  1  0  0  0  0
 28 59  1  0  0  0  0
 29 60  1  0  0  0  0
 29 61  1  0  0  0  0
M  CHG  1  27   1
M  END
> <s_m_source_file>
AV-unprocessed.smi

> <i_m_source_file_index>
21

> <i_lp_mmshare_version>
43012

> <i_f3d_flags>
0

> <s_epik_input>
W0NIM11PW0NASF0xW0NIMl1bQ0BIXShOKFtDSDNdKVtDSDJdMSlbQ0gyXU4oW0NIM10pYyhuW2NIXW4yKWMoYzIzKW5bY0hdbjNbQ0gyXVtDQEhdKFtDSDJdW09IXSlbQ0BASF00W0NIMl1bQ0gyXU9bQ0gyXTQ=

> <s_epik_cmdline>
J2VwaWtfcHl0aG9uJywgJy1waCcsICc3LjAnLCAnLXRuJywgJzgnLCAnLW1hJywgJzIwMCcsICctbWV0YWxfYmluZGluZycsICctaW1hZScsICc8aW5maWxlLm1hZT4nLCAnLW9tYWUnLCAnPG91dGZpbGUubWFlPic=

> <r_lp_tautomer_probability>
1

> <r_epik_Ionization_Penalty>
0.0157465

> <r_epik_Ionization_Penalty_Charging>
0.015354

> <r_epik_Ionization_Penalty_Neutral>
0.000392529

> <r_epik_State_Penalty>
0.0120612

> <r_epik_Charging_Adjusted_Penalty>
0.0274152

> <i_epik_Tot_Q>
1

> <i_epik_Tot_abs_Q>
1

> <r_epik_Metal_State_Penalty>
0.0121253

> <b_epik_Metal_Only>
0

> <s_lp_Force_Field>
OPLS_2005

> <r_lp_Energy>
59.1571

> <b_lp_Chiralities_Consistent>
1

> <s_lp_Variant>
AV-unprocessed.smi:21-10

> <Gold.Version>
5.8.1

> <Gold.Id.Protein>
6NUR|6NUR_protein|mol2

> <Gold.PLP.Fitness>
54.6065

> <Gold.PLP.PLP>
-48.0223

> <Gold.PLP.part.hbond>
-4.0000

> <Gold.PLP.part.metal>
0.0000

> <Gold.PLP.part.buried>
-7.5101

> <Gold.PLP.part.nonpolar>
-37.4002

> <Gold.PLP.part.repulsive>
0.5293

> <Gold.PLP.ligand.clash>
0.0000

> <Gold.PLP.ligand.torsion>
2.6832

> <Gold.PLP.Chemscore.Hbond>
3.7520

> <Gold.PLP.Chemscore.CHOScore>
0.0000

> <Gold.PLP.Chemscore.Metal>
0.0000

> <Gold.Chemscore.Hbonds>
donor molecule, donor type, donor heavy atom, donor atom, acceptor molecule, acceptor atom, score
      P1  H  6896  6909       L1    10  0.32
      P1  H  7989  7998       L1    21  0.37
      P1  H 10752 10763       L1    15  1.00

> <Gold.PLP.Chemscore.Internal.Correction>
0.6947

> <Gold.Rescore>
     Score         DG    S(hbond)    S(metal)    S(lipo)     H(rot)  DE(clash)    DE(int)     intcor
     13.75     -18.05       2.77        0.00      95.68       3.08       0.00       4.29       ----

> <Gold.Chemscore.Fitness>
13.7539

> <Gold.Chemscore.DG>
-18.0478

> <Gold.Chemscore.ZeroCoef>
-5.4800

> <Gold.Chemscore.Hbond>
2.7687

> <Gold.Chemscore.Metal>
0.0000

> <Gold.Chemscore.Lipo>
95.6792

> <Gold.Chemscore.Internal_Hbond>
0.0000

> <Gold.Chemscore.DEClash>
0.0021

> <Gold.Chemscore.DEInternal>
4.2918

> <Gold.Chemscore.Rot>
3.0758

> <Gold.Chemscore.Internal.Correction>
   9.000000E+99

> <Gold.Chemscore.Hbonds>
donor molecule, donor type, donor heavy atom, donor atom, acceptor molecule, acceptor atom, score
      P1  H  6896  6909       L1    10  0.11
      P1  H  7989  7998       L1    21  0.03
      P1  H 10752 10763       L1    15  0.68

> <Gold.Chemscore.Hbond.Weighted>
-9.2475

> <Gold.Chemscore.Metal.Weighted>
-0.0000

> <Gold.Chemscore.Lipo.Weighted>
-11.1945

> <Gold.Chemscore.Internal_Hbond.Weighted>
0.0000

> <Gold.Chemscore.DEClash.Weighted>
0.0021

> <Gold.Chemscore.DEInternal.Weighted>
4.2918

> <Gold.Chemscore.Rot.Weighted>
7.8741

> <Gold.Chemscore.Internal.Correction.Weighted>
   9.000000E+99

> <Gold.Protein.RotatedTorsions>
[ 6907 6896 6895 6894 ] final   14.70 input  -60.11 | X-H torsion
[ 7974 7965 7964 7962 ] final -135.61 input  175.53 | X-H torsion
[ 8008 7997 7996 7995 ] final  162.86 input   59.86 | X-H torsion
[ 10167 10162 10161 10158 ] final   18.96 input  -65.29 | X-H torsion
[ 10718 10713 10712 10709 ] final  -14.18 input   66.30 | X-H torsion
[ 10763 10752 10751 10750 ] final   46.03 input  -60.55 | X-H torsion
[ 11005 11000 10999 10996 ] final   -8.84 input  -57.11 | X-H torsion

> <Gold.Protein.ActiveResidues>
 VAL166  LYS551  ARG553  GLY616  TRP617  ASP618  TYR619  PRO620  LYS621  CYS622 
 ASP623  PHE694  ASN695  SER759  ASP760  ASP761  ALA762  ILE779  LEU786  VAL792 
 PHE793  MET794  SER795  GLU796  ALA797  LYS798  CYS799  TRP800  GLU811  SER814 

> <Gold.Protein.RotatedAtoms>
  151.8064  135.0694  160.0406 H   0  0  0  0  0  0  0  0  0  0  0  0  # atno 6907 bound_to 6896
  152.3052  133.5692  159.5653 H   0  0  0  0  0  0  0  0  0  0  0  0  # atno 6908 bound_to 6896
  150.7293  134.0149  159.3724 H   0  0  0  0  0  0  0  0  0  0  0  0  # atno 6909 bound_to 6896
  144.8999  140.6757  143.5092 H   0  0  0  0  0  0  0  0  0  0  0  0  # atno 7974 bound_to 7965
  156.2000  140.1739  156.7919 H   0  0  0  0  0  0  0  0  0  0  0  0  # atno 8008 bound_to 7997
  154.5579  140.0705  156.8804 H   0  0  0  0  0  0  0  0  0  0  0  0  # atno 8009 bound_to 7997
  155.2904  140.3355  155.4255 H   0  0  0  0  0  0  0  0  0  0  0  0  # atno 8010 bound_to 7997
  140.5614  143.9330  150.6645 H   0  0  0  0  0  0  0  0  0  0  0  0  # atno 10167 bound_to 10162
  156.6196  130.4872  149.6170 H   0  0  0  0  0  0  0  0  0  0  0  0  # atno 10718 bound_to 10713
  152.9816  135.6021  154.3534 H   0  0  0  0  0  0  0  0  0  0  0  0  # atno 10763 bound_to 10752
  154.3221  135.2769  155.2516 H   0  0  0  0  0  0  0  0  0  0  0  0  # atno 10764 bound_to 10752
  154.4678  135.5949  153.6356 H   0  0  0  0  0  0  0  0  0  0  0  0  # atno 10765 bound_to 10752
  140.7277  133.8775  155.8869 H   0  0  0  0  0  0  0  0  0  0  0  0  # atno 11005 bound_to 11000
  145.3635  139.1676  143.4370 LP  0  0  0  0  0  0  0  0  0  0  0  0  # atno 17320 bound_to 7965
  146.3102  140.3699  142.8673 LP  0  0  0  0  0  0  0  0  0  0  0  0  # atno 17321 bound_to 7965
  140.2781  143.3408  152.1176 LP  0  0  0  0  0  0  0  0  0  0  0  0  # atno 17342 bound_to 10162
  139.5072  144.6828  151.5966 LP  0  0  0  0  0  0  0  0  0  0  0  0  # atno 17343 bound_to 10162
  156.2322  130.6801  151.1475 LP  0  0  0  0  0  0  0  0  0  0  0  0  # atno 17370 bound_to 10713
  157.7231  131.0668  150.6049 LP  0  0  0  0  0  0  0  0  0  0  0  0  # atno 17371 bound_to 10713
  140.9948  134.1230  157.4374 LP  0  0  0  0  0  0  0  0  0  0  0  0  # atno 17394 bound_to 11000
  139.8833  135.0051  156.6292 LP  0  0  0  0  0  0  0  0  0  0  0  0  # atno 17395 bound_to 11000

$$$$
