AV-unprocessed.smi:2699|AV-procd|sdf|10423|dock2
  -GOLD-   2272014463D 1   1.00000     0.00000
 Structure written by MMmdl.
 42 44  0  0  0  0  0  0  0  0  2 V2000
  151.1562  144.4922  160.4196 C   0  0  0  0  0  0  0  0  0  0  0  0
  152.0832  143.2819  160.4119 C   0  0  0  0  0  0  0  0  0  0  0  0
  152.8586  143.0071  161.4837 C   0  0  0  0  0  0  0  0  0  0  0  0
  153.6910  141.8960  161.5183 C   0  0  0  0  0  0  0  0  0  0  0  0
  154.4132  141.6387  162.5066 O   0  5  0  0  0  0  0  0  0  0  0  0
  153.6680  141.0861  160.3904 C   0  0  0  0  0  0  0  0  0  0  0  0
  152.8497  141.3265  159.2080 C   0  0  0  0  0  0  0  0  0  0  0  0
  152.8606  140.5656  158.2388 O   0  0  0  0  0  0  0  0  0  0  0  0
  152.0845  142.4531  159.2581 N   0  0  0  0  0  0  0  0  0  0  0  0
  151.2626  142.8073  158.0778 C   0  0  0  0  0  0  0  0  0  0  0  0
  150.2319  141.7272  157.6915 C   0  0  0  0  0  0  0  0  0  0  0  0
  150.2784  140.6062  158.1958 O   0  0  0  0  0  0  0  0  0  0  0  0
  149.2762  142.0388  156.8026 N   0  0  0  0  0  0  0  0  0  0  0  0
  148.2213  141.1541  156.3180 C   0  0  0  0  0  0  0  0  0  0  0  0
  148.1809  141.1025  154.7798 C   0  0  0  0  0  0  0  0  0  0  0  0
  149.4533  140.3925  154.3090 C   0  0  0  0  0  0  0  0  0  0  0  0
  149.5996  138.8907  154.3625 C   0  0  0  0  0  0  0  0  0  0  0  0
  150.4677  139.7700  155.2403 C   0  0  0  0  0  0  0  0  0  0  0  0
  146.8700  140.5403  154.1907 C   0  0  0  0  0  0  0  0  0  0  0  0
  146.3248  141.9639  154.0872 C   0  0  0  0  0  0  0  0  0  0  0  0
  147.7784  142.4338  154.0963 C   0  0  0  0  0  0  0  0  0  0  0  0
  151.0470  144.8869  161.4301 H   0  0  0  0  0  0  0  0  0  0  0  0
  150.1541  144.2432  160.0718 H   0  0  0  0  0  0  0  0  0  0  0  0
  151.5628  145.2896  159.7972 H   0  0  0  0  0  0  0  0  0  0  0  0
  152.8261  143.6687  162.3377 H   0  0  0  0  0  0  0  0  0  0  0  0
  154.2985  140.2086  160.3758 H   0  0  0  0  0  0  0  0  0  0  0  0
  150.7525  143.7585  158.2185 H   0  0  0  0  0  0  0  0  0  0  0  0
  151.9085  142.9930  157.2182 H   0  0  0  0  0  0  0  0  0  0  0  0
  149.2830  142.9756  156.4259 H   0  0  0  0  0  0  0  0  0  0  0  0
  148.3718  140.1528  156.7244 H   0  0  0  0  0  0  0  0  0  0  0  0
  147.2678  141.5047  156.7150 H   0  0  0  0  0  0  0  0  0  0  0  0
  149.8983  140.8746  153.4399 H   0  0  0  0  0  0  0  0  0  0  0  0
  148.8123  138.3178  154.8487 H   0  0  0  0  0  0  0  0  0  0  0  0
  150.0709  138.4042  153.5112 H   0  0  0  0  0  0  0  0  0  0  0  0
  151.5171  139.8639  154.9686 H   0  0  0  0  0  0  0  0  0  0  0  0
  150.2703  139.7702  156.3092 H   0  0  0  0  0  0  0  0  0  0  0  0
  147.0051  140.0776  153.2114 H   0  0  0  0  0  0  0  0  0  0  0  0
  146.3088  139.8872  154.8598 H   0  0  0  0  0  0  0  0  0  0  0  0
  145.7799  142.1787  153.1677 H   0  0  0  0  0  0  0  0  0  0  0  0
  145.7681  142.2750  154.9725 H   0  0  0  0  0  0  0  0  0  0  0  0
  147.9536  143.3286  154.6947 H   0  0  0  0  0  0  0  0  0  0  0  0
  148.1687  142.5629  153.0874 H   0  0  0  0  0  0  0  0  0  0  0  0
  1  2  1  0  0  0  0
  1 22  1  0  0  0  0
  1 23  1  0  0  0  0
  1 24  1  0  0  0  0
  2  9  1  0  0  0  0
  2  3  2  0  0  0  0
  3  4  1  0  0  0  0
  3 25  1  0  0  0  0
  4  5  1  0  0  0  0
  4  6  2  0  0  0  0
  6  7  1  0  0  0  0
  6 26  1  0  0  0  0
  7  8  2  0  0  0  0
  7  9  1  0  0  0  0
  9 10  1  0  0  0  0
 10 11  1  0  0  0  0
 10 27  1  0  0  0  0
 10 28  1  0  0  0  0
 11 12  2  0  0  0  0
 11 13  1  0  0  0  0
 13 14  1  0  0  0  0
 13 29  1  0  0  0  0
 14 15  1  0  0  0  0
 14 30  1  0  0  0  0
 14 31  1  0  0  0  0
 15 21  1  0  0  0  0
 15 16  1  0  0  0  0
 15 19  1  0  0  0  0
 16 18  1  0  0  0  0
 16 17  1  0  0  0  0
 16 32  1  0  0  0  0
 17 18  1  0  0  0  0
 17 33  1  0  0  0  0
 17 34  1  0  0  0  0
 18 35  1  0  0  0  0
 18 36  1  0  0  0  0
 19 20  1  0  0  0  0
 19 37  1  0  0  0  0
 19 38  1  0  0  0  0
 20 21  1  0  0  0  0
 20 39  1  0  0  0  0
 20 40  1  0  0  0  0
 21 41  1  0  0  0  0
 21 42  1  0  0  0  0
M  CHG  1   5  -1
M  END
> <s_m_source_file>
AV-unprocessed.smi

> <i_m_source_file_index>
2699

> <i_lp_mmshare_version>
43012

> <i_f3d_flags>
0

> <s_epik_input>
W0NIM11jMVtjSF1jKFtPSF0pW2NIXWMoPU8pbjFbQ0gyXUMoPU8pW05IXVtDSDJdQzIoW0NIXTNbQ0gyXVtDSDJdMylbQ0gyXVtDSDJdW0NIMl0y

> <s_epik_cmdline>
J2VwaWtfcHl0aG9uJywgJy1waCcsICc3LjAnLCAnLXRuJywgJzgnLCAnLW1hJywgJzIwMCcsICctbWV0YWxfYmluZGluZycsICctaW1hZScsICc8aW5maWxlLm1hZT4nLCAnLW9tYWUnLCAnPG91dGZpbGUubWFlPic=

> <r_lp_tautomer_probability>
1

> <r_epik_Ionization_Penalty>
0.201472

> <r_epik_Ionization_Penalty_Charging>
0.201472

> <r_epik_Ionization_Penalty_Neutral>
1.82775e-08

> <r_epik_State_Penalty>
0.183831

> <r_epik_Charging_Adjusted_Penalty>
0.385303

> <i_epik_Tot_Q>
-1

> <i_epik_Tot_abs_Q>
1

> <r_epik_Metal_State_Penalty>
0.183831

> <b_epik_Metal_Only>
0

> <s_lp_Force_Field>
OPLS_2005

> <r_lp_Energy>
45.0719

> <b_lp_Chiralities_Consistent>
1

> <s_lp_Variant>
AV-unprocessed.smi:2699-1

> <Gold.Version>
5.8.1

> <Gold.Id.Protein>
6NUR|6NUR_protein|mol2

> <Gold.PLP.Fitness>
48.0665

> <Gold.PLP.PLP>
-44.7249

> <Gold.PLP.part.hbond>
-3.0000

> <Gold.PLP.part.metal>
0.0000

> <Gold.PLP.part.buried>
-1.0856

> <Gold.PLP.part.nonpolar>
-39.8505

> <Gold.PLP.part.repulsive>
0.0069

> <Gold.PLP.ligand.clash>
0.0000

> <Gold.PLP.ligand.torsion>
1.5864

> <Gold.PLP.Chemscore.Hbond>
1.5733

> <Gold.PLP.Chemscore.CHOScore>
0.0000

> <Gold.PLP.Chemscore.Metal>
0.0000

> <Gold.Chemscore.Hbonds>
donor molecule, donor type, donor heavy atom, donor atom, acceptor molecule, acceptor atom, score
      L1  H    13    29       P1  8028  1.00
      P1  H  7997  8009       L1     8  0.55

> <Gold.PLP.Chemscore.Internal.Correction>
1.7944

> <Gold.Rescore>
     Score         DG    S(hbond)    S(metal)    S(lipo)     H(rot)  DE(clash)    DE(int)     intcor
     12.64     -19.58       1.58        0.00     112.89       1.71       1.13       5.81       ----

> <Gold.Chemscore.Fitness>
12.6359

> <Gold.Chemscore.DG>
-19.5821

> <Gold.Chemscore.ZeroCoef>
-5.4800

> <Gold.Chemscore.Hbond>
1.5779

> <Gold.Chemscore.Metal>
0.0000

> <Gold.Chemscore.Lipo>
112.8878

> <Gold.Chemscore.Internal_Hbond>
0.0000

> <Gold.Chemscore.DEClash>
1.1326

> <Gold.Chemscore.DEInternal>
5.8137

> <Gold.Chemscore.Rot>
1.7094

> <Gold.Chemscore.Internal.Correction>
   9.000000E+99

> <Gold.Chemscore.Hbonds>
donor molecule, donor type, donor heavy atom, donor atom, acceptor molecule, acceptor atom, score
      L1  H    13    29       P1  8028  0.99
      P1  H  7997  8009       L1     8  0.53

> <Gold.Chemscore.Hbond.Weighted>
-5.2703

> <Gold.Chemscore.Metal.Weighted>
-0.0000

> <Gold.Chemscore.Lipo.Weighted>
-13.2079

> <Gold.Chemscore.Internal_Hbond.Weighted>
0.0000

> <Gold.Chemscore.DEClash.Weighted>
1.1326

> <Gold.Chemscore.DEInternal.Weighted>
5.8137

> <Gold.Chemscore.Rot.Weighted>
4.3760

> <Gold.Chemscore.Internal.Correction.Weighted>
   9.000000E+99

> <Gold.Protein.RotatedTorsions>
[ 6907 6896 6895 6894 ] final -143.73 input  -60.11 | X-H torsion
[ 7974 7965 7964 7962 ] final  116.34 input  175.53 | X-H torsion
[ 8008 7997 7996 7995 ] final  160.26 input   59.86 | X-H torsion
[ 10167 10162 10161 10158 ] final -131.96 input  -65.29 | X-H torsion
[ 10718 10713 10712 10709 ] final  176.25 input   66.30 | X-H torsion
[ 10763 10752 10751 10750 ] final  -82.74 input  -60.55 | X-H torsion
[ 11005 11000 10999 10996 ] final -174.99 input  -57.11 | X-H torsion

> <Gold.Protein.ActiveResidues>
 VAL166  LYS551  ARG553  GLY616  TRP617  ASP618  TYR619  PRO620  LYS621  CYS622 
 ASP623  PHE694  ASN695  SER759  ASP760  ASP761  ALA762  ILE779  LEU786  VAL792 
 PHE793  MET794  SER795  GLU796  ALA797  LYS798  CYS799  TRP800  GLU811  SER814 

> <Gold.Protein.RotatedAtoms>
  151.1044  133.5219  159.2608 H   0  0  0  0  0  0  0  0  0  0  0  0  # atno 6907 bound_to 6896
  151.2038  135.0453  159.8893 H   0  0  0  0  0  0  0  0  0  0  0  0  # atno 6908 bound_to 6896
  152.5445  134.0869  159.8313 H   0  0  0  0  0  0  0  0  0  0  0  0  # atno 6909 bound_to 6896
  145.1808  139.3051  143.4419 H   0  0  0  0  0  0  0  0  0  0  0  0  # atno 7974 bound_to 7965
  156.2184  140.1809  156.7535 H   0  0  0  0  0  0  0  0  0  0  0  0  # atno 8008 bound_to 7997
  154.5827  140.0663  156.9156 H   0  0  0  0  0  0  0  0  0  0  0  0  # atno 8009 bound_to 7997
  155.2474  140.3326  155.4288 H   0  0  0  0  0  0  0  0  0  0  0  0  # atno 8010 bound_to 7997
  139.9135  143.6466  152.2570 H   0  0  0  0  0  0  0  0  0  0  0  0  # atno 10167 bound_to 10162
  156.9229  130.9946  151.3001 H   0  0  0  0  0  0  0  0  0  0  0  0  # atno 10718 bound_to 10713
  154.5793  135.5581  153.7170 H   0  0  0  0  0  0  0  0  0  0  0  0  # atno 10763 bound_to 10752
  153.0076  135.6316  154.2004 H   0  0  0  0  0  0  0  0  0  0  0  0  # atno 10764 bound_to 10752
  154.1945  135.2881  155.2991 H   0  0  0  0  0  0  0  0  0  0  0  0  # atno 10765 bound_to 10752
  140.4684  134.6189  157.4872 H   0  0  0  0  0  0  0  0  0  0  0  0  # atno 11005 bound_to 11000
  146.3453  140.1987  142.8589 LP  0  0  0  0  0  0  0  0  0  0  0  0  # atno 17320 bound_to 7965
  145.0138  140.8736  143.5208 LP  0  0  0  0  0  0  0  0  0  0  0  0  # atno 17321 bound_to 7965
  139.6922  144.7645  151.1418 LP  0  0  0  0  0  0  0  0  0  0  0  0  # atno 17342 bound_to 10162
  140.7680  143.5573  150.9138 LP  0  0  0  0  0  0  0  0  0  0  0  0  # atno 17343 bound_to 10162
  157.5896  130.8434  149.8640 LP  0  0  0  0  0  0  0  0  0  0  0  0  # atno 17370 bound_to 10713
  156.0483  130.3723  150.1264 LP  0  0  0  0  0  0  0  0  0  0  0  0  # atno 17371 bound_to 10713
  139.9901  134.6999  155.9705 LP  0  0  0  0  0  0  0  0  0  0  0  0  # atno 17394 bound_to 11000
  141.1589  133.6540  156.4251 LP  0  0  0  0  0  0  0  0  0  0  0  0  # atno 17395 bound_to 11000

$$$$
