AV-unprocessed.smi:102|AV-procd|sdf|949|dock4
  -GOLD-   2262017473D 1   1.00000     0.00000
 Structure written by MMmdl.
 44 45  0  0  0  0  0  0  0  0  1 V2000
  147.3928  136.8666  160.1090 C   0  0  0  0  0  0  0  0  0  0  0  0
  148.7964  136.5198  159.6292 C   0  0  0  0  0  0  0  0  0  0  0  0
  149.0476  135.4304  159.1134 O   0  0  0  0  0  0  0  0  0  0  0  0
  149.6719  137.5152  159.8350 O   0  0  0  0  0  0  0  0  0  0  0  0
  150.7973  137.6458  158.9822 C   0  0  0  0  0  0  0  0  0  0  0  0
  150.6996  138.9687  158.2165 C   0  0  2  0  0  0  0  0  0  0  0  0
  149.4294  139.5676  158.4312 O   0  0  0  0  0  0  0  0  0  0  0  0
  149.1897  140.4785  157.4081 C   0  0  1  0  0  0  0  0  0  0  0  0
  149.6949  141.8412  157.8603 N   0  0  0  0  0  0  0  0  0  0  0  0
  150.9737  142.0389  158.3752 C   0  0  0  0  0  0  0  0  0  0  0  0
  151.4052  143.2293  158.8544 C   0  0  0  0  0  0  0  0  0  0  0  0
  152.6551  143.3362  159.3364 F   0  0  0  0  0  0  0  0  0  0  0  0
  150.5195  144.3881  158.8787 C   0  0  0  0  0  0  0  0  0  0  0  0
  150.8229  145.5097  159.2797 O   0  0  0  0  0  0  0  0  0  0  0  0
  149.2291  144.1336  158.4095 N   0  0  0  0  0  0  0  0  0  0  0  0
  148.7681  142.9084  157.9252 C   0  0  0  0  0  0  0  0  0  0  0  0
  147.5937  142.7974  157.5754 O   0  0  0  0  0  0  0  0  0  0  0  0
  149.8969  139.9388  156.1491 C   0  0  2  0  0  0  0  0  0  0  0  0
  148.9536  139.4272  155.2159 O   0  0  0  0  0  0  0  0  0  0  0  0
  148.5472  140.1841  154.1818 C   0  0  0  0  0  0  0  0  0  0  0  0
  147.2779  139.6494  153.5322 C   0  0  0  0  0  0  0  0  0  0  0  0
  149.0986  141.2054  153.7717 O   0  0  0  0  0  0  0  0  0  0  0  0
  150.7493  138.7920  156.6943 C   0  0  1  0  0  0  0  0  0  0  0  0
  152.0881  138.8910  156.2263 O   0  0  0  0  0  0  0  0  0  0  0  0
  152.3421  138.9230  154.9058 C   0  0  0  0  0  0  0  0  0  0  0  0
  153.8304  138.8307  154.5959 C   0  0  0  0  0  0  0  0  0  0  0  0
  151.5047  139.0221  154.0090 O   0  0  0  0  0  0  0  0  0  0  0  0
  148.5702  144.8984  158.4340 H   0  0  0  0  0  0  0  0  0  0  0  0
  147.4206  137.6825  160.8316 H   0  0  0  0  0  0  0  0  0  0  0  0
  146.9310  136.0014  160.5853 H   0  0  0  0  0  0  0  0  0  0  0  0
  146.7714  137.1709  159.2669 H   0  0  0  0  0  0  0  0  0  0  0  0
  151.7024  137.6388  159.5912 H   0  0  0  0  0  0  0  0  0  0  0  0
  150.8594  136.8050  158.2897 H   0  0  0  0  0  0  0  0  0  0  0  0
  151.4831  139.6539  158.5437 H   0  0  0  0  0  0  0  0  0  0  0  0
  148.1167  140.5952  157.2457 H   0  0  0  0  0  0  0  0  0  0  0  0
  151.6744  141.2205  158.4283 H   0  0  0  0  0  0  0  0  0  0  0  0
  150.5027  140.7102  155.6748 H   0  0  0  0  0  0  0  0  0  0  0  0
  147.2776  138.5591  153.5310 H   0  0  0  0  0  0  0  0  0  0  0  0
  147.2041  139.9941  152.5004 H   0  0  0  0  0  0  0  0  0  0  0  0
  146.3999  139.9969  154.0767 H   0  0  0  0  0  0  0  0  0  0  0  0
  150.3040  137.8304  156.4318 H   0  0  0  0  0  0  0  0  0  0  0  0
  154.3447  138.2359  155.3511 H   0  0  0  0  0  0  0  0  0  0  0  0
  154.2734  139.8264  154.5777 H   0  0  0  0  0  0  0  0  0  0  0  0
  153.9881  138.3634  153.6236 H   0  0  0  0  0  0  0  0  0  0  0  0
  1  2  1  0  0  0  0
  1 29  1  0  0  0  0
  1 30  1  0  0  0  0
  1 31  1  0  0  0  0
  2  3  2  0  0  0  0
  2  4  1  0  0  0  0
  4  5  1  0  0  0  0
  5  6  1  0  0  0  0
  5 32  1  0  0  0  0
  5 33  1  0  0  0  0
  6 23  1  0  0  0  0
  6  7  1  0  0  0  0
  6 34  1  0  0  0  0
  7  8  1  0  0  0  0
  8  9  1  0  0  0  0
  8 18  1  0  0  0  0
  8 35  1  0  0  0  0
  9 16  1  0  0  0  0
  9 10  1  0  0  0  0
 10 11  2  0  0  0  0
 10 36  1  0  0  0  0
 11 12  1  0  0  0  0
 11 13  1  0  0  0  0
 13 14  2  0  0  0  0
 13 15  1  0  0  0  0
 15 28  1  0  0  0  0
 15 16  1  0  0  0  0
 16 17  2  0  0  0  0
 18 19  1  0  0  0  0
 18 23  1  0  0  0  0
 18 37  1  0  0  0  0
 19 20  1  0  0  0  0
 20 21  1  0  0  0  0
 20 22  2  0  0  0  0
 21 38  1  0  0  0  0
 21 39  1  0  0  0  0
 21 40  1  0  0  0  0
 23 24  1  0  0  0  0
 23 41  1  0  0  0  0
 24 25  1  0  0  0  0
 25 26  1  0  0  0  0
 25 27  2  0  0  0  0
 26 42  1  0  0  0  0
 26 43  1  0  0  0  0
 26 44  1  0  0  0  0
M  END
> <s_m_source_file>
AV-unprocessed.smi

> <i_m_source_file_index>
102

> <i_lp_mmshare_version>
43012

> <i_f3d_flags>
0

> <s_epik_input>
W0NIM11DKD1PKU9bQ0gyXVtDQEBIXTFPW0NASF0oW0NAQEhdKE9DKD1PKVtDSDNdKVtDQEhdMU9DKD1PKVtDSDNdKW4yW2NIXWMoRiljKD1PKVtuSF1jMj1P

> <s_epik_cmdline>
J2VwaWtfcHl0aG9uJywgJy1waCcsICc3LjAnLCAnLXRuJywgJzgnLCAnLW1hJywgJzIwMCcsICctbWV0YWxfYmluZGluZycsICctaW1hZScsICc8aW5maWxlLm1hZT4nLCAnLW9tYWUnLCAnPG91dGZpbGUubWFlPic=

> <r_lp_tautomer_probability>
0.999537

> <r_epik_Ionization_Penalty>
0.058267

> <r_epik_Ionization_Penalty_Charging>
0.058267

> <r_epik_Ionization_Penalty_Neutral>
6.57791e-16

> <r_epik_State_Penalty>
0.0503774

> <r_epik_Charging_Adjusted_Penalty>
0.108644

> <i_epik_Tot_Q>
0

> <i_epik_Tot_abs_Q>
0

> <r_epik_Metal_State_Penalty>
2.6644

> <b_epik_Metal_Only>
0

> <s_epik_Chemistry_Notes>
This compound has an ester and may undergo hydrolysis at high or low pH. This compound contains an acetal/aminal-like group ( X-CH(R)-Y where X, Y are N, S, or O) that may be acid/base labile, releasing an aldehyde.

> <s_lp_Force_Field>
OPLS_2005

> <r_lp_Energy>
9.37948

> <b_lp_Chiralities_Consistent>
1

> <s_lp_Variant>
AV-unprocessed.smi:102-5

> <Gold.Version>
5.8.1

> <Gold.Id.Protein>
6NUR|6NUR_protein|mol2

> <Gold.PLP.Fitness>
40.4045

> <Gold.PLP.PLP>
-34.4272

> <Gold.PLP.part.hbond>
-7.2116

> <Gold.PLP.part.metal>
0.0000

> <Gold.PLP.part.buried>
-0.3755

> <Gold.PLP.part.nonpolar>
-28.2844

> <Gold.PLP.part.repulsive>
2.1882

> <Gold.PLP.ligand.clash>
0.0699

> <Gold.PLP.ligand.torsion>
2.2933

> <Gold.PLP.Chemscore.Hbond>
3.4320

> <Gold.PLP.Chemscore.CHOScore>
0.0000

> <Gold.PLP.Chemscore.Metal>
0.0000

> <Gold.Chemscore.Hbonds>
donor molecule, donor type, donor heavy atom, donor atom, acceptor molecule, acceptor atom, score
      L1  H    15    28       P1  8029  0.70
      P1  H  6896  6909       L1     3  0.94
      P1  H  7989  7998       L1    27  0.94
      P1  H  8011  8017       L1    22  0.90

> <Gold.PLP.Chemscore.Internal.Correction>
0.3378

> <Gold.Rescore>
     Score         DG    S(hbond)    S(metal)    S(lipo)     H(rot)  DE(clash)    DE(int)     intcor
      3.27     -11.62       3.05        0.00      54.03       4.05       3.29       5.05       ----

> <Gold.Chemscore.Fitness>
3.2674

> <Gold.Chemscore.DG>
-11.6167

> <Gold.Chemscore.ZeroCoef>
-5.4800

> <Gold.Chemscore.Hbond>
3.0504

> <Gold.Chemscore.Metal>
0.0000

> <Gold.Chemscore.Lipo>
54.0291

> <Gold.Chemscore.Internal_Hbond>
0.0000

> <Gold.Chemscore.DEClash>
3.2946

> <Gold.Chemscore.DEInternal>
5.0546

> <Gold.Chemscore.Rot>
4.0520

> <Gold.Chemscore.Internal.Correction>
   9.000000E+99

> <Gold.Chemscore.Hbonds>
donor molecule, donor type, donor heavy atom, donor atom, acceptor molecule, acceptor atom, score
      L1  H    15    28       P1  8029  0.65
      P1  H  6896  6909       L1     3  0.90
      P1  H  7989  7998       L1    27  0.36
      P1  H  8011  8017       L1    22  0.85

> <Gold.Chemscore.Hbond.Weighted>
-10.1885

> <Gold.Chemscore.Metal.Weighted>
-0.0000

> <Gold.Chemscore.Lipo.Weighted>
-6.3214

> <Gold.Chemscore.Internal_Hbond.Weighted>
0.0000

> <Gold.Chemscore.DEClash.Weighted>
3.2946

> <Gold.Chemscore.DEInternal.Weighted>
5.0546

> <Gold.Chemscore.Rot.Weighted>
10.3732

> <Gold.Chemscore.Internal.Correction.Weighted>
   9.000000E+99

> <Gold.Protein.RotatedTorsions>
[ 6907 6896 6895 6894 ] final   29.40 input  -60.11 | X-H torsion
[ 7974 7965 7964 7962 ] final   70.73 input  175.53 | X-H torsion
[ 8008 7997 7996 7995 ] final  -99.63 input   59.86 | X-H torsion
[ 10167 10162 10161 10158 ] final  -68.76 input  -65.29 | X-H torsion
[ 10718 10713 10712 10709 ] final   24.33 input   66.30 | X-H torsion
[ 10763 10752 10751 10750 ] final    9.20 input  -60.55 | X-H torsion
[ 11005 11000 10999 10996 ] final   27.01 input  -57.11 | X-H torsion

> <Gold.Protein.ActiveResidues>
 VAL166  LYS551  ARG553  GLY616  TRP617  ASP618  TYR619  PRO620  LYS621  CYS622 
 ASP623  PHE694  ASN695  SER759  ASP760  ASP761  ALA762  ILE779  LEU786  VAL792 
 PHE793  MET794  SER795  GLU796  ALA797  LYS798  CYS799  TRP800  GLU811  SER814 

> <Gold.Protein.RotatedAtoms>
  152.0309  134.9768  160.0572 H   0  0  0  0  0  0  0  0  0  0  0  0  # atno 6907 bound_to 6896
  152.1245  133.4367  159.4699 H   0  0  0  0  0  0  0  0  0  0  0  0  # atno 6908 bound_to 6896
  150.6851  134.2413  159.4517 H   0  0  0  0  0  0  0  0  0  0  0  0  # atno 6909 bound_to 6896
  145.7746  139.2859  143.1301 H   0  0  0  0  0  0  0  0  0  0  0  0  # atno 7974 bound_to 7965
  154.8175  140.0446  157.1387 H   0  0  0  0  0  0  0  0  0  0  0  0  # atno 8008 bound_to 7997
  154.9298  140.3038  155.5153 H   0  0  0  0  0  0  0  0  0  0  0  0  # atno 8009 bound_to 7997
  156.2977  140.2325  156.4357 H   0  0  0  0  0  0  0  0  0  0  0  0  # atno 8010 bound_to 7997
  140.5482  143.2312  151.6961 H   0  0  0  0  0  0  0  0  0  0  0  0  # atno 10167 bound_to 10162
  157.1783  130.6791  149.6103 H   0  0  0  0  0  0  0  0  0  0  0  0  # atno 10718 bound_to 10713
  153.2167  135.6876  153.8049 H   0  0  0  0  0  0  0  0  0  0  0  0  # atno 10763 bound_to 10752
  153.7262  135.3259  155.3278 H   0  0  0  0  0  0  0  0  0  0  0  0  # atno 10764 bound_to 10752
  154.8249  135.4625  154.0997 H   0  0  0  0  0  0  0  0  0  0  0  0  # atno 10765 bound_to 10752
  140.3309  134.2439  155.7702 H   0  0  0  0  0  0  0  0  0  0  0  0  # atno 11005 bound_to 11000
  146.0135  140.8413  142.9959 LP  0  0  0  0  0  0  0  0  0  0  0  0  # atno 17320 bound_to 7965
  144.6806  140.2525  143.7330 LP  0  0  0  0  0  0  0  0  0  0  0  0  # atno 17321 bound_to 7965
  139.5016  144.3860  152.0328 LP  0  0  0  0  0  0  0  0  0  0  0  0  # atno 17342 bound_to 10162
  140.2975  144.3684  150.6070 LP  0  0  0  0  0  0  0  0  0  0  0  0  # atno 17343 bound_to 10162
  155.9728  130.4655  150.6256 LP  0  0  0  0  0  0  0  0  0  0  0  0  # atno 17370 bound_to 10713
  157.3977  131.0805  151.1337 LP  0  0  0  0  0  0  0  0  0  0  0  0  # atno 17371 bound_to 10713
  141.2063  133.7835  157.0181 LP  0  0  0  0  0  0  0  0  0  0  0  0  # atno 17394 bound_to 11000
  140.0862  134.9619  157.1703 LP  0  0  0  0  0  0  0  0  0  0  0  0  # atno 17395 bound_to 11000

$$$$
