AV-unprocessed.smi:531|AV-procd|sdf|2847|dock10
  -GOLD-   2262023333D 1   1.00000     0.00000
 Structure written by MMmdl.
 45 47  0  0  0  0  0  0  0  0  2 V2000
  150.9790  137.5304  154.4618 C   0  0  0  0  0  0  0  0  0  0  0  0
  150.4450  138.9484  154.6759 C   0  0  0  0  0  0  0  0  0  0  0  0
  151.5387  139.8067  154.9433 O   0  0  0  0  0  0  0  0  0  0  0  0
  152.3161  139.3885  156.0525 C   0  0  0  0  0  0  0  0  0  0  0  0
  151.5252  139.6132  157.3487 C   0  0  0  0  0  0  0  0  0  0  0  0
  152.3956  139.5933  158.5244 N   0  0  0  0  0  0  0  0  0  0  0  0
  152.7289  140.6340  159.3367 C   0  0  0  0  0  0  0  0  0  0  0  0
  152.2809  141.9373  159.1092 N   0  0  0  0  0  0  0  0  0  0  0  0
  152.9373  143.1666  159.5561 C   0  0  0  0  0  0  0  0  0  0  0  0
  153.0801  144.1838  158.4095 C   0  0  0  0  0  0  0  0  0  0  0  0
  151.7047  144.5182  157.8159 C   0  0  0  0  0  0  0  0  0  0  0  0
  150.9635  143.2252  157.4482 C   0  0  0  0  0  0  0  0  0  0  0  0
  150.9320  142.2547  158.6427 C   0  0  0  0  0  0  0  0  0  0  0  0
  153.4741  140.2998  160.3914 N   0  0  0  0  0  0  0  0  0  0  0  0
  153.6523  138.9353  160.2286 C   0  0  0  0  0  0  0  0  0  0  0  0
  153.0081  138.4823  159.1193 C   0  0  0  0  0  0  0  0  0  0  0  0
  152.9817  137.0572  158.7131 C   0  0  0  0  0  0  0  0  0  0  0  0
  152.3699  136.6877  157.7134 O   0  0  0  0  0  0  0  0  0  0  0  0
  153.6942  136.2606  159.5711 N   0  5  0  0  0  0  0  0  0  0  0  0
  154.3631  136.6797  160.7003 C   0  0  0  0  0  0  0  0  0  0  0  0
  154.9747  135.8921  161.4236 O   0  0  0  0  0  0  0  0  0  0  0  0
  154.3553  138.0059  161.0425 N   0  0  0  0  0  0  0  0  0  0  0  0
  155.0535  138.4800  162.2411 C   0  0  0  0  0  0  0  0  0  0  0  0
  150.1663  136.8338  154.2556 H   0  0  0  0  0  0  0  0  0  0  0  0
  151.5090  137.1756  155.3461 H   0  0  0  0  0  0  0  0  0  0  0  0
  151.6719  137.4965  153.6207 H   0  0  0  0  0  0  0  0  0  0  0  0
  149.9093  139.2859  153.7874 H   0  0  0  0  0  0  0  0  0  0  0  0
  149.7441  138.9600  155.5119 H   0  0  0  0  0  0  0  0  0  0  0  0
  152.5758  138.3336  155.9532 H   0  0  0  0  0  0  0  0  0  0  0  0
  153.2493  139.9525  156.0855 H   0  0  0  0  0  0  0  0  0  0  0  0
  150.9815  140.5533  157.3037 H   0  0  0  0  0  0  0  0  0  0  0  0
  150.7492  138.8605  157.4446 H   0  0  0  0  0  0  0  0  0  0  0  0
  152.3448  143.6036  160.3611 H   0  0  0  0  0  0  0  0  0  0  0  0
  153.9067  142.9418  159.9988 H   0  0  0  0  0  0  0  0  0  0  0  0
  153.5607  145.0925  158.7724 H   0  0  0  0  0  0  0  0  0  0  0  0
  153.7274  143.7797  157.6308 H   0  0  0  0  0  0  0  0  0  0  0  0
  151.1191  145.0785  158.5457 H   0  0  0  0  0  0  0  0  0  0  0  0
  151.8124  145.1590  156.9405 H   0  0  0  0  0  0  0  0  0  0  0  0
  149.9477  143.4557  157.1259 H   0  0  0  0  0  0  0  0  0  0  0  0
  151.4570  142.7459  156.6019 H   0  0  0  0  0  0  0  0  0  0  0  0
  150.4220  141.3364  158.3497 H   0  0  0  0  0  0  0  0  0  0  0  0
  150.3560  142.6813  159.4649 H   0  0  0  0  0  0  0  0  0  0  0  0
  156.1055  138.1923  162.2137 H   0  0  0  0  0  0  0  0  0  0  0  0
  154.6044  138.0485  163.1367 H   0  0  0  0  0  0  0  0  0  0  0  0
  155.0192  139.5639  162.3473 H   0  0  0  0  0  0  0  0  0  0  0  0
  1  2  1  0  0  0  0
  1 24  1  0  0  0  0
  1 25  1  0  0  0  0
  1 26  1  0  0  0  0
  2  3  1  0  0  0  0
  2 27  1  0  0  0  0
  2 28  1  0  0  0  0
  3  4  1  0  0  0  0
  4  5  1  0  0  0  0
  4 29  1  0  0  0  0
  4 30  1  0  0  0  0
  5  6  1  0  0  0  0
  5 31  1  0  0  0  0
  5 32  1  0  0  0  0
  6 16  1  0  0  0  0
  6  7  1  0  0  0  0
  7  8  1  0  0  0  0
  7 14  2  0  0  0  0
  8 13  1  0  0  0  0
  8  9  1  0  0  0  0
  9 10  1  0  0  0  0
  9 33  1  0  0  0  0
  9 34  1  0  0  0  0
 10 11  1  0  0  0  0
 10 35  1  0  0  0  0
 10 36  1  0  0  0  0
 11 12  1  0  0  0  0
 11 37  1  0  0  0  0
 11 38  1  0  0  0  0
 12 13  1  0  0  0  0
 12 39  1  0  0  0  0
 12 40  1  0  0  0  0
 13 41  1  0  0  0  0
 13 42  1  0  0  0  0
 14 15  1  0  0  0  0
 15 22  1  0  0  0  0
 15 16  2  0  0  0  0
 16 17  1  0  0  0  0
 17 18  2  0  0  0  0
 17 19  1  0  0  0  0
 19 20  1  0  0  0  0
 20 21  2  0  0  0  0
 20 22  1  0  0  0  0
 22 23  1  0  0  0  0
 23 43  1  0  0  0  0
 23 44  1  0  0  0  0
 23 45  1  0  0  0  0
M  CHG  1  19  -1
M  END
> <s_m_source_file>
AV-unprocessed.smi

> <i_m_source_file_index>
531

> <i_lp_mmshare_version>
43012

> <i_f3d_flags>
0

> <s_epik_input>
W0NIM11uMWMoPU8pW25IXWMoPU8pYyhjMTIpbihbQ0gyXVtDSDJdT1tDSDJdW0NIM10pYyhuMilOM1tDSDJdW0NIMl1bQ0gyXVtDSDJdW0NIMl0z

> <s_epik_cmdline>
J2VwaWtfcHl0aG9uJywgJy1waCcsICc3LjAnLCAnLXRuJywgJzgnLCAnLW1hJywgJzIwMCcsICctbWV0YWxfYmluZGluZycsICctaW1hZScsICc8aW5maWxlLm1hZT4nLCAnLW9tYWUnLCAnPG91dGZpbGUubWFlPic=

> <r_lp_tautomer_probability>
1

> <r_epik_Ionization_Penalty>
5.10252

> <r_epik_Ionization_Penalty_Charging>
0.0734613

> <r_epik_Ionization_Penalty_Neutral>
5.02906

> <r_epik_State_Penalty>
5.02576

> <r_epik_Charging_Adjusted_Penalty>
5.09922

> <i_epik_Tot_Q>
-1

> <i_epik_Tot_abs_Q>
1

> <r_epik_Metal_State_Penalty>
1.13821

> <b_epik_Metal_Only>
1

> <s_lp_Force_Field>
OPLS_2005

> <r_lp_Energy>
41.0851

> <b_lp_Chiralities_Consistent>
1

> <s_lp_Variant>
AV-unprocessed.smi:531-2

> <Gold.Version>
5.8.1

> <Gold.Id.Protein>
6NUR|6NUR_protein|mol2

> <Gold.PLP.Fitness>
50.4934

> <Gold.PLP.PLP>
-42.3296

> <Gold.PLP.part.hbond>
-2.0000

> <Gold.PLP.part.metal>
0.0000

> <Gold.PLP.part.buried>
-4.0244

> <Gold.PLP.part.nonpolar>
-36.1882

> <Gold.PLP.part.repulsive>
0.0492

> <Gold.PLP.ligand.clash>
0.0000

> <Gold.PLP.ligand.torsion>
0.6853

> <Gold.PLP.Chemscore.Hbond>
3.0000

> <Gold.PLP.Chemscore.CHOScore>
0.0000

> <Gold.PLP.Chemscore.Metal>
0.0000

> <Gold.Chemscore.Hbonds>
donor molecule, donor type, donor heavy atom, donor atom, acceptor molecule, acceptor atom, score
      P1  H  6896  6908       L1    19  1.82
      P1  H  7989  7998       L1     3  1.00

> <Gold.PLP.Chemscore.Internal.Correction>
0.5345

> <Gold.Rescore>
     Score         DG    S(hbond)    S(metal)    S(lipo)     H(rot)  DE(clash)    DE(int)     intcor
     16.00     -17.70       1.52        0.00      95.81       1.59       0.07       1.64       ----

> <Gold.Chemscore.Fitness>
15.9964

> <Gold.Chemscore.DG>
-17.7044

> <Gold.Chemscore.ZeroCoef>
-5.4800

> <Gold.Chemscore.Hbond>
1.5241

> <Gold.Chemscore.Metal>
0.0000

> <Gold.Chemscore.Lipo>
95.8068

> <Gold.Chemscore.Internal_Hbond>
0.0000

> <Gold.Chemscore.DEClash>
0.0666

> <Gold.Chemscore.DEInternal>
1.6414

> <Gold.Chemscore.Rot>
1.5920

> <Gold.Chemscore.Internal.Correction>
   9.000000E+99

> <Gold.Chemscore.Hbonds>
donor molecule, donor type, donor heavy atom, donor atom, acceptor molecule, acceptor atom, score
      P1  H  6896  6908       L1    19  0.33
      P1  H  7989  7998       L1     3  0.50

> <Gold.Chemscore.Hbond.Weighted>
-5.0906

> <Gold.Chemscore.Metal.Weighted>
-0.0000

> <Gold.Chemscore.Lipo.Weighted>
-11.2094

> <Gold.Chemscore.Internal_Hbond.Weighted>
0.0000

> <Gold.Chemscore.DEClash.Weighted>
0.0666

> <Gold.Chemscore.DEInternal.Weighted>
1.6414

> <Gold.Chemscore.Rot.Weighted>
4.0756

> <Gold.Chemscore.Internal.Correction.Weighted>
   9.000000E+99

> <Gold.Protein.RotatedTorsions>
[ 6907 6896 6895 6894 ] final  -57.79 input  -60.11 | X-H torsion
[ 7974 7965 7964 7962 ] final -160.88 input  175.53 | X-H torsion
[ 8008 7997 7996 7995 ] final  -70.43 input   59.86 | X-H torsion
[ 10167 10162 10161 10158 ] final -172.49 input  -65.29 | X-H torsion
[ 10718 10713 10712 10709 ] final  -49.66 input   66.30 | X-H torsion
[ 10763 10752 10751 10750 ] final  -13.96 input  -60.55 | X-H torsion
[ 11005 11000 10999 10996 ] final   73.76 input  -57.11 | X-H torsion

> <Gold.Protein.ActiveResidues>
 VAL166  LYS551  ARG553  GLY616  TRP617  ASP618  TYR619  PRO620  LYS621  CYS622 
 ASP623  PHE694  ASN695  SER759  ASP760  ASP761  ALA762  ILE779  LEU786  VAL792 
 PHE793  MET794  SER795  GLU796  ALA797  LYS798  CYS799  TRP800  GLU811  SER814 

> <Gold.Protein.RotatedAtoms>
  150.8058  134.7182  159.6642 H   0  0  0  0  0  0  0  0  0  0  0  0  # atno 6907 bound_to 6896
  152.4177  134.6008  160.0009 H   0  0  0  0  0  0  0  0  0  0  0  0  # atno 6908 bound_to 6896
  151.6232  133.3300  159.3128 H   0  0  0  0  0  0  0  0  0  0  0  0  # atno 6909 bound_to 6896
  144.7411  140.3478  143.6122 H   0  0  0  0  0  0  0  0  0  0  0  0  # atno 7974 bound_to 7965
  154.5012  140.0834  156.7801 H   0  0  0  0  0  0  0  0  0  0  0  0  # atno 8008 bound_to 7997
  155.3999  140.3436  155.4238 H   0  0  0  0  0  0  0  0  0  0  0  0  # atno 8009 bound_to 7997
  156.1458  140.1543  156.8836 H   0  0  0  0  0  0  0  0  0  0  0  0  # atno 8010 bound_to 7997
  139.5741  144.1572  152.1426 H   0  0  0  0  0  0  0  0  0  0  0  0  # atno 10167 bound_to 10162
  156.1872  130.4152  149.9422 H   0  0  0  0  0  0  0  0  0  0  0  0  # atno 10718 bound_to 10713
  153.5211  135.7015  153.5731 H   0  0  0  0  0  0  0  0  0  0  0  0  # atno 10763 bound_to 10752
  153.3779  135.3928  155.1836 H   0  0  0  0  0  0  0  0  0  0  0  0  # atno 10764 bound_to 10752
  154.8694  135.3828  154.4700 H   0  0  0  0  0  0  0  0  0  0  0  0  # atno 10765 bound_to 10752
  139.9424  134.7374  156.1065 H   0  0  0  0  0  0  0  0  0  0  0  0  # atno 11005 bound_to 11000
  145.7307  139.1735  143.2432 LP  0  0  0  0  0  0  0  0  0  0  0  0  # atno 17320 bound_to 7965
  146.1208  140.7311  142.9458 LP  0  0  0  0  0  0  0  0  0  0  0  0  # atno 17321 bound_to 7965
  140.1111  144.5456  150.6924 LP  0  0  0  0  0  0  0  0  0  0  0  0  # atno 17342 bound_to 10162
  140.7025  143.2444  151.4823 LP  0  0  0  0  0  0  0  0  0  0  0  0  # atno 17343 bound_to 10162
  156.7174  130.8993  151.3615 LP  0  0  0  0  0  0  0  0  0  0  0  0  # atno 17370 bound_to 10713
  157.6906  130.9230  150.0504 LP  0  0  0  0  0  0  0  0  0  0  0  0  # atno 17371 bound_to 10713
  141.1063  133.6659  156.2873 LP  0  0  0  0  0  0  0  0  0  0  0  0  # atno 17394 bound_to 11000
  140.5918  134.5643  157.5501 LP  0  0  0  0  0  0  0  0  0  0  0  0  # atno 17395 bound_to 11000

$$$$
