AV-unprocessed.smi:1433|AV-procd|sdf|5848|dock1
  -GOLD-   22720 5513D 1   1.00000     0.00000
 Structure written by MMmdl.
 45 46  0  0  0  0  0  0  0  0  2 V2000
  147.5215  132.9797  152.0563 C   0  0  0  0  0  0  0  0  0  0  0  0
  146.2530  133.3699  152.8359 C   0  0  1  0  0  0  0  0  0  0  0  0
  146.4917  134.4584  153.8986 C   0  0  0  0  0  0  0  0  0  0  0  0
  146.7090  135.7960  153.2830 N   0  3  2  0  0  0  0  0  0  0  0  0
  147.0495  136.8449  154.2998 C   0  0  1  0  0  0  0  0  0  0  0  0
  145.8581  137.0585  155.2630 C   0  0  0  0  0  0  0  0  0  0  0  0
  148.3458  136.5453  155.1055 C   0  0  0  0  0  0  0  0  0  0  0  0
  149.3735  137.5633  154.9158 N   0  0  0  0  0  0  0  0  0  0  0  0
  150.6935  137.3250  154.8696 C   0  0  0  0  0  0  0  0  0  0  0  0
  151.1889  136.2137  155.0542 O   0  0  0  0  0  0  0  0  0  0  0  0
  151.5882  138.5190  154.5388 C   0  0  0  0  0  0  0  0  0  0  0  0
  151.1378  139.7073  155.2414 N   0  0  0  0  0  0  0  0  0  0  0  0
  151.3352  140.0469  156.5639 C   0  0  0  0  0  0  0  0  0  0  0  0
  150.7437  141.2611  156.7644 C   0  0  0  0  0  0  0  0  0  0  0  0
  150.2036  141.5892  155.4895 C   0  0  0  0  0  0  0  0  0  0  0  0
  150.4435  140.6591  154.5790 N   0  0  0  0  0  0  0  0  0  0  0  0
  145.5679  136.1142  152.3829 C   0  0  0  0  0  0  0  0  0  0  0  0
  145.3600  135.0068  151.3332 C   0  0  2  0  0  0  0  0  0  0  0  0
  144.1242  135.2677  150.4649 C   0  0  0  0  0  0  0  0  0  0  0  0
  145.1798  133.7525  151.9801 O   0  0  0  0  0  0  0  0  0  0  0  0
  148.2725  132.5611  152.7266 H   0  0  0  0  0  0  0  0  0  0  0  0
  147.9785  133.8309  151.5523 H   0  0  0  0  0  0  0  0  0  0  0  0
  147.2970  132.2246  151.3027 H   0  0  0  0  0  0  0  0  0  0  0  0
  145.9155  132.4715  153.3538 H   0  0  0  0  0  0  0  0  0  0  0  0
  145.6249  134.5112  154.5594 H   0  0  0  0  0  0  0  0  0  0  0  0
  147.3344  134.1609  154.5200 H   0  0  0  0  0  0  0  0  0  0  0  0
  147.2195  137.7763  153.7571 H   0  0  0  0  0  0  0  0  0  0  0  0
  146.0589  137.8451  155.9903 H   0  0  0  0  0  0  0  0  0  0  0  0
  145.6348  136.1472  155.8186 H   0  0  0  0  0  0  0  0  0  0  0  0
  144.9485  137.3602  154.7470 H   0  0  0  0  0  0  0  0  0  0  0  0
  148.1218  136.4876  156.1712 H   0  0  0  0  0  0  0  0  0  0  0  0
  148.7825  135.5870  154.8210 H   0  0  0  0  0  0  0  0  0  0  0  0
  149.0582  138.5095  154.7536 H   0  0  0  0  0  0  0  0  0  0  0  0
  152.6235  138.3040  154.8085 H   0  0  0  0  0  0  0  0  0  0  0  0
  151.5686  138.7151  153.4658 H   0  0  0  0  0  0  0  0  0  0  0  0
  151.8760  139.4044  157.2432 H   0  0  0  0  0  0  0  0  0  0  0  0
  150.7026  141.8288  157.6823 H   0  0  0  0  0  0  0  0  0  0  0  0
  149.6497  142.4699  155.2001 H   0  0  0  0  0  0  0  0  0  0  0  0
  144.6632  136.2549  152.9768 H   0  0  0  0  0  0  0  0  0  0  0  0
  145.7509  137.0392  151.8371 H   0  0  0  0  0  0  0  0  0  0  0  0
  146.2281  134.9597  150.6753 H   0  0  0  0  0  0  0  0  0  0  0  0
  144.2090  136.2168  149.9349 H   0  0  0  0  0  0  0  0  0  0  0  0
  143.2169  135.3018  151.0689 H   0  0  0  0  0  0  0  0  0  0  0  0
  143.9983  134.4819  149.7196 H   0  0  0  0  0  0  0  0  0  0  0  0
  147.5169  135.7162  152.6820 H   0  0  0  0  0  0  0  0  0  0  0  0
  1  2  1  0  0  0  0
  1 21  1  0  0  0  0
  1 22  1  0  0  0  0
  1 23  1  0  0  0  0
  2 20  1  0  0  0  0
  2  3  1  0  0  0  0
  2 24  1  0  0  0  0
  3  4  1  0  0  0  0
  3 25  1  0  0  0  0
  3 26  1  0  0  0  0
  4  5  1  0  0  0  0
  4 17  1  0  0  0  0
  4 45  1  0  0  0  0
  5  6  1  0  0  0  0
  5  7  1  0  0  0  0
  5 27  1  0  0  0  0
  6 28  1  0  0  0  0
  6 29  1  0  0  0  0
  6 30  1  0  0  0  0
  7  8  1  0  0  0  0
  7 31  1  0  0  0  0
  7 32  1  0  0  0  0
  8  9  1  0  0  0  0
  8 33  1  0  0  0  0
  9 10  2  0  0  0  0
  9 11  1  0  0  0  0
 11 12  1  0  0  0  0
 11 34  1  0  0  0  0
 11 35  1  0  0  0  0
 12 16  1  0  0  0  0
 12 13  1  0  0  0  0
 13 14  2  0  0  0  0
 13 36  1  0  0  0  0
 14 15  1  0  0  0  0
 14 37  1  0  0  0  0
 15 16  2  0  0  0  0
 15 38  1  0  0  0  0
 17 18  1  0  0  0  0
 17 39  1  0  0  0  0
 17 40  1  0  0  0  0
 18 19  1  0  0  0  0
 18 20  1  0  0  0  0
 18 41  1  0  0  0  0
 19 42  1  0  0  0  0
 19 43  1  0  0  0  0
 19 44  1  0  0  0  0
M  CHG  1   4   1
M  END
> <s_m_source_file>
AV-unprocessed.smi

> <i_m_source_file_index>
1433

> <i_lp_mmshare_version>
43012

> <i_f3d_flags>
0

> <s_epik_input>
W0NIM11bQ0BASF0xW0NIMl1OKFtDSDJdW0NASF0oTzEpW0NIM10pW0NASF0oW0NIM10pW0NIMl1bTkhdQyg9TylbQ0gyXW4yW2NIXVtjSF1bY0hdbjI=

> <s_epik_cmdline>
J2VwaWtfcHl0aG9uJywgJy1waCcsICc3LjAnLCAnLXRuJywgJzgnLCAnLW1hJywgJzIwMCcsICctbWV0YWxfYmluZGluZycsICctaW1hZScsICc8aW5maWxlLm1hZT4nLCAnLW9tYWUnLCAnPG91dGZpbGUubWFlPic=

> <r_lp_tautomer_probability>
1

> <r_epik_Ionization_Penalty>
0.748405

> <r_epik_Ionization_Penalty_Charging>
0.748396

> <r_epik_Ionization_Penalty_Neutral>
8.54426e-06

> <r_epik_State_Penalty>
0.775162

> <r_epik_Charging_Adjusted_Penalty>
1.52356

> <i_epik_Tot_Q>
1

> <i_epik_Tot_abs_Q>
1

> <r_epik_Metal_State_Penalty>
0.775167

> <b_epik_Metal_Only>
0

> <s_lp_Force_Field>
OPLS_2005

> <r_lp_Energy>
21.4141

> <b_lp_Chiralities_Consistent>
1

> <s_lp_Variant>
AV-unprocessed.smi:1433-14

> <Gold.Version>
5.8.1

> <Gold.Id.Protein>
6NUR|6NUR_protein|mol2

> <Gold.PLP.Fitness>
41.6360

> <Gold.PLP.PLP>
-29.6392

> <Gold.PLP.part.hbond>
-3.0000

> <Gold.PLP.part.metal>
0.0000

> <Gold.PLP.part.buried>
-1.6887

> <Gold.PLP.part.nonpolar>
-24.3760

> <Gold.PLP.part.repulsive>
0.3181

> <Gold.PLP.ligand.clash>
0.0000

> <Gold.PLP.ligand.torsion>
1.4358

> <Gold.PLP.Chemscore.Hbond>
3.9920

> <Gold.PLP.Chemscore.CHOScore>
0.9453

> <Gold.PLP.Chemscore.Metal>
0.0000

> <Gold.Chemscore.Hbonds>
donor molecule, donor type, donor heavy atom, donor atom, acceptor molecule, acceptor atom, score
      L1  H     4    45       P1  7948  2.00
      P1  H  7989  7998       L1    16  0.58
      P1  H 10752 10764       L1    10  1.00
      L1  C    15    38       P1  8028  1.00

> <Gold.PLP.Chemscore.Internal.Correction>
0.0565

> <Gold.Rescore>
     Score         DG    S(hbond)    S(metal)    S(lipo)     H(rot)  DE(clash)    DE(int)     intcor
     15.61     -16.98       2.90        0.00      56.45       1.87       0.02       1.36       ----

> <Gold.Chemscore.Fitness>
15.6062

> <Gold.Chemscore.DG>
-16.9827

> <Gold.Chemscore.ZeroCoef>
-5.4800

> <Gold.Chemscore.Hbond>
2.8964

> <Gold.Chemscore.Metal>
0.0000

> <Gold.Chemscore.Lipo>
56.4508

> <Gold.Chemscore.Internal_Hbond>
0.0000

> <Gold.Chemscore.DEClash>
0.0190

> <Gold.Chemscore.DEInternal>
1.3575

> <Gold.Chemscore.Rot>
1.8657

> <Gold.Chemscore.Internal.Correction>
   9.000000E+99

> <Gold.Chemscore.Hbonds>
donor molecule, donor type, donor heavy atom, donor atom, acceptor molecule, acceptor atom, score
      L1  H     4    45       P1  7948  0.99
      P1  H  7989  7998       L1    16  0.05
      P1  H 10752 10764       L1    10  1.00

> <Gold.Chemscore.Hbond.Weighted>
-9.6741

> <Gold.Chemscore.Metal.Weighted>
-0.0000

> <Gold.Chemscore.Lipo.Weighted>
-6.6047

> <Gold.Chemscore.Internal_Hbond.Weighted>
0.0000

> <Gold.Chemscore.DEClash.Weighted>
0.0190

> <Gold.Chemscore.DEInternal.Weighted>
1.3575

> <Gold.Chemscore.Rot.Weighted>
4.7761

> <Gold.Chemscore.Internal.Correction.Weighted>
   9.000000E+99

> <Gold.Protein.RotatedTorsions>
[ 6907 6896 6895 6894 ] final  139.20 input  -60.11 | X-H torsion
[ 7974 7965 7964 7962 ] final    2.40 input  175.53 | X-H torsion
[ 8008 7997 7996 7995 ] final   67.34 input   59.86 | X-H torsion
[ 10167 10162 10161 10158 ] final    8.04 input  -65.29 | X-H torsion
[ 10718 10713 10712 10709 ] final -177.67 input   66.30 | X-H torsion
[ 10763 10752 10751 10750 ] final  -60.17 input  -60.55 | X-H torsion
[ 11005 11000 10999 10996 ] final  -31.33 input  -57.11 | X-H torsion

> <Gold.Protein.ActiveResidues>
 VAL166  LYS551  ARG553  GLY616  TRP617  ASP618  TYR619  PRO620  LYS621  CYS622 
 ASP623  PHE694  ASN695  SER759  ASP760  ASP761  ALA762  ILE779  LEU786  VAL792 
 PHE793  MET794  SER795  GLU796  ALA797  LYS798  CYS799  TRP800  GLU811  SER814 

> <Gold.Protein.RotatedAtoms>
  152.2577  133.5270  159.5362 H   0  0  0  0  0  0  0  0  0  0  0  0  # atno 6907 bound_to 6896
  150.7114  134.0873  159.3928 H   0  0  0  0  0  0  0  0  0  0  0  0  # atno 6908 bound_to 6896
  151.8791  135.0460  160.0538 H   0  0  0  0  0  0  0  0  0  0  0  0  # atno 6909 bound_to 6896
  146.2443  140.0841  142.8355 H   0  0  0  0  0  0  0  0  0  0  0  0  # atno 7974 bound_to 7965
  155.6914  140.3496  155.4895 H   0  0  0  0  0  0  0  0  0  0  0  0  # atno 8008 bound_to 7997
  155.9521  140.1121  157.0990 H   0  0  0  0  0  0  0  0  0  0  0  0  # atno 8009 bound_to 7997
  154.4124  140.1192  156.5052 H   0  0  0  0  0  0  0  0  0  0  0  0  # atno 8010 bound_to 7997
  140.6337  143.7935  150.7330 H   0  0  0  0  0  0  0  0  0  0  0  0  # atno 10167 bound_to 10162
  156.8329  130.9659  151.3105 H   0  0  0  0  0  0  0  0  0  0  0  0  # atno 10718 bound_to 10713
  154.2650  135.6301  153.5288 H   0  0  0  0  0  0  0  0  0  0  0  0  # atno 10763 bound_to 10752
  152.9889  135.5596  154.5663 H   0  0  0  0  0  0  0  0  0  0  0  0  # atno 10764 bound_to 10752
  154.5220  135.2883  155.1229 H   0  0  0  0  0  0  0  0  0  0  0  0  # atno 10765 bound_to 10752
  140.9458  133.7250  156.1145 H   0  0  0  0  0  0  0  0  0  0  0  0  # atno 11005 bound_to 11000
  145.0707  140.9153  143.4884 LP  0  0  0  0  0  0  0  0  0  0  0  0  # atno 17320 bound_to 7965
  145.0975  139.2846  143.5703 LP  0  0  0  0  0  0  0  0  0  0  0  0  # atno 17321 bound_to 7965
  140.1552  143.4323  152.2105 LP  0  0  0  0  0  0  0  0  0  0  0  0  # atno 17342 bound_to 10162
  139.5549  144.7365  151.4324 LP  0  0  0  0  0  0  0  0  0  0  0  0  # atno 17343 bound_to 10162
  157.6397  130.8795  149.9425 LP  0  0  0  0  0  0  0  0  0  0  0  0  # atno 17370 bound_to 10713
  156.0924  130.3662  150.0370 LP  0  0  0  0  0  0  0  0  0  0  0  0  # atno 17371 bound_to 10713
  140.7670  134.3875  157.5515 LP  0  0  0  0  0  0  0  0  0  0  0  0  # atno 17394 bound_to 11000
  139.8833  134.8998  156.2775 LP  0  0  0  0  0  0  0  0  0  0  0  0  # atno 17395 bound_to 11000

$$$$
