AV-unprocessed.smi:552|AV-procd|sdf|2903|dock4
  -GOLD-   2262023393D 1   1.00000     0.00000
 Structure written by MMmdl.
 42 43  0  0  0  0  0  0  0  0  1 V2000
  145.8492  135.0247  151.9116 C   0  0  0  0  0  0  0  0  0  0  0  0
  145.5306  136.3467  151.1981 C   0  0  0  0  0  0  0  0  0  0  0  0
  145.6629  137.5897  152.0995 C   0  0  1  0  0  0  0  0  0  0  0  0
  144.6938  137.5316  153.2884 C   0  0  0  0  0  0  0  0  0  0  0  0
  147.0315  137.7192  152.5989 N   0  0  0  0  0  0  0  0  0  0  0  0
  147.4634  138.6270  153.4871 C   0  0  0  0  0  0  0  0  0  0  0  0
  146.7383  139.4769  154.0035 O   0  0  0  0  0  0  0  0  0  0  0  0
  148.7827  138.4965  153.7094 N   0  0  0  0  0  0  0  0  0  0  0  0
  149.6090  139.2612  154.5762 C   0  0  0  0  0  0  0  0  0  0  0  0
  151.0025  139.0639  154.7227 C   0  0  0  0  0  0  0  0  0  0  0  0
  151.7191  139.8981  155.6017 C   0  0  0  0  0  0  0  0  0  0  0  0
  151.0253  140.9069  156.3002 C   0  0  0  0  0  0  0  0  0  0  0  0
  151.7366  141.7358  157.1787 N   0  0  0  0  0  0  0  0  0  0  0  0
  152.1737  141.0582  158.3928 C   0  0  0  0  0  0  0  0  0  0  0  0
  153.0557  142.0001  159.2309 C   0  0  0  0  0  0  0  0  0  0  0  0
  152.3434  143.2032  159.5066 O   0  0  0  0  0  0  0  0  0  0  0  0
  151.9815  143.8963  158.3152 C   0  0  0  0  0  0  0  0  0  0  0  0
  151.0712  143.0028  157.4548 C   0  0  0  0  0  0  0  0  0  0  0  0
  149.6948  141.1118  156.1541 N   0  0  0  0  0  0  0  0  0  0  0  0
  149.0139  140.3091  155.3089 C   0  0  0  0  0  0  0  0  0  0  0  0
  145.7958  134.1876  151.2154 H   0  0  0  0  0  0  0  0  0  0  0  0
  145.1455  134.8242  152.7196 H   0  0  0  0  0  0  0  0  0  0  0  0
  146.8529  135.0393  152.3370 H   0  0  0  0  0  0  0  0  0  0  0  0
  146.2049  136.4510  150.3473 H   0  0  0  0  0  0  0  0  0  0  0  0
  144.5240  136.2973  150.7810 H   0  0  0  0  0  0  0  0  0  0  0  0
  145.3935  138.4649  151.5059 H   0  0  0  0  0  0  0  0  0  0  0  0
  143.6608  137.4557  152.9478 H   0  0  0  0  0  0  0  0  0  0  0  0
  144.7710  138.4292  153.9027 H   0  0  0  0  0  0  0  0  0  0  0  0
  144.8975  136.6711  153.9269 H   0  0  0  0  0  0  0  0  0  0  0  0
  147.7071  137.0670  152.2286 H   0  0  0  0  0  0  0  0  0  0  0  0
  149.2636  137.8115  153.1451 H   0  0  0  0  0  0  0  0  0  0  0  0
  151.5358  138.3041  154.1727 H   0  0  0  0  0  0  0  0  0  0  0  0
  152.7833  139.7659  155.7320 H   0  0  0  0  0  0  0  0  0  0  0  0
  151.3055  140.7478  158.9761 H   0  0  0  0  0  0  0  0  0  0  0  0
  152.7290  140.1559  158.1338 H   0  0  0  0  0  0  0  0  0  0  0  0
  153.3266  141.5232  160.1728 H   0  0  0  0  0  0  0  0  0  0  0  0
  153.9864  142.2282  158.7090 H   0  0  0  0  0  0  0  0  0  0  0  0
  151.4621  144.8166  158.5821 H   0  0  0  0  0  0  0  0  0  0  0  0
  152.8778  144.1840  157.7630 H   0  0  0  0  0  0  0  0  0  0  0  0
  150.8291  143.5054  156.5175 H   0  0  0  0  0  0  0  0  0  0  0  0
  150.1307  142.8209  157.9770 H   0  0  0  0  0  0  0  0  0  0  0  0
  147.9560  140.5085  155.2202 H   0  0  0  0  0  0  0  0  0  0  0  0
  1  2  1  0  0  0  0
  1 21  1  0  0  0  0
  1 22  1  0  0  0  0
  1 23  1  0  0  0  0
  2  3  1  0  0  0  0
  2 24  1  0  0  0  0
  2 25  1  0  0  0  0
  3  4  1  0  0  0  0
  3  5  1  0  0  0  0
  3 26  1  0  0  0  0
  4 27  1  0  0  0  0
  4 28  1  0  0  0  0
  4 29  1  0  0  0  0
  5  6  1  0  0  0  0
  5 30  1  0  0  0  0
  6  7  2  0  0  0  0
  6  8  1  0  0  0  0
  8  9  1  0  0  0  0
  8 31  1  0  0  0  0
  9 20  1  0  0  0  0
  9 10  2  0  0  0  0
 10 11  1  0  0  0  0
 10 32  1  0  0  0  0
 11 12  2  0  0  0  0
 11 33  1  0  0  0  0
 12 13  1  0  0  0  0
 12 19  1  0  0  0  0
 13 18  1  0  0  0  0
 13 14  1  0  0  0  0
 14 15  1  0  0  0  0
 14 34  1  0  0  0  0
 14 35  1  0  0  0  0
 15 16  1  0  0  0  0
 15 36  1  0  0  0  0
 15 37  1  0  0  0  0
 16 17  1  0  0  0  0
 17 18  1  0  0  0  0
 17 38  1  0  0  0  0
 17 39  1  0  0  0  0
 18 40  1  0  0  0  0
 18 41  1  0  0  0  0
 19 20  2  0  0  0  0
 20 42  1  0  0  0  0
M  END
> <s_m_source_file>
AV-unprocessed.smi

> <i_m_source_file_index>
552

> <i_lp_mmshare_version>
43012

> <i_f3d_flags>
0

> <s_epik_input>
W0NIM11bQ0gyXVtDQEhdKFtDSDNdKVtOSF1DKD1PKVtOSF1jMVtjSF1bY0hdYyhuW2NIXTEpTjJbQ0gyXVtDSDJdT1tDSDJdW0NIMl0y

> <s_epik_cmdline>
J2VwaWtfcHl0aG9uJywgJy1waCcsICc3LjAnLCAnLXRuJywgJzgnLCAnLW1hJywgJzIwMCcsICctbWV0YWxfYmluZGluZycsICctaW1hZScsICc8aW5maWxlLm1hZT4nLCAnLW9tYWUnLCAnPG91dGZpbGUubWFlPic=

> <r_lp_tautomer_probability>
1

> <r_epik_Ionization_Penalty>
0.00215965

> <r_epik_Ionization_Penalty_Charging>
0

> <r_epik_Ionization_Penalty_Neutral>
0.00215965

> <r_epik_State_Penalty>
0.00145276

> <r_epik_Charging_Adjusted_Penalty>
0.00145276

> <i_epik_Tot_Q>
0

> <i_epik_Tot_abs_Q>
0

> <r_epik_Metal_State_Penalty>
-0

> <b_epik_Metal_Only>
0

> <s_lp_Force_Field>
OPLS_2005

> <r_lp_Energy>
22.6914

> <b_lp_Chiralities_Consistent>
1

> <s_lp_Variant>
AV-unprocessed.smi:552-2

> <Gold.Version>
5.8.1

> <Gold.Id.Protein>
6NUR|6NUR_protein|mol2

> <Gold.PLP.Fitness>
38.9684

> <Gold.PLP.PLP>
-34.0901

> <Gold.PLP.part.hbond>
-2.7123

> <Gold.PLP.part.metal>
0.0000

> <Gold.PLP.part.buried>
-0.5326

> <Gold.PLP.part.nonpolar>
-31.8721

> <Gold.PLP.part.repulsive>
0.3324

> <Gold.PLP.ligand.clash>
0.0000

> <Gold.PLP.ligand.torsion>
0.4643

> <Gold.PLP.Chemscore.Hbond>
1.8960

> <Gold.PLP.Chemscore.CHOScore>
0.0000

> <Gold.PLP.Chemscore.Metal>
0.0000

> <Gold.Chemscore.Hbonds>
donor molecule, donor type, donor heavy atom, donor atom, acceptor molecule, acceptor atom, score
      L1  H     5    30       P1  7948  1.00
      L1  H     8    31       P1  7948  0.88

> <Gold.PLP.Chemscore.Internal.Correction>
0.1189

> <Gold.Rescore>
     Score         DG    S(hbond)    S(metal)    S(lipo)     H(rot)  DE(clash)    DE(int)     intcor
     15.31     -17.97       1.89        0.00      82.23       1.35       0.07       2.59       ----

> <Gold.Chemscore.Fitness>
15.3081

> <Gold.Chemscore.DG>
-17.9661

> <Gold.Chemscore.ZeroCoef>
-5.4800

> <Gold.Chemscore.Hbond>
1.8948

> <Gold.Chemscore.Metal>
0.0000

> <Gold.Chemscore.Lipo>
82.2314

> <Gold.Chemscore.Internal_Hbond>
0.0000

> <Gold.Chemscore.DEClash>
0.0698

> <Gold.Chemscore.DEInternal>
2.5882

> <Gold.Chemscore.Rot>
1.3530

> <Gold.Chemscore.Internal.Correction>
   9.000000E+99

> <Gold.Chemscore.Hbonds>
donor molecule, donor type, donor heavy atom, donor atom, acceptor molecule, acceptor atom, score
      L1  H     5    30       P1  7948  0.93
      L1  H     8    31       P1  7948  0.80

> <Gold.Chemscore.Hbond.Weighted>
-6.3288

> <Gold.Chemscore.Metal.Weighted>
-0.0000

> <Gold.Chemscore.Lipo.Weighted>
-9.6211

> <Gold.Chemscore.Internal_Hbond.Weighted>
0.0000

> <Gold.Chemscore.DEClash.Weighted>
0.0698

> <Gold.Chemscore.DEInternal.Weighted>
2.5882

> <Gold.Chemscore.Rot.Weighted>
3.4638

> <Gold.Chemscore.Internal.Correction.Weighted>
   9.000000E+99

> <Gold.Protein.RotatedTorsions>
[ 6907 6896 6895 6894 ] final   -9.15 input  -60.11 | X-H torsion
[ 7974 7965 7964 7962 ] final -117.07 input  175.53 | X-H torsion
[ 8008 7997 7996 7995 ] final   10.75 input   59.86 | X-H torsion
[ 10167 10162 10161 10158 ] final    5.14 input  -65.29 | X-H torsion
[ 10718 10713 10712 10709 ] final   85.73 input   66.30 | X-H torsion
[ 10763 10752 10751 10750 ] final   37.75 input  -60.55 | X-H torsion
[ 11005 11000 10999 10996 ] final   39.05 input  -57.11 | X-H torsion

> <Gold.Protein.ActiveResidues>
 VAL166  LYS551  ARG553  GLY616  TRP617  ASP618  TYR619  PRO620  LYS621  CYS622 
 ASP623  PHE694  ASN695  SER759  ASP760  ASP761  ALA762  ILE779  LEU786  VAL792 
 PHE793  MET794  SER795  GLU796  ALA797  LYS798  CYS799  TRP800  GLU811  SER814 

> <Gold.Protein.RotatedAtoms>
  151.4224  135.0999  159.9617 H   0  0  0  0  0  0  0  0  0  0  0  0  # atno 6907 bound_to 6896
  152.4984  133.8694  159.7301 H   0  0  0  0  0  0  0  0  0  0  0  0  # atno 6908 bound_to 6896
  150.9213  133.6819  159.2859 H   0  0  0  0  0  0  0  0  0  0  0  0  # atno 6909 bound_to 6896
  145.0894  140.8480  143.3991 H   0  0  0  0  0  0  0  0  0  0  0  0  # atno 7974 bound_to 7965
  154.7976  140.2846  155.5945 H   0  0  0  0  0  0  0  0  0  0  0  0  # atno 8008 bound_to 7997
  156.2973  140.2592  156.2766 H   0  0  0  0  0  0  0  0  0  0  0  0  # atno 8009 bound_to 7997
  154.9596  140.0378  157.2173 H   0  0  0  0  0  0  0  0  0  0  0  0  # atno 8010 bound_to 7997
  140.6497  143.7574  150.7556 H   0  0  0  0  0  0  0  0  0  0  0  0  # atno 10167 bound_to 10162
  157.6919  131.0187  150.2866 H   0  0  0  0  0  0  0  0  0  0  0  0  # atno 10718 bound_to 10713
  153.0026  135.6269  154.2195 H   0  0  0  0  0  0  0  0  0  0  0  0  # atno 10763 bound_to 10752
  154.1938  135.2807  155.3015 H   0  0  0  0  0  0  0  0  0  0  0  0  # atno 10764 bound_to 10752
  154.5738  135.5668  153.7179 H   0  0  0  0  0  0  0  0  0  0  0  0  # atno 10765 bound_to 10752
  140.2066  134.3806  155.8069 H   0  0  0  0  0  0  0  0  0  0  0  0  # atno 11005 bound_to 11000
  145.1083  139.2774  143.5650 LP  0  0  0  0  0  0  0  0  0  0  0  0  # atno 17320 bound_to 7965
  146.3531  140.0671  142.8625 LP  0  0  0  0  0  0  0  0  0  0  0  0  # atno 17321 bound_to 7965
  140.1222  143.4601  152.2306 LP  0  0  0  0  0  0  0  0  0  0  0  0  # atno 17342 bound_to 10162
  139.5711  144.7463  151.3888 LP  0  0  0  0  0  0  0  0  0  0  0  0  # atno 17343 bound_to 10162
  156.3404  130.3814  149.7414 LP  0  0  0  0  0  0  0  0  0  0  0  0  # atno 17370 bound_to 10713
  156.4924  130.8091  151.3100 LP  0  0  0  0  0  0  0  0  0  0  0  0  # atno 17371 bound_to 10713
  141.2227  133.7121  156.8348 LP  0  0  0  0  0  0  0  0  0  0  0  0  # atno 17394 bound_to 11000
  140.1996  134.8907  157.3154 LP  0  0  0  0  0  0  0  0  0  0  0  0  # atno 17395 bound_to 11000

$$$$
