AV-unprocessed.smi:2587|AV-procd|sdf|10146|dock3
  -GOLD-   2272014153D 1   1.00000     0.00000
 Structure written by MMmdl.
 39 40  0  0  0  0  0  0  0  0  1 V2000
  146.3715  143.2295  153.9565 C   0  0  0  0  0  0  0  0  0  0  0  0
  146.9942  142.0791  154.2527 C   0  0  0  0  0  0  0  0  0  0  0  0
  148.3340  141.6607  153.6812 C   0  0  0  0  0  0  0  0  0  0  0  0
  148.7619  140.3428  154.1495 N   0  0  0  0  0  0  0  0  0  0  0  0
  148.0012  139.1741  153.7151 C   0  0  0  0  0  0  0  0  0  0  0  0
  146.9850  139.5151  152.6148 C   0  0  0  0  0  0  0  0  0  0  0  0
  147.3797  138.9062  151.4054 O   0  0  0  0  0  0  0  0  0  0  0  0
  149.9920  140.1942  154.8359 C   0  0  0  0  0  0  0  0  0  0  0  0
  150.3442  141.0043  155.9456 C   0  0  0  0  0  0  0  0  0  0  0  0
  151.5987  140.7750  156.5599 C   0  0  0  0  0  0  0  0  0  0  0  0
  152.0124  141.5448  157.6686 N   0  0  0  0  0  0  0  0  0  0  0  0
  151.3976  142.8575  157.8577 C   0  0  0  0  0  0  0  0  0  0  0  0
  152.1666  143.6613  158.9199 C   0  0  0  0  0  0  0  0  0  0  0  0
  152.2444  142.9106  160.1269 O   0  0  0  0  0  0  0  0  0  0  0  0
  152.9456  141.6852  159.9436 C   0  0  0  0  0  0  0  0  0  0  0  0
  152.2068  140.8101  158.9163 C   0  0  0  0  0  0  0  0  0  0  0  0
  152.4205  139.8032  156.0971 N   0  0  0  0  0  0  0  0  0  0  0  0
  152.0034  139.0938  155.0494 C   0  0  0  0  0  0  0  0  0  0  0  0
  150.8476  139.2376  154.4018 N   0  0  0  0  0  0  0  0  0  0  0  0
  146.8047  143.9417  153.2694 H   0  0  0  0  0  0  0  0  0  0  0  0
  145.4171  143.4730  154.3993 H   0  0  0  0  0  0  0  0  0  0  0  0
  146.5308  141.3932  154.9471 H   0  0  0  0  0  0  0  0  0  0  0  0
  148.2699  141.6551  152.5923 H   0  0  0  0  0  0  0  0  0  0  0  0
  149.0805  142.4153  153.9305 H   0  0  0  0  0  0  0  0  0  0  0  0
  148.6705  138.3742  153.3993 H   0  0  0  0  0  0  0  0  0  0  0  0
  147.4697  138.7753  154.5801 H   0  0  0  0  0  0  0  0  0  0  0  0
  145.9895  139.1602  152.8826 H   0  0  0  0  0  0  0  0  0  0  0  0
  146.9167  140.5925  152.4619 H   0  0  0  0  0  0  0  0  0  0  0  0
  147.8939  138.1398  151.6081 H   0  0  0  0  0  0  0  0  0  0  0  0
  149.6792  141.7581  156.3350 H   0  0  0  0  0  0  0  0  0  0  0  0
  151.3943  143.4128  156.9188 H   0  0  0  0  0  0  0  0  0  0  0  0
  150.3590  142.7295  158.1656 H   0  0  0  0  0  0  0  0  0  0  0  0
  153.1694  143.9100  158.5683 H   0  0  0  0  0  0  0  0  0  0  0  0
  151.6567  144.6038  159.1192 H   0  0  0  0  0  0  0  0  0  0  0  0
  153.9687  141.8840  159.6199 H   0  0  0  0  0  0  0  0  0  0  0  0
  153.0104  141.1669  160.9003 H   0  0  0  0  0  0  0  0  0  0  0  0
  151.2311  140.5196  159.3079 H   0  0  0  0  0  0  0  0  0  0  0  0
  152.7724  139.8921  158.7634 H   0  0  0  0  0  0  0  0  0  0  0  0
  152.6690  138.3238  154.6883 H   0  0  0  0  0  0  0  0  0  0  0  0
  1  2  2  0  0  0  0
  1 20  1  0  0  0  0
  1 21  1  0  0  0  0
  2  3  1  0  0  0  0
  2 22  1  0  0  0  0
  3  4  1  0  0  0  0
  3 23  1  0  0  0  0
  3 24  1  0  0  0  0
  4  5  1  0  0  0  0
  4  8  1  0  0  0  0
  5  6  1  0  0  0  0
  5 25  1  0  0  0  0
  5 26  1  0  0  0  0
  6  7  1  0  0  0  0
  6 27  1  0  0  0  0
  6 28  1  0  0  0  0
  7 29  1  0  0  0  0
  8 19  1  0  0  0  0
  8  9  2  0  0  0  0
  9 10  1  0  0  0  0
  9 30  1  0  0  0  0
 10 11  1  0  0  0  0
 10 17  2  0  0  0  0
 11 16  1  0  0  0  0
 11 12  1  0  0  0  0
 12 13  1  0  0  0  0
 12 31  1  0  0  0  0
 12 32  1  0  0  0  0
 13 14  1  0  0  0  0
 13 33  1  0  0  0  0
 13 34  1  0  0  0  0
 14 15  1  0  0  0  0
 15 16  1  0  0  0  0
 15 35  1  0  0  0  0
 15 36  1  0  0  0  0
 16 37  1  0  0  0  0
 16 38  1  0  0  0  0
 17 18  1  0  0  0  0
 18 19  2  0  0  0  0
 18 39  1  0  0  0  0
M  END
> <s_m_source_file>
AV-unprocessed.smi

> <i_m_source_file_index>
2587

> <i_lp_mmshare_version>
43012

> <i_f3d_flags>
0

> <s_epik_input>
W0NIMl09W0NIXVtDSDJdTihbQ0gyXVtDSDJdW09IXSljMVtjSF1jKG5bY0hdbjEpTjJbQ0gyXVtDSDJdT1tDSDJdW0NIMl0y

> <s_epik_cmdline>
J2VwaWtfcHl0aG9uJywgJy1waCcsICc3LjAnLCAnLXRuJywgJzgnLCAnLW1hJywgJzIwMCcsICctbWV0YWxfYmluZGluZycsICctaW1hZScsICc8aW5maWxlLm1hZT4nLCAnLW9tYWUnLCAnPG91dGZpbGUubWFlPic=

> <r_lp_tautomer_probability>
1

> <r_epik_Ionization_Penalty>
0.00218234

> <r_epik_Ionization_Penalty_Charging>
0

> <r_epik_Ionization_Penalty_Neutral>
0.00218234

> <r_epik_State_Penalty>
0.00992355

> <r_epik_Charging_Adjusted_Penalty>
0.00992355

> <i_epik_Tot_Q>
0

> <i_epik_Tot_abs_Q>
0

> <r_epik_Metal_State_Penalty>
0.00985368

> <b_epik_Metal_Only>
0

> <s_lp_Force_Field>
OPLS_2005

> <r_lp_Energy>
11.4622

> <b_lp_Chiralities_Consistent>
1

> <s_lp_Variant>
AV-unprocessed.smi:2587-1

> <Gold.Version>
5.8.1

> <Gold.Id.Protein>
6NUR|6NUR_protein|mol2

> <Gold.PLP.Fitness>
47.6730

> <Gold.PLP.PLP>
-44.3346

> <Gold.PLP.part.hbond>
-4.7996

> <Gold.PLP.part.metal>
0.0000

> <Gold.PLP.part.buried>
-2.7106

> <Gold.PLP.part.nonpolar>
-36.0724

> <Gold.PLP.part.repulsive>
0.1440

> <Gold.PLP.ligand.clash>
0.0126

> <Gold.PLP.ligand.torsion>
1.6723

> <Gold.PLP.Chemscore.Hbond>
2.0338

> <Gold.PLP.Chemscore.CHOScore>
0.0000

> <Gold.PLP.Chemscore.Metal>
0.0000

> <Gold.Chemscore.Hbonds>
donor molecule, donor type, donor heavy atom, donor atom, acceptor molecule, acceptor atom, score
      L1  H     7    29       P1  7948  0.68
      P1  H  7997  8009       L1    17  1.00

> <Gold.PLP.Chemscore.Internal.Correction>
0.5943

> <Gold.Rescore>
     Score         DG    S(hbond)    S(metal)    S(lipo)     H(rot)  DE(clash)    DE(int)     intcor
     12.52     -14.43       1.92        0.00      76.57       2.51       0.13       1.79       ----

> <Gold.Chemscore.Fitness>
12.5211

> <Gold.Chemscore.DG>
-14.4327

> <Gold.Chemscore.ZeroCoef>
-5.4800

> <Gold.Chemscore.Hbond>
1.9239

> <Gold.Chemscore.Metal>
0.0000

> <Gold.Chemscore.Lipo>
76.5682

> <Gold.Chemscore.Internal_Hbond>
0.0000

> <Gold.Chemscore.DEClash>
0.1263

> <Gold.Chemscore.DEInternal>
1.7853

> <Gold.Chemscore.Rot>
2.5123

> <Gold.Chemscore.Internal.Correction>
   9.000000E+99

> <Gold.Chemscore.Hbonds>
donor molecule, donor type, donor heavy atom, donor atom, acceptor molecule, acceptor atom, score
      L1  H     7    29       P1  7948  0.69
      P1  H  7997  8009       L1    17  0.87

> <Gold.Chemscore.Hbond.Weighted>
-6.4257

> <Gold.Chemscore.Metal.Weighted>
-0.0000

> <Gold.Chemscore.Lipo.Weighted>
-8.9585

> <Gold.Chemscore.Internal_Hbond.Weighted>
0.0000

> <Gold.Chemscore.DEClash.Weighted>
0.1263

> <Gold.Chemscore.DEInternal.Weighted>
1.7853

> <Gold.Chemscore.Rot.Weighted>
6.4315

> <Gold.Chemscore.Internal.Correction.Weighted>
   9.000000E+99

> <Gold.Protein.RotatedTorsions>
[ 6907 6896 6895 6894 ] final  124.05 input  -60.11 | X-H torsion
[ 7974 7965 7964 7962 ] final  -20.65 input  175.53 | X-H torsion
[ 8008 7997 7996 7995 ] final -164.97 input   59.86 | X-H torsion
[ 10167 10162 10161 10158 ] final -112.50 input  -65.29 | X-H torsion
[ 10718 10713 10712 10709 ] final  148.64 input   66.30 | X-H torsion
[ 10763 10752 10751 10750 ] final -160.58 input  -60.55 | X-H torsion
[ 11005 11000 10999 10996 ] final -164.22 input  -57.11 | X-H torsion

> <Gold.Protein.ActiveResidues>
 VAL166  LYS551  ARG553  GLY616  TRP617  ASP618  TYR619  PRO620  LYS621  CYS622 
 ASP623  PHE694  ASN695  SER759  ASP760  ASP761  ALA762  ILE779  LEU786  VAL792 
 PHE793  MET794  SER795  GLU796  ALA797  LYS798  CYS799  TRP800  GLU811  SER814 

> <Gold.Protein.RotatedAtoms>
  152.4111  133.6965  159.6398 H   0  0  0  0  0  0  0  0  0  0  0  0  # atno 6907 bound_to 6896
  150.7991  133.8622  159.3244 H   0  0  0  0  0  0  0  0  0  0  0  0  # atno 6908 bound_to 6896
  151.6364  135.1019  160.0184 H   0  0  0  0  0  0  0  0  0  0  0  0  # atno 6909 bound_to 6896
  146.1776  140.4232  142.8507 H   0  0  0  0  0  0  0  0  0  0  0  0  # atno 7974 bound_to 7965
  155.8432  140.0951  157.1721 H   0  0  0  0  0  0  0  0  0  0  0  0  # atno 8008 bound_to 7997
  154.3982  140.1397  156.3815 H   0  0  0  0  0  0  0  0  0  0  0  0  # atno 8009 bound_to 7997
  155.8041  140.3452  155.5422 H   0  0  0  0  0  0  0  0  0  0  0  0  # atno 8010 bound_to 7997
  140.1220  143.4435  152.1684 H   0  0  0  0  0  0  0  0  0  0  0  0  # atno 10167 bound_to 10162
  157.3061  131.0879  151.1353 H   0  0  0  0  0  0  0  0  0  0  0  0  # atno 10718 bound_to 10713
  154.7378  135.3061  154.8781 H   0  0  0  0  0  0  0  0  0  0  0  0  # atno 10763 bound_to 10752
  153.9605  135.6753  153.4749 H   0  0  0  0  0  0  0  0  0  0  0  0  # atno 10764 bound_to 10752
  153.0979  135.4926  154.8736 H   0  0  0  0  0  0  0  0  0  0  0  0  # atno 10765 bound_to 10752
  140.5893  134.5061  157.5190 H   0  0  0  0  0  0  0  0  0  0  0  0  # atno 11005 bound_to 11000
  144.8262  140.6632  143.6320 LP  0  0  0  0  0  0  0  0  0  0  0  0  # atno 17320 bound_to 7965
  145.4167  139.1571  143.4096 LP  0  0  0  0  0  0  0  0  0  0  0  0  # atno 17321 bound_to 7965
  139.5564  144.7375  151.4283 LP  0  0  0  0  0  0  0  0  0  0  0  0  # atno 17342 bound_to 10162
  140.6866  143.7958  150.7195 LP  0  0  0  0  0  0  0  0  0  0  0  0  # atno 17343 bound_to 10162
  157.2693  130.6696  149.6012 LP  0  0  0  0  0  0  0  0  0  0  0  0  # atno 17370 bound_to 10713
  155.9674  130.4484  150.5618 LP  0  0  0  0  0  0  0  0  0  0  0  0  # atno 17371 bound_to 10713
  139.9281  134.8016  156.1009 LP  0  0  0  0  0  0  0  0  0  0  0  0  # atno 17394 bound_to 11000
  141.0945  133.6701  156.2615 LP  0  0  0  0  0  0  0  0  0  0  0  0  # atno 17395 bound_to 11000

$$$$
