AV-unprocessed.smi:2100|AV-procd|sdf|8573|dock3
  -GOLD-   2272011303D 1   1.00000     0.00000
 Structure written by MMmdl.
 41 42  0  0  0  0  0  0  0  0  1 V2000
  146.8267  138.7776  152.6863 C   0  0  0  0  0  0  0  0  0  0  0  0
  147.3319  139.9950  153.4682 C   0  0  2  0  0  0  0  0  0  0  0  0
  148.5365  139.6455  154.3586 C   0  0  0  0  0  0  0  0  0  0  0  0
  148.9197  140.7932  155.1962 N   0  0  0  0  0  0  0  0  0  0  0  0
  150.4499  140.7201  156.0012 S   0  0  0  0  0  0  0  0  0  0  0  0
  150.3073  139.9136  157.2231 O   0  0  0  0  0  0  0  0  0  0  0  0
  151.4888  140.4091  155.0075 O   0  0  0  0  0  0  0  0  0  0  0  0
  150.6018  142.3747  156.4708 N   0  0  0  0  0  0  0  0  0  0  0  0
  150.5027  142.7445  157.8838 C   0  0  0  0  0  0  0  0  0  0  0  0
  151.6952  143.6071  158.3270 C   0  0  0  0  0  0  0  0  0  0  0  0
  152.2465  143.1697  159.6708 C   0  0  0  0  0  0  0  0  0  0  0  0
  152.0497  143.9600  160.8234 C   0  0  0  0  0  0  0  0  0  0  0  0
  152.5749  143.5028  162.0477 C   0  0  0  0  0  0  0  0  0  0  0  0
  153.2712  142.2791  162.0725 C   0  0  0  0  0  0  0  0  0  0  0  0
  153.4124  141.5638  160.8665 C   0  0  0  0  0  0  0  0  0  0  0  0
  152.9131  141.9932  159.6876 N   0  0  0  0  0  0  0  0  0  0  0  0
  147.7915  141.3484  155.9598 C   0  0  0  0  0  0  0  0  0  0  0  0
  146.5747  141.6233  155.0552 C   0  0  1  0  0  0  0  0  0  0  0  0
  146.7298  142.8896  154.1937 C   0  0  0  0  0  0  0  0  0  0  0  0
  146.2600  140.4747  154.2716 O   0  0  0  0  0  0  0  0  0  0  0  0
  147.6075  138.3725  152.0421 H   0  0  0  0  0  0  0  0  0  0  0  0
  145.9803  139.0457  152.0535 H   0  0  0  0  0  0  0  0  0  0  0  0
  146.5013  137.9833  153.3587 H   0  0  0  0  0  0  0  0  0  0  0  0
  147.6225  140.7581  152.7460 H   0  0  0  0  0  0  0  0  0  0  0  0
  148.2981  138.8018  155.0079 H   0  0  0  0  0  0  0  0  0  0  0  0
  149.3770  139.3387  153.7366 H   0  0  0  0  0  0  0  0  0  0  0  0
  150.0865  143.0016  155.8532 H   0  0  0  0  0  0  0  0  0  0  0  0
  149.5748  143.2985  158.0284 H   0  0  0  0  0  0  0  0  0  0  0  0
  150.4303  141.8399  158.4889 H   0  0  0  0  0  0  0  0  0  0  0  0
  152.5003  143.5531  157.5935 H   0  0  0  0  0  0  0  0  0  0  0  0
  151.3988  144.6557  158.3820 H   0  0  0  0  0  0  0  0  0  0  0  0
  151.5085  144.8935  160.7731 H   0  0  0  0  0  0  0  0  0  0  0  0
  152.4451  144.0800  162.9513 H   0  0  0  0  0  0  0  0  0  0  0  0
  153.6870  141.8973  162.9931 H   0  0  0  0  0  0  0  0  0  0  0  0
  153.9403  140.6218  160.8483 H   0  0  0  0  0  0  0  0  0  0  0  0
  147.5198  140.6352  156.7392 H   0  0  0  0  0  0  0  0  0  0  0  0
  148.0970  142.2646  156.4654 H   0  0  0  0  0  0  0  0  0  0  0  0
  145.7131  141.7894  155.7025 H   0  0  0  0  0  0  0  0  0  0  0  0
  146.8164  143.7759  154.8228 H   0  0  0  0  0  0  0  0  0  0  0  0
  145.8635  143.0288  153.5465 H   0  0  0  0  0  0  0  0  0  0  0  0
  147.6182  142.8550  153.5637 H   0  0  0  0  0  0  0  0  0  0  0  0
  1  2  1  0  0  0  0
  1 21  1  0  0  0  0
  1 22  1  0  0  0  0
  1 23  1  0  0  0  0
  2 20  1  0  0  0  0
  2  3  1  0  0  0  0
  2 24  1  0  0  0  0
  3  4  1  0  0  0  0
  3 25  1  0  0  0  0
  3 26  1  0  0  0  0
  4  5  1  0  0  0  0
  4 17  1  0  0  0  0
  5  6  2  0  0  0  0
  5  7  2  0  0  0  0
  5  8  1  0  0  0  0
  8  9  1  0  0  0  0
  8 27  1  0  0  0  0
  9 10  1  0  0  0  0
  9 28  1  0  0  0  0
  9 29  1  0  0  0  0
 10 11  1  0  0  0  0
 10 30  1  0  0  0  0
 10 31  1  0  0  0  0
 11 16  1  0  0  0  0
 11 12  2  0  0  0  0
 12 13  1  0  0  0  0
 12 32  1  0  0  0  0
 13 14  2  0  0  0  0
 13 33  1  0  0  0  0
 14 15  1  0  0  0  0
 14 34  1  0  0  0  0
 15 16  2  0  0  0  0
 15 35  1  0  0  0  0
 17 18  1  0  0  0  0
 17 36  1  0  0  0  0
 17 37  1  0  0  0  0
 18 19  1  0  0  0  0
 18 20  1  0  0  0  0
 18 38  1  0  0  0  0
 19 39  1  0  0  0  0
 19 40  1  0  0  0  0
 19 41  1  0  0  0  0
M  END
> <s_m_source_file>
AV-unprocessed.smi

> <i_m_source_file_index>
2100

> <i_lp_mmshare_version>
43012

> <i_f3d_flags>
0

> <s_epik_input>
W0NIM11bQ0BASF0xW0NIMl1OKFtDSDJdW0NASF0oTzEpW0NIM10pUyg9TykoPU8pW05IXVtDSDJdW0NIMl1jMltjSF1bY0hdW2NIXVtjSF1uMg==

> <s_epik_cmdline>
J2VwaWtfcHl0aG9uJywgJy1waCcsICc3LjAnLCAnLXRuJywgJzgnLCAnLW1hJywgJzIwMCcsICctbWV0YWxfYmluZGluZycsICctaW1hZScsICc8aW5maWxlLm1hZT4nLCAnLW9tYWUnLCAnPG91dGZpbGUubWFlPic=

> <r_epik_Ionization_Penalty>
0.085378

> <r_epik_Ionization_Penalty_Charging>
0

> <r_epik_Ionization_Penalty_Neutral>
0.085378

> <r_epik_State_Penalty>
0.0441186

> <r_epik_Charging_Adjusted_Penalty>
0.0441186

> <i_epik_Tot_Q>
0

> <i_epik_Tot_abs_Q>
0

> <r_epik_Metal_State_Penalty>
0.24397

> <b_epik_Metal_Only>
0

> <s_lp_Force_Field>
OPLS_2005

> <r_lp_Energy>
7.96462

> <b_lp_Chiralities_Consistent>
1

> <s_lp_Variant>
AV-unprocessed.smi:2100-1

> <Gold.Version>
5.8.1

> <Gold.Id.Protein>
6NUR|6NUR_protein|mol2

> <Gold.PLP.Fitness>
46.2930

> <Gold.PLP.PLP>
-42.6940

> <Gold.PLP.part.hbond>
-1.8718

> <Gold.PLP.part.metal>
0.0000

> <Gold.PLP.part.buried>
-4.8976

> <Gold.PLP.part.nonpolar>
-36.2868

> <Gold.PLP.part.repulsive>
0.2856

> <Gold.PLP.ligand.clash>
0.0000

> <Gold.PLP.ligand.torsion>
1.2833

> <Gold.PLP.Chemscore.Hbond>
1.8080

> <Gold.PLP.Chemscore.CHOScore>
0.0000

> <Gold.PLP.Chemscore.Metal>
0.0000

> <Gold.Chemscore.Hbonds>
donor molecule, donor type, donor heavy atom, donor atom, acceptor molecule, acceptor atom, score
      L1  H     8    27       P1  8028  0.78
      P1  H  7989  7998       L1     7  0.94

> <Gold.PLP.Chemscore.Internal.Correction>
0.7415

> <Gold.Rescore>
     Score         DG    S(hbond)    S(metal)    S(lipo)     H(rot)  DE(clash)    DE(int)     intcor
     18.43     -19.87       1.81        0.00     108.72       1.71       0.18       1.25       ----

> <Gold.Chemscore.Fitness>
18.4338

> <Gold.Chemscore.DG>
-19.8721

> <Gold.Chemscore.ZeroCoef>
-5.4800

> <Gold.Chemscore.Hbond>
1.8080

> <Gold.Chemscore.Metal>
0.0000

> <Gold.Chemscore.Lipo>
108.7236

> <Gold.Chemscore.Internal_Hbond>
0.0000

> <Gold.Chemscore.DEClash>
0.1836

> <Gold.Chemscore.DEInternal>
1.2547

> <Gold.Chemscore.Rot>
1.7060

> <Gold.Chemscore.Internal.Correction>
   9.000000E+99

> <Gold.Chemscore.Hbonds>
donor molecule, donor type, donor heavy atom, donor atom, acceptor molecule, acceptor atom, score
      L1  H     8    27       P1  8028  0.74
      P1  H  7989  7998       L1     7  0.89

> <Gold.Chemscore.Hbond.Weighted>
-6.0388

> <Gold.Chemscore.Metal.Weighted>
-0.0000

> <Gold.Chemscore.Lipo.Weighted>
-12.7207

> <Gold.Chemscore.Internal_Hbond.Weighted>
0.0000

> <Gold.Chemscore.DEClash.Weighted>
0.1836

> <Gold.Chemscore.DEInternal.Weighted>
1.2547

> <Gold.Chemscore.Rot.Weighted>
4.3674

> <Gold.Chemscore.Internal.Correction.Weighted>
   9.000000E+99

> <Gold.Protein.RotatedTorsions>
[ 6907 6896 6895 6894 ] final   56.27 input  -60.11 | X-H torsion
[ 7974 7965 7964 7962 ] final  108.75 input  175.53 | X-H torsion
[ 8008 7997 7996 7995 ] final -147.12 input   59.86 | X-H torsion
[ 10167 10162 10161 10158 ] final -125.21 input  -65.29 | X-H torsion
[ 10718 10713 10712 10709 ] final  176.02 input   66.30 | X-H torsion
[ 10763 10752 10751 10750 ] final   43.79 input  -60.55 | X-H torsion
[ 11005 11000 10999 10996 ] final -102.72 input  -57.11 | X-H torsion

> <Gold.Protein.ActiveResidues>
 VAL166  LYS551  ARG553  GLY616  TRP617  ASP618  TYR619  PRO620  LYS621  CYS622 
 ASP623  PHE694  ASN695  SER759  ASP760  ASP761  ALA762  ILE779  LEU786  VAL792 
 PHE793  MET794  SER795  GLU796  ALA797  LYS798  CYS799  TRP800  GLU811  SER814 

> <Gold.Protein.RotatedAtoms>
  152.3620  134.6858  160.0203 H   0  0  0  0  0  0  0  0  0  0  0  0  # atno 6907 bound_to 6896
  151.7178  133.3308  159.3315 H   0  0  0  0  0  0  0  0  0  0  0  0  # atno 6908 bound_to 6896
  150.7611  134.6409  159.6281 H   0  0  0  0  0  0  0  0  0  0  0  0  # atno 6909 bound_to 6896
  145.2766  139.2647  143.3938 H   0  0  0  0  0  0  0  0  0  0  0  0  # atno 7974 bound_to 7965
  155.5704  140.0634  157.2808 H   0  0  0  0  0  0  0  0  0  0  0  0  # atno 8008 bound_to 7997
  154.4362  140.1870  156.0919 H   0  0  0  0  0  0  0  0  0  0  0  0  # atno 8009 bound_to 7997
  156.0380  140.3299  155.7216 H   0  0  0  0  0  0  0  0  0  0  0  0  # atno 8010 bound_to 7997
  139.9846  143.5706  152.2365 H   0  0  0  0  0  0  0  0  0  0  0  0  # atno 10167 bound_to 10162
  156.9262  130.9956  151.2995 H   0  0  0  0  0  0  0  0  0  0  0  0  # atno 10718 bound_to 10713
  152.9853  135.6090  154.3168 H   0  0  0  0  0  0  0  0  0  0  0  0  # atno 10763 bound_to 10752
  154.2880  135.2775  155.2669 H   0  0  0  0  0  0  0  0  0  0  0  0  # atno 10764 bound_to 10752
  154.4977  135.5875  153.6564 H   0  0  0  0  0  0  0  0  0  0  0  0  # atno 10765 bound_to 10752
  141.1177  133.8582  157.1396 H   0  0  0  0  0  0  0  0  0  0  0  0  # atno 11005 bound_to 11000
  146.3229  140.3223  142.8634 LP  0  0  0  0  0  0  0  0  0  0  0  0  # atno 17320 bound_to 7965
  144.9289  140.7952  143.5702 LP  0  0  0  0  0  0  0  0  0  0  0  0  # atno 17321 bound_to 7965
  139.6385  144.7652  151.2389 LP  0  0  0  0  0  0  0  0  0  0  0  0  # atno 17342 bound_to 10162
  140.7477  143.6358  150.8381 LP  0  0  0  0  0  0  0  0  0  0  0  0  # atno 17343 bound_to 10162
  157.5876  130.8420  149.8612 LP  0  0  0  0  0  0  0  0  0  0  0  0  # atno 17370 bound_to 10713
  156.0468  130.3726  150.1298 LP  0  0  0  0  0  0  0  0  0  0  0  0  # atno 17371 bound_to 10713
  140.0110  134.9988  157.0396 LP  0  0  0  0  0  0  0  0  0  0  0  0  # atno 17394 bound_to 11000
  140.4599  134.1495  155.7190 LP  0  0  0  0  0  0  0  0  0  0  0  0  # atno 17395 bound_to 11000

$$$$
