AV-unprocessed.smi:1247|AV-procd|sdf|5245|dock2
  -GOLD-   22720 4353D 1   1.00000     0.00000
 Structure written by MMmdl.
 46 47  0  0  0  0  0  0  0  0  1 V2000
  153.8067  142.6112  163.2992 C   0  0  0  0  0  0  0  0  0  0  0  0
  153.0700  142.7690  162.0021 C   0  0  0  0  0  0  0  0  0  0  0  0
  152.9738  141.8370  160.9285 C   0  0  0  0  0  0  0  0  0  0  0  0
  152.1953  142.5014  160.0201 C   0  0  0  0  0  0  0  0  0  0  0  0
  151.7774  142.0899  158.7931 N   0  0  0  0  0  0  0  0  0  0  0  0
  152.2748  141.1071  158.0218 C   0  0  0  0  0  0  0  0  0  0  0  0
  153.2249  140.3809  158.3146 O   0  0  0  0  0  0  0  0  0  0  0  0
  151.6023  141.0097  156.8657 N   0  0  0  0  0  0  0  0  0  0  0  0
  151.9001  140.0538  155.8054 C   0  0  0  0  0  0  0  0  0  0  0  0
  150.9515  140.2352  154.6054 C   0  0  0  0  0  0  0  0  0  0  0  0
  149.5280  140.1475  154.9250 N   0  0  0  0  0  0  0  0  0  0  0  0
  148.7686  141.2958  154.4396 C   0  0  0  0  0  0  0  0  0  0  0  0
  147.2745  141.1896  154.7975 C   0  0  1  0  0  0  0  0  0  0  0  0
  146.4564  142.3449  154.2113 C   0  0  0  0  0  0  0  0  0  0  0  0
  146.7457  139.9685  154.2839 O   0  0  0  0  0  0  0  0  0  0  0  0
  147.4431  138.7879  154.6838 C   0  0  2  0  0  0  0  0  0  0  0  0
  147.1534  138.4211  156.1492 C   0  0  0  0  0  0  0  0  0  0  0  0
  148.9467  138.9275  154.3741 C   0  0  0  0  0  0  0  0  0  0  0  0
  151.8612  143.7339  160.5393 N   0  0  0  0  0  0  0  0  0  0  0  0
  151.0648  144.8024  159.9675 C   0  0  0  0  0  0  0  0  0  0  0  0
  152.4074  143.8949  161.7638 N   0  0  0  0  0  0  0  0  0  0  0  0
  154.2679  141.6262  163.3733 H   0  0  0  0  0  0  0  0  0  0  0  0
  153.1349  142.7270  164.1501 H   0  0  0  0  0  0  0  0  0  0  0  0
  154.5978  143.3554  163.3939 H   0  0  0  0  0  0  0  0  0  0  0  0
  153.4124  140.8531  160.8582 H   0  0  0  0  0  0  0  0  0  0  0  0
  150.9947  142.6009  158.4121 H   0  0  0  0  0  0  0  0  0  0  0  0
  150.8331  141.6432  156.7048 H   0  0  0  0  0  0  0  0  0  0  0  0
  152.9400  140.1573  155.4904 H   0  0  0  0  0  0  0  0  0  0  0  0
  151.8006  139.0555  156.2306 H   0  0  0  0  0  0  0  0  0  0  0  0
  151.1614  141.1861  154.1136 H   0  0  0  0  0  0  0  0  0  0  0  0
  151.1882  139.4625  153.8726 H   0  0  0  0  0  0  0  0  0  0  0  0
  149.1610  142.2166  154.8698 H   0  0  0  0  0  0  0  0  0  0  0  0
  148.8810  141.3824  153.3577 H   0  0  0  0  0  0  0  0  0  0  0  0
  147.1588  141.2057  155.8817 H   0  0  0  0  0  0  0  0  0  0  0  0
  146.8088  143.3060  154.5866 H   0  0  0  0  0  0  0  0  0  0  0  0
  145.4035  142.2502  154.4780 H   0  0  0  0  0  0  0  0  0  0  0  0
  146.5237  142.3641  153.1230 H   0  0  0  0  0  0  0  0  0  0  0  0
  147.0492  137.9773  154.0702 H   0  0  0  0  0  0  0  0  0  0  0  0
  147.6016  137.4603  156.4036 H   0  0  0  0  0  0  0  0  0  0  0  0
  146.0805  138.3423  156.3255 H   0  0  0  0  0  0  0  0  0  0  0  0
  147.5531  139.1596  156.8437 H   0  0  0  0  0  0  0  0  0  0  0  0
  149.0842  138.9192  153.2916 H   0  0  0  0  0  0  0  0  0  0  0  0
  149.4781  138.0547  154.7558 H   0  0  0  0  0  0  0  0  0  0  0  0
  150.4093  144.4141  159.1880 H   0  0  0  0  0  0  0  0  0  0  0  0
  151.7232  145.5569  159.5361 H   0  0  0  0  0  0  0  0  0  0  0  0
  150.4502  145.2649  160.7407 H   0  0  0  0  0  0  0  0  0  0  0  0
  1  2  1  0  0  0  0
  1 22  1  0  0  0  0
  1 23  1  0  0  0  0
  1 24  1  0  0  0  0
  2 21  2  0  0  0  0
  2  3  1  0  0  0  0
  3  4  2  0  0  0  0
  3 25  1  0  0  0  0
  4  5  1  0  0  0  0
  4 19  1  0  0  0  0
  5  6  1  0  0  0  0
  5 26  1  0  0  0  0
  6  7  2  0  0  0  0
  6  8  1  0  0  0  0
  8  9  1  0  0  0  0
  8 27  1  0  0  0  0
  9 10  1  0  0  0  0
  9 28  1  0  0  0  0
  9 29  1  0  0  0  0
 10 11  1  0  0  0  0
 10 30  1  0  0  0  0
 10 31  1  0  0  0  0
 11 18  1  0  0  0  0
 11 12  1  0  0  0  0
 12 13  1  0  0  0  0
 12 32  1  0  0  0  0
 12 33  1  0  0  0  0
 13 14  1  0  0  0  0
 13 15  1  0  0  0  0
 13 34  1  0  0  0  0
 14 35  1  0  0  0  0
 14 36  1  0  0  0  0
 14 37  1  0  0  0  0
 15 16  1  0  0  0  0
 16 17  1  0  0  0  0
 16 18  1  0  0  0  0
 16 38  1  0  0  0  0
 17 39  1  0  0  0  0
 17 40  1  0  0  0  0
 17 41  1  0  0  0  0
 18 42  1  0  0  0  0
 18 43  1  0  0  0  0
 19 20  1  0  0  0  0
 19 21  1  0  0  0  0
 20 44  1  0  0  0  0
 20 45  1  0  0  0  0
 20 46  1  0  0  0  0
M  END
> <s_m_source_file>
AV-unprocessed.smi

> <i_m_source_file_index>
1247

> <i_lp_mmshare_version>
43012

> <i_f3d_flags>
0

> <s_epik_input>
W0NIM11jMVtjSF1jKG4objEpW0NIM10pW05IXUMoPU8pW05IXVtDSDJdW0NIMl1OMltDSDJdW0NAQEhdKFtDSDNdKU9bQ0BASF0oW0NIM10pW0NIMl0y

> <s_epik_cmdline>
J2VwaWtfcHl0aG9uJywgJy1waCcsICc3LjAnLCAnLXRuJywgJzgnLCAnLW1hJywgJzIwMCcsICctbWV0YWxfYmluZGluZycsICctaW1hZScsICc8aW5maWxlLm1hZT4nLCAnLW9tYWUnLCAnPG91dGZpbGUubWFlPic=

> <r_lp_tautomer_probability>
1

> <r_epik_Ionization_Penalty>
0.233972

> <r_epik_Ionization_Penalty_Charging>
0

> <r_epik_Ionization_Penalty_Neutral>
0.233972

> <r_epik_State_Penalty>
0.224627

> <r_epik_Charging_Adjusted_Penalty>
0.224627

> <i_epik_Tot_Q>
0

> <i_epik_Tot_abs_Q>
0

> <r_epik_Metal_State_Penalty>
0.224624

> <b_epik_Metal_Only>
0

> <s_lp_Force_Field>
OPLS_2005

> <r_lp_Energy>
23.3755

> <b_lp_Chiralities_Consistent>
1

> <s_lp_Variant>
AV-unprocessed.smi:1247-3

> <Gold.Version>
5.8.1

> <Gold.Id.Protein>
6NUR|6NUR_protein|mol2

> <Gold.PLP.Fitness>
41.7697

> <Gold.PLP.PLP>
-40.5098

> <Gold.PLP.part.hbond>
-1.0000

> <Gold.PLP.part.metal>
0.0000

> <Gold.PLP.part.buried>
-0.6230

> <Gold.PLP.part.nonpolar>
-37.4162

> <Gold.PLP.part.repulsive>
0.5449

> <Gold.PLP.ligand.clash>
0.0000

> <Gold.PLP.ligand.torsion>
0.7926

> <Gold.PLP.Chemscore.Hbond>
0.9357

> <Gold.PLP.Chemscore.CHOScore>
0.0000

> <Gold.PLP.Chemscore.Metal>
0.0000

> <Gold.Chemscore.Hbonds>
donor molecule, donor type, donor heavy atom, donor atom, acceptor molecule, acceptor atom, score
      P1  H  7997  8008       L1     7  0.86

> <Gold.PLP.Chemscore.Internal.Correction>
0.0379

> <Gold.Rescore>
     Score         DG    S(hbond)    S(metal)    S(lipo)     H(rot)  DE(clash)    DE(int)     intcor
     11.36     -14.82       0.86        0.00      87.67       1.48       1.69       1.77       ----

> <Gold.Chemscore.Fitness>
11.3580

> <Gold.Chemscore.DG>
-14.8228

> <Gold.Chemscore.ZeroCoef>
-5.4800

> <Gold.Chemscore.Hbond>
0.8636

> <Gold.Chemscore.Metal>
0.0000

> <Gold.Chemscore.Lipo>
87.6663

> <Gold.Chemscore.Internal_Hbond>
0.0000

> <Gold.Chemscore.DEClash>
1.6907

> <Gold.Chemscore.DEInternal>
1.7741

> <Gold.Chemscore.Rot>
1.4838

> <Gold.Chemscore.Internal.Correction>
   9.000000E+99

> <Gold.Chemscore.Hbonds>
donor molecule, donor type, donor heavy atom, donor atom, acceptor molecule, acceptor atom, score
      P1  H  7997  8008       L1     7  0.82

> <Gold.Chemscore.Hbond.Weighted>
-2.8844

> <Gold.Chemscore.Metal.Weighted>
-0.0000

> <Gold.Chemscore.Lipo.Weighted>
-10.2570

> <Gold.Chemscore.Internal_Hbond.Weighted>
0.0000

> <Gold.Chemscore.DEClash.Weighted>
1.6907

> <Gold.Chemscore.DEInternal.Weighted>
1.7741

> <Gold.Chemscore.Rot.Weighted>
3.7985

> <Gold.Chemscore.Internal.Correction.Weighted>
   9.000000E+99

> <Gold.Protein.RotatedTorsions>
[ 6907 6896 6895 6894 ] final   -1.15 input  -60.11 | X-H torsion
[ 7974 7965 7964 7962 ] final  136.54 input  175.53 | X-H torsion
[ 8008 7997 7996 7995 ] final  -85.25 input   59.86 | X-H torsion
[ 10167 10162 10161 10158 ] final  -66.59 input  -65.29 | X-H torsion
[ 10718 10713 10712 10709 ] final    3.26 input   66.30 | X-H torsion
[ 10763 10752 10751 10750 ] final -107.50 input  -60.55 | X-H torsion
[ 11005 11000 10999 10996 ] final   68.70 input  -57.11 | X-H torsion

> <Gold.Protein.ActiveResidues>
 VAL166  LYS551  ARG553  GLY616  TRP617  ASP618  TYR619  PRO620  LYS621  CYS622 
 ASP623  PHE694  ASN695  SER759  ASP760  ASP761  ALA762  ILE779  LEU786  VAL792 
 PHE793  MET794  SER795  GLU796  ALA797  LYS798  CYS799  TRP800  GLU811  SER814 

> <Gold.Protein.RotatedAtoms>
  151.5507  135.1067  159.9948 H   0  0  0  0  0  0  0  0  0  0  0  0  # atno 6907 bound_to 6896
  152.4493  133.7593  159.6748 H   0  0  0  0  0  0  0  0  0  0  0  0  # atno 6908 bound_to 6896
  150.8416  133.7859  159.3083 H   0  0  0  0  0  0  0  0  0  0  0  0  # atno 6909 bound_to 6896
  144.9555  139.4770  143.5505 H   0  0  0  0  0  0  0  0  0  0  0  0  # atno 7974 bound_to 7965
  154.6387  140.0594  156.9819 H   0  0  0  0  0  0  0  0  0  0  0  0  # atno 8008 bound_to 7997
  155.1551  140.3277  155.4404 H   0  0  0  0  0  0  0  0  0  0  0  0  # atno 8009 bound_to 7997
  156.2520  140.1940  156.6661 H   0  0  0  0  0  0  0  0  0  0  0  0  # atno 8010 bound_to 7997
  140.5646  143.2314  151.6661 H   0  0  0  0  0  0  0  0  0  0  0  0  # atno 10167 bound_to 10162
  156.8751  130.5634  149.5655 H   0  0  0  0  0  0  0  0  0  0  0  0  # atno 10718 bound_to 10713
  154.8079  135.4673  154.0439 H   0  0  0  0  0  0  0  0  0  0  0  0  # atno 10763 bound_to 10752
  153.1893  135.6852  153.8380 H   0  0  0  0  0  0  0  0  0  0  0  0  # atno 10764 bound_to 10752
  153.7903  135.3244  155.3355 H   0  0  0  0  0  0  0  0  0  0  0  0  # atno 10765 bound_to 10752
  139.9696  134.6923  156.0474 H   0  0  0  0  0  0  0  0  0  0  0  0  # atno 11005 bound_to 11000
  146.3335  139.8669  142.8846 LP  0  0  0  0  0  0  0  0  0  0  0  0  # atno 17320 bound_to 7965
  145.2779  141.0129  143.3734 LP  0  0  0  0  0  0  0  0  0  0  0  0  # atno 17321 bound_to 7965
  139.5086  144.3604  152.0567 LP  0  0  0  0  0  0  0  0  0  0  0  0  # atno 17342 bound_to 10162
  140.2734  144.3939  150.6143 LP  0  0  0  0  0  0  0  0  0  0  0  0  # atno 17343 bound_to 10162
  156.0706  130.5740  150.9376 LP  0  0  0  0  0  0  0  0  0  0  0  0  # atno 17370 bound_to 10713
  157.6173  131.0932  150.8687 LP  0  0  0  0  0  0  0  0  0  0  0  0  # atno 17371 bound_to 10713
  141.1376  133.6571  156.3637 LP  0  0  0  0  0  0  0  0  0  0  0  0  # atno 17394 bound_to 11000
  140.5322  134.6202  157.5353 LP  0  0  0  0  0  0  0  0  0  0  0  0  # atno 17395 bound_to 11000

$$$$
