AV-unprocessed.smi:3299|AV-procd|sdf|12649|dock10
  -GOLD-   2272018583D 1   1.00000     0.00000
 Structure written by MMmdl.
 34 35  0  0  0  0  0  0  0  0  1 V2000
  152.8880  142.8071  162.1481 C   0  0  0  0  0  0  0  0  0  0  0  0
  152.3391  143.4145  160.8955 C   0  0  0  0  0  0  0  0  0  0  0  0
  153.0213  143.6524  159.7267 C   0  0  0  0  0  0  0  0  0  0  0  0
  152.0037  144.3770  158.5113 S   0  0  0  0  0  0  0  0  0  0  0  0
  150.6672  144.3273  159.6627 C   0  0  0  0  0  0  0  0  0  0  0  0
  149.3376  144.7714  159.4575 N   0  0  0  0  0  0  0  0  0  0  0  0
  148.3168  144.7424  160.3293 C   0  0  0  0  0  0  0  0  0  0  0  0
  148.3821  144.3221  161.4841 O   0  0  0  0  0  0  0  0  0  0  0  0
  147.1964  145.2332  159.7755 N   0  0  0  0  0  0  0  0  0  0  0  0
  145.8828  145.3650  160.4098 C   0  0  1  0  0  0  0  0  0  0  0  0
  144.9154  146.2345  159.5745 C   0  0  0  0  0  0  0  0  0  0  0  0
  145.3650  147.6965  159.4164 C   0  0  0  0  0  0  0  0  0  0  0  0
  146.7272  147.7412  159.0496 O   0  0  0  0  0  0  0  0  0  0  0  0
  145.2402  144.0427  160.8027 C   0  0  0  0  0  0  0  0  0  0  0  0
  144.5268  143.8887  162.1246 C   0  0  0  0  0  0  0  0  0  0  0  0
  145.8369  143.1725  161.8825 C   0  0  0  0  0  0  0  0  0  0  0  0
  150.9969  143.8048  160.8452 N   0  0  0  0  0  0  0  0  0  0  0  0
  153.8914  142.4100  161.9924 H   0  0  0  0  0  0  0  0  0  0  0  0
  152.2605  141.9866  162.4969 H   0  0  0  0  0  0  0  0  0  0  0  0
  152.9457  143.5443  162.9491 H   0  0  0  0  0  0  0  0  0  0  0  0
  154.0584  143.4463  159.5075 H   0  0  0  0  0  0  0  0  0  0  0  0
  149.1416  145.1466  158.5415 H   0  0  0  0  0  0  0  0  0  0  0  0
  147.2564  145.5513  158.8193 H   0  0  0  0  0  0  0  0  0  0  0  0
  146.0751  145.9073  161.3365 H   0  0  0  0  0  0  0  0  0  0  0  0
  144.7693  145.7910  158.5888 H   0  0  0  0  0  0  0  0  0  0  0  0
  143.9347  146.2212  160.0525 H   0  0  0  0  0  0  0  0  0  0  0  0
  144.7750  148.2003  158.6505 H   0  0  0  0  0  0  0  0  0  0  0  0
  145.2375  148.2499  160.3469 H   0  0  0  0  0  0  0  0  0  0  0  0
  146.9227  146.9800  158.5248 H   0  0  0  0  0  0  0  0  0  0  0  0
  144.7835  143.5122  159.9694 H   0  0  0  0  0  0  0  0  0  0  0  0
  144.5365  144.7344  162.8094 H   0  0  0  0  0  0  0  0  0  0  0  0
  143.6193  143.2885  162.1375 H   0  0  0  0  0  0  0  0  0  0  0  0
  145.8026  142.0953  161.7333 H   0  0  0  0  0  0  0  0  0  0  0  0
  146.7158  143.5430  162.4063 H   0  0  0  0  0  0  0  0  0  0  0  0
  1  2  1  0  0  0  0
  1 18  1  0  0  0  0
  1 19  1  0  0  0  0
  1 20  1  0  0  0  0
  2 17  1  0  0  0  0
  2  3  2  0  0  0  0
  3  4  1  0  0  0  0
  3 21  1  0  0  0  0
  4  5  1  0  0  0  0
  5  6  1  0  0  0  0
  5 17  2  0  0  0  0
  6  7  1  0  0  0  0
  6 22  1  0  0  0  0
  7  8  2  0  0  0  0
  7  9  1  0  0  0  0
  9 10  1  0  0  0  0
  9 23  1  0  0  0  0
 10 11  1  0  0  0  0
 10 14  1  0  0  0  0
 10 24  1  0  0  0  0
 11 12  1  0  0  0  0
 11 25  1  0  0  0  0
 11 26  1  0  0  0  0
 12 13  1  0  0  0  0
 12 27  1  0  0  0  0
 12 28  1  0  0  0  0
 13 29  1  0  0  0  0
 14 16  1  0  0  0  0
 14 15  1  0  0  0  0
 14 30  1  0  0  0  0
 15 16  1  0  0  0  0
 15 31  1  0  0  0  0
 15 32  1  0  0  0  0
 16 33  1  0  0  0  0
 16 34  1  0  0  0  0
M  END
> <s_m_source_file>
AV-unprocessed.smi

> <i_m_source_file_index>
3299

> <i_lp_mmshare_version>
43012

> <i_f3d_flags>
0

> <s_epik_input>
W0NIM11jMVtjSF1zYyhuMSlbTkhdQyg9TylbTkhdW0NASF0oW0NIMl1bQ0gyXVtPSF0pW0NIXTJbQ0gyXVtDSDJdMg==

> <s_epik_cmdline>
J2VwaWtfcHl0aG9uJywgJy1waCcsICc3LjAnLCAnLXRuJywgJzgnLCAnLW1hJywgJzIwMCcsICctbWV0YWxfYmluZGluZycsICctaW1hZScsICc8aW5maWxlLm1hZT4nLCAnLW9tYWUnLCAnPG91dGZpbGUubWFlPic=

> <r_lp_tautomer_probability>
0.999

> <r_epik_Ionization_Penalty>
0.000568872

> <r_epik_Ionization_Penalty_Charging>
0

> <r_epik_Ionization_Penalty_Neutral>
0.000568872

> <r_epik_State_Penalty>
0.000177984

> <r_epik_Charging_Adjusted_Penalty>
0.000177984

> <i_epik_Tot_Q>
0

> <i_epik_Tot_abs_Q>
0

> <r_epik_Metal_State_Penalty>
-0

> <b_epik_Metal_Only>
0

> <s_lp_Force_Field>
OPLS_2005

> <r_lp_Energy>
11.9184

> <b_lp_Chiralities_Consistent>
1

> <s_lp_Variant>
AV-unprocessed.smi:3299-2

> <Gold.Version>
5.8.1

> <Gold.Id.Protein>
6NUR|6NUR_protein|mol2

> <Gold.PLP.Fitness>
55.8208

> <Gold.PLP.PLP>
-44.5427

> <Gold.PLP.part.hbond>
-7.0000

> <Gold.PLP.part.metal>
0.0000

> <Gold.PLP.part.buried>
-7.0032

> <Gold.PLP.part.nonpolar>
-31.5868

> <Gold.PLP.part.repulsive>
0.6363

> <Gold.PLP.ligand.clash>
0.0000

> <Gold.PLP.ligand.torsion>
0.7421

> <Gold.PLP.Chemscore.Hbond>
3.8640

> <Gold.PLP.Chemscore.CHOScore>
0.0000

> <Gold.PLP.Chemscore.Metal>
0.0000

> <Gold.Chemscore.Hbonds>
donor molecule, donor type, donor heavy atom, donor atom, acceptor molecule, acceptor atom, score
      L1  H     6    22       P1  8029  1.00
      L1  H     9    23       P1  8029  1.00
      L1  H    13    29       P1  8029  1.00
      P1  H  6933  6944       L1     8  0.86

> <Gold.PLP.Chemscore.Internal.Correction>
1.1704

> <Gold.Rescore>
     Score         DG    S(hbond)    S(metal)    S(lipo)     H(rot)  DE(clash)    DE(int)     intcor
     16.27     -21.85       3.68        0.00      87.34       2.39       0.71       4.87       ----

> <Gold.Chemscore.Fitness>
16.2710

> <Gold.Chemscore.DG>
-21.8506

> <Gold.Chemscore.ZeroCoef>
-5.4800

> <Gold.Chemscore.Hbond>
3.6750

> <Gold.Chemscore.Metal>
0.0000

> <Gold.Chemscore.Lipo>
87.3410

> <Gold.Chemscore.Internal_Hbond>
0.0000

> <Gold.Chemscore.DEClash>
0.7089

> <Gold.Chemscore.DEInternal>
4.8707

> <Gold.Chemscore.Rot>
2.3917

> <Gold.Chemscore.Internal.Correction>
   9.000000E+99

> <Gold.Chemscore.Hbonds>
donor molecule, donor type, donor heavy atom, donor atom, acceptor molecule, acceptor atom, score
      L1  H     6    22       P1  8029  0.86
      L1  H     9    23       P1  8029  1.00
      L1  H    13    29       P1  8029  0.98
      P1  H  6933  6944       L1     8  0.64

> <Gold.Chemscore.Hbond.Weighted>
-12.2745

> <Gold.Chemscore.Metal.Weighted>
-0.0000

> <Gold.Chemscore.Lipo.Weighted>
-10.2189

> <Gold.Chemscore.Internal_Hbond.Weighted>
0.0000

> <Gold.Chemscore.DEClash.Weighted>
0.7089

> <Gold.Chemscore.DEInternal.Weighted>
4.8707

> <Gold.Chemscore.Rot.Weighted>
6.1228

> <Gold.Chemscore.Internal.Correction.Weighted>
   9.000000E+99

> <Gold.Protein.RotatedTorsions>
[ 6907 6896 6895 6894 ] final -177.53 input  -60.11 | X-H torsion
[ 7974 7965 7964 7962 ] final  148.04 input  175.53 | X-H torsion
[ 8008 7997 7996 7995 ] final -113.42 input   59.86 | X-H torsion
[ 10167 10162 10161 10158 ] final  178.87 input  -65.29 | X-H torsion
[ 10718 10713 10712 10709 ] final  -35.33 input   66.30 | X-H torsion
[ 10763 10752 10751 10750 ] final -116.20 input  -60.55 | X-H torsion
[ 11005 11000 10999 10996 ] final   54.37 input  -57.11 | X-H torsion

> <Gold.Protein.ActiveResidues>
 VAL166  LYS551  ARG553  GLY616  TRP617  ASP618  TYR619  PRO620  LYS621  CYS622 
 ASP623  PHE694  ASN695  SER759  ASP760  ASP761  ALA762  ILE779  LEU786  VAL792 
 PHE793  MET794  SER795  GLU796  ALA797  LYS798  CYS799  TRP800  GLU811  SER814 

> <Gold.Protein.RotatedAtoms>
  151.6224  133.3338  159.3090 H   0  0  0  0  0  0  0  0  0  0  0  0  # atno 6907 bound_to 6896
  150.8099  134.7251  159.6690 H   0  0  0  0  0  0  0  0  0  0  0  0  # atno 6908 bound_to 6896
  152.4195  134.5985  160.0045 H   0  0  0  0  0  0  0  0  0  0  0  0  # atno 6909 bound_to 6896
  144.8545  139.6104  143.5959 H   0  0  0  0  0  0  0  0  0  0  0  0  # atno 7974 bound_to 7965
  155.0204  140.0393  157.2435 H   0  0  0  0  0  0  0  0  0  0  0  0  # atno 8008 bound_to 7997
  154.7383  140.2744  155.6372 H   0  0  0  0  0  0  0  0  0  0  0  0  # atno 8009 bound_to 7997
  156.2858  140.2670  156.2102 H   0  0  0  0  0  0  0  0  0  0  0  0  # atno 8010 bound_to 7997
  139.5312  144.2628  152.0693 H   0  0  0  0  0  0  0  0  0  0  0  0  # atno 10167 bound_to 10162
  156.3399  130.4292  149.7797 H   0  0  0  0  0  0  0  0  0  0  0  0  # atno 10718 bound_to 10713
  154.8510  135.4354  154.1783 H   0  0  0  0  0  0  0  0  0  0  0  0  # atno 10763 bound_to 10752
  153.2880  135.6959  153.7326 H   0  0  0  0  0  0  0  0  0  0  0  0  # atno 10764 bound_to 10752
  153.6505  135.3452  155.3073 H   0  0  0  0  0  0  0  0  0  0  0  0  # atno 10765 bound_to 10752
  140.0692  134.5494  155.9065 H   0  0  0  0  0  0  0  0  0  0  0  0  # atno 11005 bound_to 11000
  146.2811  139.6881  142.9228 LP  0  0  0  0  0  0  0  0  0  0  0  0  # atno 17320 bound_to 7965
  145.4434  141.0424  143.2844 LP  0  0  0  0  0  0  0  0  0  0  0  0  # atno 17321 bound_to 7965
  140.2092  144.4580  150.6394 LP  0  0  0  0  0  0  0  0  0  0  0  0  # atno 17342 bound_to 10162
  140.6491  143.2220  151.6118 LP  0  0  0  0  0  0  0  0  0  0  0  0  # atno 17343 bound_to 10162
  156.5037  130.8140  151.3142 LP  0  0  0  0  0  0  0  0  0  0  0  0  # atno 17370 bound_to 10713
  157.7445  130.9936  150.2678 LP  0  0  0  0  0  0  0  0  0  0  0  0  # atno 17371 bound_to 10713
  141.2005  133.6613  156.5900 LP  0  0  0  0  0  0  0  0  0  0  0  0  # atno 17394 bound_to 11000
  140.3653  134.7652  157.4562 LP  0  0  0  0  0  0  0  0  0  0  0  0  # atno 17395 bound_to 11000

$$$$
