AV-unprocessed.smi:2910|AV-procd|sdf|11175|dock1
  -GOLD-   2272016 63D 1   1.00000     0.00000
 Structure written by MMmdl.
 47 48  0  0  0  0  0  0  0  0  1 V2000
  149.8370  142.3492  155.6795 C   0  0  0  0  0  0  0  0  0  0  0  0
  149.6900  141.0087  155.0224 C   0  0  0  0  0  0  0  0  0  0  0  0
  148.5326  140.4607  154.3970 C   0  0  0  0  0  0  0  0  0  0  0  0
  148.9696  139.2343  153.9766 C   0  0  0  0  0  0  0  0  0  0  0  0
  148.2889  138.2682  153.3046 N   0  0  0  0  0  0  0  0  0  0  0  0
  146.9612  138.1357  153.1412 C   0  0  0  0  0  0  0  0  0  0  0  0
  146.1063  138.8817  153.6189 O   0  0  0  0  0  0  0  0  0  0  0  0
  146.6743  137.0676  152.3813 N   0  0  0  0  0  0  0  0  0  0  0  0
  145.3339  136.6261  151.9854 C   0  0  2  0  0  0  0  0  0  0  0  0
  144.4279  136.5822  153.2392 C   0  0  0  0  0  0  0  0  0  0  0  0
  142.9205  136.6072  152.9295 C   0  0  0  0  0  0  0  0  0  0  0  0
  142.4446  137.9346  152.9846 O   0  0  0  0  0  0  0  0  0  0  0  0
  145.4225  135.2674  151.2308 C   0  0  0  0  0  0  0  0  0  0  0  0
  144.0241  134.7269  150.8333 C   0  0  0  0  0  0  0  0  0  0  0  0
  144.1011  133.3803  150.0971 C   0  0  0  0  0  0  0  0  0  0  0  0
  144.8457  132.3325  150.9327 C   0  0  0  0  0  0  0  0  0  0  0  0
  146.2444  132.8375  151.3070 C   0  0  0  0  0  0  0  0  0  0  0  0
  146.1758  134.1851  152.0438 C   0  0  0  0  0  0  0  0  0  0  0  0
  150.2909  139.0860  154.3356 N   0  0  0  0  0  0  0  0  0  0  0  0
  151.1855  137.9670  154.1124 C   0  0  0  0  0  0  0  0  0  0  0  0
  150.7319  140.1857  154.9838 N   0  0  0  0  0  0  0  0  0  0  0  0
  148.9000  142.9058  155.6522 H   0  0  0  0  0  0  0  0  0  0  0  0
  150.5941  142.9514  155.1767 H   0  0  0  0  0  0  0  0  0  0  0  0
  150.1309  142.2453  156.7242 H   0  0  0  0  0  0  0  0  0  0  0  0
  147.5577  140.9107  154.2850 H   0  0  0  0  0  0  0  0  0  0  0  0
  148.8637  137.5647  152.8649 H   0  0  0  0  0  0  0  0  0  0  0  0
  147.4462  136.5158  152.0363 H   0  0  0  0  0  0  0  0  0  0  0  0
  144.8976  137.3517  151.2965 H   0  0  0  0  0  0  0  0  0  0  0  0
  144.6275  135.6727  153.8042 H   0  0  0  0  0  0  0  0  0  0  0  0
  144.6766  137.4138  153.9001 H   0  0  0  0  0  0  0  0  0  0  0  0
  142.7114  136.2069  151.9375 H   0  0  0  0  0  0  0  0  0  0  0  0
  142.3697  136.0021  153.6502 H   0  0  0  0  0  0  0  0  0  0  0  0
  143.1499  138.5170  152.7465 H   0  0  0  0  0  0  0  0  0  0  0  0
  145.9816  135.4359  150.3090 H   0  0  0  0  0  0  0  0  0  0  0  0
  143.4073  134.6175  151.7264 H   0  0  0  0  0  0  0  0  0  0  0  0
  143.5033  135.4339  150.1877 H   0  0  0  0  0  0  0  0  0  0  0  0
  143.0961  133.0254  149.8675 H   0  0  0  0  0  0  0  0  0  0  0  0
  144.6080  133.5146  149.1407 H   0  0  0  0  0  0  0  0  0  0  0  0
  144.2788  132.1127  151.8382 H   0  0  0  0  0  0  0  0  0  0  0  0
  144.9216  131.3969  150.3781 H   0  0  0  0  0  0  0  0  0  0  0  0
  146.7499  132.0996  151.9306 H   0  0  0  0  0  0  0  0  0  0  0  0
  146.8480  132.9449  150.4048 H   0  0  0  0  0  0  0  0  0  0  0  0
  147.1968  134.4987  152.2551 H   0  0  0  0  0  0  0  0  0  0  0  0
  145.6887  134.0461  153.0100 H   0  0  0  0  0  0  0  0  0  0  0  0
  151.2151  137.7284  153.0491 H   0  0  0  0  0  0  0  0  0  0  0  0
  150.8274  137.0976  154.6640 H   0  0  0  0  0  0  0  0  0  0  0  0
  152.1953  138.2088  154.4476 H   0  0  0  0  0  0  0  0  0  0  0  0
  1  2  1  0  0  0  0
  1 22  1  0  0  0  0
  1 23  1  0  0  0  0
  1 24  1  0  0  0  0
  2 21  2  0  0  0  0
  2  3  1  0  0  0  0
  3  4  2  0  0  0  0
  3 25  1  0  0  0  0
  4  5  1  0  0  0  0
  4 19  1  0  0  0  0
  5  6  1  0  0  0  0
  5 26  1  0  0  0  0
  6  7  2  0  0  0  0
  6  8  1  0  0  0  0
  8  9  1  0  0  0  0
  8 27  1  0  0  0  0
  9 10  1  0  0  0  0
  9 13  1  0  0  0  0
  9 28  1  0  0  0  0
 10 11  1  0  0  0  0
 10 29  1  0  0  0  0
 10 30  1  0  0  0  0
 11 12  1  0  0  0  0
 11 31  1  0  0  0  0
 11 32  1  0  0  0  0
 12 33  1  0  0  0  0
 13 18  1  0  0  0  0
 13 14  1  0  0  0  0
 13 34  1  0  0  0  0
 14 15  1  0  0  0  0
 14 35  1  0  0  0  0
 14 36  1  0  0  0  0
 15 16  1  0  0  0  0
 15 37  1  0  0  0  0
 15 38  1  0  0  0  0
 16 17  1  0  0  0  0
 16 39  1  0  0  0  0
 16 40  1  0  0  0  0
 17 18  1  0  0  0  0
 17 41  1  0  0  0  0
 17 42  1  0  0  0  0
 18 43  1  0  0  0  0
 18 44  1  0  0  0  0
 19 20  1  0  0  0  0
 19 21  1  0  0  0  0
 20 45  1  0  0  0  0
 20 46  1  0  0  0  0
 20 47  1  0  0  0  0
M  END
> <s_m_source_file>
AV-unprocessed.smi

> <i_m_source_file_index>
2910

> <i_lp_mmshare_version>
43012

> <i_f3d_flags>
0

> <s_epik_input>
W0NIM11jMVtjSF1jKG4objEpW0NIM10pW05IXUMoPU8pW05IXVtDQEhdKFtDSDJdW0NIMl1bT0hdKVtDSF0yW0NIMl1bQ0gyXVtDSDJdW0NIMl1bQ0gyXTI=

> <s_epik_cmdline>
J2VwaWtfcHl0aG9uJywgJy1waCcsICc3LjAnLCAnLXRuJywgJzgnLCAnLW1hJywgJzIwMCcsICctbWV0YWxfYmluZGluZycsICctaW1hZScsICc8aW5maWxlLm1hZT4nLCAnLW9tYWUnLCAnPG91dGZpbGUubWFlPic=

> <r_lp_tautomer_probability>
1

> <r_epik_Ionization_Penalty>
0.000101449

> <r_epik_Ionization_Penalty_Charging>
0

> <r_epik_Ionization_Penalty_Neutral>
0.000101449

> <r_epik_State_Penalty>
-0

> <r_epik_Charging_Adjusted_Penalty>
0

> <i_epik_Tot_Q>
0

> <i_epik_Tot_abs_Q>
0

> <r_epik_Metal_State_Penalty>
-0

> <b_epik_Metal_Only>
0

> <s_lp_Force_Field>
OPLS_2005

> <r_lp_Energy>
16.2269

> <b_lp_Chiralities_Consistent>
1

> <s_lp_Variant>
AV-unprocessed.smi:2910-1

> <Gold.Version>
5.8.1

> <Gold.Id.Protein>
6NUR|6NUR_protein|mol2

> <Gold.PLP.Fitness>
45.9028

> <Gold.PLP.PLP>
-36.0992

> <Gold.PLP.part.hbond>
-4.7027

> <Gold.PLP.part.metal>
0.0000

> <Gold.PLP.part.buried>
0.1983

> <Gold.PLP.part.nonpolar>
-33.8710

> <Gold.PLP.part.repulsive>
0.4813

> <Gold.PLP.ligand.clash>
0.0000

> <Gold.PLP.ligand.torsion>
0.5517

> <Gold.PLP.Chemscore.Hbond>
3.5973

> <Gold.PLP.Chemscore.CHOScore>
0.0000

> <Gold.PLP.Chemscore.Metal>
0.0000

> <Gold.Chemscore.Hbonds>
donor molecule, donor type, donor heavy atom, donor atom, acceptor molecule, acceptor atom, score
      L1  H     5    26       P1  7948  0.98
      L1  H     8    27       P1  7948  0.99
      L1  H    12    33       P1 10175  0.86
      P1  H  7989  7998       L1    21  0.70

> <Gold.PLP.Chemscore.Internal.Correction>
0.1152

> <Gold.Rescore>
     Score         DG    S(hbond)    S(metal)    S(lipo)     H(rot)  DE(clash)    DE(int)     intcor
     14.84     -18.10       2.80        0.00      77.66       2.27       0.11       3.14       ----

> <Gold.Chemscore.Fitness>
14.8417

> <Gold.Chemscore.DG>
-18.0951

> <Gold.Chemscore.ZeroCoef>
-5.4800

> <Gold.Chemscore.Hbond>
2.7997

> <Gold.Chemscore.Metal>
0.0000

> <Gold.Chemscore.Lipo>
77.6619

> <Gold.Chemscore.Internal_Hbond>
0.0000

> <Gold.Chemscore.DEClash>
0.1121

> <Gold.Chemscore.DEInternal>
3.1414

> <Gold.Chemscore.Rot>
2.2743

> <Gold.Chemscore.Internal.Correction>
   9.000000E+99

> <Gold.Chemscore.Hbonds>
donor molecule, donor type, donor heavy atom, donor atom, acceptor molecule, acceptor atom, score
      L1  H     5    26       P1  7948  0.93
      L1  H     8    27       P1  7948  0.90
      L1  H    12    33       P1 10175  0.82
      P1  H  7989  7998       L1    21  0.02

> <Gold.Chemscore.Hbond.Weighted>
-9.3509

> <Gold.Chemscore.Metal.Weighted>
-0.0000

> <Gold.Chemscore.Lipo.Weighted>
-9.0864

> <Gold.Chemscore.Internal_Hbond.Weighted>
0.0000

> <Gold.Chemscore.DEClash.Weighted>
0.1121

> <Gold.Chemscore.DEInternal.Weighted>
3.1414

> <Gold.Chemscore.Rot.Weighted>
5.8223

> <Gold.Chemscore.Internal.Correction.Weighted>
   9.000000E+99

> <Gold.Protein.RotatedTorsions>
[ 6907 6896 6895 6894 ] final  122.33 input  -60.11 | X-H torsion
[ 7974 7965 7964 7962 ] final   95.68 input  175.53 | X-H torsion
[ 8008 7997 7996 7995 ] final -169.85 input   59.86 | X-H torsion
[ 10167 10162 10161 10158 ] final -160.23 input  -65.29 | X-H torsion
[ 10718 10713 10712 10709 ] final  -93.88 input   66.30 | X-H torsion
[ 10763 10752 10751 10750 ] final  -50.07 input  -60.55 | X-H torsion
[ 11005 11000 10999 10996 ] final  152.51 input  -57.11 | X-H torsion

> <Gold.Protein.ActiveResidues>
 VAL166  LYS551  ARG553  GLY616  TRP617  ASP618  TYR619  PRO620  LYS621  CYS622 
 ASP623  PHE694  ASN695  SER759  ASP760  ASP761  ALA762  ILE779  LEU786  VAL792 
 PHE793  MET794  SER795  GLU796  ALA797  LYS798  CYS799  TRP800  GLU811  SER814 

> <Gold.Protein.RotatedAtoms>
  152.4251  133.7182  159.6517 H   0  0  0  0  0  0  0  0  0  0  0  0  # atno 6907 bound_to 6896
  150.8128  133.8380  159.3180 H   0  0  0  0  0  0  0  0  0  0  0  0  # atno 6908 bound_to 6896
  151.6085  135.1044  160.0127 H   0  0  0  0  0  0  0  0  0  0  0  0  # atno 6909 bound_to 6896
  145.4489  139.2295  143.3050 H   0  0  0  0  0  0  0  0  0  0  0  0  # atno 7974 bound_to 7965
  155.9105  140.1056  157.1283 H   0  0  0  0  0  0  0  0  0  0  0  0  # atno 8008 bound_to 7997
  154.4039  140.1275  156.4616 H   0  0  0  0  0  0  0  0  0  0  0  0  # atno 8009 bound_to 7997
  155.7316  140.3468  155.5064 H   0  0  0  0  0  0  0  0  0  0  0  0  # atno 8010 bound_to 7997
  139.6555  144.0007  152.2191 H   0  0  0  0  0  0  0  0  0  0  0  0  # atno 10167 bound_to 10162
  156.0019  130.5045  150.5843 H   0  0  0  0  0  0  0  0  0  0  0  0  # atno 10718 bound_to 10713
  154.1044  135.6558  153.4874 H   0  0  0  0  0  0  0  0  0  0  0  0  # atno 10763 bound_to 10752
  153.0277  135.5233  154.7254 H   0  0  0  0  0  0  0  0  0  0  0  0  # atno 10764 bound_to 10752
  154.6416  135.2989  155.0066 H   0  0  0  0  0  0  0  0  0  0  0  0  # atno 10765 bound_to 10752
  140.1314  134.8799  157.2208 H   0  0  0  0  0  0  0  0  0  0  0  0  # atno 11005 bound_to 11000
  146.2515  140.5246  142.8891 LP  0  0  0  0  0  0  0  0  0  0  0  0  # atno 17320 bound_to 7965
  144.8074  140.6324  143.6438 LP  0  0  0  0  0  0  0  0  0  0  0  0  # atno 17321 bound_to 7965
  139.9732  144.6479  150.7969 LP  0  0  0  0  0  0  0  0  0  0  0  0  # atno 17342 bound_to 10162
  140.7557  143.3051  151.2982 LP  0  0  0  0  0  0  0  0  0  0  0  0  # atno 17343 bound_to 10162
  157.3718  131.0767  151.1551 LP  0  0  0  0  0  0  0  0  0  0  0  0  # atno 17370 bound_to 10713
  157.2302  130.6521  149.5846 LP  0  0  0  0  0  0  0  0  0  0  0  0  # atno 17371 bound_to 10713
  140.2838  134.3320  155.7335 LP  0  0  0  0  0  0  0  0  0  0  0  0  # atno 17394 bound_to 11000
  141.2171  133.7494  156.9402 LP  0  0  0  0  0  0  0  0  0  0  0  0  # atno 17395 bound_to 11000

$$$$
