AV-unprocessed.smi:2698|AV-procd|sdf|10417|dock5
  -GOLD-   2272014453D 1   1.00000     0.00000
 Structure written by MMmdl.
 34 34  0  0  0  0  0  0  0  0  3 V2000
  152.4717  144.6398  158.1566 C   0  0  0  0  0  0  0  0  0  0  0  0
  151.6641  143.9598  159.2779 C   0  0  0  0  0  0  0  0  0  0  0  0
  151.8838  144.6861  160.6133 C   0  0  0  0  0  0  0  0  0  0  0  0
  151.9711  142.4514  159.4255 C   0  0  0  0  0  0  0  0  0  0  0  0
  151.2269  141.5801  158.4108 C   0  0  0  0  0  0  0  0  0  0  0  0
  150.8017  140.4738  158.7427 O   0  0  0  0  0  0  0  0  0  0  0  0
  151.0822  142.0955  157.1805 N   0  0  0  0  0  0  0  0  0  0  0  0
  150.4387  141.4457  156.0390 C   0  0  2  0  0  0  0  0  0  0  0  0
  148.9886  141.0643  156.4058 C   0  0  0  0  0  0  0  0  0  0  0  0
  147.9485  141.3361  155.3431 C   0  0  0  0  0  0  0  0  0  0  0  0
  146.9285  140.5526  154.8314 C   0  0  0  0  0  0  0  0  0  0  0  0
  146.2636  141.3041  153.8769 N   0  0  0  0  0  0  0  0  0  0  0  0
  146.8598  142.4937  153.8418 C   0  0  0  0  0  0  0  0  0  0  0  0
  147.8698  142.5654  154.7067 N   0  3  0  0  0  0  0  0  0  0  0  0
  151.2479  140.2062  155.6434 C   0  0  0  0  0  0  0  0  0  0  0  0
  150.8404  139.5404  154.6653 O   0  0  0  0  0  0  0  0  0  0  0  0
  152.2660  139.9501  156.3218 O   0  5  0  0  0  0  0  0  0  0  0  0
  145.4734  141.0079  153.3216 H   0  0  0  0  0  0  0  0  0  0  0  0
  153.5441  144.5226  158.3153 H   0  0  0  0  0  0  0  0  0  0  0  0
  152.2578  145.7081  158.1131 H   0  0  0  0  0  0  0  0  0  0  0  0
  152.2319  144.2278  157.1765 H   0  0  0  0  0  0  0  0  0  0  0  0
  150.6070  144.0652  159.0283 H   0  0  0  0  0  0  0  0  0  0  0  0
  152.9241  144.6206  160.9335 H   0  0  0  0  0  0  0  0  0  0  0  0
  151.2651  144.2564  161.4016 H   0  0  0  0  0  0  0  0  0  0  0  0
  151.6255  145.7426  160.5355 H   0  0  0  0  0  0  0  0  0  0  0  0
  153.0424  142.2755  159.3195 H   0  0  0  0  0  0  0  0  0  0  0  0
  151.7089  142.1156  160.4302 H   0  0  0  0  0  0  0  0  0  0  0  0
  151.4360  143.0275  157.0175 H   0  0  0  0  0  0  0  0  0  0  0  0
  150.4164  142.1135  155.1755 H   0  0  0  0  0  0  0  0  0  0  0  0
  148.9343  140.0010  156.6442 H   0  0  0  0  0  0  0  0  0  0  0  0
  148.6898  141.5937  157.3122 H   0  0  0  0  0  0  0  0  0  0  0  0
  146.6175  139.5427  155.0534 H   0  0  0  0  0  0  0  0  0  0  0  0
  146.5593  143.3035  153.1930 H   0  0  0  0  0  0  0  0  0  0  0  0
  148.4712  143.3614  154.8650 H   0  0  0  0  0  0  0  0  0  0  0  0
  1  2  1  0  0  0  0
  1 19  1  0  0  0  0
  1 20  1  0  0  0  0
  1 21  1  0  0  0  0
  2  3  1  0  0  0  0
  2  4  1  0  0  0  0
  2 22  1  0  0  0  0
  3 23  1  0  0  0  0
  3 24  1  0  0  0  0
  3 25  1  0  0  0  0
  4  5  1  0  0  0  0
  4 26  1  0  0  0  0
  4 27  1  0  0  0  0
  5  6  2  0  0  0  0
  5  7  1  0  0  0  0
  7  8  1  0  0  0  0
  7 28  1  0  0  0  0
  8  9  1  0  0  0  0
  8 15  1  0  0  0  0
  8 29  1  0  0  0  0
  9 10  1  0  0  0  0
  9 30  1  0  0  0  0
  9 31  1  0  0  0  0
 10 14  1  0  0  0  0
 10 11  2  0  0  0  0
 11 12  1  0  0  0  0
 11 32  1  0  0  0  0
 12 18  1  0  0  0  0
 12 13  1  0  0  0  0
 13 14  2  0  0  0  0
 13 33  1  0  0  0  0
 14 34  1  0  0  0  0
 15 16  2  0  0  0  0
 15 17  1  0  0  0  0
M  CHG  1  14   1
M  CHG  1  17  -1
M  END
> <s_m_source_file>
AV-unprocessed.smi

> <i_m_source_file_index>
2698

> <i_lp_mmshare_version>
43012

> <i_f3d_flags>
0

> <s_epik_input>
W0NIM11bQ0hdKFtDSDNdKVtDSDJdQyg9TylbTkhdW0NAQEhdKEMoPU8pW09IXSlbQ0gyXWMxW2NIXVtuSF1bY0hdbjE=

> <s_epik_cmdline>
J2VwaWtfcHl0aG9uJywgJy1waCcsICc3LjAnLCAnLXRuJywgJzgnLCAnLW1hJywgJzIwMCcsICctbWV0YWxfYmluZGluZycsICctaW1hZScsICc8aW5maWxlLm1hZT4nLCAnLW9tYWUnLCAnPG91dGZpbGUubWFlPic=

> <r_lp_tautomer_probability>
1

> <r_epik_Ionization_Penalty>
0.478676

> <r_epik_Ionization_Penalty_Charging>
5.56794e-05

> <r_epik_Ionization_Penalty_Neutral>
0.478621

> <r_epik_State_Penalty>
0.385221

> <r_epik_Charging_Adjusted_Penalty>
0.385276

> <i_epik_Tot_Q>
0

> <i_epik_Tot_abs_Q>
2

> <r_epik_Metal_State_Penalty>
0.800557

> <b_epik_Metal_Only>
0

> <s_lp_Force_Field>
OPLS_2005

> <r_lp_Energy>
0.68782

> <b_lp_Chiralities_Consistent>
1

> <s_lp_Variant>
AV-unprocessed.smi:2698-1

> <Gold.Version>
5.8.1

> <Gold.Id.Protein>
6NUR|6NUR_protein|mol2

> <Gold.PLP.Fitness>
52.1504

> <Gold.PLP.PLP>
-35.6580

> <Gold.PLP.part.hbond>
-3.9968

> <Gold.PLP.part.metal>
0.0000

> <Gold.PLP.part.buried>
-4.6824

> <Gold.PLP.part.nonpolar>
-26.9182

> <Gold.PLP.part.repulsive>
0.3593

> <Gold.PLP.ligand.clash>
0.0000

> <Gold.PLP.ligand.torsion>
1.3091

> <Gold.PLP.Chemscore.Hbond>
6.3500

> <Gold.PLP.Chemscore.CHOScore>
0.0000

> <Gold.PLP.Chemscore.Metal>
0.0000

> <Gold.Chemscore.Hbonds>
donor molecule, donor type, donor heavy atom, donor atom, acceptor molecule, acceptor atom, score
      L1  H    12    18       P1 10175  1.95
      L1  H    14    34       P1  8028  2.00
      P1  H  7989  7998       L1    16  0.45
      P1  H  7997  8009       L1    17  1.32

> <Gold.PLP.Chemscore.Internal.Correction>
0.0604

> <Gold.Rescore>
     Score         DG    S(hbond)    S(metal)    S(lipo)     H(rot)  DE(clash)    DE(int)     intcor
     12.00     -15.27       2.92        0.00      67.90       3.09       0.07       3.21       ----

> <Gold.Chemscore.Fitness>
11.9957

> <Gold.Chemscore.DG>
-15.2682

> <Gold.Chemscore.ZeroCoef>
-5.4800

> <Gold.Chemscore.Hbond>
2.9195

> <Gold.Chemscore.Metal>
0.0000

> <Gold.Chemscore.Lipo>
67.8996

> <Gold.Chemscore.Internal_Hbond>
0.0000

> <Gold.Chemscore.DEClash>
0.0659

> <Gold.Chemscore.DEInternal>
3.2066

> <Gold.Chemscore.Rot>
3.0887

> <Gold.Chemscore.Internal.Correction>
   9.000000E+99

> <Gold.Chemscore.Hbonds>
donor molecule, donor type, donor heavy atom, donor atom, acceptor molecule, acceptor atom, score
      L1  H    12    18       P1 10175  0.46
      L1  H    14    34       P1  8028  0.95
      P1  H  7989  7998       L1    16  0.02
      P1  H  7997  8009       L1    17  0.63

> <Gold.Chemscore.Hbond.Weighted>
-9.7510

> <Gold.Chemscore.Metal.Weighted>
-0.0000

> <Gold.Chemscore.Lipo.Weighted>
-7.9443

> <Gold.Chemscore.Internal_Hbond.Weighted>
0.0000

> <Gold.Chemscore.DEClash.Weighted>
0.0659

> <Gold.Chemscore.DEInternal.Weighted>
3.2066

> <Gold.Chemscore.Rot.Weighted>
7.9070

> <Gold.Chemscore.Internal.Correction.Weighted>
   9.000000E+99

> <Gold.Protein.RotatedTorsions>
[ 6907 6896 6895 6894 ] final  -79.81 input  -60.11 | X-H torsion
[ 7974 7965 7964 7962 ] final -171.86 input  175.53 | X-H torsion
[ 8008 7997 7996 7995 ] final -143.59 input   59.86 | X-H torsion
[ 10167 10162 10161 10158 ] final  -79.27 input  -65.29 | X-H torsion
[ 10718 10713 10712 10709 ] final -163.33 input   66.30 | X-H torsion
[ 10763 10752 10751 10750 ] final -146.94 input  -60.55 | X-H torsion
[ 11005 11000 10999 10996 ] final   47.56 input  -57.11 | X-H torsion

> <Gold.Protein.ActiveResidues>
 VAL166  LYS551  ARG553  GLY616  TRP617  ASP618  TYR619  PRO620  LYS621  CYS622 
 ASP623  PHE694  ASN695  SER759  ASP760  ASP761  ALA762  ILE779  LEU786  VAL792 
 PHE793  MET794  SER795  GLU796  ALA797  LYS798  CYS799  TRP800  GLU811  SER814 

> <Gold.Protein.RotatedAtoms>
  150.6942  134.4065  159.5142 H   0  0  0  0  0  0  0  0  0  0  0  0  # atno 6907 bound_to 6896
  152.1830  134.8735  160.0534 H   0  0  0  0  0  0  0  0  0  0  0  0  # atno 6908 bound_to 6896
  151.9718  133.3693  159.4111 H   0  0  0  0  0  0  0  0  0  0  0  0  # atno 6909 bound_to 6896
  144.7152  140.1859  143.6353 H   0  0  0  0  0  0  0  0  0  0  0  0  # atno 7974 bound_to 7965
  155.5130  140.0585  157.2920 H   0  0  0  0  0  0  0  0  0  0  0  0  # atno 8008 bound_to 7997
  154.4545  140.1966  156.0369 H   0  0  0  0  0  0  0  0  0  0  0  0  # atno 8009 bound_to 7997
  156.0771  140.3252  155.7651 H   0  0  0  0  0  0  0  0  0  0  0  0  # atno 8010 bound_to 7997
  140.4608  143.2454  151.8352 H   0  0  0  0  0  0  0  0  0  0  0  0  # atno 10167 bound_to 10162
  156.6232  130.8899  151.2962 H   0  0  0  0  0  0  0  0  0  0  0  0  # atno 10718 bound_to 10713
  154.8311  135.3373  154.6741 H   0  0  0  0  0  0  0  0  0  0  0  0  # atno 10763 bound_to 10752
  153.7360  135.6949  153.4982 H   0  0  0  0  0  0  0  0  0  0  0  0  # atno 10764 bound_to 10752
  153.2278  135.4427  155.0513 H   0  0  0  0  0  0  0  0  0  0  0  0  # atno 10765 bound_to 10752
  140.1268  134.4757  155.8553 H   0  0  0  0  0  0  0  0  0  0  0  0  # atno 11005 bound_to 11000
  145.8813  139.2325  143.1603 LP  0  0  0  0  0  0  0  0  0  0  0  0  # atno 17320 bound_to 7965
  145.9992  140.8535  143.0027 LP  0  0  0  0  0  0  0  0  0  0  0  0  # atno 17321 bound_to 7965
  139.4806  144.5010  151.9060 LP  0  0  0  0  0  0  0  0  0  0  0  0  # atno 17342 bound_to 10162
  140.4096  144.2387  150.5889 LP  0  0  0  0  0  0  0  0  0  0  0  0  # atno 17343 bound_to 10162
  157.7222  130.9573  150.1484 LP  0  0  0  0  0  0  0  0  0  0  0  0  # atno 17370 bound_to 10713
  156.2295  130.3681  149.8461 LP  0  0  0  0  0  0  0  0  0  0  0  0  # atno 17371 bound_to 10713
  141.2163  133.6781  156.6994 LP  0  0  0  0  0  0  0  0  0  0  0  0  # atno 17394 bound_to 11000
  140.2893  134.8253  157.4003 LP  0  0  0  0  0  0  0  0  0  0  0  0  # atno 17395 bound_to 11000

$$$$
