AV-unprocessed.smi:1644|AV-procd|sdf|6599|dock2
  -GOLD-   22720 7303D 1   1.00000     0.00000
 Structure written by MMmdl.
 49 51  0  0  0  0  0  0  0  0  3 V2000
  144.4470  137.0030  153.2530 C   0  0  0  0  0  0  0  0  0  0  0  0
  145.4508  137.4814  154.3074 C   0  0  0  0  0  0  0  0  0  0  0  0
  146.7769  136.6925  154.2569 C   0  0  0  0  0  0  0  0  0  0  0  0
  147.9108  137.2019  155.1801 C   0  0  1  0  0  0  0  0  0  0  0  0
  148.9318  136.1956  155.3847 N   0  5  0  0  0  0  0  0  0  0  0  0
  150.1236  136.7134  155.0051 C   0  0  0  0  0  0  0  0  0  0  0  0
  151.2135  136.1413  155.0228 O   0  0  0  0  0  0  0  0  0  0  0  0
  149.9854  137.9796  154.5643 N   0  0  0  0  0  0  0  0  0  0  0  0
  151.0724  138.8095  154.0365 C   0  0  0  0  0  0  0  0  0  0  0  0
  152.0708  139.2008  155.1459 C   0  0  1  0  0  0  0  0  0  0  0  0
  153.2495  139.7106  154.5534 O   0  0  0  0  0  0  0  0  0  0  0  0
  151.4972  140.2794  156.0854 C   0  0  0  0  0  0  0  0  0  0  0  0
  152.0185  140.1641  157.4527 N   0  0  0  0  0  0  0  0  0  0  0  0
  152.5956  139.1108  158.0911 C   0  0  0  0  0  0  0  0  0  0  0  0
  152.8977  139.5150  159.3567 N   0  3  0  0  0  0  0  0  0  0  0  0
  152.5028  140.8443  159.5285 C   0  0  0  0  0  0  0  0  0  0  0  0
  152.5889  141.6876  160.6300 C   0  0  0  0  0  0  0  0  0  0  0  0
  152.0829  142.9990  160.4797 C   0  0  0  0  0  0  0  0  0  0  0  0
  152.1530  143.9438  161.6671 C   0  0  0  0  0  0  0  0  0  0  0  0
  151.5195  143.4283  159.2498 C   0  0  0  0  0  0  0  0  0  0  0  0
  150.9778  144.8395  159.0977 C   0  0  0  0  0  0  0  0  0  0  0  0
  151.4448  142.5571  158.1405 C   0  0  0  0  0  0  0  0  0  0  0  0
  151.9418  141.2672  158.3086 C   0  0  0  0  0  0  0  0  0  0  0  0
  148.7057  138.3598  154.6111 C   0  0  0  0  0  0  0  0  0  0  0  0
  148.2226  139.4354  154.2560 O   0  0  0  0  0  0  0  0  0  0  0  0
  143.5250  137.5821  153.3041 H   0  0  0  0  0  0  0  0  0  0  0  0
  144.1909  135.9539  153.4020 H   0  0  0  0  0  0  0  0  0  0  0  0
  144.8523  137.1104  152.2465 H   0  0  0  0  0  0  0  0  0  0  0  0
  145.6438  138.5436  154.1546 H   0  0  0  0  0  0  0  0  0  0  0  0
  144.9927  137.3901  155.2926 H   0  0  0  0  0  0  0  0  0  0  0  0
  146.5722  135.6496  154.5031 H   0  0  0  0  0  0  0  0  0  0  0  0
  147.1434  136.6821  153.2295 H   0  0  0  0  0  0  0  0  0  0  0  0
  147.4756  137.5251  156.1266 H   0  0  0  0  0  0  0  0  0  0  0  0
  151.5793  138.3239  153.2006 H   0  0  0  0  0  0  0  0  0  0  0  0
  150.6223  139.7072  153.6093 H   0  0  0  0  0  0  0  0  0  0  0  0
  152.3387  138.3232  155.7350 H   0  0  0  0  0  0  0  0  0  0  0  0
  153.0048  140.3316  153.8848 H   0  0  0  0  0  0  0  0  0  0  0  0
  151.7308  141.2794  155.7172 H   0  0  0  0  0  0  0  0  0  0  0  0
  150.4095  140.2134  156.1370 H   0  0  0  0  0  0  0  0  0  0  0  0
  152.7760  138.1315  157.6722 H   0  0  0  0  0  0  0  0  0  0  0  0
  153.0192  141.3544  161.5631 H   0  0  0  0  0  0  0  0  0  0  0  0
  151.1574  144.3006  161.9326 H   0  0  0  0  0  0  0  0  0  0  0  0
  152.7792  144.8050  161.4328 H   0  0  0  0  0  0  0  0  0  0  0  0
  152.5749  143.4525  162.5445 H   0  0  0  0  0  0  0  0  0  0  0  0
  150.6216  145.0224  158.0832 H   0  0  0  0  0  0  0  0  0  0  0  0
  151.7531  145.5745  159.3151 H   0  0  0  0  0  0  0  0  0  0  0  0
  150.1423  145.0029  159.7789 H   0  0  0  0  0  0  0  0  0  0  0  0
  151.0109  142.8807  157.2050 H   0  0  0  0  0  0  0  0  0  0  0  0
  153.3366  138.9237  160.0509 H   0  0  0  0  0  0  0  0  0  0  0  0
  1  2  1  0  0  0  0
  1 26  1  0  0  0  0
  1 27  1  0  0  0  0
  1 28  1  0  0  0  0
  2  3  1  0  0  0  0
  2 29  1  0  0  0  0
  2 30  1  0  0  0  0
  3  4  1  0  0  0  0
  3 31  1  0  0  0  0
  3 32  1  0  0  0  0
  4 24  1  0  0  0  0
  4  5  1  0  0  0  0
  4 33  1  0  0  0  0
  5  6  1  0  0  0  0
  6  7  2  0  0  0  0
  6  8  1  0  0  0  0
  8  9  1  0  0  0  0
  8 24  1  0  0  0  0
  9 10  1  0  0  0  0
  9 34  1  0  0  0  0
  9 35  1  0  0  0  0
 10 11  1  0  0  0  0
 10 12  1  0  0  0  0
 10 36  1  0  0  0  0
 11 37  1  0  0  0  0
 12 13  1  0  0  0  0
 12 38  1  0  0  0  0
 12 39  1  0  0  0  0
 13 23  1  0  0  0  0
 13 14  1  0  0  0  0
 14 15  2  0  0  0  0
 14 40  1  0  0  0  0
 15 16  1  0  0  0  0
 15 49  1  0  0  0  0
 16 23  2  0  0  0  0
 16 17  1  0  0  0  0
 17 18  2  0  0  0  0
 17 41  1  0  0  0  0
 18 19  1  0  0  0  0
 18 20  1  0  0  0  0
 19 42  1  0  0  0  0
 19 43  1  0  0  0  0
 19 44  1  0  0  0  0
 20 21  1  0  0  0  0
 20 22  2  0  0  0  0
 21 45  1  0  0  0  0
 21 46  1  0  0  0  0
 21 47  1  0  0  0  0
 22 23  1  0  0  0  0
 22 48  1  0  0  0  0
 24 25  2  0  0  0  0
M  CHG  1   5  -1
M  CHG  1  15   1
M  END
> <s_m_source_file>
AV-unprocessed.smi

> <i_m_source_file_index>
1644

> <i_lp_mmshare_version>
43012

> <i_f3d_flags>
0

> <s_epik_input>
W0NIM11bQ0gyXVtDSDJdW0NAQEhdMVtOSF1DKD1PKU4oQzE9TylbQ0gyXVtDQEhdKFtPSF0pW0NIMl1uKFtjSF1uMiljKGMyMylbY0hdYyhbQ0gzXSljKFtjSF0zKVtDSDNd

> <s_epik_cmdline>
J2VwaWtfcHl0aG9uJywgJy1waCcsICc3LjAnLCAnLXRuJywgJzgnLCAnLW1hJywgJzIwMCcsICctbWV0YWxfYmluZGluZycsICctaW1hZScsICc8aW5maWxlLm1hZT4nLCAnLW9tYWUnLCAnPG91dGZpbGUubWFlPic=

> <r_lp_tautomer_probability>
1

> <r_epik_Ionization_Penalty>
6.86868

> <r_epik_Ionization_Penalty_Charging>
6.86868

> <r_epik_Ionization_Penalty_Neutral>
5.84798e-07

> <r_epik_State_Penalty>
6.92818

> <r_epik_Charging_Adjusted_Penalty>
13.7969

> <i_epik_Tot_Q>
0

> <i_epik_Tot_abs_Q>
2

> <r_epik_Metal_State_Penalty>
2.98017

> <b_epik_Metal_Only>
1

> <s_lp_Force_Field>
OPLS_2005

> <r_lp_Energy>
22.7733

> <b_lp_Chiralities_Consistent>
1

> <s_lp_Variant>
AV-unprocessed.smi:1644-16

> <Gold.Version>
5.8.1

> <Gold.Id.Protein>
6NUR|6NUR_protein|mol2

> <Gold.PLP.Fitness>
49.2402

> <Gold.PLP.PLP>
-45.0929

> <Gold.PLP.part.hbond>
-2.9683

> <Gold.PLP.part.metal>
0.0000

> <Gold.PLP.part.buried>
-6.4251

> <Gold.PLP.part.nonpolar>
-35.8267

> <Gold.PLP.part.repulsive>
0.4267

> <Gold.PLP.ligand.clash>
0.0000

> <Gold.PLP.ligand.torsion>
1.0173

> <Gold.PLP.Chemscore.Hbond>
2.0000

> <Gold.PLP.Chemscore.CHOScore>
0.0000

> <Gold.PLP.Chemscore.Metal>
0.0000

> <Gold.Chemscore.Hbonds>
donor molecule, donor type, donor heavy atom, donor atom, acceptor molecule, acceptor atom, score
      P1  H  7997  8009       L1    11  1.00
      P1  H 10752 10765       L1     7  1.00

> <Gold.PLP.Chemscore.Internal.Correction>
0.1819

> <Gold.Rescore>
     Score         DG    S(hbond)    S(metal)    S(lipo)     H(rot)  DE(clash)    DE(int)     intcor
     16.10     -17.22       1.77        0.00     109.45       2.72       0.03       1.09       ----

> <Gold.Chemscore.Fitness>
16.0968

> <Gold.Chemscore.DG>
-17.2164

> <Gold.Chemscore.ZeroCoef>
-5.4800

> <Gold.Chemscore.Hbond>
1.7680

> <Gold.Chemscore.Metal>
0.0000

> <Gold.Chemscore.Lipo>
109.4544

> <Gold.Chemscore.Internal_Hbond>
0.0000

> <Gold.Chemscore.DEClash>
0.0274

> <Gold.Chemscore.DEInternal>
1.0922

> <Gold.Chemscore.Rot>
2.7245

> <Gold.Chemscore.Internal.Correction>
   9.000000E+99

> <Gold.Chemscore.Hbonds>
donor molecule, donor type, donor heavy atom, donor atom, acceptor molecule, acceptor atom, score
      P1  H  7997  8009       L1    11  0.82
      P1  H 10752 10765       L1     7  1.00

> <Gold.Chemscore.Hbond.Weighted>
-5.9050

> <Gold.Chemscore.Metal.Weighted>
-0.0000

> <Gold.Chemscore.Lipo.Weighted>
-12.8062

> <Gold.Chemscore.Internal_Hbond.Weighted>
0.0000

> <Gold.Chemscore.DEClash.Weighted>
0.0274

> <Gold.Chemscore.DEInternal.Weighted>
1.0922

> <Gold.Chemscore.Rot.Weighted>
6.9748

> <Gold.Chemscore.Internal.Correction.Weighted>
   9.000000E+99

> <Gold.Protein.RotatedTorsions>
[ 6907 6896 6895 6894 ] final -143.02 input  -60.11 | X-H torsion
[ 7974 7965 7964 7962 ] final   55.87 input  175.53 | X-H torsion
[ 8008 7997 7996 7995 ] final -130.00 input   59.86 | X-H torsion
[ 10167 10162 10161 10158 ] final  -96.24 input  -65.29 | X-H torsion
[ 10718 10713 10712 10709 ] final  139.22 input   66.30 | X-H torsion
[ 10763 10752 10751 10750 ] final -179.02 input  -60.55 | X-H torsion
[ 11005 11000 10999 10996 ] final -149.70 input  -57.11 | X-H torsion

> <Gold.Protein.ActiveResidues>
 VAL166  LYS551  ARG553  GLY616  TRP617  ASP618  TYR619  PRO620  LYS621  CYS622 
 ASP623  PHE694  ASN695  SER759  ASP760  ASP761  ALA762  ILE779  LEU786  VAL792 
 PHE793  MET794  SER795  GLU796  ALA797  LYS798  CYS799  TRP800  GLU811  SER814 

> <Gold.Protein.RotatedAtoms>
  151.0948  133.5288  159.2612 H   0  0  0  0  0  0  0  0  0  0  0  0  # atno 6907 bound_to 6896
  151.2141  135.0492  159.8933 H   0  0  0  0  0  0  0  0  0  0  0  0  # atno 6908 bound_to 6896
  152.5437  134.0760  159.8268 H   0  0  0  0  0  0  0  0  0  0  0  0  # atno 6909 bound_to 6896
  145.9459  139.3929  143.0335 H   0  0  0  0  0  0  0  0  0  0  0  0  # atno 7974 bound_to 7965
  155.2885  140.0447  157.3021 H   0  0  0  0  0  0  0  0  0  0  0  0  # atno 8008 bound_to 7997
  154.5555  140.2330  155.8384 H   0  0  0  0  0  0  0  0  0  0  0  0  # atno 8009 bound_to 7997
  156.2004  140.3027  155.9521 H   0  0  0  0  0  0  0  0  0  0  0  0  # atno 8010 bound_to 7997
  140.2959  143.3192  152.0298 H   0  0  0  0  0  0  0  0  0  0  0  0  # atno 10167 bound_to 10162
  157.4167  131.1034  151.0397 H   0  0  0  0  0  0  0  0  0  0  0  0  # atno 10718 bound_to 10713
  154.5403  135.2805  155.1101 H   0  0  0  0  0  0  0  0  0  0  0  0  # atno 10763 bound_to 10752
  154.2586  135.6326  153.5270 H   0  0  0  0  0  0  0  0  0  0  0  0  # atno 10764 bound_to 10752
  152.9977  135.5600  154.5941 H   0  0  0  0  0  0  0  0  0  0  0  0  # atno 10765 bound_to 10752
  140.7480  134.3439  157.5132 H   0  0  0  0  0  0  0  0  0  0  0  0  # atno 11005 bound_to 11000
  145.8237  140.9666  143.0885 LP  0  0  0  0  0  0  0  0  0  0  0  0  # atno 17320 bound_to 7965
  144.6787  140.0074  143.7484 LP  0  0  0  0  0  0  0  0  0  0  0  0  # atno 17321 bound_to 7965
  139.4926  144.6491  151.6714 LP  0  0  0  0  0  0  0  0  0  0  0  0  # atno 17342 bound_to 10162
  140.5693  144.0137  150.6208 LP  0  0  0  0  0  0  0  0  0  0  0  0  # atno 17343 bound_to 10162
  157.1342  130.6115  149.5537 LP  0  0  0  0  0  0  0  0  0  0  0  0  # atno 17370 bound_to 10713
  155.9867  130.4903  150.7093 LP  0  0  0  0  0  0  0  0  0  0  0  0  # atno 17371 bound_to 10713
  139.8793  134.9123  156.3058 LP  0  0  0  0  0  0  0  0  0  0  0  0  # atno 17394 bound_to 11000
  140.9777  133.7287  156.0626 LP  0  0  0  0  0  0  0  0  0  0  0  0  # atno 17395 bound_to 11000

$$$$
