AV-unprocessed.smi:2799|AV-procd|sdf|10791|dock5
  -GOLD-   2272015223D 1   1.00000     0.00000
 Structure written by MMmdl.
 52 53  0  0  0  0  0  0  0  0  2 V2000
  152.0176  138.9088  154.7077 C   0  0  0  0  0  0  0  0  0  0  0  0
  150.6764  138.2377  155.0393 C   0  0  0  0  0  0  0  0  0  0  0  0
  150.9025  136.7877  155.4998 C   0  0  0  0  0  0  0  0  0  0  0  0
  149.7195  138.3192  153.8287 C   0  0  0  0  0  0  0  0  0  0  0  0
  148.9240  139.5771  153.7556 N   0  3  2  0  0  0  0  0  0  0  0  0
  148.7515  140.2026  155.0954 C   0  0  0  0  0  0  0  0  0  0  0  0
  148.1485  141.6118  154.9855 C   0  0  0  0  0  0  0  0  0  0  0  0
  146.8273  141.5877  154.2109 C   0  0  0  0  0  0  0  0  0  0  0  0
  147.0419  140.9249  152.8441 C   0  0  0  0  0  0  0  0  0  0  0  0
  147.6480  139.5065  152.9731 C   0  0  2  0  0  0  0  0  0  0  0  0
  146.6572  138.4394  153.5129 C   0  0  0  0  0  0  0  0  0  0  0  0
  146.8283  137.1430  152.8620 N   0  0  0  0  0  0  0  0  0  0  0  0
  145.8396  136.3744  152.3820 C   0  0  0  0  0  0  0  0  0  0  0  0
  144.6513  136.6897  152.4364 O   0  0  0  0  0  0  0  0  0  0  0  0
  146.3317  135.2538  151.8231 N   0  0  0  0  0  0  0  0  0  0  0  0
  145.6442  134.1851  151.2222 C   0  0  0  0  0  0  0  0  0  0  0  0
  144.6079  134.3255  150.3574 C   0  0  0  0  0  0  0  0  0  0  0  0
  143.9501  133.1709  149.7945 C   0  0  0  0  0  0  0  0  0  0  0  0
  144.3808  131.9536  150.1540 C   0  0  0  0  0  0  0  0  0  0  0  0
  145.4451  131.7847  151.0558 N   0  0  0  0  0  0  0  0  0  0  0  0
  145.8425  130.4139  151.3868 C   0  0  0  0  0  0  0  0  0  0  0  0
  146.1055  132.8402  151.6185 C   0  0  0  0  0  0  0  0  0  0  0  0
  147.0350  132.6633  152.4102 O   0  0  0  0  0  0  0  0  0  0  0  0
  152.5219  138.4045  153.8825 H   0  0  0  0  0  0  0  0  0  0  0  0
  152.6891  138.8924  155.5667 H   0  0  0  0  0  0  0  0  0  0  0  0
  151.8762  139.9520  154.4234 H   0  0  0  0  0  0  0  0  0  0  0  0
  150.2538  138.7989  155.8720 H   0  0  0  0  0  0  0  0  0  0  0  0
  151.3271  136.1791  154.7007 H   0  0  0  0  0  0  0  0  0  0  0  0
  149.9714  136.3181  155.8176 H   0  0  0  0  0  0  0  0  0  0  0  0
  151.5890  136.7484  156.3460 H   0  0  0  0  0  0  0  0  0  0  0  0
  150.2668  138.1730  152.8975 H   0  0  0  0  0  0  0  0  0  0  0  0
  149.0268  137.4787  153.8932 H   0  0  0  0  0  0  0  0  0  0  0  0
  148.1293  139.5705  155.7293 H   0  0  0  0  0  0  0  0  0  0  0  0
  149.7199  140.2769  155.5917 H   0  0  0  0  0  0  0  0  0  0  0  0
  147.9899  142.0287  155.9806 H   0  0  0  0  0  0  0  0  0  0  0  0
  148.8552  142.2733  154.4824 H   0  0  0  0  0  0  0  0  0  0  0  0
  146.0716  141.0461  154.7800 H   0  0  0  0  0  0  0  0  0  0  0  0
  146.4496  142.6024  154.0810 H   0  0  0  0  0  0  0  0  0  0  0  0
  146.1073  140.9083  152.2838 H   0  0  0  0  0  0  0  0  0  0  0  0
  147.7200  141.5461  152.2572 H   0  0  0  0  0  0  0  0  0  0  0  0
  147.9034  139.2141  151.9555 H   0  0  0  0  0  0  0  0  0  0  0  0
  146.8299  138.2661  154.5743 H   0  0  0  0  0  0  0  0  0  0  0  0
  145.6252  138.7807  153.4295 H   0  0  0  0  0  0  0  0  0  0  0  0
  147.7750  136.8040  152.7689 H   0  0  0  0  0  0  0  0  0  0  0  0
  147.3378  135.1742  151.7876 H   0  0  0  0  0  0  0  0  0  0  0  0
  144.2296  135.2947  150.0752 H   0  0  0  0  0  0  0  0  0  0  0  0
  143.1308  133.2852  149.1001 H   0  0  0  0  0  0  0  0  0  0  0  0
  143.9410  131.0418  149.7768 H   0  0  0  0  0  0  0  0  0  0  0  0
  146.8797  130.2365  151.0984 H   0  0  0  0  0  0  0  0  0  0  0  0
  145.2322  129.6639  150.8821 H   0  0  0  0  0  0  0  0  0  0  0  0
  145.7522  130.2367  152.4597 H   0  0  0  0  0  0  0  0  0  0  0  0
  149.5080  140.2227  153.2434 H   0  0  0  0  0  0  0  0  0  0  0  0
  1  2  1  0  0  0  0
  1 24  1  0  0  0  0
  1 25  1  0  0  0  0
  1 26  1  0  0  0  0
  2  3  1  0  0  0  0
  2  4  1  0  0  0  0
  2 27  1  0  0  0  0
  3 28  1  0  0  0  0
  3 29  1  0  0  0  0
  3 30  1  0  0  0  0
  4  5  1  0  0  0  0
  4 31  1  0  0  0  0
  4 32  1  0  0  0  0
  5 10  1  0  0  0  0
  5  6  1  0  0  0  0
  5 52  1  0  0  0  0
  6  7  1  0  0  0  0
  6 33  1  0  0  0  0
  6 34  1  0  0  0  0
  7  8  1  0  0  0  0
  7 35  1  0  0  0  0
  7 36  1  0  0  0  0
  8  9  1  0  0  0  0
  8 37  1  0  0  0  0
  8 38  1  0  0  0  0
  9 10  1  0  0  0  0
  9 39  1  0  0  0  0
  9 40  1  0  0  0  0
 10 11  1  0  0  0  0
 10 41  1  0  0  0  0
 11 12  1  0  0  0  0
 11 42  1  0  0  0  0
 11 43  1  0  0  0  0
 12 13  1  0  0  0  0
 12 44  1  0  0  0  0
 13 14  2  0  0  0  0
 13 15  1  0  0  0  0
 15 16  1  0  0  0  0
 15 45  1  0  0  0  0
 16 22  1  0  0  0  0
 16 17  2  0  0  0  0
 17 18  1  0  0  0  0
 17 46  1  0  0  0  0
 18 19  2  0  0  0  0
 18 47  1  0  0  0  0
 19 20  1  0  0  0  0
 19 48  1  0  0  0  0
 20 21  1  0  0  0  0
 20 22  1  0  0  0  0
 21 49  1  0  0  0  0
 21 50  1  0  0  0  0
 21 51  1  0  0  0  0
 22 23  2  0  0  0  0
M  CHG  1   5   1
M  END
> <s_m_source_file>
AV-unprocessed.smi

> <i_m_source_file_index>
2799

> <i_lp_mmshare_version>
43012

> <i_f3d_flags>
0

> <s_epik_input>
W0NIM11bQ0hdKFtDSDNdKVtDSDJdTjFbQ0gyXVtDSDJdW0NIMl1bQ0gyXVtDQEhdMVtDSDJdW05IXUMoPU8pW05IXWMyW2NIXVtjSF1bY0hdbihbQ0gzXSljMj1P

> <s_epik_cmdline>
J2VwaWtfcHl0aG9uJywgJy1waCcsICc3LjAnLCAnLXRuJywgJzgnLCAnLW1hJywgJzIwMCcsICctbWV0YWxfYmluZGluZycsICctaW1hZScsICc8aW5maWxlLm1hZT4nLCAnLW9tYWUnLCAnPG91dGZpbGUubWFlPic=

> <r_lp_tautomer_probability>
1

> <r_epik_Ionization_Penalty>
0.0010885

> <r_epik_Ionization_Penalty_Charging>
0.00106921

> <r_epik_Ionization_Penalty_Neutral>
1.92865e-05

> <r_epik_State_Penalty>
0.000697184

> <r_epik_Charging_Adjusted_Penalty>
0.0017664

> <i_epik_Tot_Q>
1

> <i_epik_Tot_abs_Q>
1

> <r_epik_Metal_State_Penalty>
-0

> <b_epik_Metal_Only>
0

> <s_lp_Force_Field>
OPLS_2005

> <r_lp_Energy>
36.9818

> <b_lp_Chiralities_Consistent>
1

> <s_lp_Variant>
AV-unprocessed.smi:2799-3

> <Gold.Version>
5.8.1

> <Gold.Id.Protein>
6NUR|6NUR_protein|mol2

> <Gold.PLP.Fitness>
42.5737

> <Gold.PLP.PLP>
-39.3649

> <Gold.PLP.part.hbond>
-2.8513

> <Gold.PLP.part.metal>
0.0000

> <Gold.PLP.part.buried>
0.8169

> <Gold.PLP.part.nonpolar>
-36.6926

> <Gold.PLP.part.repulsive>
0.4791

> <Gold.PLP.ligand.clash>
0.0000

> <Gold.PLP.ligand.torsion>
1.6079

> <Gold.PLP.Chemscore.Hbond>
2.1175

> <Gold.PLP.Chemscore.CHOScore>
0.0000

> <Gold.PLP.Chemscore.Metal>
0.0000

> <Gold.Chemscore.Hbonds>
donor molecule, donor type, donor heavy atom, donor atom, acceptor molecule, acceptor atom, score
      L1  H     5    52       P1  7957  0.31
      L1  H    12    44       P1  7948  0.99
      L1  H    15    45       P1  7948  0.86

> <Gold.PLP.Chemscore.Internal.Correction>
0.0720

> <Gold.Rescore>
     Score         DG    S(hbond)    S(metal)    S(lipo)     H(rot)  DE(clash)    DE(int)     intcor
     17.32     -20.73       2.03        0.00     106.77       1.57       1.78       1.63       ----

> <Gold.Chemscore.Fitness>
17.3204

> <Gold.Chemscore.DG>
-20.7253

> <Gold.Chemscore.ZeroCoef>
-5.4800

> <Gold.Chemscore.Hbond>
2.0268

> <Gold.Chemscore.Metal>
0.0000

> <Gold.Chemscore.Lipo>
106.7665

> <Gold.Chemscore.Internal_Hbond>
0.0000

> <Gold.Chemscore.DEClash>
1.7757

> <Gold.Chemscore.DEInternal>
1.6292

> <Gold.Chemscore.Rot>
1.5688

> <Gold.Chemscore.Internal.Correction>
   9.000000E+99

> <Gold.Chemscore.Hbonds>
donor molecule, donor type, donor heavy atom, donor atom, acceptor molecule, acceptor atom, score
      L1  H     5    52       P1  7957  0.31
      L1  H    12    44       P1  7948  0.92
      L1  H    15    45       P1  7948  0.80

> <Gold.Chemscore.Hbond.Weighted>
-6.7697

> <Gold.Chemscore.Metal.Weighted>
-0.0000

> <Gold.Chemscore.Lipo.Weighted>
-12.4917

> <Gold.Chemscore.Internal_Hbond.Weighted>
0.0000

> <Gold.Chemscore.DEClash.Weighted>
1.7757

> <Gold.Chemscore.DEInternal.Weighted>
1.6292

> <Gold.Chemscore.Rot.Weighted>
4.0161

> <Gold.Chemscore.Internal.Correction.Weighted>
   9.000000E+99

> <Gold.Protein.RotatedTorsions>
[ 6907 6896 6895 6894 ] final  -29.67 input  -60.11 | X-H torsion
[ 7974 7965 7964 7962 ] final  -75.16 input  175.53 | X-H torsion
[ 8008 7997 7996 7995 ] final -124.28 input   59.86 | X-H torsion
[ 10167 10162 10161 10158 ] final   72.92 input  -65.29 | X-H torsion
[ 10718 10713 10712 10709 ] final -118.64 input   66.30 | X-H torsion
[ 10763 10752 10751 10750 ] final   -1.47 input  -60.55 | X-H torsion
[ 11005 11000 10999 10996 ] final   98.32 input  -57.11 | X-H torsion

> <Gold.Protein.ActiveResidues>
 VAL166  LYS551  ARG553  GLY616  TRP617  ASP618  TYR619  PRO620  LYS621  CYS622 
 ASP623  PHE694  ASN695  SER759  ASP760  ASP761  ALA762  ILE779  LEU786  VAL792 
 PHE793  MET794  SER795  GLU796  ALA797  LYS798  CYS799  TRP800  GLU811  SER814 

> <Gold.Protein.RotatedAtoms>
  151.1159  135.0053  159.8515 H   0  0  0  0  0  0  0  0  0  0  0  0  # atno 6907 bound_to 6896
  152.5445  134.1780  159.8634 H   0  0  0  0  0  0  0  0  0  0  0  0  # atno 6908 bound_to 6896
  151.1834  133.4666  159.2627 H   0  0  0  0  0  0  0  0  0  0  0  0  # atno 6909 bound_to 6896
  145.6296  140.9341  143.1094 H   0  0  0  0  0  0  0  0  0  0  0  0  # atno 7974 bound_to 7965
  155.1942  140.0414  157.2906 H   0  0  0  0  0  0  0  0  0  0  0  0  # atno 8008 bound_to 7997
  154.6118  140.2478  155.7631 H   0  0  0  0  0  0  0  0  0  0  0  0  # atno 8009 bound_to 7997
  156.2383  140.2913  156.0383 H   0  0  0  0  0  0  0  0  0  0  0  0  # atno 8010 bound_to 7997
  140.0301  144.5472  150.7514 H   0  0  0  0  0  0  0  0  0  0  0  0  # atno 10167 bound_to 10162
  156.1121  130.6257  150.9316 H   0  0  0  0  0  0  0  0  0  0  0  0  # atno 10718 bound_to 10713
  153.3453  135.6983  153.6833 H   0  0  0  0  0  0  0  0  0  0  0  0  # atno 10763 bound_to 10752
  153.5582  135.3540  155.2788 H   0  0  0  0  0  0  0  0  0  0  0  0  # atno 10764 bound_to 10752
  154.8644  135.4243  154.2675 H   0  0  0  0  0  0  0  0  0  0  0  0  # atno 10765 bound_to 10752
  139.8773  134.9043  156.4439 H   0  0  0  0  0  0  0  0  0  0  0  0  # atno 11005 bound_to 11000
  144.7198  139.8068  143.7386 LP  0  0  0  0  0  0  0  0  0  0  0  0  # atno 17320 bound_to 7965
  146.1367  139.4414  143.0135 LP  0  0  0  0  0  0  0  0  0  0  0  0  # atno 17321 bound_to 7965
  140.7306  143.2685  151.3966 LP  0  0  0  0  0  0  0  0  0  0  0  0  # atno 17342 bound_to 10162
  139.6082  144.1153  152.2271 LP  0  0  0  0  0  0  0  0  0  0  0  0  # atno 17343 bound_to 10162
  157.6303  131.0922  150.8455 LP  0  0  0  0  0  0  0  0  0  0  0  0  # atno 17370 bound_to 10713
  156.8564  130.5098  149.5307 LP  0  0  0  0  0  0  0  0  0  0  0  0  # atno 17371 bound_to 10713
  140.8980  133.7800  155.9647 LP  0  0  0  0  0  0  0  0  0  0  0  0  # atno 17394 bound_to 11000
  140.8682  134.2758  157.5203 LP  0  0  0  0  0  0  0  0  0  0  0  0  # atno 17395 bound_to 11000

$$$$
