AV-unprocessed.smi:2867|AV-procd|sdf|11026|dock7
  -GOLD-   2272015493D 1   1.00000     0.00000
 Structure written by MMmdl.
 40 42  0  0  0  0  0  0  0  0  3 V2000
  150.0004  137.3333  159.0426 C   0  0  0  0  0  0  0  0  0  0  0  0
  150.6180  138.0410  157.9828 O   0  0  0  0  0  0  0  0  0  0  0  0
  151.7158  138.8282  158.4167 C   0  0  0  0  0  0  0  0  0  0  0  0
  152.2064  139.7034  157.2552 C   0  0  0  0  0  0  0  0  0  0  0  0
  151.1297  140.5412  156.7032 N   0  0  0  0  0  0  0  0  0  0  0  0
  150.7494  141.8203  156.9835 C   0  0  0  0  0  0  0  0  0  0  0  0
  151.3710  142.7298  157.9576 C   0  0  0  0  0  0  0  0  0  0  0  0
  151.4934  144.1060  157.6660 C   0  0  0  0  0  0  0  0  0  0  0  0
  152.0829  144.9884  158.5920 C   0  0  0  0  0  0  0  0  0  0  0  0
  152.5626  144.5002  159.8214 C   0  0  0  0  0  0  0  0  0  0  0  0
  152.4525  143.1297  160.1207 C   0  0  0  0  0  0  0  0  0  0  0  0
  152.9150  142.6547  161.3013 F   0  0  0  0  0  0  0  0  0  0  0  0
  151.8623  142.2513  159.1918 C   0  0  0  0  0  0  0  0  0  0  0  0
  149.6540  142.1219  156.2368 N   0  3  0  0  0  0  0  0  0  0  0  0
  149.3232  141.0159  155.4522 C   0  0  0  0  0  0  0  0  0  0  0  0
  148.2963  140.8326  154.5333 C   0  0  0  0  0  0  0  0  0  0  0  0
  148.2307  139.5690  153.9099 C   0  0  0  0  0  0  0  0  0  0  0  0
  146.9297  139.2602  152.7198 S   0  0  0  0  0  0  0  0  0  0  0  0
  147.8051  138.3746  151.6957 N   0  5  0  0  0  0  0  0  0  0  0  0
  145.8988  138.4775  153.4186 O   0  0  0  0  0  0  0  0  0  0  0  0
  146.5537  140.5701  152.1655 O   0  0  0  0  0  0  0  0  0  0  0  0
  149.1571  138.5455  154.2031 C   0  0  0  0  0  0  0  0  0  0  0  0
  150.1949  138.7459  155.1369 C   0  0  0  0  0  0  0  0  0  0  0  0
  150.2592  139.9979  155.7492 C   0  0  0  0  0  0  0  0  0  0  0  0
  149.1668  136.7487  158.6537 H   0  0  0  0  0  0  0  0  0  0  0  0
  149.6098  138.0158  159.7985 H   0  0  0  0  0  0  0  0  0  0  0  0
  150.7015  136.6462  159.5182 H   0  0  0  0  0  0  0  0  0  0  0  0
  151.4155  139.4596  159.2542 H   0  0  0  0  0  0  0  0  0  0  0  0
  152.5242  138.1835  158.7657 H   0  0  0  0  0  0  0  0  0  0  0  0
  153.0077  140.3566  157.5964 H   0  0  0  0  0  0  0  0  0  0  0  0
  152.6326  139.0940  156.4582 H   0  0  0  0  0  0  0  0  0  0  0  0
  151.1243  144.4922  156.7269 H   0  0  0  0  0  0  0  0  0  0  0  0
  152.1661  146.0397  158.3592 H   0  0  0  0  0  0  0  0  0  0  0  0
  153.0153  145.1752  160.5329 H   0  0  0  0  0  0  0  0  0  0  0  0
  151.7908  141.2001  159.4300 H   0  0  0  0  0  0  0  0  0  0  0  0
  147.5831  141.6102  154.3030 H   0  0  0  0  0  0  0  0  0  0  0  0
  148.1769  137.5711  152.2160 H   0  0  0  0  0  0  0  0  0  0  0  0
  149.0747  137.5916  153.7030 H   0  0  0  0  0  0  0  0  0  0  0  0
  150.8980  137.9565  155.3563 H   0  0  0  0  0  0  0  0  0  0  0  0
  149.1718  143.0110  156.2641 H   0  0  0  0  0  0  0  0  0  0  0  0
  1  2  1  0  0  0  0
  1 25  1  0  0  0  0
  1 26  1  0  0  0  0
  1 27  1  0  0  0  0
  2  3  1  0  0  0  0
  3  4  1  0  0  0  0
  3 28  1  0  0  0  0
  3 29  1  0  0  0  0
  4  5  1  0  0  0  0
  4 30  1  0  0  0  0
  4 31  1  0  0  0  0
  5 24  1  0  0  0  0
  5  6  1  0  0  0  0
  6  7  1  0  0  0  0
  6 14  2  0  0  0  0
  7 13  1  0  0  0  0
  7  8  2  0  0  0  0
  8  9  1  0  0  0  0
  8 32  1  0  0  0  0
  9 10  2  0  0  0  0
  9 33  1  0  0  0  0
 10 11  1  0  0  0  0
 10 34  1  0  0  0  0
 11 12  1  0  0  0  0
 11 13  2  0  0  0  0
 13 35  1  0  0  0  0
 14 15  1  0  0  0  0
 14 40  1  0  0  0  0
 15 24  2  0  0  0  0
 15 16  1  0  0  0  0
 16 17  2  0  0  0  0
 16 36  1  0  0  0  0
 17 18  1  0  0  0  0
 17 22  1  0  0  0  0
 18 19  1  0  0  0  0
 18 20  2  0  0  0  0
 18 21  2  0  0  0  0
 19 37  1  0  0  0  0
 22 23  2  0  0  0  0
 22 38  1  0  0  0  0
 23 24  1  0  0  0  0
 23 39  1  0  0  0  0
M  CHG  1  14   1
M  CHG  1  19  -1
M  END
> <s_m_source_file>
AV-unprocessed.smi

> <i_m_source_file_index>
2867

> <i_lp_mmshare_version>
43012

> <i_f3d_flags>
0

> <s_epik_input>
W05IMl1TKD1PKSg9TyljKFtjSF0xKVtjSF1bY0hdYyhjMTIpbihbQ0gyXVtDSDJdT1tDSDNdKWMobjIpLWMzW2NIXVtjSF1bY0hdYyhGKVtjSF0z

> <s_epik_cmdline>
J2VwaWtfcHl0aG9uJywgJy1waCcsICc3LjAnLCAnLXRuJywgJzgnLCAnLW1hJywgJzIwMCcsICctbWV0YWxfYmluZGluZycsICctaW1hZScsICc8aW5maWxlLm1hZT4nLCAnLW9tYWUnLCAnPG91dGZpbGUubWFlPic=

> <r_epik_Ionization_Penalty>
2.60795

> <r_epik_Ionization_Penalty_Charging>
2.60795

> <r_epik_Ionization_Penalty_Neutral>
2.51e-12

> <r_epik_State_Penalty>
3.58678

> <r_epik_Charging_Adjusted_Penalty>
6.19473

> <i_epik_Tot_Q>
0

> <i_epik_Tot_abs_Q>
2

> <r_epik_Metal_State_Penalty>
1.73828

> <b_epik_Metal_Only>
1

> <s_lp_Force_Field>
OPLS_2005

> <r_lp_Energy>
13.6429

> <b_lp_Chiralities_Consistent>
1

> <s_lp_Variant>
AV-unprocessed.smi:2867-4

> <Gold.Version>
5.8.1

> <Gold.Id.Protein>
6NUR|6NUR_protein|mol2

> <Gold.PLP.Fitness>
54.5817

> <Gold.PLP.PLP>
-45.4874

> <Gold.PLP.part.hbond>
-3.4710

> <Gold.PLP.part.metal>
0.0000

> <Gold.PLP.part.buried>
-2.8498

> <Gold.PLP.part.nonpolar>
-42.8589

> <Gold.PLP.part.repulsive>
2.5025

> <Gold.PLP.ligand.clash>
0.0000

> <Gold.PLP.ligand.torsion>
2.1028

> <Gold.PLP.Chemscore.Hbond>
3.7280

> <Gold.PLP.Chemscore.CHOScore>
0.0000

> <Gold.PLP.Chemscore.Metal>
0.0000

> <Gold.Chemscore.Hbonds>
donor molecule, donor type, donor heavy atom, donor atom, acceptor molecule, acceptor atom, score
      L1  H    14    40       P1  8028  2.00
      L1  H    19    37       P1  7948  0.69
      P1  H  7954  7966       L1    19  0.98

> <Gold.PLP.Chemscore.Internal.Correction>
2.1160

> <Gold.Rescore>
     Score         DG    S(hbond)    S(metal)    S(lipo)     H(rot)  DE(clash)    DE(int)     intcor
     18.08     -23.10       2.17        0.00     120.40       1.45       1.16       3.86       ----

> <Gold.Chemscore.Fitness>
18.0832

> <Gold.Chemscore.DG>
-23.0977

> <Gold.Chemscore.ZeroCoef>
-5.4800

> <Gold.Chemscore.Hbond>
2.1709

> <Gold.Chemscore.Metal>
0.0000

> <Gold.Chemscore.Lipo>
120.3981

> <Gold.Chemscore.Internal_Hbond>
0.0000

> <Gold.Chemscore.DEClash>
1.1584

> <Gold.Chemscore.DEInternal>
3.8561

> <Gold.Chemscore.Rot>
1.4530

> <Gold.Chemscore.Internal.Correction>
   9.000000E+99

> <Gold.Chemscore.Hbonds>
donor molecule, donor type, donor heavy atom, donor atom, acceptor molecule, acceptor atom, score
      L1  H    14    40       P1  8028  0.96
      L1  H    19    37       P1  7948  0.68
      P1  H  7954  7966       L1    19  0.32

> <Gold.Chemscore.Hbond.Weighted>
-7.2508

> <Gold.Chemscore.Metal.Weighted>
-0.0000

> <Gold.Chemscore.Lipo.Weighted>
-14.0866

> <Gold.Chemscore.Internal_Hbond.Weighted>
0.0000

> <Gold.Chemscore.DEClash.Weighted>
1.1584

> <Gold.Chemscore.DEInternal.Weighted>
3.8561

> <Gold.Chemscore.Rot.Weighted>
3.7196

> <Gold.Chemscore.Internal.Correction.Weighted>
   9.000000E+99

> <Gold.Protein.RotatedTorsions>
[ 6907 6896 6895 6894 ] final   70.17 input  -60.11 | X-H torsion
[ 7974 7965 7964 7962 ] final -110.06 input  175.53 | X-H torsion
[ 8008 7997 7996 7995 ] final   58.20 input   59.86 | X-H torsion
[ 10167 10162 10161 10158 ] final  159.42 input  -65.29 | X-H torsion
[ 10718 10713 10712 10709 ] final -144.65 input   66.30 | X-H torsion
[ 10763 10752 10751 10750 ] final  -50.61 input  -60.55 | X-H torsion
[ 11005 11000 10999 10996 ] final  -11.52 input  -57.11 | X-H torsion

> <Gold.Protein.ActiveResidues>
 VAL166  LYS551  ARG553  GLY616  TRP617  ASP618  TYR619  PRO620  LYS621  CYS622 
 ASP623  PHE694  ASN695  SER759  ASP760  ASP761  ALA762  ILE779  LEU786  VAL792 
 PHE793  MET794  SER795  GLU796  ALA797  LYS798  CYS799  TRP800  GLU811  SER814 

> <Gold.Protein.RotatedAtoms>
  152.4733  134.4908  159.9694 H   0  0  0  0  0  0  0  0  0  0  0  0  # atno 6907 bound_to 6896
  151.4929  133.3515  159.2864 H   0  0  0  0  0  0  0  0  0  0  0  0  # atno 6908 bound_to 6896
  150.8755  134.8164  159.7248 H   0  0  0  0  0  0  0  0  0  0  0  0  # atno 6909 bound_to 6896
  145.1729  140.8934  143.3525 H   0  0  0  0  0  0  0  0  0  0  0  0  # atno 7974 bound_to 7965
  155.5461  140.3485  155.4458 H   0  0  0  0  0  0  0  0  0  0  0  0  # atno 8008 bound_to 7997
  156.0617  140.1341  156.9960 H   0  0  0  0  0  0  0  0  0  0  0  0  # atno 8009 bound_to 7997
  154.4483  140.0984  156.6511 H   0  0  0  0  0  0  0  0  0  0  0  0  # atno 8010 bound_to 7997
  139.4832  144.4732  151.8548 H   0  0  0  0  0  0  0  0  0  0  0  0  # atno 10167 bound_to 10162
  156.3727  130.7796  151.1979 H   0  0  0  0  0  0  0  0  0  0  0  0  # atno 10718 bound_to 10713
  154.1132  135.6546  153.4889 H   0  0  0  0  0  0  0  0  0  0  0  0  # atno 10763 bound_to 10752
  153.0249  135.5252  154.7171 H   0  0  0  0  0  0  0  0  0  0  0  0  # atno 10764 bound_to 10752
  154.6357  135.2982  155.0134 H   0  0  0  0  0  0  0  0  0  0  0  0  # atno 10765 bound_to 10752
  140.7561  133.8553  155.9085 H   0  0  0  0  0  0  0  0  0  0  0  0  # atno 11005 bound_to 11000
  145.0214  139.3421  143.6070 LP  0  0  0  0  0  0  0  0  0  0  0  0  # atno 17320 bound_to 7965
  146.3466  139.9516  142.8728 LP  0  0  0  0  0  0  0  0  0  0  0  0  # atno 17321 bound_to 7965
  140.4202  144.2253  150.5887 LP  0  0  0  0  0  0  0  0  0  0  0  0  # atno 17342 bound_to 10162
  140.4881  143.2356  151.8858 LP  0  0  0  0  0  0  0  0  0  0  0  0  # atno 17343 bound_to 10162
  157.7485  131.0367  150.4423 LP  0  0  0  0  0  0  0  0  0  0  0  0  # atno 17370 bound_to 10713
  156.4653  130.4041  149.6551 LP  0  0  0  0  0  0  0  0  0  0  0  0  # atno 17371 bound_to 10713
  140.9706  134.1536  157.4579 LP  0  0  0  0  0  0  0  0  0  0  0  0  # atno 17394 bound_to 11000
  139.8779  134.9977  156.5861 LP  0  0  0  0  0  0  0  0  0  0  0  0  # atno 17395 bound_to 11000

$$$$
