AV-unprocessed.smi:526|AV-procd|sdf|2813|dock2
  -GOLD-   2262023293D 1   1.00000     0.00000
 Structure written by MMmdl.
 30 30  0  0  0  0  0  0  0  0  2 V2000
  150.7835  144.2961  159.5184 C   0  0  0  0  0  0  0  0  0  0  0  0
  151.5646  143.7516  158.5711 C   0  0  0  0  0  0  0  0  0  0  0  0
  152.6533  144.5452  157.8738 C   0  0  0  0  0  0  0  0  0  0  0  0
  151.4117  142.3068  158.1327 C   0  0  0  0  0  0  0  0  0  0  0  0
  151.0192  142.1561  156.3632 S   0  0  0  0  0  0  0  0  0  0  0  0
  150.6940  140.4100  156.1717 C   0  0  0  0  0  0  0  0  0  0  0  0
  150.4716  139.7499  157.3078 N   0  0  0  0  0  0  0  0  0  0  0  0
  150.2208  138.4261  157.2027 C   0  0  0  0  0  0  0  0  0  0  0  0
  149.9750  137.6948  158.5100 C   0  0  0  0  0  0  0  0  0  0  0  0
  150.1893  137.7717  155.9446 C   0  0  0  0  0  0  0  0  0  0  0  0
  149.9108  136.2760  155.8132 C   0  0  0  0  0  0  0  0  0  0  0  0
  151.0618  135.4950  156.4563 C   0  0  0  0  0  0  0  0  0  0  0  0
  152.1874  135.6086  155.9238 O   0  0  0  0  0  0  0  0  0  0  0  0
  150.8054  134.8053  157.4683 O   0  5  0  0  0  0  0  0  0  0  0  0
  150.4420  138.5855  154.8118 C   0  0  0  0  0  0  0  0  0  0  0  0
  150.4363  138.0553  153.5542 O   0  0  0  0  0  0  0  0  0  0  0  0
  150.6918  139.9068  154.9355 N   0  0  0  0  0  0  0  0  0  0  0  0
  149.7052  137.4755  153.4080 H   0  0  0  0  0  0  0  0  0  0  0  0
  150.9040  145.3262  159.8204 H   0  0  0  0  0  0  0  0  0  0  0  0
  150.0104  143.7206  160.0064 H   0  0  0  0  0  0  0  0  0  0  0  0
  152.4597  144.6044  156.8027 H   0  0  0  0  0  0  0  0  0  0  0  0
  153.6225  144.0678  158.0216 H   0  0  0  0  0  0  0  0  0  0  0  0
  152.7143  145.5625  158.2619 H   0  0  0  0  0  0  0  0  0  0  0  0
  152.3365  141.7723  158.3522 H   0  0  0  0  0  0  0  0  0  0  0  0
  150.6178  141.8294  158.7087 H   0  0  0  0  0  0  0  0  0  0  0  0
  148.9565  137.3083  158.5438 H   0  0  0  0  0  0  0  0  0  0  0  0
  150.1126  138.3555  159.3668 H   0  0  0  0  0  0  0  0  0  0  0  0
  150.6673  136.8600  158.6188 H   0  0  0  0  0  0  0  0  0  0  0  0
  149.8172  135.9851  154.7670 H   0  0  0  0  0  0  0  0  0  0  0  0
  148.9633  136.0201  156.2881 H   0  0  0  0  0  0  0  0  0  0  0  0
  1  2  2  0  0  0  0
  1 19  1  0  0  0  0
  1 20  1  0  0  0  0
  2  3  1  0  0  0  0
  2  4  1  0  0  0  0
  3 21  1  0  0  0  0
  3 22  1  0  0  0  0
  3 23  1  0  0  0  0
  4 24  1  0  0  0  0
  4 25  1  0  0  0  0
  4  5  1  0  0  0  0
  5  6  1  0  0  0  0
  6 17  1  0  0  0  0
  6  7  2  0  0  0  0
  7  8  1  0  0  0  0
  8 10  2  0  0  0  0
  8  9  1  0  0  0  0
  9 26  1  0  0  0  0
  9 27  1  0  0  0  0
  9 28  1  0  0  0  0
 10 15  1  0  0  0  0
 10 11  1  0  0  0  0
 11 12  1  0  0  0  0
 11 29  1  0  0  0  0
 11 30  1  0  0  0  0
 12 13  2  0  0  0  0
 12 14  1  0  0  0  0
 15 17  2  0  0  0  0
 15 16  1  0  0  0  0
 16 18  1  0  0  0  0
M  CHG  1  14  -1
M  END
> <s_m_source_file>
AV-unprocessed.smi

> <i_m_source_file_index>
526

> <i_lp_mmshare_version>
43012

> <i_f3d_flags>
0

> <s_epik_input>
W0NIMl09QyhbQ0gzXSlbQ0gyXVNjMW5jKFtDSDNdKWMoYyg9TylbbkhdMSlbQ0gyXUMoPU8pW09IXQ==

> <s_epik_cmdline>
J2VwaWtfcHl0aG9uJywgJy1waCcsICc3LjAnLCAnLXRuJywgJzgnLCAnLW1hJywgJzIwMCcsICctbWV0YWxfYmluZGluZycsICctaW1hZScsICc8aW5maWxlLm1hZT4nLCAnLW9tYWUnLCAnPG91dGZpbGUubWFlPic=

> <r_lp_tautomer_probability>
0.0660145

> <r_epik_Ionization_Penalty>
2.37967

> <r_epik_Ionization_Penalty_Charging>
0.000421182

> <r_epik_Ionization_Penalty_Neutral>
2.37925

> <r_epik_State_Penalty>
1.68674

> <r_epik_Charging_Adjusted_Penalty>
1.68716

> <i_epik_Tot_Q>
-1

> <i_epik_Tot_abs_Q>
1

> <r_epik_Metal_State_Penalty>
1.80034

> <b_epik_Metal_Only>
0

> <s_lp_Force_Field>
OPLS_2005

> <r_lp_Energy>
-7.53164

> <b_lp_Chiralities_Consistent>
1

> <s_lp_Variant>
AV-unprocessed.smi:526-3

> <Gold.Version>
5.8.1

> <Gold.Id.Protein>
6NUR|6NUR_protein|mol2

> <Gold.PLP.Fitness>
44.0221

> <Gold.PLP.PLP>
-28.2535

> <Gold.PLP.part.hbond>
-5.2877

> <Gold.PLP.part.metal>
0.0000

> <Gold.PLP.part.buried>
-5.1697

> <Gold.PLP.part.nonpolar>
-18.9052

> <Gold.PLP.part.repulsive>
0.0631

> <Gold.PLP.ligand.clash>
0.0000

> <Gold.PLP.ligand.torsion>
0.2830

> <Gold.PLP.Chemscore.Hbond>
5.4362

> <Gold.PLP.Chemscore.CHOScore>
0.0000

> <Gold.PLP.Chemscore.Metal>
0.0000

> <Gold.Chemscore.Hbonds>
donor molecule, donor type, donor heavy atom, donor atom, acceptor molecule, acceptor atom, score
      L1  H    16    18       P1  7948  0.63
      P1  H  6896  6908       L1    14  0.77
      P1  H  7989  7998       L1    17  1.00
      P1  H 10752 10764       L1    13  0.85

> <Gold.PLP.Chemscore.Internal.Correction>
0.0259

> <Gold.Rescore>
     Score         DG    S(hbond)    S(metal)    S(lipo)     H(rot)  DE(clash)    DE(int)     intcor
     15.95     -16.39       3.26        0.00      64.12       2.92       0.01       0.42       ----

> <Gold.Chemscore.Fitness>
15.9534

> <Gold.Chemscore.DG>
-16.3914

> <Gold.Chemscore.ZeroCoef>
-5.4800

> <Gold.Chemscore.Hbond>
3.2578

> <Gold.Chemscore.Metal>
0.0000

> <Gold.Chemscore.Lipo>
64.1232

> <Gold.Chemscore.Internal_Hbond>
0.0000

> <Gold.Chemscore.DEClash>
0.0141

> <Gold.Chemscore.DEInternal>
0.4239

> <Gold.Chemscore.Rot>
2.9187

> <Gold.Chemscore.Internal.Correction>
   9.000000E+99

> <Gold.Chemscore.Hbonds>
donor molecule, donor type, donor heavy atom, donor atom, acceptor molecule, acceptor atom, score
      L1  H    16    18       P1  7948  0.46
      P1  H  6896  6908       L1    14  0.37
      P1  H  7989  7998       L1    17  0.93
      P1  H 10752 10764       L1    13  0.41

> <Gold.Chemscore.Hbond.Weighted>
-10.8810

> <Gold.Chemscore.Metal.Weighted>
-0.0000

> <Gold.Chemscore.Lipo.Weighted>
-7.5024

> <Gold.Chemscore.Internal_Hbond.Weighted>
0.0000

> <Gold.Chemscore.DEClash.Weighted>
0.0141

> <Gold.Chemscore.DEInternal.Weighted>
0.4239

> <Gold.Chemscore.Rot.Weighted>
7.4720

> <Gold.Chemscore.Internal.Correction.Weighted>
   9.000000E+99

> <Gold.Protein.RotatedTorsions>
[ 6907 6896 6895 6894 ] final  147.79 input  -60.11 | X-H torsion
[ 7974 7965 7964 7962 ] final  -53.36 input  175.53 | X-H torsion
[ 8008 7997 7996 7995 ] final    3.48 input   59.86 | X-H torsion
[ 10167 10162 10161 10158 ] final  -48.91 input  -65.29 | X-H torsion
[ 10718 10713 10712 10709 ] final  -11.79 input   66.30 | X-H torsion
[ 10763 10752 10751 10750 ] final  -25.57 input  -60.55 | X-H torsion
[ 11005 11000 10999 10996 ] final  -64.93 input  -57.11 | X-H torsion

> <Gold.Protein.ActiveResidues>
 VAL166  LYS551  ARG553  GLY616  TRP617  ASP618  TYR619  PRO620  LYS621  CYS622 
 ASP623  PHE694  ASN695  SER759  ASP760  ASP761  ALA762  ILE779  LEU786  VAL792 
 PHE793  MET794  SER795  GLU796  ALA797  LYS798  CYS799  TRP800  GLU811  SER814 

> <Gold.Protein.RotatedAtoms>
  152.1501  133.4517  159.4809 H   0  0  0  0  0  0  0  0  0  0  0  0  # atno 6907 bound_to 6896
  150.6895  134.2199  159.4401 H   0  0  0  0  0  0  0  0  0  0  0  0  # atno 6908 bound_to 6896
  152.0095  134.9883  160.0618 H   0  0  0  0  0  0  0  0  0  0  0  0  # atno 6909 bound_to 6896
  145.8977  140.8020  142.9759 H   0  0  0  0  0  0  0  0  0  0  0  0  # atno 7974 bound_to 7965
  154.7042  140.2679  155.6690 H   0  0  0  0  0  0  0  0  0  0  0  0  # atno 8008 bound_to 7997
  156.2775  140.2766  156.1587 H   0  0  0  0  0  0  0  0  0  0  0  0  # atno 8009 bound_to 7997
  155.0723  140.0372  157.2602 H   0  0  0  0  0  0  0  0  0  0  0  0  # atno 8010 bound_to 7997
  140.6709  143.2720  151.4139 H   0  0  0  0  0  0  0  0  0  0  0  0  # atno 10167 bound_to 10162
  156.6539  130.4962  149.6053 H   0  0  0  0  0  0  0  0  0  0  0  0  # atno 10718 bound_to 10713
  153.7020  135.6956  153.5060 H   0  0  0  0  0  0  0  0  0  0  0  0  # atno 10763 bound_to 10752
  153.2335  135.4329  155.0620 H   0  0  0  0  0  0  0  0  0  0  0  0  # atno 10764 bound_to 10752
  154.8341  135.3490  154.6559 H   0  0  0  0  0  0  0  0  0  0  0  0  # atno 10765 bound_to 10752
  141.1439  133.6673  156.5908 H   0  0  0  0  0  0  0  0  0  0  0  0  # atno 11005 bound_to 11000
  144.6734  140.1628  143.7421 LP  0  0  0  0  0  0  0  0  0  0  0  0  # atno 17320 bound_to 7965
  145.8830  139.2333  143.1594 LP  0  0  0  0  0  0  0  0  0  0  0  0  # atno 17321 bound_to 7965
  139.5978  144.1361  152.2163 LP  0  0  0  0  0  0  0  0  0  0  0  0  # atno 17342 bound_to 10162
  140.0735  144.5759  150.7174 LP  0  0  0  0  0  0  0  0  0  0  0  0  # atno 17343 bound_to 10162
  156.2063  130.6651  151.1222 LP  0  0  0  0  0  0  0  0  0  0  0  0  # atno 17370 bound_to 10713
  157.7132  131.0723  150.6425 LP  0  0  0  0  0  0  0  0  0  0  0  0  # atno 17371 bound_to 10713
  140.3764  134.7561  157.4633 LP  0  0  0  0  0  0  0  0  0  0  0  0  # atno 17394 bound_to 11000
  140.0671  134.5914  155.8683 LP  0  0  0  0  0  0  0  0  0  0  0  0  # atno 17395 bound_to 11000

$$$$
