AV-unprocessed.smi:2540|AV-procd|sdf|9987|dock5
  -GOLD-   2272014 33D 1   1.00000     0.00000
 Structure written by MMmdl.
 28 29  0  0  0  0  0  0  0  0  2 V2000
  150.8747  138.3216  154.3270 C   0  0  0  0  0  0  0  0  0  0  0  0
  151.3002  139.6195  154.7025 O   0  0  0  0  0  0  0  0  0  0  0  0
  152.1776  139.6044  155.8169 C   0  0  0  0  0  0  0  0  0  0  0  0
  151.3798  139.7947  157.1149 C   0  0  0  0  0  0  0  0  0  0  0  0
  151.1753  141.2135  157.4428 N   0  0  0  0  0  0  0  0  0  0  0  0
  150.4600  142.1789  156.8107 C   0  0  0  0  0  0  0  0  0  0  0  0
  149.7226  142.0038  155.6412 N   0  0  0  0  0  0  0  0  0  0  0  0
  150.5712  143.3487  157.4891 N   0  3  0  0  0  0  0  0  0  0  0  0
  151.3928  143.1324  158.5997 C   0  0  0  0  0  0  0  0  0  0  0  0
  151.8155  144.0041  159.5986 C   0  0  0  0  0  0  0  0  0  0  0  0
  152.6605  143.4679  160.5923 C   0  0  0  0  0  0  0  0  0  0  0  0
  153.0548  142.1144  160.5705 C   0  0  0  0  0  0  0  0  0  0  0  0
  152.6196  141.2366  159.5560 C   0  0  0  0  0  0  0  0  0  0  0  0
  151.7837  141.7709  158.5758 C   0  0  0  0  0  0  0  0  0  0  0  0
  150.2046  138.3894  153.4700 H   0  0  0  0  0  0  0  0  0  0  0  0
  150.3338  137.8338  155.1389 H   0  0  0  0  0  0  0  0  0  0  0  0
  151.7216  137.6952  154.0441 H   0  0  0  0  0  0  0  0  0  0  0  0
  152.7201  138.6582  155.8508 H   0  0  0  0  0  0  0  0  0  0  0  0
  152.9170  140.4005  155.7196 H   0  0  0  0  0  0  0  0  0  0  0  0
  150.3969  139.3326  157.0193 H   0  0  0  0  0  0  0  0  0  0  0  0
  151.8707  139.3005  157.9531 H   0  0  0  0  0  0  0  0  0  0  0  0
  149.2111  142.7637  155.2158 H   0  0  0  0  0  0  0  0  0  0  0  0
  149.6761  141.1073  155.1782 H   0  0  0  0  0  0  0  0  0  0  0  0
  151.5177  145.0421  159.6180 H   0  0  0  0  0  0  0  0  0  0  0  0
  153.0155  144.1084  161.3865 H   0  0  0  0  0  0  0  0  0  0  0  0
  153.7062  141.7411  161.3474 H   0  0  0  0  0  0  0  0  0  0  0  0
  152.9337  140.2034  159.5464 H   0  0  0  0  0  0  0  0  0  0  0  0
  150.1285  144.2168  157.2166 H   0  0  0  0  0  0  0  0  0  0  0  0
  1  2  1  0  0  0  0
  1 15  1  0  0  0  0
  1 16  1  0  0  0  0
  1 17  1  0  0  0  0
  2  3  1  0  0  0  0
  3  4  1  0  0  0  0
  3 18  1  0  0  0  0
  3 19  1  0  0  0  0
  4  5  1  0  0  0  0
  4 20  1  0  0  0  0
  4 21  1  0  0  0  0
  5 14  1  0  0  0  0
  5  6  1  0  0  0  0
  6  7  1  0  0  0  0
  6  8  2  0  0  0  0
  7 22  1  0  0  0  0
  7 23  1  0  0  0  0
  8  9  1  0  0  0  0
  8 28  1  0  0  0  0
  9 14  2  0  0  0  0
  9 10  1  0  0  0  0
 10 11  2  0  0  0  0
 10 24  1  0  0  0  0
 11 12  1  0  0  0  0
 11 25  1  0  0  0  0
 12 13  2  0  0  0  0
 12 26  1  0  0  0  0
 13 14  1  0  0  0  0
 13 27  1  0  0  0  0
M  CHG  1   8   1
M  END
> <s_m_source_file>
AV-unprocessed.smi

> <i_m_source_file_index>
2540

> <i_lp_mmshare_version>
43012

> <i_f3d_flags>
0

> <s_epik_input>
W0NIM11PW0NIMl1bQ0gyXW4oYyhuMSlbTkgyXSljKGMxMilbY0hdW2NIXVtjSF1bY0hdMg==

> <s_epik_cmdline>
J2VwaWtfcHl0aG9uJywgJy1waCcsICc3LjAnLCAnLXRuJywgJzgnLCAnLW1hJywgJzIwMCcsICctbWV0YWxfYmluZGluZycsICctaW1hZScsICc8aW5maWxlLm1hZT4nLCAnLW9tYWUnLCAnPG91dGZpbGUubWFlPic=

> <r_epik_Ionization_Penalty>
0.266071

> <r_epik_Ionization_Penalty_Charging>
0.266069

> <r_epik_Ionization_Penalty_Neutral>
1.55827e-06

> <r_epik_State_Penalty>
0.258006

> <r_epik_Charging_Adjusted_Penalty>
0.524075

> <i_epik_Tot_Q>
1

> <i_epik_Tot_abs_Q>
1

> <r_epik_Metal_State_Penalty>
3.73495

> <b_epik_Metal_Only>
0

> <s_lp_Force_Field>
OPLS_2005

> <r_lp_Energy>
14.4512

> <b_lp_Chiralities_Consistent>
1

> <s_lp_Variant>
AV-unprocessed.smi:2540-1

> <Gold.Version>
5.8.1

> <Gold.Id.Protein>
6NUR|6NUR_protein|mol2

> <Gold.PLP.Fitness>
44.5758

> <Gold.PLP.PLP>
-33.8578

> <Gold.PLP.part.hbond>
-3.0000

> <Gold.PLP.part.metal>
0.0000

> <Gold.PLP.part.buried>
-4.7762

> <Gold.PLP.part.nonpolar>
-26.8936

> <Gold.PLP.part.repulsive>
0.2286

> <Gold.PLP.ligand.clash>
0.0000

> <Gold.PLP.ligand.torsion>
0.4150

> <Gold.PLP.Chemscore.Hbond>
3.8480

> <Gold.PLP.Chemscore.CHOScore>
0.0000

> <Gold.PLP.Chemscore.Metal>
0.0000

> <Gold.Chemscore.Hbonds>
donor molecule, donor type, donor heavy atom, donor atom, acceptor molecule, acceptor atom, score
      L1  H     7    22       P1  8028  1.47
      L1  H     8    28       P1  8028  1.38
      P1  H  7989  7998       L1     2  1.00

> <Gold.PLP.Chemscore.Internal.Correction>
0.0040

> <Gold.Rescore>
     Score         DG    S(hbond)    S(metal)    S(lipo)     H(rot)  DE(clash)    DE(int)     intcor
     18.01     -18.53       2.16        0.00      82.45       1.49       0.00       0.52       ----

> <Gold.Chemscore.Fitness>
18.0097

> <Gold.Chemscore.DG>
-18.5250

> <Gold.Chemscore.ZeroCoef>
-5.4800

> <Gold.Chemscore.Hbond>
2.1627

> <Gold.Chemscore.Metal>
0.0000

> <Gold.Chemscore.Lipo>
82.4473

> <Gold.Chemscore.Internal_Hbond>
0.0000

> <Gold.Chemscore.DEClash>
0.0000

> <Gold.Chemscore.DEInternal>
0.5153

> <Gold.Chemscore.Rot>
1.4940

> <Gold.Chemscore.Internal.Correction>
   9.000000E+99

> <Gold.Chemscore.Hbonds>
donor molecule, donor type, donor heavy atom, donor atom, acceptor molecule, acceptor atom, score
      L1  H     7    22       P1  8028  0.67
      L1  H     8    28       P1  8028  0.47
      P1  H  7989  7998       L1     2  0.89

> <Gold.Chemscore.Hbond.Weighted>
-7.2234

> <Gold.Chemscore.Metal.Weighted>
-0.0000

> <Gold.Chemscore.Lipo.Weighted>
-9.6463

> <Gold.Chemscore.Internal_Hbond.Weighted>
0.0000

> <Gold.Chemscore.DEClash.Weighted>
0.0000

> <Gold.Chemscore.DEInternal.Weighted>
0.5153

> <Gold.Chemscore.Rot.Weighted>
3.8247

> <Gold.Chemscore.Internal.Correction.Weighted>
   9.000000E+99

> <Gold.Protein.RotatedTorsions>
[ 6907 6896 6895 6894 ] final   49.75 input  -60.11 | X-H torsion
[ 7974 7965 7964 7962 ] final   10.95 input  175.53 | X-H torsion
[ 8008 7997 7996 7995 ] final   82.12 input   59.86 | X-H torsion
[ 10167 10162 10161 10158 ] final   58.82 input  -65.29 | X-H torsion
[ 10718 10713 10712 10709 ] final -139.88 input   66.30 | X-H torsion
[ 10763 10752 10751 10750 ] final   -6.91 input  -60.55 | X-H torsion
[ 11005 11000 10999 10996 ] final -168.62 input  -57.11 | X-H torsion

> <Gold.Protein.ActiveResidues>
 VAL166  LYS551  ARG553  GLY616  TRP617  ASP618  TYR619  PRO620  LYS621  CYS622 
 ASP623  PHE694  ASN695  SER759  ASP760  ASP761  ALA762  ILE779  LEU786  VAL792 
 PHE793  MET794  SER795  GLU796  ALA797  LYS798  CYS799  TRP800  GLU811  SER814 

> <Gold.Protein.RotatedAtoms>
  152.2942  134.7686  160.0371 H   0  0  0  0  0  0  0  0  0  0  0  0  # atno 6907 bound_to 6896
  151.8221  133.3391  159.3595 H   0  0  0  0  0  0  0  0  0  0  0  0  # atno 6908 bound_to 6896
  150.7244  134.5492  159.5830 H   0  0  0  0  0  0  0  0  0  0  0  0  # atno 6909 bound_to 6896
  146.2380  139.9558  142.8465 H   0  0  0  0  0  0  0  0  0  0  0  0  # atno 7974 bound_to 7965
  155.9063  140.3430  155.6064 H   0  0  0  0  0  0  0  0  0  0  0  0  # atno 8008 bound_to 7997
  155.7441  140.0811  157.2251 H   0  0  0  0  0  0  0  0  0  0  0  0  # atno 8009 bound_to 7997
  154.4050  140.1565  156.2636 H   0  0  0  0  0  0  0  0  0  0  0  0  # atno 8010 bound_to 7997
  140.1831  144.4162  150.6606 H   0  0  0  0  0  0  0  0  0  0  0  0  # atno 10167 bound_to 10162
  156.3158  130.7507  151.1594 H   0  0  0  0  0  0  0  0  0  0  0  0  # atno 10718 bound_to 10713
  153.4190  135.7009  153.6307 H   0  0  0  0  0  0  0  0  0  0  0  0  # atno 10763 bound_to 10752
  153.4769  135.3702  155.2422 H   0  0  0  0  0  0  0  0  0  0  0  0  # atno 10764 bound_to 10752
  154.8721  135.4056  154.3555 H   0  0  0  0  0  0  0  0  0  0  0  0  # atno 10765 bound_to 10752
  140.5399  134.5533  157.5097 H   0  0  0  0  0  0  0  0  0  0  0  0  # atno 11005 bound_to 11000
  145.1818  140.9770  143.4262 LP  0  0  0  0  0  0  0  0  0  0  0  0  # atno 17320 bound_to 7965
  144.9935  139.3666  143.6203 LP  0  0  0  0  0  0  0  0  0  0  0  0  # atno 17321 bound_to 7965
  140.6506  143.2224  151.6085 LP  0  0  0  0  0  0  0  0  0  0  0  0  # atno 17342 bound_to 10162
  139.5288  144.2979  152.1098 LP  0  0  0  0  0  0  0  0  0  0  0  0  # atno 17343 bound_to 10162
  157.7401  131.0521  150.5187 LP  0  0  0  0  0  0  0  0  0  0  0  0  # atno 17370 bound_to 10713
  156.5332  130.4190  149.6191 LP  0  0  0  0  0  0  0  0  0  0  0  0  # atno 17371 bound_to 10713
  139.9509  134.7618  156.0450 LP  0  0  0  0  0  0  0  0  0  0  0  0  # atno 17394 bound_to 11000
  141.1233  133.6606  156.3271 LP  0  0  0  0  0  0  0  0  0  0  0  0  # atno 17395 bound_to 11000

$$$$
