AV-unprocessed.smi:45|AV-procd|sdf|412|dock7
  -GOLD-   2262016273D 1   1.00000     0.00000
 Structure written by MMmdl.
 61 64  0  0  0  0  0  0  0  0  2 V2000
  143.7152  134.3616  162.9626 C   0  0  0  0  0  0  0  0  0  0  0  0
  144.7601  133.6451  162.3210 O   0  0  0  0  0  0  0  0  0  0  0  0
  145.7203  134.3628  161.6377 C   0  0  0  0  0  0  0  0  0  0  0  0
  146.1230  135.6763  161.9895 C   0  0  0  0  0  0  0  0  0  0  0  0
  147.1098  136.3471  161.2416 C   0  0  0  0  0  0  0  0  0  0  0  0
  147.7101  135.7201  160.1319 C   0  0  0  0  0  0  0  0  0  0  0  0
  148.7682  136.4455  159.3239 C   0  0  0  0  0  0  0  0  0  0  0  0
  149.0371  135.8122  158.0413 N   0  0  0  0  0  0  0  0  0  0  0  0
  149.7299  136.4850  157.0221 C   0  0  0  0  0  0  0  0  0  0  0  0
  150.1655  137.7490  157.2687 N   0  3  0  0  0  0  0  0  0  0  0  0
  150.8481  138.4396  156.3406 C   0  0  0  0  0  0  0  0  0  0  0  0
  151.2739  139.7354  156.6285 N   0  0  0  0  0  0  0  0  0  0  0  0
  151.2318  140.7912  155.6220 C   0  0  0  0  0  0  0  0  0  0  0  0
  150.9744  142.0906  156.3833 C   0  0  0  0  0  0  0  0  0  0  0  0
  151.5873  141.8136  157.7499 C   0  0  0  0  0  0  0  0  0  0  0  0
  151.3074  140.3199  157.9702 C   0  0  2  0  0  0  0  0  0  0  0  0
  152.3430  139.6550  158.9019 C   0  0  0  0  0  0  0  0  0  0  0  0
  153.5585  139.4671  158.2100 O   0  0  0  0  0  0  0  0  0  0  0  0
  151.1248  137.9246  155.1356 N   0  0  0  0  0  0  0  0  0  0  0  0
  150.7148  136.6770  154.8405 C   0  0  0  0  0  0  0  0  0  0  0  0
  150.0031  135.8874  155.7645 C   0  0  0  0  0  0  0  0  0  0  0  0
  149.5325  134.5088  155.3872 C   0  0  0  0  0  0  0  0  0  0  0  0
  149.7093  133.5468  156.1347 O   0  0  0  0  0  0  0  0  0  0  0  0
  148.9381  134.4155  154.1871 N   0  0  0  0  0  0  0  0  0  0  0  0
  148.3486  133.1974  153.6446 C   0  0  0  0  0  0  0  0  0  0  0  0
  147.0805  133.4719  152.8546 C   0  0  0  0  0  0  0  0  0  0  0  0
  147.2214  133.7045  151.5458 N   0  0  0  0  0  0  0  0  0  0  0  0
  146.0922  133.9345  150.8412 C   0  0  0  0  0  0  0  0  0  0  0  0
  144.8225  133.9303  151.4534 C   0  0  0  0  0  0  0  0  0  0  0  0
  144.7990  133.6723  152.8387 C   0  0  0  0  0  0  0  0  0  0  0  0
  145.9312  133.4422  153.5383 N   0  0  0  0  0  0  0  0  0  0  0  0
  147.3178  134.4142  159.7783 C   0  0  0  0  0  0  0  0  0  0  0  0
  146.3302  133.7417  160.5247 C   0  0  0  0  0  0  0  0  0  0  0  0
  145.8695  132.1427  160.0608 Cl  0  0  0  0  0  0  0  0  0  0  0  0
  150.3088  140.2076  158.3957 H   0  0  0  0  0  0  0  0  0  0  0  0
  143.0433  133.6566  163.4518 H   0  0  0  0  0  0  0  0  0  0  0  0
  143.1256  134.9346  162.2456 H   0  0  0  0  0  0  0  0  0  0  0  0
  144.1044  135.0320  163.7301 H   0  0  0  0  0  0  0  0  0  0  0  0
  145.6886  136.1943  162.8309 H   0  0  0  0  0  0  0  0  0  0  0  0
  147.4038  137.3479  161.5228 H   0  0  0  0  0  0  0  0  0  0  0  0
  148.4337  137.4701  159.1574 H   0  0  0  0  0  0  0  0  0  0  0  0
  149.6936  136.4989  159.8990 H   0  0  0  0  0  0  0  0  0  0  0  0
  148.7495  134.8531  157.9039 H   0  0  0  0  0  0  0  0  0  0  0  0
  152.1949  140.8266  155.1115 H   0  0  0  0  0  0  0  0  0  0  0  0
  150.4573  140.6203  154.8731 H   0  0  0  0  0  0  0  0  0  0  0  0
  151.4015  142.9642  155.8900 H   0  0  0  0  0  0  0  0  0  0  0  0
  149.9006  142.2525  156.4878 H   0  0  0  0  0  0  0  0  0  0  0  0
  152.6616  142.0001  157.7072 H   0  0  0  0  0  0  0  0  0  0  0  0
  151.1704  142.4421  158.5375 H   0  0  0  0  0  0  0  0  0  0  0  0
  152.5531  140.2648  159.7794 H   0  0  0  0  0  0  0  0  0  0  0  0
  151.9803  138.6923  159.2639 H   0  0  0  0  0  0  0  0  0  0  0  0
  154.2178  139.1842  158.8257 H   0  0  0  0  0  0  0  0  0  0  0  0
  150.9538  136.3149  153.8510 H   0  0  0  0  0  0  0  0  0  0  0  0
  148.8484  135.2494  153.6255 H   0  0  0  0  0  0  0  0  0  0  0  0
  149.0777  132.7260  152.9850 H   0  0  0  0  0  0  0  0  0  0  0  0
  148.1556  132.4831  154.4474 H   0  0  0  0  0  0  0  0  0  0  0  0
  146.2020  134.1232  149.7837 H   0  0  0  0  0  0  0  0  0  0  0  0
  143.9183  134.1143  150.8923 H   0  0  0  0  0  0  0  0  0  0  0  0
  143.8688  133.6487  153.3867 H   0  0  0  0  0  0  0  0  0  0  0  0
  147.7711  133.9234  158.9296 H   0  0  0  0  0  0  0  0  0  0  0  0
  149.9649  138.1702  158.1753 H   0  0  0  0  0  0  0  0  0  0  0  0
  1  2  1  0  0  0  0
  1 36  1  0  0  0  0
  1 37  1  0  0  0  0
  1 38  1  0  0  0  0
  2  3  1  0  0  0  0
  3 33  1  0  0  0  0
  3  4  2  0  0  0  0
  4  5  1  0  0  0  0
  4 39  1  0  0  0  0
  5  6  2  0  0  0  0
  5 40  1  0  0  0  0
  6  7  1  0  0  0  0
  6 32  1  0  0  0  0
  7  8  1  0  0  0  0
  7 41  1  0  0  0  0
  7 42  1  0  0  0  0
  8  9  1  0  0  0  0
  8 43  1  0  0  0  0
  9 21  1  0  0  0  0
  9 10  2  0  0  0  0
 10 11  1  0  0  0  0
 10 61  1  0  0  0  0
 11 12  1  0  0  0  0
 11 19  2  0  0  0  0
 12 16  1  0  0  0  0
 12 13  1  0  0  0  0
 13 14  1  0  0  0  0
 13 44  1  0  0  0  0
 13 45  1  0  0  0  0
 14 15  1  0  0  0  0
 14 46  1  0  0  0  0
 14 47  1  0  0  0  0
 15 16  1  0  0  0  0
 15 48  1  0  0  0  0
 15 49  1  0  0  0  0
 16 35  1  0  0  0  0
 16 17  1  0  0  0  0
 17 18  1  0  0  0  0
 17 50  1  0  0  0  0
 17 51  1  0  0  0  0
 18 52  1  0  0  0  0
 19 20  1  0  0  0  0
 20 21  2  0  0  0  0
 20 53  1  0  0  0  0
 21 22  1  0  0  0  0
 22 23  2  0  0  0  0
 22 24  1  0  0  0  0
 24 25  1  0  0  0  0
 24 54  1  0  0  0  0
 25 26  1  0  0  0  0
 25 55  1  0  0  0  0
 25 56  1  0  0  0  0
 26 31  1  0  0  0  0
 26 27  2  0  0  0  0
 27 28  1  0  0  0  0
 28 29  2  0  0  0  0
 28 57  1  0  0  0  0
 29 30  1  0  0  0  0
 29 58  1  0  0  0  0
 30 31  2  0  0  0  0
 30 59  1  0  0  0  0
 32 33  2  0  0  0  0
 32 60  1  0  0  0  0
 33 34  1  0  0  0  0
M  CHG  1  10   1
M  END
> <s_m_source_file>
AV-unprocessed.smi

> <i_m_source_file_index>
45

> <i_lp_mmshare_version>
43012

> <i_f3d_flags>
0

> <s_epik_input>
W0NIM11PYzFbY0hdW2NIXWMoW2NIXWMxQ2wpW0NIMl1bTkhdYzJuYyhOM1tDSDJdW0NIMl1bQ0gyXVtDQEhdM1tDSDJdW09IXSluW2NIXWMyQyg9TylbTkhdW0NIMl1jNG5bY0hdW2NIXVtjSF1uNA==

> <s_epik_cmdline>
J2VwaWtfcHl0aG9uJywgJy1waCcsICc3LjAnLCAnLXRuJywgJzgnLCAnLW1hJywgJzIwMCcsICctbWV0YWxfYmluZGluZycsICctaW1hZScsICc8aW5maWxlLm1hZT4nLCAnLW9tYWUnLCAnPG91dGZpbGUubWFlPic=

> <r_lp_tautomer_probability>
0.424989

> <r_epik_Ionization_Penalty>
2.31209

> <r_epik_Ionization_Penalty_Charging>
2.31199

> <r_epik_Ionization_Penalty_Neutral>
9.65277e-05

> <r_epik_State_Penalty>
2.29675

> <r_epik_Charging_Adjusted_Penalty>
4.60874

> <i_epik_Tot_Q>
1

> <i_epik_Tot_abs_Q>
1

> <r_epik_Metal_State_Penalty>
2.3404

> <b_epik_Metal_Only>
0

> <s_epik_Chemistry_Notes>
This compound contains an electron-poor aromatic ring that is susceptible to covalent hydrolysis at low pH, typically resulting in measured values for nitrogen ring protonation that are around two units higher than predicted values.

> <s_lp_Force_Field>
OPLS_2005

> <r_lp_Energy>
35.4262

> <b_lp_Chiralities_Consistent>
1

> <s_lp_Variant>
AV-unprocessed.smi:45-6

> <Gold.Version>
5.8.1

> <Gold.Id.Protein>
6NUR|6NUR_protein|mol2

> <Gold.PLP.Fitness>
56.4791

> <Gold.PLP.PLP>
-44.9873

> <Gold.PLP.part.hbond>
-1.9738

> <Gold.PLP.part.metal>
0.0000

> <Gold.PLP.part.buried>
-5.0273

> <Gold.PLP.part.nonpolar>
-38.9034

> <Gold.PLP.part.repulsive>
1.4828

> <Gold.PLP.ligand.clash>
0.0000

> <Gold.PLP.ligand.torsion>
2.4612

> <Gold.PLP.Chemscore.Hbond>
1.9920

> <Gold.PLP.Chemscore.CHOScore>
2.8473

> <Gold.PLP.Chemscore.Metal>
0.0000

> <Gold.Chemscore.Hbonds>
donor molecule, donor type, donor heavy atom, donor atom, acceptor molecule, acceptor atom, score
      L1  H    24    54       P1  7948  1.00
      P1  H  7997  8009       L1    18  1.00
      L1  C    20    53       P1  7948  0.03
      L1  C    20    53       P1  7949  0.93
      L1  C    28    57       P1  7921  0.81
      L1  C    30    59       P1 10957  0.74

> <Gold.PLP.Chemscore.Internal.Correction>
1.8962

> <Gold.Rescore>
     Score         DG    S(hbond)    S(metal)    S(lipo)     H(rot)  DE(clash)    DE(int)     intcor
     12.60     -16.26       1.62        0.00     110.06       2.94       0.52       3.14       ----

> <Gold.Chemscore.Fitness>
12.6023

> <Gold.Chemscore.DG>
-16.2555

> <Gold.Chemscore.ZeroCoef>
-5.4800

> <Gold.Chemscore.Hbond>
1.6238

> <Gold.Chemscore.Metal>
0.0000

> <Gold.Chemscore.Lipo>
110.0616

> <Gold.Chemscore.Internal_Hbond>
0.0000

> <Gold.Chemscore.DEClash>
0.5154

> <Gold.Chemscore.DEInternal>
3.1378

> <Gold.Chemscore.Rot>
2.9395

> <Gold.Chemscore.Internal.Correction>
   9.000000E+99

> <Gold.Chemscore.Hbonds>
donor molecule, donor type, donor heavy atom, donor atom, acceptor molecule, acceptor atom, score
      L1  H    24    54       P1  7948  0.69
      P1  H  7997  8009       L1    18  0.34

> <Gold.Chemscore.Hbond.Weighted>
-5.4234

> <Gold.Chemscore.Metal.Weighted>
-0.0000

> <Gold.Chemscore.Lipo.Weighted>
-12.8772

> <Gold.Chemscore.Internal_Hbond.Weighted>
0.0000

> <Gold.Chemscore.DEClash.Weighted>
0.5154

> <Gold.Chemscore.DEInternal.Weighted>
3.1378

> <Gold.Chemscore.Rot.Weighted>
7.5251

> <Gold.Chemscore.Internal.Correction.Weighted>
   9.000000E+99

> <Gold.Protein.RotatedTorsions>
[ 6907 6896 6895 6894 ] final  -80.26 input  -60.11 | X-H torsion
[ 7974 7965 7964 7962 ] final -140.63 input  175.53 | X-H torsion
[ 8008 7997 7996 7995 ] final  164.28 input   59.86 | X-H torsion
[ 10167 10162 10161 10158 ] final   31.59 input  -65.29 | X-H torsion
[ 10718 10713 10712 10709 ] final   19.04 input   66.30 | X-H torsion
[ 10763 10752 10751 10750 ] final -171.12 input  -60.55 | X-H torsion
[ 11005 11000 10999 10996 ] final   51.88 input  -57.11 | X-H torsion

> <Gold.Protein.ActiveResidues>
 VAL166  LYS551  ARG553  GLY616  TRP617  ASP618  TYR619  PRO620  LYS621  CYS622 
 ASP623  PHE694  ASN695  SER759  ASP760  ASP761  ALA762  ILE779  LEU786  VAL792 
 PHE793  MET794  SER795  GLU796  ALA797  LYS798  CYS799  TRP800  GLU811  SER814 

> <Gold.Protein.RotatedAtoms>
  150.6933  134.3996  159.5112 H   0  0  0  0  0  0  0  0  0  0  0  0  # atno 6907 bound_to 6896
  152.1772  134.8782  160.0538 H   0  0  0  0  0  0  0  0  0  0  0  0  # atno 6908 bound_to 6896
  151.9786  133.3715  159.4136 H   0  0  0  0  0  0  0  0  0  0  0  0  # atno 6909 bound_to 6896
  144.8582  140.6177  143.5345 H   0  0  0  0  0  0  0  0  0  0  0  0  # atno 7974 bound_to 7965
  156.1892  140.1701  156.8125 H   0  0  0  0  0  0  0  0  0  0  0  0  # atno 8008 bound_to 7997
  154.5451  140.0729  156.8607 H   0  0  0  0  0  0  0  0  0  0  0  0  # atno 8009 bound_to 7997
  155.3138  140.3369  155.4245 H   0  0  0  0  0  0  0  0  0  0  0  0  # atno 8010 bound_to 7997
  140.4575  144.0957  150.6205 H   0  0  0  0  0  0  0  0  0  0  0  0  # atno 10167 bound_to 10162
  157.1048  130.6483  149.5882 H   0  0  0  0  0  0  0  0  0  0  0  0  # atno 10718 bound_to 10713
  154.6340  135.2890  155.0183 H   0  0  0  0  0  0  0  0  0  0  0  0  # atno 10763 bound_to 10752
  154.1333  135.6530  153.4930 H   0  0  0  0  0  0  0  0  0  0  0  0  # atno 10764 bound_to 10752
  153.0293  135.5315  154.7179 H   0  0  0  0  0  0  0  0  0  0  0  0  # atno 10765 bound_to 10752
  140.0896  134.5227  155.8865 H   0  0  0  0  0  0  0  0  0  0  0  0  # atno 11005 bound_to 11000
  145.4364  139.1542  143.3994 LP  0  0  0  0  0  0  0  0  0  0  0  0  # atno 17320 bound_to 7965
  146.2840  140.4482  142.8765 LP  0  0  0  0  0  0  0  0  0  0  0  0  # atno 17321 bound_to 7965
  140.4134  143.2646  151.9805 LP  0  0  0  0  0  0  0  0  0  0  0  0  # atno 17342 bound_to 10162
  139.4802  144.5895  151.7796 LP  0  0  0  0  0  0  0  0  0  0  0  0  # atno 17343 bound_to 10162
  155.9865  130.4899  150.7080 LP  0  0  0  0  0  0  0  0  0  0  0  0  # atno 17370 bound_to 10713
  157.4610  131.0883  151.0746 LP  0  0  0  0  0  0  0  0  0  0  0  0  # atno 17371 bound_to 10713
  141.2073  133.6663  156.6300 LP  0  0  0  0  0  0  0  0  0  0  0  0  # atno 17394 bound_to 11000
  140.3371  134.7880  157.4370 LP  0  0  0  0  0  0  0  0  0  0  0  0  # atno 17395 bound_to 11000

$$$$
