AV-unprocessed.smi:287|AV-procd|sdf|2203|dock1
  -GOLD-   2262022 23D 1   1.00000     0.00000
 Structure written by MMmdl.
 55 58  0  0  0  0  0  0  0  0  1 V2000
  154.4284  141.1514  161.3080 C   0  0  0  0  0  0  0  0  0  0  0  0
  153.4538  141.9865  160.5506 C   0  0  0  0  0  0  0  0  0  0  0  0
  152.6966  141.7765  159.4351 C   0  0  0  0  0  0  0  0  0  0  0  0
  151.9535  142.9704  159.1929 C   0  0  0  0  0  0  0  0  0  0  0  0
  150.9685  143.1943  158.0533 C   0  0  1  0  0  0  0  0  0  0  0  0
  149.5369  143.2650  158.6103 C   0  0  0  0  0  0  0  0  0  0  0  0
  151.1710  144.4245  157.3854 O   0  0  0  0  0  0  0  0  0  0  0  0
  151.0622  142.0990  156.9662 C   0  0  0  0  0  0  0  0  0  0  0  0
  149.8868  142.0503  156.1063 N   0  0  0  0  0  0  0  0  0  0  0  0
  149.5412  140.9177  155.4587 C   0  0  0  0  0  0  0  0  0  0  0  0
  148.4721  141.0255  154.6355 N   0  0  0  0  0  0  0  0  0  0  0  0
  148.0422  139.9626  153.9526 C   0  0  0  0  0  0  0  0  0  0  0  0
  148.5319  138.7230  153.9485 N   0  0  0  0  0  0  0  0  0  0  0  0
  149.6178  138.5995  154.7671 C   0  0  0  0  0  0  0  0  0  0  0  0
  150.1793  139.6447  155.5591 C   0  0  0  0  0  0  0  0  0  0  0  0
  151.2596  139.1452  156.2766 N   0  0  0  0  0  0  0  0  0  0  0  0
  151.3251  137.8894  155.9321 C   0  0  0  0  0  0  0  0  0  0  0  0
  150.3931  137.4765  155.0055 N   0  0  0  0  0  0  0  0  0  0  0  0
  150.2223  136.0839  154.4566 C   0  0  1  0  0  0  0  0  0  0  0  0
  151.2291  135.2595  154.9579 O   0  0  0  0  0  0  0  0  0  0  0  0
  150.7670  134.6154  156.1384 C   0  0  2  0  0  0  0  0  0  0  0  0
  151.6788  133.4386  156.5268 C   0  0  0  0  0  0  0  0  0  0  0  0
  151.1665  132.7871  157.6697 O   0  0  0  0  0  0  0  0  0  0  0  0
  149.3339  134.2477  155.7375 C   0  0  2  0  0  0  0  0  0  0  0  0
  149.3232  133.0608  154.9602 O   0  0  0  0  0  0  0  0  0  0  0  0
  148.8883  135.4791  154.9452 C   0  0  2  0  0  0  0  0  0  0  0  0
  147.9955  135.1638  153.8925 O   0  0  0  0  0  0  0  0  0  0  0  0
  152.3196  143.8228  160.2071 C   0  0  0  0  0  0  0  0  0  0  0  0
  151.9344  145.2162  160.5820 C   0  0  0  0  0  0  0  0  0  0  0  0
  153.2304  143.2350  161.0322 O   0  0  0  0  0  0  0  0  0  0  0  0
  150.3047  136.2035  153.3759 H   0  0  0  0  0  0  0  0  0  0  0  0
  150.7234  135.3412  156.9535 H   0  0  0  0  0  0  0  0  0  0  0  0
  148.7018  134.0845  156.6111 H   0  0  0  0  0  0  0  0  0  0  0  0
  148.3940  136.1739  155.6254 H   0  0  0  0  0  0  0  0  0  0  0  0
  154.7120  140.2686  160.7347 H   0  0  0  0  0  0  0  0  0  0  0  0
  153.9981  140.8174  162.2522 H   0  0  0  0  0  0  0  0  0  0  0  0
  155.3347  141.7154  161.5289 H   0  0  0  0  0  0  0  0  0  0  0  0
  152.6794  140.8674  158.8524 H   0  0  0  0  0  0  0  0  0  0  0  0
  149.2624  142.3383  159.1157 H   0  0  0  0  0  0  0  0  0  0  0  0
  148.8062  143.4334  157.8182 H   0  0  0  0  0  0  0  0  0  0  0  0
  149.4329  144.0750  159.3332 H   0  0  0  0  0  0  0  0  0  0  0  0
  150.5018  144.5207  156.7253 H   0  0  0  0  0  0  0  0  0  0  0  0
  151.9173  142.3190  156.3258 H   0  0  0  0  0  0  0  0  0  0  0  0
  151.2456  141.1227  157.4172 H   0  0  0  0  0  0  0  0  0  0  0  0
  149.3719  142.9153  156.0222 H   0  0  0  0  0  0  0  0  0  0  0  0
  147.1840  140.1280  153.3183 H   0  0  0  0  0  0  0  0  0  0  0  0
  152.0671  137.2231  156.3471 H   0  0  0  0  0  0  0  0  0  0  0  0
  151.7108  132.7059  155.7199 H   0  0  0  0  0  0  0  0  0  0  0  0
  152.7019  133.7697  156.7081 H   0  0  0  0  0  0  0  0  0  0  0  0
  150.2290  132.7122  157.5770 H   0  0  0  0  0  0  0  0  0  0  0  0
  149.1519  132.3305  155.5355 H   0  0  0  0  0  0  0  0  0  0  0  0
  148.2824  135.6104  153.1108 H   0  0  0  0  0  0  0  0  0  0  0  0
  150.8571  145.2932  160.7278 H   0  0  0  0  0  0  0  0  0  0  0  0
  152.2226  145.9196  159.8011 H   0  0  0  0  0  0  0  0  0  0  0  0
  152.4206  145.5259  161.5073 H   0  0  0  0  0  0  0  0  0  0  0  0
  1  2  1  0  0  0  0
  1 35  1  0  0  0  0
  1 36  1  0  0  0  0
  1 37  1  0  0  0  0
  2 30  1  0  0  0  0
  2  3  2  0  0  0  0
  3  4  1  0  0  0  0
  3 38  1  0  0  0  0
  4  5  1  0  0  0  0
  4 28  2  0  0  0  0
  5  6  1  0  0  0  0
  5  7  1  0  0  0  0
  5  8  1  0  0  0  0
  6 39  1  0  0  0  0
  6 40  1  0  0  0  0
  6 41  1  0  0  0  0
  7 42  1  0  0  0  0
  8  9  1  0  0  0  0
  8 43  1  0  0  0  0
  8 44  1  0  0  0  0
  9 10  1  0  0  0  0
  9 45  1  0  0  0  0
 10 15  1  0  0  0  0
 10 11  2  0  0  0  0
 11 12  1  0  0  0  0
 12 13  2  0  0  0  0
 12 46  1  0  0  0  0
 13 14  1  0  0  0  0
 14 18  1  0  0  0  0
 14 15  2  0  0  0  0
 15 16  1  0  0  0  0
 16 17  2  0  0  0  0
 17 18  1  0  0  0  0
 17 47  1  0  0  0  0
 18 19  1  0  0  0  0
 19 31  1  0  0  0  0
 19 26  1  0  0  0  0
 19 20  1  0  0  0  0
 20 21  1  0  0  0  0
 21 32  1  0  0  0  0
 21 22  1  0  0  0  0
 21 24  1  0  0  0  0
 22 23  1  0  0  0  0
 22 48  1  0  0  0  0
 22 49  1  0  0  0  0
 23 50  1  0  0  0  0
 24 33  1  0  0  0  0
 24 25  1  0  0  0  0
 24 26  1  0  0  0  0
 25 51  1  0  0  0  0
 26 34  1  0  0  0  0
 26 27  1  0  0  0  0
 27 52  1  0  0  0  0
 28 29  1  0  0  0  0
 28 30  1  0  0  0  0
 29 53  1  0  0  0  0
 29 54  1  0  0  0  0
 29 55  1  0  0  0  0
M  END
> <s_m_source_file>
AV-unprocessed.smi

> <i_m_source_file_index>
287

> <i_lp_mmshare_version>
43012

> <i_f3d_flags>
0

> <s_epik_input>
W0NIM11jMVtjSF1jKGMobzEpW0NIM10pW0NAQF0oW0NIM10pKFtPSF0pW0NIMl1bTkhdYyhuW2NIXW4yKWMoYzIzKW5bY0hdbjNbQ0BASF00T1tDQEhdKFtDSDJdW09IXSlbQ0BASF0oW09IXSlbQ0BIXTRbT0hd

> <s_epik_cmdline>
J2VwaWtfcHl0aG9uJywgJy1waCcsICc3LjAnLCAnLXRuJywgJzgnLCAnLW1hJywgJzIwMCcsICctbWV0YWxfYmluZGluZycsICctaW1hZScsICc8aW5maWxlLm1hZT4nLCAnLW9tYWUnLCAnPG91dGZpbGUubWFlPic=

> <r_lp_tautomer_probability>
1

> <r_epik_Ionization_Penalty>
0.000992612

> <r_epik_Ionization_Penalty_Charging>
0

> <r_epik_Ionization_Penalty_Neutral>
0.000992612

> <r_epik_State_Penalty>
-0

> <r_epik_Charging_Adjusted_Penalty>
0

> <i_epik_Tot_Q>
0

> <i_epik_Tot_abs_Q>
0

> <r_epik_Metal_State_Penalty>
-0

> <b_epik_Metal_Only>
0

> <s_epik_Chemistry_Notes>
This compound contains an acetal/aminal-like group ( X-CH(R)-Y where X, Y are N, S, or O) that may be acid/base labile, releasing an aldehyde.

> <s_lp_Force_Field>
OPLS_2005

> <r_lp_Energy>
46.8376

> <b_lp_Chiralities_Consistent>
1

> <s_lp_Variant>
AV-unprocessed.smi:287-27

> <Gold.Version>
5.8.1

> <Gold.Id.Protein>
6NUR|6NUR_protein|mol2

> <Gold.PLP.Fitness>
55.9099

> <Gold.PLP.PLP>
-42.2531

> <Gold.PLP.part.hbond>
-4.8345

> <Gold.PLP.part.metal>
0.0000

> <Gold.PLP.part.buried>
-0.2418

> <Gold.PLP.part.nonpolar>
-36.9617

> <Gold.PLP.part.repulsive>
0.6119

> <Gold.PLP.ligand.clash>
0.0000

> <Gold.PLP.ligand.torsion>
0.8051

> <Gold.PLP.Chemscore.Hbond>
4.9760

> <Gold.PLP.Chemscore.CHOScore>
0.0000

> <Gold.PLP.Chemscore.Metal>
0.0000

> <Gold.Chemscore.Hbonds>
donor molecule, donor type, donor heavy atom, donor atom, acceptor molecule, acceptor atom, score
      L1  H     7    42       P1  8028  1.00
      L1  H     9    45       P1  8028  1.00
      L1  H    27    52       P1  7948  1.00
      P1  H  6896  6909       L1    23  0.95
      P1  H 10752 10763       L1    20  0.96

> <Gold.PLP.Chemscore.Internal.Correction>
0.3391

> <Gold.Rescore>
     Score         DG    S(hbond)    S(metal)    S(lipo)     H(rot)  DE(clash)    DE(int)     intcor
     16.01     -19.19       4.44        0.00     105.71       5.27       1.75       1.43       ----

> <Gold.Chemscore.Fitness>
16.0079

> <Gold.Chemscore.DG>
-19.1898

> <Gold.Chemscore.ZeroCoef>
-5.4800

> <Gold.Chemscore.Hbond>
4.4387

> <Gold.Chemscore.Metal>
0.0000

> <Gold.Chemscore.Lipo>
105.7137

> <Gold.Chemscore.Internal_Hbond>
0.0000

> <Gold.Chemscore.DEClash>
1.7497

> <Gold.Chemscore.DEInternal>
1.4321

> <Gold.Chemscore.Rot>
5.2672

> <Gold.Chemscore.Internal.Correction>
   9.000000E+99

> <Gold.Chemscore.Hbonds>
donor molecule, donor type, donor heavy atom, donor atom, acceptor molecule, acceptor atom, score
      L1  H     7    42       P1  8028  0.94
      L1  H     9    45       P1  8028  1.00
      L1  H    27    52       P1  7948  0.93
      P1  H  6896  6909       L1    23  0.21
      P1  H 10752 10763       L1    20  0.91

> <Gold.Chemscore.Hbond.Weighted>
-14.8252

> <Gold.Chemscore.Metal.Weighted>
-0.0000

> <Gold.Chemscore.Lipo.Weighted>
-12.3685

> <Gold.Chemscore.Internal_Hbond.Weighted>
0.0000

> <Gold.Chemscore.DEClash.Weighted>
1.7497

> <Gold.Chemscore.DEInternal.Weighted>
1.4321

> <Gold.Chemscore.Rot.Weighted>
13.4839

> <Gold.Chemscore.Internal.Correction.Weighted>
   9.000000E+99

> <Gold.Protein.RotatedTorsions>
[ 6907 6896 6895 6894 ] final  -32.75 input  -60.11 | X-H torsion
[ 7974 7965 7964 7962 ] final   57.28 input  175.53 | X-H torsion
[ 8008 7997 7996 7995 ] final  -64.91 input   59.86 | X-H torsion
[ 10167 10162 10161 10158 ] final  -13.47 input  -65.29 | X-H torsion
[ 10718 10713 10712 10709 ] final -106.39 input   66.30 | X-H torsion
[ 10763 10752 10751 10750 ] final   62.26 input  -60.55 | X-H torsion
[ 11005 11000 10999 10996 ] final  134.01 input  -57.11 | X-H torsion

> <Gold.Protein.ActiveResidues>
 VAL166  LYS551  ARG553  GLY616  TRP617  ASP618  TYR619  PRO620  LYS621  CYS622 
 ASP623  PHE694  ASN695  SER759  ASP760  ASP761  ALA762  ILE779  LEU786  VAL792 
 PHE793  MET794  SER795  GLU796  ALA797  LYS798  CYS799  TRP800  GLU811  SER814 

> <Gold.Protein.RotatedAtoms>
  151.0746  134.9820  159.8325 H   0  0  0  0  0  0  0  0  0  0  0  0  # atno 6907 bound_to 6896
  152.5412  134.2256  159.8815 H   0  0  0  0  0  0  0  0  0  0  0  0  # atno 6908 bound_to 6896
  151.2283  133.4421  159.2636 H   0  0  0  0  0  0  0  0  0  0  0  0  # atno 6909 bound_to 6896
  145.9308  139.3806  143.0422 H   0  0  0  0  0  0  0  0  0  0  0  0  # atno 7974 bound_to 7965
  154.4640  140.0944  156.6970 H   0  0  0  0  0  0  0  0  0  0  0  0  # atno 8008 bound_to 7997
  155.4912  140.3471  155.4337 H   0  0  0  0  0  0  0  0  0  0  0  0  # atno 8009 bound_to 7997
  156.0922  140.1400  156.9566 H   0  0  0  0  0  0  0  0  0  0  0  0  # atno 8010 bound_to 7997
  140.7183  143.5423  150.9395 H   0  0  0  0  0  0  0  0  0  0  0  0  # atno 10167 bound_to 10162
  156.0388  130.5610  150.7673 H   0  0  0  0  0  0  0  0  0  0  0  0  # atno 10718 bound_to 10713
  152.9977  135.5471  154.6164 H   0  0  0  0  0  0  0  0  0  0  0  0  # atno 10763 bound_to 10752
  154.5473  135.2824  155.1043 H   0  0  0  0  0  0  0  0  0  0  0  0  # atno 10764 bound_to 10752
  154.2296  135.6436  153.5224 H   0  0  0  0  0  0  0  0  0  0  0  0  # atno 10765 bound_to 10752
  139.9887  134.9523  156.9805 H   0  0  0  0  0  0  0  0  0  0  0  0  # atno 11005 bound_to 11000
  145.8428  140.9571  143.0790 LP  0  0  0  0  0  0  0  0  0  0  0  0  # atno 17320 bound_to 7965
  144.6764  140.0307  143.7482 LP  0  0  0  0  0  0  0  0  0  0  0  0  # atno 17321 bound_to 7965
  139.9146  143.6679  152.3109 LP  0  0  0  0  0  0  0  0  0  0  0  0  # atno 17342 bound_to 10162
  139.7074  144.7626  151.1169 LP  0  0  0  0  0  0  0  0  0  0  0  0  # atno 17343 bound_to 10162
  157.5176  131.0929  151.0119 LP  0  0  0  0  0  0  0  0  0  0  0  0  # atno 17370 bound_to 10713
  157.0458  130.5767  149.5363 LP  0  0  0  0  0  0  0  0  0  0  0  0  # atno 17371 bound_to 10713
  140.4950  134.1154  155.7239 LP  0  0  0  0  0  0  0  0  0  0  0  0  # atno 17394 bound_to 11000
  141.1547  133.8904  157.2007 LP  0  0  0  0  0  0  0  0  0  0  0  0  # atno 17395 bound_to 11000

$$$$
