AV-unprocessed.smi:1622|AV-procd|sdf|6498|dock3
  -GOLD-   22720 7163D 1   1.00000     0.00000
 Structure written by MMmdl.
 41 42  0  0  0  0  0  0  0  0  2 V2000
  149.1052  132.6728  154.1163 C   0  0  0  0  0  0  0  0  0  0  0  0
  148.2071  133.0721  152.9358 C   0  0  0  0  0  0  0  0  0  0  0  0
  146.7487  133.4327  153.3291 C   0  0  1  0  0  0  0  0  0  0  0  0
  146.6835  134.6592  154.2826 C   0  0  0  0  0  0  0  0  0  0  0  0
  147.6168  135.7243  153.9171 N   0  0  0  0  0  0  0  0  0  0  0  0
  148.0166  136.7214  154.7191 C   0  0  0  0  0  0  0  0  0  0  0  0
  147.6399  136.8482  155.8833 O   0  0  0  0  0  0  0  0  0  0  0  0
  148.8729  137.5389  154.0859 N   0  0  0  0  0  0  0  0  0  0  0  0
  149.5037  138.7021  154.5937 C   0  0  0  0  0  0  0  0  0  0  0  0
  150.7843  138.9109  154.2762 N   0  0  0  0  0  0  0  0  0  0  0  0
  151.2718  140.0849  154.8345 N   0  0  0  0  0  0  0  0  0  0  0  0
  150.3468  140.7286  155.5579 C   0  0  0  0  0  0  0  0  0  0  0  0
  150.6201  142.0182  156.2535 C   0  0  0  0  0  0  0  0  0  0  0  0
  148.7760  139.9390  155.6189 S   0  0  0  0  0  0  0  0  0  0  0  0
  145.8893  133.6504  152.1252 N   0  3  0  0  0  0  0  0  0  0  0  0
  145.8724  132.5608  151.1245 C   0  0  0  0  0  0  0  0  0  0  0  0
  144.6114  132.7987  150.3024 C   0  0  0  0  0  0  0  0  0  0  0  0
  143.6121  133.2953  151.3399 C   0  0  0  0  0  0  0  0  0  0  0  0
  144.4688  133.9747  152.4170 C   0  0  0  0  0  0  0  0  0  0  0  0
  150.0739  132.3240  153.7581 H   0  0  0  0  0  0  0  0  0  0  0  0
  148.6586  131.8647  154.6963 H   0  0  0  0  0  0  0  0  0  0  0  0
  149.2968  133.5065  154.7898 H   0  0  0  0  0  0  0  0  0  0  0  0
  148.6668  133.8930  152.3853 H   0  0  0  0  0  0  0  0  0  0  0  0
  148.2119  132.2207  152.2565 H   0  0  0  0  0  0  0  0  0  0  0  0
  146.3404  132.5739  153.8645 H   0  0  0  0  0  0  0  0  0  0  0  0
  145.6850  135.0947  154.2519 H   0  0  0  0  0  0  0  0  0  0  0  0
  146.8162  134.3652  155.3235 H   0  0  0  0  0  0  0  0  0  0  0  0
  147.9706  135.7122  152.9715 H   0  0  0  0  0  0  0  0  0  0  0  0
  149.0969  137.3097  153.1288 H   0  0  0  0  0  0  0  0  0  0  0  0
  151.6902  142.1443  156.4207 H   0  0  0  0  0  0  0  0  0  0  0  0
  150.1122  142.0393  157.2177 H   0  0  0  0  0  0  0  0  0  0  0  0
  150.2589  142.8498  155.6486 H   0  0  0  0  0  0  0  0  0  0  0  0
  146.7657  132.5640  150.4992 H   0  0  0  0  0  0  0  0  0  0  0  0
  145.8081  131.5956  151.6301 H   0  0  0  0  0  0  0  0  0  0  0  0
  144.7943  133.5776  149.5608 H   0  0  0  0  0  0  0  0  0  0  0  0
  144.2719  131.9056  149.7768 H   0  0  0  0  0  0  0  0  0  0  0  0
  142.8679  133.9674  150.9106 H   0  0  0  0  0  0  0  0  0  0  0  0
  143.0805  132.4472  151.7743 H   0  0  0  0  0  0  0  0  0  0  0  0
  144.1674  133.6133  153.4013 H   0  0  0  0  0  0  0  0  0  0  0  0
  144.3364  135.0570  152.4056 H   0  0  0  0  0  0  0  0  0  0  0  0
  146.2635  134.4546  151.6421 H   0  0  0  0  0  0  0  0  0  0  0  0
  1  2  1  0  0  0  0
  1 20  1  0  0  0  0
  1 21  1  0  0  0  0
  1 22  1  0  0  0  0
  2  3  1  0  0  0  0
  2 23  1  0  0  0  0
  2 24  1  0  0  0  0
  3  4  1  0  0  0  0
  3 15  1  0  0  0  0
  3 25  1  0  0  0  0
  4  5  1  0  0  0  0
  4 26  1  0  0  0  0
  4 27  1  0  0  0  0
  5  6  1  0  0  0  0
  5 28  1  0  0  0  0
  6  7  2  0  0  0  0
  6  8  1  0  0  0  0
  8  9  1  0  0  0  0
  8 29  1  0  0  0  0
  9 14  1  0  0  0  0
  9 10  2  0  0  0  0
 10 11  1  0  0  0  0
 11 12  2  0  0  0  0
 12 13  1  0  0  0  0
 12 14  1  0  0  0  0
 13 30  1  0  0  0  0
 13 31  1  0  0  0  0
 13 32  1  0  0  0  0
 15 19  1  0  0  0  0
 15 16  1  0  0  0  0
 15 41  1  0  0  0  0
 16 17  1  0  0  0  0
 16 33  1  0  0  0  0
 16 34  1  0  0  0  0
 17 18  1  0  0  0  0
 17 35  1  0  0  0  0
 17 36  1  0  0  0  0
 18 19  1  0  0  0  0
 18 37  1  0  0  0  0
 18 38  1  0  0  0  0
 19 39  1  0  0  0  0
 19 40  1  0  0  0  0
M  CHG  1  15   1
M  END
> <s_m_source_file>
AV-unprocessed.smi

> <i_m_source_file_index>
1622

> <i_lp_mmshare_version>
43012

> <i_f3d_flags>
0

> <s_epik_input>
W0NIMl0xW0NIMl1bQ0gyXVtDSDJdTjFbQ0BIXShbQ0gyXVtDSDNdKVtDSDJdW05IXUMoPU8pW05IXWMybm5jKHMyKVtDSDNd

> <s_epik_cmdline>
J2VwaWtfcHl0aG9uJywgJy1waCcsICc3LjAnLCAnLXRuJywgJzgnLCAnLW1hJywgJzIwMCcsICctbWV0YWxfYmluZGluZycsICctaW1hZScsICc8aW5maWxlLm1hZT4nLCAnLW9tYWUnLCAnPG91dGZpbGUubWFlPic=

> <r_lp_tautomer_probability>
1

> <r_epik_Ionization_Penalty>
0.00164835

> <r_epik_Ionization_Penalty_Charging>
0.00115997

> <r_epik_Ionization_Penalty_Neutral>
0.00048838

> <r_epik_State_Penalty>
-0

> <r_epik_Charging_Adjusted_Penalty>
0.00115997

> <i_epik_Tot_Q>
1

> <i_epik_Tot_abs_Q>
1

> <r_epik_Metal_State_Penalty>
0.216651

> <b_epik_Metal_Only>
0

> <s_lp_Force_Field>
OPLS_2005

> <r_lp_Energy>
37.4677

> <b_lp_Chiralities_Consistent>
1

> <s_lp_Variant>
AV-unprocessed.smi:1622-2

> <Gold.Version>
5.8.1

> <Gold.Id.Protein>
6NUR|6NUR_protein|mol2

> <Gold.PLP.Fitness>
37.2782

> <Gold.PLP.PLP>
-29.5164

> <Gold.PLP.part.hbond>
-3.1483

> <Gold.PLP.part.metal>
0.0000

> <Gold.PLP.part.buried>
-4.4851

> <Gold.PLP.part.nonpolar>
-22.7642

> <Gold.PLP.part.repulsive>
0.2815

> <Gold.PLP.ligand.clash>
0.0000

> <Gold.PLP.ligand.torsion>
0.6894

> <Gold.PLP.Chemscore.Hbond>
2.9920

> <Gold.PLP.Chemscore.CHOScore>
0.0000

> <Gold.PLP.Chemscore.Metal>
0.0000

> <Gold.Chemscore.Hbonds>
donor molecule, donor type, donor heavy atom, donor atom, acceptor molecule, acceptor atom, score
      L1  H     5    28       P1  7948  1.00
      L1  H     8    29       P1  7948  0.99
      P1  H  7989  7998       L1    11  0.95

> <Gold.PLP.Chemscore.Internal.Correction>
0.1646

> <Gold.Rescore>
     Score         DG    S(hbond)    S(metal)    S(lipo)     H(rot)  DE(clash)    DE(int)     intcor
     15.94     -16.65       2.58        0.00      60.50       1.77       0.09       0.62       ----

> <Gold.Chemscore.Fitness>
15.9369

> <Gold.Chemscore.DG>
-16.6497

> <Gold.Chemscore.ZeroCoef>
-5.4800

> <Gold.Chemscore.Hbond>
2.5847

> <Gold.Chemscore.Metal>
0.0000

> <Gold.Chemscore.Lipo>
60.4957

> <Gold.Chemscore.Internal_Hbond>
0.0000

> <Gold.Chemscore.DEClash>
0.0905

> <Gold.Chemscore.DEInternal>
0.6223

> <Gold.Chemscore.Rot>
1.7738

> <Gold.Chemscore.Internal.Correction>
   9.000000E+99

> <Gold.Chemscore.Hbonds>
donor molecule, donor type, donor heavy atom, donor atom, acceptor molecule, acceptor atom, score
      L1  H     5    28       P1  7948  0.92
      L1  H     8    29       P1  7948  0.93
      P1  H  7989  7998       L1    11  0.17

> <Gold.Chemscore.Hbond.Weighted>
-8.6328

> <Gold.Chemscore.Metal.Weighted>
-0.0000

> <Gold.Chemscore.Lipo.Weighted>
-7.0780

> <Gold.Chemscore.Internal_Hbond.Weighted>
0.0000

> <Gold.Chemscore.DEClash.Weighted>
0.0905

> <Gold.Chemscore.DEInternal.Weighted>
0.6223

> <Gold.Chemscore.Rot.Weighted>
4.5411

> <Gold.Chemscore.Internal.Correction.Weighted>
   9.000000E+99

> <Gold.Protein.RotatedTorsions>
[ 6907 6896 6895 6894 ] final  112.46 input  -60.11 | X-H torsion
[ 7974 7965 7964 7962 ] final  118.78 input  175.53 | X-H torsion
[ 8008 7997 7996 7995 ] final  -90.29 input   59.86 | X-H torsion
[ 10167 10162 10161 10158 ] final  177.44 input  -65.29 | X-H torsion
[ 10718 10713 10712 10709 ] final  117.38 input   66.30 | X-H torsion
[ 10763 10752 10751 10750 ] final   53.30 input  -60.55 | X-H torsion
[ 11005 11000 10999 10996 ] final  127.96 input  -57.11 | X-H torsion

> <Gold.Protein.ActiveResidues>
 VAL166  LYS551  ARG553  GLY616  TRP617  ASP618  TYR619  PRO620  LYS621  CYS622 
 ASP623  PHE694  ASN695  SER759  ASP760  ASP761  ALA762  ILE779  LEU786  VAL792 
 PHE793  MET794  SER795  GLU796  ALA797  LYS798  CYS799  TRP800  GLU811  SER814 

> <Gold.Protein.RotatedAtoms>
  152.4915  133.8513  159.7202 H   0  0  0  0  0  0  0  0  0  0  0  0  # atno 6907 bound_to 6896
  150.9049  133.7061  159.2876 H   0  0  0  0  0  0  0  0  0  0  0  0  # atno 6908 bound_to 6896
  151.4490  135.1032  159.9744 H   0  0  0  0  0  0  0  0  0  0  0  0  # atno 6909 bound_to 6896
  145.1511  139.3210  143.4566 H   0  0  0  0  0  0  0  0  0  0  0  0  # atno 7974 bound_to 7965
  154.6968  140.0532  157.0418 H   0  0  0  0  0  0  0  0  0  0  0  0  # atno 8008 bound_to 7997
  155.0740  140.3202  155.4603 H   0  0  0  0  0  0  0  0  0  0  0  0  # atno 8009 bound_to 7997
  156.2747  140.2076  156.5868 H   0  0  0  0  0  0  0  0  0  0  0  0  # atno 8010 bound_to 7997
  139.5253  144.2798  152.0557 H   0  0  0  0  0  0  0  0  0  0  0  0  # atno 10167 bound_to 10162
  157.6100  131.1036  150.7606 H   0  0  0  0  0  0  0  0  0  0  0  0  # atno 10718 bound_to 10713
  152.9794  135.5783  154.4719 H   0  0  0  0  0  0  0  0  0  0  0  0  # atno 10763 bound_to 10752
  154.4281  135.2773  155.1933 H   0  0  0  0  0  0  0  0  0  0  0  0  # atno 10764 bound_to 10752
  154.3653  135.6179  153.5765 H   0  0  0  0  0  0  0  0  0  0  0  0  # atno 10765 bound_to 10752
  139.9535  134.9617  156.8932 H   0  0  0  0  0  0  0  0  0  0  0  0  # atno 11005 bound_to 11000
  146.3494  140.1585  142.8591 LP  0  0  0  0  0  0  0  0  0  0  0  0  # atno 17320 bound_to 7965
  145.0430  140.8960  143.5041 LP  0  0  0  0  0  0  0  0  0  0  0  0  # atno 17321 bound_to 7965
  140.2254  144.4424  150.6323 LP  0  0  0  0  0  0  0  0  0  0  0  0  # atno 17342 bound_to 10162
  140.6391  143.2200  151.6330 LP  0  0  0  0  0  0  0  0  0  0  0  0  # atno 17343 bound_to 10162
  156.7986  130.4913  149.5373 LP  0  0  0  0  0  0  0  0  0  0  0  0  # atno 17370 bound_to 10713
  156.1200  130.6103  151.0178 LP  0  0  0  0  0  0  0  0  0  0  0  0  # atno 17371 bound_to 10713
  140.5663  134.0486  155.7415 LP  0  0  0  0  0  0  0  0  0  0  0  0  # atno 17394 bound_to 11000
  141.1202  133.9473  157.2743 LP  0  0  0  0  0  0  0  0  0  0  0  0  # atno 17395 bound_to 11000

$$$$
