AV-unprocessed.smi:609|AV-procd|sdf|3050|dock3
  -GOLD-   2262023573D 1   1.00000     0.00000
 Structure written by MMmdl.
 44 46  0  0  0  0  0  0  0  0  3 V2000
  152.4446  143.5025  161.0944 C   0  0  0  0  0  0  0  0  0  0  0  0
  152.1833  142.6984  159.8321 C   0  0  0  0  0  0  0  0  0  0  0  0
  151.3326  143.2477  158.8464 C   0  0  0  0  0  0  0  0  0  0  0  0
  151.1079  142.4858  157.7060 C   0  0  0  0  0  0  0  0  0  0  0  0
  150.3291  142.7410  156.5754 N   0  3  0  0  0  0  0  0  0  0  0  0
  150.4157  141.6879  155.7166 C   0  0  0  0  0  0  0  0  0  0  0  0
  151.2379  140.7629  156.2824 N   0  0  0  0  0  0  0  0  0  0  0  0
  151.6619  139.4528  155.7686 C   0  0  0  0  0  0  0  0  0  0  0  0
  150.5347  138.6993  155.0345 C   0  0  1  0  0  0  0  0  0  0  0  0
  150.3204  139.3480  153.7982 O   0  0  0  0  0  0  0  0  0  0  0  0
  150.8401  137.2119  154.7760 C   0  0  0  0  0  0  0  0  0  0  0  0
  149.9256  136.1152  155.8969 S   0  0  0  0  0  0  0  0  0  0  0  0
  149.7288  134.5923  155.0221 C   0  0  0  0  0  0  0  0  0  0  0  0
  149.2101  134.4535  153.7984 N   0  3  0  0  0  0  0  0  0  0  0  0
  149.2112  133.1319  153.4403 C   0  0  0  0  0  0  0  0  0  0  0  0
  149.7555  132.4418  154.4945 C   0  0  0  0  0  0  0  0  0  0  0  0
  150.0646  133.3696  155.4567 N   0  0  0  0  0  0  0  0  0  0  0  0
  150.6672  133.1155  156.7659 C   0  0  0  0  0  0  0  0  0  0  0  0
  151.6991  141.2203  157.5230 C   0  0  0  0  0  0  0  0  0  0  0  0
  152.5447  140.6674  158.4822 C   0  0  0  0  0  0  0  0  0  0  0  0
  152.7817  141.4244  159.6518 C   0  0  0  0  0  0  0  0  0  0  0  0
  153.6935  140.8423  160.7185 C   0  0  0  0  0  0  0  0  0  0  0  0
  151.9251  144.4609  161.0720 H   0  0  0  0  0  0  0  0  0  0  0  0
  153.5098  143.7050  161.2068 H   0  0  0  0  0  0  0  0  0  0  0  0
  152.1005  142.9572  161.9736 H   0  0  0  0  0  0  0  0  0  0  0  0
  150.8747  144.2177  158.9757 H   0  0  0  0  0  0  0  0  0  0  0  0
  149.9216  141.6023  154.7593 H   0  0  0  0  0  0  0  0  0  0  0  0
  152.4905  139.6366  155.0830 H   0  0  0  0  0  0  0  0  0  0  0  0
  152.0719  138.8575  156.5846 H   0  0  0  0  0  0  0  0  0  0  0  0
  149.6167  138.7817  155.6179 H   0  0  0  0  0  0  0  0  0  0  0  0
  149.4843  139.7880  153.8294 H   0  0  0  0  0  0  0  0  0  0  0  0
  150.5999  136.9501  153.7448 H   0  0  0  0  0  0  0  0  0  0  0  0
  151.9010  137.0096  154.9201 H   0  0  0  0  0  0  0  0  0  0  0  0
  148.8346  132.7894  152.4875 H   0  0  0  0  0  0  0  0  0  0  0  0
  149.9399  131.3854  154.6268 H   0  0  0  0  0  0  0  0  0  0  0  0
  150.8429  132.0461  156.8858 H   0  0  0  0  0  0  0  0  0  0  0  0
  149.9903  133.4608  157.5480 H   0  0  0  0  0  0  0  0  0  0  0  0
  151.6161  133.6482  156.8351 H   0  0  0  0  0  0  0  0  0  0  0  0
  153.0020  139.6986  158.3480 H   0  0  0  0  0  0  0  0  0  0  0  0
  154.0864  139.8698  160.4207 H   0  0  0  0  0  0  0  0  0  0  0  0
  153.1512  140.7103  161.6551 H   0  0  0  0  0  0  0  0  0  0  0  0
  154.5426  141.5018  160.8991 H   0  0  0  0  0  0  0  0  0  0  0  0
  148.8649  135.2133  153.2262 H   0  0  0  0  0  0  0  0  0  0  0  0
  149.7791  143.5722  156.3993 H   0  0  0  0  0  0  0  0  0  0  0  0
  1  2  1  0  0  0  0
  1 23  1  0  0  0  0
  1 24  1  0  0  0  0
  1 25  1  0  0  0  0
  2 21  1  0  0  0  0
  2  3  2  0  0  0  0
  3  4  1  0  0  0  0
  3 26  1  0  0  0  0
  4 19  2  0  0  0  0
  4  5  1  0  0  0  0
  5  6  2  0  0  0  0
  5 44  1  0  0  0  0
  6  7  1  0  0  0  0
  6 27  1  0  0  0  0
  7  8  1  0  0  0  0
  7 19  1  0  0  0  0
  8  9  1  0  0  0  0
  8 28  1  0  0  0  0
  8 29  1  0  0  0  0
  9 10  1  0  0  0  0
  9 11  1  0  0  0  0
  9 30  1  0  0  0  0
 10 31  1  0  0  0  0
 11 12  1  0  0  0  0
 11 32  1  0  0  0  0
 11 33  1  0  0  0  0
 12 13  1  0  0  0  0
 13 17  1  0  0  0  0
 13 14  2  0  0  0  0
 14 15  1  0  0  0  0
 14 43  1  0  0  0  0
 15 16  2  0  0  0  0
 15 34  1  0  0  0  0
 16 17  1  0  0  0  0
 16 35  1  0  0  0  0
 17 18  1  0  0  0  0
 18 36  1  0  0  0  0
 18 37  1  0  0  0  0
 18 38  1  0  0  0  0
 19 20  1  0  0  0  0
 20 21  2  0  0  0  0
 20 39  1  0  0  0  0
 21 22  1  0  0  0  0
 22 40  1  0  0  0  0
 22 41  1  0  0  0  0
 22 42  1  0  0  0  0
M  CHG  1   5   1
M  CHG  1  14   1
M  END
> <s_m_source_file>
AV-unprocessed.smi

> <i_m_source_file_index>
609

> <i_lp_mmshare_version>
43012

> <i_f3d_flags>
0

> <s_epik_input>
W0NIM11jKFtjSF0xKWMoW0NIM10pW2NIXWMoYzEyKW4oW2NIXW4yKVtDSDJdW0NASF0oW09IXSlbQ0gyXVNjM25bY0hdW2NIXW4zW0NIM10=

> <s_epik_cmdline>
J2VwaWtfcHl0aG9uJywgJy1waCcsICc3LjAnLCAnLXRuJywgJzgnLCAnLW1hJywgJzIwMCcsICctbWV0YWxfYmluZGluZycsICctaW1hZScsICc8aW5maWxlLm1hZT4nLCAnLW9tYWUnLCAnPG91dGZpbGUubWFlPic=

> <r_lp_tautomer_probability>
1

> <r_epik_Ionization_Penalty>
1.19058

> <r_epik_Ionization_Penalty_Charging>
1.07615

> <r_epik_Ionization_Penalty_Neutral>
0.114429

> <r_epik_State_Penalty>
1.23473

> <r_epik_Charging_Adjusted_Penalty>
2.31088

> <i_epik_Tot_Q>
2

> <i_epik_Tot_abs_Q>
2

> <r_epik_Metal_State_Penalty>
4.63867

> <b_epik_Metal_Only>
0

> <s_lp_Force_Field>
OPLS_2005

> <r_lp_Energy>
20.0831

> <b_lp_Chiralities_Consistent>
1

> <s_lp_Variant>
AV-unprocessed.smi:609-6

> <Gold.Version>
5.8.1

> <Gold.Id.Protein>
6NUR|6NUR_protein|mol2

> <Gold.PLP.Fitness>
62.2067

> <Gold.PLP.PLP>
-49.6851

> <Gold.PLP.part.hbond>
-4.0000

> <Gold.PLP.part.metal>
0.0000

> <Gold.PLP.part.buried>
-4.2266

> <Gold.PLP.part.nonpolar>
-41.0414

> <Gold.PLP.part.repulsive>
0.0764

> <Gold.PLP.ligand.clash>
0.0000

> <Gold.PLP.ligand.torsion>
1.2353

> <Gold.PLP.Chemscore.Hbond>
4.9760

> <Gold.PLP.Chemscore.CHOScore>
0.0000

> <Gold.PLP.Chemscore.Metal>
0.0000

> <Gold.Chemscore.Hbonds>
donor molecule, donor type, donor heavy atom, donor atom, acceptor molecule, acceptor atom, score
      L1  H     5    44       P1  8028  2.00
      L1  H    14    43       P1  7948  2.00
      P1  H  7989  7998       L1    10  0.99

> <Gold.PLP.Chemscore.Internal.Correction>
0.0641

> <Gold.Rescore>
     Score         DG    S(hbond)    S(metal)    S(lipo)     H(rot)  DE(clash)    DE(int)     intcor
     18.77     -20.19       2.37        0.00     114.77       2.59       0.10       1.31       ----

> <Gold.Chemscore.Fitness>
18.7745

> <Gold.Chemscore.DG>
-20.1873

> <Gold.Chemscore.ZeroCoef>
-5.4800

> <Gold.Chemscore.Hbond>
2.3654

> <Gold.Chemscore.Metal>
0.0000

> <Gold.Chemscore.Lipo>
114.7679

> <Gold.Chemscore.Internal_Hbond>
0.0000

> <Gold.Chemscore.DEClash>
0.1042

> <Gold.Chemscore.DEInternal>
1.3086

> <Gold.Chemscore.Rot>
2.5863

> <Gold.Chemscore.Internal.Correction>
   9.000000E+99

> <Gold.Chemscore.Hbonds>
donor molecule, donor type, donor heavy atom, donor atom, acceptor molecule, acceptor atom, score
      L1  H     5    44       P1  8028  0.99
      L1  H    14    43       P1  7948  0.52
      P1  H  7989  7998       L1    10  0.30

> <Gold.Chemscore.Hbond.Weighted>
-7.9004

> <Gold.Chemscore.Metal.Weighted>
-0.0000

> <Gold.Chemscore.Lipo.Weighted>
-13.4278

> <Gold.Chemscore.Internal_Hbond.Weighted>
0.0000

> <Gold.Chemscore.DEClash.Weighted>
0.1042

> <Gold.Chemscore.DEInternal.Weighted>
1.3086

> <Gold.Chemscore.Rot.Weighted>
6.6210

> <Gold.Chemscore.Internal.Correction.Weighted>
   9.000000E+99

> <Gold.Protein.RotatedTorsions>
[ 6907 6896 6895 6894 ] final   78.96 input  -60.11 | X-H torsion
[ 7974 7965 7964 7962 ] final -123.88 input  175.53 | X-H torsion
[ 8008 7997 7996 7995 ] final   80.36 input   59.86 | X-H torsion
[ 10167 10162 10161 10158 ] final -174.97 input  -65.29 | X-H torsion
[ 10718 10713 10712 10709 ] final  -41.10 input   66.30 | X-H torsion
[ 10763 10752 10751 10750 ] final  178.76 input  -60.55 | X-H torsion
[ 11005 11000 10999 10996 ] final   62.92 input  -57.11 | X-H torsion

> <Gold.Protein.ActiveResidues>
 VAL166  LYS551  ARG553  GLY616  TRP617  ASP618  TYR619  PRO620  LYS621  CYS622 
 ASP623  PHE694  ASN695  SER759  ASP760  ASP761  ALA762  ILE779  LEU786  VAL792 
 PHE793  MET794  SER795  GLU796  ALA797  LYS798  CYS799  TRP800  GLU811  SER814 

> <Gold.Protein.RotatedAtoms>
  152.5180  134.3584  159.9275 H   0  0  0  0  0  0  0  0  0  0  0  0  # atno 6907 bound_to 6896
  151.3536  133.3910  159.2690 H   0  0  0  0  0  0  0  0  0  0  0  0  # atno 6908 bound_to 6896
  150.9708  134.9099  159.7844 H   0  0  0  0  0  0  0  0  0  0  0  0  # atno 6909 bound_to 6896
  145.0140  140.7931  143.4421 H   0  0  0  0  0  0  0  0  0  0  0  0  # atno 7974 bound_to 7965
  155.8824  140.3443  155.5897 H   0  0  0  0  0  0  0  0  0  0  0  0  # atno 8008 bound_to 7997
  155.7705  140.0844  157.2129 H   0  0  0  0  0  0  0  0  0  0  0  0  # atno 8009 bound_to 7997
  154.4025  140.1519  156.2924 H   0  0  0  0  0  0  0  0  0  0  0  0  # atno 8010 bound_to 7997
  139.5605  144.1881  152.1231 H   0  0  0  0  0  0  0  0  0  0  0  0  # atno 10167 bound_to 10162
  156.2740  130.4210  149.8407 H   0  0  0  0  0  0  0  0  0  0  0  0  # atno 10718 bound_to 10713
  154.5118  135.2789  155.1336 H   0  0  0  0  0  0  0  0  0  0  0  0  # atno 10763 bound_to 10752
  154.2928  135.6263  153.5396 H   0  0  0  0  0  0  0  0  0  0  0  0  # atno 10764 bound_to 10752
  152.9920  135.5678  154.5585 H   0  0  0  0  0  0  0  0  0  0  0  0  # atno 10765 bound_to 10752
  140.0059  134.6370  155.9856 H   0  0  0  0  0  0  0  0  0  0  0  0  # atno 11005 bound_to 11000
  145.1984  139.2264  143.5205 LP  0  0  0  0  0  0  0  0  0  0  0  0  # atno 17320 bound_to 7965
  146.3475  140.1796  142.8589 LP  0  0  0  0  0  0  0  0  0  0  0  0  # atno 17321 bound_to 7965
  140.1393  144.5217  150.6754 LP  0  0  0  0  0  0  0  0  0  0  0  0  # atno 17342 bound_to 10162
  140.6885  143.2362  151.5197 LP  0  0  0  0  0  0  0  0  0  0  0  0  # atno 17343 bound_to 10162
  156.5878  130.8493  151.3400 LP  0  0  0  0  0  0  0  0  0  0  0  0  # atno 17370 bound_to 10713
  157.7293  130.9669  150.1782 LP  0  0  0  0  0  0  0  0  0  0  0  0  # atno 17371 bound_to 10713
  141.1676  133.6537  156.4536 LP  0  0  0  0  0  0  0  0  0  0  0  0  # atno 17394 bound_to 11000
  140.4642  134.6813  157.5099 LP  0  0  0  0  0  0  0  0  0  0  0  0  # atno 17395 bound_to 11000

$$$$
