AV-unprocessed.smi:2124|AV-procd|sdf|8659|dock6
  -GOLD-   2272011403D 1   1.00000     0.00000
 Structure written by MMmdl.
 47 49  0  0  0  0  0  0  0  0  1 V2000
  145.2233  138.0459  153.0561 C   0  0  0  0  0  0  0  0  0  0  0  0
  146.3992  138.8724  153.5290 C   0  0  0  0  0  0  0  0  0  0  0  0
  146.1548  140.2359  153.5334 N   0  0  0  0  0  0  0  0  0  0  0  0
  147.1735  141.0747  153.9501 C   0  0  0  0  0  0  0  0  0  0  0  0
  146.8229  142.5521  153.9317 C   0  0  0  0  0  0  0  0  0  0  0  0
  148.3748  140.5794  154.3418 C   0  0  0  0  0  0  0  0  0  0  0  0
  149.5235  141.4668  154.8198 C   0  0  0  0  0  0  0  0  0  0  0  0
  149.6311  141.6781  156.3324 C   0  0  0  0  0  0  0  0  0  0  0  0
  148.6775  142.1181  156.9754 O   0  0  0  0  0  0  0  0  0  0  0  0
  150.8087  141.3536  156.8870 N   0  0  0  0  0  0  0  0  0  0  0  0
  151.1380  141.4660  158.3062 C   0  0  1  0  0  0  0  0  0  0  0  0
  151.6697  140.1149  158.8137 C   0  0  0  0  0  0  0  0  0  0  0  0
  152.1575  142.6090  158.5204 C   0  0  2  0  0  0  0  0  0  0  0  0
  152.6212  142.7975  159.9826 C   0  0  0  0  0  0  0  0  0  0  0  0
  152.4336  144.3084  160.2142 C   0  0  2  0  0  0  0  0  0  0  0  0
  150.9308  144.6135  160.3519 C   0  0  0  0  0  0  0  0  0  0  0  0
  150.4199  144.4506  158.9089 C   0  0  0  0  0  0  0  0  0  0  0  0
  151.6924  144.0379  158.1399 C   0  0  1  0  0  0  0  0  0  0  0  0
  152.7485  144.8873  158.8399 C   0  0  0  0  0  0  0  0  0  0  0  0
  148.5748  139.1113  154.3206 C   0  0  0  0  0  0  0  0  0  0  0  0
  149.6363  138.6018  154.6769 O   0  0  0  0  0  0  0  0  0  0  0  0
  147.5110  138.3044  153.8856 N   0  0  0  0  0  0  0  0  0  0  0  0
  145.2763  140.6461  153.2510 H   0  0  0  0  0  0  0  0  0  0  0  0
  145.4439  136.9797  153.1222 H   0  0  0  0  0  0  0  0  0  0  0  0
  144.9869  138.2817  152.0181 H   0  0  0  0  0  0  0  0  0  0  0  0
  144.3439  138.2491  153.6680 H   0  0  0  0  0  0  0  0  0  0  0  0
  146.9641  142.9900  154.9201 H   0  0  0  0  0  0  0  0  0  0  0  0
  145.7850  142.7155  153.6387 H   0  0  0  0  0  0  0  0  0  0  0  0
  147.4582  143.0847  153.2238 H   0  0  0  0  0  0  0  0  0  0  0  0
  149.4250  142.4491  154.3581 H   0  0  0  0  0  0  0  0  0  0  0  0
  150.4738  141.0806  154.4490 H   0  0  0  0  0  0  0  0  0  0  0  0
  151.5343  141.0005  156.2800 H   0  0  0  0  0  0  0  0  0  0  0  0
  150.2341  141.6986  158.8707 H   0  0  0  0  0  0  0  0  0  0  0  0
  151.8990  140.1520  159.8787 H   0  0  0  0  0  0  0  0  0  0  0  0
  152.5798  139.8229  158.2885 H   0  0  0  0  0  0  0  0  0  0  0  0
  150.9338  139.3233  158.6687 H   0  0  0  0  0  0  0  0  0  0  0  0
  153.0368  142.3859  157.9132 H   0  0  0  0  0  0  0  0  0  0  0  0
  152.0437  142.2074  160.6954 H   0  0  0  0  0  0  0  0  0  0  0  0
  153.6681  142.5113  160.0903 H   0  0  0  0  0  0  0  0  0  0  0  0
  153.0364  144.7035  161.0324 H   0  0  0  0  0  0  0  0  0  0  0  0
  150.4327  143.9380  161.0484 H   0  0  0  0  0  0  0  0  0  0  0  0
  150.7701  145.6337  160.7026 H   0  0  0  0  0  0  0  0  0  0  0  0
  149.6089  143.7280  158.8251 H   0  0  0  0  0  0  0  0  0  0  0  0
  150.0428  145.4028  158.5341 H   0  0  0  0  0  0  0  0  0  0  0  0
  151.6227  144.2028  157.0644 H   0  0  0  0  0  0  0  0  0  0  0  0
  152.5612  145.9602  158.7681 H   0  0  0  0  0  0  0  0  0  0  0  0
  153.7665  144.6798  158.5054 H   0  0  0  0  0  0  0  0  0  0  0  0
  1 24  1  0  0  0  0
  1 25  1  0  0  0  0
  1 26  1  0  0  0  0
  1  2  1  0  0  0  0
  2  3  1  0  0  0  0
  2 22  2  0  0  0  0
  3  4  1  0  0  0  0
  3 23  1  0  0  0  0
  4  6  2  0  0  0  0
  4  5  1  0  0  0  0
  5 27  1  0  0  0  0
  5 28  1  0  0  0  0
  5 29  1  0  0  0  0
  6 20  1  0  0  0  0
  6  7  1  0  0  0  0
  7  8  1  0  0  0  0
  7 30  1  0  0  0  0
  7 31  1  0  0  0  0
  8  9  2  0  0  0  0
  8 10  1  0  0  0  0
 10 11  1  0  0  0  0
 10 32  1  0  0  0  0
 11 12  1  0  0  0  0
 11 13  1  0  0  0  0
 11 33  1  0  0  0  0
 12 34  1  0  0  0  0
 12 35  1  0  0  0  0
 12 36  1  0  0  0  0
 13 18  1  0  0  0  0
 13 14  1  0  0  0  0
 13 37  1  0  0  0  0
 14 15  1  0  0  0  0
 14 38  1  0  0  0  0
 14 39  1  0  0  0  0
 15 19  1  0  0  0  0
 15 16  1  0  0  0  0
 15 40  1  0  0  0  0
 16 17  1  0  0  0  0
 16 41  1  0  0  0  0
 16 42  1  0  0  0  0
 17 18  1  0  0  0  0
 17 43  1  0  0  0  0
 17 44  1  0  0  0  0
 18 19  1  0  0  0  0
 18 45  1  0  0  0  0
 19 46  1  0  0  0  0
 19 47  1  0  0  0  0
 20 21  2  0  0  0  0
 20 22  1  0  0  0  0
M  END
> <s_m_source_file>
AV-unprocessed.smi

> <i_m_source_file_index>
2124

> <i_lp_mmshare_version>
43012

> <i_f3d_flags>
0

> <s_epik_input>
W0NIM11jMW5jKFtDSDNdKWMoYyg9TylbbkhdMSlbQ0gyXUMoPU8pW05IXVtDQEhdKFtDSDNdKVtDQEhdKFtDSDJdW0NASF0yMylbQ0BIXShbQ0gyXTMpW0NIMl1bQ0gyXTI=

> <s_epik_cmdline>
J2VwaWtfcHl0aG9uJywgJy1waCcsICc3LjAnLCAnLXRuJywgJzgnLCAnLW1hJywgJzIwMCcsICctbWV0YWxfYmluZGluZycsICctaW1hZScsICc8aW5maWxlLm1hZT4nLCAnLW9tYWUnLCAnPG91dGZpbGUubWFlPic=

> <r_lp_tautomer_probability>
0.156392

> <r_epik_Ionization_Penalty>
0.0139374

> <r_epik_Ionization_Penalty_Charging>
0.0138122

> <r_epik_Ionization_Penalty_Neutral>
0.000125146

> <r_epik_State_Penalty>
1.15342

> <r_epik_Charging_Adjusted_Penalty>
1.16723

> <i_epik_Tot_Q>
0

> <i_epik_Tot_abs_Q>
0

> <r_epik_Metal_State_Penalty>
1.3173

> <b_epik_Metal_Only>
0

> <s_lp_Force_Field>
OPLS_2005

> <r_lp_Energy>
55.6294

> <b_lp_Chiralities_Consistent>
1

> <s_lp_Variant>
AV-unprocessed.smi:2124-10

> <Gold.Version>
5.8.1

> <Gold.Id.Protein>
6NUR|6NUR_protein|mol2

> <Gold.PLP.Fitness>
45.7998

> <Gold.PLP.PLP>
-43.6944

> <Gold.PLP.part.hbond>
-1.0000

> <Gold.PLP.part.metal>
0.0000

> <Gold.PLP.part.buried>
-6.5202

> <Gold.PLP.part.nonpolar>
-38.2995

> <Gold.PLP.part.repulsive>
2.0306

> <Gold.PLP.ligand.clash>
0.0000

> <Gold.PLP.ligand.torsion>
0.4534

> <Gold.PLP.Chemscore.Hbond>
1.0000

> <Gold.PLP.Chemscore.CHOScore>
0.0000

> <Gold.PLP.Chemscore.Metal>
0.0000

> <Gold.Chemscore.Hbonds>
donor molecule, donor type, donor heavy atom, donor atom, acceptor molecule, acceptor atom, score
      L1  H     3    23       P1 10175  1.00

> <Gold.PLP.Chemscore.Internal.Correction>
0.0122

> <Gold.Rescore>
     Score         DG    S(hbond)    S(metal)    S(lipo)     H(rot)  DE(clash)    DE(int)     intcor
     18.20     -18.50       0.99        0.00     119.17       1.65       0.05       0.26       ----

> <Gold.Chemscore.Fitness>
18.1956

> <Gold.Chemscore.DG>
-18.5021

> <Gold.Chemscore.ZeroCoef>
-5.4800

> <Gold.Chemscore.Hbond>
0.9915

> <Gold.Chemscore.Metal>
0.0000

> <Gold.Chemscore.Lipo>
119.1727

> <Gold.Chemscore.Internal_Hbond>
0.0000

> <Gold.Chemscore.DEClash>
0.0508

> <Gold.Chemscore.DEInternal>
0.2557

> <Gold.Chemscore.Rot>
1.6534

> <Gold.Chemscore.Internal.Correction>
   9.000000E+99

> <Gold.Chemscore.Hbonds>
donor molecule, donor type, donor heavy atom, donor atom, acceptor molecule, acceptor atom, score
      L1  H     3    23       P1 10175  0.83

> <Gold.Chemscore.Hbond.Weighted>
-3.3115

> <Gold.Chemscore.Metal.Weighted>
-0.0000

> <Gold.Chemscore.Lipo.Weighted>
-13.9432

> <Gold.Chemscore.Internal_Hbond.Weighted>
0.0000

> <Gold.Chemscore.DEClash.Weighted>
0.0508

> <Gold.Chemscore.DEInternal.Weighted>
0.2557

> <Gold.Chemscore.Rot.Weighted>
4.2326

> <Gold.Chemscore.Internal.Correction.Weighted>
   9.000000E+99

> <Gold.Protein.RotatedTorsions>
[ 6907 6896 6895 6894 ] final  137.70 input  -60.11 | X-H torsion
[ 7974 7965 7964 7962 ] final   47.41 input  175.53 | X-H torsion
[ 8008 7997 7996 7995 ] final  -84.55 input   59.86 | X-H torsion
[ 10167 10162 10161 10158 ] final  -72.36 input  -65.29 | X-H torsion
[ 10718 10713 10712 10709 ] final  -38.51 input   66.30 | X-H torsion
[ 10763 10752 10751 10750 ] final   21.04 input  -60.55 | X-H torsion
[ 11005 11000 10999 10996 ] final  -22.69 input  -57.11 | X-H torsion

> <Gold.Protein.ActiveResidues>
 VAL166  LYS551  ARG553  GLY616  TRP617  ASP618  TYR619  PRO620  LYS621  CYS622 
 ASP623  PHE694  ASN695  SER759  ASP760  ASP761  ALA762  ILE779  LEU786  VAL792 
 PHE793  MET794  SER795  GLU796  ALA797  LYS798  CYS799  TRP800  GLU811  SER814 

> <Gold.Protein.RotatedAtoms>
  152.2751  133.5418  159.5462 H   0  0  0  0  0  0  0  0  0  0  0  0  # atno 6907 bound_to 6896
  150.7174  134.0643  159.3851 H   0  0  0  0  0  0  0  0  0  0  0  0  # atno 6908 bound_to 6896
  151.8556  135.0542  160.0514 H   0  0  0  0  0  0  0  0  0  0  0  0  # atno 6909 bound_to 6896
  146.0301  139.4753  142.9843 H   0  0  0  0  0  0  0  0  0  0  0  0  # atno 7974 bound_to 7965
  154.6310  140.0603  156.9732 H   0  0  0  0  0  0  0  0  0  0  0  0  # atno 8008 bound_to 7997
  155.1665  140.3287  155.4382 H   0  0  0  0  0  0  0  0  0  0  0  0  # atno 8009 bound_to 7997
  156.2483  140.1921  156.6770 H   0  0  0  0  0  0  0  0  0  0  0  0  # atno 8010 bound_to 7997
  140.5199  143.2333  151.7448 H   0  0  0  0  0  0  0  0  0  0  0  0  # atno 10167 bound_to 10162
  156.3029  130.4242  149.8125 H   0  0  0  0  0  0  0  0  0  0  0  0  # atno 10718 bound_to 10713
  153.1027  135.6677  153.9642 H   0  0  0  0  0  0  0  0  0  0  0  0  # atno 10763 bound_to 10752
  153.9208  135.3014  155.3449 H   0  0  0  0  0  0  0  0  0  0  0  0  # atno 10764 bound_to 10752
  154.7448  135.5062  153.9261 H   0  0  0  0  0  0  0  0  0  0  0  0  # atno 10765 bound_to 10752
  140.8681  133.7740  156.0154 H   0  0  0  0  0  0  0  0  0  0  0  0  # atno 11005 bound_to 11000
  145.7055  141.0122  143.1481 LP  0  0  0  0  0  0  0  0  0  0  0  0  # atno 17320 bound_to 7965
  144.7026  139.8695  143.7439 LP  0  0  0  0  0  0  0  0  0  0  0  0  # atno 17321 bound_to 7965
  139.4920  144.4270  151.9914 LP  0  0  0  0  0  0  0  0  0  0  0  0  # atno 17342 bound_to 10162
  140.3366  144.3253  150.5976 LP  0  0  0  0  0  0  0  0  0  0  0  0  # atno 17343 bound_to 10162
  156.5496  130.8336  151.3295 LP  0  0  0  0  0  0  0  0  0  0  0  0  # atno 17370 bound_to 10713
  157.7372  130.9792  150.2182 LP  0  0  0  0  0  0  0  0  0  0  0  0  # atno 17371 bound_to 10713
  140.8605  134.2846  157.5236 LP  0  0  0  0  0  0  0  0  0  0  0  0  # atno 17394 bound_to 11000
  139.8710  134.9515  156.4088 LP  0  0  0  0  0  0  0  0  0  0  0  0  # atno 17395 bound_to 11000

$$$$
