AV-unprocessed.smi:2202|AV-procd|sdf|8933|dock5
  -GOLD-   2272012143D 1   1.00000     0.00000
 Structure written by MMmdl.
 43 45  0  0  0  0  0  0  0  0  2 V2000
  150.9107  137.1421  159.7368 O   0  0  0  0  0  0  0  0  0  0  0  0
  150.7047  137.3492  158.5396 C   0  0  0  0  0  0  0  0  0  0  0  0
  151.6609  138.2174  157.7095 C   0  0  0  0  0  0  0  0  0  0  0  0
  151.8094  139.5813  158.2329 N   0  0  0  0  0  0  0  0  0  0  0  0
  152.7285  139.9487  159.1478 C   0  0  0  0  0  0  0  0  0  0  0  0
  153.4980  139.2140  159.7659 O   0  0  0  0  0  0  0  0  0  0  0  0
  152.7434  141.4663  159.2520 C   0  0  2  0  0  0  0  0  0  0  0  0
  152.9858  142.2054  160.5734 C   0  0  0  0  0  0  0  0  0  0  0  0
  152.6746  143.6891  160.3509 C   0  0  0  0  0  0  0  0  0  0  0  0
  151.9821  144.1615  159.2852 C   0  0  0  0  0  0  0  0  0  0  0  0
  151.3888  143.2666  158.1919 C   0  0  0  0  0  0  0  0  0  0  0  0
  151.3720  141.8256  158.7158 C   0  0  1  0  0  0  0  0  0  0  0  0
  151.0678  140.6304  157.8259 C   0  0  0  0  0  0  0  0  0  0  0  0
  150.2291  140.6428  156.9253 O   0  0  0  0  0  0  0  0  0  0  0  0
  149.6478  136.8485  157.8825 N   0  0  0  0  0  0  0  0  0  0  0  0
  148.6251  135.9964  158.4770 C   0  0  0  0  0  0  0  0  0  0  0  0
  147.8498  136.7317  159.5837 C   0  0  0  0  0  0  0  0  0  0  0  0
  147.8532  135.9658  160.8919 C   0  0  0  0  0  0  0  0  0  0  0  0
  148.2428  136.5600  162.1119 C   0  0  0  0  0  0  0  0  0  0  0  0
  148.2280  135.7849  163.2905 C   0  0  0  0  0  0  0  0  0  0  0  0
  147.8247  134.4349  163.2244 C   0  0  0  0  0  0  0  0  0  0  0  0
  147.4459  133.8928  161.9792 C   0  0  0  0  0  0  0  0  0  0  0  0
  147.4746  134.6670  160.8723 N   0  3  0  0  0  0  0  0  0  0  0  0
  152.6389  137.7343  157.6691 H   0  0  0  0  0  0  0  0  0  0  0  0
  151.2996  138.2438  156.6803 H   0  0  0  0  0  0  0  0  0  0  0  0
  153.5079  141.7955  158.5439 H   0  0  0  0  0  0  0  0  0  0  0  0
  152.3598  141.8145  161.3765 H   0  0  0  0  0  0  0  0  0  0  0  0
  154.0259  142.0957  160.8817 H   0  0  0  0  0  0  0  0  0  0  0  0
  153.0425  144.3778  161.0972 H   0  0  0  0  0  0  0  0  0  0  0  0
  151.8222  145.2246  159.1804 H   0  0  0  0  0  0  0  0  0  0  0  0
  150.3748  143.5966  157.9639 H   0  0  0  0  0  0  0  0  0  0  0  0
  151.9797  143.3586  157.2799 H   0  0  0  0  0  0  0  0  0  0  0  0
  150.6407  141.7766  159.5262 H   0  0  0  0  0  0  0  0  0  0  0  0
  149.5480  137.0711  156.9023 H   0  0  0  0  0  0  0  0  0  0  0  0
  147.9446  135.6405  157.7014 H   0  0  0  0  0  0  0  0  0  0  0  0
  149.1142  135.1133  158.8895 H   0  0  0  0  0  0  0  0  0  0  0  0
  148.2793  137.7213  159.7460 H   0  0  0  0  0  0  0  0  0  0  0  0
  146.8144  136.8934  159.2802 H   0  0  0  0  0  0  0  0  0  0  0  0
  148.5503  137.5951  162.1466 H   0  0  0  0  0  0  0  0  0  0  0  0
  148.5234  136.2206  164.2340 H   0  0  0  0  0  0  0  0  0  0  0  0
  147.8068  133.8245  164.1154 H   0  0  0  0  0  0  0  0  0  0  0  0
  147.1251  132.8712  161.8358 H   0  0  0  0  0  0  0  0  0  0  0  0
  147.1979  134.2539  159.9810 H   0  0  0  0  0  0  0  0  0  0  0  0
  1  2  2  0  0  0  0
  2  3  1  0  0  0  0
  2 15  1  0  0  0  0
  3  4  1  0  0  0  0
  3 24  1  0  0  0  0
  3 25  1  0  0  0  0
  4 13  1  0  0  0  0
  4  5  1  0  0  0  0
  5  6  2  0  0  0  0
  5  7  1  0  0  0  0
  7 12  1  0  0  0  0
  7  8  1  0  0  0  0
  7 26  1  0  0  0  0
  8  9  1  0  0  0  0
  8 27  1  0  0  0  0
  8 28  1  0  0  0  0
  9 10  2  0  0  0  0
  9 29  1  0  0  0  0
 10 11  1  0  0  0  0
 10 30  1  0  0  0  0
 11 12  1  0  0  0  0
 11 31  1  0  0  0  0
 11 32  1  0  0  0  0
 12 13  1  0  0  0  0
 12 33  1  0  0  0  0
 13 14  2  0  0  0  0
 15 16  1  0  0  0  0
 15 34  1  0  0  0  0
 16 17  1  0  0  0  0
 16 35  1  0  0  0  0
 16 36  1  0  0  0  0
 17 18  1  0  0  0  0
 17 37  1  0  0  0  0
 17 38  1  0  0  0  0
 18 23  1  0  0  0  0
 18 19  2  0  0  0  0
 19 20  1  0  0  0  0
 19 39  1  0  0  0  0
 20 21  2  0  0  0  0
 20 40  1  0  0  0  0
 21 22  1  0  0  0  0
 21 41  1  0  0  0  0
 22 23  2  0  0  0  0
 22 42  1  0  0  0  0
 23 43  1  0  0  0  0
M  CHG  1  23   1
M  END
> <s_m_source_file>
AV-unprocessed.smi

> <i_m_source_file_index>
2202

> <i_lp_mmshare_version>
43012

> <i_f3d_flags>
0

> <s_epik_input>
W0NIMl0xW0NIXT1bQ0hdW0NIMl1bQ0BIXShbQ0BIXTEyKUMoPU8pTihDMj1PKVtDSDJdQyg9TylbTkhdW0NIMl1bQ0gyXWMzW2NIXVtjSF1bY0hdW2NIXW4z

> <s_epik_cmdline>
J2VwaWtfcHl0aG9uJywgJy1waCcsICc3LjAnLCAnLXRuJywgJzgnLCAnLW1hJywgJzIwMCcsICctbWV0YWxfYmluZGluZycsICctaW1hZScsICc8aW5maWxlLm1hZT4nLCAnLW9tYWUnLCAnPG91dGZpbGUubWFlPic=

> <r_lp_tautomer_probability>
1

> <r_epik_Ionization_Penalty>
1.90039

> <r_epik_Ionization_Penalty_Charging>
1.90039

> <r_epik_Ionization_Penalty_Neutral>
1.50224e-07

> <r_epik_State_Penalty>
2.02162

> <r_epik_Charging_Adjusted_Penalty>
3.922

> <i_epik_Tot_Q>
1

> <i_epik_Tot_abs_Q>
1

> <r_epik_Metal_State_Penalty>
2.04542

> <b_epik_Metal_Only>
0

> <s_lp_Force_Field>
OPLS_2005

> <r_lp_Energy>
26.3593

> <b_lp_Chiralities_Consistent>
1

> <s_lp_Variant>
AV-unprocessed.smi:2202-5

> <Gold.Version>
5.8.1

> <Gold.Id.Protein>
6NUR|6NUR_protein|mol2

> <Gold.PLP.Fitness>
48.3102

> <Gold.PLP.PLP>
-47.1637

> <Gold.PLP.part.hbond>
-0.9345

> <Gold.PLP.part.metal>
0.0000

> <Gold.PLP.part.buried>
-5.2527

> <Gold.PLP.part.nonpolar>
-41.0315

> <Gold.PLP.part.repulsive>
0.1241

> <Gold.PLP.ligand.clash>
0.0000

> <Gold.PLP.ligand.torsion>
0.8065

> <Gold.PLP.Chemscore.Hbond>
0.9100

> <Gold.PLP.Chemscore.CHOScore>
0.0000

> <Gold.PLP.Chemscore.Metal>
0.0000

> <Gold.Chemscore.Hbonds>
donor molecule, donor type, donor heavy atom, donor atom, acceptor molecule, acceptor atom, score
      P1  H  6896  6908       L1     1  0.91

> <Gold.PLP.Chemscore.Internal.Correction>
0.0296

> <Gold.Rescore>
     Score         DG    S(hbond)    S(metal)    S(lipo)     H(rot)  DE(clash)    DE(int)     intcor
     16.02     -16.70       0.98        0.00     110.97       1.96       0.00       0.68       ----

> <Gold.Chemscore.Fitness>
16.0165

> <Gold.Chemscore.DG>
-16.7037

> <Gold.Chemscore.ZeroCoef>
-5.4800

> <Gold.Chemscore.Hbond>
0.9774

> <Gold.Chemscore.Metal>
0.0000

> <Gold.Chemscore.Lipo>
110.9683

> <Gold.Chemscore.Internal_Hbond>
0.0000

> <Gold.Chemscore.DEClash>
0.0044

> <Gold.Chemscore.DEInternal>
0.6829

> <Gold.Chemscore.Rot>
1.9625

> <Gold.Chemscore.Internal.Correction>
   9.000000E+99

> <Gold.Chemscore.Hbonds>
donor molecule, donor type, donor heavy atom, donor atom, acceptor molecule, acceptor atom, score
      P1  H  6896  6908       L1     1  0.39

> <Gold.Chemscore.Hbond.Weighted>
-3.2644

> <Gold.Chemscore.Metal.Weighted>
-0.0000

> <Gold.Chemscore.Lipo.Weighted>
-12.9833

> <Gold.Chemscore.Internal_Hbond.Weighted>
0.0000

> <Gold.Chemscore.DEClash.Weighted>
0.0044

> <Gold.Chemscore.DEInternal.Weighted>
0.6829

> <Gold.Chemscore.Rot.Weighted>
5.0240

> <Gold.Chemscore.Internal.Correction.Weighted>
   9.000000E+99

> <Gold.Protein.RotatedTorsions>
[ 6907 6896 6895 6894 ] final -146.97 input  -60.11 | X-H torsion
[ 7974 7965 7964 7962 ] final  -72.68 input  175.53 | X-H torsion
[ 8008 7997 7996 7995 ] final   10.03 input   59.86 | X-H torsion
[ 10167 10162 10161 10158 ] final  -21.40 input  -65.29 | X-H torsion
[ 10718 10713 10712 10709 ] final -137.67 input   66.30 | X-H torsion
[ 10763 10752 10751 10750 ] final -179.55 input  -60.55 | X-H torsion
[ 11005 11000 10999 10996 ] final  -26.78 input  -57.11 | X-H torsion

> <Gold.Protein.ActiveResidues>
 VAL166  LYS551  ARG553  GLY616  TRP617  ASP618  TYR619  PRO620  LYS621  CYS622 
 ASP623  PHE694  ASN695  SER759  ASP760  ASP761  ALA762  ILE779  LEU786  VAL792 
 PHE793  MET794  SER795  GLU796  ALA797  LYS798  CYS799  TRP800  GLU811  SER814 

> <Gold.Protein.RotatedAtoms>
  151.1491  133.4919  159.2595 H   0  0  0  0  0  0  0  0  0  0  0  0  # atno 6907 bound_to 6896
  151.1573  135.0256  159.8705 H   0  0  0  0  0  0  0  0  0  0  0  0  # atno 6908 bound_to 6896
  152.5463  134.1369  159.8515 H   0  0  0  0  0  0  0  0  0  0  0  0  # atno 6909 bound_to 6896
  145.6620  140.9249  143.0928 H   0  0  0  0  0  0  0  0  0  0  0  0  # atno 7974 bound_to 7965
  154.7880  140.2830  155.6013 H   0  0  0  0  0  0  0  0  0  0  0  0  # atno 8008 bound_to 7997
  156.2960  140.2610  156.2649 H   0  0  0  0  0  0  0  0  0  0  0  0  # atno 8009 bound_to 7997
  154.9705  140.0376  157.2221 H   0  0  0  0  0  0  0  0  0  0  0  0  # atno 8010 bound_to 7997
  140.7282  143.4631  151.0351 H   0  0  0  0  0  0  0  0  0  0  0  0  # atno 10167 bound_to 10162
  156.2907  130.7373  151.1398 H   0  0  0  0  0  0  0  0  0  0  0  0  # atno 10718 bound_to 10713
  154.5337  135.2801  155.1157 H   0  0  0  0  0  0  0  0  0  0  0  0  # atno 10763 bound_to 10752
  154.2667  135.6311  153.5298 H   0  0  0  0  0  0  0  0  0  0  0  0  # atno 10764 bound_to 10752
  152.9962  135.5618  154.5857 H   0  0  0  0  0  0  0  0  0  0  0  0  # atno 10765 bound_to 10752
  140.9060  133.7492  156.0606 H   0  0  0  0  0  0  0  0  0  0  0  0  # atno 11005 bound_to 11000
  144.7086  139.8462  143.7422 LP  0  0  0  0  0  0  0  0  0  0  0  0  # atno 17320 bound_to 7965
  146.1117  139.4122  143.0283 LP  0  0  0  0  0  0  0  0  0  0  0  0  # atno 17321 bound_to 7965
  139.8317  143.7681  152.3180 LP  0  0  0  0  0  0  0  0  0  0  0  0  # atno 17342 bound_to 10162
  139.7800  144.7448  151.0102 LP  0  0  0  0  0  0  0  0  0  0  0  0  # atno 17343 bound_to 10162
  157.7341  131.0584  150.5539 LP  0  0  0  0  0  0  0  0  0  0  0  0  # atno 17370 bound_to 10713
  156.5655  130.4266  149.6043 LP  0  0  0  0  0  0  0  0  0  0  0  0  # atno 17371 bound_to 10713
  140.8171  134.3332  157.5394 LP  0  0  0  0  0  0  0  0  0  0  0  0  # atno 17394 bound_to 11000
  139.8749  134.9287  156.3459 LP  0  0  0  0  0  0  0  0  0  0  0  0  # atno 17395 bound_to 11000

$$$$
