AV-unprocessed.smi:1007|AV-procd|sdf|4398|dock5
  -GOLD-   22720 2333D 1   1.00000     0.00000
 Structure written by MMmdl.
 56 58  0  0  0  0  0  0  0  0  2 V2000
  149.2819  139.0909  157.8528 C   0  0  0  0  0  0  0  0  0  0  0  0
  148.1424  139.9113  158.0601 O   0  0  0  0  0  0  0  0  0  0  0  0
  147.4754  140.2905  156.8647 C   0  0  0  0  0  0  0  0  0  0  0  0
  146.9317  139.0635  156.1091 C   0  0  0  0  0  0  0  0  0  0  0  0
  147.8709  138.4604  155.1582 N   0  0  0  0  0  0  0  0  0  0  0  0
  147.5933  137.0464  154.9084 C   0  0  0  0  0  0  0  0  0  0  0  0
  146.3206  136.8125  154.0682 C   0  0  0  0  0  0  0  0  0  0  0  0
  146.4120  137.5399  152.7735 N   0  3  0  0  0  0  0  0  0  0  0  0
  145.2388  137.3271  151.8887 C   0  0  0  0  0  0  0  0  0  0  0  0
  145.2307  135.9266  151.2360 C   0  0  2  0  0  0  0  0  0  0  0  0
  145.1531  136.0772  149.8329 O   0  0  0  0  0  0  0  0  0  0  0  0
  144.0467  135.0459  151.6805 C   0  0  0  0  0  0  0  0  0  0  0  0
  144.1449  133.6885  151.1757 N   0  0  0  0  0  0  0  0  0  0  0  0
  143.4946  133.1708  150.1159 C   0  0  0  0  0  0  0  0  0  0  0  0
  143.7388  131.8992  149.8140 N   0  0  0  0  0  0  0  0  0  0  0  0
  144.6480  131.5478  150.7968 C   0  0  0  0  0  0  0  0  0  0  0  0
  145.3089  130.3239  151.0393 C   0  0  0  0  0  0  0  0  0  0  0  0
  146.2161  130.1909  152.1145 C   0  0  0  0  0  0  0  0  0  0  0  0
  146.9055  128.8562  152.3371 C   0  0  0  0  0  0  0  0  0  0  0  0
  146.4745  131.2942  152.9671 C   0  0  0  0  0  0  0  0  0  0  0  0
  147.4455  131.1746  154.1285 C   0  0  0  0  0  0  0  0  0  0  0  0
  145.8217  132.5238  152.7400 C   0  0  0  0  0  0  0  0  0  0  0  0
  144.9215  132.6439  151.6665 C   0  0  0  0  0  0  0  0  0  0  0  0
  146.6938  138.9807  153.0010 C   0  0  0  0  0  0  0  0  0  0  0  0
  147.9566  139.1510  153.8693 C   0  0  0  0  0  0  0  0  0  0  0  0
  149.6975  138.7993  158.8173 H   0  0  0  0  0  0  0  0  0  0  0  0
  150.0639  139.6129  157.3018 H   0  0  0  0  0  0  0  0  0  0  0  0
  149.0211  138.1796  157.3134 H   0  0  0  0  0  0  0  0  0  0  0  0
  146.6908  141.0146  157.0867 H   0  0  0  0  0  0  0  0  0  0  0  0
  148.2039  140.8027  156.2351 H   0  0  0  0  0  0  0  0  0  0  0  0
  146.6680  138.3137  156.8562 H   0  0  0  0  0  0  0  0  0  0  0  0
  146.0001  139.3220  155.6088 H   0  0  0  0  0  0  0  0  0  0  0  0
  148.4445  136.6043  154.3886 H   0  0  0  0  0  0  0  0  0  0  0  0
  147.5151  136.5115  155.8557 H   0  0  0  0  0  0  0  0  0  0  0  0
  146.2091  135.7434  153.8931 H   0  0  0  0  0  0  0  0  0  0  0  0
  145.4320  137.1316  154.6144 H   0  0  0  0  0  0  0  0  0  0  0  0
  144.3334  137.4963  152.4725 H   0  0  0  0  0  0  0  0  0  0  0  0
  145.2320  138.0776  151.0966 H   0  0  0  0  0  0  0  0  0  0  0  0
  146.1541  135.3954  151.4644 H   0  0  0  0  0  0  0  0  0  0  0  0
  144.6929  136.8798  149.6378 H   0  0  0  0  0  0  0  0  0  0  0  0
  143.9825  135.0095  152.7689 H   0  0  0  0  0  0  0  0  0  0  0  0
  143.1057  135.4711  151.3284 H   0  0  0  0  0  0  0  0  0  0  0  0
  142.8075  133.7633  149.5291 H   0  0  0  0  0  0  0  0  0  0  0  0
  145.1127  129.4837  150.3895 H   0  0  0  0  0  0  0  0  0  0  0  0
  146.7302  128.4971  153.3513 H   0  0  0  0  0  0  0  0  0  0  0  0
  147.9806  128.9533  152.1848 H   0  0  0  0  0  0  0  0  0  0  0  0
  146.5360  128.0969  151.6474 H   0  0  0  0  0  0  0  0  0  0  0  0
  147.5776  132.1300  154.6370 H   0  0  0  0  0  0  0  0  0  0  0  0
  148.4237  130.8451  153.7788 H   0  0  0  0  0  0  0  0  0  0  0  0
  147.0779  130.4540  154.8593 H   0  0  0  0  0  0  0  0  0  0  0  0
  146.0097  133.3707  153.3831 H   0  0  0  0  0  0  0  0  0  0  0  0
  146.8513  139.4755  152.0420 H   0  0  0  0  0  0  0  0  0  0  0  0
  145.8317  139.4624  153.4640 H   0  0  0  0  0  0  0  0  0  0  0  0
  148.1693  140.2092  154.0156 H   0  0  0  0  0  0  0  0  0  0  0  0
  148.8129  138.7595  153.3182 H   0  0  0  0  0  0  0  0  0  0  0  0
  147.2136  137.1701  152.2826 H   0  0  0  0  0  0  0  0  0  0  0  0
  1  2  1  0  0  0  0
  1 26  1  0  0  0  0
  1 27  1  0  0  0  0
  1 28  1  0  0  0  0
  2  3  1  0  0  0  0
  3  4  1  0  0  0  0
  3 29  1  0  0  0  0
  3 30  1  0  0  0  0
  4  5  1  0  0  0  0
  4 31  1  0  0  0  0
  4 32  1  0  0  0  0
  5 25  1  0  0  0  0
  5  6  1  0  0  0  0
  6  7  1  0  0  0  0
  6 33  1  0  0  0  0
  6 34  1  0  0  0  0
  7  8  1  0  0  0  0
  7 35  1  0  0  0  0
  7 36  1  0  0  0  0
  8  9  1  0  0  0  0
  8 24  1  0  0  0  0
  8 56  1  0  0  0  0
  9 10  1  0  0  0  0
  9 37  1  0  0  0  0
  9 38  1  0  0  0  0
 10 11  1  0  0  0  0
 10 12  1  0  0  0  0
 10 39  1  0  0  0  0
 11 40  1  0  0  0  0
 12 13  1  0  0  0  0
 12 41  1  0  0  0  0
 12 42  1  0  0  0  0
 13 23  1  0  0  0  0
 13 14  1  0  0  0  0
 14 15  2  0  0  0  0
 14 43  1  0  0  0  0
 15 16  1  0  0  0  0
 16 23  2  0  0  0  0
 16 17  1  0  0  0  0
 17 18  2  0  0  0  0
 17 44  1  0  0  0  0
 18 19  1  0  0  0  0
 18 20  1  0  0  0  0
 19 45  1  0  0  0  0
 19 46  1  0  0  0  0
 19 47  1  0  0  0  0
 20 21  1  0  0  0  0
 20 22  2  0  0  0  0
 21 48  1  0  0  0  0
 21 49  1  0  0  0  0
 21 50  1  0  0  0  0
 22 23  1  0  0  0  0
 22 51  1  0  0  0  0
 24 25  1  0  0  0  0
 24 52  1  0  0  0  0
 24 53  1  0  0  0  0
 25 54  1  0  0  0  0
 25 55  1  0  0  0  0
M  CHG  1   8   1
M  END
> <s_m_source_file>
AV-unprocessed.smi

> <i_m_source_file_index>
1007

> <i_lp_mmshare_version>
43012

> <i_f3d_flags>
0

> <s_epik_input>
W0NIM11PW0NIMl1bQ0gyXU4xW0NIMl1bQ0gyXU4oW0NIMl1bQ0gyXTEpW0NIMl1bQ0BIXShbT0hdKVtDSDJdbihbY0hdbjIpYyhjMjMpW2NIXWMoW0NIM10pYyhbY0hdMylbQ0gzXQ==

> <s_epik_cmdline>
J2VwaWtfcHl0aG9uJywgJy1waCcsICc3LjAnLCAnLXRuJywgJzgnLCAnLW1hJywgJzIwMCcsICctbWV0YWxfYmluZGluZycsICctaW1hZScsICc8aW5maWxlLm1hZT4nLCAnLW9tYWUnLCAnPG91dGZpbGUubWFlPic=

> <r_epik_Ionization_Penalty>
0.102698

> <r_epik_Ionization_Penalty_Charging>
0.00226046

> <r_epik_Ionization_Penalty_Neutral>
0.100438

> <r_epik_State_Penalty>
0.191223

> <r_epik_Charging_Adjusted_Penalty>
0.193484

> <i_epik_Tot_Q>
1

> <i_epik_Tot_abs_Q>
1

> <r_epik_Metal_State_Penalty>
0.102154

> <b_epik_Metal_Only>
0

> <s_lp_Force_Field>
OPLS_2005

> <r_lp_Energy>
34.1063

> <b_lp_Chiralities_Consistent>
1

> <s_lp_Variant>
AV-unprocessed.smi:1007-1

> <Gold.Version>
5.8.1

> <Gold.Id.Protein>
6NUR|6NUR_protein|mol2

> <Gold.PLP.Fitness>
48.2547

> <Gold.PLP.PLP>
-37.1852

> <Gold.PLP.part.hbond>
-4.7601

> <Gold.PLP.part.metal>
0.0000

> <Gold.PLP.part.buried>
-4.2902

> <Gold.PLP.part.nonpolar>
-28.8370

> <Gold.PLP.part.repulsive>
0.2763

> <Gold.PLP.ligand.clash>
0.0000

> <Gold.PLP.ligand.torsion>
1.5885

> <Gold.PLP.Chemscore.Hbond>
3.7166

> <Gold.PLP.Chemscore.CHOScore>
1.0000

> <Gold.PLP.Chemscore.Metal>
0.0000

> <Gold.Chemscore.Hbonds>
donor molecule, donor type, donor heavy atom, donor atom, acceptor molecule, acceptor atom, score
      L1  H     8    56       P1  7948  2.00
      L1  H    11    40       P1 10171  1.00
      P1  H 10785 10796       L1    15  0.68
      L1  C    14    43       P1 10186  0.71

> <Gold.PLP.Chemscore.Internal.Correction>
0.0967

> <Gold.Rescore>
     Score         DG    S(hbond)    S(metal)    S(lipo)     H(rot)  DE(clash)    DE(int)     intcor
     16.21     -17.64       2.42        0.00      90.86       2.56       0.17       1.26       ----

> <Gold.Chemscore.Fitness>
16.2074

> <Gold.Chemscore.DG>
-17.6440

> <Gold.Chemscore.ZeroCoef>
-5.4800

> <Gold.Chemscore.Hbond>
2.4209

> <Gold.Chemscore.Metal>
0.0000

> <Gold.Chemscore.Lipo>
90.8588

> <Gold.Chemscore.Internal_Hbond>
0.0000

> <Gold.Chemscore.DEClash>
0.1730

> <Gold.Chemscore.DEInternal>
1.2636

> <Gold.Chemscore.Rot>
2.5594

> <Gold.Chemscore.Internal.Correction>
   9.000000E+99

> <Gold.Chemscore.Hbonds>
donor molecule, donor type, donor heavy atom, donor atom, acceptor molecule, acceptor atom, score
      L1  H     8    56       P1  7948  0.95
      L1  H    11    40       P1 10171  1.00
      P1  H 10785 10796       L1    15  0.43

> <Gold.Chemscore.Hbond.Weighted>
-8.0857

> <Gold.Chemscore.Metal.Weighted>
-0.0000

> <Gold.Chemscore.Lipo.Weighted>
-10.6305

> <Gold.Chemscore.Internal_Hbond.Weighted>
0.0000

> <Gold.Chemscore.DEClash.Weighted>
0.1730

> <Gold.Chemscore.DEInternal.Weighted>
1.2636

> <Gold.Chemscore.Rot.Weighted>
6.5522

> <Gold.Chemscore.Internal.Correction.Weighted>
   9.000000E+99

> <Gold.Protein.RotatedTorsions>
[ 6907 6896 6895 6894 ] final  -90.79 input  -60.11 | X-H torsion
[ 7974 7965 7964 7962 ] final   63.14 input  175.53 | X-H torsion
[ 8008 7997 7996 7995 ] final  -20.95 input   59.86 | X-H torsion
[ 10167 10162 10161 10158 ] final   77.78 input  -65.29 | X-H torsion
[ 10718 10713 10712 10709 ] final  129.36 input   66.30 | X-H torsion
[ 10763 10752 10751 10750 ] final  111.38 input  -60.55 | X-H torsion
[ 11005 11000 10999 10996 ] final  -85.11 input  -57.11 | X-H torsion

> <Gold.Protein.ActiveResidues>
 VAL166  LYS551  ARG553  GLY616  TRP617  ASP618  TYR619  PRO620  LYS621  CYS622 
 ASP623  PHE694  ASN695  SER759  ASP760  ASP761  ALA762  ILE779  LEU786  VAL792 
 PHE793  MET794  SER795  GLU796  ALA797  LYS798  CYS799  TRP800  GLU811  SER814 

> <Gold.Protein.RotatedAtoms>
  150.6885  134.2377  159.4459 H   0  0  0  0  0  0  0  0  0  0  0  0  # atno 6907 bound_to 6896
  152.0323  134.9758  160.0582 H   0  0  0  0  0  0  0  0  0  0  0  0  # atno 6908 bound_to 6896
  152.1292  133.4363  159.4749 H   0  0  0  0  0  0  0  0  0  0  0  0  # atno 6909 bound_to 6896
  145.8653  139.3341  143.0795 H   0  0  0  0  0  0  0  0  0  0  0  0  # atno 7974 bound_to 7965
  154.4736  140.2048  155.9932 H   0  0  0  0  0  0  0  0  0  0  0  0  # atno 8008 bound_to 7997
  156.1053  140.3237  155.7967 H   0  0  0  0  0  0  0  0  0  0  0  0  # atno 8009 bound_to 7997
  155.4729  140.0532  157.2968 H   0  0  0  0  0  0  0  0  0  0  0  0  # atno 8010 bound_to 7997
  139.9780  144.5847  150.7926 H   0  0  0  0  0  0  0  0  0  0  0  0  # atno 10167 bound_to 10162
  157.5161  131.1097  150.9222 H   0  0  0  0  0  0  0  0  0  0  0  0  # atno 10718 bound_to 10713
  153.4626  135.3719  155.2346 H   0  0  0  0  0  0  0  0  0  0  0  0  # atno 10763 bound_to 10752
  154.8757  135.3912  154.3907 H   0  0  0  0  0  0  0  0  0  0  0  0  # atno 10764 bound_to 10752
  153.4483  135.7085  153.6189 H   0  0  0  0  0  0  0  0  0  0  0  0  # atno 10765 bound_to 10752
  141.1644  133.7381  156.8966 H   0  0  0  0  0  0  0  0  0  0  0  0  # atno 11005 bound_to 11000
  145.9201  140.9121  143.0410 LP  0  0  0  0  0  0  0  0  0  0  0  0  # atno 17320 bound_to 7965
  144.6726  140.1276  143.7446 LP  0  0  0  0  0  0  0  0  0  0  0  0  # atno 17321 bound_to 7965
  140.7499  143.2946  151.3238 LP  0  0  0  0  0  0  0  0  0  0  0  0  # atno 17342 bound_to 10162
  139.6431  144.0501  152.2570 LP  0  0  0  0  0  0  0  0  0  0  0  0  # atno 17343 bound_to 10162
  156.9847  130.5540  149.5299 LP  0  0  0  0  0  0  0  0  0  0  0  0  # atno 17370 bound_to 10713
  156.0321  130.5412  150.8562 LP  0  0  0  0  0  0  0  0  0  0  0  0  # atno 17371 bound_to 10713
  140.1611  134.9165  157.2716 LP  0  0  0  0  0  0  0  0  0  0  0  0  # atno 17394 bound_to 11000
  140.2610  134.3571  155.7406 LP  0  0  0  0  0  0  0  0  0  0  0  0  # atno 17395 bound_to 11000

$$$$
