AV-unprocessed.smi:867|AV-procd|sdf|3996|dock1
  -GOLD-   22720 1473D 1   1.00000     0.00000
 Structure written by MMmdl.
 53 56  0  0  0  0  0  0  0  0  2 V2000
  152.4634  139.7784  156.0478 O   0  0  0  0  0  0  0  0  0  0  0  0
  151.2620  139.6446  155.8124 C   0  0  0  0  0  0  0  0  0  0  0  0
  150.3153  140.2435  156.5547 N   0  0  0  0  0  0  0  0  0  0  0  0
  150.5671  141.1227  157.6899 C   0  0  0  0  0  0  0  0  0  0  0  0
  151.5604  142.2390  157.3310 C   0  0  0  0  0  0  0  0  0  0  0  0
  151.7889  143.1886  158.4901 C   0  0  0  0  0  0  0  0  0  0  0  0
  151.5698  144.5741  158.3445 C   0  0  0  0  0  0  0  0  0  0  0  0
  151.8030  145.4171  159.4481 C   0  0  0  0  0  0  0  0  0  0  0  0
  152.2480  144.8371  160.6530 C   0  0  0  0  0  0  0  0  0  0  0  0
  152.4616  143.5120  160.8039 N   0  0  0  0  0  0  0  0  0  0  0  0
  152.2346  142.7106  159.7409 C   0  0  0  0  0  0  0  0  0  0  0  0
  150.7847  138.8359  154.8338 N   0  0  0  0  0  0  0  0  0  0  0  0
  151.5095  137.7320  154.1933 C   0  0  0  0  0  0  0  0  0  0  0  0
  150.9693  136.4014  154.7458 C   0  0  0  0  0  0  0  0  0  0  0  0
  149.4944  136.2671  154.5498 N   0  3  0  0  0  0  0  0  0  0  0  0
  148.9825  134.9678  155.0853 C   0  0  2  0  0  0  0  0  0  0  0  0
  149.9504  133.7941  154.7762 C   0  0  0  0  0  0  0  0  0  0  0  0
  149.0543  132.7551  154.0824 C   0  0  1  0  0  0  0  0  0  0  0  0
  148.0710  132.1591  155.1032 C   0  0  0  0  0  0  0  0  0  0  0  0
  147.0929  133.3227  155.3397 C   0  0  0  0  0  0  0  0  0  0  0  0
  147.6634  134.4438  154.4479 C   0  0  2  0  0  0  0  0  0  0  0  0
  148.1516  133.6486  153.2423 C   0  0  0  0  0  0  0  0  0  0  0  0
  148.7556  137.4699  155.0361 C   0  0  0  0  0  0  0  0  0  0  0  0
  149.3622  138.7788  154.4965 C   0  0  0  0  0  0  0  0  0  0  0  0
  149.3487  140.0667  156.3232 H   0  0  0  0  0  0  0  0  0  0  0  0
  149.6149  141.5572  157.9960 H   0  0  0  0  0  0  0  0  0  0  0  0
  150.9313  140.5436  158.5403 H   0  0  0  0  0  0  0  0  0  0  0  0
  152.5183  141.8127  157.0301 H   0  0  0  0  0  0  0  0  0  0  0  0
  151.1934  142.8067  156.4750 H   0  0  0  0  0  0  0  0  0  0  0  0
  151.2318  144.9854  157.4045 H   0  0  0  0  0  0  0  0  0  0  0  0
  151.6464  146.4829  159.3726 H   0  0  0  0  0  0  0  0  0  0  0  0
  152.4379  145.4544  161.5185 H   0  0  0  0  0  0  0  0  0  0  0  0
  152.4182  141.6569  159.8927 H   0  0  0  0  0  0  0  0  0  0  0  0
  151.3554  137.7785  153.1141 H   0  0  0  0  0  0  0  0  0  0  0  0
  152.5895  137.7729  154.3344 H   0  0  0  0  0  0  0  0  0  0  0  0
  151.4999  135.5822  154.2624 H   0  0  0  0  0  0  0  0  0  0  0  0
  151.1972  136.3325  155.8110 H   0  0  0  0  0  0  0  0  0  0  0  0
  148.8453  135.0806  156.1624 H   0  0  0  0  0  0  0  0  0  0  0  0
  150.7423  134.0895  154.0865 H   0  0  0  0  0  0  0  0  0  0  0  0
  150.4257  133.3998  155.6753 H   0  0  0  0  0  0  0  0  0  0  0  0
  149.6105  132.0036  153.5212 H   0  0  0  0  0  0  0  0  0  0  0  0
  147.5483  131.2975  154.6858 H   0  0  0  0  0  0  0  0  0  0  0  0
  148.5689  131.8394  156.0193 H   0  0  0  0  0  0  0  0  0  0  0  0
  146.0886  133.0457  155.0158 H   0  0  0  0  0  0  0  0  0  0  0  0
  147.0334  133.6115  156.3896 H   0  0  0  0  0  0  0  0  0  0  0  0
  146.9021  135.1887  154.2280 H   0  0  0  0  0  0  0  0  0  0  0  0
  148.6935  134.2546  152.5142 H   0  0  0  0  0  0  0  0  0  0  0  0
  147.3562  133.1020  152.7323 H   0  0  0  0  0  0  0  0  0  0  0  0
  147.7178  137.4434  154.7113 H   0  0  0  0  0  0  0  0  0  0  0  0
  148.7557  137.4804  156.1272 H   0  0  0  0  0  0  0  0  0  0  0  0
  148.8056  139.6347  154.8816 H   0  0  0  0  0  0  0  0  0  0  0  0
  149.2508  138.8225  153.4121 H   0  0  0  0  0  0  0  0  0  0  0  0
  149.3439  136.2418  153.5514 H   0  0  0  0  0  0  0  0  0  0  0  0
  1  2  2  0  0  0  0
  2  3  1  0  0  0  0
  2 12  1  0  0  0  0
  3  4  1  0  0  0  0
  3 25  1  0  0  0  0
  4  5  1  0  0  0  0
  4 26  1  0  0  0  0
  4 27  1  0  0  0  0
  5  6  1  0  0  0  0
  5 28  1  0  0  0  0
  5 29  1  0  0  0  0
  6 11  1  0  0  0  0
  6  7  2  0  0  0  0
  7  8  1  0  0  0  0
  7 30  1  0  0  0  0
  8  9  2  0  0  0  0
  8 31  1  0  0  0  0
  9 10  1  0  0  0  0
  9 32  1  0  0  0  0
 10 11  2  0  0  0  0
 11 33  1  0  0  0  0
 12 24  1  0  0  0  0
 12 13  1  0  0  0  0
 13 14  1  0  0  0  0
 13 34  1  0  0  0  0
 13 35  1  0  0  0  0
 14 15  1  0  0  0  0
 14 36  1  0  0  0  0
 14 37  1  0  0  0  0
 15 16  1  0  0  0  0
 15 23  1  0  0  0  0
 15 53  1  0  0  0  0
 16 21  1  0  0  0  0
 16 17  1  0  0  0  0
 16 38  1  0  0  0  0
 17 18  1  0  0  0  0
 17 39  1  0  0  0  0
 17 40  1  0  0  0  0
 18 22  1  0  0  0  0
 18 19  1  0  0  0  0
 18 41  1  0  0  0  0
 19 20  1  0  0  0  0
 19 42  1  0  0  0  0
 19 43  1  0  0  0  0
 20 21  1  0  0  0  0
 20 44  1  0  0  0  0
 20 45  1  0  0  0  0
 21 22  1  0  0  0  0
 21 46  1  0  0  0  0
 22 47  1  0  0  0  0
 22 48  1  0  0  0  0
 23 24  1  0  0  0  0
 23 49  1  0  0  0  0
 23 50  1  0  0  0  0
 24 51  1  0  0  0  0
 24 52  1  0  0  0  0
M  CHG  1  15   1
M  END
> <s_m_source_file>
AV-unprocessed.smi

> <i_m_source_file_index>
867

> <i_lp_mmshare_version>
43012

> <i_f3d_flags>
0

> <s_epik_input>
W0NIMl0xW0NIMl1bQ0BASF0oW0NIMl0yKVtDQEBIXShbQ0gyXVtDQEhdMTIpTihbQ0gyXVtDSDJdMylbQ0gyXVtDSDJdTjNDKD1PKVtOSF1bQ0gyXVtDSDJdYzRbY0hdW2NIXVtjSF1uW2NIXTQ=

> <s_epik_cmdline>
J2VwaWtfcHl0aG9uJywgJy1waCcsICc3LjAnLCAnLXRuJywgJzgnLCAnLW1hJywgJzIwMCcsICctbWV0YWxfYmluZGluZycsICctaW1hZScsICc8aW5maWxlLm1hZT4nLCAnLW9tYWUnLCAnPG91dGZpbGUubWFlPic=

> <r_epik_Ionization_Penalty>
0.0161279

> <r_epik_Ionization_Penalty_Charging>
0.00262064

> <r_epik_Ionization_Penalty_Neutral>
0.0135072

> <r_epik_State_Penalty>
0.0104914

> <r_epik_Charging_Adjusted_Penalty>
0.013112

> <i_epik_Tot_Q>
1

> <i_epik_Tot_abs_Q>
1

> <r_epik_Metal_State_Penalty>
0.0102536

> <b_epik_Metal_Only>
0

> <s_lp_Force_Field>
OPLS_2005

> <r_lp_Energy>
96.257

> <b_lp_Chiralities_Consistent>
1

> <s_lp_Variant>
AV-unprocessed.smi:867-3

> <Gold.Version>
5.8.1

> <Gold.Id.Protein>
6NUR|6NUR_protein|mol2

> <Gold.PLP.Fitness>
51.8496

> <Gold.PLP.PLP>
-45.4729

> <Gold.PLP.part.hbond>
-2.0000

> <Gold.PLP.part.metal>
0.0000

> <Gold.PLP.part.buried>
-2.7011

> <Gold.PLP.part.nonpolar>
-39.4380

> <Gold.PLP.part.repulsive>
0.1353

> <Gold.PLP.ligand.clash>
1.8012

> <Gold.PLP.ligand.torsion>
0.4807

> <Gold.PLP.Chemscore.Hbond>
3.0000

> <Gold.PLP.Chemscore.CHOScore>
0.0000

> <Gold.PLP.Chemscore.Metal>
0.0000

> <Gold.Chemscore.Hbonds>
donor molecule, donor type, donor heavy atom, donor atom, acceptor molecule, acceptor atom, score
      L1  H    15    53       P1  7948  2.00
      P1  H  7997  8009       L1     1  0.99

> <Gold.PLP.Chemscore.Internal.Correction>
0.1393

> <Gold.Rescore>
     Score         DG    S(hbond)    S(metal)    S(lipo)     H(rot)  DE(clash)    DE(int)     intcor
     20.75     -22.21       1.89        0.00     119.20       1.37       0.14       1.32       ----

> <Gold.Chemscore.Fitness>
20.7500

> <Gold.Chemscore.DG>
-22.2100

> <Gold.Chemscore.ZeroCoef>
-5.4800

> <Gold.Chemscore.Hbond>
1.8858

> <Gold.Chemscore.Metal>
0.0000

> <Gold.Chemscore.Lipo>
119.2012

> <Gold.Chemscore.Internal_Hbond>
0.0000

> <Gold.Chemscore.DEClash>
0.1387

> <Gold.Chemscore.DEInternal>
1.3213

> <Gold.Chemscore.Rot>
1.3731

> <Gold.Chemscore.Internal.Correction>
   9.000000E+99

> <Gold.Chemscore.Hbonds>
donor molecule, donor type, donor heavy atom, donor atom, acceptor molecule, acceptor atom, score
      L1  H    15    53       P1  7948  0.78
      P1  H  7997  8009       L1     1  0.91

> <Gold.Chemscore.Hbond.Weighted>
-6.2986

> <Gold.Chemscore.Metal.Weighted>
-0.0000

> <Gold.Chemscore.Lipo.Weighted>
-13.9465

> <Gold.Chemscore.Internal_Hbond.Weighted>
0.0000

> <Gold.Chemscore.DEClash.Weighted>
0.1387

> <Gold.Chemscore.DEInternal.Weighted>
1.3213

> <Gold.Chemscore.Rot.Weighted>
3.5152

> <Gold.Chemscore.Internal.Correction.Weighted>
   9.000000E+99

> <Gold.Protein.RotatedTorsions>
[ 6907 6896 6895 6894 ] final   42.60 input  -60.11 | X-H torsion
[ 7974 7965 7964 7962 ] final  -10.24 input  175.53 | X-H torsion
[ 8008 7997 7996 7995 ] final -138.41 input   59.86 | X-H torsion
[ 10167 10162 10161 10158 ] final   -0.61 input  -65.29 | X-H torsion
[ 10718 10713 10712 10709 ] final   69.68 input   66.30 | X-H torsion
[ 10763 10752 10751 10750 ] final  -41.47 input  -60.55 | X-H torsion
[ 11005 11000 10999 10996 ] final  -48.00 input  -57.11 | X-H torsion

> <Gold.Protein.ActiveResidues>
 VAL166  LYS551  ARG553  GLY616  TRP617  ASP618  TYR619  PRO620  LYS621  CYS622 
 ASP623  PHE694  ASN695  SER759  ASP760  ASP761  ALA762  ILE779  LEU786  VAL792 
 PHE793  MET794  SER795  GLU796  ALA797  LYS798  CYS799  TRP800  GLU811  SER814 

> <Gold.Protein.RotatedAtoms>
  152.2098  134.8511  160.0498 H   0  0  0  0  0  0  0  0  0  0  0  0  # atno 6907 bound_to 6896
  151.9334  133.3612  159.3947 H   0  0  0  0  0  0  0  0  0  0  0  0  # atno 6908 bound_to 6896
  150.6974  134.4439  159.5349 H   0  0  0  0  0  0  0  0  0  0  0  0  # atno 6909 bound_to 6896
  146.2227  140.2734  142.8358 H   0  0  0  0  0  0  0  0  0  0  0  0  # atno 7974 bound_to 7965
  155.4279  140.0523  157.3021 H   0  0  0  0  0  0  0  0  0  0  0  0  # atno 8008 bound_to 7997
  154.4873  140.2106  155.9585 H   0  0  0  0  0  0  0  0  0  0  0  0  # atno 8009 bound_to 7997
  156.1293  140.3174  155.8329 H   0  0  0  0  0  0  0  0  0  0  0  0  # atno 8010 bound_to 7997
  140.6775  143.6873  150.8056 H   0  0  0  0  0  0  0  0  0  0  0  0  # atno 10167 bound_to 10162
  157.6359  130.9438  150.0547 H   0  0  0  0  0  0  0  0  0  0  0  0  # atno 10718 bound_to 10713
  153.9630  135.6737  153.4745 H   0  0  0  0  0  0  0  0  0  0  0  0  # atno 10763 bound_to 10752
  153.0829  135.4914  154.8535 H   0  0  0  0  0  0  0  0  0  0  0  0  # atno 10764 bound_to 10752
  154.7262  135.3128  154.8927 H   0  0  0  0  0  0  0  0  0  0  0  0  # atno 10765 bound_to 10752
  141.0674  133.6689  156.3378 H   0  0  0  0  0  0  0  0  0  0  0  0  # atno 11005 bound_to 11000
  144.9250  140.7911  143.5724 LP  0  0  0  0  0  0  0  0  0  0  0  0  # atno 17320 bound_to 7965
  145.2674  139.1968  143.4860 LP  0  0  0  0  0  0  0  0  0  0  0  0  # atno 17321 bound_to 7965
  140.0569  143.5194  152.2647 LP  0  0  0  0  0  0  0  0  0  0  0  0  # atno 17342 bound_to 10162
  139.6076  144.7600  151.3026 LP  0  0  0  0  0  0  0  0  0  0  0  0  # atno 17343 bound_to 10162
  156.1598  130.3643  149.9316 LP  0  0  0  0  0  0  0  0  0  0  0  0  # atno 17370 bound_to 10713
  156.7316  130.9045  151.3626 LP  0  0  0  0  0  0  0  0  0  0  0  0  # atno 17371 bound_to 10713
  140.5744  134.5808  157.5465 LP  0  0  0  0  0  0  0  0  0  0  0  0  # atno 17394 bound_to 11000
  139.9490  134.7651  156.0493 LP  0  0  0  0  0  0  0  0  0  0  0  0  # atno 17395 bound_to 11000

$$$$
