AV-unprocessed.smi:2973|AV-procd|sdf|11344|dock5
  -GOLD-   2272016253D 1   1.00000     0.00000
 Structure written by MMmdl.
 50 52  0  0  0  0  0  0  0  0  2 V2000
  145.3168  132.5061  161.7409 C   0  0  0  0  0  0  0  0  0  0  0  0
  145.7748  133.9773  161.6553 C   0  0  1  0  0  0  0  0  0  0  0  0
  147.2071  134.1374  162.2099 C   0  0  0  0  0  0  0  0  0  0  0  0
  147.6474  135.6095  162.2274 C   0  0  0  0  0  0  0  0  0  0  0  0
  147.5414  136.2445  160.8339 C   0  0  0  0  0  0  0  0  0  0  0  0
  146.1205  136.0960  160.2611 C   0  0  0  0  0  0  0  0  0  0  0  0
  145.6217  134.6287  160.2441 C   0  0  2  0  0  0  0  0  0  0  0  0
  144.2409  134.5897  159.7940 N   0  0  0  0  0  0  0  0  0  0  0  0
  144.0795  133.9306  158.6405 C   0  0  0  0  0  0  0  0  0  0  0  0
  143.0095  133.7801  158.0528 O   0  0  0  0  0  0  0  0  0  0  0  0
  145.2795  133.4708  158.2452 N   0  0  0  0  0  0  0  0  0  0  0  0
  145.5035  132.7181  157.0045 C   0  0  0  0  0  0  0  0  0  0  0  0
  146.0989  133.5766  155.8799 C   0  0  0  0  0  0  0  0  0  0  0  0
  145.5731  134.6402  155.5481 O   0  0  0  0  0  0  0  0  0  0  0  0
  147.2136  133.1001  155.3059 N   0  0  0  0  0  0  0  0  0  0  0  0
  147.9403  133.7497  154.2217 C   0  0  0  0  0  0  0  0  0  0  0  0
  147.8796  132.9277  152.9228 C   0  0  0  0  0  0  0  0  0  0  0  0
  146.7146  133.3328  152.0416 C   0  0  0  0  0  0  0  0  0  0  0  0
  145.7317  132.4087  151.6256 C   0  0  0  0  0  0  0  0  0  0  0  0
  144.6691  132.8532  150.8115 C   0  0  0  0  0  0  0  0  0  0  0  0
  144.6113  134.2105  150.4321 C   0  0  0  0  0  0  0  0  0  0  0  0
  145.6183  135.0905  150.8783 C   0  0  0  0  0  0  0  0  0  0  0  0
  146.6195  134.6266  151.6580 N   0  3  0  0  0  0  0  0  0  0  0  0
  146.2471  133.8241  159.1022 C   0  0  0  0  0  0  0  0  0  0  0  0
  147.4458  133.5606  159.0061 O   0  0  0  0  0  0  0  0  0  0  0  0
  145.9442  131.8501  161.1371 H   0  0  0  0  0  0  0  0  0  0  0  0
  144.2865  132.3843  161.4067 H   0  0  0  0  0  0  0  0  0  0  0  0
  145.3651  132.1459  162.7687 H   0  0  0  0  0  0  0  0  0  0  0  0
  145.1182  134.5333  162.3264 H   0  0  0  0  0  0  0  0  0  0  0  0
  147.2575  133.7384  163.2233 H   0  0  0  0  0  0  0  0  0  0  0  0
  147.9112  133.5498  161.6206 H   0  0  0  0  0  0  0  0  0  0  0  0
  147.0269  136.1675  162.9298 H   0  0  0  0  0  0  0  0  0  0  0  0
  148.6717  135.6866  162.5928 H   0  0  0  0  0  0  0  0  0  0  0  0
  147.8067  137.3005  160.8895 H   0  0  0  0  0  0  0  0  0  0  0  0
  148.2694  135.7863  160.1646 H   0  0  0  0  0  0  0  0  0  0  0  0
  145.4364  136.7006  160.8584 H   0  0  0  0  0  0  0  0  0  0  0  0
  146.0918  136.5208  159.2562 H   0  0  0  0  0  0  0  0  0  0  0  0
  143.4902  135.0349  160.3016 H   0  0  0  0  0  0  0  0  0  0  0  0
  146.1715  131.8744  157.1855 H   0  0  0  0  0  0  0  0  0  0  0  0
  144.5611  132.2820  156.6679 H   0  0  0  0  0  0  0  0  0  0  0  0
  147.5830  132.2233  155.6450 H   0  0  0  0  0  0  0  0  0  0  0  0
  147.5433  134.7530  154.0579 H   0  0  0  0  0  0  0  0  0  0  0  0
  148.9762  133.8731  154.5384 H   0  0  0  0  0  0  0  0  0  0  0  0
  148.8070  133.0469  152.3607 H   0  0  0  0  0  0  0  0  0  0  0  0
  147.7934  131.8641  153.1495 H   0  0  0  0  0  0  0  0  0  0  0  0
  145.7886  131.3726  151.9271 H   0  0  0  0  0  0  0  0  0  0  0  0
  143.9072  132.1616  150.4826 H   0  0  0  0  0  0  0  0  0  0  0  0
  143.8058  134.5709  149.8090 H   0  0  0  0  0  0  0  0  0  0  0  0
  145.6534  136.1430  150.6374 H   0  0  0  0  0  0  0  0  0  0  0  0
  147.3375  135.2814  151.9690 H   0  0  0  0  0  0  0  0  0  0  0  0
  1  2  1  0  0  0  0
  1 26  1  0  0  0  0
  1 27  1  0  0  0  0
  1 28  1  0  0  0  0
  2  7  1  0  0  0  0
  2  3  1  0  0  0  0
  2 29  1  0  0  0  0
  3  4  1  0  0  0  0
  3 30  1  0  0  0  0
  3 31  1  0  0  0  0
  4  5  1  0  0  0  0
  4 32  1  0  0  0  0
  4 33  1  0  0  0  0
  5  6  1  0  0  0  0
  5 34  1  0  0  0  0
  5 35  1  0  0  0  0
  6  7  1  0  0  0  0
  6 36  1  0  0  0  0
  6 37  1  0  0  0  0
  7 24  1  0  0  0  0
  7  8  1  0  0  0  0
  8  9  1  0  0  0  0
  8 38  1  0  0  0  0
  9 10  2  0  0  0  0
  9 11  1  0  0  0  0
 11 12  1  0  0  0  0
 11 24  1  0  0  0  0
 12 13  1  0  0  0  0
 12 39  1  0  0  0  0
 12 40  1  0  0  0  0
 13 14  2  0  0  0  0
 13 15  1  0  0  0  0
 15 16  1  0  0  0  0
 15 41  1  0  0  0  0
 16 17  1  0  0  0  0
 16 42  1  0  0  0  0
 16 43  1  0  0  0  0
 17 18  1  0  0  0  0
 17 44  1  0  0  0  0
 17 45  1  0  0  0  0
 18 23  1  0  0  0  0
 18 19  2  0  0  0  0
 19 20  1  0  0  0  0
 19 46  1  0  0  0  0
 20 21  2  0  0  0  0
 20 47  1  0  0  0  0
 21 22  1  0  0  0  0
 21 48  1  0  0  0  0
 22 23  2  0  0  0  0
 22 49  1  0  0  0  0
 23 50  1  0  0  0  0
 24 25  2  0  0  0  0
M  CHG  1  23   1
M  END
> <s_m_source_file>
AV-unprocessed.smi

> <i_m_source_file_index>
2973

> <i_lp_mmshare_version>
43012

> <i_f3d_flags>
0

> <s_epik_input>
W0NIMl0xW0NIMl1bQ0gyXVtDSDJdW0NAQEhdKFtDSDNdKVtDQF0xMltOSF1DKD1PKU4oQzI9TylbQ0gyXUMoPU8pW05IXVtDSDJdW0NIMl1jM1tjSF1bY0hdW2NIXVtjSF1uMw==

> <s_epik_cmdline>
J2VwaWtfcHl0aG9uJywgJy1waCcsICc3LjAnLCAnLXRuJywgJzgnLCAnLW1hJywgJzIwMCcsICctbWV0YWxfYmluZGluZycsICctaW1hZScsICc8aW5maWxlLm1hZT4nLCAnLW9tYWUnLCAnPG91dGZpbGUubWFlPic=

> <r_lp_tautomer_probability>
1

> <r_epik_Ionization_Penalty>
1.90043

> <r_epik_Ionization_Penalty_Charging>
1.90039

> <r_epik_Ionization_Penalty_Neutral>
4.65525e-05

> <r_epik_State_Penalty>
2.02162

> <r_epik_Charging_Adjusted_Penalty>
3.922

> <i_epik_Tot_Q>
1

> <i_epik_Tot_abs_Q>
1

> <r_epik_Metal_State_Penalty>
2.06631

> <b_epik_Metal_Only>
0

> <s_lp_Force_Field>
OPLS_2005

> <r_lp_Energy>
22.9905

> <b_lp_Chiralities_Consistent>
1

> <s_lp_Variant>
AV-unprocessed.smi:2973-8

> <Gold.Version>
5.8.1

> <Gold.Id.Protein>
6NUR|6NUR_protein|mol2

> <Gold.PLP.Fitness>
42.1478

> <Gold.PLP.PLP>
-34.1587

> <Gold.PLP.part.hbond>
-2.0000

> <Gold.PLP.part.metal>
0.0000

> <Gold.PLP.part.buried>
-5.7518

> <Gold.PLP.part.nonpolar>
-26.9895

> <Gold.PLP.part.repulsive>
0.1539

> <Gold.PLP.ligand.clash>
0.0000

> <Gold.PLP.ligand.torsion>
0.5220

> <Gold.PLP.Chemscore.Hbond>
3.0000

> <Gold.PLP.Chemscore.CHOScore>
0.0000

> <Gold.PLP.Chemscore.Metal>
0.0000

> <Gold.Chemscore.Hbonds>
donor molecule, donor type, donor heavy atom, donor atom, acceptor molecule, acceptor atom, score
      L1  H    23    50       P1  7948  2.00
      P1  H 11000 11005       L1    10  0.99

> <Gold.PLP.Chemscore.Internal.Correction>
0.0331

> <Gold.Rescore>
     Score         DG    S(hbond)    S(metal)    S(lipo)     H(rot)  DE(clash)    DE(int)     intcor
     16.92     -17.35       1.90        0.00      90.19       1.96       0.01       0.42       ----

> <Gold.Chemscore.Fitness>
16.9237

> <Gold.Chemscore.DG>
-17.3547

> <Gold.Chemscore.ZeroCoef>
-5.4800

> <Gold.Chemscore.Hbond>
1.9012

> <Gold.Chemscore.Metal>
0.0000

> <Gold.Chemscore.Lipo>
90.1900

> <Gold.Chemscore.Internal_Hbond>
0.0000

> <Gold.Chemscore.DEClash>
0.0144

> <Gold.Chemscore.DEInternal>
0.4166

> <Gold.Chemscore.Rot>
1.9638

> <Gold.Chemscore.Internal.Correction>
   9.000000E+99

> <Gold.Chemscore.Hbonds>
donor molecule, donor type, donor heavy atom, donor atom, acceptor molecule, acceptor atom, score
      L1  H    23    50       P1  7948  0.96
      P1  H 11000 11005       L1    10  0.92

> <Gold.Chemscore.Hbond.Weighted>
-6.3499

> <Gold.Chemscore.Metal.Weighted>
-0.0000

> <Gold.Chemscore.Lipo.Weighted>
-10.5522

> <Gold.Chemscore.Internal_Hbond.Weighted>
0.0000

> <Gold.Chemscore.DEClash.Weighted>
0.0144

> <Gold.Chemscore.DEInternal.Weighted>
0.4166

> <Gold.Chemscore.Rot.Weighted>
5.0274

> <Gold.Chemscore.Internal.Correction.Weighted>
   9.000000E+99

> <Gold.Protein.RotatedTorsions>
[ 6907 6896 6895 6894 ] final  -55.00 input  -60.11 | X-H torsion
[ 7974 7965 7964 7962 ] final   43.97 input  175.53 | X-H torsion
[ 8008 7997 7996 7995 ] final  -61.84 input   59.86 | X-H torsion
[ 10167 10162 10161 10158 ] final -164.74 input  -65.29 | X-H torsion
[ 10718 10713 10712 10709 ] final  154.48 input   66.30 | X-H torsion
[ 10763 10752 10751 10750 ] final   39.94 input  -60.55 | X-H torsion
[ 11005 11000 10999 10996 ] final -101.53 input  -57.11 | X-H torsion

> <Gold.Protein.ActiveResidues>
 VAL166  LYS551  ARG553  GLY616  TRP617  ASP618  TYR619  PRO620  LYS621  CYS622 
 ASP623  PHE694  ASN695  SER759  ASP760  ASP761  ALA762  ILE779  LEU786  VAL792 
 PHE793  MET794  SER795  GLU796  ALA797  LYS798  CYS799  TRP800  GLU811  SER814 

> <Gold.Protein.RotatedAtoms>
  150.8289  134.7533  159.6836 H   0  0  0  0  0  0  0  0  0  0  0  0  # atno 6907 bound_to 6896
  152.4396  134.5614  159.9905 H   0  0  0  0  0  0  0  0  0  0  0  0  # atno 6908 bound_to 6896
  151.5780  133.3344  159.3038 H   0  0  0  0  0  0  0  0  0  0  0  0  # atno 6909 bound_to 6896
  146.0609  139.5127  142.9658 H   0  0  0  0  0  0  0  0  0  0  0  0  # atno 7974 bound_to 7965
  154.4469  140.1009  156.6494 H   0  0  0  0  0  0  0  0  0  0  0  0  # atno 8008 bound_to 7997
  155.5414  140.3483  155.4429 H   0  0  0  0  0  0  0  0  0  0  0  0  # atno 8009 bound_to 7997
  156.0594  140.1323  156.9947 H   0  0  0  0  0  0  0  0  0  0  0  0  # atno 8010 bound_to 7997
  139.6230  144.0587  152.1949 H   0  0  0  0  0  0  0  0  0  0  0  0  # atno 10167 bound_to 10162
  157.2311  131.0739  151.1852 H   0  0  0  0  0  0  0  0  0  0  0  0  # atno 10718 bound_to 10713
  152.9951  135.6206  154.2547 H   0  0  0  0  0  0  0  0  0  0  0  0  # atno 10763 bound_to 10752
  154.2284  135.2793  155.2900 H   0  0  0  0  0  0  0  0  0  0  0  0  # atno 10764 bound_to 10752
  154.5470  135.5744  153.6947 H   0  0  0  0  0  0  0  0  0  0  0  0  # atno 10765 bound_to 10752
  141.1227  133.8485  157.1243 H   0  0  0  0  0  0  0  0  0  0  0  0  # atno 11005 bound_to 11000
  145.6561  141.0252  143.1734 LP  0  0  0  0  0  0  0  0  0  0  0  0  # atno 17320 bound_to 7965
  144.7174  139.8147  143.7394 LP  0  0  0  0  0  0  0  0  0  0  0  0  # atno 17321 bound_to 7965
  140.0234  144.6136  150.7548 LP  0  0  0  0  0  0  0  0  0  0  0  0  # atno 17342 bound_to 10162
  140.7394  143.2790  151.3655 LP  0  0  0  0  0  0  0  0  0  0  0  0  # atno 17343 bound_to 10162
  157.3477  130.7066  149.6421 LP  0  0  0  0  0  0  0  0  0  0  0  0  # atno 17370 bound_to 10713
  155.9675  130.4261  150.4686 LP  0  0  0  0  0  0  0  0  0  0  0  0  # atno 17371 bound_to 10713
  140.0198  134.9951  157.0568 LP  0  0  0  0  0  0  0  0  0  0  0  0  # atno 17394 bound_to 11000
  140.4459  134.1633  155.7177 LP  0  0  0  0  0  0  0  0  0  0  0  0  # atno 17395 bound_to 11000

$$$$
