AV-unprocessed.smi:305|AV-procd|sdf|2280|dock6
  -GOLD-   2262022173D 1   1.00000     0.00000
 Structure written by MMmdl.
 47 49  0  0  0  0  0  0  0  0  1 V2000
  146.9124  134.4964  161.9696 C   0  0  0  0  0  0  0  0  0  0  0  0
  147.0060  135.2170  160.6230 C   0  0  0  0  0  0  0  0  0  0  0  0
  147.6705  134.3760  159.6955 O   0  0  0  0  0  0  0  0  0  0  0  0
  147.8255  134.9821  158.4239 C   0  0  0  0  0  0  0  0  0  0  0  0
  148.8244  134.1585  157.6010 C   0  0  0  0  0  0  0  0  0  0  0  0
  149.5956  134.9968  156.6903 N   0  0  0  0  0  0  0  0  0  0  0  0
  149.8033  134.8203  155.3599 C   0  0  0  0  0  0  0  0  0  0  0  0
  149.2574  133.7172  154.6692 N   0  0  0  0  0  0  0  0  0  0  0  0
  148.2866  133.9061  153.7515 N   0  0  0  0  0  0  0  0  0  0  0  0
  147.9992  132.6955  153.3043 C   0  0  0  0  0  0  0  0  0  0  0  0
  146.9491  132.5329  152.2430 C   0  0  0  0  0  0  0  0  0  0  0  0
  148.7760  131.6839  153.9403 C   0  0  0  0  0  0  0  0  0  0  0  0
  148.7272  130.2004  153.6984 C   0  0  0  0  0  0  0  0  0  0  0  0
  149.5710  132.3782  154.8117 C   0  0  0  0  0  0  0  0  0  0  0  0
  150.6118  131.8952  155.7704 C   0  0  0  0  0  0  0  0  0  0  0  0
  150.5404  135.7688  154.7745 N   0  0  0  0  0  0  0  0  0  0  0  0
  150.8410  136.6183  155.8302 C   0  0  0  0  0  0  0  0  0  0  0  0
  150.2851  136.1716  156.9858 C   0  0  0  0  0  0  0  0  0  0  0  0
  150.4430  136.8763  158.2635 C   0  0  0  0  0  0  0  0  0  0  0  0
  149.9485  136.4845  159.3182 O   0  0  0  0  0  0  0  0  0  0  0  0
  151.1930  138.0003  158.1600 N   0  0  0  0  0  0  0  0  0  0  0  0
  151.7820  138.5060  157.0330 C   0  0  0  0  0  0  0  0  0  0  0  0
  152.4421  139.5431  157.0966 O   0  0  0  0  0  0  0  0  0  0  0  0
  151.6066  137.8190  155.8585 N   0  0  0  0  0  0  0  0  0  0  0  0
  152.2141  138.3157  154.6227 C   0  0  0  0  0  0  0  0  0  0  0  0
  151.3349  138.5236  159.0116 H   0  0  0  0  0  0  0  0  0  0  0  0
  146.4035  135.1161  162.7082 H   0  0  0  0  0  0  0  0  0  0  0  0
  147.9038  134.2601  162.3567 H   0  0  0  0  0  0  0  0  0  0  0  0
  146.3568  133.5631  161.8761 H   0  0  0  0  0  0  0  0  0  0  0  0
  146.0059  135.4600  160.2608 H   0  0  0  0  0  0  0  0  0  0  0  0
  147.5523  136.1539  160.7405 H   0  0  0  0  0  0  0  0  0  0  0  0
  146.8625  135.0301  157.9139 H   0  0  0  0  0  0  0  0  0  0  0  0
  148.1844  136.0054  158.5411 H   0  0  0  0  0  0  0  0  0  0  0  0
  149.5048  133.6218  158.2625 H   0  0  0  0  0  0  0  0  0  0  0  0
  148.3069  133.3918  157.0249 H   0  0  0  0  0  0  0  0  0  0  0  0
  147.3226  131.9298  151.4154 H   0  0  0  0  0  0  0  0  0  0  0  0
  146.6340  133.4938  151.8341 H   0  0  0  0  0  0  0  0  0  0  0  0
  146.0651  132.0364  152.6433 H   0  0  0  0  0  0  0  0  0  0  0  0
  148.7759  129.6368  154.6304 H   0  0  0  0  0  0  0  0  0  0  0  0
  149.5597  129.8687  153.0777 H   0  0  0  0  0  0  0  0  0  0  0  0
  147.8094  129.8987  153.1936 H   0  0  0  0  0  0  0  0  0  0  0  0
  150.8679  130.8529  155.5814 H   0  0  0  0  0  0  0  0  0  0  0  0
  150.2555  131.9729  156.7976 H   0  0  0  0  0  0  0  0  0  0  0  0
  151.5260  132.4825  155.6834 H   0  0  0  0  0  0  0  0  0  0  0  0
  151.9004  139.3415  154.4252 H   0  0  0  0  0  0  0  0  0  0  0  0
  151.9388  137.7215  153.7514 H   0  0  0  0  0  0  0  0  0  0  0  0
  153.3020  138.3004  154.7009 H   0  0  0  0  0  0  0  0  0  0  0  0
  1  2  1  0  0  0  0
  1 27  1  0  0  0  0
  1 28  1  0  0  0  0
  1 29  1  0  0  0  0
  2  3  1  0  0  0  0
  2 30  1  0  0  0  0
  2 31  1  0  0  0  0
  3  4  1  0  0  0  0
  4  5  1  0  0  0  0
  4 32  1  0  0  0  0
  4 33  1  0  0  0  0
  5  6  1  0  0  0  0
  5 34  1  0  0  0  0
  5 35  1  0  0  0  0
  6 18  1  0  0  0  0
  6  7  1  0  0  0  0
  7  8  1  0  0  0  0
  7 16  2  0  0  0  0
  8 14  1  0  0  0  0
  8  9  1  0  0  0  0
  9 10  2  0  0  0  0
 10 11  1  0  0  0  0
 10 12  1  0  0  0  0
 11 36  1  0  0  0  0
 11 37  1  0  0  0  0
 11 38  1  0  0  0  0
 12 13  1  0  0  0  0
 12 14  2  0  0  0  0
 13 39  1  0  0  0  0
 13 40  1  0  0  0  0
 13 41  1  0  0  0  0
 14 15  1  0  0  0  0
 15 42  1  0  0  0  0
 15 43  1  0  0  0  0
 15 44  1  0  0  0  0
 16 17  1  0  0  0  0
 17 24  1  0  0  0  0
 17 18  2  0  0  0  0
 18 19  1  0  0  0  0
 19 20  2  0  0  0  0
 19 21  1  0  0  0  0
 21 26  1  0  0  0  0
 21 22  1  0  0  0  0
 22 23  2  0  0  0  0
 22 24  1  0  0  0  0
 24 25  1  0  0  0  0
 25 45  1  0  0  0  0
 25 46  1  0  0  0  0
 25 47  1  0  0  0  0
M  END
> <s_m_source_file>
AV-unprocessed.smi

> <i_m_source_file_index>
305

> <i_lp_mmshare_version>
43012

> <i_f3d_flags>
0

> <s_epik_input>
W0NIM11uMWMoPU8pW25IXWMoPU8pYyhjMTIpbihbQ0gyXVtDSDJdT1tDSDJdW0NIM10pYyhuMiktbjNuYyhbQ0gzXSljKFtDSDNdKWMzW0NIM10=

> <s_epik_cmdline>
J2VwaWtfcHl0aG9uJywgJy1waCcsICc3LjAnLCAnLXRuJywgJzgnLCAnLW1hJywgJzIwMCcsICctbWV0YWxfYmluZGluZycsICctaW1hZScsICc8aW5maWxlLm1hZT4nLCAnLW9tYWUnLCAnPG91dGZpbGUubWFlPic=

> <r_lp_tautomer_probability>
1

> <r_epik_Ionization_Penalty>
0.00243297

> <r_epik_Ionization_Penalty_Charging>
0.000715499

> <r_epik_Ionization_Penalty_Neutral>
0.00171747

> <r_epik_State_Penalty>
-0

> <r_epik_Charging_Adjusted_Penalty>
0.000715499

> <i_epik_Tot_Q>
0

> <i_epik_Tot_abs_Q>
0

> <r_epik_Metal_State_Penalty>
0.258225

> <b_epik_Metal_Only>
0

> <s_lp_Force_Field>
OPLS_2005

> <r_lp_Energy>
25.4323

> <b_lp_Chiralities_Consistent>
1

> <s_lp_Variant>
AV-unprocessed.smi:305-1

> <Gold.Version>
5.8.1

> <Gold.Id.Protein>
6NUR|6NUR_protein|mol2

> <Gold.PLP.Fitness>
40.2335

> <Gold.PLP.PLP>
-36.9768

> <Gold.PLP.part.hbond>
-2.3490

> <Gold.PLP.part.metal>
0.0000

> <Gold.PLP.part.buried>
-6.5195

> <Gold.PLP.part.nonpolar>
-30.3962

> <Gold.PLP.part.repulsive>
1.4317

> <Gold.PLP.ligand.clash>
0.0000

> <Gold.PLP.ligand.torsion>
1.6158

> <Gold.PLP.Chemscore.Hbond>
2.0000

> <Gold.PLP.Chemscore.CHOScore>
0.0000

> <Gold.PLP.Chemscore.Metal>
0.0000

> <Gold.Chemscore.Hbonds>
donor molecule, donor type, donor heavy atom, donor atom, acceptor molecule, acceptor atom, score
      P1  H  6896  6907       L1    20  1.00
      P1  H  7997  8010       L1    23  0.67

> <Gold.PLP.Chemscore.Internal.Correction>
0.4884

> <Gold.Rescore>
     Score         DG    S(hbond)    S(metal)    S(lipo)     H(rot)  DE(clash)    DE(int)     intcor
     12.40     -15.28       1.97        0.00      63.67       1.65       0.11       2.77       ----

> <Gold.Chemscore.Fitness>
12.4030

> <Gold.Chemscore.DG>
-15.2807

> <Gold.Chemscore.ZeroCoef>
-5.4800

> <Gold.Chemscore.Hbond>
1.9664

> <Gold.Chemscore.Metal>
0.0000

> <Gold.Chemscore.Lipo>
63.6720

> <Gold.Chemscore.Internal_Hbond>
0.0000

> <Gold.Chemscore.DEClash>
0.1091

> <Gold.Chemscore.DEInternal>
2.7686

> <Gold.Chemscore.Rot>
1.6471

> <Gold.Chemscore.Internal.Correction>
   9.000000E+99

> <Gold.Chemscore.Hbonds>
donor molecule, donor type, donor heavy atom, donor atom, acceptor molecule, acceptor atom, score
      P1  H  6896  6907       L1    20  0.39
      P1  H  7997  8010       L1    23  0.63

> <Gold.Chemscore.Hbond.Weighted>
-6.5678

> <Gold.Chemscore.Metal.Weighted>
-0.0000

> <Gold.Chemscore.Lipo.Weighted>
-7.4496

> <Gold.Chemscore.Internal_Hbond.Weighted>
0.0000

> <Gold.Chemscore.DEClash.Weighted>
0.1091

> <Gold.Chemscore.DEInternal.Weighted>
2.7686

> <Gold.Chemscore.Rot.Weighted>
4.2167

> <Gold.Chemscore.Internal.Correction.Weighted>
   9.000000E+99

> <Gold.Protein.RotatedTorsions>
[ 6907 6896 6895 6894 ] final  -25.79 input  -60.11 | X-H torsion
[ 7974 7965 7964 7962 ] final  176.07 input  175.53 | X-H torsion
[ 8008 7997 7996 7995 ] final   82.58 input   59.86 | X-H torsion
[ 10167 10162 10161 10158 ] final   19.64 input  -65.29 | X-H torsion
[ 10718 10713 10712 10709 ] final -160.86 input   66.30 | X-H torsion
[ 10763 10752 10751 10750 ] final -147.82 input  -60.55 | X-H torsion
[ 11005 11000 10999 10996 ] final   -7.93 input  -57.11 | X-H torsion

> <Gold.Protein.ActiveResidues>
 VAL166  LYS551  ARG553  GLY616  TRP617  ASP618  TYR619  PRO620  LYS621  CYS622 
 ASP623  PHE694  ASN695  SER759  ASP760  ASP761  ALA762  ILE779  LEU786  VAL792 
 PHE793  MET794  SER795  GLU796  ALA797  LYS798  CYS799  TRP800  GLU811  SER814 

> <Gold.Protein.RotatedAtoms>
  151.1702  135.0314  159.8748 H   0  0  0  0  0  0  0  0  0  0  0  0  # atno 6907 bound_to 6896
  152.5449  134.1179  159.8396 H   0  0  0  0  0  0  0  0  0  0  0  0  # atno 6908 bound_to 6896
  151.1284  133.5008  159.2632 H   0  0  0  0  0  0  0  0  0  0  0  0  # atno 6909 bound_to 6896
  144.7190  140.0041  143.6440 H   0  0  0  0  0  0  0  0  0  0  0  0  # atno 7974 bound_to 7965
  155.9125  140.3426  155.6110 H   0  0  0  0  0  0  0  0  0  0  0  0  # atno 8008 bound_to 7997
  155.7370  140.0802  157.2282 H   0  0  0  0  0  0  0  0  0  0  0  0  # atno 8009 bound_to 7997
  154.4058  140.1577  156.2560 H   0  0  0  0  0  0  0  0  0  0  0  0  # atno 8010 bound_to 7997
  140.5564  143.9417  150.6612 H   0  0  0  0  0  0  0  0  0  0  0  0  # atno 10167 bound_to 10162
  156.5881  130.8758  151.2882 H   0  0  0  0  0  0  0  0  0  0  0  0  # atno 10718 bound_to 10713
  154.8266  135.3350  154.6878 H   0  0  0  0  0  0  0  0  0  0  0  0  # atno 10763 bound_to 10752
  153.7503  135.6940  153.4951 H   0  0  0  0  0  0  0  0  0  0  0  0  # atno 10764 bound_to 10752
  153.2181  135.4458  155.0408 H   0  0  0  0  0  0  0  0  0  0  0  0  # atno 10765 bound_to 10752
  140.7180  133.8852  155.8800 H   0  0  0  0  0  0  0  0  0  0  0  0  # atno 11005 bound_to 11000
  146.0311  139.3336  143.0754 LP  0  0  0  0  0  0  0  0  0  0  0  0  # atno 17320 bound_to 7965
  145.8451  140.9559  143.0779 LP  0  0  0  0  0  0  0  0  0  0  0  0  # atno 17321 bound_to 7965
  140.2856  143.3359  152.1110 LP  0  0  0  0  0  0  0  0  0  0  0  0  # atno 17342 bound_to 10162
  139.5050  144.6786  151.6066 LP  0  0  0  0  0  0  0  0  0  0  0  0  # atno 17343 bound_to 10162
  157.7310  130.9694  150.1860 LP  0  0  0  0  0  0  0  0  0  0  0  0  # atno 17370 bound_to 10713
  156.2573  130.3707  149.8168 LP  0  0  0  0  0  0  0  0  0  0  0  0  # atno 17371 bound_to 10713
  141.0028  134.1127  157.4301 LP  0  0  0  0  0  0  0  0  0  0  0  0  # atno 17394 bound_to 11000
  139.8855  135.0073  156.6438 LP  0  0  0  0  0  0  0  0  0  0  0  0  # atno 17395 bound_to 11000

$$$$
