AV-unprocessed.smi:907|AV-procd|sdf|4113|dock9
  -GOLD-   22720 2 13D 1   1.00000     0.00000
 Structure written by MMmdl.
 54 57  0  0  0  0  0  0  0  0  3 V2000
  150.1699  139.9934  154.1128 O   0  0  0  0  0  0  0  0  0  0  0  0
  149.2114  140.7039  154.4184 C   0  0  0  0  0  0  0  0  0  0  0  0
  149.2795  141.6056  155.4133 N   0  0  0  0  0  0  0  0  0  0  0  0
  150.4722  141.8888  156.2048 C   0  0  0  0  0  0  0  0  0  0  0  0
  150.1837  141.8242  157.7144 C   0  0  0  0  0  0  0  0  0  0  0  0
  150.8486  142.9556  158.4743 C   0  0  0  0  0  0  0  0  0  0  0  0
  151.8040  142.7171  159.4860 C   0  0  0  0  0  0  0  0  0  0  0  0
  152.3917  143.8130  160.1517 C   0  0  0  0  0  0  0  0  0  0  0  0
  152.0134  145.1230  159.7912 C   0  0  0  0  0  0  0  0  0  0  0  0
  151.0558  145.3037  158.7721 C   0  0  0  0  0  0  0  0  0  0  0  0
  150.5154  144.2281  158.1580 N   0  3  0  0  0  0  0  0  0  0  0  0
  147.9921  140.5935  153.8350 N   0  0  0  0  0  0  0  0  0  0  0  0
  147.5439  139.4915  152.9734 C   0  0  0  0  0  0  0  0  0  0  0  0
  146.5830  138.5860  153.7684 C   0  0  0  0  0  0  0  0  0  0  0  0
  145.4402  139.3536  154.3432 N   0  3  0  0  0  0  0  0  0  0  0  0
  144.4999  138.5064  155.1325 C   0  0  1  0  0  0  0  0  0  0  0  0
  143.0780  139.1011  155.2870 C   0  0  0  0  0  0  0  0  0  0  0  0
  142.1624  137.9307  154.8817 C   0  0  1  0  0  0  0  0  0  0  0  0
  142.1980  137.7826  153.3512 C   0  0  0  0  0  0  0  0  0  0  0  0
  143.6116  137.2274  153.1030 C   0  0  0  0  0  0  0  0  0  0  0  0
  144.1954  137.1122  154.5284 C   0  0  2  0  0  0  0  0  0  0  0  0
  142.9612  136.7130  155.3305 C   0  0  0  0  0  0  0  0  0  0  0  0
  145.8961  140.5578  155.0953 C   0  0  0  0  0  0  0  0  0  0  0  0
  146.8564  141.4170  154.2547 C   0  0  0  0  0  0  0  0  0  0  0  0
  148.4476  142.1337  155.6338 H   0  0  0  0  0  0  0  0  0  0  0  0
  151.2667  141.1894  155.9386 H   0  0  0  0  0  0  0  0  0  0  0  0
  150.8313  142.8823  155.9347 H   0  0  0  0  0  0  0  0  0  0  0  0
  149.1083  141.8594  157.8929 H   0  0  0  0  0  0  0  0  0  0  0  0
  150.5314  140.8759  158.1267 H   0  0  0  0  0  0  0  0  0  0  0  0
  152.0858  141.7076  159.7490 H   0  0  0  0  0  0  0  0  0  0  0  0
  153.1247  143.6503  160.9285 H   0  0  0  0  0  0  0  0  0  0  0  0
  152.4524  145.9758  160.2882 H   0  0  0  0  0  0  0  0  0  0  0  0
  150.7089  146.2686  158.4320 H   0  0  0  0  0  0  0  0  0  0  0  0
  147.0296  139.9065  152.1052 H   0  0  0  0  0  0  0  0  0  0  0  0
  148.3578  138.8901  152.5689 H   0  0  0  0  0  0  0  0  0  0  0  0
  146.2185  137.8031  153.1042 H   0  0  0  0  0  0  0  0  0  0  0  0
  147.1256  138.0910  154.5754 H   0  0  0  0  0  0  0  0  0  0  0  0
  144.9322  138.3617  156.1247 H   0  0  0  0  0  0  0  0  0  0  0  0
  142.9002  139.3999  156.3208 H   0  0  0  0  0  0  0  0  0  0  0  0
  142.8958  139.9704  154.6545 H   0  0  0  0  0  0  0  0  0  0  0  0
  141.1538  137.9997  155.2900 H   0  0  0  0  0  0  0  0  0  0  0  0
  141.4420  137.0731  153.0117 H   0  0  0  0  0  0  0  0  0  0  0  0
  142.0234  138.7278  152.8357 H   0  0  0  0  0  0  0  0  0  0  0  0
  143.5554  136.2461  152.6302 H   0  0  0  0  0  0  0  0  0  0  0  0
  144.2018  137.8716  152.4512 H   0  0  0  0  0  0  0  0  0  0  0  0
  145.0213  136.4048  154.6090 H   0  0  0  0  0  0  0  0  0  0  0  0
  143.1325  136.6806  156.4081 H   0  0  0  0  0  0  0  0  0  0  0  0
  142.5231  135.7657  155.0103 H   0  0  0  0  0  0  0  0  0  0  0  0
  145.0469  141.1713  155.3934 H   0  0  0  0  0  0  0  0  0  0  0  0
  146.3931  140.2431  156.0146 H   0  0  0  0  0  0  0  0  0  0  0  0
  147.1638  142.2987  154.8193 H   0  0  0  0  0  0  0  0  0  0  0  0
  146.3418  141.7992  153.3715 H   0  0  0  0  0  0  0  0  0  0  0  0
  144.9139  139.6987  153.5532 H   0  0  0  0  0  0  0  0  0  0  0  0
  149.8245  144.3834  157.4235 H   0  0  0  0  0  0  0  0  0  0  0  0
  1  2  2  0  0  0  0
  2  3  1  0  0  0  0
  2 12  1  0  0  0  0
  3  4  1  0  0  0  0
  3 25  1  0  0  0  0
  4  5  1  0  0  0  0
  4 26  1  0  0  0  0
  4 27  1  0  0  0  0
  5  6  1  0  0  0  0
  5 28  1  0  0  0  0
  5 29  1  0  0  0  0
  6 11  1  0  0  0  0
  6  7  2  0  0  0  0
  7  8  1  0  0  0  0
  7 30  1  0  0  0  0
  8  9  2  0  0  0  0
  8 31  1  0  0  0  0
  9 10  1  0  0  0  0
  9 32  1  0  0  0  0
 10 11  2  0  0  0  0
 10 33  1  0  0  0  0
 11 54  1  0  0  0  0
 12 24  1  0  0  0  0
 12 13  1  0  0  0  0
 13 14  1  0  0  0  0
 13 34  1  0  0  0  0
 13 35  1  0  0  0  0
 14 15  1  0  0  0  0
 14 36  1  0  0  0  0
 14 37  1  0  0  0  0
 15 16  1  0  0  0  0
 15 23  1  0  0  0  0
 15 53  1  0  0  0  0
 16 21  1  0  0  0  0
 16 17  1  0  0  0  0
 16 38  1  0  0  0  0
 17 18  1  0  0  0  0
 17 39  1  0  0  0  0
 17 40  1  0  0  0  0
 18 22  1  0  0  0  0
 18 19  1  0  0  0  0
 18 41  1  0  0  0  0
 19 20  1  0  0  0  0
 19 42  1  0  0  0  0
 19 43  1  0  0  0  0
 20 21  1  0  0  0  0
 20 44  1  0  0  0  0
 20 45  1  0  0  0  0
 21 22  1  0  0  0  0
 21 46  1  0  0  0  0
 22 47  1  0  0  0  0
 22 48  1  0  0  0  0
 23 24  1  0  0  0  0
 23 49  1  0  0  0  0
 23 50  1  0  0  0  0
 24 51  1  0  0  0  0
 24 52  1  0  0  0  0
M  CHG  1  11   1
M  CHG  1  15   1
M  END
> <s_m_source_file>
AV-unprocessed.smi

> <i_m_source_file_index>
907

> <i_lp_mmshare_version>
43012

> <i_f3d_flags>
0

> <s_epik_input>
W0NIMl0xW0NIMl1bQ0BASF0oW0NIMl0yKVtDQEBIXShbQ0gyXVtDQEhdMTIpTihbQ0gyXVtDSDJdMylbQ0gyXVtDSDJdTjNDKD1PKVtOSF1bQ0gyXVtDSDJdYzRbY0hdW2NIXVtjSF1bY0hdbjQ=

> <s_epik_cmdline>
J2VwaWtfcHl0aG9uJywgJy1waCcsICc3LjAnLCAnLXRuJywgJzgnLCAnLW1hJywgJzIwMCcsICctbWV0YWxfYmluZGluZycsICctaW1hZScsICc8aW5maWxlLm1hZT4nLCAnLW9tYWUnLCAnPG91dGZpbGUubWFlPic=

> <r_epik_Ionization_Penalty>
1.63018

> <r_epik_Ionization_Penalty_Charging>
1.63015

> <r_epik_Ionization_Penalty_Neutral>
2.64641e-05

> <r_epik_State_Penalty>
1.72761

> <r_epik_Charging_Adjusted_Penalty>
3.35777

> <i_epik_Tot_Q>
2

> <i_epik_Tot_abs_Q>
2

> <r_epik_Metal_State_Penalty>
1.76501

> <b_epik_Metal_Only>
0

> <s_lp_Force_Field>
OPLS_2005

> <r_lp_Energy>
102.542

> <b_lp_Chiralities_Consistent>
1

> <s_lp_Variant>
AV-unprocessed.smi:907-8

> <Gold.Version>
5.8.1

> <Gold.Id.Protein>
6NUR|6NUR_protein|mol2

> <Gold.PLP.Fitness>
52.4692

> <Gold.PLP.PLP>
-40.7515

> <Gold.PLP.part.hbond>
-3.9019

> <Gold.PLP.part.metal>
0.0000

> <Gold.PLP.part.buried>
-1.5553

> <Gold.PLP.part.nonpolar>
-35.5241

> <Gold.PLP.part.repulsive>
1.2680

> <Gold.PLP.ligand.clash>
2.0700

> <Gold.PLP.ligand.torsion>
0.6584

> <Gold.PLP.Chemscore.Hbond>
5.0000

> <Gold.PLP.Chemscore.CHOScore>
0.0000

> <Gold.PLP.Chemscore.Metal>
0.0000

> <Gold.Chemscore.Hbonds>
donor molecule, donor type, donor heavy atom, donor atom, acceptor molecule, acceptor atom, score
      L1  H    11    54       P1  8028  2.00
      L1  H    15    53       P1 10175  2.00
      P1  H  7989  7998       L1     1  1.00

> <Gold.PLP.Chemscore.Internal.Correction>
0.1044

> <Gold.Rescore>
     Score         DG    S(hbond)    S(metal)    S(lipo)     H(rot)  DE(clash)    DE(int)     intcor
     20.11     -21.41       2.37        0.00     100.36       1.46       0.60       0.71       ----

> <Gold.Chemscore.Fitness>
20.1051

> <Gold.Chemscore.DG>
-21.4107

> <Gold.Chemscore.ZeroCoef>
-5.4800

> <Gold.Chemscore.Hbond>
2.3710

> <Gold.Chemscore.Metal>
0.0000

> <Gold.Chemscore.Lipo>
100.3586

> <Gold.Chemscore.Internal_Hbond>
0.0000

> <Gold.Chemscore.DEClash>
0.6004

> <Gold.Chemscore.DEInternal>
0.7052

> <Gold.Chemscore.Rot>
1.4572

> <Gold.Chemscore.Internal.Correction>
   9.000000E+99

> <Gold.Chemscore.Hbonds>
donor molecule, donor type, donor heavy atom, donor atom, acceptor molecule, acceptor atom, score
      L1  H    11    54       P1  8028  0.25
      L1  H    15    53       P1 10175  1.00
      P1  H  7989  7998       L1     1  0.86

> <Gold.Chemscore.Hbond.Weighted>
-7.9193

> <Gold.Chemscore.Metal.Weighted>
-0.0000

> <Gold.Chemscore.Lipo.Weighted>
-11.7420

> <Gold.Chemscore.Internal_Hbond.Weighted>
0.0000

> <Gold.Chemscore.DEClash.Weighted>
0.6004

> <Gold.Chemscore.DEInternal.Weighted>
0.7052

> <Gold.Chemscore.Rot.Weighted>
3.7305

> <Gold.Chemscore.Internal.Correction.Weighted>
   9.000000E+99

> <Gold.Protein.RotatedTorsions>
[ 6907 6896 6895 6894 ] final -106.73 input  -60.11 | X-H torsion
[ 7974 7965 7964 7962 ] final  -15.56 input  175.53 | X-H torsion
[ 8008 7997 7996 7995 ] final   38.54 input   59.86 | X-H torsion
[ 10167 10162 10161 10158 ] final  103.19 input  -65.29 | X-H torsion
[ 10718 10713 10712 10709 ] final  -34.27 input   66.30 | X-H torsion
[ 10763 10752 10751 10750 ] final -160.75 input  -60.55 | X-H torsion
[ 11005 11000 10999 10996 ] final -107.10 input  -57.11 | X-H torsion

> <Gold.Protein.ActiveResidues>
 VAL166  LYS551  ARG553  GLY616  TRP617  ASP618  TYR619  PRO620  LYS621  CYS622 
 ASP623  PHE694  ASN695  SER759  ASP760  ASP761  ALA762  ILE779  LEU786  VAL792 
 PHE793  MET794  SER795  GLU796  ALA797  LYS798  CYS799  TRP800  GLU811  SER814 

> <Gold.Protein.RotatedAtoms>
  150.7405  133.9932  159.3613 H   0  0  0  0  0  0  0  0  0  0  0  0  # atno 6907 bound_to 6896
  151.7881  135.0741  160.0393 H   0  0  0  0  0  0  0  0  0  0  0  0  # atno 6908 bound_to 6896
  152.3227  133.5834  159.5791 H   0  0  0  0  0  0  0  0  0  0  0  0  # atno 6909 bound_to 6896
  146.2026  140.3510  142.8418 H   0  0  0  0  0  0  0  0  0  0  0  0  # atno 7974 bound_to 7965
  155.2219  140.3331  155.4314 H   0  0  0  0  0  0  0  0  0  0  0  0  # atno 8008 bound_to 7997
  156.2330  140.1859  156.7241 H   0  0  0  0  0  0  0  0  0  0  0  0  # atno 8009 bound_to 7997
  154.6010  140.0623  156.9353 H   0  0  0  0  0  0  0  0  0  0  0  0  # atno 8010 bound_to 7997
  139.7284  144.7042  151.0761 H   0  0  0  0  0  0  0  0  0  0  0  0  # atno 10167 bound_to 10162
  156.3526  130.4311  149.7691 H   0  0  0  0  0  0  0  0  0  0  0  0  # atno 10718 bound_to 10713
  154.7363  135.3058  154.8806 H   0  0  0  0  0  0  0  0  0  0  0  0  # atno 10763 bound_to 10752
  153.9633  135.6750  153.4749 H   0  0  0  0  0  0  0  0  0  0  0  0  # atno 10764 bound_to 10752
  153.0965  135.4933  154.8712 H   0  0  0  0  0  0  0  0  0  0  0  0  # atno 10765 bound_to 10752
  141.0971  133.8951  157.1935 H   0  0  0  0  0  0  0  0  0  0  0  0  # atno 11005 bound_to 11000
  144.8719  140.7284  143.6041 LP  0  0  0  0  0  0  0  0  0  0  0  0  # atno 17320 bound_to 7965
  145.3430  139.1727  143.4476 LP  0  0  0  0  0  0  0  0  0  0  0  0  # atno 17321 bound_to 7965
  140.7767  143.5075  150.9694 LP  0  0  0  0  0  0  0  0  0  0  0  0  # atno 17342 bound_to 10162
  139.8763  143.7129  152.3161 LP  0  0  0  0  0  0  0  0  0  0  0  0  # atno 17343 bound_to 10162
  156.4885  130.8074  151.3085 LP  0  0  0  0  0  0  0  0  0  0  0  0  # atno 17370 bound_to 10713
  157.7463  130.9983  150.2847 LP  0  0  0  0  0  0  0  0  0  0  0  0  # atno 17371 bound_to 10713
  139.9811  135.0098  156.9752 LP  0  0  0  0  0  0  0  0  0  0  0  0  # atno 17394 bound_to 11000
  140.5113  134.0999  155.7271 LP  0  0  0  0  0  0  0  0  0  0  0  0  # atno 17395 bound_to 11000

$$$$
