AV-unprocessed.smi:215|AV-procd|sdf|1650|dock8
  -GOLD-   2262020 33D 1   1.00000     0.00000
 Structure written by MMmdl.
 59 62  0  0  0  0  0  0  0  0  2 V2000
  150.2891  129.0483  154.1678 C   0  0  0  0  0  0  0  0  0  0  0  0
  150.2989  130.5732  154.4072 C   0  0  2  0  0  0  0  0  0  0  0  0
  151.4551  131.1602  155.2541 C   0  0  2  0  0  0  0  0  0  0  0  0
  152.2545  130.1579  156.0233 N   0  3  2  0  0  0  0  0  0  0  0  0
  152.9786  130.7049  157.2015 C   0  0  0  0  0  0  0  0  0  0  0  0
  153.1187  129.3198  155.1497 C   0  0  0  0  0  0  0  0  0  0  0  0
  153.1027  127.8303  155.5360 C   0  0  0  0  0  0  0  0  0  0  0  0
  153.3015  127.0292  154.3906 O   0  0  0  0  0  0  0  0  0  0  0  0
  150.8093  132.2801  156.0970 C   0  0  0  0  0  0  0  0  0  0  0  0
  149.4236  132.4431  155.4746 C   0  0  0  0  0  0  0  0  0  0  0  0
  149.0769  131.1128  154.9942 N   0  0  0  0  0  0  0  0  0  0  0  0
  147.9619  131.0092  154.2335 C   0  0  0  0  0  0  0  0  0  0  0  0
  147.3839  129.7982  154.0175 N   0  0  0  0  0  0  0  0  0  0  0  0
  146.2715  129.7110  153.2816 C   0  0  0  0  0  0  0  0  0  0  0  0
  145.5882  130.6888  152.6824 N   0  0  0  0  0  0  0  0  0  0  0  0
  146.1687  131.9051  152.8946 C   0  0  0  0  0  0  0  0  0  0  0  0
  147.3437  132.1505  153.6578 C   0  0  0  0  0  0  0  0  0  0  0  0
  147.6273  133.5091  153.6746 N   0  0  0  0  0  0  0  0  0  0  0  0
  146.6667  134.0398  152.9681 C   0  0  0  0  0  0  0  0  0  0  0  0
  145.7637  133.1462  152.4316 N   0  0  0  0  0  0  0  0  0  0  0  0
  144.5968  133.4476  151.6453 C   0  0  0  0  0  0  0  0  0  0  0  0
  143.7784  132.3144  151.0143 C   0  0  0  0  0  0  0  0  0  0  0  0
  144.4169  132.6070  149.6401 C   0  0  0  0  0  0  0  0  0  0  0  0
  145.6615  131.7600  149.3050 C   0  0  0  0  0  0  0  0  0  0  0  0
  146.8082  132.2353  149.9813 O   0  0  0  0  0  0  0  0  0  0  0  0
  143.4495  132.5749  148.4451 C   0  0  0  0  0  0  0  0  0  0  0  0
  143.4510  133.8054  147.7496 O   0  0  0  0  0  0  0  0  0  0  0  0
  144.7100  134.0075  150.2208 C   0  0  0  0  0  0  0  0  0  0  0  0
  150.3816  131.0297  153.4187 H   0  0  0  0  0  0  0  0  0  0  0  0
  152.1257  131.6268  154.5311 H   0  0  0  0  0  0  0  0  0  0  0  0
  151.2518  128.7070  153.7866 H   0  0  0  0  0  0  0  0  0  0  0  0
  149.5394  128.7748  153.4251 H   0  0  0  0  0  0  0  0  0  0  0  0
  150.0650  128.4843  155.0717 H   0  0  0  0  0  0  0  0  0  0  0  0
  153.9483  131.1165  156.9200 H   0  0  0  0  0  0  0  0  0  0  0  0
  153.1511  129.9215  157.9391 H   0  0  0  0  0  0  0  0  0  0  0  0
  152.4167  131.4951  157.6984 H   0  0  0  0  0  0  0  0  0  0  0  0
  152.7938  129.4029  154.1117 H   0  0  0  0  0  0  0  0  0  0  0  0
  154.1396  129.7031  155.1817 H   0  0  0  0  0  0  0  0  0  0  0  0
  153.9105  127.6249  156.2389 H   0  0  0  0  0  0  0  0  0  0  0  0
  152.1770  127.5440  156.0342 H   0  0  0  0  0  0  0  0  0  0  0  0
  152.9234  127.4699  153.6441 H   0  0  0  0  0  0  0  0  0  0  0  0
  150.6907  132.0081  157.1441 H   0  0  0  0  0  0  0  0  0  0  0  0
  151.3838  133.2063  156.0690 H   0  0  0  0  0  0  0  0  0  0  0  0
  148.6951  132.8085  156.1993 H   0  0  0  0  0  0  0  0  0  0  0  0
  149.4714  133.1557  154.6498 H   0  0  0  0  0  0  0  0  0  0  0  0
  145.8716  128.7159  153.1540 H   0  0  0  0  0  0  0  0  0  0  0  0
  146.6017  135.1073  152.8190 H   0  0  0  0  0  0  0  0  0  0  0  0
  143.9739  134.0854  152.2737 H   0  0  0  0  0  0  0  0  0  0  0  0
  143.9877  131.3162  151.3993 H   0  0  0  0  0  0  0  0  0  0  0  0
  142.7063  132.5188  151.0365 H   0  0  0  0  0  0  0  0  0  0  0  0
  145.5182  130.7174  149.5882 H   0  0  0  0  0  0  0  0  0  0  0  0
  145.8636  131.7533  148.2337 H   0  0  0  0  0  0  0  0  0  0  0  0
  147.3433  131.4941  150.2213 H   0  0  0  0  0  0  0  0  0  0  0  0
  143.7330  131.7945  147.7382 H   0  0  0  0  0  0  0  0  0  0  0  0
  142.4309  132.3459  148.7590 H   0  0  0  0  0  0  0  0  0  0  0  0
  144.3414  134.1168  147.6926 H   0  0  0  0  0  0  0  0  0  0  0  0
  143.9201  134.7288  150.0034 H   0  0  0  0  0  0  0  0  0  0  0  0
  145.6807  134.4177  149.9451 H   0  0  0  0  0  0  0  0  0  0  0  0
  151.5650  129.5197  156.3950 H   0  0  0  0  0  0  0  0  0  0  0  0
  1  2  1  0  0  0  0
  1 31  1  0  0  0  0
  1 32  1  0  0  0  0
  1 33  1  0  0  0  0
  2 29  1  0  0  0  0
  2 11  1  0  0  0  0
  2  3  1  0  0  0  0
  3 30  1  0  0  0  0
  3  4  1  0  0  0  0
  3  9  1  0  0  0  0
  4  5  1  0  0  0  0
  4  6  1  0  0  0  0
  4 59  1  0  0  0  0
  5 34  1  0  0  0  0
  5 35  1  0  0  0  0
  5 36  1  0  0  0  0
  6  7  1  0  0  0  0
  6 37  1  0  0  0  0
  6 38  1  0  0  0  0
  7  8  1  0  0  0  0
  7 39  1  0  0  0  0
  7 40  1  0  0  0  0
  8 41  1  0  0  0  0
  9 10  1  0  0  0  0
  9 42  1  0  0  0  0
  9 43  1  0  0  0  0
 10 11  1  0  0  0  0
 10 44  1  0  0  0  0
 10 45  1  0  0  0  0
 11 12  1  0  0  0  0
 12 17  1  0  0  0  0
 12 13  2  0  0  0  0
 13 14  1  0  0  0  0
 14 15  2  0  0  0  0
 14 46  1  0  0  0  0
 15 16  1  0  0  0  0
 16 20  1  0  0  0  0
 16 17  2  0  0  0  0
 17 18  1  0  0  0  0
 18 19  2  0  0  0  0
 19 20  1  0  0  0  0
 19 47  1  0  0  0  0
 20 21  1  0  0  0  0
 21 28  1  0  0  0  0
 21 22  1  0  0  0  0
 21 48  1  0  0  0  0
 22 23  1  0  0  0  0
 22 49  1  0  0  0  0
 22 50  1  0  0  0  0
 23 24  1  0  0  0  0
 23 26  1  0  0  0  0
 23 28  1  0  0  0  0
 24 25  1  0  0  0  0
 24 51  1  0  0  0  0
 24 52  1  0  0  0  0
 25 53  1  0  0  0  0
 26 27  1  0  0  0  0
 26 54  1  0  0  0  0
 26 55  1  0  0  0  0
 27 56  1  0  0  0  0
 28 57  1  0  0  0  0
 28 58  1  0  0  0  0
M  CHG  1   4   1
M  END
> <s_m_source_file>
AV-unprocessed.smi

> <i_m_source_file_index>
215

> <i_lp_mmshare_version>
43012

> <i_f3d_flags>
0

> <s_epik_input>
W09IXVtDSDJdW0NIMl1OKFtDSDNdKVtDQEBIXShbQ0BIXTFbQ0gzXSlbQ0gyXVtDSDJdTjFjKG5bY0hdbjIpYyhjMjMpbltjSF1uM1tDSF0oW0NIMl00KVtDSDJdQzQoW0NIMl1bT0hdKVtDSDJdW09IXQ==

> <s_epik_cmdline>
J2VwaWtfcHl0aG9uJywgJy1waCcsICc3LjAnLCAnLXRuJywgJzgnLCAnLW1hJywgJzIwMCcsICctbWV0YWxfYmluZGluZycsICctaW1hZScsICc8aW5maWxlLm1hZT4nLCAnLW9tYWUnLCAnPG91dGZpbGUubWFlPic=

> <r_lp_tautomer_probability>
1

> <r_epik_Ionization_Penalty>
0.0036237

> <r_epik_Ionization_Penalty_Charging>
0.0032725

> <r_epik_Ionization_Penalty_Neutral>
0.000351196

> <r_epik_State_Penalty>
-0

> <r_epik_Charging_Adjusted_Penalty>
0.0032725

> <i_epik_Tot_Q>
1

> <i_epik_Tot_abs_Q>
1

> <r_epik_Metal_State_Penalty>
-0

> <b_epik_Metal_Only>
0

> <s_lp_Force_Field>
OPLS_2005

> <r_lp_Energy>
76.3744

> <b_lp_Chiralities_Consistent>
1

> <s_lp_Variant>
AV-unprocessed.smi:215-1

> <Gold.Version>
5.8.1

> <Gold.Id.Protein>
6NUR|6NUR_protein|mol2

> <Gold.PLP.Fitness>
54.3803

> <Gold.PLP.PLP>
-46.9953

> <Gold.PLP.part.hbond>
-5.8842

> <Gold.PLP.part.metal>
0.0000

> <Gold.PLP.part.buried>
-6.9154

> <Gold.PLP.part.nonpolar>
-34.4693

> <Gold.PLP.part.repulsive>
0.3997

> <Gold.PLP.ligand.clash>
0.0000

> <Gold.PLP.ligand.torsion>
2.9313

> <Gold.PLP.Chemscore.Hbond>
4.0000

> <Gold.PLP.Chemscore.CHOScore>
0.1528

> <Gold.PLP.Chemscore.Metal>
0.0000

> <Gold.Chemscore.Hbonds>
donor molecule, donor type, donor heavy atom, donor atom, acceptor molecule, acceptor atom, score
      L1  H     8    41       P1 10737  0.86
      L1  H    25    53       P1 10747  0.90
      L1  H    27    56       P1  7921  1.00
      P1  H 10192 10197       L1    27  0.93
      L1  C    19    47       P1  7948  0.29

> <Gold.PLP.Chemscore.Internal.Correction>
0.7891

> <Gold.Rescore>
     Score         DG    S(hbond)    S(metal)    S(lipo)     H(rot)  DE(clash)    DE(int)     intcor
      7.08     -17.17       3.79        0.00      96.85       4.81       1.38       8.70       ----

> <Gold.Chemscore.Fitness>
7.0805

> <Gold.Chemscore.DG>
-17.1666

> <Gold.Chemscore.ZeroCoef>
-5.4800

> <Gold.Chemscore.Hbond>
3.7929

> <Gold.Chemscore.Metal>
0.0000

> <Gold.Chemscore.Lipo>
96.8478

> <Gold.Chemscore.Internal_Hbond>
0.0000

> <Gold.Chemscore.DEClash>
1.3822

> <Gold.Chemscore.DEInternal>
8.7040

> <Gold.Chemscore.Rot>
4.8098

> <Gold.Chemscore.Internal.Correction>
   9.000000E+99

> <Gold.Chemscore.Hbonds>
donor molecule, donor type, donor heavy atom, donor atom, acceptor molecule, acceptor atom, score
      L1  H     8    41       P1 10737  0.71
      L1  H    25    53       P1 10747  0.88
      L1  H    27    56       P1  7921  1.00
      P1  H 10192 10197       L1    27  0.80

> <Gold.Chemscore.Hbond.Weighted>
-12.6684

> <Gold.Chemscore.Metal.Weighted>
-0.0000

> <Gold.Chemscore.Lipo.Weighted>
-11.3312

> <Gold.Chemscore.Internal_Hbond.Weighted>
0.0000

> <Gold.Chemscore.DEClash.Weighted>
1.3822

> <Gold.Chemscore.DEInternal.Weighted>
8.7040

> <Gold.Chemscore.Rot.Weighted>
12.3130

> <Gold.Chemscore.Internal.Correction.Weighted>
   9.000000E+99

> <Gold.Protein.RotatedTorsions>
[ 6907 6896 6895 6894 ] final  133.59 input  -60.11 | X-H torsion
[ 7974 7965 7964 7962 ] final -117.80 input  175.53 | X-H torsion
[ 8008 7997 7996 7995 ] final -120.32 input   59.86 | X-H torsion
[ 10167 10162 10161 10158 ] final  -83.46 input  -65.29 | X-H torsion
[ 10718 10713 10712 10709 ] final -133.27 input   66.30 | X-H torsion
[ 10763 10752 10751 10750 ] final   58.69 input  -60.55 | X-H torsion
[ 11005 11000 10999 10996 ] final  -64.23 input  -57.11 | X-H torsion

> <Gold.Protein.ActiveResidues>
 VAL166  LYS551  ARG553  GLY616  TRP617  ASP618  TYR619  PRO620  LYS621  CYS622 
 ASP623  PHE694  ASN695  SER759  ASP760  ASP761  ALA762  ILE779  LEU786  VAL792 
 PHE793  MET794  SER795  GLU796  ALA797  LYS798  CYS799  TRP800  GLU811  SER814 

> <Gold.Protein.RotatedAtoms>
  152.3204  133.5847  159.5740 H   0  0  0  0  0  0  0  0  0  0  0  0  # atno 6907 bound_to 6896
  150.7368  134.0020  159.3650 H   0  0  0  0  0  0  0  0  0  0  0  0  # atno 6908 bound_to 6896
  151.7905  135.0737  160.0437 H   0  0  0  0  0  0  0  0  0  0  0  0  # atno 6909 bound_to 6896
  145.0811  140.8426  143.4038 H   0  0  0  0  0  0  0  0  0  0  0  0  # atno 7974 bound_to 7965
  155.1299  140.0400  157.2772 H   0  0  0  0  0  0  0  0  0  0  0  0  # atno 8008 bound_to 7997
  154.6550  140.2578  155.7145 H   0  0  0  0  0  0  0  0  0  0  0  0  # atno 8009 bound_to 7997
  156.2594  140.2828  156.1000 H   0  0  0  0  0  0  0  0  0  0  0  0  # atno 8010 bound_to 7997
  140.4225  143.2579  151.8871 H   0  0  0  0  0  0  0  0  0  0  0  0  # atno 10167 bound_to 10162
  156.2432  130.7108  151.0978 H   0  0  0  0  0  0  0  0  0  0  0  0  # atno 10718 bound_to 10713
  152.9876  135.5598  154.5592 H   0  0  0  0  0  0  0  0  0  0  0  0  # atno 10763 bound_to 10752
  154.5014  135.2797  155.1419 H   0  0  0  0  0  0  0  0  0  0  0  0  # atno 10764 bound_to 10752
  154.2848  135.6338  153.5414 H   0  0  0  0  0  0  0  0  0  0  0  0  # atno 10765 bound_to 10752
  141.1418  133.6663  156.5801 H   0  0  0  0  0  0  0  0  0  0  0  0  # atno 11005 bound_to 11000
  145.1177  139.2714  143.5604 LP  0  0  0  0  0  0  0  0  0  0  0  0  # atno 17320 bound_to 7965
  146.3531  140.0792  142.8618 LP  0  0  0  0  0  0  0  0  0  0  0  0  # atno 17321 bound_to 7965
  139.4783  144.5422  151.8511 LP  0  0  0  0  0  0  0  0  0  0  0  0  # atno 17342 bound_to 10162
  140.4518  144.1844  150.5898 LP  0  0  0  0  0  0  0  0  0  0  0  0  # atno 17343 bound_to 10162
  157.7184  131.0696  150.6235 LP  0  0  0  0  0  0  0  0  0  0  0  0  # atno 17370 bound_to 10713
  156.6310  130.4432  149.5786 LP  0  0  0  0  0  0  0  0  0  0  0  0  # atno 17371 bound_to 10713
  140.3845  134.7494  157.4682 LP  0  0  0  0  0  0  0  0  0  0  0  0  # atno 17394 bound_to 11000
  140.0613  134.5992  155.8746 LP  0  0  0  0  0  0  0  0  0  0  0  0  # atno 17395 bound_to 11000

$$$$
