AV-unprocessed.smi:610|AV-procd|sdf|3055|dock4
  -GOLD-   2262023573D 1   1.00000     0.00000
 Structure written by MMmdl.
 38 39  0  0  0  0  0  0  0  0  2 V2000
  146.6590  138.9260  151.3406 C   0  0  0  0  0  0  0  0  0  0  0  0
  146.3287  138.1397  152.6179 C   0  0  2  0  0  0  0  0  0  0  0  0
  147.1933  138.5968  153.8085 C   0  0  0  0  0  0  0  0  0  0  0  0
  147.0609  140.0198  154.0636 N   0  0  0  0  0  0  0  0  0  0  0  0
  147.8879  141.0348  153.6013 C   0  0  0  0  0  0  0  0  0  0  0  0
  147.3643  142.2156  154.0775 C   0  0  0  0  0  0  0  0  0  0  0  0
  146.2225  141.9522  154.8310 N   0  0  0  0  0  0  0  0  0  0  0  0
  146.1106  140.6313  154.7842 C   0  0  0  0  0  0  0  0  0  0  0  0
  146.5231  136.7100  152.3882 N   0  0  0  0  0  0  0  0  0  0  0  0
  145.5849  135.8430  151.9745 C   0  0  0  0  0  0  0  0  0  0  0  0
  144.4405  136.1963  151.6877 O   0  0  0  0  0  0  0  0  0  0  0  0
  145.9594  134.3444  151.8895 C   0  0  0  0  0  0  0  0  0  0  0  0
  147.3230  134.2055  152.4344 N   0  3  0  0  0  0  0  0  0  0  0  0
  144.9544  133.4839  152.6744 C   0  0  0  0  0  0  0  0  0  0  0  0
  143.7944  133.2271  151.7017 C   0  0  0  0  0  0  0  0  0  0  0  0
  144.3830  133.3623  150.2880 C   0  0  0  0  0  0  0  0  0  0  0  0
  145.8622  133.7275  150.4780 C   0  0  0  0  0  0  0  0  0  0  0  0
  146.5200  139.9967  151.4932 H   0  0  0  0  0  0  0  0  0  0  0  0
  146.0128  138.6271  150.5146 H   0  0  0  0  0  0  0  0  0  0  0  0
  147.6921  138.7653  151.0309 H   0  0  0  0  0  0  0  0  0  0  0  0
  145.2835  138.3270  152.8718 H   0  0  0  0  0  0  0  0  0  0  0  0
  146.9240  138.0500  154.7136 H   0  0  0  0  0  0  0  0  0  0  0  0
  148.2454  138.3841  153.6150 H   0  0  0  0  0  0  0  0  0  0  0  0
  148.7535  140.8386  152.9856 H   0  0  0  0  0  0  0  0  0  0  0  0
  147.7178  143.2264  153.9359 H   0  0  0  0  0  0  0  0  0  0  0  0
  145.3109  140.0969  155.2761 H   0  0  0  0  0  0  0  0  0  0  0  0
  147.4413  136.3439  152.5948 H   0  0  0  0  0  0  0  0  0  0  0  0
  147.9427  134.8542  151.9708 H   0  0  0  0  0  0  0  0  0  0  0  0
  147.6456  133.2604  152.2814 H   0  0  0  0  0  0  0  0  0  0  0  0
  145.4117  132.5302  152.9433 H   0  0  0  0  0  0  0  0  0  0  0  0
  144.6125  133.9435  153.6030 H   0  0  0  0  0  0  0  0  0  0  0  0
  143.3450  132.2473  151.8664 H   0  0  0  0  0  0  0  0  0  0  0  0
  143.0111  133.9722  151.8464 H   0  0  0  0  0  0  0  0  0  0  0  0
  144.2729  132.4429  149.7117 H   0  0  0  0  0  0  0  0  0  0  0  0
  143.8618  134.1507  149.7435 H   0  0  0  0  0  0  0  0  0  0  0  0
  146.2429  134.3667  149.6800 H   0  0  0  0  0  0  0  0  0  0  0  0
  146.4536  132.8109  150.4410 H   0  0  0  0  0  0  0  0  0  0  0  0
  147.3102  134.3973  153.4259 H   0  0  0  0  0  0  0  0  0  0  0  0
  1  2  1  0  0  0  0
  1 18  1  0  0  0  0
  1 19  1  0  0  0  0
  1 20  1  0  0  0  0
  2  3  1  0  0  0  0
  2  9  1  0  0  0  0
  2 21  1  0  0  0  0
  3  4  1  0  0  0  0
  3 22  1  0  0  0  0
  3 23  1  0  0  0  0
  4  8  1  0  0  0  0
  4  5  1  0  0  0  0
  5  6  2  0  0  0  0
  5 24  1  0  0  0  0
  6  7  1  0  0  0  0
  6 25  1  0  0  0  0
  7  8  2  0  0  0  0
  8 26  1  0  0  0  0
  9 10  1  0  0  0  0
  9 27  1  0  0  0  0
 10 11  2  0  0  0  0
 10 12  1  0  0  0  0
 12 17  1  0  0  0  0
 12 13  1  0  0  0  0
 12 14  1  0  0  0  0
 13 28  1  0  0  0  0
 13 29  1  0  0  0  0
 13 38  1  0  0  0  0
 14 15  1  0  0  0  0
 14 30  1  0  0  0  0
 14 31  1  0  0  0  0
 15 16  1  0  0  0  0
 15 32  1  0  0  0  0
 15 33  1  0  0  0  0
 16 17  1  0  0  0  0
 16 34  1  0  0  0  0
 16 35  1  0  0  0  0
 17 36  1  0  0  0  0
 17 37  1  0  0  0  0
M  CHG  1  13   1
M  END
> <s_m_source_file>
AV-unprocessed.smi

> <i_m_source_file_index>
610

> <i_lp_mmshare_version>
43012

> <i_f3d_flags>
0

> <s_epik_input>
W2NIXTFuW2NIXVtjSF1uMVtDSDJdW0NAQEhdKFtDSDNdKVtOSF1DKD1PKUMyKFtOSDJdKVtDSDJdW0NIMl1bQ0gyXVtDSDJdMg==

> <s_epik_cmdline>
J2VwaWtfcHl0aG9uJywgJy1waCcsICc3LjAnLCAnLXRuJywgJzgnLCAnLW1hJywgJzIwMCcsICctbWV0YWxfYmluZGluZycsICctaW1hZScsICc8aW5maWxlLm1hZT4nLCAnLW9tYWUnLCAnPG91dGZpbGUubWFlPic=

> <r_lp_tautomer_probability>
1

> <r_epik_Ionization_Penalty>
0.661147

> <r_epik_Ionization_Penalty_Charging>
0.661145

> <r_epik_Ionization_Penalty_Neutral>
1.19451e-06

> <r_epik_State_Penalty>
0.679243

> <r_epik_Charging_Adjusted_Penalty>
1.34039

> <i_epik_Tot_Q>
1

> <i_epik_Tot_abs_Q>
1

> <r_epik_Metal_State_Penalty>
0.372892

> <b_epik_Metal_Only>
0

> <s_lp_Force_Field>
OPLS_2005

> <r_lp_Energy>
25.3563

> <b_lp_Chiralities_Consistent>
1

> <s_lp_Variant>
AV-unprocessed.smi:610-3

> <Gold.Version>
5.8.1

> <Gold.Id.Protein>
6NUR|6NUR_protein|mol2

> <Gold.PLP.Fitness>
41.4566

> <Gold.PLP.PLP>
-28.7769

> <Gold.PLP.part.hbond>
-2.0000

> <Gold.PLP.part.metal>
0.0000

> <Gold.PLP.part.buried>
-1.4353

> <Gold.PLP.part.nonpolar>
-26.1639

> <Gold.PLP.part.repulsive>
0.6271

> <Gold.PLP.ligand.clash>
0.0000

> <Gold.PLP.ligand.torsion>
0.7999

> <Gold.PLP.Chemscore.Hbond>
2.7360

> <Gold.PLP.Chemscore.CHOScore>
1.9961

> <Gold.PLP.Chemscore.Metal>
0.0000

> <Gold.Chemscore.Hbonds>
donor molecule, donor type, donor heavy atom, donor atom, acceptor molecule, acceptor atom, score
      L1  H     9    27       P1  7948  0.77
      L1  H    13    28       P1  7948  2.00
      L1  C     5    24       P1  7957  1.00
      L1  C     6    25       P1  8028  0.97

> <Gold.PLP.Chemscore.Internal.Correction>
0.0832

> <Gold.Rescore>
     Score         DG    S(hbond)    S(metal)    S(lipo)     H(rot)  DE(clash)    DE(int)     intcor
     11.72     -13.76       1.82        0.00      62.55       2.00       0.36       1.68       ----

> <Gold.Chemscore.Fitness>
11.7173

> <Gold.Chemscore.DG>
-13.7634

> <Gold.Chemscore.ZeroCoef>
-5.4800

> <Gold.Chemscore.Hbond>
1.8195

> <Gold.Chemscore.Metal>
0.0000

> <Gold.Chemscore.Lipo>
62.5545

> <Gold.Chemscore.Internal_Hbond>
0.0000

> <Gold.Chemscore.DEClash>
0.3612

> <Gold.Chemscore.DEInternal>
1.6849

> <Gold.Chemscore.Rot>
1.9972

> <Gold.Chemscore.Internal.Correction>
   9.000000E+99

> <Gold.Chemscore.Hbonds>
donor molecule, donor type, donor heavy atom, donor atom, acceptor molecule, acceptor atom, score
      L1  H     9    27       P1  7948  0.76
      L1  H    13    28       P1  7948  0.39

> <Gold.Chemscore.Hbond.Weighted>
-6.0773

> <Gold.Chemscore.Metal.Weighted>
-0.0000

> <Gold.Chemscore.Lipo.Weighted>
-7.3189

> <Gold.Chemscore.Internal_Hbond.Weighted>
0.0000

> <Gold.Chemscore.DEClash.Weighted>
0.3612

> <Gold.Chemscore.DEInternal.Weighted>
1.6849

> <Gold.Chemscore.Rot.Weighted>
5.1127

> <Gold.Chemscore.Internal.Correction.Weighted>
   9.000000E+99

> <Gold.Protein.RotatedTorsions>
[ 6907 6896 6895 6894 ] final  -90.16 input  -60.11 | X-H torsion
[ 7974 7965 7964 7962 ] final  125.04 input  175.53 | X-H torsion
[ 8008 7997 7996 7995 ] final   92.28 input   59.86 | X-H torsion
[ 10167 10162 10161 10158 ] final  144.20 input  -65.29 | X-H torsion
[ 10718 10713 10712 10709 ] final   68.63 input   66.30 | X-H torsion
[ 10763 10752 10751 10750 ] final  128.56 input  -60.55 | X-H torsion
[ 11005 11000 10999 10996 ] final   38.07 input  -57.11 | X-H torsion

> <Gold.Protein.ActiveResidues>
 VAL166  LYS551  ARG553  GLY616  TRP617  ASP618  TYR619  PRO620  LYS621  CYS622 
 ASP623  PHE694  ASN695  SER759  ASP760  ASP761  ALA762  ILE779  LEU786  VAL792 
 PHE793  MET794  SER795  GLU796  ALA797  LYS798  CYS799  TRP800  GLU811  SER814 

> <Gold.Protein.RotatedAtoms>
  150.6879  134.2475  159.4496 H   0  0  0  0  0  0  0  0  0  0  0  0  # atno 6907 bound_to 6896
  152.0414  134.9706  160.0583 H   0  0  0  0  0  0  0  0  0  0  0  0  # atno 6908 bound_to 6896
  152.1206  133.4316  159.4711 H   0  0  0  0  0  0  0  0  0  0  0  0  # atno 6909 bound_to 6896
  145.0775  139.3682  143.4926 H   0  0  0  0  0  0  0  0  0  0  0  0  # atno 7974 bound_to 7965
  156.0336  140.3327  155.7166 H   0  0  0  0  0  0  0  0  0  0  0  0  # atno 8008 bound_to 7997
  155.5849  140.0640  157.2791 H   0  0  0  0  0  0  0  0  0  0  0  0  # atno 8009 bound_to 7997
  154.4363  140.1837  156.1002 H   0  0  0  0  0  0  0  0  0  0  0  0  # atno 8010 bound_to 7997
  139.4952  144.5988  151.6525 H   0  0  0  0  0  0  0  0  0  0  0  0  # atno 10167 bound_to 10162
  157.6300  130.9383  150.0403 H   0  0  0  0  0  0  0  0  0  0  0  0  # atno 10718 bound_to 10713
  153.7275  135.3244  155.3279 H   0  0  0  0  0  0  0  0  0  0  0  0  # atno 10763 bound_to 10752
  154.8336  135.4514  154.1155 H   0  0  0  0  0  0  0  0  0  0  0  0  # atno 10764 bound_to 10752
  153.2293  135.6958  153.7989 H   0  0  0  0  0  0  0  0  0  0  0  0  # atno 10765 bound_to 10752
  140.2162  134.3695  155.8025 H   0  0  0  0  0  0  0  0  0  0  0  0  # atno 11005 bound_to 11000
  146.3530  140.0549  142.8633 LP  0  0  0  0  0  0  0  0  0  0  0  0  # atno 17320 bound_to 7965
  145.1218  140.9467  143.4596 LP  0  0  0  0  0  0  0  0  0  0  0  0  # atno 17321 bound_to 7965
  140.5633  144.0232  150.6180 LP  0  0  0  0  0  0  0  0  0  0  0  0  # atno 17342 bound_to 10162
  140.3325  143.3068  152.0672 LP  0  0  0  0  0  0  0  0  0  0  0  0  # atno 17343 bound_to 10162
  156.1497  130.3642  149.9457 LP  0  0  0  0  0  0  0  0  0  0  0  0  # atno 17370 bound_to 10713
  156.7479  130.9104  151.3636 LP  0  0  0  0  0  0  0  0  0  0  0  0  # atno 17371 bound_to 10713
  141.2225  133.7169  156.8501 LP  0  0  0  0  0  0  0  0  0  0  0  0  # atno 17394 bound_to 11000
  140.1898  134.8974  157.3046 LP  0  0  0  0  0  0  0  0  0  0  0  0  # atno 17395 bound_to 11000

$$$$
