AV-unprocessed.smi:2751|AV-procd|sdf|10603|dock7
  -GOLD-   2272015 53D 1   1.00000     0.00000
 Structure written by MMmdl.
 33 34  0  0  0  0  0  0  0  0  2 V2000
  151.6100  140.8182  157.4785 O   0  0  0  0  0  0  0  0  0  0  0  0
  150.9559  141.4452  156.6416 C   0  0  0  0  0  0  0  0  0  0  0  0
  150.4797  142.6627  156.9408 N   0  0  0  0  0  0  0  0  0  0  0  0
  150.6568  143.3622  158.2090 C   0  0  0  0  0  0  0  0  0  0  0  0
  152.0568  143.9904  158.3189 C   0  0  0  0  0  0  0  0  0  0  0  0
  152.7405  143.6946  159.6630 C   0  0  2  0  0  0  0  0  0  0  0  0
  153.0432  142.1935  159.8377 C   0  0  0  0  0  0  0  0  0  0  0  0
  153.6569  141.9235  161.2163 C   0  0  0  0  0  0  0  0  0  0  0  0
  152.7569  142.5135  162.3071 C   0  0  0  0  0  0  0  0  0  0  0  0
  152.4589  143.9920  162.0117 C   0  0  0  0  0  0  0  0  0  0  0  0
  151.8785  144.1205  160.7174 O   0  0  0  0  0  0  0  0  0  0  0  0
  150.6434  141.0289  155.3934 N   0  5  0  0  0  0  0  0  0  0  0  0
  149.3747  141.1075  154.9605 C   0  0  0  0  0  0  0  0  0  0  0  0
  148.2793  141.1314  155.7218 N   0  0  0  0  0  0  0  0  0  0  0  0
  147.2090  141.2093  154.8439 C   0  0  0  0  0  0  0  0  0  0  0  0
  147.7106  141.2239  153.5711 C   0  0  0  0  0  0  0  0  0  0  0  0
  149.0749  141.1547  153.6313 O   0  0  0  0  0  0  0  0  0  0  0  0
  149.9503  143.1410  156.2265 H   0  0  0  0  0  0  0  0  0  0  0  0
  149.8834  144.1226  158.3293 H   0  0  0  0  0  0  0  0  0  0  0  0
  150.5076  142.6403  159.0122 H   0  0  0  0  0  0  0  0  0  0  0  0
  152.6856  143.6363  157.5008 H   0  0  0  0  0  0  0  0  0  0  0  0
  151.9738  145.0709  158.1952 H   0  0  0  0  0  0  0  0  0  0  0  0
  153.6743  144.2580  159.7123 H   0  0  0  0  0  0  0  0  0  0  0  0
  152.1234  141.6171  159.7287 H   0  0  0  0  0  0  0  0  0  0  0  0
  153.7214  141.8504  159.0556 H   0  0  0  0  0  0  0  0  0  0  0  0
  153.7913  140.8529  161.3708 H   0  0  0  0  0  0  0  0  0  0  0  0
  154.6475  142.3766  161.2719 H   0  0  0  0  0  0  0  0  0  0  0  0
  151.8206  141.9560  162.3508 H   0  0  0  0  0  0  0  0  0  0  0  0
  153.2296  142.4105  163.2842 H   0  0  0  0  0  0  0  0  0  0  0  0
  151.7623  144.3884  162.7504 H   0  0  0  0  0  0  0  0  0  0  0  0
  153.3671  144.5931  162.0762 H   0  0  0  0  0  0  0  0  0  0  0  0
  146.1872  141.2475  155.1908 H   0  0  0  0  0  0  0  0  0  0  0  0
  147.2680  141.2742  152.5877 H   0  0  0  0  0  0  0  0  0  0  0  0
  1  2  2  0  0  0  0
  2 12  1  0  0  0  0
  2  3  1  0  0  0  0
  3  4  1  0  0  0  0
  3 18  1  0  0  0  0
  4  5  1  0  0  0  0
  4 19  1  0  0  0  0
  4 20  1  0  0  0  0
  5  6  1  0  0  0  0
  5 21  1  0  0  0  0
  5 22  1  0  0  0  0
  6 11  1  0  0  0  0
  6  7  1  0  0  0  0
  6 23  1  0  0  0  0
  7  8  1  0  0  0  0
  7 24  1  0  0  0  0
  7 25  1  0  0  0  0
  8  9  1  0  0  0  0
  8 26  1  0  0  0  0
  8 27  1  0  0  0  0
  9 10  1  0  0  0  0
  9 28  1  0  0  0  0
  9 29  1  0  0  0  0
 10 11  1  0  0  0  0
 10 30  1  0  0  0  0
 10 31  1  0  0  0  0
 12 13  1  0  0  0  0
 13 17  1  0  0  0  0
 13 14  2  0  0  0  0
 14 15  1  0  0  0  0
 15 32  1  0  0  0  0
 15 16  2  0  0  0  0
 16 33  1  0  0  0  0
 16 17  1  0  0  0  0
M  CHG  1  12  -1
M  END
> <s_m_source_file>
AV-unprocessed.smi

> <i_m_source_file_index>
2751

> <i_lp_mmshare_version>
43012

> <i_f3d_flags>
0

> <s_epik_input>
bzFbY0hdW2NIXW5jMVtOSF1DKD1PKVtOSF1bQ0gyXVtDSDJdW0NAQEhdMltDSDJdW0NIMl1bQ0gyXVtDSDJdTzI=

> <s_epik_cmdline>
J2VwaWtfcHl0aG9uJywgJy1waCcsICc3LjAnLCAnLXRuJywgJzgnLCAnLW1hJywgJzIwMCcsICctbWV0YWxfYmluZGluZycsICctaW1hZScsICc8aW5maWxlLm1hZT4nLCAnLW9tYWUnLCAnPG91dGZpbGUubWFlPic=

> <r_lp_tautomer_probability>
0.107061

> <r_epik_Ionization_Penalty>
11.077

> <r_epik_Ionization_Penalty_Charging>
7.79122

> <r_epik_Ionization_Penalty_Neutral>
3.28583

> <r_epik_State_Penalty>
5.8984

> <r_epik_Charging_Adjusted_Penalty>
13.6896

> <i_epik_Tot_Q>
-1

> <i_epik_Tot_abs_Q>
1

> <r_epik_Metal_State_Penalty>
1.82322

> <b_epik_Metal_Only>
1

> <s_lp_Force_Field>
OPLS_2005

> <r_lp_Energy>
3.95886

> <b_lp_Chiralities_Consistent>
1

> <s_lp_Variant>
AV-unprocessed.smi:2751-9

> <Gold.Version>
5.8.1

> <Gold.Id.Protein>
6NUR|6NUR_protein|mol2

> <Gold.PLP.Fitness>
45.8950

> <Gold.PLP.PLP>
-40.2154

> <Gold.PLP.part.hbond>
-4.0000

> <Gold.PLP.part.metal>
0.0000

> <Gold.PLP.part.buried>
-5.5410

> <Gold.PLP.part.nonpolar>
-33.2369

> <Gold.PLP.part.repulsive>
2.8899

> <Gold.PLP.ligand.clash>
0.0110

> <Gold.PLP.ligand.torsion>
1.0289

> <Gold.PLP.Chemscore.Hbond>
2.5783

> <Gold.PLP.Chemscore.CHOScore>
0.0000

> <Gold.PLP.Chemscore.Metal>
0.0000

> <Gold.Chemscore.Hbonds>
donor molecule, donor type, donor heavy atom, donor atom, acceptor molecule, acceptor atom, score
      L1  H     3    18       P1  8028  0.98
      P1  H  7989  7998       L1    12  0.50
      P1  H  8011  8017       L1    17  0.96

> <Gold.PLP.Chemscore.Internal.Correction>
0.0136

> <Gold.Rescore>
     Score         DG    S(hbond)    S(metal)    S(lipo)     H(rot)  DE(clash)    DE(int)     intcor
     16.46     -19.64       2.21        0.00      92.88       1.60       1.32       1.86       ----

> <Gold.Chemscore.Fitness>
16.4567

> <Gold.Chemscore.DG>
-19.6353

> <Gold.Chemscore.ZeroCoef>
-5.4800

> <Gold.Chemscore.Hbond>
2.2146

> <Gold.Chemscore.Metal>
0.0000

> <Gold.Chemscore.Lipo>
92.8770

> <Gold.Chemscore.Internal_Hbond>
0.0000

> <Gold.Chemscore.DEClash>
1.3169

> <Gold.Chemscore.DEInternal>
1.8617

> <Gold.Chemscore.Rot>
1.6048

> <Gold.Chemscore.Internal.Correction>
   9.000000E+99

> <Gold.Chemscore.Hbonds>
donor molecule, donor type, donor heavy atom, donor atom, acceptor molecule, acceptor atom, score
      L1  H     3    18       P1  8028  0.91
      P1  H  7989  7998       L1    12  0.11
      P1  H  8011  8017       L1    17  0.59

> <Gold.Chemscore.Hbond.Weighted>
-7.3969

> <Gold.Chemscore.Metal.Weighted>
-0.0000

> <Gold.Chemscore.Lipo.Weighted>
-10.8666

> <Gold.Chemscore.Internal_Hbond.Weighted>
0.0000

> <Gold.Chemscore.DEClash.Weighted>
1.3169

> <Gold.Chemscore.DEInternal.Weighted>
1.8617

> <Gold.Chemscore.Rot.Weighted>
4.1082

> <Gold.Chemscore.Internal.Correction.Weighted>
   9.000000E+99

> <Gold.Protein.RotatedTorsions>
[ 6907 6896 6895 6894 ] final  -49.29 input  -60.11 | X-H torsion
[ 7974 7965 7964 7962 ] final  -42.96 input  175.53 | X-H torsion
[ 8008 7997 7996 7995 ] final -167.18 input   59.86 | X-H torsion
[ 10167 10162 10161 10158 ] final   11.31 input  -65.29 | X-H torsion
[ 10718 10713 10712 10709 ] final  -61.78 input   66.30 | X-H torsion
[ 10763 10752 10751 10750 ] final  -18.95 input  -60.55 | X-H torsion
[ 11005 11000 10999 10996 ] final  -85.73 input  -57.11 | X-H torsion

> <Gold.Protein.ActiveResidues>
 VAL166  LYS551  ARG553  GLY616  TRP617  ASP618  TYR619  PRO620  LYS621  CYS622 
 ASP623  PHE694  ASN695  SER759  ASP760  ASP761  ALA762  ILE779  LEU786  VAL792 
 PHE793  MET794  SER795  GLU796  ALA797  LYS798  CYS799  TRP800  GLU811  SER814 

> <Gold.Protein.RotatedAtoms>
  150.8820  134.8212  159.7231 H   0  0  0  0  0  0  0  0  0  0  0  0  # atno 6907 bound_to 6896
  152.4783  134.4782  159.9667 H   0  0  0  0  0  0  0  0  0  0  0  0  # atno 6908 bound_to 6896
  151.4856  133.3498  159.2880 H   0  0  0  0  0  0  0  0  0  0  0  0  # atno 6909 bound_to 6896
  146.0065  140.7014  142.9245 H   0  0  0  0  0  0  0  0  0  0  0  0  # atno 7974 bound_to 7965
  155.8741  140.0998  157.1530 H   0  0  0  0  0  0  0  0  0  0  0  0  # atno 8008 bound_to 7997
  154.3999  140.1341  156.4178 H   0  0  0  0  0  0  0  0  0  0  0  0  # atno 8009 bound_to 7997
  155.7717  140.3460  155.5253 H   0  0  0  0  0  0  0  0  0  0  0  0  # atno 8010 bound_to 7997
  140.6139  143.8348  150.7097 H   0  0  0  0  0  0  0  0  0  0  0  0  # atno 10167 bound_to 10162
  156.0899  130.4202  150.1042 H   0  0  0  0  0  0  0  0  0  0  0  0  # atno 10718 bound_to 10713
  153.5972  135.7000  153.5399 H   0  0  0  0  0  0  0  0  0  0  0  0  # atno 10763 bound_to 10752
  153.3128  135.4096  155.1350 H   0  0  0  0  0  0  0  0  0  0  0  0  # atno 10764 bound_to 10752
  154.8589  135.3676  154.5506 H   0  0  0  0  0  0  0  0  0  0  0  0  # atno 10765 bound_to 10752
  141.1638  133.7415  156.9058 H   0  0  0  0  0  0  0  0  0  0  0  0  # atno 11005 bound_to 11000
  144.6937  140.3323  143.7214 LP  0  0  0  0  0  0  0  0  0  0  0  0  # atno 17320 bound_to 7965
  145.7408  139.1763  143.2377 LP  0  0  0  0  0  0  0  0  0  0  0  0  # atno 17321 bound_to 7965
  140.1923  143.4026  152.1854 LP  0  0  0  0  0  0  0  0  0  0  0  0  # atno 17342 bound_to 10162
  139.5383  144.7232  151.4818 LP  0  0  0  0  0  0  0  0  0  0  0  0  # atno 17343 bound_to 10162
  156.9054  130.9634  151.3570 LP  0  0  0  0  0  0  0  0  0  0  0  0  # atno 17370 bound_to 10713
  157.6045  130.8537  149.8854 LP  0  0  0  0  0  0  0  0  0  0  0  0  # atno 17371 bound_to 10713
  140.1551  134.9204  157.2643 LP  0  0  0  0  0  0  0  0  0  0  0  0  # atno 17394 bound_to 11000
  140.2677  134.3497  155.7384 LP  0  0  0  0  0  0  0  0  0  0  0  0  # atno 17395 bound_to 11000

$$$$
