AV-unprocessed.smi:2724|AV-procd|sdf|10508|dock8
  -GOLD-   2272014553D 1   1.00000     0.00000
 Structure written by MMmdl.
 25 26  0  0  0  0  0  0  0  0  1 V2000
  149.4217  144.0830  158.3555 O   0  0  0  0  0  0  0  0  0  0  0  0
  150.6602  144.5580  158.8462 C   0  0  1  0  0  0  0  0  0  0  0  0
  150.7064  144.6117  160.3733 C   0  0  0  0  0  0  0  0  0  0  0  0
  152.2016  144.6723  160.6765 C   0  0  0  0  0  0  0  0  0  0  0  0
  152.8379  143.7339  159.6463 C   0  0  0  0  0  0  0  0  0  0  0  0
  151.9041  143.7432  158.4162 C   0  0  1  0  0  0  0  0  0  0  0  0
  151.6146  142.3396  157.8872 C   0  0  0  0  0  0  0  0  0  0  0  0
  151.9584  141.1834  158.6230 C   0  0  0  0  0  0  0  0  0  0  0  0
  151.6615  139.9171  158.0843 C   0  0  0  0  0  0  0  0  0  0  0  0
  151.0323  139.8556  156.8256 C   0  0  0  0  0  0  0  0  0  0  0  0
  150.7001  140.9508  156.1093 N   0  0  0  0  0  0  0  0  0  0  0  0
  150.9876  142.1613  156.6344 C   0  0  0  0  0  0  0  0  0  0  0  0
  149.4622  144.0600  157.4117 H   0  0  0  0  0  0  0  0  0  0  0  0
  150.7834  145.5783  158.4801 H   0  0  0  0  0  0  0  0  0  0  0  0
  150.1580  145.4611  160.7819 H   0  0  0  0  0  0  0  0  0  0  0  0
  150.2813  143.7023  160.8005 H   0  0  0  0  0  0  0  0  0  0  0  0
  152.5649  145.6893  160.5226 H   0  0  0  0  0  0  0  0  0  0  0  0
  152.4344  144.3875  161.7028 H   0  0  0  0  0  0  0  0  0  0  0  0
  153.8564  144.0295  159.3926 H   0  0  0  0  0  0  0  0  0  0  0  0
  152.8994  142.7356  160.0807 H   0  0  0  0  0  0  0  0  0  0  0  0
  152.3960  144.2991  157.6163 H   0  0  0  0  0  0  0  0  0  0  0  0
  152.4395  141.2626  159.5866 H   0  0  0  0  0  0  0  0  0  0  0  0
  151.9092  139.0148  158.6234 H   0  0  0  0  0  0  0  0  0  0  0  0
  150.7894  138.9014  156.3822 H   0  0  0  0  0  0  0  0  0  0  0  0
  150.7069  143.0130  156.0326 H   0  0  0  0  0  0  0  0  0  0  0  0
  1  2  1  0  0  0  0
  1 13  1  0  0  0  0
  2  6  1  0  0  0  0
  2  3  1  0  0  0  0
  2 14  1  0  0  0  0
  3  4  1  0  0  0  0
  3 15  1  0  0  0  0
  3 16  1  0  0  0  0
  4  5  1  0  0  0  0
  4 17  1  0  0  0  0
  4 18  1  0  0  0  0
  5  6  1  0  0  0  0
  5 19  1  0  0  0  0
  5 20  1  0  0  0  0
  6  7  1  0  0  0  0
  6 21  1  0  0  0  0
  7 12  1  0  0  0  0
  7  8  2  0  0  0  0
  8  9  1  0  0  0  0
  8 22  1  0  0  0  0
  9 10  2  0  0  0  0
  9 23  1  0  0  0  0
 10 11  1  0  0  0  0
 10 24  1  0  0  0  0
 11 12  2  0  0  0  0
 12 25  1  0  0  0  0
M  END
> <s_m_source_file>
AV-unprocessed.smi

> <i_m_source_file_index>
2724

> <i_lp_mmshare_version>
43012

> <i_f3d_flags>
0

> <s_epik_input>
W09IXVtDQEBIXTFbQ0gyXVtDSDJdW0NIMl1bQ0BIXTFjMltjSF1bY0hdW2NIXW5bY0hdMg==

> <s_epik_cmdline>
J2VwaWtfcHl0aG9uJywgJy1waCcsICc3LjAnLCAnLXRuJywgJzgnLCAnLW1hJywgJzIwMCcsICctbWV0YWxfYmluZGluZycsICctaW1hZScsICc8aW5maWxlLm1hZT4nLCAnLW9tYWUnLCAnPG91dGZpbGUubWFlPic=

> <r_epik_Ionization_Penalty>
0.0175299

> <r_epik_Ionization_Penalty_Charging>
0

> <r_epik_Ionization_Penalty_Neutral>
0.0175299

> <r_epik_State_Penalty>
0.0138989

> <r_epik_Charging_Adjusted_Penalty>
0.0138989

> <i_epik_Tot_Q>
0

> <i_epik_Tot_abs_Q>
0

> <r_epik_Metal_State_Penalty>
1.40631e-05

> <b_epik_Metal_Only>
0

> <s_lp_Force_Field>
OPLS_2005

> <r_lp_Energy>
23.8775

> <b_lp_Chiralities_Consistent>
1

> <s_lp_Variant>
AV-unprocessed.smi:2724-2

> <Gold.Version>
5.8.1

> <Gold.Id.Protein>
6NUR|6NUR_protein|mol2

> <Gold.PLP.Fitness>
33.0637

> <Gold.PLP.PLP>
-27.5343

> <Gold.PLP.part.hbond>
-2.0000

> <Gold.PLP.part.metal>
0.0000

> <Gold.PLP.part.buried>
-3.4180

> <Gold.PLP.part.nonpolar>
-21.7282

> <Gold.PLP.part.repulsive>
0.0402

> <Gold.PLP.ligand.clash>
0.0000

> <Gold.PLP.ligand.torsion>
0.2241

> <Gold.PLP.Chemscore.Hbond>
0.9920

> <Gold.PLP.Chemscore.CHOScore>
1.0000

> <Gold.PLP.Chemscore.Metal>
0.0000

> <Gold.Chemscore.Hbonds>
donor molecule, donor type, donor heavy atom, donor atom, acceptor molecule, acceptor atom, score
      L1  H     1    13       P1  8028  0.99
      L1  C    12    25       P1  8028  1.00

> <Gold.PLP.Chemscore.Internal.Correction>
0.0015

> <Gold.Rescore>
     Score         DG    S(hbond)    S(metal)    S(lipo)     H(rot)  DE(clash)    DE(int)     intcor
     13.40     -13.94       0.46        0.00      87.96       1.32       0.08       0.46       ----

> <Gold.Chemscore.Fitness>
13.4042

> <Gold.Chemscore.DG>
-13.9409

> <Gold.Chemscore.ZeroCoef>
-5.4800

> <Gold.Chemscore.Hbond>
0.4630

> <Gold.Chemscore.Metal>
0.0000

> <Gold.Chemscore.Lipo>
87.9643

> <Gold.Chemscore.Internal_Hbond>
0.0000

> <Gold.Chemscore.DEClash>
0.0787

> <Gold.Chemscore.DEInternal>
0.4580

> <Gold.Chemscore.Rot>
1.3192

> <Gold.Chemscore.Internal.Correction>
   9.000000E+99

> <Gold.Chemscore.Hbonds>
donor molecule, donor type, donor heavy atom, donor atom, acceptor molecule, acceptor atom, score
      L1  H     1    13       P1  8028  0.24

> <Gold.Chemscore.Hbond.Weighted>
-1.5463

> <Gold.Chemscore.Metal.Weighted>
-0.0000

> <Gold.Chemscore.Lipo.Weighted>
-10.2918

> <Gold.Chemscore.Internal_Hbond.Weighted>
0.0000

> <Gold.Chemscore.DEClash.Weighted>
0.0787

> <Gold.Chemscore.DEInternal.Weighted>
0.4580

> <Gold.Chemscore.Rot.Weighted>
3.3772

> <Gold.Chemscore.Internal.Correction.Weighted>
   9.000000E+99

> <Gold.Protein.RotatedTorsions>
[ 6907 6896 6895 6894 ] final    4.79 input  -60.11 | X-H torsion
[ 7974 7965 7964 7962 ] final   99.08 input  175.53 | X-H torsion
[ 8008 7997 7996 7995 ] final -105.48 input   59.86 | X-H torsion
[ 10167 10162 10161 10158 ] final -139.46 input  -65.29 | X-H torsion
[ 10718 10713 10712 10709 ] final    6.01 input   66.30 | X-H torsion
[ 10763 10752 10751 10750 ] final  -56.17 input  -60.55 | X-H torsion
[ 11005 11000 10999 10996 ] final   -2.51 input  -57.11 | X-H torsion

> <Gold.Protein.ActiveResidues>
 VAL166  LYS551  ARG553  GLY616  TRP617  ASP618  TYR619  PRO620  LYS621  CYS622 
 ASP623  PHE694  ASN695  SER759  ASP760  ASP761  ALA762  ILE779  LEU786  VAL792 
 PHE793  MET794  SER795  GLU796  ALA797  LYS798  CYS799  TRP800  GLU811  SER814 

> <Gold.Protein.RotatedAtoms>
  151.6471  135.1006  160.0152 H   0  0  0  0  0  0  0  0  0  0  0  0  # atno 6907 bound_to 6896
  152.4022  133.6830  159.6334 H   0  0  0  0  0  0  0  0  0  0  0  0  # atno 6908 bound_to 6896
  150.7920  133.8689  159.3294 H   0  0  0  0  0  0  0  0  0  0  0  0  # atno 6909 bound_to 6896
  145.4037  139.2344  143.3286 H   0  0  0  0  0  0  0  0  0  0  0  0  # atno 7974 bound_to 7965
  154.9005  140.0413  157.1890 H   0  0  0  0  0  0  0  0  0  0  0  0  # atno 8008 bound_to 7997
  154.8449  140.2920  155.5614 H   0  0  0  0  0  0  0  0  0  0  0  0  # atno 8009 bound_to 7997
  156.2994  140.2476  156.3397 H   0  0  0  0  0  0  0  0  0  0  0  0  # atno 8010 bound_to 7997
  139.8378  143.7362  152.2664 H   0  0  0  0  0  0  0  0  0  0  0  0  # atno 10167 bound_to 10162
  156.9158  130.5773  149.5647 H   0  0  0  0  0  0  0  0  0  0  0  0  # atno 10718 bound_to 10713
  154.2024  135.6409  153.5091 H   0  0  0  0  0  0  0  0  0  0  0  0  # atno 10763 bound_to 10752
  153.0009  135.5454  154.6301 H   0  0  0  0  0  0  0  0  0  0  0  0  # atno 10764 bound_to 10752
  154.5718  135.2917  155.0793 H   0  0  0  0  0  0  0  0  0  0  0  0  # atno 10765 bound_to 10752
  140.6591  133.9336  155.8425 H   0  0  0  0  0  0  0  0  0  0  0  0  # atno 11005 bound_to 11000
  146.2739  140.4738  142.8803 LP  0  0  0  0  0  0  0  0  0  0  0  0  # atno 17320 bound_to 7965
  144.8356  140.6777  143.6262 LP  0  0  0  0  0  0  0  0  0  0  0  0  # atno 17321 bound_to 7965
  139.7590  144.7512  151.0393 LP  0  0  0  0  0  0  0  0  0  0  0  0  # atno 17342 bound_to 10162
  140.7801  143.4773  151.0065 LP  0  0  0  0  0  0  0  0  0  0  0  0  # atno 17343 bound_to 10162
  156.0514  130.5583  150.8997 LP  0  0  0  0  0  0  0  0  0  0  0  0  # atno 17370 bound_to 10713
  157.5939  131.0943  150.9074 LP  0  0  0  0  0  0  0  0  0  0  0  0  # atno 17371 bound_to 10713
  141.0479  134.0528  157.3821 LP  0  0  0  0  0  0  0  0  0  0  0  0  # atno 17394 bound_to 11000
  139.9019  135.0167  156.7308 LP  0  0  0  0  0  0  0  0  0  0  0  0  # atno 17395 bound_to 11000

$$$$
