AV-unprocessed.smi:2246|AV-procd|sdf|9083|dock1
  -GOLD-   2272012283D 1   1.00000     0.00000
 Structure written by MMmdl.
 29 30  0  0  0  0  0  0  0  0  1 V2000
  150.4957  142.7720  156.7970 O   0  0  0  0  0  0  0  0  0  0  0  0
  151.0561  141.6880  156.9556 C   0  0  0  0  0  0  0  0  0  0  0  0
  151.3095  140.7078  155.8124 C   0  0  2  0  0  0  0  0  0  0  0  0
  150.1288  140.4053  154.9674 N   0  0  0  0  0  0  0  0  0  0  0  0
  149.0329  141.2544  154.9429 C   0  0  0  0  0  0  0  0  0  0  0  0
  147.9252  141.0257  154.1972 C   0  0  0  0  0  0  0  0  0  0  0  0
  146.6021  142.1358  154.2292 Cl  0  0  0  0  0  0  0  0  0  0  0  0
  147.8418  139.8320  153.3580 C   0  0  0  0  0  0  0  0  0  0  0  0
  146.8873  139.5271  152.6456 O   0  0  0  0  0  0  0  0  0  0  0  0
  148.9665  139.0043  153.4067 N   0  0  0  0  0  0  0  0  0  0  0  0
  150.1112  139.2305  154.1709 C   0  0  0  0  0  0  0  0  0  0  0  0
  151.0387  138.4225  154.1243 O   0  0  0  0  0  0  0  0  0  0  0  0
  151.9196  139.4754  156.5104 C   0  0  0  0  0  0  0  0  0  0  0  0
  152.1730  139.9067  157.9639 C   0  0  0  0  0  0  0  0  0  0  0  0
  151.5357  141.2070  158.1077 N   0  0  0  0  0  0  0  0  0  0  0  0
  151.4773  141.8649  159.4114 C   0  0  0  0  0  0  0  0  0  0  0  0
  152.3493  143.1327  159.4690 C   0  0  0  0  0  0  0  0  0  0  0  0
  153.6075  142.8053  159.1778 F   0  0  0  0  0  0  0  0  0  0  0  0
  151.9364  144.0450  158.5895 F   0  0  0  0  0  0  0  0  0  0  0  0
  152.3204  143.6601  160.6930 F   0  0  0  0  0  0  0  0  0  0  0  0
  148.9487  138.1690  152.8397 H   0  0  0  0  0  0  0  0  0  0  0  0
  152.0876  141.1705  155.2031 H   0  0  0  0  0  0  0  0  0  0  0  0
  149.0558  142.1476  155.5510 H   0  0  0  0  0  0  0  0  0  0  0  0
  151.2578  138.6096  156.4902 H   0  0  0  0  0  0  0  0  0  0  0  0
  152.8459  139.1658  156.0254 H   0  0  0  0  0  0  0  0  0  0  0  0
  151.7563  139.1889  158.6716 H   0  0  0  0  0  0  0  0  0  0  0  0
  153.2413  140.0005  158.1631 H   0  0  0  0  0  0  0  0  0  0  0  0
  150.4409  142.1236  159.6318 H   0  0  0  0  0  0  0  0  0  0  0  0
  151.7852  141.1633  160.1884 H   0  0  0  0  0  0  0  0  0  0  0  0
  1  2  2  0  0  0  0
  2 15  1  0  0  0  0
  2  3  1  0  0  0  0
  3  4  1  0  0  0  0
  3 13  1  0  0  0  0
  3 22  1  0  0  0  0
  4 11  1  0  0  0  0
  4  5  1  0  0  0  0
  5  6  2  0  0  0  0
  5 23  1  0  0  0  0
  6  7  1  0  0  0  0
  6  8  1  0  0  0  0
  8  9  2  0  0  0  0
  8 10  1  0  0  0  0
 10 21  1  0  0  0  0
 10 11  1  0  0  0  0
 11 12  2  0  0  0  0
 13 14  1  0  0  0  0
 13 24  1  0  0  0  0
 13 25  1  0  0  0  0
 14 15  1  0  0  0  0
 14 26  1  0  0  0  0
 14 27  1  0  0  0  0
 15 16  1  0  0  0  0
 16 17  1  0  0  0  0
 16 28  1  0  0  0  0
 16 29  1  0  0  0  0
 17 18  1  0  0  0  0
 17 19  1  0  0  0  0
 17 20  1  0  0  0  0
M  END
> <s_m_source_file>
AV-unprocessed.smi

> <i_m_source_file_index>
2246

> <i_lp_mmshare_version>
43012

> <i_f3d_flags>
0

> <s_epik_input>
RkMoRikoRilbQ0gyXU4xW0NIMl1bQ0gyXVtDQEBIXShDMT1PKW4yW2NIXWMoQ2wpYyg9TylbbkhdYzI9Tw==

> <s_epik_cmdline>
J2VwaWtfcHl0aG9uJywgJy1waCcsICc3LjAnLCAnLXRuJywgJzgnLCAnLW1hJywgJzIwMCcsICctbWV0YWxfYmluZGluZycsICctaW1hZScsICc8aW5maWxlLm1hZT4nLCAnLW9tYWUnLCAnPG91dGZpbGUubWFlPic=

> <r_lp_tautomer_probability>
0.999537

> <r_epik_Ionization_Penalty>
0.0656354

> <r_epik_Ionization_Penalty_Charging>
0.0656354

> <r_epik_Ionization_Penalty_Neutral>
1.30579e-10

> <r_epik_State_Penalty>
0.0572525

> <r_epik_Charging_Adjusted_Penalty>
0.122888

> <i_epik_Tot_Q>
0

> <i_epik_Tot_abs_Q>
0

> <r_epik_Metal_State_Penalty>
2.74286

> <b_epik_Metal_Only>
0

> <s_lp_Force_Field>
OPLS_2005

> <r_lp_Energy>
22.3253

> <b_lp_Chiralities_Consistent>
1

> <s_lp_Variant>
AV-unprocessed.smi:2246-2

> <Gold.Version>
5.8.1

> <Gold.Id.Protein>
6NUR|6NUR_protein|mol2

> <Gold.PLP.Fitness>
46.0776

> <Gold.PLP.PLP>
-42.1559

> <Gold.PLP.part.hbond>
-1.6696

> <Gold.PLP.part.metal>
0.0000

> <Gold.PLP.part.buried>
-3.2919

> <Gold.PLP.part.nonpolar>
-39.6963

> <Gold.PLP.part.repulsive>
2.8276

> <Gold.PLP.ligand.clash>
0.0001

> <Gold.PLP.ligand.torsion>
0.6234

> <Gold.PLP.Chemscore.Hbond>
0.7638

> <Gold.PLP.Chemscore.CHOScore>
0.9152

> <Gold.PLP.Chemscore.Metal>
0.0000

> <Gold.Chemscore.Hbonds>
donor molecule, donor type, donor heavy atom, donor atom, acceptor molecule, acceptor atom, score
      L1  H    10    21       P1  7948  0.73
      L1  C     5    23       P1  8028  0.89

> <Gold.PLP.Chemscore.Internal.Correction>
0.1318

> <Gold.Rescore>
     Score         DG    S(hbond)    S(metal)    S(lipo)     H(rot)  DE(clash)    DE(int)     intcor
      4.77     -11.12       0.92        0.00      53.91       1.46       1.58       4.78       ----

> <Gold.Chemscore.Fitness>
4.7662

> <Gold.Chemscore.DG>
-11.1204

> <Gold.Chemscore.ZeroCoef>
-5.4800

> <Gold.Chemscore.Hbond>
0.9219

> <Gold.Chemscore.Metal>
0.0000

> <Gold.Chemscore.Lipo>
53.9076

> <Gold.Chemscore.Internal_Hbond>
0.0000

> <Gold.Chemscore.DEClash>
1.5769

> <Gold.Chemscore.DEInternal>
4.7772

> <Gold.Chemscore.Rot>
1.4632

> <Gold.Chemscore.Internal.Correction>
   9.000000E+99

> <Gold.Chemscore.Hbonds>
donor molecule, donor type, donor heavy atom, donor atom, acceptor molecule, acceptor atom, score
      L1  H    10    21       P1  7948  0.73

> <Gold.Chemscore.Hbond.Weighted>
-3.0790

> <Gold.Chemscore.Metal.Weighted>
-0.0000

> <Gold.Chemscore.Lipo.Weighted>
-6.3072

> <Gold.Chemscore.Internal_Hbond.Weighted>
0.0000

> <Gold.Chemscore.DEClash.Weighted>
1.5769

> <Gold.Chemscore.DEInternal.Weighted>
4.7772

> <Gold.Chemscore.Rot.Weighted>
3.7458

> <Gold.Chemscore.Internal.Correction.Weighted>
   9.000000E+99

> <Gold.Protein.RotatedTorsions>
[ 6907 6896 6895 6894 ] final  111.75 input  -60.11 | X-H torsion
[ 7974 7965 7964 7962 ] final  -56.00 input  175.53 | X-H torsion
[ 8008 7997 7996 7995 ] final  -47.84 input   59.86 | X-H torsion
[ 10167 10162 10161 10158 ] final   38.97 input  -65.29 | X-H torsion
[ 10718 10713 10712 10709 ] final  -82.41 input   66.30 | X-H torsion
[ 10763 10752 10751 10750 ] final   39.73 input  -60.55 | X-H torsion
[ 11005 11000 10999 10996 ] final -130.50 input  -57.11 | X-H torsion

> <Gold.Protein.ActiveResidues>
 VAL166  LYS551  ARG553  GLY616  TRP617  ASP618  TYR619  PRO620  LYS621  CYS622 
 ASP623  PHE694  ASN695  SER759  ASP760  ASP761  ALA762  ILE779  LEU786  VAL792 
 PHE793  MET794  SER795  GLU796  ALA797  LYS798  CYS799  TRP800  GLU811  SER814 

> <Gold.Protein.RotatedAtoms>
  152.4953  133.8614  159.7251 H   0  0  0  0  0  0  0  0  0  0  0  0  # atno 6907 bound_to 6896
  150.9125  133.6971  159.2858 H   0  0  0  0  0  0  0  0  0  0  0  0  # atno 6908 bound_to 6896
  151.4376  135.1021  159.9713 H   0  0  0  0  0  0  0  0  0  0  0  0  # atno 6909 bound_to 6896
  145.8677  140.8239  142.9904 H   0  0  0  0  0  0  0  0  0  0  0  0  # atno 7974 bound_to 7965
  154.4021  140.1336  156.4241 H   0  0  0  0  0  0  0  0  0  0  0  0  # atno 8008 bound_to 7997
  155.7614  140.3486  155.5180 H   0  0  0  0  0  0  0  0  0  0  0  0  # atno 8009 bound_to 7997
  155.8855  140.0994  157.1446 H   0  0  0  0  0  0  0  0  0  0  0  0  # atno 8010 bound_to 7997
  140.3885  144.1884  150.6130 H   0  0  0  0  0  0  0  0  0  0  0  0  # atno 10167 bound_to 10162
  156.0033  130.4633  150.4101 H   0  0  0  0  0  0  0  0  0  0  0  0  # atno 10718 bound_to 10713
  152.9958  135.6212  154.2512 H   0  0  0  0  0  0  0  0  0  0  0  0  # atno 10763 bound_to 10752
  154.2251  135.2794  155.2912 H   0  0  0  0  0  0  0  0  0  0  0  0  # atno 10764 bound_to 10752
  154.5496  135.5737  153.6969 H   0  0  0  0  0  0  0  0  0  0  0  0  # atno 10765 bound_to 10752
  140.9341  134.1281  157.4209 H   0  0  0  0  0  0  0  0  0  0  0  0  # atno 11005 bound_to 11000
  144.6726  140.1191  143.7451 LP  0  0  0  0  0  0  0  0  0  0  0  0  # atno 17320 bound_to 7965
  145.9174  139.2524  143.1402 LP  0  0  0  0  0  0  0  0  0  0  0  0  # atno 17321 bound_to 7965
  140.4864  143.2362  151.8882 LP  0  0  0  0  0  0  0  0  0  0  0  0  # atno 17342 bound_to 10162
  139.4790  144.5214  151.8796 LP  0  0  0  0  0  0  0  0  0  0  0  0  # atno 17343 bound_to 10162
  157.2164  131.0472  151.2571 LP  0  0  0  0  0  0  0  0  0  0  0  0  # atno 17370 bound_to 10713
  157.3841  130.7247  149.6651 LP  0  0  0  0  0  0  0  0  0  0  0  0  # atno 17371 bound_to 10713
  139.8803  135.0015  156.6070 LP  0  0  0  0  0  0  0  0  0  0  0  0  # atno 17394 bound_to 11000
  140.7823  133.8649  155.8578 LP  0  0  0  0  0  0  0  0  0  0  0  0  # atno 17395 bound_to 11000

$$$$
