AV-unprocessed.smi:3150|AV-procd|sdf|12009|dock3
  -GOLD-   2272017413D 1   1.00000     0.00000
 Structure written by MMmdl.
 33 34  0  0  0  0  0  0  0  0  3 V2000
  151.6303  138.5376  154.5701 C   0  0  0  0  0  0  0  0  0  0  0  0
  150.6993  139.5272  155.2860 C   0  0  2  0  0  0  0  0  0  0  0  0
  150.1019  140.3509  154.2882 O   0  0  0  0  0  0  0  0  0  0  0  0
  148.6970  140.1965  154.1297 C   0  0  0  0  0  0  0  0  0  0  0  0
  148.0299  141.5294  154.3911 C   0  0  0  0  0  0  0  0  0  0  0  0
  146.9686  141.6663  155.4595 C   0  0  0  0  0  0  0  0  0  0  0  0
  146.5850  141.7487  154.0039 C   0  0  0  0  0  0  0  0  0  0  0  0
  151.4739  140.3865  156.2979 C   0  0  0  0  0  0  0  0  0  0  0  0
  152.6394  140.1001  156.5760 O   0  0  0  0  0  0  0  0  0  0  0  0
  150.7999  141.4327  156.8106 N   0  0  0  0  0  0  0  0  0  0  0  0
  151.2388  142.3974  157.7592 C   0  0  0  0  0  0  0  0  0  0  0  0
  150.9215  143.7122  157.6525 N   0  3  0  0  0  0  0  0  0  0  0  0
  151.3236  144.6521  158.5349 C   0  0  0  0  0  0  0  0  0  0  0  0
  152.1169  144.2829  159.6380 C   0  0  0  0  0  0  0  0  0  0  0  0
  152.4749  142.9298  159.7982 C   0  0  0  0  0  0  0  0  0  0  0  0
  152.0336  141.9785  158.8539 C   0  0  0  0  0  0  0  0  0  0  0  0
  152.3817  140.6658  159.0100 O   0  5  0  0  0  0  0  0  0  0  0  0
  152.1294  137.8775  155.2804 H   0  0  0  0  0  0  0  0  0  0  0  0
  152.3993  139.0532  153.9935 H   0  0  0  0  0  0  0  0  0  0  0  0
  151.0677  137.9103  153.8786 H   0  0  0  0  0  0  0  0  0  0  0  0
  149.9208  138.9574  155.7974 H   0  0  0  0  0  0  0  0  0  0  0  0
  148.4631  139.8812  153.1121 H   0  0  0  0  0  0  0  0  0  0  0  0
  148.2957  139.4478  154.8138 H   0  0  0  0  0  0  0  0  0  0  0  0
  148.6891  142.3847  154.2546 H   0  0  0  0  0  0  0  0  0  0  0  0
  146.6789  140.7706  156.0054 H   0  0  0  0  0  0  0  0  0  0  0  0
  146.9548  142.5885  156.0368 H   0  0  0  0  0  0  0  0  0  0  0  0
  146.3144  142.7260  153.6092 H   0  0  0  0  0  0  0  0  0  0  0  0
  146.0388  140.9079  153.5811 H   0  0  0  0  0  0  0  0  0  0  0  0
  149.8488  141.5538  156.4925 H   0  0  0  0  0  0  0  0  0  0  0  0
  150.9999  145.6626  158.3324 H   0  0  0  0  0  0  0  0  0  0  0  0
  152.4458  145.0244  160.3509 H   0  0  0  0  0  0  0  0  0  0  0  0
  153.0827  142.6263  160.6383 H   0  0  0  0  0  0  0  0  0  0  0  0
  150.3478  144.0050  156.8609 H   0  0  0  0  0  0  0  0  0  0  0  0
  1  2  1  0  0  0  0
  1 18  1  0  0  0  0
  1 19  1  0  0  0  0
  1 20  1  0  0  0  0
  2  3  1  0  0  0  0
  2  8  1  0  0  0  0
  2 21  1  0  0  0  0
  3  4  1  0  0  0  0
  4  5  1  0  0  0  0
  4 22  1  0  0  0  0
  4 23  1  0  0  0  0
  5  7  1  0  0  0  0
  5  6  1  0  0  0  0
  5 24  1  0  0  0  0
  6  7  1  0  0  0  0
  6 25  1  0  0  0  0
  6 26  1  0  0  0  0
  7 27  1  0  0  0  0
  7 28  1  0  0  0  0
  8  9  2  0  0  0  0
  8 10  1  0  0  0  0
 10 29  1  0  0  0  0
 10 11  1  0  0  0  0
 11 16  2  0  0  0  0
 11 12  1  0  0  0  0
 12 33  1  0  0  0  0
 12 13  2  0  0  0  0
 13 30  1  0  0  0  0
 13 14  1  0  0  0  0
 14 31  1  0  0  0  0
 14 15  2  0  0  0  0
 15 16  1  0  0  0  0
 15 32  1  0  0  0  0
 16 17  1  0  0  0  0
M  CHG  1  12   1
M  CHG  1  17  -1
M  END
> <s_m_source_file>
AV-unprocessed.smi

> <i_m_source_file_index>
3150

> <i_lp_mmshare_version>
43012

> <i_f3d_flags>
0

> <s_epik_input>
W0NIMl0xW0NIMl1bQ0hdMVtDSDJdT1tDQEBIXShbQ0gzXSlDKD1PKVtOSF1jMm5bY0hdW2NIXVtjSF1jMltPSF0=

> <s_epik_cmdline>
J2VwaWtfcHl0aG9uJywgJy1waCcsICc3LjAnLCAnLXRuJywgJzgnLCAnLW1hJywgJzIwMCcsICctbWV0YWxfYmluZGluZycsICctaW1hZScsICc8aW5maWxlLm1hZT4nLCAnLW9tYWUnLCAnPG91dGZpbGUubWFlPic=

> <r_lp_tautomer_probability>
0.56342

> <r_epik_Ionization_Penalty>
0.213151

> <r_epik_Ionization_Penalty_Charging>
0.0249427

> <r_epik_Ionization_Penalty_Neutral>
0.188209

> <r_epik_State_Penalty>
0.538305

> <r_epik_Charging_Adjusted_Penalty>
0.563248

> <i_epik_Tot_Q>
0

> <i_epik_Tot_abs_Q>
2

> <r_epik_Metal_State_Penalty>
2.57454

> <b_epik_Metal_Only>
0

> <s_lp_Force_Field>
OPLS_2005

> <r_lp_Energy>
15.508

> <b_lp_Chiralities_Consistent>
1

> <s_lp_Variant>
AV-unprocessed.smi:3150-3

> <Gold.Version>
5.8.1

> <Gold.Id.Protein>
6NUR|6NUR_protein|mol2

> <Gold.PLP.Fitness>
49.1343

> <Gold.PLP.PLP>
-40.2807

> <Gold.PLP.part.hbond>
-3.0000

> <Gold.PLP.part.metal>
0.0000

> <Gold.PLP.part.buried>
-4.6902

> <Gold.PLP.part.nonpolar>
-32.9810

> <Gold.PLP.part.repulsive>
0.1994

> <Gold.PLP.ligand.clash>
0.0000

> <Gold.PLP.ligand.torsion>
2.0267

> <Gold.PLP.Chemscore.Hbond>
3.9120

> <Gold.PLP.Chemscore.CHOScore>
0.0000

> <Gold.PLP.Chemscore.Metal>
0.0000

> <Gold.Chemscore.Hbonds>
donor molecule, donor type, donor heavy atom, donor atom, acceptor molecule, acceptor atom, score
      L1  H    12    33       P1  8028  2.00
      P1  H  7989  7998       L1     3  0.82
      P1  H  7997  8008       L1     9  1.00

> <Gold.PLP.Chemscore.Internal.Correction>
1.1710

> <Gold.Rescore>
     Score         DG    S(hbond)    S(metal)    S(lipo)     H(rot)  DE(clash)    DE(int)     intcor
     14.95     -20.49       2.67        0.00      89.02       1.68       0.06       5.48       ----

> <Gold.Chemscore.Fitness>
14.9522

> <Gold.Chemscore.DG>
-20.4873

> <Gold.Chemscore.ZeroCoef>
-5.4800

> <Gold.Chemscore.Hbond>
2.6651

> <Gold.Chemscore.Metal>
0.0000

> <Gold.Chemscore.Lipo>
89.0186

> <Gold.Chemscore.Internal_Hbond>
0.0000

> <Gold.Chemscore.DEClash>
0.0579

> <Gold.Chemscore.DEInternal>
5.4772

> <Gold.Chemscore.Rot>
1.6833

> <Gold.Chemscore.Internal.Correction>
   9.000000E+99

> <Gold.Chemscore.Hbonds>
donor molecule, donor type, donor heavy atom, donor atom, acceptor molecule, acceptor atom, score
      L1  H    12    33       P1  8028  0.95
      P1  H  7989  7998       L1     3  0.16
      P1  H  7997  8008       L1     9  0.98

> <Gold.Chemscore.Hbond.Weighted>
-8.9015

> <Gold.Chemscore.Metal.Weighted>
-0.0000

> <Gold.Chemscore.Lipo.Weighted>
-10.4152

> <Gold.Chemscore.Internal_Hbond.Weighted>
0.0000

> <Gold.Chemscore.DEClash.Weighted>
0.0579

> <Gold.Chemscore.DEInternal.Weighted>
5.4772

> <Gold.Chemscore.Rot.Weighted>
4.3094

> <Gold.Chemscore.Internal.Correction.Weighted>
   9.000000E+99

> <Gold.Protein.RotatedTorsions>
[ 6907 6896 6895 6894 ] final    3.42 input  -60.11 | X-H torsion
[ 7974 7965 7964 7962 ] final  128.77 input  175.53 | X-H torsion
[ 8008 7997 7996 7995 ] final  -57.13 input   59.86 | X-H torsion
[ 10167 10162 10161 10158 ] final  -35.09 input  -65.29 | X-H torsion
[ 10718 10713 10712 10709 ] final  -79.64 input   66.30 | X-H torsion
[ 10763 10752 10751 10750 ] final   87.46 input  -60.55 | X-H torsion
[ 11005 11000 10999 10996 ] final  164.40 input  -57.11 | X-H torsion

> <Gold.Protein.ActiveResidues>
 VAL166  LYS551  ARG553  GLY616  TRP617  ASP618  TYR619  PRO620  LYS621  CYS622 
 ASP623  PHE694  ASN695  SER759  ASP760  ASP761  ALA762  ILE779  LEU786  VAL792 
 PHE793  MET794  SER795  GLU796  ALA797  LYS798  CYS799  TRP800  GLU811  SER814 

> <Gold.Protein.RotatedAtoms>
  151.6248  135.1028  160.0109 H   0  0  0  0  0  0  0  0  0  0  0  0  # atno 6907 bound_to 6896
  152.4138  133.7001  159.6429 H   0  0  0  0  0  0  0  0  0  0  0  0  # atno 6908 bound_to 6896
  150.8027  133.8494  159.3242 H   0  0  0  0  0  0  0  0  0  0  0  0  # atno 6909 bound_to 6896
  145.0359  139.4005  143.5126 H   0  0  0  0  0  0  0  0  0  0  0  0  # atno 7974 bound_to 7965
  154.4256  140.1114  156.5747 H   0  0  0  0  0  0  0  0  0  0  0  0  # atno 8008 bound_to 7997
  155.6175  140.3495  155.4622 H   0  0  0  0  0  0  0  0  0  0  0  0  # atno 8009 bound_to 7997
  156.0051  140.1207  157.0499 H   0  0  0  0  0  0  0  0  0  0  0  0  # atno 8010 bound_to 7997
  140.7172  143.3502  151.2172 H   0  0  0  0  0  0  0  0  0  0  0  0  # atno 10167 bound_to 10162
  156.0088  130.4551  150.3679 H   0  0  0  0  0  0  0  0  0  0  0  0  # atno 10718 bound_to 10713
  153.1670  135.4543  154.9851 H   0  0  0  0  0  0  0  0  0  0  0  0  # atno 10763 bound_to 10752
  154.7939  135.3230  154.7715 H   0  0  0  0  0  0  0  0  0  0  0  0  # atno 10764 bound_to 10752
  153.8197  135.6948  153.4883 H   0  0  0  0  0  0  0  0  0  0  0  0  # atno 10765 bound_to 10752
  140.2455  134.8017  157.3452 H   0  0  0  0  0  0  0  0  0  0  0  0  # atno 11005 bound_to 11000
  146.3504  139.9934  142.8683 LP  0  0  0  0  0  0  0  0  0  0  0  0  # atno 17320 bound_to 7965
  145.1710  140.9721  143.4321 LP  0  0  0  0  0  0  0  0  0  0  0  0  # atno 17321 bound_to 7965
  139.7031  143.9500  152.2914 LP  0  0  0  0  0  0  0  0  0  0  0  0  # atno 17342 bound_to 10162
  139.9200  144.6805  150.8471 LP  0  0  0  0  0  0  0  0  0  0  0  0  # atno 17343 bound_to 10162
  157.1765  131.0381  151.2770 LP  0  0  0  0  0  0  0  0  0  0  0  0  # atno 17370 bound_to 10713
  157.4184  130.7423  149.6893 LP  0  0  0  0  0  0  0  0  0  0  0  0  # atno 17371 bound_to 10713
  140.1610  134.4729  155.7895 LP  0  0  0  0  0  0  0  0  0  0  0  0  # atno 17394 bound_to 11000
  141.2206  133.6901  156.7544 LP  0  0  0  0  0  0  0  0  0  0  0  0  # atno 17395 bound_to 11000

$$$$
