AV-unprocessed.smi:2159|AV-procd|sdf|8794|dock1
  -GOLD-   2272011573D 1   1.00000     0.00000
 Structure written by MMmdl.
 48 50  0  0  0  0  0  0  0  0  2 V2000
  148.9204  141.3962  153.8298 O   0  0  0  0  0  0  0  0  0  0  0  0
  149.1818  140.2011  153.9711 C   0  0  0  0  0  0  0  0  0  0  0  0
  150.5520  139.7598  154.4931 C   0  0  0  0  0  0  0  0  0  0  0  0
  150.5147  139.3060  155.9662 C   0  0  0  0  0  0  0  0  0  0  0  0
  150.8687  140.4030  156.8702 N   0  0  0  0  0  0  0  0  0  0  0  0
  151.9354  140.3944  157.6921 C   0  0  0  0  0  0  0  0  0  0  0  0
  152.8186  139.5400  157.7568 O   0  0  0  0  0  0  0  0  0  0  0  0
  151.8528  141.5995  158.6172 C   0  0  1  0  0  0  0  0  0  0  0  0
  153.0928  142.3475  159.1090 C   0  0  0  0  0  0  0  0  0  0  0  0
  152.5906  143.4925  160.0284 C   0  0  0  0  0  0  0  0  0  0  0  0
  151.4738  144.3724  159.3926 C   0  0  0  0  0  0  0  0  0  0  0  0
  150.3279  143.5589  158.7343 C   0  0  0  0  0  0  0  0  0  0  0  0
  150.9876  142.5411  157.8029 C   0  0  2  0  0  0  0  0  0  0  0  0
  150.1854  141.5601  156.9609 C   0  0  0  0  0  0  0  0  0  0  0  0
  149.1245  141.8442  156.4056 O   0  0  0  0  0  0  0  0  0  0  0  0
  148.3128  139.2220  153.6753 N   0  0  0  0  0  0  0  0  0  0  0  0
  146.9645  139.4331  153.1617 C   0  0  0  0  0  0  0  0  0  0  0  0
  146.7369  138.6757  151.8424 C   0  0  0  0  0  0  0  0  0  0  0  0
  145.6838  137.5934  151.9749 C   0  0  0  0  0  0  0  0  0  0  0  0
  145.9197  136.2592  151.5776 C   0  0  0  0  0  0  0  0  0  0  0  0
  144.8938  135.3033  151.7323 C   0  0  0  0  0  0  0  0  0  0  0  0
  143.6566  135.7006  152.2807 C   0  0  0  0  0  0  0  0  0  0  0  0
  143.4761  137.0459  152.6622 C   0  0  0  0  0  0  0  0  0  0  0  0
  144.4831  137.9319  152.4983 N   0  3  0  0  0  0  0  0  0  0  0  0
  150.9316  138.9487  153.8697 H   0  0  0  0  0  0  0  0  0  0  0  0
  151.2445  140.5941  154.3769 H   0  0  0  0  0  0  0  0  0  0  0  0
  149.5232  138.9288  156.2236 H   0  0  0  0  0  0  0  0  0  0  0  0
  151.1976  138.4676  156.1172 H   0  0  0  0  0  0  0  0  0  0  0  0
  151.3029  141.2483  159.4935 H   0  0  0  0  0  0  0  0  0  0  0  0
  153.7556  141.6800  159.6605 H   0  0  0  0  0  0  0  0  0  0  0  0
  153.6642  142.7475  158.2704 H   0  0  0  0  0  0  0  0  0  0  0  0
  152.2021  143.0545  160.9486 H   0  0  0  0  0  0  0  0  0  0  0  0
  153.4299  144.1206  160.3281 H   0  0  0  0  0  0  0  0  0  0  0  0
  151.0628  145.0478  160.1433 H   0  0  0  0  0  0  0  0  0  0  0  0
  151.9278  145.0108  158.6337 H   0  0  0  0  0  0  0  0  0  0  0  0
  149.7246  143.0583  159.4927 H   0  0  0  0  0  0  0  0  0  0  0  0
  149.6622  144.2202  158.1787 H   0  0  0  0  0  0  0  0  0  0  0  0
  151.6035  143.0912  157.0875 H   0  0  0  0  0  0  0  0  0  0  0  0
  148.6056  138.2661  153.8199 H   0  0  0  0  0  0  0  0  0  0  0  0
  146.2542  139.0903  153.9146 H   0  0  0  0  0  0  0  0  0  0  0  0
  146.7837  140.5011  153.0286 H   0  0  0  0  0  0  0  0  0  0  0  0
  146.4262  139.3656  151.0564 H   0  0  0  0  0  0  0  0  0  0  0  0
  147.6718  138.2271  151.5034 H   0  0  0  0  0  0  0  0  0  0  0  0
  146.8733  135.9695  151.1601 H   0  0  0  0  0  0  0  0  0  0  0  0
  145.0541  134.2777  151.4335 H   0  0  0  0  0  0  0  0  0  0  0  0
  142.8583  134.9837  152.4073 H   0  0  0  0  0  0  0  0  0  0  0  0
  142.5644  137.4373  153.0896 H   0  0  0  0  0  0  0  0  0  0  0  0
  144.3312  138.9005  152.7813 H   0  0  0  0  0  0  0  0  0  0  0  0
  1  2  2  0  0  0  0
  2  3  1  0  0  0  0
  2 16  1  0  0  0  0
  3  4  1  0  0  0  0
  3 25  1  0  0  0  0
  3 26  1  0  0  0  0
  4  5  1  0  0  0  0
  4 27  1  0  0  0  0
  4 28  1  0  0  0  0
  5 14  1  0  0  0  0
  5  6  1  0  0  0  0
  6  7  2  0  0  0  0
  6  8  1  0  0  0  0
  8 13  1  0  0  0  0
  8  9  1  0  0  0  0
  8 29  1  0  0  0  0
  9 10  1  0  0  0  0
  9 30  1  0  0  0  0
  9 31  1  0  0  0  0
 10 11  1  0  0  0  0
 10 32  1  0  0  0  0
 10 33  1  0  0  0  0
 11 12  1  0  0  0  0
 11 34  1  0  0  0  0
 11 35  1  0  0  0  0
 12 13  1  0  0  0  0
 12 36  1  0  0  0  0
 12 37  1  0  0  0  0
 13 14  1  0  0  0  0
 13 38  1  0  0  0  0
 14 15  2  0  0  0  0
 16 17  1  0  0  0  0
 16 39  1  0  0  0  0
 17 18  1  0  0  0  0
 17 40  1  0  0  0  0
 17 41  1  0  0  0  0
 18 19  1  0  0  0  0
 18 42  1  0  0  0  0
 18 43  1  0  0  0  0
 19 24  1  0  0  0  0
 19 20  2  0  0  0  0
 20 21  1  0  0  0  0
 20 44  1  0  0  0  0
 21 22  2  0  0  0  0
 21 45  1  0  0  0  0
 22 23  1  0  0  0  0
 22 46  1  0  0  0  0
 23 24  2  0  0  0  0
 23 47  1  0  0  0  0
 24 48  1  0  0  0  0
M  CHG  1  24   1
M  END
> <s_m_source_file>
AV-unprocessed.smi

> <i_m_source_file_index>
2159

> <i_lp_mmshare_version>
43012

> <i_f3d_flags>
0

> <s_epik_input>
bjFbY0hdW2NIXVtjSF1bY0hdYzFbQ0gyXVtDSDJdW05IXUMoPU8pW0NIMl1bQ0gyXU4oQzI9TylDKD1PKVtDQEhdKFtDQEBIXTIzKVtDSDJdW0NIMl1bQ0gyXVtDSDJdMw==

> <s_epik_cmdline>
J2VwaWtfcHl0aG9uJywgJy1waCcsICc3LjAnLCAnLXRuJywgJzgnLCAnLW1hJywgJzIwMCcsICctbWV0YWxfYmluZGluZycsICctaW1hZScsICc8aW5maWxlLm1hZT4nLCAnLW9tYWUnLCAnPG91dGZpbGUubWFlPic=

> <r_lp_tautomer_probability>
1

> <r_epik_Ionization_Penalty>
1.85146

> <r_epik_Ionization_Penalty_Charging>
1.85146

> <r_epik_Ionization_Penalty_Neutral>
2.95922e-08

> <r_epik_State_Penalty>
1.96899

> <r_epik_Charging_Adjusted_Penalty>
3.82044

> <i_epik_Tot_Q>
1

> <i_epik_Tot_abs_Q>
1

> <r_epik_Metal_State_Penalty>
1.99467

> <b_epik_Metal_Only>
0

> <s_lp_Force_Field>
OPLS_2005

> <r_lp_Energy>
36.2537

> <b_lp_Chiralities_Consistent>
1

> <s_lp_Variant>
AV-unprocessed.smi:2159-4

> <Gold.Version>
5.8.1

> <Gold.Id.Protein>
6NUR|6NUR_protein|mol2

> <Gold.PLP.Fitness>
55.9938

> <Gold.PLP.PLP>
-46.2813

> <Gold.PLP.part.hbond>
-5.3615

> <Gold.PLP.part.metal>
0.0000

> <Gold.PLP.part.buried>
3.0379

> <Gold.PLP.part.nonpolar>
-45.1145

> <Gold.PLP.part.repulsive>
1.9590

> <Gold.PLP.ligand.clash>
0.0000

> <Gold.PLP.ligand.torsion>
0.8861

> <Gold.PLP.Chemscore.Hbond>
3.7840

> <Gold.PLP.Chemscore.CHOScore>
0.0000

> <Gold.PLP.Chemscore.Metal>
0.0000

> <Gold.Chemscore.Hbonds>
donor molecule, donor type, donor heavy atom, donor atom, acceptor molecule, acceptor atom, score
      L1  H    24    48       P1 10175  1.95
      P1  H  7997  8010       L1     7  1.00
      P1  H  8011  8017       L1     1  0.77

> <Gold.PLP.Chemscore.Internal.Correction>
0.1328

> <Gold.Rescore>
     Score         DG    S(hbond)    S(metal)    S(lipo)     H(rot)  DE(clash)    DE(int)     intcor
     19.00     -20.40       2.47        0.00     102.93       2.10       0.40       1.00       ----

> <Gold.Chemscore.Fitness>
18.9966

> <Gold.Chemscore.DG>
-20.4010

> <Gold.Chemscore.ZeroCoef>
-5.4800

> <Gold.Chemscore.Hbond>
2.4683

> <Gold.Chemscore.Metal>
0.0000

> <Gold.Chemscore.Lipo>
102.9263

> <Gold.Chemscore.Internal_Hbond>
0.0000

> <Gold.Chemscore.DEClash>
0.4048

> <Gold.Chemscore.DEInternal>
0.9996

> <Gold.Chemscore.Rot>
2.0959

> <Gold.Chemscore.Internal.Correction>
   9.000000E+99

> <Gold.Chemscore.Hbonds>
donor molecule, donor type, donor heavy atom, donor atom, acceptor molecule, acceptor atom, score
      L1  H    24    48       P1 10175  0.93
      P1  H  7997  8010       L1     7  0.91
      P1  H  8011  8017       L1     1  0.72

> <Gold.Chemscore.Hbond.Weighted>
-8.2441

> <Gold.Chemscore.Metal.Weighted>
-0.0000

> <Gold.Chemscore.Lipo.Weighted>
-12.0424

> <Gold.Chemscore.Internal_Hbond.Weighted>
0.0000

> <Gold.Chemscore.DEClash.Weighted>
0.4048

> <Gold.Chemscore.DEInternal.Weighted>
0.9996

> <Gold.Chemscore.Rot.Weighted>
5.3655

> <Gold.Chemscore.Internal.Correction.Weighted>
   9.000000E+99

> <Gold.Protein.RotatedTorsions>
[ 6907 6896 6895 6894 ] final  126.95 input  -60.11 | X-H torsion
[ 7974 7965 7964 7962 ] final  -31.14 input  175.53 | X-H torsion
[ 8008 7997 7996 7995 ] final   36.02 input   59.86 | X-H torsion
[ 10167 10162 10161 10158 ] final  -44.25 input  -65.29 | X-H torsion
[ 10718 10713 10712 10709 ] final   71.97 input   66.30 | X-H torsion
[ 10763 10752 10751 10750 ] final  -12.23 input  -60.55 | X-H torsion
[ 11005 11000 10999 10996 ] final  104.08 input  -57.11 | X-H torsion

> <Gold.Protein.ActiveResidues>
 VAL166  LYS551  ARG553  GLY616  TRP617  ASP618  TYR619  PRO620  LYS621  CYS622 
 ASP623  PHE694  ASN695  SER759  ASP760  ASP761  ALA762  ILE779  LEU786  VAL792 
 PHE793  MET794  SER795  GLU796  ALA797  LYS798  CYS799  TRP800  GLU811  SER814 

> <Gold.Protein.RotatedAtoms>
  152.3857  133.6607  159.6196 H   0  0  0  0  0  0  0  0  0  0  0  0  # atno 6907 bound_to 6896
  150.7776  133.9040  159.3358 H   0  0  0  0  0  0  0  0  0  0  0  0  # atno 6908 bound_to 6896
  151.6837  135.0959  160.0272 H   0  0  0  0  0  0  0  0  0  0  0  0  # atno 6909 bound_to 6896
  146.1090  140.5630  142.8786 H   0  0  0  0  0  0  0  0  0  0  0  0  # atno 7974 bound_to 7965
  155.1805  140.3299  155.4376 H   0  0  0  0  0  0  0  0  0  0  0  0  # atno 8008 bound_to 7997
  156.2478  140.1927  156.6854 H   0  0  0  0  0  0  0  0  0  0  0  0  # atno 8009 bound_to 7997
  154.6274  140.0587  156.9676 H   0  0  0  0  0  0  0  0  0  0  0  0  # atno 8010 bound_to 7997
  140.6904  143.2940  151.3468 H   0  0  0  0  0  0  0  0  0  0  0  0  # atno 10167 bound_to 10162
  157.6478  130.9555  150.0864 H   0  0  0  0  0  0  0  0  0  0  0  0  # atno 10718 bound_to 10713
  153.4954  135.7017  153.5861 H   0  0  0  0  0  0  0  0  0  0  0  0  # atno 10763 bound_to 10752
  153.4016  135.3870  155.1991 H   0  0  0  0  0  0  0  0  0  0  0  0  # atno 10764 bound_to 10752
  154.8714  135.3883  154.4418 H   0  0  0  0  0  0  0  0  0  0  0  0  # atno 10765 bound_to 10752
  139.8789  134.9287  156.5307 H   0  0  0  0  0  0  0  0  0  0  0  0  # atno 11005 bound_to 11000
  144.7495  140.5154  143.6812 LP  0  0  0  0  0  0  0  0  0  0  0  0  # atno 17320 bound_to 7965
  145.5703  139.1483  143.3292 LP  0  0  0  0  0  0  0  0  0  0  0  0  # atno 17321 bound_to 7965
  139.6301  144.0738  152.2468 LP  0  0  0  0  0  0  0  0  0  0  0  0  # atno 17342 bound_to 10162
  140.0210  144.6153  150.7567 LP  0  0  0  0  0  0  0  0  0  0  0  0  # atno 17343 bound_to 10162
  156.1825  130.3651  149.9016 LP  0  0  0  0  0  0  0  0  0  0  0  0  # atno 17370 bound_to 10713
  156.6964  130.8916  151.3594 LP  0  0  0  0  0  0  0  0  0  0  0  0  # atno 17371 bound_to 10713
  140.8383  133.8225  155.9050 LP  0  0  0  0  0  0  0  0  0  0  0  0  # atno 17394 bound_to 11000
  140.9262  134.2079  157.4894 LP  0  0  0  0  0  0  0  0  0  0  0  0  # atno 17395 bound_to 11000

$$$$
