AV-unprocessed.smi:112|AV-procd|sdf|1085|dock4
  -GOLD-   2262018183D 1   1.00000     0.00000
 Structure written by MMmdl.
 54 57  0  0  0  0  0  0  0  0  3 V2000
  148.6593  137.5115  158.8874 C   0  0  0  0  0  0  0  0  0  0  0  0
  149.7729  137.9948  157.9716 C   0  0  0  0  0  0  0  0  0  0  0  0
  149.5196  138.6670  156.8250 C   0  0  0  0  0  0  0  0  0  0  0  0
  150.5095  139.1220  155.9723 N   0  0  0  0  0  0  0  0  0  0  0  0
  150.1914  139.8991  154.7136 C   0  0  2  0  0  0  0  0  0  0  0  0
  149.6005  141.2724  155.0691 C   0  0  0  0  0  0  0  0  0  0  0  0
  148.4762  141.4128  154.0622 C   0  0  2  0  0  0  0  0  0  0  0  0
  147.4502  142.2462  154.5611 O   0  0  0  0  0  0  0  0  0  0  0  0
  148.0286  139.9570  153.9160 C   0  0  1  0  0  0  0  0  0  0  0  0
  147.2052  139.5976  152.6672 C   0  0  0  0  0  0  0  0  0  0  0  0
  147.0004  138.2050  152.5531 O   0  0  0  0  0  0  0  0  0  0  0  0
  149.2377  139.2073  153.9584 O   0  0  0  0  0  0  0  0  0  0  0  0
  151.8630  138.9043  156.2964 C   0  0  0  0  0  0  0  0  0  0  0  0
  152.7614  139.3313  155.5673 O   0  0  0  0  0  0  0  0  0  0  0  0
  152.1617  138.1970  157.4824 N   0  0  0  0  0  0  0  0  0  0  0  0
  153.5834  137.9802  157.8339 C   0  0  0  0  0  0  0  0  0  0  0  0
  153.9600  138.4901  159.2429 C   0  0  0  0  0  0  0  0  0  0  0  0
  154.6515  137.7744  159.9685 O   0  0  0  0  0  0  0  0  0  0  0  0
  153.5137  139.7158  159.6147 N   0  0  0  0  0  0  0  0  0  0  0  0
  152.6974  140.5818  158.7460 C   0  0  0  0  0  0  0  0  0  0  0  0
  152.4477  141.8822  159.5402 C   0  0  0  0  0  0  0  0  0  0  0  0
  153.1382  141.6198  160.8456 C   0  0  0  0  0  0  0  0  0  0  0  0
  153.2018  142.4864  161.9495 C   0  0  0  0  0  0  0  0  0  0  0  0
  153.9050  142.0703  163.1071 C   0  0  0  0  0  0  0  0  0  0  0  0
  153.9938  142.9551  164.2857 N   0  3  0  0  0  0  0  0  0  0  0  0
  154.5892  142.5460  165.2773 O   0  0  0  0  0  0  0  0  0  0  0  0
  153.4682  144.0619  164.2217 O   0  5  0  0  0  0  0  0  0  0  0  0
  154.5226  140.7913  163.1169 C   0  0  0  0  0  0  0  0  0  0  0  0
  154.4477  139.9324  161.9985 C   0  0  0  0  0  0  0  0  0  0  0  0
  153.7426  140.3681  160.8555 C   0  0  0  0  0  0  0  0  0  0  0  0
  151.1584  137.7234  158.3630 C   0  0  0  0  0  0  0  0  0  0  0  0
  151.4618  137.1287  159.3990 O   0  0  0  0  0  0  0  0  0  0  0  0
  147.6728  137.7524  158.4902 H   0  0  0  0  0  0  0  0  0  0  0  0
  148.7460  137.9772  159.8696 H   0  0  0  0  0  0  0  0  0  0  0  0
  148.7105  136.4295  159.0145 H   0  0  0  0  0  0  0  0  0  0  0  0
  148.4860  138.8556  156.5786 H   0  0  0  0  0  0  0  0  0  0  0  0
  151.1160  139.9495  154.1361 H   0  0  0  0  0  0  0  0  0  0  0  0
  149.2071  141.2467  156.0874 H   0  0  0  0  0  0  0  0  0  0  0  0
  150.3539  142.0577  155.0008 H   0  0  0  0  0  0  0  0  0  0  0  0
  148.8689  141.8118  153.1265 H   0  0  0  0  0  0  0  0  0  0  0  0
  147.8415  143.0439  154.8835 H   0  0  0  0  0  0  0  0  0  0  0  0
  147.4551  139.6725  154.8003 H   0  0  0  0  0  0  0  0  0  0  0  0
  146.2430  140.1100  152.6812 H   0  0  0  0  0  0  0  0  0  0  0  0
  147.7312  139.9312  151.7724 H   0  0  0  0  0  0  0  0  0  0  0  0
  147.7622  137.8234  152.1440 H   0  0  0  0  0  0  0  0  0  0  0  0
  153.8442  136.9232  157.7660 H   0  0  0  0  0  0  0  0  0  0  0  0
  154.2219  138.4604  157.0915 H   0  0  0  0  0  0  0  0  0  0  0  0
  153.2145  140.7980  157.8102 H   0  0  0  0  0  0  0  0  0  0  0  0
  151.7474  140.1000  158.5105 H   0  0  0  0  0  0  0  0  0  0  0  0
  152.8870  142.7496  159.0465 H   0  0  0  0  0  0  0  0  0  0  0  0
  151.3845  142.0660  159.6982 H   0  0  0  0  0  0  0  0  0  0  0  0
  152.7177  143.4508  161.9012 H   0  0  0  0  0  0  0  0  0  0  0  0
  155.0634  140.4533  163.9887 H   0  0  0  0  0  0  0  0  0  0  0  0
  154.9294  138.9686  162.0482 H   0  0  0  0  0  0  0  0  0  0  0  0
  1  2  1  0  0  0  0
  1 33  1  0  0  0  0
  1 34  1  0  0  0  0
  1 35  1  0  0  0  0
  2 31  1  0  0  0  0
  2  3  2  0  0  0  0
  3  4  1  0  0  0  0
  3 36  1  0  0  0  0
  4  5  1  0  0  0  0
  4 13  1  0  0  0  0
  5 12  1  0  0  0  0
  5  6  1  0  0  0  0
  5 37  1  0  0  0  0
  6  7  1  0  0  0  0
  6 38  1  0  0  0  0
  6 39  1  0  0  0  0
  7  8  1  0  0  0  0
  7  9  1  0  0  0  0
  7 40  1  0  0  0  0
  8 41  1  0  0  0  0
  9 10  1  0  0  0  0
  9 12  1  0  0  0  0
  9 42  1  0  0  0  0
 10 11  1  0  0  0  0
 10 43  1  0  0  0  0
 10 44  1  0  0  0  0
 11 45  1  0  0  0  0
 13 14  2  0  0  0  0
 13 15  1  0  0  0  0
 15 16  1  0  0  0  0
 15 31  1  0  0  0  0
 16 17  1  0  0  0  0
 16 46  1  0  0  0  0
 16 47  1  0  0  0  0
 17 18  2  0  0  0  0
 17 19  1  0  0  0  0
 19 30  1  0  0  0  0
 19 20  1  0  0  0  0
 20 21  1  0  0  0  0
 20 48  1  0  0  0  0
 20 49  1  0  0  0  0
 21 22  1  0  0  0  0
 21 50  1  0  0  0  0
 21 51  1  0  0  0  0
 22 30  2  0  0  0  0
 22 23  1  0  0  0  0
 23 24  2  0  0  0  0
 23 52  1  0  0  0  0
 24 25  1  0  0  0  0
 24 28  1  0  0  0  0
 25 26  2  0  0  0  0
 25 27  1  0  0  0  0
 28 29  2  0  0  0  0
 28 53  1  0  0  0  0
 29 30  1  0  0  0  0
 29 54  1  0  0  0  0
 31 32  2  0  0  0  0
M  CHG  1  25   1
M  CHG  1  27  -1
M  END
> <s_m_source_file>
AV-unprocessed.smi

> <i_m_source_file_index>
112

> <i_lp_mmshare_version>
43012

> <i_f3d_flags>
0

> <s_epik_input>
W09IXVtDSDJdW0NAQEhdKE8xKVtDQEhdKFtPSF0pW0NIMl1bQ0BIXTFuKFtjSF1jMltDSDNdKWMoPU8pbihjMj1PKVtDSDJdQyg9TylOKFtDSDJdW0NIMl0zKWMoYzM0KVtjSF1bY0hdYyhbY0hdNClbTitdKD1PKVtPLV0=

> <s_epik_cmdline>
J2VwaWtfcHl0aG9uJywgJy1waCcsICc3LjAnLCAnLXRuJywgJzgnLCAnLW1hJywgJzIwMCcsICctbWV0YWxfYmluZGluZycsICctaW1hZScsICc8aW5maWxlLm1hZT4nLCAnLW9tYWUnLCAnPG91dGZpbGUubWFlPic=

> <r_lp_tautomer_probability>
1

> <r_epik_Ionization_Penalty>
2.5696e-07

> <r_epik_Ionization_Penalty_Charging>
1.04886e-08

> <r_epik_Ionization_Penalty_Neutral>
2.46472e-07

> <r_epik_State_Penalty>
-0

> <r_epik_Charging_Adjusted_Penalty>
1.04886e-08

> <i_epik_Tot_Q>
0

> <i_epik_Tot_abs_Q>
2

> <r_epik_Metal_State_Penalty>
-0

> <b_epik_Metal_Only>
0

> <s_epik_Chemistry_Notes>
This compound contains an acetal/aminal-like group ( X-CH(R)-Y where X, Y are N, S, or O) that may be acid/base labile, releasing an aldehyde.

> <s_lp_Force_Field>
OPLS_2005

> <r_lp_Energy>
57.8842

> <b_lp_Chiralities_Consistent>
1

> <s_lp_Variant>
AV-unprocessed.smi:112-3

> <Gold.Version>
5.8.1

> <Gold.Id.Protein>
6NUR|6NUR_protein|mol2

> <Gold.PLP.Fitness>
61.6485

> <Gold.PLP.PLP>
-50.4363

> <Gold.PLP.part.hbond>
-4.0000

> <Gold.PLP.part.metal>
0.0000

> <Gold.PLP.part.buried>
-1.9221

> <Gold.PLP.part.nonpolar>
-44.6818

> <Gold.PLP.part.repulsive>
0.6873

> <Gold.PLP.ligand.clash>
0.0000

> <Gold.PLP.ligand.torsion>
0.4071

> <Gold.PLP.Chemscore.Hbond>
4.0000

> <Gold.PLP.Chemscore.CHOScore>
0.0000

> <Gold.PLP.Chemscore.Metal>
0.0000

> <Gold.Chemscore.Hbonds>
donor molecule, donor type, donor heavy atom, donor atom, acceptor molecule, acceptor atom, score
      L1  H     8    41       P1  8028  0.86
      L1  H    11    45       P1  7948  1.00
      P1  H  6896  6908       L1    32  0.99
      P1  H  7997  8009       L1    14  1.00

> <Gold.PLP.Chemscore.Internal.Correction>
0.0265

> <Gold.Rescore>
     Score         DG    S(hbond)    S(metal)    S(lipo)     H(rot)  DE(clash)    DE(int)     intcor
     17.58     -22.93       3.77        0.00     113.47       3.29       1.18       4.16       ----

> <Gold.Chemscore.Fitness>
17.5816

> <Gold.Chemscore.DG>
-22.9270

> <Gold.Chemscore.ZeroCoef>
-5.4800

> <Gold.Chemscore.Hbond>
3.7718

> <Gold.Chemscore.Metal>
0.0000

> <Gold.Chemscore.Lipo>
113.4681

> <Gold.Chemscore.Internal_Hbond>
0.0000

> <Gold.Chemscore.DEClash>
1.1815

> <Gold.Chemscore.DEInternal>
4.1640

> <Gold.Chemscore.Rot>
3.2916

> <Gold.Chemscore.Internal.Correction>
   9.000000E+99

> <Gold.Chemscore.Hbonds>
donor molecule, donor type, donor heavy atom, donor atom, acceptor molecule, acceptor atom, score
      L1  H     8    41       P1  8028  0.69
      L1  H    11    45       P1  7948  0.93
      P1  H  6896  6908       L1    32  0.92
      P1  H  7997  8009       L1    14  1.00

> <Gold.Chemscore.Hbond.Weighted>
-12.5977

> <Gold.Chemscore.Metal.Weighted>
-0.0000

> <Gold.Chemscore.Lipo.Weighted>
-13.2758

> <Gold.Chemscore.Internal_Hbond.Weighted>
0.0000

> <Gold.Chemscore.DEClash.Weighted>
1.1815

> <Gold.Chemscore.DEInternal.Weighted>
4.1640

> <Gold.Chemscore.Rot.Weighted>
8.4265

> <Gold.Chemscore.Internal.Correction.Weighted>
   9.000000E+99

> <Gold.Protein.RotatedTorsions>
[ 6907 6896 6895 6894 ] final -126.76 input  -60.11 | X-H torsion
[ 7974 7965 7964 7962 ] final  -23.67 input  175.53 | X-H torsion
[ 8008 7997 7996 7995 ] final -144.53 input   59.86 | X-H torsion
[ 10167 10162 10161 10158 ] final  139.02 input  -65.29 | X-H torsion
[ 10718 10713 10712 10709 ] final  106.25 input   66.30 | X-H torsion
[ 10763 10752 10751 10750 ] final   -5.61 input  -60.55 | X-H torsion
[ 11005 11000 10999 10996 ] final -131.03 input  -57.11 | X-H torsion

> <Gold.Protein.ActiveResidues>
 VAL166  LYS551  ARG553  GLY616  TRP617  ASP618  TYR619  PRO620  LYS621  CYS622 
 ASP623  PHE694  ASN695  SER759  ASP760  ASP761  ALA762  ILE779  LEU786  VAL792 
 PHE793  MET794  SER795  GLU796  ALA797  LYS798  CYS799  TRP800  GLU811  SER814 

> <Gold.Protein.RotatedAtoms>
  150.9002  133.7128  159.2880 H   0  0  0  0  0  0  0  0  0  0  0  0  # atno 6907 bound_to 6896
  151.4649  135.1040  159.9745 H   0  0  0  0  0  0  0  0  0  0  0  0  # atno 6908 bound_to 6896
  152.4872  133.8356  159.7181 H   0  0  0  0  0  0  0  0  0  0  0  0  # atno 6909 bound_to 6896
  146.1602  140.4648  142.8574 H   0  0  0  0  0  0  0  0  0  0  0  0  # atno 7974 bound_to 7965
  155.5284  140.0597  157.2893 H   0  0  0  0  0  0  0  0  0  0  0  0  # atno 8008 bound_to 7997
  154.4493  140.1940  156.0515 H   0  0  0  0  0  0  0  0  0  0  0  0  # atno 8009 bound_to 7997
  156.0669  140.3265  155.7533 H   0  0  0  0  0  0  0  0  0  0  0  0  # atno 8010 bound_to 7997
  139.5092  144.6319  151.5795 H   0  0  0  0  0  0  0  0  0  0  0  0  # atno 10167 bound_to 10162
  157.6675  131.0846  150.5979 H   0  0  0  0  0  0  0  0  0  0  0  0  # atno 10718 bound_to 10713
  153.4010  135.7005  153.6426 H   0  0  0  0  0  0  0  0  0  0  0  0  # atno 10763 bound_to 10752
  153.4960  135.3662  155.2516 H   0  0  0  0  0  0  0  0  0  0  0  0  # atno 10764 bound_to 10752
  154.8710  135.4100  154.3344 H   0  0  0  0  0  0  0  0  0  0  0  0  # atno 10765 bound_to 10752
  140.9294  134.1340  157.4248 H   0  0  0  0  0  0  0  0  0  0  0  0  # atno 11005 bound_to 11000
  144.8016  140.6224  143.6474 LP  0  0  0  0  0  0  0  0  0  0  0  0  # atno 17320 bound_to 7965
  145.4608  139.1513  143.3867 LP  0  0  0  0  0  0  0  0  0  0  0  0  # atno 17321 bound_to 7965
  140.6055  143.9532  150.6416 LP  0  0  0  0  0  0  0  0  0  0  0  0  # atno 17342 bound_to 10162
  140.2758  143.3424  152.1197 LP  0  0  0  0  0  0  0  0  0  0  0  0  # atno 17343 bound_to 10162
  156.6280  130.4424  149.5797 LP  0  0  0  0  0  0  0  0  0  0  0  0  # atno 17370 bound_to 10713
  156.2304  130.6791  151.1458 LP  0  0  0  0  0  0  0  0  0  0  0  0  # atno 17371 bound_to 10713
  139.8793  134.9999  156.5983 LP  0  0  0  0  0  0  0  0  0  0  0  0  # atno 17394 bound_to 11000
  140.7883  133.8603  155.8624 LP  0  0  0  0  0  0  0  0  0  0  0  0  # atno 17395 bound_to 11000

$$$$
