AV-unprocessed.smi:1696|AV-procd|sdf|6800|dock7
  -GOLD-   22720 7563D 1   1.00000     0.00000
 Structure written by MMmdl.
 39 40  0  0  0  0  0  0  0  0  2 V2000
  145.4403  131.4299  150.8562 C   0  0  0  0  0  0  0  0  0  0  0  0
  145.0615  132.7894  151.4631 C   0  0  0  0  0  0  0  0  0  0  0  0
  146.1622  133.8782  151.3438 C   0  0  1  0  0  0  0  0  0  0  0  0
  145.5774  135.3179  151.4068 C   0  0  0  0  0  0  0  0  0  0  0  0
  146.5331  136.3141  151.8901 N   0  0  0  0  0  0  0  0  0  0  0  0
  146.2208  137.4515  152.5273 C   0  0  0  0  0  0  0  0  0  0  0  0
  145.0678  137.7817  152.8006 O   0  0  0  0  0  0  0  0  0  0  0  0
  147.3219  138.1622  152.8195 N   0  0  0  0  0  0  0  0  0  0  0  0
  147.3978  139.4030  153.4993 C   0  0  0  0  0  0  0  0  0  0  0  0
  146.4467  140.3137  153.2850 N   0  0  0  0  0  0  0  0  0  0  0  0
  146.6594  141.4792  154.0273 C   0  0  0  0  0  0  0  0  0  0  0  0
  147.7893  141.4388  154.8060 C   0  0  0  0  0  0  0  0  0  0  0  0
  148.6403  139.9268  154.6388 S   0  0  0  0  0  0  0  0  0  0  0  0
  147.2346  133.6935  152.3691 N   0  3  0  0  0  0  0  0  0  0  0  0
  146.8445  133.9326  153.7762 C   0  0  0  0  0  0  0  0  0  0  0  0
  147.9083  133.2264  154.6080 C   0  0  0  0  0  0  0  0  0  0  0  0
  148.2097  131.9754  153.7922 C   0  0  0  0  0  0  0  0  0  0  0  0
  147.9134  132.3718  152.3393 C   0  0  0  0  0  0  0  0  0  0  0  0
  144.6759  130.6857  151.0807 H   0  0  0  0  0  0  0  0  0  0  0  0
  146.3839  131.0654  151.2626 H   0  0  0  0  0  0  0  0  0  0  0  0
  145.5335  131.4731  149.7719 H   0  0  0  0  0  0  0  0  0  0  0  0
  144.1287  133.1419  151.0227 H   0  0  0  0  0  0  0  0  0  0  0  0
  144.8393  132.5957  152.5115 H   0  0  0  0  0  0  0  0  0  0  0  0
  146.6290  133.7541  150.3653 H   0  0  0  0  0  0  0  0  0  0  0  0
  145.2778  135.6341  150.4077 H   0  0  0  0  0  0  0  0  0  0  0  0
  144.6554  135.3520  151.9867 H   0  0  0  0  0  0  0  0  0  0  0  0
  147.5086  136.1362  151.6991 H   0  0  0  0  0  0  0  0  0  0  0  0
  148.2059  137.7764  152.5227 H   0  0  0  0  0  0  0  0  0  0  0  0
  145.9528  142.2916  153.9419 H   0  0  0  0  0  0  0  0  0  0  0  0
  148.1706  142.2038  155.4661 H   0  0  0  0  0  0  0  0  0  0  0  0
  146.7911  134.9957  154.0121 H   0  0  0  0  0  0  0  0  0  0  0  0
  145.8673  133.4864  153.9699 H   0  0  0  0  0  0  0  0  0  0  0  0
  148.8011  133.8497  154.6744 H   0  0  0  0  0  0  0  0  0  0  0  0
  147.5763  133.0030  155.6225 H   0  0  0  0  0  0  0  0  0  0  0  0
  149.2333  131.6260  153.9312 H   0  0  0  0  0  0  0  0  0  0  0  0
  147.5410  131.1690  154.0964 H   0  0  0  0  0  0  0  0  0  0  0  0
  147.2879  131.6076  151.8756 H   0  0  0  0  0  0  0  0  0  0  0  0
  148.8300  132.4505  151.7541 H   0  0  0  0  0  0  0  0  0  0  0  0
  147.9502  134.3773  152.1677 H   0  0  0  0  0  0  0  0  0  0  0  0
  1  2  1  0  0  0  0
  1 19  1  0  0  0  0
  1 20  1  0  0  0  0
  1 21  1  0  0  0  0
  2  3  1  0  0  0  0
  2 22  1  0  0  0  0
  2 23  1  0  0  0  0
  3  4  1  0  0  0  0
  3 14  1  0  0  0  0
  3 24  1  0  0  0  0
  4  5  1  0  0  0  0
  4 25  1  0  0  0  0
  4 26  1  0  0  0  0
  5  6  1  0  0  0  0
  5 27  1  0  0  0  0
  6  7  2  0  0  0  0
  6  8  1  0  0  0  0
  8  9  1  0  0  0  0
  8 28  1  0  0  0  0
  9 13  1  0  0  0  0
  9 10  2  0  0  0  0
 10 11  1  0  0  0  0
 11 12  2  0  0  0  0
 11 29  1  0  0  0  0
 12 13  1  0  0  0  0
 12 30  1  0  0  0  0
 14 18  1  0  0  0  0
 14 15  1  0  0  0  0
 14 39  1  0  0  0  0
 15 16  1  0  0  0  0
 15 31  1  0  0  0  0
 15 32  1  0  0  0  0
 16 17  1  0  0  0  0
 16 33  1  0  0  0  0
 16 34  1  0  0  0  0
 17 18  1  0  0  0  0
 17 35  1  0  0  0  0
 17 36  1  0  0  0  0
 18 37  1  0  0  0  0
 18 38  1  0  0  0  0
M  CHG  1  14   1
M  END
> <s_m_source_file>
AV-unprocessed.smi

> <i_m_source_file_index>
1696

> <i_lp_mmshare_version>
43012

> <i_f3d_flags>
0

> <s_epik_input>
W0NIMl0xW0NIMl1bQ0gyXVtDSDJdTjFbQ0BIXShbQ0gyXVtDSDNdKVtDSDJdW05IXUMoPU8pW05IXWMybltjSF1bY0hdczI=

> <s_epik_cmdline>
J2VwaWtfcHl0aG9uJywgJy1waCcsICc3LjAnLCAnLXRuJywgJzgnLCAnLW1hJywgJzIwMCcsICctbWV0YWxfYmluZGluZycsICctaW1hZScsICc8aW5maWxlLm1hZT4nLCAnLW9tYWUnLCAnPG91dGZpbGUubWFlPic=

> <r_lp_tautomer_probability>
1

> <r_epik_Ionization_Penalty>
0.0013883

> <r_epik_Ionization_Penalty_Charging>
0.00115997

> <r_epik_Ionization_Penalty_Neutral>
0.000228323

> <r_epik_State_Penalty>
-0

> <r_epik_Charging_Adjusted_Penalty>
0.00115997

> <i_epik_Tot_Q>
1

> <i_epik_Tot_abs_Q>
1

> <r_epik_Metal_State_Penalty>
0.0131845

> <b_epik_Metal_Only>
0

> <s_lp_Force_Field>
OPLS_2005

> <r_lp_Energy>
36.9264

> <b_lp_Chiralities_Consistent>
1

> <s_lp_Variant>
AV-unprocessed.smi:1696-2

> <Gold.Version>
5.8.1

> <Gold.Id.Protein>
6NUR|6NUR_protein|mol2

> <Gold.PLP.Fitness>
42.1531

> <Gold.PLP.PLP>
-29.8992

> <Gold.PLP.part.hbond>
-3.9383

> <Gold.PLP.part.metal>
0.0000

> <Gold.PLP.part.buried>
0.0925

> <Gold.PLP.part.nonpolar>
-29.6474

> <Gold.PLP.part.repulsive>
3.7559

> <Gold.PLP.ligand.clash>
0.0000

> <Gold.PLP.ligand.torsion>
1.0343

> <Gold.PLP.Chemscore.Hbond>
3.7440

> <Gold.PLP.Chemscore.CHOScore>
1.0000

> <Gold.PLP.Chemscore.Metal>
0.0000

> <Gold.Chemscore.Hbonds>
donor molecule, donor type, donor heavy atom, donor atom, acceptor molecule, acceptor atom, score
      L1  H     5    27       P1  7948  0.73
      L1  H     8    28       P1  7948  0.85
      L1  H    14    39       P1  7948  1.70
      L1  C    12    30       P1  8028  0.81

> <Gold.PLP.Chemscore.Internal.Correction>
0.0904

> <Gold.Rescore>
     Score         DG    S(hbond)    S(metal)    S(lipo)     H(rot)  DE(clash)    DE(int)     intcor
     13.20     -17.77       2.73        0.00      65.80       1.77       1.96       2.61       ----

> <Gold.Chemscore.Fitness>
13.2007

> <Gold.Chemscore.DG>
-17.7669

> <Gold.Chemscore.ZeroCoef>
-5.4800

> <Gold.Chemscore.Hbond>
2.7308

> <Gold.Chemscore.Metal>
0.0000

> <Gold.Chemscore.Lipo>
65.7995

> <Gold.Chemscore.Internal_Hbond>
0.0000

> <Gold.Chemscore.DEClash>
1.9605

> <Gold.Chemscore.DEInternal>
2.6057

> <Gold.Chemscore.Rot>
1.7705

> <Gold.Chemscore.Internal.Correction>
   9.000000E+99

> <Gold.Chemscore.Hbonds>
donor molecule, donor type, donor heavy atom, donor atom, acceptor molecule, acceptor atom, score
      L1  H     5    27       P1  7948  0.72
      L1  H     8    28       P1  7948  0.83
      L1  H    14    39       P1  7948  0.18

> <Gold.Chemscore.Hbond.Weighted>
-9.1208

> <Gold.Chemscore.Metal.Weighted>
-0.0000

> <Gold.Chemscore.Lipo.Weighted>
-7.6985

> <Gold.Chemscore.Internal_Hbond.Weighted>
0.0000

> <Gold.Chemscore.DEClash.Weighted>
1.9605

> <Gold.Chemscore.DEInternal.Weighted>
2.6057

> <Gold.Chemscore.Rot.Weighted>
4.5324

> <Gold.Chemscore.Internal.Correction.Weighted>
   9.000000E+99

> <Gold.Protein.RotatedTorsions>
[ 6907 6896 6895 6894 ] final   33.70 input  -60.11 | X-H torsion
[ 7974 7965 7964 7962 ] final  -79.80 input  175.53 | X-H torsion
[ 8008 7997 7996 7995 ] final  -43.86 input   59.86 | X-H torsion
[ 10167 10162 10161 10158 ] final   49.49 input  -65.29 | X-H torsion
[ 10718 10713 10712 10709 ] final  -56.31 input   66.30 | X-H torsion
[ 10763 10752 10751 10750 ] final -179.46 input  -60.55 | X-H torsion
[ 11005 11000 10999 10996 ] final -145.47 input  -57.11 | X-H torsion

> <Gold.Protein.ActiveResidues>
 VAL166  LYS551  ARG553  GLY616  TRP617  ASP618  TYR619  PRO620  LYS621  CYS622 
 ASP623  PHE694  ASN695  SER759  ASP760  ASP761  ALA762  ILE779  LEU786  VAL792 
 PHE793  MET794  SER795  GLU796  ALA797  LYS798  CYS799  TRP800  GLU811  SER814 

> <Gold.Protein.RotatedAtoms>
  152.0921  134.9400  160.0571 H   0  0  0  0  0  0  0  0  0  0  0  0  # atno 6907 bound_to 6896
  152.0647  133.4073  159.4441 H   0  0  0  0  0  0  0  0  0  0  0  0  # atno 6908 bound_to 6896
  150.6837  134.3080  159.4778 H   0  0  0  0  0  0  0  0  0  0  0  0  # atno 6909 bound_to 6896
  145.5684  140.9470  143.1409 H   0  0  0  0  0  0  0  0  0  0  0  0  # atno 7974 bound_to 7965
  154.3997  140.1437  156.3589 H   0  0  0  0  0  0  0  0  0  0  0  0  # atno 8008 bound_to 7997
  155.8200  140.3470  155.5487 H   0  0  0  0  0  0  0  0  0  0  0  0  # atno 8009 bound_to 7997
  155.8298  140.0910  157.1790 H   0  0  0  0  0  0  0  0  0  0  0  0  # atno 8010 bound_to 7997
  140.2824  144.3141  150.6261 H   0  0  0  0  0  0  0  0  0  0  0  0  # atno 10167 bound_to 10162
  156.1299  130.4160  150.0288 H   0  0  0  0  0  0  0  0  0  0  0  0  # atno 10718 bound_to 10713
  154.5347  135.2802  155.1149 H   0  0  0  0  0  0  0  0  0  0  0  0  # atno 10763 bound_to 10752
  154.2655  135.6313  153.5294 H   0  0  0  0  0  0  0  0  0  0  0  0  # atno 10764 bound_to 10752
  152.9965  135.5616  154.5870 H   0  0  0  0  0  0  0  0  0  0  0  0  # atno 10765 bound_to 10752
  140.7919  134.2958  157.5010 H   0  0  0  0  0  0  0  0  0  0  0  0  # atno 11005 bound_to 11000
  144.7449  139.7346  143.7296 LP  0  0  0  0  0  0  0  0  0  0  0  0  # atno 17320 bound_to 7965
  146.1802  139.4990  142.9871 LP  0  0  0  0  0  0  0  0  0  0  0  0  # atno 17321 bound_to 7965
  140.5801  143.2173  151.7444 LP  0  0  0  0  0  0  0  0  0  0  0  0  # atno 17342 bound_to 10162
  139.4959  144.4093  152.0098 LP  0  0  0  0  0  0  0  0  0  0  0  0  # atno 17343 bound_to 10162
  156.8203  130.9356  151.3641 LP  0  0  0  0  0  0  0  0  0  0  0  0  # atno 17370 bound_to 10713
  157.6478  130.8858  149.9572 LP  0  0  0  0  0  0  0  0  0  0  0  0  # atno 17371 bound_to 10713
  139.8730  134.9379  156.3701 LP  0  0  0  0  0  0  0  0  0  0  0  0  # atno 17394 bound_to 11000
  140.9381  133.7533  156.0111 LP  0  0  0  0  0  0  0  0  0  0  0  0  # atno 17395 bound_to 11000

$$$$
