AV-unprocessed.smi:1952|AV-procd|sdf|7887|dock9
  -GOLD-   2272010 43D 1   1.00000     0.00000
 Structure written by MMmdl.
 38 39  0  0  0  0  0  0  0  0  2 V2000
  152.8538  142.9524  162.4210 C   0  0  0  0  0  0  0  0  0  0  0  0
  152.3418  143.2684  161.0572 C   0  0  0  0  0  0  0  0  0  0  0  0
  152.3149  142.5596  159.8898 C   0  0  0  0  0  0  0  0  0  0  0  0
  151.6938  143.4569  158.9786 C   0  0  0  0  0  0  0  0  0  0  0  0
  151.4284  143.2108  157.6865 N   0  5  0  0  0  0  0  0  0  0  0  0
  150.4229  142.3716  157.3459 C   0  0  0  0  0  0  0  0  0  0  0  0
  149.6050  141.8619  158.1155 O   0  0  0  0  0  0  0  0  0  0  0  0
  150.3611  142.1091  156.0322 N   0  0  0  0  0  0  0  0  0  0  0  0
  149.3727  141.2634  155.3641 C   0  0  2  0  0  0  0  0  0  0  0  0
  147.9992  141.9508  155.3784 C   0  0  0  0  0  0  0  0  0  0  0  0
  149.3146  139.8811  156.0470 C   0  0  0  0  0  0  0  0  0  0  0  0
  150.5745  139.1360  156.0813 N   0  0  0  0  0  0  0  0  0  0  0  0
  151.4464  139.5436  157.1805 C   0  0  0  0  0  0  0  0  0  0  0  0
  152.7703  138.7596  157.1824 C   0  0  0  0  0  0  0  0  0  0  0  0
  153.4235  138.9159  155.9266 O   0  0  0  0  0  0  0  0  0  0  0  0
  152.6200  138.4818  154.8344 C   0  0  0  0  0  0  0  0  0  0  0  0
  151.2995  139.2705  154.8229 C   0  0  0  0  0  0  0  0  0  0  0  0
  151.3571  144.6023  159.5476 N   0  0  0  0  0  0  0  0  0  0  0  0
  151.7762  144.4925  160.8790 O   0  0  0  0  0  0  0  0  0  0  0  0
  152.3782  142.0528  162.8118 H   0  0  0  0  0  0  0  0  0  0  0  0
  152.6547  143.7686  163.1159 H   0  0  0  0  0  0  0  0  0  0  0  0
  153.9304  142.7834  162.3983 H   0  0  0  0  0  0  0  0  0  0  0  0
  152.6852  141.5612  159.7126 H   0  0  0  0  0  0  0  0  0  0  0  0
  151.0488  142.5525  155.4413 H   0  0  0  0  0  0  0  0  0  0  0  0
  149.6563  141.1229  154.3205 H   0  0  0  0  0  0  0  0  0  0  0  0
  147.2497  141.3368  154.8784 H   0  0  0  0  0  0  0  0  0  0  0  0
  148.0338  142.9112  154.8629 H   0  0  0  0  0  0  0  0  0  0  0  0
  147.6560  142.1324  156.3974 H   0  0  0  0  0  0  0  0  0  0  0  0
  148.9718  140.0316  157.0718 H   0  0  0  0  0  0  0  0  0  0  0  0
  148.5470  139.2745  155.5642 H   0  0  0  0  0  0  0  0  0  0  0  0
  151.6571  140.6117  157.1096 H   0  0  0  0  0  0  0  0  0  0  0  0
  150.9504  139.3833  158.1373 H   0  0  0  0  0  0  0  0  0  0  0  0
  153.4255  139.1233  157.9740 H   0  0  0  0  0  0  0  0  0  0  0  0
  152.5899  137.7012  157.3768 H   0  0  0  0  0  0  0  0  0  0  0  0
  153.1652  138.6409  153.9040 H   0  0  0  0  0  0  0  0  0  0  0  0
  152.4296  137.4105  154.9162 H   0  0  0  0  0  0  0  0  0  0  0  0
  150.6782  138.9193  153.9984 H   0  0  0  0  0  0  0  0  0  0  0  0
  151.5107  140.3232  154.6283 H   0  0  0  0  0  0  0  0  0  0  0  0
  1  2  1  0  0  0  0
  1 20  1  0  0  0  0
  1 21  1  0  0  0  0
  1 22  1  0  0  0  0
  2 19  1  0  0  0  0
  2  3  2  0  0  0  0
  3  4  1  0  0  0  0
  3 23  1  0  0  0  0
  4  5  1  0  0  0  0
  4 18  2  0  0  0  0
  5  6  1  0  0  0  0
  6  7  2  0  0  0  0
  6  8  1  0  0  0  0
  8  9  1  0  0  0  0
  8 24  1  0  0  0  0
  9 10  1  0  0  0  0
  9 11  1  0  0  0  0
  9 25  1  0  0  0  0
 10 26  1  0  0  0  0
 10 27  1  0  0  0  0
 10 28  1  0  0  0  0
 11 12  1  0  0  0  0
 11 29  1  0  0  0  0
 11 30  1  0  0  0  0
 12 17  1  0  0  0  0
 12 13  1  0  0  0  0
 13 14  1  0  0  0  0
 13 31  1  0  0  0  0
 13 32  1  0  0  0  0
 14 15  1  0  0  0  0
 14 33  1  0  0  0  0
 14 34  1  0  0  0  0
 15 16  1  0  0  0  0
 16 17  1  0  0  0  0
 16 35  1  0  0  0  0
 16 36  1  0  0  0  0
 17 37  1  0  0  0  0
 17 38  1  0  0  0  0
 18 19  1  0  0  0  0
M  CHG  1   5  -1
M  END
> <s_m_source_file>
AV-unprocessed.smi

> <i_m_source_file_index>
1952

> <i_lp_mmshare_version>
43012

> <i_f3d_flags>
0

> <s_epik_input>
W0NIM11jMVtjSF1jKG5vMSlbTkhdQyg9TylbTkhdW0NASF0oW0NIM10pW0NIMl1OMltDSDJdW0NIMl1PW0NIMl1bQ0gyXTI=

> <s_epik_cmdline>
J2VwaWtfcHl0aG9uJywgJy1waCcsICc3LjAnLCAnLXRuJywgJzgnLCAnLW1hJywgJzIwMCcsICctbWV0YWxfYmluZGluZycsICctaW1hZScsICc8aW5maWxlLm1hZT4nLCAnLW9tYWUnLCAnPG91dGZpbGUubWFlPic=

> <r_epik_Ionization_Penalty>
6.81701

> <r_epik_Ionization_Penalty_Charging>
6.50532

> <r_epik_Ionization_Penalty_Neutral>
0.311686

> <r_epik_State_Penalty>
6.70952

> <r_epik_Charging_Adjusted_Penalty>
13.2148

> <i_epik_Tot_Q>
-1

> <i_epik_Tot_abs_Q>
1

> <r_epik_Metal_State_Penalty>
2.64135

> <b_epik_Metal_Only>
1

> <s_lp_Force_Field>
OPLS_2005

> <r_lp_Energy>
18.9741

> <b_lp_Chiralities_Consistent>
1

> <s_lp_Variant>
AV-unprocessed.smi:1952-5

> <Gold.Version>
5.8.1

> <Gold.Id.Protein>
6NUR|6NUR_protein|mol2

> <Gold.PLP.Fitness>
34.6819

> <Gold.PLP.PLP>
-33.6678

> <Gold.PLP.part.hbond>
-1.8333

> <Gold.PLP.part.metal>
0.0000

> <Gold.PLP.part.buried>
-2.4030

> <Gold.PLP.part.nonpolar>
-29.3819

> <Gold.PLP.part.repulsive>
0.4706

> <Gold.PLP.ligand.clash>
0.0000

> <Gold.PLP.ligand.torsion>
0.9849

> <Gold.PLP.Chemscore.Hbond>
0.9760

> <Gold.PLP.Chemscore.CHOScore>
0.0000

> <Gold.PLP.Chemscore.Metal>
0.0000

> <Gold.Chemscore.Hbonds>
donor molecule, donor type, donor heavy atom, donor atom, acceptor molecule, acceptor atom, score
      P1  H  7997  8010       L1    15  0.98

> <Gold.PLP.Chemscore.Internal.Correction>
0.0559

> <Gold.Rescore>
     Score         DG    S(hbond)    S(metal)    S(lipo)     H(rot)  DE(clash)    DE(int)     intcor
     10.66     -13.10       0.82        0.00      75.10       1.53       0.07       2.38       ----

> <Gold.Chemscore.Fitness>
10.6553

> <Gold.Chemscore.DG>
-13.1001

> <Gold.Chemscore.ZeroCoef>
-5.4800

> <Gold.Chemscore.Hbond>
0.8247

> <Gold.Chemscore.Metal>
0.0000

> <Gold.Chemscore.Lipo>
75.1008

> <Gold.Chemscore.Internal_Hbond>
0.0000

> <Gold.Chemscore.DEClash>
0.0691

> <Gold.Chemscore.DEInternal>
2.3757

> <Gold.Chemscore.Rot>
1.5317

> <Gold.Chemscore.Internal.Correction>
   9.000000E+99

> <Gold.Chemscore.Hbonds>
donor molecule, donor type, donor heavy atom, donor atom, acceptor molecule, acceptor atom, score
      P1  H  7997  8010       L1    15  0.45

> <Gold.Chemscore.Hbond.Weighted>
-2.7545

> <Gold.Chemscore.Metal.Weighted>
-0.0000

> <Gold.Chemscore.Lipo.Weighted>
-8.7868

> <Gold.Chemscore.Internal_Hbond.Weighted>
0.0000

> <Gold.Chemscore.DEClash.Weighted>
0.0691

> <Gold.Chemscore.DEInternal.Weighted>
2.3757

> <Gold.Chemscore.Rot.Weighted>
3.9211

> <Gold.Chemscore.Internal.Correction.Weighted>
   9.000000E+99

> <Gold.Protein.RotatedTorsions>
[ 6907 6896 6895 6894 ] final  -71.58 input  -60.11 | X-H torsion
[ 7974 7965 7964 7962 ] final -129.11 input  175.53 | X-H torsion
[ 8008 7997 7996 7995 ] final   91.09 input   59.86 | X-H torsion
[ 10167 10162 10161 10158 ] final  108.37 input  -65.29 | X-H torsion
[ 10718 10713 10712 10709 ] final  157.56 input   66.30 | X-H torsion
[ 10763 10752 10751 10750 ] final  -43.60 input  -60.55 | X-H torsion
[ 11005 11000 10999 10996 ] final   59.13 input  -57.11 | X-H torsion

> <Gold.Protein.ActiveResidues>
 VAL166  LYS551  ARG553  GLY616  TRP617  ASP618  TYR619  PRO620  LYS621  CYS622 
 ASP623  PHE694  ASN695  SER759  ASP760  ASP761  ALA762  ILE779  LEU786  VAL792 
 PHE793  MET794  SER795  GLU796  ALA797  LYS798  CYS799  TRP800  GLU811  SER814 

> <Gold.Protein.RotatedAtoms>
  150.7206  134.5288  159.5689 H   0  0  0  0  0  0  0  0  0  0  0  0  # atno 6907 bound_to 6896
  152.2826  134.7809  160.0402 H   0  0  0  0  0  0  0  0  0  0  0  0  # atno 6908 bound_to 6896
  151.8450  133.3394  159.3692 H   0  0  0  0  0  0  0  0  0  0  0  0  # atno 6909 bound_to 6896
  144.9604  140.7441  143.4732 H   0  0  0  0  0  0  0  0  0  0  0  0  # atno 7974 bound_to 7965
  156.0197  140.3342  155.7025 H   0  0  0  0  0  0  0  0  0  0  0  0  # atno 8008 bound_to 7997
  155.6041  140.0658  157.2742 H   0  0  0  0  0  0  0  0  0  0  0  0  # atno 8009 bound_to 7997
  154.4311  140.1805  156.1191 H   0  0  0  0  0  0  0  0  0  0  0  0  # atno 8010 bound_to 7997
  139.6852  144.7114  151.1445 H   0  0  0  0  0  0  0  0  0  0  0  0  # atno 10167 bound_to 10162
  157.1898  131.0652  151.2085 H   0  0  0  0  0  0  0  0  0  0  0  0  # atno 10718 bound_to 10713
  153.9983  135.6697  153.4758 H   0  0  0  0  0  0  0  0  0  0  0  0  # atno 10763 bound_to 10752
  153.0674  135.4993  154.8226 H   0  0  0  0  0  0  0  0  0  0  0  0  # atno 10764 bound_to 10752
  154.7068  135.3089  154.9221 H   0  0  0  0  0  0  0  0  0  0  0  0  # atno 10765 bound_to 10752
  140.0326  134.5989  155.9486 H   0  0  0  0  0  0  0  0  0  0  0  0  # atno 11005 bound_to 11000
  145.2708  139.1955  143.4842 LP  0  0  0  0  0  0  0  0  0  0  0  0  # atno 17320 bound_to 7965
  146.3351  140.2654  142.8603 LP  0  0  0  0  0  0  0  0  0  0  0  0  # atno 17321 bound_to 7965
  140.7665  143.5640  150.9067 LP  0  0  0  0  0  0  0  0  0  0  0  0  # atno 17342 bound_to 10162
  139.9315  143.6488  152.3075 LP  0  0  0  0  0  0  0  0  0  0  0  0  # atno 17343 bound_to 10162
  157.3871  130.7262  149.6671 LP  0  0  0  0  0  0  0  0  0  0  0  0  # atno 17370 bound_to 10713
  155.9713  130.4156  150.4191 LP  0  0  0  0  0  0  0  0  0  0  0  0  # atno 17371 bound_to 10713
  141.1840  133.6552  156.5137 LP  0  0  0  0  0  0  0  0  0  0  0  0  # atno 17394 bound_to 11000
  140.4200  134.7196  157.4884 LP  0  0  0  0  0  0  0  0  0  0  0  0  # atno 17395 bound_to 11000

$$$$
