AV-unprocessed.smi:52|AV-procd|sdf|510|dock10
  -GOLD-   2262016383D 1   1.00000     0.00000
 Structure written by MMmdl.
 27 28  0  0  0  0  0  0  0  0  3 V2000
  151.6857  132.8223  157.1862 O   0  0  0  0  0  0  0  0  0  0  0  0
  151.1461  133.7001  156.4773 C   0  0  0  0  0  0  0  0  0  0  0  0
  151.6816  134.8130  156.2799 O   0  5  0  0  0  0  0  0  0  0  0  0
  149.8277  133.4139  155.8559 C   0  0  0  0  0  0  0  0  0  0  0  0
  149.2919  132.1778  155.5961 C   0  0  0  0  0  0  0  0  0  0  0  0
  148.0559  132.3330  155.0289 O   0  0  0  0  0  0  0  0  0  0  0  0
  147.8863  133.6813  154.9623 C   0  0  0  0  0  0  0  0  0  0  0  0
  146.6096  134.2254  154.4124 C   0  0  0  0  0  0  0  0  0  0  0  0
  146.8741  134.3717  152.9615 N   0  3  1  0  0  0  0  0  0  0  0  0
  147.2611  133.1260  152.2492 C   0  0  0  0  0  0  0  0  0  0  0  0
  146.4407  133.0810  150.9538 C   0  0  0  0  0  0  0  0  0  0  0  0
  145.9580  134.5165  150.7701 C   0  0  1  0  0  0  0  0  0  0  0  0
  144.7644  134.5853  150.0196 O   0  0  0  0  0  0  0  0  0  0  0  0
  145.7637  134.9884  152.2087 C   0  0  0  0  0  0  0  0  0  0  0  0
  148.9153  134.3756  155.4410 N   0  0  0  0  0  0  0  0  0  0  0  0
  146.7331  135.1112  150.2843 H   0  0  0  0  0  0  0  0  0  0  0  0
  149.6377  131.1659  155.7485 H   0  0  0  0  0  0  0  0  0  0  0  0
  145.7751  133.5518  154.6120 H   0  0  0  0  0  0  0  0  0  0  0  0
  146.4018  135.1921  154.8727 H   0  0  0  0  0  0  0  0  0  0  0  0
  148.3291  133.1684  152.0334 H   0  0  0  0  0  0  0  0  0  0  0  0
  147.0816  132.2306  152.8464 H   0  0  0  0  0  0  0  0  0  0  0  0
  147.0132  132.7137  150.1017 H   0  0  0  0  0  0  0  0  0  0  0  0
  145.5881  132.4142  151.0938 H   0  0  0  0  0  0  0  0  0  0  0  0
  144.9800  134.5318  149.1007 H   0  0  0  0  0  0  0  0  0  0  0  0
  144.8138  134.6172  152.5987 H   0  0  0  0  0  0  0  0  0  0  0  0
  145.7656  136.0750  152.3011 H   0  0  0  0  0  0  0  0  0  0  0  0
  147.6576  135.0026  152.8692 H   0  0  0  0  0  0  0  0  0  0  0  0
  1  2  2  0  0  0  0
  2  3  1  0  0  0  0
  2  4  1  0  0  0  0
  4 15  1  0  0  0  0
  4  5  2  0  0  0  0
  5  6  1  0  0  0  0
  5 17  1  0  0  0  0
  6  7  1  0  0  0  0
  7  8  1  0  0  0  0
  7 15  2  0  0  0  0
  8  9  1  0  0  0  0
  8 18  1  0  0  0  0
  8 19  1  0  0  0  0
  9 14  1  0  0  0  0
  9 10  1  0  0  0  0
  9 27  1  0  0  0  0
 10 11  1  0  0  0  0
 10 20  1  0  0  0  0
 10 21  1  0  0  0  0
 11 12  1  0  0  0  0
 11 22  1  0  0  0  0
 11 23  1  0  0  0  0
 12 16  1  0  0  0  0
 12 13  1  0  0  0  0
 12 14  1  0  0  0  0
 13 24  1  0  0  0  0
 14 25  1  0  0  0  0
 14 26  1  0  0  0  0
M  CHG  1   3  -1
M  CHG  1   9   1
M  END
> <s_m_source_file>
AV-unprocessed.smi

> <i_m_source_file_index>
52

> <i_lp_mmshare_version>
43012

> <i_f3d_flags>
0

> <s_epik_input>
Tz1DKFtPSF0pYzFbY0hdb2MobjEpW0NIMl1OMltDSDJdW0NIMl1bQ0BIXShbT0hdKVtDSDJdMg==

> <s_epik_cmdline>
J2VwaWtfcHl0aG9uJywgJy1waCcsICc3LjAnLCAnLXRuJywgJzgnLCAnLW1hJywgJzIwMCcsICctbWV0YWxfYmluZGluZycsICctaW1hZScsICc8aW5maWxlLm1hZT4nLCAnLW9tYWUnLCAnPG91dGZpbGUubWFlPic=

> <r_epik_Ionization_Penalty>
0.0376014

> <r_epik_Ionization_Penalty_Charging>
0.0376013

> <r_epik_Ionization_Penalty_Neutral>
1.78687e-08

> <r_epik_State_Penalty>
0.0314164

> <r_epik_Charging_Adjusted_Penalty>
0.0690177

> <i_epik_Tot_Q>
0

> <i_epik_Tot_abs_Q>
2

> <r_epik_Metal_State_Penalty>
0.0314164

> <b_epik_Metal_Only>
0

> <s_lp_Force_Field>
OPLS_2005

> <r_lp_Energy>
19.8896

> <b_lp_Chiralities_Consistent>
1

> <s_lp_Variant>
AV-unprocessed.smi:52-4

> <Gold.Version>
5.8.1

> <Gold.Id.Protein>
6NUR|6NUR_protein|mol2

> <Gold.PLP.Fitness>
36.9263

> <Gold.PLP.PLP>
-18.2131

> <Gold.PLP.part.hbond>
-4.0000

> <Gold.PLP.part.metal>
0.0000

> <Gold.PLP.part.buried>
-2.5334

> <Gold.PLP.part.nonpolar>
-12.4266

> <Gold.PLP.part.repulsive>
0.0630

> <Gold.PLP.ligand.clash>
0.0000

> <Gold.PLP.ligand.torsion>
0.5964

> <Gold.PLP.Chemscore.Hbond>
6.6320

> <Gold.PLP.Chemscore.CHOScore>
0.0000

> <Gold.PLP.Chemscore.Metal>
0.0000

> <Gold.Chemscore.Hbonds>
donor molecule, donor type, donor heavy atom, donor atom, acceptor molecule, acceptor atom, score
      L1  H     9    27       P1  7948  2.00
      L1  H    13    24       P1  7921  1.00
      P1  H  6896  6907       L1     1  1.48
      P1  H 10752 10765       L1     3  1.79

> <Gold.PLP.Chemscore.Internal.Correction>
0.0099

> <Gold.Rescore>
     Score         DG    S(hbond)    S(metal)    S(lipo)     H(rot)  DE(clash)    DE(int)     intcor
     15.69     -16.36       3.61        0.00      33.63       1.99       0.03       0.64       ----

> <Gold.Chemscore.Fitness>
15.6929

> <Gold.Chemscore.DG>
-16.3591

> <Gold.Chemscore.ZeroCoef>
-5.4800

> <Gold.Chemscore.Hbond>
3.6059

> <Gold.Chemscore.Metal>
0.0000

> <Gold.Chemscore.Lipo>
33.6292

> <Gold.Chemscore.Internal_Hbond>
0.0000

> <Gold.Chemscore.DEClash>
0.0256

> <Gold.Chemscore.DEInternal>
0.6407

> <Gold.Chemscore.Rot>
1.9919

> <Gold.Chemscore.Internal.Correction>
   9.000000E+99

> <Gold.Chemscore.Hbonds>
donor molecule, donor type, donor heavy atom, donor atom, acceptor molecule, acceptor atom, score
      L1  H     9    27       P1  7948  0.91
      L1  H    13    24       P1  7921  0.97
      P1  H  6896  6907       L1     1  0.54
      P1  H 10752 10765       L1     3  0.84

> <Gold.Chemscore.Hbond.Weighted>
-12.0437

> <Gold.Chemscore.Metal.Weighted>
-0.0000

> <Gold.Chemscore.Lipo.Weighted>
-3.9346

> <Gold.Chemscore.Internal_Hbond.Weighted>
0.0000

> <Gold.Chemscore.DEClash.Weighted>
0.0256

> <Gold.Chemscore.DEInternal.Weighted>
0.6407

> <Gold.Chemscore.Rot.Weighted>
5.0991

> <Gold.Chemscore.Internal.Correction.Weighted>
   9.000000E+99

> <Gold.Protein.RotatedTorsions>
[ 6907 6896 6895 6894 ] final -171.28 input  -60.11 | X-H torsion
[ 7974 7965 7964 7962 ] final  121.46 input  175.53 | X-H torsion
[ 8008 7997 7996 7995 ] final   45.12 input   59.86 | X-H torsion
[ 10167 10162 10161 10158 ] final   63.51 input  -65.29 | X-H torsion
[ 10718 10713 10712 10709 ] final  130.67 input   66.30 | X-H torsion
[ 10763 10752 10751 10750 ] final -151.05 input  -60.55 | X-H torsion
[ 11005 11000 10999 10996 ] final  -76.56 input  -57.11 | X-H torsion

> <Gold.Protein.ActiveResidues>
 VAL166  LYS551  ARG553  GLY616  TRP617  ASP618  TYR619  PRO620  LYS621  CYS622 
 ASP623  PHE694  ASN695  SER759  ASP760  ASP761  ALA762  ILE779  LEU786  VAL792 
 PHE793  MET794  SER795  GLU796  ALA797  LYS798  CYS799  TRP800  GLU811  SER814 

> <Gold.Protein.RotatedAtoms>
  151.5213  133.3466  159.2901 H   0  0  0  0  0  0  0  0  0  0  0  0  # atno 6907 bound_to 6896
  150.8651  134.8014  159.7123 H   0  0  0  0  0  0  0  0  0  0  0  0  # atno 6908 bound_to 6896
  152.4658  134.5088  159.9799 H   0  0  0  0  0  0  0  0  0  0  0  0  # atno 6909 bound_to 6896
  145.1191  139.3401  143.4723 H   0  0  0  0  0  0  0  0  0  0  0  0  # atno 7974 bound_to 7965
  155.3306  140.3402  155.4239 H   0  0  0  0  0  0  0  0  0  0  0  0  # atno 8008 bound_to 7997
  156.1864  140.1682  156.8214 H   0  0  0  0  0  0  0  0  0  0  0  0  # atno 8009 bound_to 7997
  154.5391  140.0729  156.8461 H   0  0  0  0  0  0  0  0  0  0  0  0  # atno 8010 bound_to 7997
  140.1323  144.4631  150.6858 H   0  0  0  0  0  0  0  0  0  0  0  0  # atno 10167 bound_to 10162
  157.5040  131.1095  150.9387 H   0  0  0  0  0  0  0  0  0  0  0  0  # atno 10718 bound_to 10713
  154.8082  135.3269  154.7376 H   0  0  0  0  0  0  0  0  0  0  0  0  # atno 10763 bound_to 10752
  153.8030  135.6902  153.4857 H   0  0  0  0  0  0  0  0  0  0  0  0  # atno 10764 bound_to 10752
  153.1842  135.4575  155.0012 H   0  0  0  0  0  0  0  0  0  0  0  0  # atno 10765 bound_to 10752
  141.1654  133.6988  156.7687 H   0  0  0  0  0  0  0  0  0  0  0  0  # atno 11005 bound_to 11000
  146.3522  140.1142  142.8602 LP  0  0  0  0  0  0  0  0  0  0  0  0  # atno 17320 bound_to 7965
  145.0761  140.9189  143.4853 LP  0  0  0  0  0  0  0  0  0  0  0  0  # atno 17321 bound_to 7965
  140.6810  143.2326  151.5385 LP  0  0  0  0  0  0  0  0  0  0  0  0  # atno 17342 bound_to 10162
  139.5513  144.2387  152.1536 LP  0  0  0  0  0  0  0  0  0  0  0  0  # atno 17343 bound_to 10162
  157.0048  130.5614  149.5315 LP  0  0  0  0  0  0  0  0  0  0  0  0  # atno 17370 bound_to 10713
  156.0247  130.5341  150.8373 LP  0  0  0  0  0  0  0  0  0  0  0  0  # atno 17371 bound_to 10713
  140.2480  134.8562  157.3639 LP  0  0  0  0  0  0  0  0  0  0  0  0  # atno 17394 bound_to 11000
  140.1731  134.4584  155.7819 LP  0  0  0  0  0  0  0  0  0  0  0  0  # atno 17395 bound_to 11000

$$$$
