AV-unprocessed.smi:676|AV-procd|sdf|3307|dock8
  -GOLD-   22720 0273D 1   1.00000     0.00000
 Structure written by MMmdl.
 42 43  0  0  0  0  0  0  0  0  1 V2000
  152.4393  139.1289  155.1357 C   0  0  0  0  0  0  0  0  0  0  0  0
  151.2797  139.9491  155.0556 O   0  0  0  0  0  0  0  0  0  0  0  0
  150.0041  139.2978  155.1220 C   0  0  1  0  0  0  0  0  0  0  0  0
  149.9266  138.1763  154.0778 C   0  0  0  0  0  0  0  0  0  0  0  0
  149.6354  138.9922  156.5870 C   0  0  0  0  0  0  0  0  0  0  0  0
  149.0032  140.3832  156.6853 C   0  0  1  0  0  0  0  0  0  0  0  0
  149.9459  141.3701  157.2102 N   0  0  0  0  0  0  0  0  0  0  0  0
  150.7926  141.1568  158.2263 C   0  0  0  0  0  0  0  0  0  0  0  0
  150.8721  140.0840  158.8257 O   0  0  0  0  0  0  0  0  0  0  0  0
  151.7051  142.3324  158.6002 C   0  0  0  0  0  0  0  0  0  0  0  0
  152.5330  142.0582  159.7859 N   0  0  0  0  0  0  0  0  0  0  0  0
  152.3283  142.8744  160.9163 C   0  0  0  0  0  0  0  0  0  0  0  0
  153.0317  142.7094  162.0476 C   0  0  0  0  0  0  0  0  0  0  0  0
  154.0209  141.6584  162.0893 C   0  0  0  0  0  0  0  0  0  0  0  0
  154.2275  140.8749  161.0121 C   0  0  0  0  0  0  0  0  0  0  0  0
  153.4649  141.0556  159.7712 C   0  0  0  0  0  0  0  0  0  0  0  0
  153.6512  140.3479  158.7808 O   0  0  0  0  0  0  0  0  0  0  0  0
  148.8894  140.3945  155.1388 C   0  0  0  0  0  0  0  0  0  0  0  0
  149.1878  141.7099  154.4002 C   0  0  0  0  0  0  0  0  0  0  0  0
  147.5090  139.9502  154.6318 C   0  0  0  0  0  0  0  0  0  0  0  0
  153.3178  139.7665  155.2323 H   0  0  0  0  0  0  0  0  0  0  0  0
  152.5735  138.5328  154.2332 H   0  0  0  0  0  0  0  0  0  0  0  0
  152.4205  138.4619  155.9969 H   0  0  0  0  0  0  0  0  0  0  0  0
  148.9349  137.7277  154.0355 H   0  0  0  0  0  0  0  0  0  0  0  0
  150.6150  137.3618  154.3012 H   0  0  0  0  0  0  0  0  0  0  0  0
  150.1597  138.5483  153.0799 H   0  0  0  0  0  0  0  0  0  0  0  0
  148.8947  138.1958  156.6739 H   0  0  0  0  0  0  0  0  0  0  0  0
  150.4671  138.8179  157.2694 H   0  0  0  0  0  0  0  0  0  0  0  0
  148.0350  140.3828  157.1895 H   0  0  0  0  0  0  0  0  0  0  0  0
  149.9540  142.2750  156.7619 H   0  0  0  0  0  0  0  0  0  0  0  0
  152.3336  142.5600  157.7383 H   0  0  0  0  0  0  0  0  0  0  0  0
  151.1055  143.2309  158.7599 H   0  0  0  0  0  0  0  0  0  0  0  0
  151.5759  143.6411  160.8004 H   0  0  0  0  0  0  0  0  0  0  0  0
  152.8650  143.3484  162.9022 H   0  0  0  0  0  0  0  0  0  0  0  0
  154.5980  141.4997  162.9883 H   0  0  0  0  0  0  0  0  0  0  0  0
  154.9715  140.0934  161.0614 H   0  0  0  0  0  0  0  0  0  0  0  0
  148.4359  142.4687  154.6197 H   0  0  0  0  0  0  0  0  0  0  0  0
  149.2015  141.5642  153.3197 H   0  0  0  0  0  0  0  0  0  0  0  0
  150.1528  142.1378  154.6710 H   0  0  0  0  0  0  0  0  0  0  0  0
  146.7447  140.6957  154.8538 H   0  0  0  0  0  0  0  0  0  0  0  0
  147.1837  139.0190  155.0968 H   0  0  0  0  0  0  0  0  0  0  0  0
  147.5063  139.7914  153.5530 H   0  0  0  0  0  0  0  0  0  0  0  0
  1  2  1  0  0  0  0
  1 21  1  0  0  0  0
  1 22  1  0  0  0  0
  1 23  1  0  0  0  0
  2  3  1  0  0  0  0
  3 18  1  0  0  0  0
  3  4  1  0  0  0  0
  3  5  1  0  0  0  0
  4 24  1  0  0  0  0
  4 25  1  0  0  0  0
  4 26  1  0  0  0  0
  5  6  1  0  0  0  0
  5 27  1  0  0  0  0
  5 28  1  0  0  0  0
  6  7  1  0  0  0  0
  6 18  1  0  0  0  0
  6 29  1  0  0  0  0
  7  8  1  0  0  0  0
  7 30  1  0  0  0  0
  8  9  2  0  0  0  0
  8 10  1  0  0  0  0
 10 11  1  0  0  0  0
 10 31  1  0  0  0  0
 10 32  1  0  0  0  0
 11 16  1  0  0  0  0
 11 12  1  0  0  0  0
 12 13  2  0  0  0  0
 12 33  1  0  0  0  0
 13 14  1  0  0  0  0
 13 34  1  0  0  0  0
 14 15  2  0  0  0  0
 14 35  1  0  0  0  0
 15 16  1  0  0  0  0
 15 36  1  0  0  0  0
 16 17  2  0  0  0  0
 18 19  1  0  0  0  0
 18 20  1  0  0  0  0
 19 37  1  0  0  0  0
 19 38  1  0  0  0  0
 19 39  1  0  0  0  0
 20 40  1  0  0  0  0
 20 41  1  0  0  0  0
 20 42  1  0  0  0  0
M  END
> <s_m_source_file>
AV-unprocessed.smi

> <i_m_source_file_index>
676

> <i_lp_mmshare_version>
43012

> <i_f3d_flags>
0

> <s_epik_input>
W0NIM11PW0NAQF0xKFtDSDNdKVtDSDJdW0NASF0oQzEoW0NIM10pW0NIM10pW05IXUMoPU8pW0NIMl1uMltjSF1bY0hdW2NIXVtjSF1jMj1P

> <s_epik_cmdline>
J2VwaWtfcHl0aG9uJywgJy1waCcsICc3LjAnLCAnLXRuJywgJzgnLCAnLW1hJywgJzIwMCcsICctbWV0YWxfYmluZGluZycsICctaW1hZScsICc8aW5maWxlLm1hZT4nLCAnLW9tYWUnLCAnPG91dGZpbGUubWFlPic=

> <r_lp_tautomer_probability>
1

> <r_epik_Ionization_Penalty>
4.09771e-07

> <r_epik_Ionization_Penalty_Charging>
3.90712e-07

> <r_epik_Ionization_Penalty_Neutral>
1.90591e-08

> <r_epik_State_Penalty>
-0

> <r_epik_Charging_Adjusted_Penalty>
3.90712e-07

> <i_epik_Tot_Q>
0

> <i_epik_Tot_abs_Q>
0

> <r_epik_Metal_State_Penalty>
-0

> <b_epik_Metal_Only>
0

> <s_lp_Force_Field>
OPLS_2005

> <r_lp_Energy>
33.6273

> <b_lp_Chiralities_Consistent>
1

> <s_lp_Variant>
AV-unprocessed.smi:676-1

> <Gold.Version>
5.8.1

> <Gold.Id.Protein>
6NUR|6NUR_protein|mol2

> <Gold.PLP.Fitness>
42.6932

> <Gold.PLP.PLP>
-37.6666

> <Gold.PLP.part.hbond>
-2.0000

> <Gold.PLP.part.metal>
0.0000

> <Gold.PLP.part.buried>
0.4167

> <Gold.PLP.part.nonpolar>
-34.9312

> <Gold.PLP.part.repulsive>
0.0749

> <Gold.PLP.ligand.clash>
0.0000

> <Gold.PLP.ligand.torsion>
0.4180

> <Gold.PLP.Chemscore.Hbond>
1.8247

> <Gold.PLP.Chemscore.CHOScore>
0.0000

> <Gold.PLP.Chemscore.Metal>
0.0000

> <Gold.Chemscore.Hbonds>
donor molecule, donor type, donor heavy atom, donor atom, acceptor molecule, acceptor atom, score
      P1  H  7989  7998       L1     2  1.00
      P1  H  7997  8010       L1    17  0.85

> <Gold.PLP.Chemscore.Internal.Correction>
0.3884

> <Gold.Rescore>
     Score         DG    S(hbond)    S(metal)    S(lipo)     H(rot)  DE(clash)    DE(int)     intcor
     12.73     -17.22       1.38        0.00      96.47       1.62       2.62       1.88       ----

> <Gold.Chemscore.Fitness>
12.7292

> <Gold.Chemscore.DG>
-17.2249

> <Gold.Chemscore.ZeroCoef>
-5.4800

> <Gold.Chemscore.Hbond>
1.3768

> <Gold.Chemscore.Metal>
0.0000

> <Gold.Chemscore.Lipo>
96.4724

> <Gold.Chemscore.Internal_Hbond>
0.0000

> <Gold.Chemscore.DEClash>
2.6207

> <Gold.Chemscore.DEInternal>
1.8750

> <Gold.Chemscore.Rot>
1.6175

> <Gold.Chemscore.Internal.Correction>
   9.000000E+99

> <Gold.Chemscore.Hbonds>
donor molecule, donor type, donor heavy atom, donor atom, acceptor molecule, acceptor atom, score
      P1  H  7989  7998       L1     2  0.24
      P1  H  7997  8010       L1    17  0.83

> <Gold.Chemscore.Hbond.Weighted>
-4.5984

> <Gold.Chemscore.Metal.Weighted>
-0.0000

> <Gold.Chemscore.Lipo.Weighted>
-11.2873

> <Gold.Chemscore.Internal_Hbond.Weighted>
0.0000

> <Gold.Chemscore.DEClash.Weighted>
2.6207

> <Gold.Chemscore.DEInternal.Weighted>
1.8750

> <Gold.Chemscore.Rot.Weighted>
4.1408

> <Gold.Chemscore.Internal.Correction.Weighted>
   9.000000E+99

> <Gold.Protein.RotatedTorsions>
[ 6907 6896 6895 6894 ] final  173.84 input  -60.11 | X-H torsion
[ 7974 7965 7964 7962 ] final    9.97 input  175.53 | X-H torsion
[ 8008 7997 7996 7995 ] final   20.25 input   59.86 | X-H torsion
[ 10167 10162 10161 10158 ] final  -17.27 input  -65.29 | X-H torsion
[ 10718 10713 10712 10709 ] final   44.55 input   66.30 | X-H torsion
[ 10763 10752 10751 10750 ] final   43.37 input  -60.55 | X-H torsion
[ 11005 11000 10999 10996 ] final   16.77 input  -57.11 | X-H torsion

> <Gold.Protein.ActiveResidues>
 VAL166  LYS551  ARG553  GLY616  TRP617  ASP618  TYR619  PRO620  LYS621  CYS622 
 ASP623  PHE694  ASN695  SER759  ASP760  ASP761  ALA762  ILE779  LEU786  VAL792 
 PHE793  MET794  SER795  GLU796  ALA797  LYS798  CYS799  TRP800  GLU811  SER814 

> <Gold.Protein.RotatedAtoms>
  151.7618  133.3334  159.3419 H   0  0  0  0  0  0  0  0  0  0  0  0  # atno 6907 bound_to 6896
  150.7495  134.6098  159.6090 H   0  0  0  0  0  0  0  0  0  0  0  0  # atno 6908 bound_to 6896
  152.3400  134.7149  160.0318 H   0  0  0  0  0  0  0  0  0  0  0  0  # atno 6909 bound_to 6896
  146.2396  139.9704  142.8447 H   0  0  0  0  0  0  0  0  0  0  0  0  # atno 7974 bound_to 7965
  154.9329  140.3042  155.5159 H   0  0  0  0  0  0  0  0  0  0  0  0  # atno 8008 bound_to 7997
  156.3002  140.2350  156.4327 H   0  0  0  0  0  0  0  0  0  0  0  0  # atno 8009 bound_to 7997
  154.8220  140.0423  157.1406 H   0  0  0  0  0  0  0  0  0  0  0  0  # atno 8010 bound_to 7997
  140.7245  143.5033  150.9842 H   0  0  0  0  0  0  0  0  0  0  0  0  # atno 10167 bound_to 10162
  157.4280  130.8008  149.7576 H   0  0  0  0  0  0  0  0  0  0  0  0  # atno 10718 bound_to 10713
  152.9862  135.6103  154.3101 H   0  0  0  0  0  0  0  0  0  0  0  0  # atno 10763 bound_to 10752
  154.2817  135.2777  155.2696 H   0  0  0  0  0  0  0  0  0  0  0  0  # atno 10764 bound_to 10752
  154.5032  135.5861  153.6603 H   0  0  0  0  0  0  0  0  0  0  0  0  # atno 10765 bound_to 10752
  140.4434  134.1298  155.7693 H   0  0  0  0  0  0  0  0  0  0  0  0  # atno 11005 bound_to 11000
  145.1686  140.9709  143.4335 LP  0  0  0  0  0  0  0  0  0  0  0  0  # atno 17320 bound_to 7965
  145.0049  139.3563  143.6149 LP  0  0  0  0  0  0  0  0  0  0  0  0  # atno 17321 bound_to 7965
  139.8743  143.7152  152.3163 LP  0  0  0  0  0  0  0  0  0  0  0  0  # atno 17342 bound_to 10162
  139.7412  144.7559  151.0649 LP  0  0  0  0  0  0  0  0  0  0  0  0  # atno 17343 bound_to 10162
  155.9903  130.3945  150.3034 LP  0  0  0  0  0  0  0  0  0  0  0  0  # atno 17370 bound_to 10713
  157.1188  131.0241  151.3018 LP  0  0  0  0  0  0  0  0  0  0  0  0  # atno 17371 bound_to 10713
  141.1696  133.8636  157.1612 LP  0  0  0  0  0  0  0  0  0  0  0  0  # atno 17394 bound_to 11000
  140.0055  135.0010  157.0282 LP  0  0  0  0  0  0  0  0  0  0  0  0  # atno 17395 bound_to 11000

$$$$
