AV-unprocessed.smi:1165|AV-procd|sdf|4932|dock7
  -GOLD-   22720 3513D 1   1.00000     0.00000
 Structure written by MMmdl.
 40 41  0  0  0  0  0  0  0  0  2 V2000
  145.9506  142.8637  154.7849 C   0  0  0  0  0  0  0  0  0  0  0  0
  147.0906  142.0133  154.2140 C   0  0  1  0  0  0  0  0  0  0  0  0
  148.1440  141.6674  155.2821 C   0  0  0  0  0  0  0  0  0  0  0  0
  149.1654  140.7483  154.7533 N   0  0  0  0  0  0  0  0  0  0  0  0
  150.5420  140.4542  155.7706 S   0  0  0  0  0  0  0  0  0  0  0  0
  150.0822  139.5710  156.8546 O   0  0  0  0  0  0  0  0  0  0  0  0
  151.5949  139.9459  154.8757 O   0  0  0  0  0  0  0  0  0  0  0  0
  150.7671  141.9819  156.2700 N   0  5  0  0  0  0  0  0  0  0  0  0
  150.8233  142.2668  157.6953 C   0  0  0  0  0  0  0  0  0  0  0  0
  152.2821  142.5091  158.1475 C   0  0  0  0  0  0  0  0  0  0  0  0
  152.4691  142.7410  159.6433 C   0  0  0  0  0  0  0  0  0  0  0  0
  151.9687  143.9003  160.2756 C   0  0  0  0  0  0  0  0  0  0  0  0
  152.1656  144.0588  161.6606 C   0  0  0  0  0  0  0  0  0  0  0  0
  152.8594  143.0504  162.3584 C   0  0  0  0  0  0  0  0  0  0  0  0
  153.3539  141.9426  161.7661 N   0  0  0  0  0  0  0  0  0  0  0  0
  153.1603  141.7990  160.4376 C   0  0  0  0  0  0  0  0  0  0  0  0
  148.5854  139.5874  154.0489 C   0  0  0  0  0  0  0  0  0  0  0  0
  147.5069  140.0180  153.0395 C   0  0  1  0  0  0  0  0  0  0  0  0
  146.7968  138.8129  152.4129 C   0  0  0  0  0  0  0  0  0  0  0  0
  146.5314  140.8166  153.6931 O   0  0  0  0  0  0  0  0  0  0  0  0
  146.3265  143.8059  155.1849 H   0  0  0  0  0  0  0  0  0  0  0  0
  145.4329  142.3412  155.5895 H   0  0  0  0  0  0  0  0  0  0  0  0
  145.2169  143.0991  154.0138 H   0  0  0  0  0  0  0  0  0  0  0  0
  147.5626  142.5723  153.4039 H   0  0  0  0  0  0  0  0  0  0  0  0
  148.6200  142.5833  155.6321 H   0  0  0  0  0  0  0  0  0  0  0  0
  147.6705  141.2015  156.1473 H   0  0  0  0  0  0  0  0  0  0  0  0
  150.2390  143.1555  157.9340 H   0  0  0  0  0  0  0  0  0  0  0  0
  150.3898  141.4666  158.2964 H   0  0  0  0  0  0  0  0  0  0  0  0
  152.9050  141.6681  157.8397 H   0  0  0  0  0  0  0  0  0  0  0  0
  152.6773  143.3776  157.6200 H   0  0  0  0  0  0  0  0  0  0  0  0
  151.4364  144.6510  159.7104 H   0  0  0  0  0  0  0  0  0  0  0  0
  151.7904  144.9303  162.1759 H   0  0  0  0  0  0  0  0  0  0  0  0
  153.0263  143.1387  163.4217 H   0  0  0  0  0  0  0  0  0  0  0  0
  153.5672  140.9022  159.9947 H   0  0  0  0  0  0  0  0  0  0  0  0
  149.3650  139.0371  153.5244 H   0  0  0  0  0  0  0  0  0  0  0  0
  148.1610  138.9071  154.7884 H   0  0  0  0  0  0  0  0  0  0  0  0
  147.9691  140.5984  152.2391 H   0  0  0  0  0  0  0  0  0  0  0  0
  147.5042  138.1713  151.8870 H   0  0  0  0  0  0  0  0  0  0  0  0
  146.0420  139.1344  151.6951 H   0  0  0  0  0  0  0  0  0  0  0  0
  146.2992  138.2096  153.1728 H   0  0  0  0  0  0  0  0  0  0  0  0
  1  2  1  0  0  0  0
  1 21  1  0  0  0  0
  1 22  1  0  0  0  0
  1 23  1  0  0  0  0
  2 20  1  0  0  0  0
  2  3  1  0  0  0  0
  2 24  1  0  0  0  0
  3  4  1  0  0  0  0
  3 25  1  0  0  0  0
  3 26  1  0  0  0  0
  4  5  1  0  0  0  0
  4 17  1  0  0  0  0
  5  6  2  0  0  0  0
  5  7  2  0  0  0  0
  5  8  1  0  0  0  0
  8  9  1  0  0  0  0
  9 10  1  0  0  0  0
  9 27  1  0  0  0  0
  9 28  1  0  0  0  0
 10 11  1  0  0  0  0
 10 29  1  0  0  0  0
 10 30  1  0  0  0  0
 11 16  1  0  0  0  0
 11 12  2  0  0  0  0
 12 13  1  0  0  0  0
 12 31  1  0  0  0  0
 13 14  2  0  0  0  0
 13 32  1  0  0  0  0
 14 15  1  0  0  0  0
 14 33  1  0  0  0  0
 15 16  2  0  0  0  0
 16 34  1  0  0  0  0
 17 18  1  0  0  0  0
 17 35  1  0  0  0  0
 17 36  1  0  0  0  0
 18 19  1  0  0  0  0
 18 20  1  0  0  0  0
 18 37  1  0  0  0  0
 19 38  1  0  0  0  0
 19 39  1  0  0  0  0
 19 40  1  0  0  0  0
M  CHG  1   8  -1
M  END
> <s_m_source_file>
AV-unprocessed.smi

> <i_m_source_file_index>
1165

> <i_lp_mmshare_version>
43012

> <i_f3d_flags>
0

> <s_epik_input>
W0NIM11bQ0BASF0xW0NIMl1OKFtDSDJdW0NASF0oTzEpW0NIM10pUyg9TykoPU8pW05IXVtDSDJdW0NIMl1jMltjSF1bY0hdW2NIXW5bY0hdMg==

> <s_epik_cmdline>
J2VwaWtfcHl0aG9uJywgJy1waCcsICc3LjAnLCAnLXRuJywgJzgnLCAnLW1hJywgJzIwMCcsICctbWV0YWxfYmluZGluZycsICctaW1hZScsICc8aW5maWxlLm1hZT4nLCAnLW9tYWUnLCAnPG91dGZpbGUubWFlPic=

> <r_epik_Ionization_Penalty>
1.23471

> <r_epik_Ionization_Penalty_Charging>
1.20871

> <r_epik_Ionization_Penalty_Neutral>
0.025996

> <r_epik_State_Penalty>
1.46261

> <r_epik_Charging_Adjusted_Penalty>
2.67132

> <i_epik_Tot_Q>
-1

> <i_epik_Tot_abs_Q>
1

> <r_epik_Metal_State_Penalty>
0.521406

> <b_epik_Metal_Only>
0

> <s_lp_Force_Field>
OPLS_2005

> <r_lp_Energy>
1.53282

> <b_lp_Chiralities_Consistent>
1

> <s_lp_Variant>
AV-unprocessed.smi:1165-5

> <Gold.Version>
5.8.1

> <Gold.Id.Protein>
6NUR|6NUR_protein|mol2

> <Gold.PLP.Fitness>
44.9145

> <Gold.PLP.PLP>
-42.5571

> <Gold.PLP.part.hbond>
-1.0000

> <Gold.PLP.part.metal>
0.0000

> <Gold.PLP.part.buried>
-3.3471

> <Gold.PLP.part.nonpolar>
-38.4339

> <Gold.PLP.part.repulsive>
0.6057

> <Gold.PLP.ligand.clash>
0.0000

> <Gold.PLP.ligand.torsion>
1.0508

> <Gold.PLP.Chemscore.Hbond>
1.0000

> <Gold.PLP.Chemscore.CHOScore>
0.0000

> <Gold.PLP.Chemscore.Metal>
0.0000

> <Gold.Chemscore.Hbonds>
donor molecule, donor type, donor heavy atom, donor atom, acceptor molecule, acceptor atom, score
      P1  H  7989  7998       L1     7  1.00

> <Gold.PLP.Chemscore.Internal.Correction>
1.4590

> <Gold.Rescore>
     Score         DG    S(hbond)    S(metal)    S(lipo)     H(rot)  DE(clash)    DE(int)     intcor
     15.75     -17.71       0.80        0.00     113.75       1.47       0.93       1.02       ----

> <Gold.Chemscore.Fitness>
15.7519

> <Gold.Chemscore.DG>
-17.7051

> <Gold.Chemscore.ZeroCoef>
-5.4800

> <Gold.Chemscore.Hbond>
0.8047

> <Gold.Chemscore.Metal>
0.0000

> <Gold.Chemscore.Lipo>
113.7497

> <Gold.Chemscore.Internal_Hbond>
0.0000

> <Gold.Chemscore.DEClash>
0.9321

> <Gold.Chemscore.DEInternal>
1.0211

> <Gold.Chemscore.Rot>
1.4731

> <Gold.Chemscore.Internal.Correction>
   9.000000E+99

> <Gold.Chemscore.Hbonds>
donor molecule, donor type, donor heavy atom, donor atom, acceptor molecule, acceptor atom, score
      P1  H  7989  7998       L1     7  0.73

> <Gold.Chemscore.Hbond.Weighted>
-2.6876

> <Gold.Chemscore.Metal.Weighted>
-0.0000

> <Gold.Chemscore.Lipo.Weighted>
-13.3087

> <Gold.Chemscore.Internal_Hbond.Weighted>
0.0000

> <Gold.Chemscore.DEClash.Weighted>
0.9321

> <Gold.Chemscore.DEInternal.Weighted>
1.0211

> <Gold.Chemscore.Rot.Weighted>
3.7712

> <Gold.Chemscore.Internal.Correction.Weighted>
   9.000000E+99

> <Gold.Protein.RotatedTorsions>
[ 6907 6896 6895 6894 ] final    4.59 input  -60.11 | X-H torsion
[ 7974 7965 7964 7962 ] final  -57.89 input  175.53 | X-H torsion
[ 8008 7997 7996 7995 ] final  -44.06 input   59.86 | X-H torsion
[ 10167 10162 10161 10158 ] final  147.05 input  -65.29 | X-H torsion
[ 10718 10713 10712 10709 ] final -105.87 input   66.30 | X-H torsion
[ 10763 10752 10751 10750 ] final  -44.37 input  -60.55 | X-H torsion
[ 11005 11000 10999 10996 ] final   68.25 input  -57.11 | X-H torsion

> <Gold.Protein.ActiveResidues>
 VAL166  LYS551  ARG553  GLY616  TRP617  ASP618  TYR619  PRO620  LYS621  CYS622 
 ASP623  PHE694  ASN695  SER759  ASP760  ASP761  ALA762  ILE779  LEU786  VAL792 
 PHE793  MET794  SER795  GLU796  ALA797  LYS798  CYS799  TRP800  GLU811  SER814 

> <Gold.Protein.RotatedAtoms>
  151.6437  135.1010  160.0146 H   0  0  0  0  0  0  0  0  0  0  0  0  # atno 6907 bound_to 6896
  152.4040  133.6856  159.6349 H   0  0  0  0  0  0  0  0  0  0  0  0  # atno 6908 bound_to 6896
  150.7936  133.8659  159.3286 H   0  0  0  0  0  0  0  0  0  0  0  0  # atno 6909 bound_to 6896
  145.8458  140.8386  143.0011 H   0  0  0  0  0  0  0  0  0  0  0  0  # atno 7974 bound_to 7965
  154.3997  140.1432  156.3621 H   0  0  0  0  0  0  0  0  0  0  0  0  # atno 8008 bound_to 7997
  155.8171  140.3471  155.5471 H   0  0  0  0  0  0  0  0  0  0  0  0  # atno 8009 bound_to 7997
  155.8326  140.0914  157.1773 H   0  0  0  0  0  0  0  0  0  0  0  0  # atno 8010 bound_to 7997
  139.4896  144.5784  151.6920 H   0  0  0  0  0  0  0  0  0  0  0  0  # atno 10167 bound_to 10162
  156.0365  130.5584  150.7600 H   0  0  0  0  0  0  0  0  0  0  0  0  # atno 10718 bound_to 10713
  154.0110  135.6681  153.4765 H   0  0  0  0  0  0  0  0  0  0  0  0  # atno 10763 bound_to 10752
  153.0621  135.5022  154.8113 H   0  0  0  0  0  0  0  0  0  0  0  0  # atno 10764 bound_to 10752
  154.6996  135.3076  154.9325 H   0  0  0  0  0  0  0  0  0  0  0  0  # atno 10765 bound_to 10752
  139.9723  134.6880  156.0423 H   0  0  0  0  0  0  0  0  0  0  0  0  # atno 11005 bound_to 11000
  144.6731  140.0879  143.7466 LP  0  0  0  0  0  0  0  0  0  0  0  0  # atno 17320 bound_to 7965
  145.9414  139.2671  143.1266 LP  0  0  0  0  0  0  0  0  0  0  0  0  # atno 17321 bound_to 7965
  140.5385  144.0617  150.6079 LP  0  0  0  0  0  0  0  0  0  0  0  0  # atno 17342 bound_to 10162
  140.3632  143.2896  152.0361 LP  0  0  0  0  0  0  0  0  0  0  0  0  # atno 17343 bound_to 10162
  157.5122  131.0926  151.0184 LP  0  0  0  0  0  0  0  0  0  0  0  0  # atno 17370 bound_to 10713
  157.0537  130.5797  149.5374 LP  0  0  0  0  0  0  0  0  0  0  0  0  # atno 17371 bound_to 10713
  141.1402  133.6566  156.3707 LP  0  0  0  0  0  0  0  0  0  0  0  0  # atno 17394 bound_to 11000
  140.5268  134.6251  157.5337 LP  0  0  0  0  0  0  0  0  0  0  0  0  # atno 17395 bound_to 11000

$$$$
