AV-unprocessed.smi:2356|AV-procd|sdf|9394|dock5
  -GOLD-   2272013 23D 1   1.00000     0.00000
 Structure written by MMmdl.
 53 56  0  0  0  0  0  0  0  0  1 V2000
  149.0261  140.0586  154.3077 C   0  0  0  0  0  0  0  0  0  0  0  0
  149.8538  139.7849  155.5521 C   0  0  0  0  0  0  0  0  0  0  0  0
  150.4549  140.8653  156.0952 N   0  0  0  0  0  0  0  0  0  0  0  0
  151.2172  140.7123  157.2031 C   0  0  0  0  0  0  0  0  0  0  0  0
  151.8245  141.8692  157.7316 N   0  0  0  0  0  0  0  0  0  0  0  0
  151.3458  143.2052  157.4160 C   0  0  0  0  0  0  0  0  0  0  0  0
  152.1643  144.1349  158.3110 C   0  0  0  0  0  0  0  0  0  0  0  0
  152.4238  143.2826  159.5529 C   0  0  0  0  0  0  0  0  0  0  0  0
  152.5291  141.8541  159.0078 C   0  0  0  0  0  0  0  0  0  0  0  0
  151.3950  139.4476  157.8113 C   0  0  0  0  0  0  0  0  0  0  0  0
  150.7681  138.3207  157.2474 C   0  0  0  0  0  0  0  0  0  0  0  0
  149.9675  138.4827  156.0932 C   0  0  0  0  0  0  0  0  0  0  0  0
  149.3146  137.4059  155.4336 N   0  0  0  0  0  0  0  0  0  0  0  0
  149.7636  136.1588  155.1922 C   0  0  0  0  0  0  0  0  0  0  0  0
  150.8786  135.7430  155.4996 O   0  0  0  0  0  0  0  0  0  0  0  0
  148.8627  135.3606  154.5894 N   0  0  0  0  0  0  0  0  0  0  0  0
  149.0222  133.9602  154.1883 C   0  0  1  0  0  0  0  0  0  0  0  0
  149.6319  133.1451  155.3376 C   0  0  0  0  0  0  0  0  0  0  0  0
  149.6948  131.6536  154.9659 C   0  0  0  0  0  0  0  0  0  0  0  0
  148.3986  131.1786  154.6134 O   0  0  0  0  0  0  0  0  0  0  0  0
  147.8491  131.8388  153.4766 C   0  0  1  0  0  0  0  0  0  0  0  0
  146.5296  131.1813  153.1256 C   0  0  0  0  0  0  0  0  0  0  0  0
  146.4892  129.8334  152.4432 C   0  0  0  0  0  0  0  0  0  0  0  0
  146.0895  131.0746  151.6833 C   0  0  0  0  0  0  0  0  0  0  0  0
  147.6728  133.3328  153.7979 C   0  0  0  0  0  0  0  0  0  0  0  0
  147.9735  139.8527  154.5021 H   0  0  0  0  0  0  0  0  0  0  0  0
  149.3550  139.4273  153.4818 H   0  0  0  0  0  0  0  0  0  0  0  0
  149.1118  141.0985  153.9897 H   0  0  0  0  0  0  0  0  0  0  0  0
  151.4815  143.4448  156.3609 H   0  0  0  0  0  0  0  0  0  0  0  0
  150.2840  143.2765  157.6556 H   0  0  0  0  0  0  0  0  0  0  0  0
  153.1114  144.3763  157.8264 H   0  0  0  0  0  0  0  0  0  0  0  0
  151.6504  145.0703  158.5330 H   0  0  0  0  0  0  0  0  0  0  0  0
  153.3119  143.5915  160.1045 H   0  0  0  0  0  0  0  0  0  0  0  0
  151.5691  143.3537  160.2269 H   0  0  0  0  0  0  0  0  0  0  0  0
  152.1046  141.1373  159.7115 H   0  0  0  0  0  0  0  0  0  0  0  0
  153.5703  141.5832  158.8303 H   0  0  0  0  0  0  0  0  0  0  0  0
  152.0039  139.3220  158.6938 H   0  0  0  0  0  0  0  0  0  0  0  0
  150.9275  137.3555  157.7021 H   0  0  0  0  0  0  0  0  0  0  0  0
  148.3500  137.5751  155.1889 H   0  0  0  0  0  0  0  0  0  0  0  0
  147.9577  135.7682  154.4035 H   0  0  0  0  0  0  0  0  0  0  0  0
  149.7060  133.9026  153.3392 H   0  0  0  0  0  0  0  0  0  0  0  0
  150.6303  133.5131  155.5772 H   0  0  0  0  0  0  0  0  0  0  0  0
  149.0294  133.2640  156.2394 H   0  0  0  0  0  0  0  0  0  0  0  0
  150.3891  131.4887  154.1405 H   0  0  0  0  0  0  0  0  0  0  0  0
  150.0643  131.0728  155.8112 H   0  0  0  0  0  0  0  0  0  0  0  0
  148.5285  131.7234  152.6299 H   0  0  0  0  0  0  0  0  0  0  0  0
  145.7363  131.3777  153.8447 H   0  0  0  0  0  0  0  0  0  0  0  0
  147.4371  129.3680  152.1803 H   0  0  0  0  0  0  0  0  0  0  0  0
  145.6983  129.1460  152.7364 H   0  0  0  0  0  0  0  0  0  0  0  0
  145.0321  131.2177  151.4703 H   0  0  0  0  0  0  0  0  0  0  0  0
  146.7724  131.4366  150.9169 H   0  0  0  0  0  0  0  0  0  0  0  0
  146.9591  133.4507  154.6148 H   0  0  0  0  0  0  0  0  0  0  0  0
  147.2444  133.8455  152.9371 H   0  0  0  0  0  0  0  0  0  0  0  0
  1  2  1  0  0  0  0
  1 26  1  0  0  0  0
  1 27  1  0  0  0  0
  1 28  1  0  0  0  0
  2 12  1  0  0  0  0
  2  3  2  0  0  0  0
  3  4  1  0  0  0  0
  4  5  1  0  0  0  0
  4 10  2  0  0  0  0
  5  9  1  0  0  0  0
  5  6  1  0  0  0  0
  6  7  1  0  0  0  0
  6 29  1  0  0  0  0
  6 30  1  0  0  0  0
  7  8  1  0  0  0  0
  7 31  1  0  0  0  0
  7 32  1  0  0  0  0
  8  9  1  0  0  0  0
  8 33  1  0  0  0  0
  8 34  1  0  0  0  0
  9 35  1  0  0  0  0
  9 36  1  0  0  0  0
 10 11  1  0  0  0  0
 10 37  1  0  0  0  0
 11 12  2  0  0  0  0
 11 38  1  0  0  0  0
 12 13  1  0  0  0  0
 13 14  1  0  0  0  0
 13 39  1  0  0  0  0
 14 15  2  0  0  0  0
 14 16  1  0  0  0  0
 16 17  1  0  0  0  0
 16 40  1  0  0  0  0
 17 25  1  0  0  0  0
 17 18  1  0  0  0  0
 17 41  1  0  0  0  0
 18 19  1  0  0  0  0
 18 42  1  0  0  0  0
 18 43  1  0  0  0  0
 19 20  1  0  0  0  0
 19 44  1  0  0  0  0
 19 45  1  0  0  0  0
 20 21  1  0  0  0  0
 21 22  1  0  0  0  0
 21 25  1  0  0  0  0
 21 46  1  0  0  0  0
 22 24  1  0  0  0  0
 22 23  1  0  0  0  0
 22 47  1  0  0  0  0
 23 24  1  0  0  0  0
 23 48  1  0  0  0  0
 23 49  1  0  0  0  0
 24 50  1  0  0  0  0
 24 51  1  0  0  0  0
 25 52  1  0  0  0  0
 25 53  1  0  0  0  0
M  END
> <s_m_source_file>
AV-unprocessed.smi

> <i_m_source_file_index>
2356

> <i_lp_mmshare_version>
43012

> <i_f3d_flags>
0

> <s_epik_input>
W0NIMl0xW0NIMl1bQ0gyXVtDSDJdTjFjKG5jMltDSDNdKVtjSF1bY0hdYzJbTkhdQyg9TylbTkhdW0NAQEhdM1tDSDJdW0NIMl1PW0NASF0oW0NIMl0zKVtDSF00W0NIMl1bQ0gyXTQ=

> <s_epik_cmdline>
J2VwaWtfcHl0aG9uJywgJy1waCcsICc3LjAnLCAnLXRuJywgJzgnLCAnLW1hJywgJzIwMCcsICctbWV0YWxfYmluZGluZycsICctaW1hZScsICc8aW5maWxlLm1hZT4nLCAnLW9tYWUnLCAnPG91dGZpbGUubWFlPic=

> <r_lp_tautomer_probability>
1

> <r_epik_Ionization_Penalty>
0.308781

> <r_epik_Ionization_Penalty_Charging>
0

> <r_epik_Ionization_Penalty_Neutral>
0.308781

> <r_epik_State_Penalty>
0.302092

> <r_epik_Charging_Adjusted_Penalty>
0.302092

> <i_epik_Tot_Q>
0

> <i_epik_Tot_abs_Q>
0

> <r_epik_Metal_State_Penalty>
0.197467

> <b_epik_Metal_Only>
0

> <s_lp_Force_Field>
OPLS_2005

> <r_lp_Energy>
52.5469

> <b_lp_Chiralities_Consistent>
1

> <s_lp_Variant>
AV-unprocessed.smi:2356-2

> <Gold.Version>
5.8.1

> <Gold.Id.Protein>
6NUR|6NUR_protein|mol2

> <Gold.PLP.Fitness>
44.4164

> <Gold.PLP.PLP>
-42.3750

> <Gold.PLP.part.hbond>
-2.0000

> <Gold.PLP.part.metal>
0.0000

> <Gold.PLP.part.buried>
-4.0939

> <Gold.PLP.part.nonpolar>
-35.9242

> <Gold.PLP.part.repulsive>
0.1943

> <Gold.PLP.ligand.clash>
0.0000

> <Gold.PLP.ligand.torsion>
1.1132

> <Gold.PLP.Chemscore.Hbond>
1.0000

> <Gold.PLP.Chemscore.CHOScore>
0.0000

> <Gold.PLP.Chemscore.Metal>
0.0000

> <Gold.Chemscore.Hbonds>
donor molecule, donor type, donor heavy atom, donor atom, acceptor molecule, acceptor atom, score
      P1  H 10752 10763       L1    15  0.50

> <Gold.PLP.Chemscore.Internal.Correction>
1.2679

> <Gold.Rescore>
     Score         DG    S(hbond)    S(metal)    S(lipo)     H(rot)  DE(clash)    DE(int)     intcor
     16.60     -19.56       1.00        0.00     116.71       1.14       0.09       2.87       ----

> <Gold.Chemscore.Fitness>
16.5964

> <Gold.Chemscore.DG>
-19.5554

> <Gold.Chemscore.ZeroCoef>
-5.4800

> <Gold.Chemscore.Hbond>
0.9994

> <Gold.Chemscore.Metal>
0.0000

> <Gold.Chemscore.Lipo>
116.7062

> <Gold.Chemscore.Internal_Hbond>
0.0000

> <Gold.Chemscore.DEClash>
0.0933

> <Gold.Chemscore.DEInternal>
2.8658

> <Gold.Chemscore.Rot>
1.1395

> <Gold.Chemscore.Internal.Correction>
   9.000000E+99

> <Gold.Chemscore.Hbonds>
donor molecule, donor type, donor heavy atom, donor atom, acceptor molecule, acceptor atom, score
      P1  H 10752 10763       L1    15  0.50

> <Gold.Chemscore.Hbond.Weighted>
-3.3379

> <Gold.Chemscore.Metal.Weighted>
-0.0000

> <Gold.Chemscore.Lipo.Weighted>
-13.6546

> <Gold.Chemscore.Internal_Hbond.Weighted>
0.0000

> <Gold.Chemscore.DEClash.Weighted>
0.0933

> <Gold.Chemscore.DEInternal.Weighted>
2.8658

> <Gold.Chemscore.Rot.Weighted>
2.9171

> <Gold.Chemscore.Internal.Correction.Weighted>
   9.000000E+99

> <Gold.Protein.RotatedTorsions>
[ 6907 6896 6895 6894 ] final  -62.42 input  -60.11 | X-H torsion
[ 7974 7965 7964 7962 ] final -106.64 input  175.53 | X-H torsion
[ 8008 7997 7996 7995 ] final   12.09 input   59.86 | X-H torsion
[ 10167 10162 10161 10158 ] final  104.27 input  -65.29 | X-H torsion
[ 10718 10713 10712 10709 ] final  -31.97 input   66.30 | X-H torsion
[ 10763 10752 10751 10750 ] final   71.75 input  -60.55 | X-H torsion
[ 11005 11000 10999 10996 ] final -127.60 input  -57.11 | X-H torsion

> <Gold.Protein.ActiveResidues>
 VAL166  LYS551  ARG553  GLY616  TRP617  ASP618  TYR619  PRO620  LYS621  CYS622 
 ASP623  PHE694  ASN695  SER759  ASP760  ASP761  ALA762  ILE779  LEU786  VAL792 
 PHE793  MET794  SER795  GLU796  ALA797  LYS798  CYS799  TRP800  GLU811  SER814 

> <Gold.Protein.RotatedAtoms>
  150.7717  134.6572  159.6319 H   0  0  0  0  0  0  0  0  0  0  0  0  # atno 6907 bound_to 6896
  152.3771  134.6643  160.0165 H   0  0  0  0  0  0  0  0  0  0  0  0  # atno 6908 bound_to 6896
  151.6985  133.3274  159.3297 H   0  0  0  0  0  0  0  0  0  0  0  0  # atno 6909 bound_to 6896
  145.2153  140.9113  143.3291 H   0  0  0  0  0  0  0  0  0  0  0  0  # atno 7974 bound_to 7965
  154.8159  140.2876  155.5821 H   0  0  0  0  0  0  0  0  0  0  0  0  # atno 8008 bound_to 7997
  156.2993  140.2559  156.2986 H   0  0  0  0  0  0  0  0  0  0  0  0  # atno 8009 bound_to 7997
  154.9394  140.0381  157.2078 H   0  0  0  0  0  0  0  0  0  0  0  0  # atno 8010 bound_to 7997
  139.7191  144.7062  151.0902 H   0  0  0  0  0  0  0  0  0  0  0  0  # atno 10167 bound_to 10162
  156.3807  130.4355  149.7471 H   0  0  0  0  0  0  0  0  0  0  0  0  # atno 10718 bound_to 10713
  153.0417  135.5125  154.7640 H   0  0  0  0  0  0  0  0  0  0  0  0  # atno 10763 bound_to 10752
  154.6572  135.2933  154.9915 H   0  0  0  0  0  0  0  0  0  0  0  0  # atno 10764 bound_to 10752
  154.0778  135.6668  153.4886 H   0  0  0  0  0  0  0  0  0  0  0  0  # atno 10765 bound_to 10752
  140.9586  134.0967  157.3991 H   0  0  0  0  0  0  0  0  0  0  0  0  # atno 11005 bound_to 11000
  144.9817  139.3777  143.6259 LP  0  0  0  0  0  0  0  0  0  0  0  0  # atno 17320 bound_to 7965
  146.3388  139.8960  142.8801 LP  0  0  0  0  0  0  0  0  0  0  0  0  # atno 17321 bound_to 7965
  140.7750  143.5190  150.9560 LP  0  0  0  0  0  0  0  0  0  0  0  0  # atno 17342 bound_to 10162
  139.8876  143.6993  152.3149 LP  0  0  0  0  0  0  0  0  0  0  0  0  # atno 17343 bound_to 10162
  156.4563  130.7930  151.2951 LP  0  0  0  0  0  0  0  0  0  0  0  0  # atno 17370 bound_to 10713
  157.7492  131.0080  150.3210 LP  0  0  0  0  0  0  0  0  0  0  0  0  # atno 17371 bound_to 10713
  139.8870  135.0086  156.6536 LP  0  0  0  0  0  0  0  0  0  0  0  0  # atno 17394 bound_to 11000
  140.7500  133.8905  155.8340 LP  0  0  0  0  0  0  0  0  0  0  0  0  # atno 17395 bound_to 11000

$$$$
