AV-unprocessed.smi:2845|AV-procd|sdf|10947|dock3
  -GOLD-   2272015393D 1   1.00000     0.00000
 Structure written by MMmdl.
 43 45  0  0  0  0  0  0  0  0  2 V2000
  152.3992  143.4880  161.3762 C   0  0  0  0  0  0  0  0  0  0  0  0
  152.1816  142.7568  160.0623 C   0  0  0  0  0  0  0  0  0  0  0  0
  151.2969  143.3208  159.1152 C   0  0  0  0  0  0  0  0  0  0  0  0
  151.1197  142.6296  157.9226 C   0  0  0  0  0  0  0  0  0  0  0  0
  150.3316  142.9168  156.8057 N   0  3  0  0  0  0  0  0  0  0  0  0
  150.4887  141.9354  155.8745 C   0  0  0  0  0  0  0  0  0  0  0  0
  151.3649  141.0264  156.3814 N   0  0  0  0  0  0  0  0  0  0  0  0
  151.8839  139.7869  155.7898 C   0  0  0  0  0  0  0  0  0  0  0  0
  151.2632  138.5217  156.4196 C   0  0  2  0  0  0  0  0  0  0  0  0
  150.9318  137.6032  155.3952 O   0  0  0  0  0  0  0  0  0  0  0  0
  150.0215  138.8110  157.2906 C   0  0  0  0  0  0  0  0  0  0  0  0
  149.5328  137.6532  158.0208 N   0  0  0  0  0  0  0  0  0  0  0  0
  149.9387  136.3799  157.9998 C   0  0  0  0  0  0  0  0  0  0  0  0
  149.2537  135.5816  158.8073 N   0  0  0  0  0  0  0  0  0  0  0  0
  148.3822  136.4973  159.3221 C   0  0  0  0  0  0  0  0  0  0  0  0
  147.1140  136.0316  160.5419 S   0  0  1  0  0  0  0  0  0  0  0  0
  147.8604  134.3870  160.9635 C   0  0  0  0  0  0  0  0  0  0  0  0
  147.3333  136.9460  161.7490 O   0  0  0  0  0  0  0  0  0  0  0  0
  148.4960  137.7502  158.8872 N   0  0  0  0  0  0  0  0  0  0  0  0
  151.7855  141.4175  157.6562 C   0  0  0  0  0  0  0  0  0  0  0  0
  152.6604  140.8475  158.5776 C   0  0  0  0  0  0  0  0  0  0  0  0
  152.8545  141.5357  159.7967 C   0  0  0  0  0  0  0  0  0  0  0  0
  153.8029  140.9386  160.8226 C   0  0  0  0  0  0  0  0  0  0  0  0
  151.8071  144.4023  161.4269 H   0  0  0  0  0  0  0  0  0  0  0  0
  153.4476  143.7635  161.4924 H   0  0  0  0  0  0  0  0  0  0  0  0
  152.1108  142.8580  162.2180 H   0  0  0  0  0  0  0  0  0  0  0  0
  150.7812  144.2496  159.3109 H   0  0  0  0  0  0  0  0  0  0  0  0
  150.0098  141.8883  154.9069 H   0  0  0  0  0  0  0  0  0  0  0  0
  151.7086  139.8158  154.7138 H   0  0  0  0  0  0  0  0  0  0  0  0
  152.9659  139.7955  155.9276 H   0  0  0  0  0  0  0  0  0  0  0  0
  152.0088  138.0371  157.0505 H   0  0  0  0  0  0  0  0  0  0  0  0
  150.1065  137.8618  155.0140 H   0  0  0  0  0  0  0  0  0  0  0  0
  150.2339  139.6098  158.0029 H   0  0  0  0  0  0  0  0  0  0  0  0
  149.2103  139.1744  156.6584 H   0  0  0  0  0  0  0  0  0  0  0  0
  150.7552  136.0314  157.3843 H   0  0  0  0  0  0  0  0  0  0  0  0
  148.4120  133.9775  160.1168 H   0  0  0  0  0  0  0  0  0  0  0  0
  147.0766  133.6804  161.2355 H   0  0  0  0  0  0  0  0  0  0  0  0
  148.5436  134.4878  161.8067 H   0  0  0  0  0  0  0  0  0  0  0  0
  153.1723  139.9188  158.3739 H   0  0  0  0  0  0  0  0  0  0  0  0
  154.2358  140.0022  160.4691 H   0  0  0  0  0  0  0  0  0  0  0  0
  153.2773  140.7309  161.7550 H   0  0  0  0  0  0  0  0  0  0  0  0
  154.6228  141.6259  161.0324 H   0  0  0  0  0  0  0  0  0  0  0  0
  149.7314  143.7226  156.6837 H   0  0  0  0  0  0  0  0  0  0  0  0
  1  2  1  0  0  0  0
  1 24  1  0  0  0  0
  1 25  1  0  0  0  0
  1 26  1  0  0  0  0
  2 22  1  0  0  0  0
  2  3  2  0  0  0  0
  3  4  1  0  0  0  0
  3 27  1  0  0  0  0
  4 20  2  0  0  0  0
  4  5  1  0  0  0  0
  5  6  2  0  0  0  0
  5 43  1  0  0  0  0
  6  7  1  0  0  0  0
  6 28  1  0  0  0  0
  7  8  1  0  0  0  0
  7 20  1  0  0  0  0
  8  9  1  0  0  0  0
  8 29  1  0  0  0  0
  8 30  1  0  0  0  0
  9 10  1  0  0  0  0
  9 11  1  0  0  0  0
  9 31  1  0  0  0  0
 10 32  1  0  0  0  0
 11 12  1  0  0  0  0
 11 33  1  0  0  0  0
 11 34  1  0  0  0  0
 12 19  1  0  0  0  0
 12 13  1  0  0  0  0
 13 14  2  0  0  0  0
 13 35  1  0  0  0  0
 14 15  1  0  0  0  0
 15 16  1  0  0  0  0
 15 19  2  0  0  0  0
 16 17  1  0  0  0  0
 16 18  2  0  0  0  0
 17 36  1  0  0  0  0
 17 37  1  0  0  0  0
 17 38  1  0  0  0  0
 20 21  1  0  0  0  0
 21 22  2  0  0  0  0
 21 39  1  0  0  0  0
 22 23  1  0  0  0  0
 23 40  1  0  0  0  0
 23 41  1  0  0  0  0
 23 42  1  0  0  0  0
M  CHG  1   5   1
M  END
> <s_m_source_file>
AV-unprocessed.smi

> <i_m_source_file_index>
2845

> <i_lp_mmshare_version>
43012

> <i_f3d_flags>
0

> <s_epik_input>
W0NIM11jKFtjSF0xKWMoW0NIM10pW2NIXWMoYzEyKW4oW2NIXW4yKVtDSDJdW0NASF0oW09IXSlbQ0gyXW4zW2NIXW5jKG4zKVtTQF0oPU8pW0NIM10=

> <s_epik_cmdline>
J2VwaWtfcHl0aG9uJywgJy1waCcsICc3LjAnLCAnLXRuJywgJzgnLCAnLW1hJywgJzIwMCcsICctbWV0YWxfYmluZGluZycsICctaW1hZScsICc8aW5maWxlLm1hZT4nLCAnLW9tYWUnLCAnPG91dGZpbGUubWFlPic=

> <r_lp_tautomer_probability>
1

> <r_epik_Ionization_Penalty>
1.12076

> <r_epik_Ionization_Penalty_Charging>
1.12075

> <r_epik_Ionization_Penalty_Neutral>
1.54566e-06

> <r_epik_State_Penalty>
1.17957

> <r_epik_Charging_Adjusted_Penalty>
2.30033

> <i_epik_Tot_Q>
1

> <i_epik_Tot_abs_Q>
1

> <r_epik_Metal_State_Penalty>
1.26402

> <b_epik_Metal_Only>
0

> <s_lp_Force_Field>
OPLS_2005

> <r_lp_Energy>
15.2254

> <b_lp_Chiralities_Consistent>
1

> <s_lp_Variant>
AV-unprocessed.smi:2845-5

> <Gold.Version>
5.8.1

> <Gold.Id.Protein>
6NUR|6NUR_protein|mol2

> <Gold.PLP.Fitness>
55.7575

> <Gold.PLP.PLP>
-44.0477

> <Gold.PLP.part.hbond>
-5.0759

> <Gold.PLP.part.metal>
0.0000

> <Gold.PLP.part.buried>
-6.0734

> <Gold.PLP.part.nonpolar>
-32.2881

> <Gold.PLP.part.repulsive>
0.0330

> <Gold.PLP.ligand.clash>
0.0000

> <Gold.PLP.ligand.torsion>
1.4143

> <Gold.PLP.Chemscore.Hbond>
4.5093

> <Gold.PLP.Chemscore.CHOScore>
0.0000

> <Gold.PLP.Chemscore.Metal>
0.0000

> <Gold.Chemscore.Hbonds>
donor molecule, donor type, donor heavy atom, donor atom, acceptor molecule, acceptor atom, score
      L1  H     5    43       P1  8028  1.98
      P1  H  6896  6908       L1    14  1.00
      P1  H  6931  6943       L1    18  0.71
      P1  H  6934  6947       L1    18  0.44

> <Gold.PLP.Chemscore.Internal.Correction>
1.0105

> <Gold.Rescore>
     Score         DG    S(hbond)    S(metal)    S(lipo)     H(rot)  DE(clash)    DE(int)     intcor
     17.47     -19.01       2.68        0.00      99.66       2.77       0.08       1.46       ----

> <Gold.Chemscore.Fitness>
17.4650

> <Gold.Chemscore.DG>
-19.0129

> <Gold.Chemscore.ZeroCoef>
-5.4800

> <Gold.Chemscore.Hbond>
2.6824

> <Gold.Chemscore.Metal>
0.0000

> <Gold.Chemscore.Lipo>
99.6572

> <Gold.Chemscore.Internal_Hbond>
0.0000

> <Gold.Chemscore.DEClash>
0.0830

> <Gold.Chemscore.DEInternal>
1.4648

> <Gold.Chemscore.Rot>
2.7681

> <Gold.Chemscore.Internal.Correction>
   9.000000E+99

> <Gold.Chemscore.Hbonds>
donor molecule, donor type, donor heavy atom, donor atom, acceptor molecule, acceptor atom, score
      L1  H     5    43       P1  8028  0.94
      P1  H  6896  6908       L1    14  0.34
      P1  H  6931  6943       L1    18  0.66
      P1  H  6934  6947       L1    18  0.24

> <Gold.Chemscore.Hbond.Weighted>
-8.9592

> <Gold.Chemscore.Metal.Weighted>
-0.0000

> <Gold.Chemscore.Lipo.Weighted>
-11.6599

> <Gold.Chemscore.Internal_Hbond.Weighted>
0.0000

> <Gold.Chemscore.DEClash.Weighted>
0.0830

> <Gold.Chemscore.DEInternal.Weighted>
1.4648

> <Gold.Chemscore.Rot.Weighted>
7.0863

> <Gold.Chemscore.Internal.Correction.Weighted>
   9.000000E+99

> <Gold.Protein.RotatedTorsions>
[ 6907 6896 6895 6894 ] final  158.28 input  -60.11 | X-H torsion
[ 7974 7965 7964 7962 ] final -119.21 input  175.53 | X-H torsion
[ 8008 7997 7996 7995 ] final  133.19 input   59.86 | X-H torsion
[ 10167 10162 10161 10158 ] final  -22.95 input  -65.29 | X-H torsion
[ 10718 10713 10712 10709 ] final -129.09 input   66.30 | X-H torsion
[ 10763 10752 10751 10750 ] final  133.83 input  -60.55 | X-H torsion
[ 11005 11000 10999 10996 ] final  -11.45 input  -57.11 | X-H torsion

> <Gold.Protein.ActiveResidues>
 VAL166  LYS551  ARG553  GLY616  TRP617  ASP618  TYR619  PRO620  LYS621  CYS622 
 ASP623  PHE694  ASN695  SER759  ASP760  ASP761  ALA762  ILE779  LEU786  VAL792 
 PHE793  MET794  SER795  GLU796  ALA797  LYS798  CYS799  TRP800  GLU811  SER814 

> <Gold.Protein.RotatedAtoms>
  152.0027  133.3831  159.4187 H   0  0  0  0  0  0  0  0  0  0  0  0  # atno 6907 bound_to 6896
  150.6908  134.3817  159.5046 H   0  0  0  0  0  0  0  0  0  0  0  0  # atno 6908 bound_to 6896
  152.1566  134.8945  160.0595 H   0  0  0  0  0  0  0  0  0  0  0  0  # atno 6909 bound_to 6896
  145.0651  140.8318  143.4129 H   0  0  0  0  0  0  0  0  0  0  0  0  # atno 7974 bound_to 7965
  156.2990  140.2527  156.3213 H   0  0  0  0  0  0  0  0  0  0  0  0  # atno 8008 bound_to 7997
  154.9233  140.0400  157.2028 H   0  0  0  0  0  0  0  0  0  0  0  0  # atno 8009 bound_to 7997
  154.8290  140.2872  155.5739 H   0  0  0  0  0  0  0  0  0  0  0  0  # atno 8010 bound_to 7997
  140.7287  143.4488  151.0548 H   0  0  0  0  0  0  0  0  0  0  0  0  # atno 10167 bound_to 10162
  156.2013  130.6859  151.0542 H   0  0  0  0  0  0  0  0  0  0  0  0  # atno 10718 bound_to 10713
  153.8136  135.3125  155.3403 H   0  0  0  0  0  0  0  0  0  0  0  0  # atno 10763 bound_to 10752
  154.8041  135.4708  154.0352 H   0  0  0  0  0  0  0  0  0  0  0  0  # atno 10764 bound_to 10752
  153.1738  135.6882  153.8660 H   0  0  0  0  0  0  0  0  0  0  0  0  # atno 10765 bound_to 10752
  140.7554  133.8558  155.9080 H   0  0  0  0  0  0  0  0  0  0  0  0  # atno 11005 bound_to 11000
  145.1361  139.2601  143.5514 LP  0  0  0  0  0  0  0  0  0  0  0  0  # atno 17320 bound_to 7965
  146.3526  140.1025  142.8607 LP  0  0  0  0  0  0  0  0  0  0  0  0  # atno 17321 bound_to 7965
  139.8162  143.7883  152.3174 LP  0  0  0  0  0  0  0  0  0  0  0  0  # atno 17342 bound_to 10162
  139.7950  144.7396  150.9903 LP  0  0  0  0  0  0  0  0  0  0  0  0  # atno 17343 bound_to 10162
  157.6987  131.0784  150.6888 LP  0  0  0  0  0  0  0  0  0  0  0  0  # atno 17370 bound_to 10713
  156.6945  130.4605  149.5590 LP  0  0  0  0  0  0  0  0  0  0  0  0  # atno 17371 bound_to 10713
  140.9712  134.1528  157.4574 LP  0  0  0  0  0  0  0  0  0  0  0  0  # atno 17394 bound_to 11000
  139.8780  134.9979  156.5872 LP  0  0  0  0  0  0  0  0  0  0  0  0  # atno 17395 bound_to 11000

$$$$
