AV-unprocessed.smi:1552|AV-procd|sdf|6236|dock7
  -GOLD-   22720 6413D 1   1.00000     0.00000
 Structure written by MMmdl.
 49 50  0  0  0  0  0  0  0  0  3 V2000
  148.7260  141.7999  154.6022 C   0  0  0  0  0  0  0  0  0  0  0  0
  149.2371  141.8740  155.9910 N   0  3  0  0  0  0  0  0  0  0  0  0
  148.2184  141.4451  156.9793 C   0  0  0  0  0  0  0  0  0  0  0  0
  150.6067  141.2938  156.1644 C   0  0  2  0  0  0  0  0  0  0  0  0
  150.7592  139.8931  155.5088 C   0  0  0  0  0  0  0  0  0  0  0  0
  149.6515  138.9951  155.8276 N   0  0  0  0  0  0  0  0  0  0  0  0
  149.6997  137.7904  156.4200 C   0  0  0  0  0  0  0  0  0  0  0  0
  150.7805  137.3010  156.7420 O   0  0  0  0  0  0  0  0  0  0  0  0
  148.4116  136.9864  156.6736 C   0  0  0  0  0  0  0  0  0  0  0  0
  148.2206  136.7071  158.1055 N   0  0  0  0  0  0  0  0  0  0  0  0
  148.2089  135.3621  158.5167 C   0  0  0  0  0  0  0  0  0  0  0  0
  148.0524  135.0150  159.8085 C   0  0  0  0  0  0  0  0  0  0  0  0
  147.8931  136.0769  160.7942 C   0  0  0  0  0  0  0  0  0  0  0  0
  147.7484  135.7794  161.9783 O   0  0  0  0  0  0  0  0  0  0  0  0
  147.9136  137.3664  160.3464 N   0  5  0  0  0  0  0  0  0  0  0  0
  148.0733  137.7042  159.0297 C   0  0  0  0  0  0  0  0  0  0  0  0
  148.0897  138.8756  158.6504 O   0  0  0  0  0  0  0  0  0  0  0  0
  151.0894  141.3789  157.6443 C   0  0  0  0  0  0  0  0  0  0  0  0
  151.5541  142.8090  158.0169 C   0  0  0  0  0  0  0  0  0  0  0  0
  152.0397  142.9023  159.4725 C   0  0  0  0  0  0  0  0  0  0  0  0
  153.1668  141.8990  159.7487 C   0  0  0  0  0  0  0  0  0  0  0  0
  152.7223  140.4732  159.3981 C   0  0  0  0  0  0  0  0  0  0  0  0
  152.2359  140.3814  157.9429 C   0  0  0  0  0  0  0  0  0  0  0  0
  148.5033  140.7752  154.3061 H   0  0  0  0  0  0  0  0  0  0  0  0
  149.4465  142.2128  153.8957 H   0  0  0  0  0  0  0  0  0  0  0  0
  147.8075  142.3797  154.5066 H   0  0  0  0  0  0  0  0  0  0  0  0
  147.9195  140.4091  156.8246 H   0  0  0  0  0  0  0  0  0  0  0  0
  147.3236  142.0609  156.8860 H   0  0  0  0  0  0  0  0  0  0  0  0
  148.5790  141.5523  158.0015 H   0  0  0  0  0  0  0  0  0  0  0  0
  151.2729  141.9544  155.6072 H   0  0  0  0  0  0  0  0  0  0  0  0
  150.8822  140.0116  154.4353 H   0  0  0  0  0  0  0  0  0  0  0  0
  151.6769  139.4199  155.8588 H   0  0  0  0  0  0  0  0  0  0  0  0
  148.7377  139.3081  155.5333 H   0  0  0  0  0  0  0  0  0  0  0  0
  147.5207  137.4518  156.2556 H   0  0  0  0  0  0  0  0  0  0  0  0
  148.5020  136.0498  156.1219 H   0  0  0  0  0  0  0  0  0  0  0  0
  148.3404  134.6372  157.7268 H   0  0  0  0  0  0  0  0  0  0  0  0
  148.0486  133.9773  160.1078 H   0  0  0  0  0  0  0  0  0  0  0  0
  150.2584  141.1228  158.3020 H   0  0  0  0  0  0  0  0  0  0  0  0
  152.3565  143.1221  157.3474 H   0  0  0  0  0  0  0  0  0  0  0  0
  150.7441  143.5256  157.8805 H   0  0  0  0  0  0  0  0  0  0  0  0
  152.3851  143.9147  159.6845 H   0  0  0  0  0  0  0  0  0  0  0  0
  151.2063  142.7120  160.1497 H   0  0  0  0  0  0  0  0  0  0  0  0
  154.0474  142.1643  159.1620 H   0  0  0  0  0  0  0  0  0  0  0  0
  153.4645  141.9508  160.7964 H   0  0  0  0  0  0  0  0  0  0  0  0
  153.5469  139.7781  159.5584 H   0  0  0  0  0  0  0  0  0  0  0  0
  151.9220  140.1630  160.0713 H   0  0  0  0  0  0  0  0  0  0  0  0
  151.9152  139.3568  157.7572 H   0  0  0  0  0  0  0  0  0  0  0  0
  153.0723  140.5685  157.2682 H   0  0  0  0  0  0  0  0  0  0  0  0
  149.3639  142.8617  156.1588 H   0  0  0  0  0  0  0  0  0  0  0  0
  1  2  1  0  0  0  0
  1 24  1  0  0  0  0
  1 25  1  0  0  0  0
  1 26  1  0  0  0  0
  2  3  1  0  0  0  0
  2  4  1  0  0  0  0
  2 49  1  0  0  0  0
  3 27  1  0  0  0  0
  3 28  1  0  0  0  0
  3 29  1  0  0  0  0
  4  5  1  0  0  0  0
  4 18  1  0  0  0  0
  4 30  1  0  0  0  0
  5  6  1  0  0  0  0
  5 31  1  0  0  0  0
  5 32  1  0  0  0  0
  6  7  1  0  0  0  0
  6 33  1  0  0  0  0
  7  8  2  0  0  0  0
  7  9  1  0  0  0  0
  9 10  1  0  0  0  0
  9 34  1  0  0  0  0
  9 35  1  0  0  0  0
 10 16  1  0  0  0  0
 10 11  1  0  0  0  0
 11 12  2  0  0  0  0
 11 36  1  0  0  0  0
 12 13  1  0  0  0  0
 12 37  1  0  0  0  0
 13 14  2  0  0  0  0
 13 15  1  0  0  0  0
 15 16  1  0  0  0  0
 16 17  2  0  0  0  0
 18 23  1  0  0  0  0
 18 19  1  0  0  0  0
 18 38  1  0  0  0  0
 19 20  1  0  0  0  0
 19 39  1  0  0  0  0
 19 40  1  0  0  0  0
 20 21  1  0  0  0  0
 20 41  1  0  0  0  0
 20 42  1  0  0  0  0
 21 22  1  0  0  0  0
 21 43  1  0  0  0  0
 21 44  1  0  0  0  0
 22 23  1  0  0  0  0
 22 45  1  0  0  0  0
 22 46  1  0  0  0  0
 23 47  1  0  0  0  0
 23 48  1  0  0  0  0
M  CHG  1   2   1
M  CHG  1  15  -1
M  END
> <s_m_source_file>
AV-unprocessed.smi

> <i_m_source_file_index>
1552

> <i_lp_mmshare_version>
43012

> <i_f3d_flags>
0

> <s_epik_input>
W0NIMl0xW0NIMl1bQ0gyXVtDSDJdW0NIMl1bQ0hdMVtDQEhdKE4oW0NIM10pW0NIM10pW0NIMl1bTkhdQyg9TylbQ0gyXW4yW2NIXVtjSF1jKD1PKVtuSF1jMj1P

> <s_epik_cmdline>
J2VwaWtfcHl0aG9uJywgJy1waCcsICc3LjAnLCAnLXRuJywgJzgnLCAnLW1hJywgJzIwMCcsICctbWV0YWxfYmluZGluZycsICctaW1hZScsICc8aW5maWxlLm1hZT4nLCAnLW9tYWUnLCAnPG91dGZpbGUubWFlPic=

> <r_lp_tautomer_probability>
1

> <r_epik_Ionization_Penalty>
2.93575

> <r_epik_Ionization_Penalty_Charging>
0.00331645

> <r_epik_Ionization_Penalty_Neutral>
2.93244

> <r_epik_State_Penalty>
2.92822

> <r_epik_Charging_Adjusted_Penalty>
2.93154

> <i_epik_Tot_Q>
0

> <i_epik_Tot_abs_Q>
2

> <r_epik_Metal_State_Penalty>
0.448509

> <b_epik_Metal_Only>
1

> <s_lp_Force_Field>
OPLS_2005

> <r_lp_Energy>
39.5493

> <b_lp_Chiralities_Consistent>
1

> <s_lp_Variant>
AV-unprocessed.smi:1552-3

> <Gold.Version>
5.8.1

> <Gold.Id.Protein>
6NUR|6NUR_protein|mol2

> <Gold.PLP.Fitness>
45.1890

> <Gold.PLP.PLP>
-33.5841

> <Gold.PLP.part.hbond>
-4.0000

> <Gold.PLP.part.metal>
0.0000

> <Gold.PLP.part.buried>
-2.9955

> <Gold.PLP.part.nonpolar>
-27.8264

> <Gold.PLP.part.repulsive>
0.1103

> <Gold.PLP.ligand.clash>
0.0000

> <Gold.PLP.ligand.torsion>
0.8946

> <Gold.PLP.Chemscore.Hbond>
4.3556

> <Gold.PLP.Chemscore.CHOScore>
0.0000

> <Gold.PLP.Chemscore.Metal>
0.0000

> <Gold.Chemscore.Hbonds>
donor molecule, donor type, donor heavy atom, donor atom, acceptor molecule, acceptor atom, score
      L1  H     2    49       P1  8028  1.89
      P1  H  6931  6943       L1    15  1.04
      P1  H  6934  6947       L1    15  1.28

> <Gold.PLP.Chemscore.Internal.Correction>
0.3272

> <Gold.Rescore>
     Score         DG    S(hbond)    S(metal)    S(lipo)     H(rot)  DE(clash)    DE(int)     intcor
     12.32     -15.34       1.75        0.00      87.59       2.43       0.04       2.99       ----

> <Gold.Chemscore.Fitness>
12.3158

> <Gold.Chemscore.DG>
-15.3409

> <Gold.Chemscore.ZeroCoef>
-5.4800

> <Gold.Chemscore.Hbond>
1.7470

> <Gold.Chemscore.Metal>
0.0000

> <Gold.Chemscore.Lipo>
87.5894

> <Gold.Chemscore.Internal_Hbond>
0.0000

> <Gold.Chemscore.DEClash>
0.0358

> <Gold.Chemscore.DEInternal>
2.9893

> <Gold.Chemscore.Rot>
2.4305

> <Gold.Chemscore.Internal.Correction>
   9.000000E+99

> <Gold.Chemscore.Hbonds>
donor molecule, donor type, donor heavy atom, donor atom, acceptor molecule, acceptor atom, score
      L1  H     2    49       P1  8028  0.90
      P1  H  6931  6943       L1    15  0.13
      P1  H  6934  6947       L1    15  0.11

> <Gold.Chemscore.Hbond.Weighted>
-5.8350

> <Gold.Chemscore.Metal.Weighted>
-0.0000

> <Gold.Chemscore.Lipo.Weighted>
-10.2480

> <Gold.Chemscore.Internal_Hbond.Weighted>
0.0000

> <Gold.Chemscore.DEClash.Weighted>
0.0358

> <Gold.Chemscore.DEInternal.Weighted>
2.9893

> <Gold.Chemscore.Rot.Weighted>
6.2220

> <Gold.Chemscore.Internal.Correction.Weighted>
   9.000000E+99

> <Gold.Protein.RotatedTorsions>
[ 6907 6896 6895 6894 ] final   35.37 input  -60.11 | X-H torsion
[ 7974 7965 7964 7962 ] final  -10.43 input  175.53 | X-H torsion
[ 8008 7997 7996 7995 ] final   -4.94 input   59.86 | X-H torsion
[ 10167 10162 10161 10158 ] final   62.65 input  -65.29 | X-H torsion
[ 10718 10713 10712 10709 ] final  158.08 input   66.30 | X-H torsion
[ 10763 10752 10751 10750 ] final -120.52 input  -60.55 | X-H torsion
[ 11005 11000 10999 10996 ] final   85.30 input  -57.11 | X-H torsion

> <Gold.Protein.ActiveResidues>
 VAL166  LYS551  ARG553  GLY616  TRP617  ASP618  TYR619  PRO620  LYS621  CYS622 
 ASP623  PHE694  ASN695  SER759  ASP760  ASP761  ALA762  ILE779  LEU786  VAL792 
 PHE793  MET794  SER795  GLU796  ALA797  LYS798  CYS799  TRP800  GLU811  SER814 

> <Gold.Protein.RotatedAtoms>
  152.1152  134.9245  160.0564 H   0  0  0  0  0  0  0  0  0  0  0  0  # atno 6907 bound_to 6896
  152.0408  133.3971  159.4344 H   0  0  0  0  0  0  0  0  0  0  0  0  # atno 6908 bound_to 6896
  150.6845  134.3338  159.4882 H   0  0  0  0  0  0  0  0  0  0  0  0  # atno 6909 bound_to 6896
  146.2221  140.2763  142.8359 H   0  0  0  0  0  0  0  0  0  0  0  0  # atno 7974 bound_to 7965
  154.6090  140.2471  155.7693 H   0  0  0  0  0  0  0  0  0  0  0  0  # atno 8008 bound_to 7997
  156.2359  140.2950  156.0262 H   0  0  0  0  0  0  0  0  0  0  0  0  # atno 8009 bound_to 7997
  155.2083  140.0396  157.2919 H   0  0  0  0  0  0  0  0  0  0  0  0  # atno 8010 bound_to 7997
  140.1416  144.4548  150.6808 H   0  0  0  0  0  0  0  0  0  0  0  0  # atno 10167 bound_to 10162
  157.1827  131.0636  151.2123 H   0  0  0  0  0  0  0  0  0  0  0  0  # atno 10718 bound_to 10713
  154.8646  135.4200  154.2472 H   0  0  0  0  0  0  0  0  0  0  0  0  # atno 10763 bound_to 10752
  153.3425  135.6994  153.6860 H   0  0  0  0  0  0  0  0  0  0  0  0  # atno 10764 bound_to 10752
  153.5833  135.3569  155.2856 H   0  0  0  0  0  0  0  0  0  0  0  0  # atno 10765 bound_to 10752
  139.8975  134.8277  156.2564 H   0  0  0  0  0  0  0  0  0  0  0  0  # atno 11005 bound_to 11000
  144.9230  140.7890  143.5736 LP  0  0  0  0  0  0  0  0  0  0  0  0  # atno 17320 bound_to 7965
  145.2701  139.1958  143.4846 LP  0  0  0  0  0  0  0  0  0  0  0  0  # atno 17321 bound_to 7965
  140.6757  143.2304  151.5514 LP  0  0  0  0  0  0  0  0  0  0  0  0  # atno 17342 bound_to 10162
  139.5469  144.2498  152.1459 LP  0  0  0  0  0  0  0  0  0  0  0  0  # atno 17343 bound_to 10162
  157.3937  130.7296  149.6716 LP  0  0  0  0  0  0  0  0  0  0  0  0  # atno 17370 bound_to 10713
  155.9722  130.4139  150.4107 LP  0  0  0  0  0  0  0  0  0  0  0  0  # atno 17371 bound_to 10713
  141.0191  133.7052  156.1237 LP  0  0  0  0  0  0  0  0  0  0  0  0  # atno 17394 bound_to 11000
  140.7260  134.4307  157.5570 LP  0  0  0  0  0  0  0  0  0  0  0  0  # atno 17395 bound_to 11000

$$$$
