AV-unprocessed.smi:2061|AV-procd|sdf|8379|dock3
  -GOLD-   2272011 53D 1   1.00000     0.00000
 Structure written by MMmdl.
 44 45  0  0  0  0  0  0  0  0  2 V2000
  143.6338  132.6809  150.1089 C   0  0  0  0  0  0  0  0  0  0  0  0
  144.3207  133.8251  150.7726 C   0  0  0  0  0  0  0  0  0  0  0  0
  144.3403  135.1674  150.5203 C   0  0  0  0  0  0  0  0  0  0  0  0
  145.1898  135.6772  151.5401 C   0  0  0  0  0  0  0  0  0  0  0  0
  145.5339  136.9632  151.7089 N   0  5  0  0  0  0  0  0  0  0  0  0
  145.6426  137.4813  152.9543 C   0  0  0  0  0  0  0  0  0  0  0  0
  145.2968  136.9354  154.0044 O   0  0  0  0  0  0  0  0  0  0  0  0
  146.1771  138.7113  152.9790 N   0  0  0  0  0  0  0  0  0  0  0  0
  146.4239  139.5309  154.1643 C   0  0  0  0  0  0  0  0  0  0  0  0
  147.5655  140.5685  153.9626 C   0  0  1  0  0  0  0  0  0  0  0  0
  147.0023  141.9936  154.1968 C   0  0  0  0  0  0  0  0  0  0  0  0
  148.7660  140.2876  154.7870 N   0  0  0  0  0  0  0  0  0  0  0  0
  149.6058  141.4759  154.9797 C   0  0  0  0  0  0  0  0  0  0  0  0
  150.8756  141.2099  155.8127 C   0  0  1  0  0  0  0  0  0  0  0  0
  150.5922  141.0237  157.3134 C   0  0  0  0  0  0  0  0  0  0  0  0
  151.6064  140.1136  155.2686 O   0  0  0  0  0  0  0  0  0  0  0  0
  150.8462  138.9240  155.0886 C   0  0  2  0  0  0  0  0  0  0  0  0
  151.7555  137.8741  154.4412 C   0  0  0  0  0  0  0  0  0  0  0  0
  149.6081  139.2272  154.2256 C   0  0  0  0  0  0  0  0  0  0  0  0
  145.6592  134.7259  152.3297 N   0  0  0  0  0  0  0  0  0  0  0  0
  145.1016  133.5355  151.8480 O   0  0  0  0  0  0  0  0  0  0  0  0
  144.0872  132.4690  149.1408 H   0  0  0  0  0  0  0  0  0  0  0  0
  142.5796  132.9058  149.9472 H   0  0  0  0  0  0  0  0  0  0  0  0
  143.6963  131.7781  150.7169 H   0  0  0  0  0  0  0  0  0  0  0  0
  143.8262  135.7017  149.7355 H   0  0  0  0  0  0  0  0  0  0  0  0
  146.4396  139.1129  152.0910 H   0  0  0  0  0  0  0  0  0  0  0  0
  145.5172  140.0322  154.5066 H   0  0  0  0  0  0  0  0  0  0  0  0
  146.6812  138.8078  154.9355 H   0  0  0  0  0  0  0  0  0  0  0  0
  147.8594  140.5128  152.9133 H   0  0  0  0  0  0  0  0  0  0  0  0
  146.1058  142.1878  153.6101 H   0  0  0  0  0  0  0  0  0  0  0  0
  147.7013  142.7735  153.9000 H   0  0  0  0  0  0  0  0  0  0  0  0
  146.7468  142.1484  155.2456 H   0  0  0  0  0  0  0  0  0  0  0  0
  149.8992  141.8706  154.0057 H   0  0  0  0  0  0  0  0  0  0  0  0
  149.0525  142.2671  155.4817 H   0  0  0  0  0  0  0  0  0  0  0  0
  151.5236  142.0817  155.7198 H   0  0  0  0  0  0  0  0  0  0  0  0
  150.1534  141.9265  157.7389 H   0  0  0  0  0  0  0  0  0  0  0  0
  151.5116  140.8140  157.8600 H   0  0  0  0  0  0  0  0  0  0  0  0
  149.8965  140.2061  157.5012 H   0  0  0  0  0  0  0  0  0  0  0  0
  150.5275  138.5453  156.0601 H   0  0  0  0  0  0  0  0  0  0  0  0
  151.2249  136.9333  154.2922 H   0  0  0  0  0  0  0  0  0  0  0  0
  152.6232  137.6698  155.0692 H   0  0  0  0  0  0  0  0  0  0  0  0
  152.1189  138.2112  153.4700 H   0  0  0  0  0  0  0  0  0  0  0  0
  149.0514  138.2959  154.1469 H   0  0  0  0  0  0  0  0  0  0  0  0
  149.9194  139.4991  153.2159 H   0  0  0  0  0  0  0  0  0  0  0  0
  1  2  1  0  0  0  0
  1 22  1  0  0  0  0
  1 23  1  0  0  0  0
  1 24  1  0  0  0  0
  2 21  1  0  0  0  0
  2  3  2  0  0  0  0
  3  4  1  0  0  0  0
  3 25  1  0  0  0  0
  4  5  1  0  0  0  0
  4 20  2  0  0  0  0
  5  6  1  0  0  0  0
  6  7  2  0  0  0  0
  6  8  1  0  0  0  0
  8  9  1  0  0  0  0
  8 26  1  0  0  0  0
  9 10  1  0  0  0  0
  9 27  1  0  0  0  0
  9 28  1  0  0  0  0
 10 11  1  0  0  0  0
 10 12  1  0  0  0  0
 10 29  1  0  0  0  0
 11 30  1  0  0  0  0
 11 31  1  0  0  0  0
 11 32  1  0  0  0  0
 12 19  1  0  0  0  0
 12 13  1  0  0  0  0
 13 14  1  0  0  0  0
 13 33  1  0  0  0  0
 13 34  1  0  0  0  0
 14 15  1  0  0  0  0
 14 16  1  0  0  0  0
 14 35  1  0  0  0  0
 15 36  1  0  0  0  0
 15 37  1  0  0  0  0
 15 38  1  0  0  0  0
 16 17  1  0  0  0  0
 17 18  1  0  0  0  0
 17 19  1  0  0  0  0
 17 39  1  0  0  0  0
 18 40  1  0  0  0  0
 18 41  1  0  0  0  0
 18 42  1  0  0  0  0
 19 43  1  0  0  0  0
 19 44  1  0  0  0  0
 20 21  1  0  0  0  0
M  CHG  1   5  -1
M  END
> <s_m_source_file>
AV-unprocessed.smi

> <i_m_source_file_index>
2061

> <i_lp_mmshare_version>
43012

> <i_f3d_flags>
0

> <s_epik_input>
W0NIM11jMVtjSF1jKG5vMSlbTkhdQyg9TylbTkhdW0NIMl1bQ0BIXShbQ0gzXSlOMltDSDJdW0NAQEhdKFtDSDNdKU9bQ0BASF0oW0NIM10pW0NIMl0y

> <s_epik_cmdline>
J2VwaWtfcHl0aG9uJywgJy1waCcsICc3LjAnLCAnLXRuJywgJzgnLCAnLW1hJywgJzIwMCcsICctbWV0YWxfYmluZGluZycsICctaW1hZScsICc8aW5maWxlLm1hZT4nLCAnLW9tYWUnLCAnPG91dGZpbGUubWFlPic=

> <r_epik_Ionization_Penalty>
6.88367

> <r_epik_Ionization_Penalty_Charging>
6.57198

> <r_epik_Ionization_Penalty_Neutral>
0.311681

> <r_epik_State_Penalty>
6.77619

> <r_epik_Charging_Adjusted_Penalty>
13.3482

> <i_epik_Tot_Q>
-1

> <i_epik_Tot_abs_Q>
1

> <r_epik_Metal_State_Penalty>
2.70524

> <b_epik_Metal_Only>
1

> <s_lp_Force_Field>
OPLS_2005

> <r_lp_Energy>
24.642

> <b_lp_Chiralities_Consistent>
1

> <s_lp_Variant>
AV-unprocessed.smi:2061-20

> <Gold.Version>
5.8.1

> <Gold.Id.Protein>
6NUR|6NUR_protein|mol2

> <Gold.PLP.Fitness>
36.7575

> <Gold.PLP.PLP>
-37.1352

> <Gold.PLP.part.hbond>
-1.6069

> <Gold.PLP.part.metal>
0.0000

> <Gold.PLP.part.buried>
-7.4915

> <Gold.PLP.part.nonpolar>
-30.5158

> <Gold.PLP.part.repulsive>
1.0113

> <Gold.PLP.ligand.clash>
0.0000

> <Gold.PLP.ligand.torsion>
1.6775

> <Gold.PLP.Chemscore.Hbond>
0.9280

> <Gold.PLP.Chemscore.CHOScore>
0.0000

> <Gold.PLP.Chemscore.Metal>
0.0000

> <Gold.Chemscore.Hbonds>
donor molecule, donor type, donor heavy atom, donor atom, acceptor molecule, acceptor atom, score
      P1  H  7989  7998       L1    16  0.63

> <Gold.PLP.Chemscore.Internal.Correction>
0.1932

> <Gold.Rescore>
     Score         DG    S(hbond)    S(metal)    S(lipo)     H(rot)  DE(clash)    DE(int)     intcor
      9.46     -12.45       0.40        0.00      81.33       1.52       0.22       2.77       ----

> <Gold.Chemscore.Fitness>
9.4600

> <Gold.Chemscore.DG>
-12.4490

> <Gold.Chemscore.ZeroCoef>
-5.4800

> <Gold.Chemscore.Hbond>
0.4019

> <Gold.Chemscore.Metal>
0.0000

> <Gold.Chemscore.Lipo>
81.3264

> <Gold.Chemscore.Internal_Hbond>
0.0000

> <Gold.Chemscore.DEClash>
0.2163

> <Gold.Chemscore.DEInternal>
2.7728

> <Gold.Chemscore.Rot>
1.5190

> <Gold.Chemscore.Internal.Correction>
   9.000000E+99

> <Gold.Chemscore.Hbonds>
donor molecule, donor type, donor heavy atom, donor atom, acceptor molecule, acceptor atom, score
      P1  H  7989  7998       L1    16  0.02

> <Gold.Chemscore.Hbond.Weighted>
-1.3425

> <Gold.Chemscore.Metal.Weighted>
-0.0000

> <Gold.Chemscore.Lipo.Weighted>
-9.5152

> <Gold.Chemscore.Internal_Hbond.Weighted>
0.0000

> <Gold.Chemscore.DEClash.Weighted>
0.2163

> <Gold.Chemscore.DEInternal.Weighted>
2.7728

> <Gold.Chemscore.Rot.Weighted>
3.8886

> <Gold.Chemscore.Internal.Correction.Weighted>
   9.000000E+99

> <Gold.Protein.RotatedTorsions>
[ 6907 6896 6895 6894 ] final  140.97 input  -60.11 | X-H torsion
[ 7974 7965 7964 7962 ] final -173.00 input  175.53 | X-H torsion
[ 8008 7997 7996 7995 ] final  -18.86 input   59.86 | X-H torsion
[ 10167 10162 10161 10158 ] final   72.74 input  -65.29 | X-H torsion
[ 10718 10713 10712 10709 ] final  158.38 input   66.30 | X-H torsion
[ 10763 10752 10751 10750 ] final  107.03 input  -60.55 | X-H torsion
[ 11005 11000 10999 10996 ] final  152.60 input  -57.11 | X-H torsion

> <Gold.Protein.ActiveResidues>
 VAL166  LYS551  ARG553  GLY616  TRP617  ASP618  TYR619  PRO620  LYS621  CYS622 
 ASP623  PHE694  ASN695  SER759  ASP760  ASP761  ALA762  ILE779  LEU786  VAL792 
 PHE793  MET794  SER795  GLU796  ALA797  LYS798  CYS799  TRP800  GLU811  SER814 

> <Gold.Protein.RotatedAtoms>
  152.2367  133.5102  159.5246 H   0  0  0  0  0  0  0  0  0  0  0  0  # atno 6907 bound_to 6896
  150.7052  134.1144  159.4021 H   0  0  0  0  0  0  0  0  0  0  0  0  # atno 6908 bound_to 6896
  151.9065  135.0356  160.0561 H   0  0  0  0  0  0  0  0  0  0  0  0  # atno 6909 bound_to 6896
  144.7141  140.1687  143.6369 H   0  0  0  0  0  0  0  0  0  0  0  0  # atno 7974 bound_to 7965
  154.4876  140.2104  155.9619 H   0  0  0  0  0  0  0  0  0  0  0  0  # atno 8008 bound_to 7997
  156.1259  140.3205  155.8246 H   0  0  0  0  0  0  0  0  0  0  0  0  # atno 8009 bound_to 7997
  155.4384  140.0508  157.3003 H   0  0  0  0  0  0  0  0  0  0  0  0  # atno 8010 bound_to 7997
  140.0320  144.5458  150.7500 H   0  0  0  0  0  0  0  0  0  0  0  0  # atno 10167 bound_to 10162
  157.1787  131.0627  151.2143 H   0  0  0  0  0  0  0  0  0  0  0  0  # atno 10718 bound_to 10713
  153.4010  135.3858  155.1988 H   0  0  0  0  0  0  0  0  0  0  0  0  # atno 10763 bound_to 10752
  154.8729  135.3771  154.4618 H   0  0  0  0  0  0  0  0  0  0  0  0  # atno 10764 bound_to 10752
  153.5115  135.7087  153.5840 H   0  0  0  0  0  0  0  0  0  0  0  0  # atno 10765 bound_to 10752
  140.1322  134.8794  157.2219 H   0  0  0  0  0  0  0  0  0  0  0  0  # atno 11005 bound_to 11000
  145.8963  139.2404  143.1520 LP  0  0  0  0  0  0  0  0  0  0  0  0  # atno 17320 bound_to 7965
  145.9854  140.8647  143.0093 LP  0  0  0  0  0  0  0  0  0  0  0  0  # atno 17321 bound_to 7965
  140.7298  143.2676  151.3993 LP  0  0  0  0  0  0  0  0  0  0  0  0  # atno 17342 bound_to 10162
  139.6070  144.1177  152.2259 LP  0  0  0  0  0  0  0  0  0  0  0  0  # atno 17343 bound_to 10162
  157.3973  130.7314  149.6741 LP  0  0  0  0  0  0  0  0  0  0  0  0  # atno 17370 bound_to 10713
  155.9727  130.4130  150.4060 LP  0  0  0  0  0  0  0  0  0  0  0  0  # atno 17371 bound_to 10713
  140.2827  134.3331  155.7338 LP  0  0  0  0  0  0  0  0  0  0  0  0  # atno 17394 bound_to 11000
  141.2172  133.7488  156.9388 LP  0  0  0  0  0  0  0  0  0  0  0  0  # atno 17395 bound_to 11000

$$$$
