AV-unprocessed.smi:1703|AV-procd|sdf|6868|dock3
  -GOLD-   22720 8 63D 1   1.00000     0.00000
 Structure written by MMmdl.
 49 51  0  0  0  0  0  0  0  0  2 V2000
  147.0399  136.9308  154.5510 C   0  0  0  0  0  0  0  0  0  0  0  0
  148.1933  136.2621  155.3061 C   0  0  2  0  0  0  0  0  0  0  0  0
  149.5203  137.0282  155.1416 C   0  0  0  0  0  0  0  0  0  0  0  0
  150.6310  136.3547  155.8088 N   0  0  0  0  0  0  0  0  0  0  0  0
  151.8761  137.1119  155.6488 C   0  0  0  0  0  0  0  0  0  0  0  0
  151.7398  138.6511  155.6291 C   0  0  2  0  0  0  0  0  0  0  0  0
  153.0167  139.1668  155.3061 O   0  0  0  0  0  0  0  0  0  0  0  0
  151.2667  139.2968  156.9508 C   0  0  0  0  0  0  0  0  0  0  0  0
  150.9532  140.7289  156.8194 N   0  0  0  0  0  0  0  0  0  0  0  0
  150.1024  141.3745  155.9704 C   0  0  0  0  0  0  0  0  0  0  0  0
  149.2399  140.7418  154.9247 C   0  0  0  0  0  0  0  0  0  0  0  0
  149.7069  140.9580  153.6096 O   0  0  0  0  0  0  0  0  0  0  0  0
  150.1851  142.7057  156.2572 N   0  3  0  0  0  0  0  0  0  0  0  0
  151.0956  142.9126  157.2939 C   0  0  0  0  0  0  0  0  0  0  0  0
  151.5111  144.0813  157.9246 C   0  0  0  0  0  0  0  0  0  0  0  0
  152.4634  143.9398  158.9556 C   0  0  0  0  0  0  0  0  0  0  0  0
  152.9659  142.6744  159.3229 C   0  0  0  0  0  0  0  0  0  0  0  0
  152.5374  141.4965  158.6758 C   0  0  0  0  0  0  0  0  0  0  0  0
  151.5948  141.6459  157.6589 C   0  0  0  0  0  0  0  0  0  0  0  0
  150.7230  134.9988  155.2682 C   0  0  0  0  0  0  0  0  0  0  0  0
  149.4049  134.2186  155.4343 C   0  0  2  0  0  0  0  0  0  0  0  0
  149.4758  132.8221  154.8077 C   0  0  0  0  0  0  0  0  0  0  0  0
  148.3539  134.9406  154.7996 O   0  0  0  0  0  0  0  0  0  0  0  0
  146.8715  137.9457  154.9115 H   0  0  0  0  0  0  0  0  0  0  0  0
  146.1127  136.3726  154.6834 H   0  0  0  0  0  0  0  0  0  0  0  0
  147.2470  136.9843  153.4818 H   0  0  0  0  0  0  0  0  0  0  0  0
  147.9329  136.2056  156.3647 H   0  0  0  0  0  0  0  0  0  0  0  0
  149.7441  137.1467  154.0799 H   0  0  0  0  0  0  0  0  0  0  0  0
  149.4011  138.0335  155.5480 H   0  0  0  0  0  0  0  0  0  0  0  0
  152.6103  136.7998  156.3932 H   0  0  0  0  0  0  0  0  0  0  0  0
  152.3151  136.8388  154.6876 H   0  0  0  0  0  0  0  0  0  0  0  0
  151.0675  138.9374  154.8199 H   0  0  0  0  0  0  0  0  0  0  0  0
  153.0533  139.3109  154.3729 H   0  0  0  0  0  0  0  0  0  0  0  0
  150.3709  138.8091  157.3302 H   0  0  0  0  0  0  0  0  0  0  0  0
  152.0334  139.1937  157.7193 H   0  0  0  0  0  0  0  0  0  0  0  0
  149.1853  139.6684  155.1082 H   0  0  0  0  0  0  0  0  0  0  0  0
  148.2274  141.1374  155.0081 H   0  0  0  0  0  0  0  0  0  0  0  0
  149.4540  140.2193  153.0764 H   0  0  0  0  0  0  0  0  0  0  0  0
  151.1286  145.0519  157.6445 H   0  0  0  0  0  0  0  0  0  0  0  0
  152.8159  144.8193  159.4748 H   0  0  0  0  0  0  0  0  0  0  0  0
  153.6950  142.6053  160.1174 H   0  0  0  0  0  0  0  0  0  0  0  0
  152.9279  140.5318  158.9644 H   0  0  0  0  0  0  0  0  0  0  0  0
  150.9837  135.0427  154.2096 H   0  0  0  0  0  0  0  0  0  0  0  0
  151.5160  134.4378  155.7519 H   0  0  0  0  0  0  0  0  0  0  0  0
  149.1733  134.1152  156.4958 H   0  0  0  0  0  0  0  0  0  0  0  0
  150.2656  132.2260  155.2654 H   0  0  0  0  0  0  0  0  0  0  0  0
  149.6764  132.8796  153.7374 H   0  0  0  0  0  0  0  0  0  0  0  0
  148.5354  132.2872  154.9418 H   0  0  0  0  0  0  0  0  0  0  0  0
  149.6524  143.4167  155.7722 H   0  0  0  0  0  0  0  0  0  0  0  0
  1  2  1  0  0  0  0
  1 24  1  0  0  0  0
  1 25  1  0  0  0  0
  1 26  1  0  0  0  0
  2 23  1  0  0  0  0
  2  3  1  0  0  0  0
  2 27  1  0  0  0  0
  3  4  1  0  0  0  0
  3 28  1  0  0  0  0
  3 29  1  0  0  0  0
  4  5  1  0  0  0  0
  4 20  1  0  0  0  0
  5  6  1  0  0  0  0
  5 30  1  0  0  0  0
  5 31  1  0  0  0  0
  6  7  1  0  0  0  0
  6  8  1  0  0  0  0
  6 32  1  0  0  0  0
  7 33  1  0  0  0  0
  8  9  1  0  0  0  0
  8 34  1  0  0  0  0
  8 35  1  0  0  0  0
  9 19  1  0  0  0  0
  9 10  1  0  0  0  0
 10 11  1  0  0  0  0
 10 13  2  0  0  0  0
 11 12  1  0  0  0  0
 11 36  1  0  0  0  0
 11 37  1  0  0  0  0
 12 38  1  0  0  0  0
 13 14  1  0  0  0  0
 13 49  1  0  0  0  0
 14 19  2  0  0  0  0
 14 15  1  0  0  0  0
 15 16  2  0  0  0  0
 15 39  1  0  0  0  0
 16 17  1  0  0  0  0
 16 40  1  0  0  0  0
 17 18  2  0  0  0  0
 17 41  1  0  0  0  0
 18 19  1  0  0  0  0
 18 42  1  0  0  0  0
 20 21  1  0  0  0  0
 20 43  1  0  0  0  0
 20 44  1  0  0  0  0
 21 22  1  0  0  0  0
 21 23  1  0  0  0  0
 21 45  1  0  0  0  0
 22 46  1  0  0  0  0
 22 47  1  0  0  0  0
 22 48  1  0  0  0  0
M  CHG  1  13   1
M  END
> <s_m_source_file>
AV-unprocessed.smi

> <i_m_source_file_index>
1703

> <i_lp_mmshare_version>
43012

> <i_f3d_flags>
0

> <s_epik_input>
W0NIM11bQ0BASF0xW0NIMl1OKFtDSDJdW0NASF0oTzEpW0NIM10pW0NIMl1bQ0BIXShbT0hdKVtDSDJdbihjKG4yKVtDSDJdW09IXSljKGMyMylbY0hdW2NIXVtjSF1bY0hdMw==

> <s_epik_cmdline>
J2VwaWtfcHl0aG9uJywgJy1waCcsICc3LjAnLCAnLXRuJywgJzgnLCAnLW1hJywgJzIwMCcsICctbWV0YWxfYmluZGluZycsICctaW1hZScsICc8aW5maWxlLm1hZT4nLCAnLW9tYWUnLCAnPG91dGZpbGUubWFlPic=

> <r_epik_Ionization_Penalty>
1.7682

> <r_epik_Ionization_Penalty_Charging>
1.55298

> <r_epik_Ionization_Penalty_Neutral>
0.215215

> <r_epik_State_Penalty>
1.83821

> <r_epik_Charging_Adjusted_Penalty>
3.39119

> <i_epik_Tot_Q>
1

> <i_epik_Tot_abs_Q>
1

> <r_epik_Metal_State_Penalty>
5.89206

> <b_epik_Metal_Only>
0

> <s_lp_Force_Field>
OPLS_2005

> <r_lp_Energy>
30.4523

> <b_lp_Chiralities_Consistent>
1

> <s_lp_Variant>
AV-unprocessed.smi:1703-16

> <Gold.Version>
5.8.1

> <Gold.Id.Protein>
6NUR|6NUR_protein|mol2

> <Gold.PLP.Fitness>
55.2246

> <Gold.PLP.PLP>
-41.5317

> <Gold.PLP.part.hbond>
-4.4454

> <Gold.PLP.part.metal>
0.0000

> <Gold.PLP.part.buried>
-3.2300

> <Gold.PLP.part.nonpolar>
-34.4859

> <Gold.PLP.part.repulsive>
0.3182

> <Gold.PLP.ligand.clash>
0.0000

> <Gold.PLP.ligand.torsion>
0.5199

> <Gold.PLP.Chemscore.Hbond>
4.8865

> <Gold.PLP.Chemscore.CHOScore>
0.0000

> <Gold.PLP.Chemscore.Metal>
0.0000

> <Gold.Chemscore.Hbonds>
donor molecule, donor type, donor heavy atom, donor atom, acceptor molecule, acceptor atom, score
      L1  H    12    38       P1  7957  0.54
      L1  H    13    49       P1  8028  1.92
      P1  H  7989  7998       L1    12  0.32
      P1  H  7997  8008       L1     7  1.00
      P1  H  8011  8017       L1    12  1.00

> <Gold.PLP.Chemscore.Internal.Correction>
0.0731

> <Gold.Rescore>
     Score         DG    S(hbond)    S(metal)    S(lipo)     H(rot)  DE(clash)    DE(int)     intcor
     20.49     -20.99       3.04        0.00     110.49       2.96       0.01       0.49       ----

> <Gold.Chemscore.Fitness>
20.4901

> <Gold.Chemscore.DG>
-20.9917

> <Gold.Chemscore.ZeroCoef>
-5.4800

> <Gold.Chemscore.Hbond>
3.0389

> <Gold.Chemscore.Metal>
0.0000

> <Gold.Chemscore.Lipo>
110.4921

> <Gold.Chemscore.Internal_Hbond>
0.0000

> <Gold.Chemscore.DEClash>
0.0077

> <Gold.Chemscore.DEInternal>
0.4938

> <Gold.Chemscore.Rot>
2.9555

> <Gold.Chemscore.Internal.Correction>
   9.000000E+99

> <Gold.Chemscore.Hbonds>
donor molecule, donor type, donor heavy atom, donor atom, acceptor molecule, acceptor atom, score
      L1  H    12    38       P1  7957  0.54
      L1  H    13    49       P1  8028  0.89
      P1  H  7989  7998       L1    12  0.08
      P1  H  7997  8008       L1     7  0.65
      P1  H  8011  8017       L1    12  0.38

> <Gold.Chemscore.Hbond.Weighted>
-10.1501

> <Gold.Chemscore.Metal.Weighted>
-0.0000

> <Gold.Chemscore.Lipo.Weighted>
-12.9276

> <Gold.Chemscore.Internal_Hbond.Weighted>
0.0000

> <Gold.Chemscore.DEClash.Weighted>
0.0077

> <Gold.Chemscore.DEInternal.Weighted>
0.4938

> <Gold.Chemscore.Rot.Weighted>
7.5660

> <Gold.Chemscore.Internal.Correction.Weighted>
   9.000000E+99

> <Gold.Protein.RotatedTorsions>
[ 6907 6896 6895 6894 ] final    4.05 input  -60.11 | X-H torsion
[ 7974 7965 7964 7962 ] final -106.27 input  175.53 | X-H torsion
[ 8008 7997 7996 7995 ] final  -28.69 input   59.86 | X-H torsion
[ 10167 10162 10161 10158 ] final  146.89 input  -65.29 | X-H torsion
[ 10718 10713 10712 10709 ] final   -0.62 input   66.30 | X-H torsion
[ 10763 10752 10751 10750 ] final  114.23 input  -60.55 | X-H torsion
[ 11005 11000 10999 10996 ] final -140.30 input  -57.11 | X-H torsion

> <Gold.Protein.ActiveResidues>
 VAL166  LYS551  ARG553  GLY616  TRP617  ASP618  TYR619  PRO620  LYS621  CYS622 
 ASP623  PHE694  ASN695  SER759  ASP760  ASP761  ALA762  ILE779  LEU786  VAL792 
 PHE793  MET794  SER795  GLU796  ALA797  LYS798  CYS799  TRP800  GLU811  SER814 

> <Gold.Protein.RotatedAtoms>
  151.6349  135.1019  160.0129 H   0  0  0  0  0  0  0  0  0  0  0  0  # atno 6907 bound_to 6896
  152.4086  133.6923  159.6386 H   0  0  0  0  0  0  0  0  0  0  0  0  # atno 6908 bound_to 6896
  150.7978  133.8582  159.3265 H   0  0  0  0  0  0  0  0  0  0  0  0  # atno 6909 bound_to 6896
  145.2200  140.9130  143.3265 H   0  0  0  0  0  0  0  0  0  0  0  0  # atno 7974 bound_to 7965
  154.4321  140.1838  156.1130 H   0  0  0  0  0  0  0  0  0  0  0  0  # atno 8008 bound_to 7997
  156.0203  140.3341  155.7006 H   0  0  0  0  0  0  0  0  0  0  0  0  # atno 8009 bound_to 7997
  155.5986  140.0638  157.2730 H   0  0  0  0  0  0  0  0  0  0  0  0  # atno 8010 bound_to 7997
  139.4899  144.5796  151.6898 H   0  0  0  0  0  0  0  0  0  0  0  0  # atno 10167 bound_to 10162
  156.8178  130.5446  149.5701 H   0  0  0  0  0  0  0  0  0  0  0  0  # atno 10718 bound_to 10713
  153.5042  135.3631  155.2555 H   0  0  0  0  0  0  0  0  0  0  0  0  # atno 10763 bound_to 10752
  154.8746  135.4007  154.3443 H   0  0  0  0  0  0  0  0  0  0  0  0  # atno 10764 bound_to 10752
  153.4085  135.7077  153.6442 H   0  0  0  0  0  0  0  0  0  0  0  0  # atno 10765 bound_to 10752
  140.8436  134.2372  157.4797 H   0  0  0  0  0  0  0  0  0  0  0  0  # atno 11005 bound_to 11000
  144.9775  139.3817  143.6279 LP  0  0  0  0  0  0  0  0  0  0  0  0  # atno 17320 bound_to 7965
  146.3378  139.8900  142.8810 LP  0  0  0  0  0  0  0  0  0  0  0  0  # atno 17321 bound_to 7965
  140.5399  144.0595  150.6084 LP  0  0  0  0  0  0  0  0  0  0  0  0  # atno 17342 bound_to 10162
  140.3614  143.2906  152.0379 LP  0  0  0  0  0  0  0  0  0  0  0  0  # atno 17343 bound_to 10162
  156.1006  130.5966  150.9888 LP  0  0  0  0  0  0  0  0  0  0  0  0  # atno 17370 bound_to 10713
  157.6473  131.0902  150.8127 LP  0  0  0  0  0  0  0  0  0  0  0  0  # atno 17371 bound_to 10713
  139.8703  134.9648  156.4507 LP  0  0  0  0  0  0  0  0  0  0  0  0  # atno 17394 bound_to 11000
  140.8868  133.7877  155.9527 LP  0  0  0  0  0  0  0  0  0  0  0  0  # atno 17395 bound_to 11000

$$$$
