AV-unprocessed.smi:1713|AV-procd|sdf|6906|dock3
  -GOLD-   22720 8113D 1   1.00000     0.00000
 Structure written by MMmdl.
 38 39  0  0  0  0  0  0  0  0  1 V2000
  145.8109  143.1895  153.7356 C   0  0  0  0  0  0  0  0  0  0  0  0
  147.0534  142.3225  153.9758 C   0  0  0  0  0  0  0  0  0  0  0  0
  146.7375  140.9069  153.9659 N   0  0  0  0  0  0  0  0  0  0  0  0
  147.1717  139.9411  153.0797 C   0  0  0  0  0  0  0  0  0  0  0  0
  146.5963  138.7757  153.4882 C   0  0  0  0  0  0  0  0  0  0  0  0
  146.7710  137.5205  152.8536 N   0  0  0  0  0  0  0  0  0  0  0  0
  145.8706  136.5296  152.7525 C   0  0  0  0  0  0  0  0  0  0  0  0
  144.7353  136.5545  153.2275 O   0  0  0  0  0  0  0  0  0  0  0  0
  146.3661  135.4895  152.0667 N   0  0  0  0  0  0  0  0  0  0  0  0
  145.6524  134.2469  151.7874 C   0  0  2  0  0  0  0  0  0  0  0  0
  146.6335  133.1546  151.3171 C   0  0  0  0  0  0  0  0  0  0  0  0
  145.8977  131.8529  150.9544 C   0  0  0  0  0  0  0  0  0  0  0  0
  144.7782  132.0809  149.9212 C   0  0  2  0  0  0  0  0  0  0  0  0
  145.3374  132.3896  148.6597 O   0  0  0  0  0  0  0  0  0  0  0  0
  143.8201  133.2036  150.3623 C   0  0  0  0  0  0  0  0  0  0  0  0
  144.5681  134.4992  150.7239 C   0  0  0  0  0  0  0  0  0  0  0  0
  145.8165  139.1073  154.6319 C   0  0  0  0  0  0  0  0  0  0  0  0
  145.9074  140.3991  154.9105 N   0  0  0  0  0  0  0  0  0  0  0  0
  146.0652  144.2487  153.7742 H   0  0  0  0  0  0  0  0  0  0  0  0
  145.0477  143.0025  154.4916 H   0  0  0  0  0  0  0  0  0  0  0  0
  145.3710  142.9903  152.7579 H   0  0  0  0  0  0  0  0  0  0  0  0
  147.8071  142.5178  153.2120 H   0  0  0  0  0  0  0  0  0  0  0  0
  147.5038  142.5730  154.9370 H   0  0  0  0  0  0  0  0  0  0  0  0
  147.8362  140.1634  152.2576 H   0  0  0  0  0  0  0  0  0  0  0  0
  147.6743  137.3612  152.4324 H   0  0  0  0  0  0  0  0  0  0  0  0
  147.3103  135.5581  151.7163 H   0  0  0  0  0  0  0  0  0  0  0  0
  145.1569  133.9062  152.6987 H   0  0  0  0  0  0  0  0  0  0  0  0
  147.1945  133.5089  150.4511 H   0  0  0  0  0  0  0  0  0  0  0  0
  147.3694  132.9501  152.0957 H   0  0  0  0  0  0  0  0  0  0  0  0
  146.6073  131.1111  150.5860 H   0  0  0  0  0  0  0  0  0  0  0  0
  145.4625  131.4317  151.8615 H   0  0  0  0  0  0  0  0  0  0  0  0
  144.2133  131.1561  149.7996 H   0  0  0  0  0  0  0  0  0  0  0  0
  145.4161  133.3285  148.5875 H   0  0  0  0  0  0  0  0  0  0  0  0
  143.0829  133.4009  149.5831 H   0  0  0  0  0  0  0  0  0  0  0  0
  143.2566  132.8671  151.2335 H   0  0  0  0  0  0  0  0  0  0  0  0
  143.8561  135.2416  151.0860 H   0  0  0  0  0  0  0  0  0  0  0  0
  145.0209  134.9209  149.8254 H   0  0  0  0  0  0  0  0  0  0  0  0
  145.1982  138.4806  155.2570 H   0  0  0  0  0  0  0  0  0  0  0  0
  1  2  1  0  0  0  0
  1 19  1  0  0  0  0
  1 20  1  0  0  0  0
  1 21  1  0  0  0  0
  2  3  1  0  0  0  0
  2 22  1  0  0  0  0
  2 23  1  0  0  0  0
  3 18  1  0  0  0  0
  3  4  1  0  0  0  0
  4  5  2  0  0  0  0
  4 24  1  0  0  0  0
  5  6  1  0  0  0  0
  5 17  1  0  0  0  0
  6  7  1  0  0  0  0
  6 25  1  0  0  0  0
  7  8  2  0  0  0  0
  7  9  1  0  0  0  0
  9 10  1  0  0  0  0
  9 26  1  0  0  0  0
 10 16  1  0  0  0  0
 10 11  1  0  0  0  0
 10 27  1  0  0  0  0
 11 12  1  0  0  0  0
 11 28  1  0  0  0  0
 11 29  1  0  0  0  0
 12 13  1  0  0  0  0
 12 30  1  0  0  0  0
 12 31  1  0  0  0  0
 13 14  1  0  0  0  0
 13 15  1  0  0  0  0
 13 32  1  0  0  0  0
 14 33  1  0  0  0  0
 15 16  1  0  0  0  0
 15 34  1  0  0  0  0
 15 35  1  0  0  0  0
 16 36  1  0  0  0  0
 16 37  1  0  0  0  0
 17 18  2  0  0  0  0
 17 38  1  0  0  0  0
M  END
> <s_m_source_file>
AV-unprocessed.smi

> <i_m_source_file_index>
1713

> <i_lp_mmshare_version>
43012

> <i_f3d_flags>
0

> <s_epik_input>
W0NIM11bQ0gyXW4xW2NIXWMoW2NIXW4xKVtOSF1DKD1PKVtOSF1bQ0BASF0yW0NIMl1bQ0gyXVtDQEBIXShbT0hdKVtDSDJdW0NIMl0y

> <s_epik_cmdline>
J2VwaWtfcHl0aG9uJywgJy1waCcsICc3LjAnLCAnLXRuJywgJzgnLCAnLW1hJywgJzIwMCcsICctbWV0YWxfYmluZGluZycsICctaW1hZScsICc8aW5maWxlLm1hZT4nLCAnLW9tYWUnLCAnPG91dGZpbGUubWFlPic=

> <r_lp_tautomer_probability>
1

> <r_epik_Ionization_Penalty>
0.000190859

> <r_epik_Ionization_Penalty_Charging>
0

> <r_epik_Ionization_Penalty_Neutral>
0.000190859

> <r_epik_State_Penalty>
-0

> <r_epik_Charging_Adjusted_Penalty>
0

> <i_epik_Tot_Q>
0

> <i_epik_Tot_abs_Q>
0

> <r_epik_Metal_State_Penalty>
-0

> <b_epik_Metal_Only>
0

> <s_lp_Force_Field>
OPLS_2005

> <r_lp_Energy>
14.03

> <b_lp_Chiralities_Consistent>
1

> <s_lp_Variant>
AV-unprocessed.smi:1713-2

> <Gold.Version>
5.8.1

> <Gold.Id.Protein>
6NUR|6NUR_protein|mol2

> <Gold.PLP.Fitness>
44.0875

> <Gold.PLP.PLP>
-33.1967

> <Gold.PLP.part.hbond>
-4.0000

> <Gold.PLP.part.metal>
0.0000

> <Gold.PLP.part.buried>
-2.4271

> <Gold.PLP.part.nonpolar>
-26.1417

> <Gold.PLP.part.repulsive>
0.2742

> <Gold.PLP.ligand.clash>
0.0000

> <Gold.PLP.ligand.torsion>
0.4022

> <Gold.PLP.Chemscore.Hbond>
2.8960

> <Gold.PLP.Chemscore.CHOScore>
1.0000

> <Gold.PLP.Chemscore.Metal>
0.0000

> <Gold.Chemscore.Hbonds>
donor molecule, donor type, donor heavy atom, donor atom, acceptor molecule, acceptor atom, score
      L1  H     6    25       P1  7948  1.00
      L1  H     9    26       P1  7948  1.00
      L1  H    14    33       P1  7921  0.84
      L1  C     4    24       P1  7957  1.00

> <Gold.PLP.Chemscore.Internal.Correction>
0.0073

> <Gold.Rescore>
     Score         DG    S(hbond)    S(metal)    S(lipo)     H(rot)  DE(clash)    DE(int)     intcor
     16.73     -18.46       2.58        0.00      74.19       1.69       1.44       0.29       ----

> <Gold.Chemscore.Fitness>
16.7267

> <Gold.Chemscore.DG>
-18.4597

> <Gold.Chemscore.ZeroCoef>
-5.4800

> <Gold.Chemscore.Hbond>
2.5792

> <Gold.Chemscore.Metal>
0.0000

> <Gold.Chemscore.Lipo>
74.1854

> <Gold.Chemscore.Internal_Hbond>
0.0000

> <Gold.Chemscore.DEClash>
1.4419

> <Gold.Chemscore.DEInternal>
0.2911

> <Gold.Chemscore.Rot>
1.6853

> <Gold.Chemscore.Internal.Correction>
   9.000000E+99

> <Gold.Chemscore.Hbonds>
donor molecule, donor type, donor heavy atom, donor atom, acceptor molecule, acceptor atom, score
      L1  H     6    25       P1  7948  0.95
      L1  H     9    26       P1  7948  0.95
      L1  H    14    33       P1  7921  0.16

> <Gold.Chemscore.Hbond.Weighted>
-8.6144

> <Gold.Chemscore.Metal.Weighted>
-0.0000

> <Gold.Chemscore.Lipo.Weighted>
-8.6797

> <Gold.Chemscore.Internal_Hbond.Weighted>
0.0000

> <Gold.Chemscore.DEClash.Weighted>
1.4419

> <Gold.Chemscore.DEInternal.Weighted>
0.2911

> <Gold.Chemscore.Rot.Weighted>
4.3144

> <Gold.Chemscore.Internal.Correction.Weighted>
   9.000000E+99

> <Gold.Protein.RotatedTorsions>
[ 6907 6896 6895 6894 ] final -116.91 input  -60.11 | X-H torsion
[ 7974 7965 7964 7962 ] final -129.44 input  175.53 | X-H torsion
[ 8008 7997 7996 7995 ] final  -87.90 input   59.86 | X-H torsion
[ 10167 10162 10161 10158 ] final -170.74 input  -65.29 | X-H torsion
[ 10718 10713 10712 10709 ] final  104.68 input   66.30 | X-H torsion
[ 10763 10752 10751 10750 ] final -119.98 input  -60.55 | X-H torsion
[ 11005 11000 10999 10996 ] final   23.39 input  -57.11 | X-H torsion

> <Gold.Protein.ActiveResidues>
 VAL166  LYS551  ARG553  GLY616  TRP617  ASP618  TYR619  PRO620  LYS621  CYS622 
 ASP623  PHE694  ASN695  SER759  ASP760  ASP761  ALA762  ILE779  LEU786  VAL792 
 PHE793  MET794  SER795  GLU796  ALA797  LYS798  CYS799  TRP800  GLU811  SER814 

> <Gold.Protein.RotatedAtoms>
  150.8093  133.8451  159.3189 H   0  0  0  0  0  0  0  0  0  0  0  0  # atno 6907 bound_to 6896
  151.6241  135.1027  160.0117 H   0  0  0  0  0  0  0  0  0  0  0  0  # atno 6908 bound_to 6896
  152.4185  133.7037  159.6495 H   0  0  0  0  0  0  0  0  0  0  0  0  # atno 6909 bound_to 6896
  144.9571  140.7407  143.4752 H   0  0  0  0  0  0  0  0  0  0  0  0  # atno 7974 bound_to 7965
  154.6686  140.0560  157.0140 H   0  0  0  0  0  0  0  0  0  0  0  0  # atno 8008 bound_to 7997
  155.1123  140.3239  155.4500 H   0  0  0  0  0  0  0  0  0  0  0  0  # atno 8009 bound_to 7997
  156.2648  140.2012  156.6247 H   0  0  0  0  0  0  0  0  0  0  0  0  # atno 8010 bound_to 7997
  139.5843  144.1353  152.1556 H   0  0  0  0  0  0  0  0  0  0  0  0  # atno 10167 bound_to 10162
  157.6732  131.0809  150.5742 H   0  0  0  0  0  0  0  0  0  0  0  0  # atno 10718 bound_to 10713
  154.8632  135.4219  154.2385 H   0  0  0  0  0  0  0  0  0  0  0  0  # atno 10763 bound_to 10752
  153.3356  135.6990  153.6916 H   0  0  0  0  0  0  0  0  0  0  0  0  # atno 10764 bound_to 10752
  153.5916  135.3554  155.2886 H   0  0  0  0  0  0  0  0  0  0  0  0  # atno 10765 bound_to 10752
  140.3702  134.2031  155.7667 H   0  0  0  0  0  0  0  0  0  0  0  0  # atno 11005 bound_to 11000
  145.2755  139.1938  143.4818 LP  0  0  0  0  0  0  0  0  0  0  0  0  # atno 17320 bound_to 7965
  146.3341  140.2709  142.8606 LP  0  0  0  0  0  0  0  0  0  0  0  0  # atno 17321 bound_to 7965
  140.0913  144.5618  150.7053 LP  0  0  0  0  0  0  0  0  0  0  0  0  # atno 17342 bound_to 10162
  140.7117  143.2511  151.4560 LP  0  0  0  0  0  0  0  0  0  0  0  0  # atno 17343 bound_to 10162
  156.6043  130.4363  149.5884 LP  0  0  0  0  0  0  0  0  0  0  0  0  # atno 17370 bound_to 10713
  156.2481  130.6891  151.1619 LP  0  0  0  0  0  0  0  0  0  0  0  0  # atno 17371 bound_to 10713
  141.1957  133.8099  157.0704 LP  0  0  0  0  0  0  0  0  0  0  0  0  # atno 17394 bound_to 11000
  140.0558  134.9781  157.1218 LP  0  0  0  0  0  0  0  0  0  0  0  0  # atno 17395 bound_to 11000

$$$$
