AV-unprocessed.smi:112|AV-procd|sdf|1085|dock2
  -GOLD-   2262018183D 1   1.00000     0.00000
 Structure written by MMmdl.
 54 57  0  0  0  0  0  0  0  0  3 V2000
  152.2112  143.9197  161.4222 C   0  0  0  0  0  0  0  0  0  0  0  0
  152.5797  142.6883  160.6095 C   0  0  0  0  0  0  0  0  0  0  0  0
  151.9028  142.3356  159.4923 C   0  0  0  0  0  0  0  0  0  0  0  0
  152.2144  141.2239  158.7301 N   0  0  0  0  0  0  0  0  0  0  0  0
  151.4562  140.8767  157.4676 C   0  0  2  0  0  0  0  0  0  0  0  0
  150.5199  142.0297  157.0731 C   0  0  0  0  0  0  0  0  0  0  0  0
  149.2595  141.2971  156.6581 C   0  0  2  0  0  0  0  0  0  0  0  0
  148.1171  142.1066  156.8475 O   0  0  0  0  0  0  0  0  0  0  0  0
  149.2904  140.0972  157.6069 C   0  0  1  0  0  0  0  0  0  0  0  0
  148.4320  138.8787  157.2263 C   0  0  0  0  0  0  0  0  0  0  0  0
  147.0597  139.2032  157.1502 O   0  0  0  0  0  0  0  0  0  0  0  0
  150.6664  139.7422  157.6865 O   0  0  0  0  0  0  0  0  0  0  0  0
  153.2993  140.4058  159.1016 C   0  0  0  0  0  0  0  0  0  0  0  0
  153.6149  139.4296  158.4171 O   0  0  0  0  0  0  0  0  0  0  0  0
  154.0213  140.7410  160.2688 N   0  0  0  0  0  0  0  0  0  0  0  0
  155.1718  139.8922  160.6533 C   0  0  0  0  0  0  0  0  0  0  0  0
  154.7784  138.4476  161.0349 C   0  0  0  0  0  0  0  0  0  0  0  0
  154.3736  137.6895  160.1528 O   0  0  0  0  0  0  0  0  0  0  0  0
  154.9056  138.0771  162.3334 N   0  0  0  0  0  0  0  0  0  0  0  0
  154.5619  136.7345  162.8333 C   0  0  0  0  0  0  0  0  0  0  0  0
  154.8193  136.7586  164.3556 C   0  0  0  0  0  0  0  0  0  0  0  0
  155.3348  138.1474  164.5900 C   0  0  0  0  0  0  0  0  0  0  0  0
  155.7426  138.6942  165.8183 C   0  0  0  0  0  0  0  0  0  0  0  0
  156.2023  140.0339  165.8525 C   0  0  0  0  0  0  0  0  0  0  0  0
  156.6377  140.6422  167.1254 N   0  3  0  0  0  0  0  0  0  0  0  0
  157.0049  141.8127  167.1157 O   0  0  0  0  0  0  0  0  0  0  0  0
  156.6127  139.9500  168.1380 O   0  5  0  0  0  0  0  0  0  0  0  0
  156.2380  140.7824  164.6458 C   0  0  0  0  0  0  0  0  0  0  0  0
  155.8252  140.2164  163.4196 C   0  0  0  0  0  0  0  0  0  0  0  0
  155.3699  138.8800  163.4093 C   0  0  0  0  0  0  0  0  0  0  0  0
  153.7117  141.8745  161.0598 C   0  0  0  0  0  0  0  0  0  0  0  0
  154.3799  142.1441  162.0597 O   0  0  0  0  0  0  0  0  0  0  0  0
  151.3466  144.4376  161.0063 H   0  0  0  0  0  0  0  0  0  0  0  0
  153.0434  144.6242  161.4431 H   0  0  0  0  0  0  0  0  0  0  0  0
  151.9697  143.6427  162.4490 H   0  0  0  0  0  0  0  0  0  0  0  0
  151.0824  142.9677  159.1891 H   0  0  0  0  0  0  0  0  0  0  0  0
  152.2043  140.6336  156.7113 H   0  0  0  0  0  0  0  0  0  0  0  0
  150.3318  142.6601  157.9447 H   0  0  0  0  0  0  0  0  0  0  0  0
  150.9553  142.6408  156.2820 H   0  0  0  0  0  0  0  0  0  0  0  0
  149.3396  140.9906  155.6146 H   0  0  0  0  0  0  0  0  0  0  0  0
  148.2771  142.9493  156.4504 H   0  0  0  0  0  0  0  0  0  0  0  0
  148.9963  140.4275  158.6050 H   0  0  0  0  0  0  0  0  0  0  0  0
  148.7627  138.4577  156.2765 H   0  0  0  0  0  0  0  0  0  0  0  0
  148.5484  138.0984  157.9787 H   0  0  0  0  0  0  0  0  0  0  0  0
  146.5580  138.4373  157.3849 H   0  0  0  0  0  0  0  0  0  0  0  0
  155.9100  139.8507  159.8512 H   0  0  0  0  0  0  0  0  0  0  0  0
  155.7067  140.3542  161.4839 H   0  0  0  0  0  0  0  0  0  0  0  0
  153.5186  136.4935  162.6252 H   0  0  0  0  0  0  0  0  0  0  0  0
  155.1903  135.9784  162.3604 H   0  0  0  0  0  0  0  0  0  0  0  0
  153.9037  136.5928  164.9243 H   0  0  0  0  0  0  0  0  0  0  0  0
  155.5611  136.0177  164.6557 H   0  0  0  0  0  0  0  0  0  0  0  0
  155.7002  138.0905  166.7130 H   0  0  0  0  0  0  0  0  0  0  0  0
  156.5852  141.8051  164.6482 H   0  0  0  0  0  0  0  0  0  0  0  0
  155.8699  140.8189  162.5261 H   0  0  0  0  0  0  0  0  0  0  0  0
  1  2  1  0  0  0  0
  1 33  1  0  0  0  0
  1 34  1  0  0  0  0
  1 35  1  0  0  0  0
  2 31  1  0  0  0  0
  2  3  2  0  0  0  0
  3  4  1  0  0  0  0
  3 36  1  0  0  0  0
  4  5  1  0  0  0  0
  4 13  1  0  0  0  0
  5 12  1  0  0  0  0
  5  6  1  0  0  0  0
  5 37  1  0  0  0  0
  6  7  1  0  0  0  0
  6 38  1  0  0  0  0
  6 39  1  0  0  0  0
  7  8  1  0  0  0  0
  7  9  1  0  0  0  0
  7 40  1  0  0  0  0
  8 41  1  0  0  0  0
  9 10  1  0  0  0  0
  9 12  1  0  0  0  0
  9 42  1  0  0  0  0
 10 11  1  0  0  0  0
 10 43  1  0  0  0  0
 10 44  1  0  0  0  0
 11 45  1  0  0  0  0
 13 14  2  0  0  0  0
 13 15  1  0  0  0  0
 15 16  1  0  0  0  0
 15 31  1  0  0  0  0
 16 17  1  0  0  0  0
 16 46  1  0  0  0  0
 16 47  1  0  0  0  0
 17 18  2  0  0  0  0
 17 19  1  0  0  0  0
 19 30  1  0  0  0  0
 19 20  1  0  0  0  0
 20 21  1  0  0  0  0
 20 48  1  0  0  0  0
 20 49  1  0  0  0  0
 21 22  1  0  0  0  0
 21 50  1  0  0  0  0
 21 51  1  0  0  0  0
 22 30  2  0  0  0  0
 22 23  1  0  0  0  0
 23 24  2  0  0  0  0
 23 52  1  0  0  0  0
 24 25  1  0  0  0  0
 24 28  1  0  0  0  0
 25 26  2  0  0  0  0
 25 27  1  0  0  0  0
 28 29  2  0  0  0  0
 28 53  1  0  0  0  0
 29 30  1  0  0  0  0
 29 54  1  0  0  0  0
 31 32  2  0  0  0  0
M  CHG  1  25   1
M  CHG  1  27  -1
M  END
> <s_m_source_file>
AV-unprocessed.smi

> <i_m_source_file_index>
112

> <i_lp_mmshare_version>
43012

> <i_f3d_flags>
0

> <s_epik_input>
W09IXVtDSDJdW0NAQEhdKE8xKVtDQEhdKFtPSF0pW0NIMl1bQ0BIXTFuKFtjSF1jMltDSDNdKWMoPU8pbihjMj1PKVtDSDJdQyg9TylOKFtDSDJdW0NIMl0zKWMoYzM0KVtjSF1bY0hdYyhbY0hdNClbTitdKD1PKVtPLV0=

> <s_epik_cmdline>
J2VwaWtfcHl0aG9uJywgJy1waCcsICc3LjAnLCAnLXRuJywgJzgnLCAnLW1hJywgJzIwMCcsICctbWV0YWxfYmluZGluZycsICctaW1hZScsICc8aW5maWxlLm1hZT4nLCAnLW9tYWUnLCAnPG91dGZpbGUubWFlPic=

> <r_lp_tautomer_probability>
1

> <r_epik_Ionization_Penalty>
2.5696e-07

> <r_epik_Ionization_Penalty_Charging>
1.04886e-08

> <r_epik_Ionization_Penalty_Neutral>
2.46472e-07

> <r_epik_State_Penalty>
-0

> <r_epik_Charging_Adjusted_Penalty>
1.04886e-08

> <i_epik_Tot_Q>
0

> <i_epik_Tot_abs_Q>
2

> <r_epik_Metal_State_Penalty>
-0

> <b_epik_Metal_Only>
0

> <s_epik_Chemistry_Notes>
This compound contains an acetal/aminal-like group ( X-CH(R)-Y where X, Y are N, S, or O) that may be acid/base labile, releasing an aldehyde.

> <s_lp_Force_Field>
OPLS_2005

> <r_lp_Energy>
57.8842

> <b_lp_Chiralities_Consistent>
1

> <s_lp_Variant>
AV-unprocessed.smi:112-3

> <Gold.Version>
5.8.1

> <Gold.Id.Protein>
6NUR|6NUR_protein|mol2

> <Gold.PLP.Fitness>
57.7379

> <Gold.PLP.PLP>
-56.9142

> <Gold.PLP.part.hbond>
-4.0000

> <Gold.PLP.part.metal>
0.0000

> <Gold.PLP.part.buried>
-5.1346

> <Gold.PLP.part.nonpolar>
-46.6146

> <Gold.PLP.part.repulsive>
0.0906

> <Gold.PLP.ligand.clash>
4.5317

> <Gold.PLP.ligand.torsion>
0.3393

> <Gold.PLP.Chemscore.Hbond>
2.0000

> <Gold.PLP.Chemscore.CHOScore>
0.0000

> <Gold.PLP.Chemscore.Metal>
0.0000

> <Gold.Chemscore.Hbonds>
donor molecule, donor type, donor heavy atom, donor atom, acceptor molecule, acceptor atom, score
      L1  H     8    41       P1  8028  1.00
      P1  H  7997  8009       L1    14  1.00

> <Gold.PLP.Chemscore.Internal.Correction>
0.0341

> <Gold.Rescore>
     Score         DG    S(hbond)    S(metal)    S(lipo)     H(rot)  DE(clash)    DE(int)     intcor
      9.29     -15.97       1.89        0.00     107.60       3.29       1.15       5.53       ----

> <Gold.Chemscore.Fitness>
9.2901

> <Gold.Chemscore.DG>
-15.9664

> <Gold.Chemscore.ZeroCoef>
-5.4800

> <Gold.Chemscore.Hbond>
1.8932

> <Gold.Chemscore.Metal>
0.0000

> <Gold.Chemscore.Lipo>
107.6041

> <Gold.Chemscore.Internal_Hbond>
0.0000

> <Gold.Chemscore.DEClash>
1.1502

> <Gold.Chemscore.DEInternal>
5.5261

> <Gold.Chemscore.Rot>
3.2916

> <Gold.Chemscore.Internal.Correction>
   9.000000E+99

> <Gold.Chemscore.Hbonds>
donor molecule, donor type, donor heavy atom, donor atom, acceptor molecule, acceptor atom, score
      L1  H     8    41       P1  8028  0.62
      P1  H  7997  8009       L1    14  0.60

> <Gold.Chemscore.Hbond.Weighted>
-6.3232

> <Gold.Chemscore.Metal.Weighted>
-0.0000

> <Gold.Chemscore.Lipo.Weighted>
-12.5897

> <Gold.Chemscore.Internal_Hbond.Weighted>
0.0000

> <Gold.Chemscore.DEClash.Weighted>
1.1502

> <Gold.Chemscore.DEInternal.Weighted>
5.5261

> <Gold.Chemscore.Rot.Weighted>
8.4265

> <Gold.Chemscore.Internal.Correction.Weighted>
   9.000000E+99

> <Gold.Protein.RotatedTorsions>
[ 6907 6896 6895 6894 ] final  -89.34 input  -60.11 | X-H torsion
[ 7974 7965 7964 7962 ] final -115.37 input  175.53 | X-H torsion
[ 8008 7997 7996 7995 ] final  140.18 input   59.86 | X-H torsion
[ 10167 10162 10161 10158 ] final -113.92 input  -65.29 | X-H torsion
[ 10718 10713 10712 10709 ] final -105.50 input   66.30 | X-H torsion
[ 10763 10752 10751 10750 ] final  105.30 input  -60.55 | X-H torsion
[ 11005 11000 10999 10996 ] final  -43.61 input  -57.11 | X-H torsion

> <Gold.Protein.ActiveResidues>
 VAL166  LYS551  ARG553  GLY616  TRP617  ASP618  TYR619  PRO620  LYS621  CYS622 
 ASP623  PHE694  ASN695  SER759  ASP760  ASP761  ALA762  ILE779  LEU786  VAL792 
 PHE793  MET794  SER795  GLU796  ALA797  LYS798  CYS799  TRP800  GLU811  SER814 

> <Gold.Protein.RotatedAtoms>
  150.6873  134.2602  159.4545 H   0  0  0  0  0  0  0  0  0  0  0  0  # atno 6907 bound_to 6896
  152.0532  134.9638  160.0584 H   0  0  0  0  0  0  0  0  0  0  0  0  # atno 6908 bound_to 6896
  152.1094  133.4257  159.4661 H   0  0  0  0  0  0  0  0  0  0  0  0  # atno 6909 bound_to 6896
  145.1092  140.8600  143.3880 H   0  0  0  0  0  0  0  0  0  0  0  0  # atno 7974 bound_to 7965
  156.2982  140.2348  156.4359 H   0  0  0  0  0  0  0  0  0  0  0  0  # atno 8008 bound_to 7997
  154.8229  140.0437  157.1443 H   0  0  0  0  0  0  0  0  0  0  0  0  # atno 8009 bound_to 7997
  154.9295  140.3014  155.5178 H   0  0  0  0  0  0  0  0  0  0  0  0  # atno 8010 bound_to 7997
  140.1066  143.4564  152.1778 H   0  0  0  0  0  0  0  0  0  0  0  0  # atno 10167 bound_to 10162
  156.0348  130.5566  150.7547 H   0  0  0  0  0  0  0  0  0  0  0  0  # atno 10718 bound_to 10713
  153.3775  135.3914  155.1833 H   0  0  0  0  0  0  0  0  0  0  0  0  # atno 10763 bound_to 10752
  154.8703  135.3717  154.4899 H   0  0  0  0  0  0  0  0  0  0  0  0  # atno 10764 bound_to 10752
  153.5372  135.7085  153.5715 H   0  0  0  0  0  0  0  0  0  0  0  0  # atno 10765 bound_to 10752
  141.0395  133.6786  156.2756 H   0  0  0  0  0  0  0  0  0  0  0  0  # atno 11005 bound_to 11000
  145.0867  139.2920  143.5756 LP  0  0  0  0  0  0  0  0  0  0  0  0  # atno 17320 bound_to 7965
  146.3527  140.0391  142.8644 LP  0  0  0  0  0  0  0  0  0  0  0  0  # atno 17321 bound_to 7965
  139.5642  144.7424  151.4070 LP  0  0  0  0  0  0  0  0  0  0  0  0  # atno 17342 bound_to 10162
  140.6948  143.7774  150.7310 LP  0  0  0  0  0  0  0  0  0  0  0  0  # atno 17343 bound_to 10162
  157.5082  131.0923  151.0230 LP  0  0  0  0  0  0  0  0  0  0  0  0  # atno 17370 bound_to 10713
  157.0593  130.5819  149.5383 LP  0  0  0  0  0  0  0  0  0  0  0  0  # atno 17371 bound_to 10713
  140.6261  134.5312  157.5554 LP  0  0  0  0  0  0  0  0  0  0  0  0  # atno 17394 bound_to 11000
  139.9265  134.8046  156.1053 LP  0  0  0  0  0  0  0  0  0  0  0  0  # atno 17395 bound_to 11000

$$$$
