AV-unprocessed.smi:2061|AV-procd|sdf|8381|dock5
  -GOLD-   2272011 63D 1   1.00000     0.00000
 Structure written by MMmdl.
 45 46  0  0  0  0  0  0  0  0  3 V2000
  146.4225  136.3727  162.5486 C   0  0  0  0  0  0  0  0  0  0  0  0
  147.1203  136.1268  161.2546 C   0  0  0  0  0  0  0  0  0  0  0  0
  147.8419  135.0703  160.7760 C   0  0  0  0  0  0  0  0  0  0  0  0
  148.2296  135.5026  159.4783 C   0  0  0  0  0  0  0  0  0  0  0  0
  148.9555  134.7987  158.5960 N   0  5  0  0  0  0  0  0  0  0  0  0
  149.1657  135.2789  157.3495 C   0  0  0  0  0  0  0  0  0  0  0  0
  148.9273  136.4227  156.9544 O   0  0  0  0  0  0  0  0  0  0  0  0
  149.6924  134.3787  156.5075 N   0  0  0  0  0  0  0  0  0  0  0  0
  150.0464  134.6233  155.1127 C   0  0  0  0  0  0  0  0  0  0  0  0
  149.5259  133.5208  154.1528 C   0  0  1  0  0  0  0  0  0  0  0  0
  149.5163  132.1491  154.8709 C   0  0  0  0  0  0  0  0  0  0  0  0
  148.1923  133.9145  153.5924 N   0  3  1  0  0  0  0  0  0  0  0  0
  147.7384  133.0025  152.5081 C   0  0  0  0  0  0  0  0  0  0  0  0
  146.4289  133.5059  151.8747 C   0  0  1  0  0  0  0  0  0  0  0  0
  145.9081  132.5579  150.7884 C   0  0  0  0  0  0  0  0  0  0  0  0
  145.4376  133.6027  152.8887 O   0  0  0  0  0  0  0  0  0  0  0  0
  145.7912  134.5368  153.9000 C   0  0  1  0  0  0  0  0  0  0  0  0
  144.6225  134.6315  154.8872 C   0  0  0  0  0  0  0  0  0  0  0  0
  147.0956  134.0838  154.5852 C   0  0  0  0  0  0  0  0  0  0  0  0
  147.7676  136.7071  159.1879 N   0  0  0  0  0  0  0  0  0  0  0  0
  147.0613  137.1178  160.3247 O   0  0  0  0  0  0  0  0  0  0  0  0
  145.8054  135.5172  162.8229 H   0  0  0  0  0  0  0  0  0  0  0  0
  145.7764  137.2487  162.4872 H   0  0  0  0  0  0  0  0  0  0  0  0
  147.1439  136.5401  163.3485 H   0  0  0  0  0  0  0  0  0  0  0  0
  148.0619  134.1388  161.2753 H   0  0  0  0  0  0  0  0  0  0  0  0
  149.8671  133.4527  156.8698 H   0  0  0  0  0  0  0  0  0  0  0  0
  149.6246  135.5874  154.8278 H   0  0  0  0  0  0  0  0  0  0  0  0
  151.1278  134.7413  155.0556 H   0  0  0  0  0  0  0  0  0  0  0  0
  150.2169  133.4272  153.3136 H   0  0  0  0  0  0  0  0  0  0  0  0
  150.4934  131.9054  155.2883 H   0  0  0  0  0  0  0  0  0  0  0  0
  149.2775  131.3324  154.1897 H   0  0  0  0  0  0  0  0  0  0  0  0
  148.7993  132.1331  155.6921 H   0  0  0  0  0  0  0  0  0  0  0  0
  148.4925  132.9157  151.7279 H   0  0  0  0  0  0  0  0  0  0  0  0
  147.5933  132.0004  152.9156 H   0  0  0  0  0  0  0  0  0  0  0  0
  146.5889  134.4889  151.4280 H   0  0  0  0  0  0  0  0  0  0  0  0
  146.6315  132.4524  149.9796 H   0  0  0  0  0  0  0  0  0  0  0  0
  144.9803  132.9338  150.3561 H   0  0  0  0  0  0  0  0  0  0  0  0
  145.7092  131.5646  151.1918 H   0  0  0  0  0  0  0  0  0  0  0  0
  145.9385  135.5182  153.4454 H   0  0  0  0  0  0  0  0  0  0  0  0
  144.8330  135.3504  155.6792 H   0  0  0  0  0  0  0  0  0  0  0  0
  144.4215  133.6673  155.3552 H   0  0  0  0  0  0  0  0  0  0  0  0
  143.7110  134.9518  154.3819 H   0  0  0  0  0  0  0  0  0  0  0  0
  146.9393  133.1444  155.1182 H   0  0  0  0  0  0  0  0  0  0  0  0
  147.3567  134.8412  155.3237 H   0  0  0  0  0  0  0  0  0  0  0  0
  148.3253  134.8243  153.1745 H   0  0  0  0  0  0  0  0  0  0  0  0
  1  2  1  0  0  0  0
  1 22  1  0  0  0  0
  1 23  1  0  0  0  0
  1 24  1  0  0  0  0
  2 21  1  0  0  0  0
  2  3  2  0  0  0  0
  3  4  1  0  0  0  0
  3 25  1  0  0  0  0
  4  5  1  0  0  0  0
  4 20  2  0  0  0  0
  5  6  1  0  0  0  0
  6  7  2  0  0  0  0
  6  8  1  0  0  0  0
  8  9  1  0  0  0  0
  8 26  1  0  0  0  0
  9 10  1  0  0  0  0
  9 27  1  0  0  0  0
  9 28  1  0  0  0  0
 10 11  1  0  0  0  0
 10 12  1  0  0  0  0
 10 29  1  0  0  0  0
 11 30  1  0  0  0  0
 11 31  1  0  0  0  0
 11 32  1  0  0  0  0
 12 19  1  0  0  0  0
 12 13  1  0  0  0  0
 12 45  1  0  0  0  0
 13 14  1  0  0  0  0
 13 33  1  0  0  0  0
 13 34  1  0  0  0  0
 14 15  1  0  0  0  0
 14 16  1  0  0  0  0
 14 35  1  0  0  0  0
 15 36  1  0  0  0  0
 15 37  1  0  0  0  0
 15 38  1  0  0  0  0
 16 17  1  0  0  0  0
 17 18  1  0  0  0  0
 17 19  1  0  0  0  0
 17 39  1  0  0  0  0
 18 40  1  0  0  0  0
 18 41  1  0  0  0  0
 18 42  1  0  0  0  0
 19 43  1  0  0  0  0
 19 44  1  0  0  0  0
 20 21  1  0  0  0  0
M  CHG  1   5  -1
M  CHG  1  12   1
M  END
> <s_m_source_file>
AV-unprocessed.smi

> <i_m_source_file_index>
2061

> <i_lp_mmshare_version>
43012

> <i_f3d_flags>
0

> <s_epik_input>
W0NIM11jMVtjSF1jKG5vMSlbTkhdQyg9TylbTkhdW0NIMl1bQ0BIXShbQ0gzXSlOMltDSDJdW0NAQEhdKFtDSDNdKU9bQ0BASF0oW0NIM10pW0NIMl0y

> <s_epik_cmdline>
J2VwaWtfcHl0aG9uJywgJy1waCcsICc3LjAnLCAnLXRuJywgJzgnLCAnLW1hJywgJzIwMCcsICctbWV0YWxfYmluZGluZycsICctaW1hZScsICc8aW5maWxlLm1hZT4nLCAnLW9tYWUnLCAnPG91dGZpbGUubWFlPic=

> <r_epik_Ionization_Penalty>
6.73511

> <r_epik_Ionization_Penalty_Charging>
6.73502

> <r_epik_Ionization_Penalty_Neutral>
9.50841e-05

> <r_epik_State_Penalty>
6.93549

> <r_epik_Charging_Adjusted_Penalty>
13.6705

> <i_epik_Tot_Q>
0

> <i_epik_Tot_abs_Q>
2

> <r_epik_Metal_State_Penalty>
2.87211

> <b_epik_Metal_Only>
1

> <s_lp_Force_Field>
OPLS_2005

> <r_lp_Energy>
8.02842

> <b_lp_Chiralities_Consistent>
1

> <s_lp_Variant>
AV-unprocessed.smi:2061-22

> <Gold.Version>
5.8.1

> <Gold.Id.Protein>
6NUR|6NUR_protein|mol2

> <Gold.PLP.Fitness>
43.6421

> <Gold.PLP.PLP>
-29.6151

> <Gold.PLP.part.hbond>
-3.6636

> <Gold.PLP.part.metal>
0.0000

> <Gold.PLP.part.buried>
-4.4027

> <Gold.PLP.part.nonpolar>
-22.0139

> <Gold.PLP.part.repulsive>
0.1754

> <Gold.PLP.ligand.clash>
0.0000

> <Gold.PLP.ligand.torsion>
0.5166

> <Gold.PLP.Chemscore.Hbond>
4.9920

> <Gold.PLP.Chemscore.CHOScore>
0.0000

> <Gold.PLP.Chemscore.Metal>
0.0000

> <Gold.Chemscore.Hbonds>
donor molecule, donor type, donor heavy atom, donor atom, acceptor molecule, acceptor atom, score
      L1  H    12    45       P1  7948  2.00
      P1  H  6896  6907       L1     5  2.00
      P1  H  6934  6947       L1    21  1.00

> <Gold.PLP.Chemscore.Internal.Correction>
0.0842

> <Gold.Rescore>
     Score         DG    S(hbond)    S(metal)    S(lipo)     H(rot)  DE(clash)    DE(int)     intcor
     15.65     -17.91       2.75        0.00      61.71       1.56       0.00       2.25       ----

> <Gold.Chemscore.Fitness>
15.6533

> <Gold.Chemscore.DG>
-17.9078

> <Gold.Chemscore.ZeroCoef>
-5.4800

> <Gold.Chemscore.Hbond>
2.7511

> <Gold.Chemscore.Metal>
0.0000

> <Gold.Chemscore.Lipo>
61.7105

> <Gold.Chemscore.Internal_Hbond>
0.0000

> <Gold.Chemscore.DEClash>
0.0000

> <Gold.Chemscore.DEInternal>
2.2545

> <Gold.Chemscore.Rot>
1.5550

> <Gold.Chemscore.Internal.Correction>
   9.000000E+99

> <Gold.Chemscore.Hbonds>
donor molecule, donor type, donor heavy atom, donor atom, acceptor molecule, acceptor atom, score
      L1  H    12    45       P1  7948  0.71
      P1  H  6896  6907       L1     5  0.51
      P1  H  6934  6947       L1    21  0.90

> <Gold.Chemscore.Hbond.Weighted>
-9.1886

> <Gold.Chemscore.Metal.Weighted>
-0.0000

> <Gold.Chemscore.Lipo.Weighted>
-7.2201

> <Gold.Chemscore.Internal_Hbond.Weighted>
0.0000

> <Gold.Chemscore.DEClash.Weighted>
0.0000

> <Gold.Chemscore.DEInternal.Weighted>
2.2545

> <Gold.Chemscore.Rot.Weighted>
3.9809

> <Gold.Chemscore.Internal.Correction.Weighted>
   9.000000E+99

> <Gold.Protein.RotatedTorsions>
[ 6907 6896 6895 6894 ] final  -87.72 input  -60.11 | X-H torsion
[ 7974 7965 7964 7962 ] final  122.28 input  175.53 | X-H torsion
[ 8008 7997 7996 7995 ] final  176.77 input   59.86 | X-H torsion
[ 10167 10162 10161 10158 ] final  159.21 input  -65.29 | X-H torsion
[ 10718 10713 10712 10709 ] final -148.77 input   66.30 | X-H torsion
[ 10763 10752 10751 10750 ] final -136.95 input  -60.55 | X-H torsion
[ 11005 11000 10999 10996 ] final   -2.87 input  -57.11 | X-H torsion

> <Gold.Protein.ActiveResidues>
 VAL166  LYS551  ARG553  GLY616  TRP617  ASP618  TYR619  PRO620  LYS621  CYS622 
 ASP623  PHE694  ASN695  SER759  ASP760  ASP761  ALA762  ILE779  LEU786  VAL792 
 PHE793  MET794  SER795  GLU796  ALA797  LYS798  CYS799  TRP800  GLU811  SER814 

> <Gold.Protein.RotatedAtoms>
  150.6867  134.2853  159.4643 H   0  0  0  0  0  0  0  0  0  0  0  0  # atno 6907 bound_to 6896
  152.0763  134.9498  160.0583 H   0  0  0  0  0  0  0  0  0  0  0  0  # atno 6908 bound_to 6896
  152.0868  133.4146  159.4563 H   0  0  0  0  0  0  0  0  0  0  0  0  # atno 6909 bound_to 6896
  145.1094  139.3463  143.4771 H   0  0  0  0  0  0  0  0  0  0  0  0  # atno 7974 bound_to 7965
  156.0729  140.1375  156.9807 H   0  0  0  0  0  0  0  0  0  0  0  0  # atno 8008 bound_to 7997
  154.4542  140.0968  156.6758 H   0  0  0  0  0  0  0  0  0  0  0  0  # atno 8009 bound_to 7997
  155.5199  140.3456  155.4407 H   0  0  0  0  0  0  0  0  0  0  0  0  # atno 8010 bound_to 7997
  139.4831  144.4751  151.8522 H   0  0  0  0  0  0  0  0  0  0  0  0  # atno 10167 bound_to 10162
  156.4246  130.8045  151.2270 H   0  0  0  0  0  0  0  0  0  0  0  0  # atno 10718 bound_to 10713
  154.8673  135.3657  154.5144 H   0  0  0  0  0  0  0  0  0  0  0  0  # atno 10763 bound_to 10752
  153.5777  135.7019  153.5482 H   0  0  0  0  0  0  0  0  0  0  0  0  # atno 10764 bound_to 10752
  153.3485  135.4078  155.1590 H   0  0  0  0  0  0  0  0  0  0  0  0  # atno 10765 bound_to 10752
  140.6631  133.9302  155.8448 H   0  0  0  0  0  0  0  0  0  0  0  0  # atno 11005 bound_to 11000
  146.3527  140.1006  142.8608 LP  0  0  0  0  0  0  0  0  0  0  0  0  # atno 17320 bound_to 7965
  145.0864  140.9255  143.4795 LP  0  0  0  0  0  0  0  0  0  0  0  0  # atno 17321 bound_to 7965
  140.4223  144.2227  150.5887 LP  0  0  0  0  0  0  0  0  0  0  0  0  # atno 17342 bound_to 10162
  140.4862  143.2362  151.8885 LP  0  0  0  0  0  0  0  0  0  0  0  0  # atno 17343 bound_to 10162
  157.7508  131.0217  150.3763 LP  0  0  0  0  0  0  0  0  0  0  0  0  # atno 17370 bound_to 10713
  156.4087  130.3930  149.6907 LP  0  0  0  0  0  0  0  0  0  0  0  0  # atno 17371 bound_to 10713
  141.0450  134.0567  157.3856 LP  0  0  0  0  0  0  0  0  0  0  0  0  # atno 17394 bound_to 11000
  139.9006  135.0163  156.7250 LP  0  0  0  0  0  0  0  0  0  0  0  0  # atno 17395 bound_to 11000

$$$$
