AV-unprocessed.smi:863|AV-procd|sdf|3985|dock3
  -GOLD-   22720 1463D 1   1.00000     0.00000
 Structure written by MMmdl.
 42 44  0  0  0  0  0  0  0  0  1 V2000
  150.5767  136.8513  159.6778 O   0  0  0  0  0  0  0  0  0  0  0  0
  149.5258  137.1710  159.1218 C   0  0  0  0  0  0  0  0  0  0  0  0
  148.3022  136.2593  159.2177 C   0  0  0  0  0  0  0  0  0  0  0  0
  147.9763  135.9800  160.6601 C   0  0  0  0  0  0  0  0  0  0  0  0
  147.8448  134.7199  161.3078 C   0  0  0  0  0  0  0  0  0  0  0  0
  147.5472  135.0532  162.5976 C   0  0  0  0  0  0  0  0  0  0  0  0
  147.4999  136.4018  162.7411 O   0  0  0  0  0  0  0  0  0  0  0  0
  147.7777  136.9854  161.4998 N   0  0  0  0  0  0  0  0  0  0  0  0
  149.3769  138.3005  158.4116 N   0  0  0  0  0  0  0  0  0  0  0  0
  150.4204  139.2948  158.1814 C   0  0  1  0  0  0  0  0  0  0  0  0
  150.8358  139.3139  156.7037 C   0  0  0  0  0  0  0  0  0  0  0  0
  151.8289  140.4528  156.4367 C   0  0  0  0  0  0  0  0  0  0  0  0
  151.2836  141.7024  156.8560 O   0  0  0  0  0  0  0  0  0  0  0  0
  150.9214  141.8124  158.2389 C   0  0  0  0  0  0  0  0  0  0  0  0
  152.1676  141.7722  159.1653 C   0  0  0  0  0  0  0  0  0  0  0  0
  153.1312  142.9412  158.9034 C   0  0  0  0  0  0  0  0  0  0  0  0
  152.4182  144.2919  159.0511 C   0  0  0  0  0  0  0  0  0  0  0  0
  151.1891  144.3651  158.1349 C   0  0  0  0  0  0  0  0  0  0  0  0
  150.2301  143.1882  158.3868 C   0  0  0  0  0  0  0  0  0  0  0  0
  149.9101  140.6893  158.5772 C   0  0  0  0  0  0  0  0  0  0  0  0
  147.4564  136.7405  158.7253 H   0  0  0  0  0  0  0  0  0  0  0  0
  148.4905  135.3336  158.6715 H   0  0  0  0  0  0  0  0  0  0  0  0
  147.9504  133.7295  160.8905 H   0  0  0  0  0  0  0  0  0  0  0  0
  147.3508  134.4736  163.4874 H   0  0  0  0  0  0  0  0  0  0  0  0
  148.4774  138.4775  157.9876 H   0  0  0  0  0  0  0  0  0  0  0  0
  151.2863  139.0474  158.7973 H   0  0  0  0  0  0  0  0  0  0  0  0
  151.2798  138.3597  156.4178 H   0  0  0  0  0  0  0  0  0  0  0  0
  149.9559  139.4503  156.0734 H   0  0  0  0  0  0  0  0  0  0  0  0
  152.7840  140.2611  156.9247 H   0  0  0  0  0  0  0  0  0  0  0  0
  152.0403  140.5129  155.3691 H   0  0  0  0  0  0  0  0  0  0  0  0
  151.8401  141.8159  160.2049 H   0  0  0  0  0  0  0  0  0  0  0  0
  152.7099  140.8326  159.0734 H   0  0  0  0  0  0  0  0  0  0  0  0
  153.9722  142.8894  159.5952 H   0  0  0  0  0  0  0  0  0  0  0  0
  153.5514  142.8541  157.9008 H   0  0  0  0  0  0  0  0  0  0  0  0
  152.1111  144.4328  160.0881 H   0  0  0  0  0  0  0  0  0  0  0  0
  153.1064  145.1047  158.8179 H   0  0  0  0  0  0  0  0  0  0  0  0
  150.6662  145.3090  158.2922 H   0  0  0  0  0  0  0  0  0  0  0  0
  151.5095  144.3625  157.0924 H   0  0  0  0  0  0  0  0  0  0  0  0
  149.3850  143.2589  157.7008 H   0  0  0  0  0  0  0  0  0  0  0  0
  149.8138  143.2806  159.3911 H   0  0  0  0  0  0  0  0  0  0  0  0
  148.9757  140.8822  158.0470 H   0  0  0  0  0  0  0  0  0  0  0  0
  149.6641  140.7122  159.6397 H   0  0  0  0  0  0  0  0  0  0  0  0
  1  2  2  0  0  0  0
  2  3  1  0  0  0  0
  2  9  1  0  0  0  0
  3  4  1  0  0  0  0
  3 21  1  0  0  0  0
  3 22  1  0  0  0  0
  4  8  2  0  0  0  0
  4  5  1  0  0  0  0
  5  6  2  0  0  0  0
  5 23  1  0  0  0  0
  6  7  1  0  0  0  0
  6 24  1  0  0  0  0
  7  8  1  0  0  0  0
  9 10  1  0  0  0  0
  9 25  1  0  0  0  0
 10 20  1  0  0  0  0
 10 11  1  0  0  0  0
 10 26  1  0  0  0  0
 11 12  1  0  0  0  0
 11 27  1  0  0  0  0
 11 28  1  0  0  0  0
 12 13  1  0  0  0  0
 12 29  1  0  0  0  0
 12 30  1  0  0  0  0
 13 14  1  0  0  0  0
 14 19  1  0  0  0  0
 14 15  1  0  0  0  0
 14 20  1  0  0  0  0
 15 16  1  0  0  0  0
 15 31  1  0  0  0  0
 15 32  1  0  0  0  0
 16 17  1  0  0  0  0
 16 33  1  0  0  0  0
 16 34  1  0  0  0  0
 17 18  1  0  0  0  0
 17 35  1  0  0  0  0
 17 36  1  0  0  0  0
 18 19  1  0  0  0  0
 18 37  1  0  0  0  0
 18 38  1  0  0  0  0
 19 39  1  0  0  0  0
 19 40  1  0  0  0  0
 20 41  1  0  0  0  0
 20 42  1  0  0  0  0
M  END
> <s_m_source_file>
AV-unprocessed.smi

> <i_m_source_file_index>
863

> <i_lp_mmshare_version>
43012

> <i_f3d_flags>
0

> <s_epik_input>
bjFvW2NIXVtjSF1jMVtDSDJdQyg9TylbTkhdW0NAQEhdKFtDSDJdMilbQ0gyXVtDSDJdT0MyM1tDSDJdW0NIMl1bQ0gyXVtDSDJdW0NIMl0z

> <s_epik_cmdline>
J2VwaWtfcHl0aG9uJywgJy1waCcsICc3LjAnLCAnLXRuJywgJzgnLCAnLW1hJywgJzIwMCcsICctbWV0YWxfYmluZGluZycsICctaW1hZScsICc8aW5maWxlLm1hZT4nLCAnLW9tYWUnLCAnPG91dGZpbGUubWFlPic=

> <r_lp_tautomer_probability>
1

> <r_epik_Ionization_Penalty>
1.10177e-07

> <r_epik_Ionization_Penalty_Charging>
0

> <r_epik_Ionization_Penalty_Neutral>
1.10177e-07

> <r_epik_State_Penalty>
-0

> <r_epik_Charging_Adjusted_Penalty>
0

> <i_epik_Tot_Q>
0

> <i_epik_Tot_abs_Q>
0

> <r_epik_Metal_State_Penalty>
-0

> <b_epik_Metal_Only>
0

> <s_lp_Force_Field>
OPLS_2005

> <r_lp_Energy>
15.5582

> <b_lp_Chiralities_Consistent>
1

> <s_lp_Variant>
AV-unprocessed.smi:863-2

> <Gold.Version>
5.8.1

> <Gold.Id.Protein>
6NUR|6NUR_protein|mol2

> <Gold.PLP.Fitness>
44.0815

> <Gold.PLP.PLP>
-35.9204

> <Gold.PLP.part.hbond>
-3.1831

> <Gold.PLP.part.metal>
0.0000

> <Gold.PLP.part.buried>
-4.6753

> <Gold.PLP.part.nonpolar>
-28.6696

> <Gold.PLP.part.repulsive>
0.2193

> <Gold.PLP.ligand.clash>
0.0000

> <Gold.PLP.ligand.torsion>
0.1079

> <Gold.PLP.Chemscore.Hbond>
2.7920

> <Gold.PLP.Chemscore.CHOScore>
0.0000

> <Gold.PLP.Chemscore.Metal>
0.0000

> <Gold.Chemscore.Hbonds>
donor molecule, donor type, donor heavy atom, donor atom, acceptor molecule, acceptor atom, score
      P1  H  6896  6908       L1     1  1.00
      P1  H  6931  6943       L1     8  1.00
      P1  H  6934  6947       L1     8  0.47

> <Gold.PLP.Chemscore.Internal.Correction>
0.0009

> <Gold.Rescore>
     Score         DG    S(hbond)    S(metal)    S(lipo)     H(rot)  DE(clash)    DE(int)     intcor
     19.59     -20.01       1.95        0.00      99.49       1.42       0.21       0.21       ----

> <Gold.Chemscore.Fitness>
19.5935

> <Gold.Chemscore.DG>
-20.0070

> <Gold.Chemscore.ZeroCoef>
-5.4800

> <Gold.Chemscore.Hbond>
1.9498

> <Gold.Chemscore.Metal>
0.0000

> <Gold.Chemscore.Lipo>
99.4929

> <Gold.Chemscore.Internal_Hbond>
0.0000

> <Gold.Chemscore.DEClash>
0.2053

> <Gold.Chemscore.DEInternal>
0.2083

> <Gold.Chemscore.Rot>
1.4164

> <Gold.Chemscore.Internal.Correction>
   9.000000E+99

> <Gold.Chemscore.Hbonds>
donor molecule, donor type, donor heavy atom, donor atom, acceptor molecule, acceptor atom, score
      P1  H  6896  6908       L1     1  0.93
      P1  H  6931  6943       L1     8  0.39
      P1  H  6934  6947       L1     8  0.47

> <Gold.Chemscore.Hbond.Weighted>
-6.5123

> <Gold.Chemscore.Metal.Weighted>
-0.0000

> <Gold.Chemscore.Lipo.Weighted>
-11.6407

> <Gold.Chemscore.Internal_Hbond.Weighted>
0.0000

> <Gold.Chemscore.DEClash.Weighted>
0.2053

> <Gold.Chemscore.DEInternal.Weighted>
0.2083

> <Gold.Chemscore.Rot.Weighted>
3.6259

> <Gold.Chemscore.Internal.Correction.Weighted>
   9.000000E+99

> <Gold.Protein.RotatedTorsions>
[ 6907 6896 6895 6894 ] final -160.30 input  -60.11 | X-H torsion
[ 7974 7965 7964 7962 ] final  139.81 input  175.53 | X-H torsion
[ 8008 7997 7996 7995 ] final -127.26 input   59.86 | X-H torsion
[ 10167 10162 10161 10158 ] final  -96.06 input  -65.29 | X-H torsion
[ 10718 10713 10712 10709 ] final   96.97 input   66.30 | X-H torsion
[ 10763 10752 10751 10750 ] final   97.51 input  -60.55 | X-H torsion
[ 11005 11000 10999 10996 ] final -128.81 input  -57.11 | X-H torsion

> <Gold.Protein.ActiveResidues>
 VAL166  LYS551  ARG553  GLY616  TRP617  ASP618  TYR619  PRO620  LYS621  CYS622 
 ASP623  PHE694  ASN695  SER759  ASP760  ASP761  ALA762  ILE779  LEU786  VAL792 
 PHE793  MET794  SER795  GLU796  ALA797  LYS798  CYS799  TRP800  GLU811  SER814 

> <Gold.Protein.RotatedAtoms>
  151.3469  133.3940  159.2676 H   0  0  0  0  0  0  0  0  0  0  0  0  # atno 6907 bound_to 6896
  150.9832  134.9184  159.7867 H   0  0  0  0  0  0  0  0  0  0  0  0  # atno 6908 bound_to 6896
  152.5224  134.3434  159.9277 H   0  0  0  0  0  0  0  0  0  0  0  0  # atno 6909 bound_to 6896
  144.9244  139.5126  143.5648 H   0  0  0  0  0  0  0  0  0  0  0  0  # atno 7974 bound_to 7965
  155.2432  140.0429  157.2977 H   0  0  0  0  0  0  0  0  0  0  0  0  # atno 8008 bound_to 7997
  154.5815  140.2402  155.8017 H   0  0  0  0  0  0  0  0  0  0  0  0  # atno 8009 bound_to 7997
  156.2196  140.2974  155.9929 H   0  0  0  0  0  0  0  0  0  0  0  0  # atno 8010 bound_to 7997
  140.2977  143.3182  152.0280 H   0  0  0  0  0  0  0  0  0  0  0  0  # atno 10167 bound_to 10162
  157.6919  131.0595  150.4572 H   0  0  0  0  0  0  0  0  0  0  0  0  # atno 10718 bound_to 10713
  153.2778  135.4181  155.1049 H   0  0  0  0  0  0  0  0  0  0  0  0  # atno 10763 bound_to 10752
  154.8479  135.3488  154.6154 H   0  0  0  0  0  0  0  0  0  0  0  0  # atno 10764 bound_to 10752
  153.6575  135.7050  153.5246 H   0  0  0  0  0  0  0  0  0  0  0  0  # atno 10765 bound_to 10752
  140.9485  134.1098  157.4085 H   0  0  0  0  0  0  0  0  0  0  0  0  # atno 11005 bound_to 11000
  146.3219  139.8148  142.8938 LP  0  0  0  0  0  0  0  0  0  0  0  0  # atno 17320 bound_to 7965
  145.3243  141.0251  143.3483 LP  0  0  0  0  0  0  0  0  0  0  0  0  # atno 17321 bound_to 7965
  139.4922  144.6479  151.6740 LP  0  0  0  0  0  0  0  0  0  0  0  0  # atno 17342 bound_to 10162
  140.5678  144.0161  150.6201 LP  0  0  0  0  0  0  0  0  0  0  0  0  # atno 17343 bound_to 10162
  156.4919  130.4097  149.6401 LP  0  0  0  0  0  0  0  0  0  0  0  0  # atno 17370 bound_to 10713
  156.3409  130.7381  151.2326 LP  0  0  0  0  0  0  0  0  0  0  0  0  # atno 17371 bound_to 10713
  139.8840  135.0058  156.6341 LP  0  0  0  0  0  0  0  0  0  0  0  0  # atno 17394 bound_to 11000
  140.7636  133.8797  155.8437 LP  0  0  0  0  0  0  0  0  0  0  0  0  # atno 17395 bound_to 11000

$$$$
