AV-unprocessed.smi:247|AV-procd|sdf|1891|dock1
  -GOLD-   2262020553D 1   1.00000     0.00000
 Structure written by MMmdl.
 61 65  0  0  0  0  0  0  0  0  1 V2000
  146.1608  136.7056  150.6819 O   0  0  0  0  0  0  0  0  0  0  0  0
  145.4989  136.1342  151.7934 C   0  0  0  0  0  0  0  0  0  0  0  0
  145.1515  134.6317  151.6009 C   0  0  0  0  0  0  0  0  0  0  0  0
  144.3984  134.1285  152.8730 C   0  0  0  0  0  0  0  0  0  0  0  0
  143.1657  134.8388  153.1851 N   0  0  0  0  0  0  0  0  0  0  0  0
  141.8827  134.3549  153.0669 C   0  0  0  0  0  0  0  0  0  0  0  0
  140.9401  135.1866  153.4143 N   0  0  0  0  0  0  0  0  0  0  0  0
  141.6213  136.3255  153.8299 C   0  0  0  0  0  0  0  0  0  0  0  0
  141.2210  137.6005  154.3274 C   0  0  0  0  0  0  0  0  0  0  0  0
  139.9206  137.9608  154.5014 N   0  0  0  0  0  0  0  0  0  0  0  0
  138.8720  136.9823  154.2386 C   0  0  0  0  0  0  0  0  0  0  0  0
  137.7170  137.3444  155.1716 C   0  0  0  0  0  0  0  0  0  0  0  0
  138.3862  138.1976  156.2462 C   0  0  0  0  0  0  0  0  0  0  0  0
  139.4846  138.9595  155.4823 C   0  0  2  0  0  0  0  0  0  0  0  0
  138.9861  140.2818  154.8057 C   0  0  1  0  0  0  0  0  0  0  0  0
  138.2563  141.2028  155.8150 C   0  0  0  0  0  0  0  0  0  0  0  0
  139.1674  141.6641  156.8100 O   0  0  0  0  0  0  0  0  0  0  0  0
  140.1919  142.5041  156.2868 C   0  0  0  0  0  0  0  0  0  0  0  0
  141.0159  141.7543  155.2276 C   0  0  0  0  0  0  0  0  0  0  0  0
  140.0823  141.1712  154.1583 C   0  0  1  0  0  0  0  0  0  0  0  0
  140.8184  140.5324  153.1354 O   0  0  0  0  0  0  0  0  0  0  0  0
  142.2084  138.4870  154.6203 N   0  0  0  0  0  0  0  0  0  0  0  0
  143.4916  138.1581  154.4522 C   0  0  0  0  0  0  0  0  0  0  0  0
  144.0063  137.0129  154.0037 N   0  0  0  0  0  0  0  0  0  0  0  0
  143.0243  136.1185  153.6952 C   0  0  0  0  0  0  0  0  0  0  0  0
  144.3054  134.4494  150.3139 C   0  0  0  0  0  0  0  0  0  0  0  0
  144.1242  132.9686  149.9366 C   0  0  0  0  0  0  0  0  0  0  0  0
  145.3962  132.3523  149.7770 O   0  0  0  0  0  0  0  0  0  0  0  0
  146.1711  132.3542  150.9702 C   0  0  0  0  0  0  0  0  0  0  0  0
  146.4486  133.8007  151.4230 C   0  0  0  0  0  0  0  0  0  0  0  0
  147.0885  136.7220  150.8602 H   0  0  0  0  0  0  0  0  0  0  0  0
  146.1354  136.2667  152.6688 H   0  0  0  0  0  0  0  0  0  0  0  0
  144.5970  136.7212  151.9658 H   0  0  0  0  0  0  0  0  0  0  0  0
  144.1478  133.0717  152.7959 H   0  0  0  0  0  0  0  0  0  0  0  0
  145.0542  134.2041  153.7415 H   0  0  0  0  0  0  0  0  0  0  0  0
  141.6646  133.3612  152.7040 H   0  0  0  0  0  0  0  0  0  0  0  0
  138.5627  137.0054  153.1934 H   0  0  0  0  0  0  0  0  0  0  0  0
  139.2340  135.9789  154.4668 H   0  0  0  0  0  0  0  0  0  0  0  0
  136.9764  137.9377  154.6344 H   0  0  0  0  0  0  0  0  0  0  0  0
  137.2133  136.4674  155.5788 H   0  0  0  0  0  0  0  0  0  0  0  0
  137.6765  138.8145  156.7919 H   0  0  0  0  0  0  0  0  0  0  0  0
  138.8556  137.5395  156.9788 H   0  0  0  0  0  0  0  0  0  0  0  0
  140.2691  139.2100  156.1953 H   0  0  0  0  0  0  0  0  0  0  0  0
  138.2757  140.0130  154.0230 H   0  0  0  0  0  0  0  0  0  0  0  0
  137.8148  142.0589  155.3022 H   0  0  0  0  0  0  0  0  0  0  0  0
  137.4236  140.7038  156.3046 H   0  0  0  0  0  0  0  0  0  0  0  0
  139.7465  143.4045  155.8609 H   0  0  0  0  0  0  0  0  0  0  0  0
  140.8367  142.8266  157.1043 H   0  0  0  0  0  0  0  0  0  0  0  0
  141.7384  142.4329  154.7732 H   0  0  0  0  0  0  0  0  0  0  0  0
  141.5930  140.9628  155.7041 H   0  0  0  0  0  0  0  0  0  0  0  0
  139.5846  142.0070  153.6641 H   0  0  0  0  0  0  0  0  0  0  0  0
  140.4420  140.7686  152.3016 H   0  0  0  0  0  0  0  0  0  0  0  0
  144.2076  138.9232  154.7143 H   0  0  0  0  0  0  0  0  0  0  0  0
  143.3368  134.9395  150.4043 H   0  0  0  0  0  0  0  0  0  0  0  0
  144.7994  134.9395  149.4745 H   0  0  0  0  0  0  0  0  0  0  0  0
  143.5340  132.4318  150.6796 H   0  0  0  0  0  0  0  0  0  0  0  0
  143.5819  132.8920  148.9941 H   0  0  0  0  0  0  0  0  0  0  0  0
  145.6689  131.7758  151.7458 H   0  0  0  0  0  0  0  0  0  0  0  0
  147.1138  131.8448  150.7697 H   0  0  0  0  0  0  0  0  0  0  0  0
  147.0895  134.2582  150.6689 H   0  0  0  0  0  0  0  0  0  0  0  0
  147.0296  133.7977  152.3459 H   0  0  0  0  0  0  0  0  0  0  0  0
  1  2  1  0  0  0  0
  1 31  1  0  0  0  0
  2  3  1  0  0  0  0
  2 32  1  0  0  0  0
  2 33  1  0  0  0  0
  3 30  1  0  0  0  0
  3  4  1  0  0  0  0
  3 26  1  0  0  0  0
  4  5  1  0  0  0  0
  4 34  1  0  0  0  0
  4 35  1  0  0  0  0
  5 25  1  0  0  0  0
  5  6  1  0  0  0  0
  6  7  2  0  0  0  0
  6 36  1  0  0  0  0
  7  8  1  0  0  0  0
  8 25  2  0  0  0  0
  8  9  1  0  0  0  0
  9 10  1  0  0  0  0
  9 22  2  0  0  0  0
 10 14  1  0  0  0  0
 10 11  1  0  0  0  0
 11 12  1  0  0  0  0
 11 37  1  0  0  0  0
 11 38  1  0  0  0  0
 12 13  1  0  0  0  0
 12 39  1  0  0  0  0
 12 40  1  0  0  0  0
 13 14  1  0  0  0  0
 13 41  1  0  0  0  0
 13 42  1  0  0  0  0
 14 15  1  0  0  0  0
 14 43  1  0  0  0  0
 15 20  1  0  0  0  0
 15 16  1  0  0  0  0
 15 44  1  0  0  0  0
 16 17  1  0  0  0  0
 16 45  1  0  0  0  0
 16 46  1  0  0  0  0
 17 18  1  0  0  0  0
 18 19  1  0  0  0  0
 18 47  1  0  0  0  0
 18 48  1  0  0  0  0
 19 20  1  0  0  0  0
 19 49  1  0  0  0  0
 19 50  1  0  0  0  0
 20 21  1  0  0  0  0
 20 51  1  0  0  0  0
 21 52  1  0  0  0  0
 22 23  1  0  0  0  0
 23 24  2  0  0  0  0
 23 53  1  0  0  0  0
 24 25  1  0  0  0  0
 26 27  1  0  0  0  0
 26 54  1  0  0  0  0
 26 55  1  0  0  0  0
 27 28  1  0  0  0  0
 27 56  1  0  0  0  0
 27 57  1  0  0  0  0
 28 29  1  0  0  0  0
 29 30  1  0  0  0  0
 29 58  1  0  0  0  0
 29 59  1  0  0  0  0
 30 60  1  0  0  0  0
 30 61  1  0  0  0  0
M  END
> <s_m_source_file>
AV-unprocessed.smi

> <i_m_source_file_index>
247

> <i_lp_mmshare_version>
43012

> <i_f3d_flags>
0

> <s_epik_input>
W0NIMl0xW0NIMl1PW0NIMl1bQ0gyXUMxKFtDSDJdW09IXSlbQ0gyXW4oW2NIXW4yKWMoYzIzKW5bY0hdbmMzTjRbQ0gyXVtDSDJdW0NIMl1bQ0BIXTRbQ0BASF01W0NIMl1PW0NIMl1bQ0gyXVtDQEhdNVtPSF0=

> <s_epik_cmdline>
J2VwaWtfcHl0aG9uJywgJy1waCcsICc3LjAnLCAnLXRuJywgJzgnLCAnLW1hJywgJzIwMCcsICctbWV0YWxfYmluZGluZycsICctaW1hZScsICc8aW5maWxlLm1hZT4nLCAnLW9tYWUnLCAnPG91dGZpbGUubWFlPic=

> <r_lp_tautomer_probability>
1

> <r_epik_Ionization_Penalty>
0.00362597

> <r_epik_Ionization_Penalty_Charging>
0

> <r_epik_Ionization_Penalty_Neutral>
0.00362597

> <r_epik_State_Penalty>
0.00241433

> <r_epik_Charging_Adjusted_Penalty>
0.00241433

> <i_epik_Tot_Q>
0

> <i_epik_Tot_abs_Q>
0

> <r_epik_Metal_State_Penalty>
-0

> <b_epik_Metal_Only>
0

> <s_lp_Force_Field>
OPLS_2005

> <r_lp_Energy>
63.0173

> <b_lp_Chiralities_Consistent>
1

> <s_lp_Variant>
AV-unprocessed.smi:247-4

> <Gold.Version>
5.8.1

> <Gold.Id.Protein>
6NUR|6NUR_protein|mol2

> <Gold.PLP.Fitness>
46.4651

> <Gold.PLP.PLP>
-40.7888

> <Gold.PLP.part.hbond>
-4.3099

> <Gold.PLP.part.metal>
0.0000

> <Gold.PLP.part.buried>
-5.2360

> <Gold.PLP.part.nonpolar>
-30.7366

> <Gold.PLP.part.repulsive>
0.8333

> <Gold.PLP.ligand.clash>
0.0000

> <Gold.PLP.ligand.torsion>
0.3844

> <Gold.PLP.Chemscore.Hbond>
1.9033

> <Gold.PLP.Chemscore.CHOScore>
0.1112

> <Gold.PLP.Chemscore.Metal>
0.0000

> <Gold.Chemscore.Hbonds>
donor molecule, donor type, donor heavy atom, donor atom, acceptor molecule, acceptor atom, score
      L1  H     1    31       P1  7948  0.78
      L1  H    21    52       P1 10160  0.73
      L1  C     6    36       P1 10957  0.18
      L1  C    23    53       P1 10175  0.12

> <Gold.PLP.Chemscore.Internal.Correction>
0.4017

> <Gold.Rescore>
     Score         DG    S(hbond)    S(metal)    S(lipo)     H(rot)  DE(clash)    DE(int)     intcor
      8.49     -13.38       1.94        0.00      76.41       2.94       0.07       4.82       ----

> <Gold.Chemscore.Fitness>
8.4880

> <Gold.Chemscore.DG>
-13.3796

> <Gold.Chemscore.ZeroCoef>
-5.4800

> <Gold.Chemscore.Hbond>
1.9436

> <Gold.Chemscore.Metal>
0.0000

> <Gold.Chemscore.Lipo>
76.4123

> <Gold.Chemscore.Internal_Hbond>
0.0000

> <Gold.Chemscore.DEClash>
0.0731

> <Gold.Chemscore.DEInternal>
4.8186

> <Gold.Chemscore.Rot>
2.9423

> <Gold.Chemscore.Internal.Correction>
   9.000000E+99

> <Gold.Chemscore.Hbonds>
donor molecule, donor type, donor heavy atom, donor atom, acceptor molecule, acceptor atom, score
      L1  H     1    31       P1  7948  0.75
      L1  H    21    52       P1 10160  0.70

> <Gold.Chemscore.Hbond.Weighted>
-6.4916

> <Gold.Chemscore.Metal.Weighted>
-0.0000

> <Gold.Chemscore.Lipo.Weighted>
-8.9402

> <Gold.Chemscore.Internal_Hbond.Weighted>
0.0000

> <Gold.Chemscore.DEClash.Weighted>
0.0731

> <Gold.Chemscore.DEInternal.Weighted>
4.8186

> <Gold.Chemscore.Rot.Weighted>
7.5323

> <Gold.Chemscore.Internal.Correction.Weighted>
   9.000000E+99

> <Gold.Protein.RotatedTorsions>
[ 6907 6896 6895 6894 ] final -165.20 input  -60.11 | X-H torsion
[ 7974 7965 7964 7962 ] final  107.43 input  175.53 | X-H torsion
[ 8008 7997 7996 7995 ] final  -27.59 input   59.86 | X-H torsion
[ 10167 10162 10161 10158 ] final  124.57 input  -65.29 | X-H torsion
[ 10718 10713 10712 10709 ] final -144.50 input   66.30 | X-H torsion
[ 10763 10752 10751 10750 ] final   82.04 input  -60.55 | X-H torsion
[ 11005 11000 10999 10996 ] final  166.48 input  -57.11 | X-H torsion

> <Gold.Protein.ActiveResidues>
 VAL166  LYS551  ARG553  GLY616  TRP617  ASP618  TYR619  PRO620  LYS621  CYS622 
 ASP623  PHE694  ASN695  SER759  ASP760  ASP761  ALA762  ILE779  LEU786  VAL792 
 PHE793  MET794  SER795  GLU796  ALA797  LYS798  CYS799  TRP800  GLU811  SER814 

> <Gold.Protein.RotatedAtoms>
  151.4238  133.3690  159.2759 H   0  0  0  0  0  0  0  0  0  0  0  0  # atno 6907 bound_to 6896
  150.9274  134.8692  159.7539 H   0  0  0  0  0  0  0  0  0  0  0  0  # atno 6908 bound_to 6896
  152.5011  134.4181  159.9523 H   0  0  0  0  0  0  0  0  0  0  0  0  # atno 6909 bound_to 6896
  145.2937  139.2592  143.3851 H   0  0  0  0  0  0  0  0  0  0  0  0  # atno 7974 bound_to 7965
  154.4370  140.1868  156.0956 H   0  0  0  0  0  0  0  0  0  0  0  0  # atno 8008 bound_to 7997
  156.0332  140.3328  155.7136 H   0  0  0  0  0  0  0  0  0  0  0  0  # atno 8009 bound_to 7997
  155.5809  140.0621  157.2774 H   0  0  0  0  0  0  0  0  0  0  0  0  # atno 8010 bound_to 7997
  139.5734  144.6951  151.3717 H   0  0  0  0  0  0  0  0  0  0  0  0  # atno 10167 bound_to 10162
  156.3709  130.7787  151.1968 H   0  0  0  0  0  0  0  0  0  0  0  0  # atno 10718 bound_to 10713
  153.1168  135.4743  154.9129 H   0  0  0  0  0  0  0  0  0  0  0  0  # atno 10763 bound_to 10752
  154.7536  135.3112  154.8513 H   0  0  0  0  0  0  0  0  0  0  0  0  # atno 10764 bound_to 10752
  153.9088  135.6867  153.4805 H   0  0  0  0  0  0  0  0  0  0  0  0  # atno 10765 bound_to 10752
  140.2669  134.7858  157.3640 H   0  0  0  0  0  0  0  0  0  0  0  0  # atno 11005 bound_to 11000
  146.3176  140.3435  142.8650 LP  0  0  0  0  0  0  0  0  0  0  0  0  # atno 17320 bound_to 7965
  144.9151  140.7803  143.5783 LP  0  0  0  0  0  0  0  0  0  0  0  0  # atno 17321 bound_to 7965
  140.7018  143.7613  150.7416 LP  0  0  0  0  0  0  0  0  0  0  0  0  # atno 17342 bound_to 10162
  140.1125  143.4686  152.2361 LP  0  0  0  0  0  0  0  0  0  0  0  0  # atno 17343 bound_to 10162
  157.7484  131.0372  150.4446 LP  0  0  0  0  0  0  0  0  0  0  0  0  # atno 17370 bound_to 10713
  156.4673  130.4045  149.6539 LP  0  0  0  0  0  0  0  0  0  0  0  0  # atno 17371 bound_to 10713
  140.1410  134.4971  155.8031 LP  0  0  0  0  0  0  0  0  0  0  0  0  # atno 17394 bound_to 11000
  141.2183  133.6825  156.7211 LP  0  0  0  0  0  0  0  0  0  0  0  0  # atno 17395 bound_to 11000

$$$$
