AV-unprocessed.smi:1115|AV-procd|sdf|4805|dock9
  -GOLD-   22720 3353D 1   1.00000     0.00000
 Structure written by MMmdl.
 51 52  0  0  0  0  0  0  0  0  2 V2000
  151.4291  144.4679  157.7709 C   0  0  0  0  0  0  0  0  0  0  0  0
  151.7126  144.4490  159.2006 N   0  0  0  0  0  0  0  0  0  0  0  0
  151.2257  145.5293  160.0524 C   0  0  0  0  0  0  0  0  0  0  0  0
  152.3949  143.3526  159.7760 C   0  0  0  0  0  0  0  0  0  0  0  0
  152.6110  143.2667  161.1740 C   0  0  0  0  0  0  0  0  0  0  0  0
  153.2957  142.1546  161.7006 C   0  0  0  0  0  0  0  0  0  0  0  0
  153.7454  141.1449  160.8193 C   0  0  0  0  0  0  0  0  0  0  0  0
  154.4657  139.9884  161.2236 N   0  0  0  0  0  0  0  0  0  0  0  0
  155.1834  139.1422  160.4655 C   0  0  0  0  0  0  0  0  0  0  0  0
  155.3803  139.2609  159.2564 O   0  0  0  0  0  0  0  0  0  0  0  0
  155.6950  138.1463  161.2033 N   0  0  0  0  0  0  0  0  0  0  0  0
  156.5228  137.0511  160.6968 C   0  0  0  0  0  0  0  0  0  0  0  0
  155.7492  135.7134  160.4842 C   0  0  0  0  0  0  0  0  0  0  0  0
  154.3706  136.0429  159.8519 C   0  0  0  0  0  0  0  0  0  0  0  0
  156.5222  134.8098  159.4926 C   0  0  0  0  0  0  0  0  0  0  0  0
  155.5757  135.0362  161.8238 N   0  3  0  0  0  0  0  0  0  0  0  0
  154.7865  135.7855  162.8446 C   0  0  0  0  0  0  0  0  0  0  0  0
  154.8051  135.0582  164.2011 C   0  0  0  0  0  0  0  0  0  0  0  0
  154.3226  133.7316  164.0522 O   0  0  0  0  0  0  0  0  0  0  0  0
  155.1362  132.9796  163.1651 C   0  0  0  0  0  0  0  0  0  0  0  0
  155.0969  133.6241  161.7707 C   0  0  0  0  0  0  0  0  0  0  0  0
  153.4967  141.3234  159.4446 C   0  0  0  0  0  0  0  0  0  0  0  0
  152.8394  142.3860  158.9361 N   0  0  0  0  0  0  0  0  0  0  0  0
  150.8186  143.6093  157.4901 H   0  0  0  0  0  0  0  0  0  0  0  0
  152.3550  144.4430  157.1960 H   0  0  0  0  0  0  0  0  0  0  0  0
  150.8860  145.3688  157.4855 H   0  0  0  0  0  0  0  0  0  0  0  0
  150.5141  145.1473  160.7851 H   0  0  0  0  0  0  0  0  0  0  0  0
  150.7226  146.3014  159.4699 H   0  0  0  0  0  0  0  0  0  0  0  0
  152.0527  146.0002  160.5846 H   0  0  0  0  0  0  0  0  0  0  0  0
  152.2704  144.0330  161.8536 H   0  0  0  0  0  0  0  0  0  0  0  0
  153.4734  142.1093  162.7637 H   0  0  0  0  0  0  0  0  0  0  0  0
  154.4696  139.8092  162.2172 H   0  0  0  0  0  0  0  0  0  0  0  0
  155.4866  138.1365  162.1913 H   0  0  0  0  0  0  0  0  0  0  0  0
  156.9287  137.4239  159.7589 H   0  0  0  0  0  0  0  0  0  0  0  0
  157.3846  136.8836  161.3453 H   0  0  0  0  0  0  0  0  0  0  0  0
  154.4668  136.6104  158.9270 H   0  0  0  0  0  0  0  0  0  0  0  0
  153.7504  136.6312  160.5294 H   0  0  0  0  0  0  0  0  0  0  0  0
  153.8172  135.1463  159.5735 H   0  0  0  0  0  0  0  0  0  0  0  0
  156.5587  135.2539  158.4974 H   0  0  0  0  0  0  0  0  0  0  0  0
  156.0525  133.8323  159.3838 H   0  0  0  0  0  0  0  0  0  0  0  0
  157.5554  134.6505  159.8010 H   0  0  0  0  0  0  0  0  0  0  0  0
  155.1950  136.7792  163.0195 H   0  0  0  0  0  0  0  0  0  0  0  0
  153.7580  135.9106  162.5046 H   0  0  0  0  0  0  0  0  0  0  0  0
  155.8123  135.0458  164.6213 H   0  0  0  0  0  0  0  0  0  0  0  0
  154.1714  135.5836  164.9158 H   0  0  0  0  0  0  0  0  0  0  0  0
  156.1585  132.9192  163.5419 H   0  0  0  0  0  0  0  0  0  0  0  0
  154.7537  131.9597  163.1177 H   0  0  0  0  0  0  0  0  0  0  0  0
  154.0736  133.5874  161.3956 H   0  0  0  0  0  0  0  0  0  0  0  0
  155.7030  133.0153  161.1041 H   0  0  0  0  0  0  0  0  0  0  0  0
  153.8306  140.5883  158.7268 H   0  0  0  0  0  0  0  0  0  0  0  0
  156.5095  134.9902  162.2069 H   0  0  0  0  0  0  0  0  0  0  0  0
  1  2  1  0  0  0  0
  1 24  1  0  0  0  0
  1 25  1  0  0  0  0
  1 26  1  0  0  0  0
  2  3  1  0  0  0  0
  2  4  1  0  0  0  0
  3 27  1  0  0  0  0
  3 28  1  0  0  0  0
  3 29  1  0  0  0  0
  4 23  1  0  0  0  0
  4  5  2  0  0  0  0
  5  6  1  0  0  0  0
  5 30  1  0  0  0  0
  6  7  2  0  0  0  0
  6 31  1  0  0  0  0
  7  8  1  0  0  0  0
  7 22  1  0  0  0  0
  8  9  1  0  0  0  0
  8 32  1  0  0  0  0
  9 10  2  0  0  0  0
  9 11  1  0  0  0  0
 11 12  1  0  0  0  0
 11 33  1  0  0  0  0
 12 13  1  0  0  0  0
 12 34  1  0  0  0  0
 12 35  1  0  0  0  0
 13 14  1  0  0  0  0
 13 15  1  0  0  0  0
 13 16  1  0  0  0  0
 14 36  1  0  0  0  0
 14 37  1  0  0  0  0
 14 38  1  0  0  0  0
 15 39  1  0  0  0  0
 15 40  1  0  0  0  0
 15 41  1  0  0  0  0
 16 21  1  0  0  0  0
 16 17  1  0  0  0  0
 16 51  1  0  0  0  0
 17 18  1  0  0  0  0
 17 42  1  0  0  0  0
 17 43  1  0  0  0  0
 18 19  1  0  0  0  0
 18 44  1  0  0  0  0
 18 45  1  0  0  0  0
 19 20  1  0  0  0  0
 20 21  1  0  0  0  0
 20 46  1  0  0  0  0
 20 47  1  0  0  0  0
 21 48  1  0  0  0  0
 21 49  1  0  0  0  0
 22 23  2  0  0  0  0
 22 50  1  0  0  0  0
M  CHG  1  16   1
M  END
> <s_m_source_file>
AV-unprocessed.smi

> <i_m_source_file_index>
1115

> <i_lp_mmshare_version>
43012

> <i_f3d_flags>
0

> <s_epik_input>
W0NIM11OKFtDSDNdKWMxW2NIXVtjSF1jKFtjSF1uMSlbTkhdQyg9TylbTkhdW0NIMl1DKFtDSDNdKShbQ0gzXSlOMltDSDJdW0NIMl1PW0NIMl1bQ0gyXTI=

> <s_epik_cmdline>
J2VwaWtfcHl0aG9uJywgJy1waCcsICc3LjAnLCAnLXRuJywgJzgnLCAnLW1hJywgJzIwMCcsICctbWV0YWxfYmluZGluZycsICctaW1hZScsICc8aW5maWxlLm1hZT4nLCAnLW9tYWUnLCAnPG91dGZpbGUubWFlPic=

> <r_epik_Ionization_Penalty>
1.14783

> <r_epik_Ionization_Penalty_Charging>
0.602531

> <r_epik_Ionization_Penalty_Neutral>
0.545303

> <r_epik_State_Penalty>
1.19446

> <r_epik_Charging_Adjusted_Penalty>
1.79699

> <i_epik_Tot_Q>
1

> <i_epik_Tot_abs_Q>
1

> <r_epik_Metal_State_Penalty>
0.937982

> <b_epik_Metal_Only>
0

> <s_lp_Force_Field>
OPLS_2005

> <r_lp_Energy>
30.1641

> <b_lp_Chiralities_Consistent>
1

> <s_lp_Variant>
AV-unprocessed.smi:1115-4

> <Gold.Version>
5.8.1

> <Gold.Id.Protein>
6NUR|6NUR_protein|mol2

> <Gold.PLP.Fitness>
43.8297

> <Gold.PLP.PLP>
-41.9148

> <Gold.PLP.part.hbond>
-1.0000

> <Gold.PLP.part.metal>
0.0000

> <Gold.PLP.part.buried>
-5.4245

> <Gold.PLP.part.nonpolar>
-35.0193

> <Gold.PLP.part.repulsive>
0.0653

> <Gold.PLP.ligand.clash>
0.0000

> <Gold.PLP.ligand.torsion>
0.5782

> <Gold.PLP.Chemscore.Hbond>
0.9913

> <Gold.PLP.Chemscore.CHOScore>
0.0000

> <Gold.PLP.Chemscore.Metal>
0.0000

> <Gold.Chemscore.Hbonds>
donor molecule, donor type, donor heavy atom, donor atom, acceptor molecule, acceptor atom, score
      P1  H  7997  8008       L1    10  0.94

> <Gold.PLP.Chemscore.Internal.Correction>
0.0975

> <Gold.Rescore>
     Score         DG    S(hbond)    S(metal)    S(lipo)     H(rot)  DE(clash)    DE(int)     intcor
     14.36     -16.58       0.98        0.00      99.03       1.46       0.07       2.16       ----

> <Gold.Chemscore.Fitness>
14.3563

> <Gold.Chemscore.DG>
-16.5839

> <Gold.Chemscore.ZeroCoef>
-5.4800

> <Gold.Chemscore.Hbond>
0.9784

> <Gold.Chemscore.Metal>
0.0000

> <Gold.Chemscore.Lipo>
99.0259

> <Gold.Chemscore.Internal_Hbond>
0.0000

> <Gold.Chemscore.DEClash>
0.0702

> <Gold.Chemscore.DEInternal>
2.1574

> <Gold.Chemscore.Rot>
1.4648

> <Gold.Chemscore.Internal.Correction>
   9.000000E+99

> <Gold.Chemscore.Hbonds>
donor molecule, donor type, donor heavy atom, donor atom, acceptor molecule, acceptor atom, score
      P1  H  7997  8008       L1    10  0.90

> <Gold.Chemscore.Hbond.Weighted>
-3.2678

> <Gold.Chemscore.Metal.Weighted>
-0.0000

> <Gold.Chemscore.Lipo.Weighted>
-11.5860

> <Gold.Chemscore.Internal_Hbond.Weighted>
0.0000

> <Gold.Chemscore.DEClash.Weighted>
0.0702

> <Gold.Chemscore.DEInternal.Weighted>
2.1574

> <Gold.Chemscore.Rot.Weighted>
3.7499

> <Gold.Chemscore.Internal.Correction.Weighted>
   9.000000E+99

> <Gold.Protein.RotatedTorsions>
[ 6907 6896 6895 6894 ] final -161.34 input  -60.11 | X-H torsion
[ 7974 7965 7964 7962 ] final  178.77 input  175.53 | X-H torsion
[ 8008 7997 7996 7995 ] final -142.86 input   59.86 | X-H torsion
[ 10167 10162 10161 10158 ] final  109.35 input  -65.29 | X-H torsion
[ 10718 10713 10712 10709 ] final -174.34 input   66.30 | X-H torsion
[ 10763 10752 10751 10750 ] final   10.89 input  -60.55 | X-H torsion
[ 11005 11000 10999 10996 ] final  -92.33 input  -57.11 | X-H torsion

> <Gold.Protein.ActiveResidues>
 VAL166  LYS551  ARG553  GLY616  TRP617  ASP618  TYR619  PRO620  LYS621  CYS622 
 ASP623  PHE694  ASN695  SER759  ASP760  ASP761  ALA762  ILE779  LEU786  VAL792 
 PHE793  MET794  SER795  GLU796  ALA797  LYS798  CYS799  TRP800  GLU811  SER814 

> <Gold.Protein.RotatedAtoms>
  151.3632  133.3882  159.2691 H   0  0  0  0  0  0  0  0  0  0  0  0  # atno 6907 bound_to 6896
  150.9709  134.9083  159.7798 H   0  0  0  0  0  0  0  0  0  0  0  0  # atno 6908 bound_to 6896
  152.5184  134.3593  159.9331 H   0  0  0  0  0  0  0  0  0  0  0  0  # atno 6909 bound_to 6896
  144.7152  140.0448  143.6436 H   0  0  0  0  0  0  0  0  0  0  0  0  # atno 7974 bound_to 7965
  155.5012  140.0575  157.2939 H   0  0  0  0  0  0  0  0  0  0  0  0  # atno 8008 bound_to 7997
  154.4586  140.1985  156.0257 H   0  0  0  0  0  0  0  0  0  0  0  0  # atno 8009 bound_to 7997
  156.0848  140.3242  155.7743 H   0  0  0  0  0  0  0  0  0  0  0  0  # atno 8010 bound_to 7997
  139.6773  144.7121  151.1578 H   0  0  0  0  0  0  0  0  0  0  0  0  # atno 10167 bound_to 10162
  156.7837  130.9493  151.3120 H   0  0  0  0  0  0  0  0  0  0  0  0  # atno 10718 bound_to 10713
  153.1984  135.6852  153.8262 H   0  0  0  0  0  0  0  0  0  0  0  0  # atno 10763 bound_to 10752
  153.7537  135.3220  155.3326 H   0  0  0  0  0  0  0  0  0  0  0  0  # atno 10764 bound_to 10752
  154.8158  135.4687  154.0739 H   0  0  0  0  0  0  0  0  0  0  0  0  # atno 10765 bound_to 10752
  141.1524  133.7814  157.0005 H   0  0  0  0  0  0  0  0  0  0  0  0  # atno 11005 bound_to 11000
  145.9993  139.3078  143.0937 LP  0  0  0  0  0  0  0  0  0  0  0  0  # atno 17320 bound_to 7965
  145.8811  140.9362  143.0600 LP  0  0  0  0  0  0  0  0  0  0  0  0  # atno 17321 bound_to 7965
  140.7640  143.5752  150.8953 LP  0  0  0  0  0  0  0  0  0  0  0  0  # atno 17342 bound_to 10162
  139.9421  143.6369  152.3051 LP  0  0  0  0  0  0  0  0  0  0  0  0  # atno 17343 bound_to 10162
  157.6634  130.8986  149.9879 LP  0  0  0  0  0  0  0  0  0  0  0  0  # atno 17370 bound_to 10713
  156.1202  130.3646  149.9900 LP  0  0  0  0  0  0  0  0  0  0  0  0  # atno 17371 bound_to 10713
  140.0943  134.9574  157.1825 LP  0  0  0  0  0  0  0  0  0  0  0  0  # atno 17394 bound_to 11000
  140.3404  134.2710  155.7213 LP  0  0  0  0  0  0  0  0  0  0  0  0  # atno 17395 bound_to 11000

$$$$
