AV-unprocessed.smi:3260|AV-procd|sdf|12477|dock6
  -GOLD-   2272018373D 1   1.00000     0.00000
 Structure written by MMmdl.
 38 39  0  0  0  0  0  0  0  0  1 V2000
  144.5410  131.1195  150.9232 C   0  0  0  0  0  0  0  0  0  0  0  0
  145.0675  132.4592  151.0731 N   0  0  0  0  0  0  0  0  0  0  0  0
  144.4403  133.6625  150.8319 C   0  0  0  0  0  0  0  0  0  0  0  0
  145.3365  134.6554  151.1126 C   0  0  0  0  0  0  0  0  0  0  0  0
  145.1563  136.1444  151.0116 C   0  0  0  0  0  0  0  0  0  0  0  0
  145.3066  136.8265  152.3812 C   0  0  0  0  0  0  0  0  0  0  0  0
  146.6687  137.3001  152.5970 N   0  0  0  0  0  0  0  0  0  0  0  0
  146.9968  138.3878  153.3079 C   0  0  0  0  0  0  0  0  0  0  0  0
  146.1779  139.1203  153.8637 O   0  0  0  0  0  0  0  0  0  0  0  0
  148.3229  138.5792  153.3410 N   0  0  0  0  0  0  0  0  0  0  0  0
  148.9943  139.6546  154.0618 C   0  0  0  0  0  0  0  0  0  0  0  0
  150.2101  139.1300  154.8429 C   0  0  1  0  0  0  0  0  0  0  0  0
  151.1049  138.1940  154.0341 C   0  0  0  0  0  0  0  0  0  0  0  0
  152.4512  138.3040  154.7320 C   0  0  0  0  0  0  0  0  0  0  0  0
  152.3379  139.5870  155.5615 C   0  0  0  0  0  0  0  0  0  0  0  0
  151.1063  140.1794  155.1725 O   0  0  0  0  0  0  0  0  0  0  0  0
  146.4985  133.9438  151.5270 C   0  0  0  0  0  0  0  0  0  0  0  0
  146.3342  132.6311  151.5034 N   0  0  0  0  0  0  0  0  0  0  0  0
  143.5595  131.1544  150.4496 H   0  0  0  0  0  0  0  0  0  0  0  0
  144.4467  130.6494  151.9024 H   0  0  0  0  0  0  0  0  0  0  0  0
  145.2120  130.5249  150.3023 H   0  0  0  0  0  0  0  0  0  0  0  0
  143.4200  133.7138  150.4813 H   0  0  0  0  0  0  0  0  0  0  0  0
  145.8818  136.5686  150.3167 H   0  0  0  0  0  0  0  0  0  0  0  0
  144.1760  136.3785  150.5945 H   0  0  0  0  0  0  0  0  0  0  0  0
  144.6026  137.6555  152.4752 H   0  0  0  0  0  0  0  0  0  0  0  0
  145.0640  136.1226  153.1777 H   0  0  0  0  0  0  0  0  0  0  0  0
  147.4123  136.7601  152.1795 H   0  0  0  0  0  0  0  0  0  0  0  0
  148.9120  137.9227  152.8504 H   0  0  0  0  0  0  0  0  0  0  0  0
  149.3235  140.3886  153.3260 H   0  0  0  0  0  0  0  0  0  0  0  0
  148.3011  140.1743  154.7259 H   0  0  0  0  0  0  0  0  0  0  0  0
  149.8892  138.6323  155.7603 H   0  0  0  0  0  0  0  0  0  0  0  0
  150.7251  137.1725  153.9999 H   0  0  0  0  0  0  0  0  0  0  0  0
  151.1964  138.5542  153.0084 H   0  0  0  0  0  0  0  0  0  0  0  0
  152.6327  137.4459  155.3800 H   0  0  0  0  0  0  0  0  0  0  0  0
  153.2657  138.3567  154.0089 H   0  0  0  0  0  0  0  0  0  0  0  0
  152.3040  139.3528  156.6265 H   0  0  0  0  0  0  0  0  0  0  0  0
  153.1691  140.2715  155.3903 H   0  0  0  0  0  0  0  0  0  0  0  0
  147.4521  134.3417  151.8417 H   0  0  0  0  0  0  0  0  0  0  0  0
  1  2  1  0  0  0  0
  1 19  1  0  0  0  0
  1 20  1  0  0  0  0
  1 21  1  0  0  0  0
  2 18  1  0  0  0  0
  2  3  1  0  0  0  0
  3  4  2  0  0  0  0
  3 22  1  0  0  0  0
  4  5  1  0  0  0  0
  4 17  1  0  0  0  0
  5  6  1  0  0  0  0
  5 23  1  0  0  0  0
  5 24  1  0  0  0  0
  6  7  1  0  0  0  0
  6 25  1  0  0  0  0
  6 26  1  0  0  0  0
  7  8  1  0  0  0  0
  7 27  1  0  0  0  0
  8  9  2  0  0  0  0
  8 10  1  0  0  0  0
 10 11  1  0  0  0  0
 10 28  1  0  0  0  0
 11 12  1  0  0  0  0
 11 29  1  0  0  0  0
 11 30  1  0  0  0  0
 12 16  1  0  0  0  0
 12 13  1  0  0  0  0
 12 31  1  0  0  0  0
 13 14  1  0  0  0  0
 13 32  1  0  0  0  0
 13 33  1  0  0  0  0
 14 15  1  0  0  0  0
 14 34  1  0  0  0  0
 14 35  1  0  0  0  0
 15 16  1  0  0  0  0
 15 36  1  0  0  0  0
 15 37  1  0  0  0  0
 17 18  2  0  0  0  0
 17 38  1  0  0  0  0
M  END
> <s_m_source_file>
AV-unprocessed.smi

> <i_m_source_file_index>
3260

> <i_lp_mmshare_version>
43012

> <i_f3d_flags>
0

> <s_epik_input>
W0NIM11uMVtjSF1jKFtjSF1uMSlbQ0gyXVtDSDJdW05IXUMoPU8pW05IXVtDSDJdW0NAQEhdMltDSDJdW0NIMl1bQ0gyXU8y

> <s_epik_cmdline>
J2VwaWtfcHl0aG9uJywgJy1waCcsICc3LjAnLCAnLXRuJywgJzgnLCAnLW1hJywgJzIwMCcsICctbWV0YWxfYmluZGluZycsICctaW1hZScsICc8aW5maWxlLm1hZT4nLCAnLW9tYWUnLCAnPG91dGZpbGUubWFlPic=

> <r_lp_tautomer_probability>
1

> <r_epik_Ionization_Penalty>
0.000550106

> <r_epik_Ionization_Penalty_Charging>
0

> <r_epik_Ionization_Penalty_Neutral>
0.000550106

> <r_epik_State_Penalty>
-0

> <r_epik_Charging_Adjusted_Penalty>
0

> <i_epik_Tot_Q>
0

> <i_epik_Tot_abs_Q>
0

> <r_epik_Metal_State_Penalty>
-0

> <b_epik_Metal_Only>
0

> <s_lp_Force_Field>
OPLS_2005

> <r_lp_Energy>
10.8429

> <b_lp_Chiralities_Consistent>
1

> <s_lp_Variant>
AV-unprocessed.smi:3260-2

> <Gold.Version>
5.8.1

> <Gold.Id.Protein>
6NUR|6NUR_protein|mol2

> <Gold.PLP.Fitness>
47.1018

> <Gold.PLP.PLP>
-33.5286

> <Gold.PLP.part.hbond>
-4.0000

> <Gold.PLP.part.metal>
0.0000

> <Gold.PLP.part.buried>
-2.4958

> <Gold.PLP.part.nonpolar>
-29.4830

> <Gold.PLP.part.repulsive>
0.5590

> <Gold.PLP.ligand.clash>
0.0000

> <Gold.PLP.ligand.torsion>
0.6474

> <Gold.PLP.Chemscore.Hbond>
2.9600

> <Gold.PLP.Chemscore.CHOScore>
1.9852

> <Gold.PLP.Chemscore.Metal>
0.0000

> <Gold.Chemscore.Hbonds>
donor molecule, donor type, donor heavy atom, donor atom, acceptor molecule, acceptor atom, score
      L1  H     7    27       P1  7948  1.00
      L1  H    10    28       P1  7948  0.93
      P1  H  7989  7998       L1    16  0.95
      L1  C     3    22       P1 10186  0.63
      L1  C    17    38       P1  7948  1.00

> <Gold.PLP.Chemscore.Internal.Correction>
0.0322

> <Gold.Rescore>
     Score         DG    S(hbond)    S(metal)    S(lipo)     H(rot)  DE(clash)    DE(int)     intcor
     15.84     -17.50       2.24        0.00      79.48       1.85       0.99       0.67       ----

> <Gold.Chemscore.Fitness>
15.8368

> <Gold.Chemscore.DG>
-17.5046

> <Gold.Chemscore.ZeroCoef>
-5.4800

> <Gold.Chemscore.Hbond>
2.2362

> <Gold.Chemscore.Metal>
0.0000

> <Gold.Chemscore.Lipo>
79.4775

> <Gold.Chemscore.Internal_Hbond>
0.0000

> <Gold.Chemscore.DEClash>
0.9942

> <Gold.Chemscore.DEInternal>
0.6735

> <Gold.Chemscore.Rot>
1.8528

> <Gold.Chemscore.Internal.Correction>
   9.000000E+99

> <Gold.Chemscore.Hbonds>
donor molecule, donor type, donor heavy atom, donor atom, acceptor molecule, acceptor atom, score
      L1  H     7    27       P1  7948  0.99
      L1  H    10    28       P1  7948  0.89
      P1  H  7989  7998       L1    16  0.10

> <Gold.Chemscore.Hbond.Weighted>
-7.4690

> <Gold.Chemscore.Metal.Weighted>
-0.0000

> <Gold.Chemscore.Lipo.Weighted>
-9.2989

> <Gold.Chemscore.Internal_Hbond.Weighted>
0.0000

> <Gold.Chemscore.DEClash.Weighted>
0.9942

> <Gold.Chemscore.DEInternal.Weighted>
0.6735

> <Gold.Chemscore.Rot.Weighted>
4.7433

> <Gold.Chemscore.Internal.Correction.Weighted>
   9.000000E+99

> <Gold.Protein.RotatedTorsions>
[ 6907 6896 6895 6894 ] final  -45.54 input  -60.11 | X-H torsion
[ 7974 7965 7964 7962 ] final   60.12 input  175.53 | X-H torsion
[ 8008 7997 7996 7995 ] final   64.94 input   59.86 | X-H torsion
[ 10167 10162 10161 10158 ] final  -95.27 input  -65.29 | X-H torsion
[ 10718 10713 10712 10709 ] final  -44.13 input   66.30 | X-H torsion
[ 10763 10752 10751 10750 ] final   96.46 input  -60.55 | X-H torsion
[ 11005 11000 10999 10996 ] final -104.82 input  -57.11 | X-H torsion

> <Gold.Protein.ActiveResidues>
 VAL166  LYS551  ARG553  GLY616  TRP617  ASP618  TYR619  PRO620  LYS621  CYS622 
 ASP623  PHE694  ASN695  SER759  ASP760  ASP761  ALA762  ILE779  LEU786  VAL792 
 PHE793  MET794  SER795  GLU796  ALA797  LYS798  CYS799  TRP800  GLU811  SER814 

> <Gold.Protein.RotatedAtoms>
  150.9209  134.8626  159.7487 H   0  0  0  0  0  0  0  0  0  0  0  0  # atno 6907 bound_to 6896
  152.4992  134.4220  159.9493 H   0  0  0  0  0  0  0  0  0  0  0  0  # atno 6908 bound_to 6896
  151.4254  133.3646  159.2796 H   0  0  0  0  0  0  0  0  0  0  0  0  # atno 6909 bound_to 6896
  145.8996  139.3571  143.0600 H   0  0  0  0  0  0  0  0  0  0  0  0  # atno 7974 bound_to 7965
  155.6539  140.3497  155.4758 H   0  0  0  0  0  0  0  0  0  0  0  0  # atno 8008 bound_to 7997
  155.9825  140.1177  157.0736 H   0  0  0  0  0  0  0  0  0  0  0  0  # atno 8009 bound_to 7997
  154.4195  140.1135  156.5441 H   0  0  0  0  0  0  0  0  0  0  0  0  # atno 8010 bound_to 7997
  140.3059  143.3134  152.0200 H   0  0  0  0  0  0  0  0  0  0  0  0  # atno 10167 bound_to 10162
  156.2418  130.4180  149.8752 H   0  0  0  0  0  0  0  0  0  0  0  0  # atno 10718 bound_to 10713
  153.2652  135.4218  155.0934 H   0  0  0  0  0  0  0  0  0  0  0  0  # atno 10763 bound_to 10752
  154.8435  135.3459  154.6321 H   0  0  0  0  0  0  0  0  0  0  0  0  # atno 10764 bound_to 10752
  153.6741  135.7042  153.5195 H   0  0  0  0  0  0  0  0  0  0  0  0  # atno 10765 bound_to 10752
  141.1082  133.8756  157.1658 H   0  0  0  0  0  0  0  0  0  0  0  0  # atno 11005 bound_to 11000
  145.8807  140.9364  143.0602 LP  0  0  0  0  0  0  0  0  0  0  0  0  # atno 17320 bound_to 7965
  144.6735  140.0776  143.7470 LP  0  0  0  0  0  0  0  0  0  0  0  0  # atno 17321 bound_to 7965
  139.4904  144.6421  151.6855 LP  0  0  0  0  0  0  0  0  0  0  0  0  # atno 17342 bound_to 10162
  140.5611  144.0268  150.6170 LP  0  0  0  0  0  0  0  0  0  0  0  0  # atno 17343 bound_to 10162
  156.6331  130.8674  151.3499 LP  0  0  0  0  0  0  0  0  0  0  0  0  # atno 17370 bound_to 10713
  157.7178  130.9519  150.1322 LP  0  0  0  0  0  0  0  0  0  0  0  0  # atno 17371 bound_to 10713
  139.9963  135.0045  157.0089 LP  0  0  0  0  0  0  0  0  0  0  0  0  # atno 17394 bound_to 11000
  140.4845  134.1256  155.7222 LP  0  0  0  0  0  0  0  0  0  0  0  0  # atno 17395 bound_to 11000

$$$$
