AV-unprocessed.smi:1510|AV-procd|sdf|6097|dock4
  -GOLD-   22720 6223D 1   1.00000     0.00000
 Structure written by MMmdl.
 33 34  0  0  0  0  0  0  0  0  1 V2000
  150.3443  142.3122  158.7706 O   0  0  0  0  0  0  0  0  0  0  0  0
  150.7461  142.7332  157.6847 C   0  0  0  0  0  0  0  0  0  0  0  0
  150.6759  141.8616  156.4217 C   0  0  0  0  0  0  0  0  0  0  0  0
  151.4066  140.5920  156.5445 N   0  0  0  0  0  0  0  0  0  0  0  0
  152.0260  140.4119  157.7720 N   0  0  0  0  0  0  0  0  0  0  0  0
  152.6846  139.3281  158.0088 C   0  0  0  0  0  0  0  0  0  0  0  0
  153.2781  139.1893  159.2392 O   0  0  0  0  0  0  0  0  0  0  0  0
  152.7975  138.2872  157.0111 C   0  0  0  0  0  0  0  0  0  0  0  0
  152.1944  138.4736  155.8167 C   0  0  0  0  0  0  0  0  0  0  0  0
  151.4368  139.6899  155.5157 C   0  0  0  0  0  0  0  0  0  0  0  0
  150.8761  139.8853  154.4376 O   0  0  0  0  0  0  0  0  0  0  0  0
  151.2822  143.9511  157.5266 N   0  0  0  0  0  0  0  0  0  0  0  0
  151.4583  144.9187  158.6004 C   0  0  0  0  0  0  0  0  0  0  0  0
  152.4309  144.3808  159.6585 C   0  0  1  0  0  0  0  0  0  0  0  0
  151.7764  144.0962  161.0081 C   0  0  0  0  0  0  0  0  0  0  0  0
  152.7412  143.0980  161.6064 C   0  0  0  0  0  0  0  0  0  0  0  0
  153.1456  142.2747  160.3855 C   0  0  0  0  0  0  0  0  0  0  0  0
  152.9752  143.1270  159.2548 O   0  0  0  0  0  0  0  0  0  0  0  0
  152.5837  138.9261  159.8236 H   0  0  0  0  0  0  0  0  0  0  0  0
  149.6307  141.6699  156.1715 H   0  0  0  0  0  0  0  0  0  0  0  0
  151.0727  142.4430  155.5876 H   0  0  0  0  0  0  0  0  0  0  0  0
  153.3534  137.3865  157.2258 H   0  0  0  0  0  0  0  0  0  0  0  0
  152.2707  137.7049  155.0618 H   0  0  0  0  0  0  0  0  0  0  0  0
  151.5989  144.2228  156.6070 H   0  0  0  0  0  0  0  0  0  0  0  0
  151.8447  145.8500  158.1830 H   0  0  0  0  0  0  0  0  0  0  0  0
  150.4914  145.1434  159.0532 H   0  0  0  0  0  0  0  0  0  0  0  0
  153.2578  145.0785  159.8031 H   0  0  0  0  0  0  0  0  0  0  0  0
  151.6515  144.9911  161.6183 H   0  0  0  0  0  0  0  0  0  0  0  0
  150.7976  143.6335  160.8722 H   0  0  0  0  0  0  0  0  0  0  0  0
  153.6093  143.6181  162.0139 H   0  0  0  0  0  0  0  0  0  0  0  0
  152.3001  142.4953  162.4008 H   0  0  0  0  0  0  0  0  0  0  0  0
  154.1712  141.9117  160.4568 H   0  0  0  0  0  0  0  0  0  0  0  0
  152.4890  141.4117  160.2695 H   0  0  0  0  0  0  0  0  0  0  0  0
  1  2  2  0  0  0  0
  2  3  1  0  0  0  0
  2 12  1  0  0  0  0
  3 20  1  0  0  0  0
  3 21  1  0  0  0  0
  3  4  1  0  0  0  0
  4  5  1  0  0  0  0
  4 10  1  0  0  0  0
  5  6  2  0  0  0  0
  6  7  1  0  0  0  0
  6  8  1  0  0  0  0
  7 19  1  0  0  0  0
  8 22  1  0  0  0  0
  8  9  2  0  0  0  0
  9 23  1  0  0  0  0
  9 10  1  0  0  0  0
 10 11  2  0  0  0  0
 12 13  1  0  0  0  0
 12 24  1  0  0  0  0
 13 14  1  0  0  0  0
 13 25  1  0  0  0  0
 13 26  1  0  0  0  0
 14 18  1  0  0  0  0
 14 15  1  0  0  0  0
 14 27  1  0  0  0  0
 15 16  1  0  0  0  0
 15 28  1  0  0  0  0
 15 29  1  0  0  0  0
 16 17  1  0  0  0  0
 16 30  1  0  0  0  0
 16 31  1  0  0  0  0
 17 18  1  0  0  0  0
 17 32  1  0  0  0  0
 17 33  1  0  0  0  0
M  END
> <s_m_source_file>
AV-unprocessed.smi

> <i_m_source_file_index>
1510

> <i_lp_mmshare_version>
43012

> <i_f3d_flags>
0

> <s_epik_input>
TzFbQ0gyXVtDSDJdW0NIMl1bQ0BIXTFbQ0gyXVtOSF1DKD1PKVtDSDJdbjJbbkhdYyg9TylbY0hdW2NIXWMyPU8=

> <s_epik_cmdline>
J2VwaWtfcHl0aG9uJywgJy1waCcsICc3LjAnLCAnLXRuJywgJzgnLCAnLW1hJywgJzIwMCcsICctbWV0YWxfYmluZGluZycsICctaW1hZScsICc8aW5maWxlLm1hZT4nLCAnLW9tYWUnLCAnPG91dGZpbGUubWFlPic=

> <r_lp_tautomer_probability>
0.9996

> <r_epik_Ionization_Penalty>
2.13037

> <r_epik_Ionization_Penalty_Charging>
3.76e-08

> <r_epik_Ionization_Penalty_Neutral>
2.13037

> <r_epik_State_Penalty>
1.70753

> <r_epik_Charging_Adjusted_Penalty>
1.70753

> <i_epik_Tot_Q>
0

> <i_epik_Tot_abs_Q>
0

> <r_epik_Metal_State_Penalty>
1.70753

> <b_epik_Metal_Only>
0

> <s_lp_Force_Field>
OPLS_2005

> <r_lp_Energy>
28.362

> <b_lp_Chiralities_Consistent>
1

> <s_lp_Variant>
AV-unprocessed.smi:1510-4

> <Gold.Version>
5.8.1

> <Gold.Id.Protein>
6NUR|6NUR_protein|mol2

> <Gold.PLP.Fitness>
41.4432

> <Gold.PLP.PLP>
-39.9221

> <Gold.PLP.part.hbond>
-1.8366

> <Gold.PLP.part.metal>
0.0000

> <Gold.PLP.part.buried>
-6.6129

> <Gold.PLP.part.nonpolar>
-31.8315

> <Gold.PLP.part.repulsive>
0.1835

> <Gold.PLP.ligand.clash>
0.0000

> <Gold.PLP.ligand.torsion>
0.7407

> <Gold.PLP.Chemscore.Hbond>
1.0000

> <Gold.PLP.Chemscore.CHOScore>
0.0000

> <Gold.PLP.Chemscore.Metal>
0.0000

> <Gold.Chemscore.Hbonds>
donor molecule, donor type, donor heavy atom, donor atom, acceptor molecule, acceptor atom, score
      P1  H  7989  7998       L1    11  1.00

> <Gold.PLP.Chemscore.Internal.Correction>
0.0025

> <Gold.Rescore>
     Score         DG    S(hbond)    S(metal)    S(lipo)     H(rot)  DE(clash)    DE(int)     intcor
      8.02     -11.33       1.00        0.00      80.50       2.69       0.03       3.28       ----

> <Gold.Chemscore.Fitness>
8.0239

> <Gold.Chemscore.DG>
-11.3350

> <Gold.Chemscore.ZeroCoef>
-5.4800

> <Gold.Chemscore.Hbond>
0.9977

> <Gold.Chemscore.Metal>
0.0000

> <Gold.Chemscore.Lipo>
80.5009

> <Gold.Chemscore.Internal_Hbond>
0.0000

> <Gold.Chemscore.DEClash>
0.0276

> <Gold.Chemscore.DEInternal>
3.2835

> <Gold.Chemscore.Rot>
2.6937

> <Gold.Chemscore.Internal.Correction>
   9.000000E+99

> <Gold.Chemscore.Hbonds>
donor molecule, donor type, donor heavy atom, donor atom, acceptor molecule, acceptor atom, score
      P1  H  7989  7998       L1    11  0.84

> <Gold.Chemscore.Hbond.Weighted>
-3.3323

> <Gold.Chemscore.Metal.Weighted>
-0.0000

> <Gold.Chemscore.Lipo.Weighted>
-9.4186

> <Gold.Chemscore.Internal_Hbond.Weighted>
0.0000

> <Gold.Chemscore.DEClash.Weighted>
0.0276

> <Gold.Chemscore.DEInternal.Weighted>
3.2835

> <Gold.Chemscore.Rot.Weighted>
6.8959

> <Gold.Chemscore.Internal.Correction.Weighted>
   9.000000E+99

> <Gold.Protein.RotatedTorsions>
[ 6907 6896 6895 6894 ] final  167.79 input  -60.11 | X-H torsion
[ 7974 7965 7964 7962 ] final  172.05 input  175.53 | X-H torsion
[ 8008 7997 7996 7995 ] final  140.37 input   59.86 | X-H torsion
[ 10167 10162 10161 10158 ] final   68.76 input  -65.29 | X-H torsion
[ 10718 10713 10712 10709 ] final   17.01 input   66.30 | X-H torsion
[ 10763 10752 10751 10750 ] final -166.30 input  -60.55 | X-H torsion
[ 11005 11000 10999 10996 ] final   -9.70 input  -57.11 | X-H torsion

> <Gold.Protein.ActiveResidues>
 VAL166  LYS551  ARG553  GLY616  TRP617  ASP618  TYR619  PRO620  LYS621  CYS622 
 ASP623  PHE694  ASN695  SER759  ASP760  ASP761  ALA762  ILE779  LEU786  VAL792 
 PHE793  MET794  SER795  GLU796  ALA797  LYS798  CYS799  TRP800  GLU811  SER814 

> <Gold.Protein.RotatedAtoms>
  151.8578  133.3451  159.3693 H   0  0  0  0  0  0  0  0  0  0  0  0  # atno 6907 bound_to 6896
  150.7188  134.5236  159.5675 H   0  0  0  0  0  0  0  0  0  0  0  0  # atno 6908 bound_to 6896
  152.2743  134.7899  160.0459 H   0  0  0  0  0  0  0  0  0  0  0  0  # atno 6909 bound_to 6896
  144.7278  139.9441  143.6429 H   0  0  0  0  0  0  0  0  0  0  0  0  # atno 7974 bound_to 7965
  156.2980  140.2343  156.4389 H   0  0  0  0  0  0  0  0  0  0  0  0  # atno 8008 bound_to 7997
  154.8203  140.0438  157.1426 H   0  0  0  0  0  0  0  0  0  0  0  0  # atno 8009 bound_to 7997
  154.9322  140.3018  155.5165 H   0  0  0  0  0  0  0  0  0  0  0  0  # atno 8010 bound_to 7997
  140.0751  144.5119  150.7200 H   0  0  0  0  0  0  0  0  0  0  0  0  # atno 10167 bound_to 10162
  157.0760  130.6368  149.5816 H   0  0  0  0  0  0  0  0  0  0  0  0  # atno 10718 bound_to 10713
  154.6846  135.2960  154.9565 H   0  0  0  0  0  0  0  0  0  0  0  0  # atno 10763 bound_to 10752
  154.0548  135.6639  153.4808 H   0  0  0  0  0  0  0  0  0  0  0  0  # atno 10764 bound_to 10752
  153.0570  135.5138  154.7907 H   0  0  0  0  0  0  0  0  0  0  0  0  # atno 10765 bound_to 10752
  140.7369  133.8702  155.8937 H   0  0  0  0  0  0  0  0  0  0  0  0  # atno 11005 bound_to 11000
  146.0762  139.3750  143.0493 LP  0  0  0  0  0  0  0  0  0  0  0  0  # atno 17320 bound_to 7965
  145.7902  140.9817  143.1053 LP  0  0  0  0  0  0  0  0  0  0  0  0  # atno 17321 bound_to 7965
  140.7106  143.2502  151.4593 LP  0  0  0  0  0  0  0  0  0  0  0  0  # atno 17342 bound_to 10162
  139.5812  144.1704  152.1971 LP  0  0  0  0  0  0  0  0  0  0  0  0  # atno 17343 bound_to 10162
  155.9937  130.4998  150.7390 LP  0  0  0  0  0  0  0  0  0  0  0  0  # atno 17370 bound_to 10713
  157.4839  131.0905  151.0505 LP  0  0  0  0  0  0  0  0  0  0  0  0  # atno 17371 bound_to 10713
  140.9871  134.1328  157.4442 LP  0  0  0  0  0  0  0  0  0  0  0  0  # atno 17394 bound_to 11000
  139.8814  135.0029  156.6153 LP  0  0  0  0  0  0  0  0  0  0  0  0  # atno 17395 bound_to 11000

$$$$
