AV-unprocessed.smi:376|AV-procd|sdf|2455|dock3
  -GOLD-   2262022393D 1   1.00000     0.00000
 Structure written by MMmdl.
 32 33  0  0  0  0  0  0  0  0  1 V2000
  154.1921  136.6603  163.5935 C   0  0  0  0  0  0  0  0  0  0  0  0
  154.2905  137.0591  162.4435 C   0  0  0  0  0  0  0  0  0  0  0  0
  154.3952  137.5482  161.0582 C   0  0  0  0  0  0  0  0  0  0  0  0
  153.1060  137.9399  160.4996 N   0  0  0  0  0  0  0  0  0  0  0  0
  152.9180  138.4958  159.2924 C   0  0  0  0  0  0  0  0  0  0  0  0
  153.8392  138.7379  158.5108 O   0  0  0  0  0  0  0  0  0  0  0  0
  151.4606  138.8175  158.9261 C   0  0  0  0  0  0  0  0  0  0  0  0
  151.2953  140.1139  158.2323 N   0  0  0  0  0  0  0  0  0  0  0  0
  150.5907  140.1417  157.0016 C   0  0  0  0  0  0  0  0  0  0  0  0
  150.1015  139.1155  156.5265 O   0  0  0  0  0  0  0  0  0  0  0  0
  150.5085  141.4486  156.3534 C   0  0  0  0  0  0  0  0  0  0  0  0
  149.8364  141.5120  155.0981 C   0  0  0  0  0  0  0  0  0  0  0  0
  149.3010  141.5406  154.0724 N   0  0  0  0  0  0  0  0  0  0  0  0
  151.0539  142.5427  156.9235 C   0  0  0  0  0  0  0  0  0  0  0  0
  151.7004  142.5008  158.1395 N   0  0  0  0  0  0  0  0  0  0  0  0
  152.4067  143.6414  158.6509 C   0  0  0  0  0  0  0  0  0  0  0  0
  152.1791  144.1082  160.0757 C   0  0  0  0  0  0  0  0  0  0  0  0
  151.6402  144.9176  158.9216 C   0  0  0  0  0  0  0  0  0  0  0  0
  151.8851  141.2680  158.8027 C   0  0  0  0  0  0  0  0  0  0  0  0
  152.5481  141.1943  159.8404 O   0  0  0  0  0  0  0  0  0  0  0  0
  154.1036  136.3095  164.5970 H   0  0  0  0  0  0  0  0  0  0  0  0
  155.0561  138.4148  161.0588 H   0  0  0  0  0  0  0  0  0  0  0  0
  154.8751  136.7797  160.4501 H   0  0  0  0  0  0  0  0  0  0  0  0
  152.2931  137.7745  161.0756 H   0  0  0  0  0  0  0  0  0  0  0  0
  151.0681  137.9981  158.3219 H   0  0  0  0  0  0  0  0  0  0  0  0
  150.8593  138.7848  159.8361 H   0  0  0  0  0  0  0  0  0  0  0  0
  150.9782  143.4912  156.4112 H   0  0  0  0  0  0  0  0  0  0  0  0
  153.4177  143.7694  158.2682 H   0  0  0  0  0  0  0  0  0  0  0  0
  151.4554  143.5706  160.6854 H   0  0  0  0  0  0  0  0  0  0  0  0
  153.0359  144.5077  160.6144 H   0  0  0  0  0  0  0  0  0  0  0  0
  152.1362  145.8587  158.6930 H   0  0  0  0  0  0  0  0  0  0  0  0
  150.5625  144.9107  158.7702 H   0  0  0  0  0  0  0  0  0  0  0  0
  1  2  3  0  0  0  0
  1 21  1  0  0  0  0
  2  3  1  0  0  0  0
  3  4  1  0  0  0  0
  3 22  1  0  0  0  0
  3 23  1  0  0  0  0
  4  5  1  0  0  0  0
  4 24  1  0  0  0  0
  5  6  2  0  0  0  0
  5  7  1  0  0  0  0
  7  8  1  0  0  0  0
  7 25  1  0  0  0  0
  7 26  1  0  0  0  0
  8 19  1  0  0  0  0
  8  9  1  0  0  0  0
  9 10  2  0  0  0  0
  9 11  1  0  0  0  0
 11 12  1  0  0  0  0
 11 14  2  0  0  0  0
 12 13  3  0  0  0  0
 14 15  1  0  0  0  0
 14 27  1  0  0  0  0
 15 16  1  0  0  0  0
 15 19  1  0  0  0  0
 16 18  1  0  0  0  0
 16 17  1  0  0  0  0
 16 28  1  0  0  0  0
 17 18  1  0  0  0  0
 17 29  1  0  0  0  0
 17 30  1  0  0  0  0
 18 31  1  0  0  0  0
 18 32  1  0  0  0  0
 19 20  2  0  0  0  0
M  END
> <s_m_source_file>
AV-unprocessed.smi

> <i_m_source_file_index>
376

> <i_lp_mmshare_version>
43012

> <i_f3d_flags>
0

> <s_epik_input>
W0NIXSNDW0NIMl1bTkhdQyg9TylbQ0gyXW4xYyg9TyljKEMjTilbY0hdbihjMT1PKVtDSF0yW0NIMl1bQ0gyXTI=

> <s_epik_cmdline>
J2VwaWtfcHl0aG9uJywgJy1waCcsICc3LjAnLCAnLXRuJywgJzgnLCAnLW1hJywgJzIwMCcsICctbWV0YWxfYmluZGluZycsICctaW1hZScsICc8aW5maWxlLm1hZT4nLCAnLW9tYWUnLCAnPG91dGZpbGUubWFlPic=

> <r_lp_tautomer_probability>
1

> <r_epik_Ionization_Penalty>
1.51832e-07

> <r_epik_Ionization_Penalty_Charging>
6.72035e-11

> <r_epik_Ionization_Penalty_Neutral>
1.51764e-07

> <r_epik_State_Penalty>
-0

> <r_epik_Charging_Adjusted_Penalty>
6.72035e-11

> <i_epik_Tot_Q>
0

> <i_epik_Tot_abs_Q>
0

> <r_epik_Metal_State_Penalty>
-0

> <b_epik_Metal_Only>
0

> <s_lp_Force_Field>
OPLS_2005

> <r_lp_Energy>
28.1194

> <b_lp_Chiralities_Consistent>
1

> <s_lp_Variant>
AV-unprocessed.smi:376-1

> <Gold.Version>
5.8.1

> <Gold.Id.Protein>
6NUR|6NUR_protein|mol2

> <Gold.PLP.Fitness>
47.7166

> <Gold.PLP.PLP>
-40.5596

> <Gold.PLP.part.hbond>
-2.9467

> <Gold.PLP.part.metal>
0.0000

> <Gold.PLP.part.buried>
-4.5507

> <Gold.PLP.part.nonpolar>
-33.7569

> <Gold.PLP.part.repulsive>
0.2905

> <Gold.PLP.ligand.clash>
0.0000

> <Gold.PLP.ligand.torsion>
0.4532

> <Gold.PLP.Chemscore.Hbond>
1.6400

> <Gold.PLP.Chemscore.CHOScore>
0.9732

> <Gold.PLP.Chemscore.Metal>
0.0000

> <Gold.Chemscore.Hbonds>
donor molecule, donor type, donor heavy atom, donor atom, acceptor molecule, acceptor atom, score
      P1  H  7997  8010       L1     6  0.86
      P1  H  8011  8017       L1    13  0.64
      L1  C    14    27       P1  8028  0.99

> <Gold.PLP.Chemscore.Internal.Correction>
0.2239

> <Gold.Rescore>
     Score         DG    S(hbond)    S(metal)    S(lipo)     H(rot)  DE(clash)    DE(int)     intcor
     12.39     -15.56       1.73        0.00      78.75       1.92       0.20       2.97       ----

> <Gold.Chemscore.Fitness>
12.3930

> <Gold.Chemscore.DG>
-15.5640

> <Gold.Chemscore.ZeroCoef>
-5.4800

> <Gold.Chemscore.Hbond>
1.7322

> <Gold.Chemscore.Metal>
0.0000

> <Gold.Chemscore.Lipo>
78.7542

> <Gold.Chemscore.Internal_Hbond>
0.0000

> <Gold.Chemscore.DEClash>
0.2033

> <Gold.Chemscore.DEInternal>
2.9677

> <Gold.Chemscore.Rot>
1.9202

> <Gold.Chemscore.Internal.Correction>
   9.000000E+99

> <Gold.Chemscore.Hbonds>
donor molecule, donor type, donor heavy atom, donor atom, acceptor molecule, acceptor atom, score
      P1  H  7997  8010       L1     6  0.84
      P1  H  8011  8017       L1    13  0.61

> <Gold.Chemscore.Hbond.Weighted>
-5.7855

> <Gold.Chemscore.Metal.Weighted>
-0.0000

> <Gold.Chemscore.Lipo.Weighted>
-9.2142

> <Gold.Chemscore.Internal_Hbond.Weighted>
0.0000

> <Gold.Chemscore.DEClash.Weighted>
0.2033

> <Gold.Chemscore.DEInternal.Weighted>
2.9677

> <Gold.Chemscore.Rot.Weighted>
4.9158

> <Gold.Chemscore.Internal.Correction.Weighted>
   9.000000E+99

> <Gold.Protein.RotatedTorsions>
[ 6907 6896 6895 6894 ] final  -88.92 input  -60.11 | X-H torsion
[ 7974 7965 7964 7962 ] final  162.33 input  175.53 | X-H torsion
[ 8008 7997 7996 7995 ] final   31.11 input   59.86 | X-H torsion
[ 10167 10162 10161 10158 ] final   -0.14 input  -65.29 | X-H torsion
[ 10718 10713 10712 10709 ] final   80.00 input   66.30 | X-H torsion
[ 10763 10752 10751 10750 ] final   11.92 input  -60.55 | X-H torsion
[ 11005 11000 10999 10996 ] final   56.39 input  -57.11 | X-H torsion

> <Gold.Protein.ActiveResidues>
 VAL166  LYS551  ARG553  GLY616  TRP617  ASP618  TYR619  PRO620  LYS621  CYS622 
 ASP623  PHE694  ASN695  SER759  ASP760  ASP761  ALA762  ILE779  LEU786  VAL792 
 PHE793  MET794  SER795  GLU796  ALA797  LYS798  CYS799  TRP800  GLU811  SER814 

> <Gold.Protein.RotatedAtoms>
  150.6871  134.2667  159.4571 H   0  0  0  0  0  0  0  0  0  0  0  0  # atno 6907 bound_to 6896
  152.0593  134.9602  160.0584 H   0  0  0  0  0  0  0  0  0  0  0  0  # atno 6908 bound_to 6896
  152.1035  133.4228  159.4635 H   0  0  0  0  0  0  0  0  0  0  0  0  # atno 6909 bound_to 6896
  144.7642  139.8024  143.6321 H   0  0  0  0  0  0  0  0  0  0  0  0  # atno 7974 bound_to 7965
  155.1011  140.3229  155.4547 H   0  0  0  0  0  0  0  0  0  0  0  0  # atno 8008 bound_to 7997
  156.2717  140.2061  156.6084 H   0  0  0  0  0  0  0  0  0  0  0  0  # atno 8009 bound_to 7997
  154.6828  140.0524  157.0271 H   0  0  0  0  0  0  0  0  0  0  0  0  # atno 8010 bound_to 7997
  140.6754  143.6930  150.8012 H   0  0  0  0  0  0  0  0  0  0  0  0  # atno 10167 bound_to 10162
  157.6793  130.9939  150.2014 H   0  0  0  0  0  0  0  0  0  0  0  0  # atno 10718 bound_to 10713
  153.1876  135.6837  153.8394 H   0  0  0  0  0  0  0  0  0  0  0  0  # atno 10763 bound_to 10752
  153.7705  135.3197  155.3352 H   0  0  0  0  0  0  0  0  0  0  0  0  # atno 10764 bound_to 10752
  154.8098  135.4725  154.0584 H   0  0  0  0  0  0  0  0  0  0  0  0  # atno 10765 bound_to 10752
  140.0533  134.5706  155.9238 H   0  0  0  0  0  0  0  0  0  0  0  0  # atno 11005 bound_to 11000
  146.1734  139.4894  142.9913 LP  0  0  0  0  0  0  0  0  0  0  0  0  # atno 17320 bound_to 7965
  145.6523  141.0260  143.1754 LP  0  0  0  0  0  0  0  0  0  0  0  0  # atno 17321 bound_to 7965
  140.0622  143.5143  152.2622 LP  0  0  0  0  0  0  0  0  0  0  0  0  # atno 17342 bound_to 10162
  139.6044  144.7592  151.3097 LP  0  0  0  0  0  0  0  0  0  0  0  0  # atno 17343 bound_to 10162
  156.2704  130.3721  149.8037 LP  0  0  0  0  0  0  0  0  0  0  0  0  # atno 17370 bound_to 10713
  156.5755  130.8443  151.3368 LP  0  0  0  0  0  0  0  0  0  0  0  0  # atno 17371 bound_to 10713
  141.1940  133.6581  156.5576 LP  0  0  0  0  0  0  0  0  0  0  0  0  # atno 17394 bound_to 11000
  140.3883  134.7462  157.4705 LP  0  0  0  0  0  0  0  0  0  0  0  0  # atno 17395 bound_to 11000

$$$$
