AV-unprocessed.smi:1207|AV-procd|sdf|5052|dock4
  -GOLD-   22720 4 83D 1   1.00000     0.00000
 Structure written by MMmdl.
 52 54  0  0  0  0  0  0  0  0  2 V2000
  146.5893  129.2482  152.7614 C   0  0  0  0  0  0  0  0  0  0  0  0
  146.3148  130.6708  152.3065 C   0  0  0  0  0  0  0  0  0  0  0  0
  145.2041  130.9226  151.4697 C   0  0  0  0  0  0  0  0  0  0  0  0
  144.9147  132.2309  151.0244 C   0  0  0  0  0  0  0  0  0  0  0  0
  143.8965  132.7002  150.2124 N   0  0  0  0  0  0  0  0  0  0  0  0
  144.1671  134.0014  150.1671 C   0  0  0  0  0  0  0  0  0  0  0  0
  145.2447  134.4313  150.8517 N   0  0  0  0  0  0  0  0  0  0  0  0
  145.7383  135.7933  150.9508 C   0  0  0  0  0  0  0  0  0  0  0  0
  145.0689  136.5730  152.0978 C   0  0  1  0  0  0  0  0  0  0  0  0
  143.7957  136.0164  152.3653 O   0  0  0  0  0  0  0  0  0  0  0  0
  145.9054  136.5465  153.3918 C   0  0  0  0  0  0  0  0  0  0  0  0
  147.0738  137.4586  153.3039 N   0  3  1  0  0  0  0  0  0  0  0  0
  146.7686  138.6963  152.5499 C   0  0  0  0  0  0  0  0  0  0  0  0
  147.7032  137.7319  154.6216 C   0  0  0  0  0  0  0  0  0  0  0  0
  149.0183  138.4441  154.4498 C   0  0  0  0  0  0  0  0  0  0  0  0
  150.3240  137.8838  154.5527 C   0  0  0  0  0  0  0  0  0  0  0  0
  150.7083  136.4619  154.8498 C   0  0  0  0  0  0  0  0  0  0  0  0
  151.2664  138.7863  154.3419 N   0  0  0  0  0  0  0  0  0  0  0  0
  150.5973  139.9892  154.0981 O   0  0  0  0  0  0  0  0  0  0  0  0
  149.2613  139.7615  154.1699 C   0  0  0  0  0  0  0  0  0  0  0  0
  148.3763  140.9395  153.9367 C   0  0  0  0  0  0  0  0  0  0  0  0
  145.7729  133.2891  151.4440 C   0  0  0  0  0  0  0  0  0  0  0  0
  146.8795  133.0517  152.2786 C   0  0  0  0  0  0  0  0  0  0  0  0
  147.1565  131.7381  152.7112 C   0  0  0  0  0  0  0  0  0  0  0  0
  148.3569  131.4911  153.6076 C   0  0  0  0  0  0  0  0  0  0  0  0
  145.8315  128.5579  152.3897 H   0  0  0  0  0  0  0  0  0  0  0  0
  146.5901  129.1876  153.8500 H   0  0  0  0  0  0  0  0  0  0  0  0
  147.5586  128.9106  152.3939 H   0  0  0  0  0  0  0  0  0  0  0  0
  144.5629  130.1096  151.1609 H   0  0  0  0  0  0  0  0  0  0  0  0
  143.5476  134.6807  149.5999 H   0  0  0  0  0  0  0  0  0  0  0  0
  146.8212  135.7686  151.0828 H   0  0  0  0  0  0  0  0  0  0  0  0
  145.5496  136.2891  149.9977 H   0  0  0  0  0  0  0  0  0  0  0  0
  144.9178  137.6020  151.7741 H   0  0  0  0  0  0  0  0  0  0  0  0
  143.6985  135.9131  153.3000 H   0  0  0  0  0  0  0  0  0  0  0  0
  145.2641  136.8272  154.2292 H   0  0  0  0  0  0  0  0  0  0  0  0
  146.2572  135.5360  153.6063 H   0  0  0  0  0  0  0  0  0  0  0  0
  146.0135  139.2919  153.0647 H   0  0  0  0  0  0  0  0  0  0  0  0
  146.3959  138.4594  151.5528 H   0  0  0  0  0  0  0  0  0  0  0  0
  147.6608  139.3093  152.4244 H   0  0  0  0  0  0  0  0  0  0  0  0
  147.0117  138.2981  155.2468 H   0  0  0  0  0  0  0  0  0  0  0  0
  147.8676  136.7982  155.1593 H   0  0  0  0  0  0  0  0  0  0  0  0
  150.2369  136.1130  155.7690 H   0  0  0  0  0  0  0  0  0  0  0  0
  151.7867  136.3502  154.9703 H   0  0  0  0  0  0  0  0  0  0  0  0
  150.3959  135.7979  154.0438 H   0  0  0  0  0  0  0  0  0  0  0  0
  147.3249  140.6705  154.0362 H   0  0  0  0  0  0  0  0  0  0  0  0
  148.5269  141.3419  152.9348 H   0  0  0  0  0  0  0  0  0  0  0  0
  148.5906  141.7314  154.6545 H   0  0  0  0  0  0  0  0  0  0  0  0
  147.5113  133.8731  152.5821 H   0  0  0  0  0  0  0  0  0  0  0  0
  148.9160  132.4100  153.7869 H   0  0  0  0  0  0  0  0  0  0  0  0
  149.0361  130.7719  153.1491 H   0  0  0  0  0  0  0  0  0  0  0  0
  148.0371  131.0994  154.5736 H   0  0  0  0  0  0  0  0  0  0  0  0
  147.7594  136.9587  152.7551 H   0  0  0  0  0  0  0  0  0  0  0  0
  1  2  1  0  0  0  0
  1 26  1  0  0  0  0
  1 27  1  0  0  0  0
  1 28  1  0  0  0  0
  2 24  1  0  0  0  0
  2  3  2  0  0  0  0
  3  4  1  0  0  0  0
  3 29  1  0  0  0  0
  4 22  2  0  0  0  0
  4  5  1  0  0  0  0
  5  6  2  0  0  0  0
  6  7  1  0  0  0  0
  6 30  1  0  0  0  0
  7  8  1  0  0  0  0
  7 22  1  0  0  0  0
  8  9  1  0  0  0  0
  8 31  1  0  0  0  0
  8 32  1  0  0  0  0
  9 10  1  0  0  0  0
  9 11  1  0  0  0  0
  9 33  1  0  0  0  0
 10 34  1  0  0  0  0
 11 12  1  0  0  0  0
 11 35  1  0  0  0  0
 11 36  1  0  0  0  0
 12 13  1  0  0  0  0
 12 14  1  0  0  0  0
 12 52  1  0  0  0  0
 13 37  1  0  0  0  0
 13 38  1  0  0  0  0
 13 39  1  0  0  0  0
 14 15  1  0  0  0  0
 14 40  1  0  0  0  0
 14 41  1  0  0  0  0
 15 20  2  0  0  0  0
 15 16  1  0  0  0  0
 16 17  1  0  0  0  0
 16 18  2  0  0  0  0
 17 42  1  0  0  0  0
 17 43  1  0  0  0  0
 17 44  1  0  0  0  0
 18 19  1  0  0  0  0
 19 20  1  0  0  0  0
 20 21  1  0  0  0  0
 21 45  1  0  0  0  0
 21 46  1  0  0  0  0
 21 47  1  0  0  0  0
 22 23  1  0  0  0  0
 23 24  2  0  0  0  0
 23 48  1  0  0  0  0
 24 25  1  0  0  0  0
 25 49  1  0  0  0  0
 25 50  1  0  0  0  0
 25 51  1  0  0  0  0
M  CHG  1  12   1
M  END
> <s_m_source_file>
AV-unprocessed.smi

> <i_m_source_file_index>
1207

> <i_lp_mmshare_version>
43012

> <i_f3d_flags>
0

> <s_epik_input>
W0NIM11jKFtjSF0xKWMoW0NIM10pW2NIXWMoYzEyKW4oW2NIXW4yKVtDSDJdW0NASF0oW09IXSlbQ0gyXU4oW0NIM10pW0NIMl1jM2MoW0NIM10pbm9jM1tDSDNd

> <s_epik_cmdline>
J2VwaWtfcHl0aG9uJywgJy1waCcsICc3LjAnLCAnLXRuJywgJzgnLCAnLW1hJywgJzIwMCcsICctbWV0YWxfYmluZGluZycsICctaW1hZScsICc8aW5maWxlLm1hZT4nLCAnLW9tYWUnLCAnPG91dGZpbGUubWFlPic=

> <r_epik_Ionization_Penalty>
0.646518

> <r_epik_Ionization_Penalty_Charging>
0.559419

> <r_epik_Ionization_Penalty_Neutral>
0.0870981

> <r_epik_State_Penalty>
0.661677

> <r_epik_Charging_Adjusted_Penalty>
1.2211

> <i_epik_Tot_Q>
1

> <i_epik_Tot_abs_Q>
1

> <r_epik_Metal_State_Penalty>
0.649158

> <b_epik_Metal_Only>
0

> <s_lp_Force_Field>
OPLS_2005

> <r_lp_Energy>
8.27883

> <b_lp_Chiralities_Consistent>
1

> <s_lp_Variant>
AV-unprocessed.smi:1207-4

> <Gold.Version>
5.8.1

> <Gold.Id.Protein>
6NUR|6NUR_protein|mol2

> <Gold.PLP.Fitness>
52.6824

> <Gold.PLP.PLP>
-43.9219

> <Gold.PLP.part.hbond>
-2.1816

> <Gold.PLP.part.metal>
0.0000

> <Gold.PLP.part.buried>
-5.9024

> <Gold.PLP.part.nonpolar>
-37.9921

> <Gold.PLP.part.repulsive>
0.4934

> <Gold.PLP.ligand.clash>
0.0000

> <Gold.PLP.ligand.torsion>
1.4113

> <Gold.PLP.Chemscore.Hbond>
3.0000

> <Gold.PLP.Chemscore.CHOScore>
0.8056

> <Gold.PLP.Chemscore.Metal>
0.0000

> <Gold.Chemscore.Hbonds>
donor molecule, donor type, donor heavy atom, donor atom, acceptor molecule, acceptor atom, score
      L1  H    12    52       P1  7948  2.00
      P1  H  7989  7998       L1    19  0.88
      L1  C     6    30       P1 10186  0.81

> <Gold.PLP.Chemscore.Internal.Correction>
0.1663

> <Gold.Rescore>
     Score         DG    S(hbond)    S(metal)    S(lipo)     H(rot)  DE(clash)    DE(int)     intcor
     17.13     -18.56       1.99        0.00     108.86       2.46       0.03       1.40       ----

> <Gold.Chemscore.Fitness>
17.1336

> <Gold.Chemscore.DG>
-18.5634

> <Gold.Chemscore.ZeroCoef>
-5.4800

> <Gold.Chemscore.Hbond>
1.9866

> <Gold.Chemscore.Metal>
0.0000

> <Gold.Chemscore.Lipo>
108.8625

> <Gold.Chemscore.Internal_Hbond>
0.0000

> <Gold.Chemscore.DEClash>
0.0270

> <Gold.Chemscore.DEInternal>
1.4028

> <Gold.Chemscore.Rot>
2.4565

> <Gold.Chemscore.Internal.Correction>
   9.000000E+99

> <Gold.Chemscore.Hbonds>
donor molecule, donor type, donor heavy atom, donor atom, acceptor molecule, acceptor atom, score
      L1  H    12    52       P1  7948  1.00
      P1  H  7989  7998       L1    19  0.43

> <Gold.Chemscore.Hbond.Weighted>
-6.6352

> <Gold.Chemscore.Metal.Weighted>
-0.0000

> <Gold.Chemscore.Lipo.Weighted>
-12.7369

> <Gold.Chemscore.Internal_Hbond.Weighted>
0.0000

> <Gold.Chemscore.DEClash.Weighted>
0.0270

> <Gold.Chemscore.DEInternal.Weighted>
1.4028

> <Gold.Chemscore.Rot.Weighted>
6.2887

> <Gold.Chemscore.Internal.Correction.Weighted>
   9.000000E+99

> <Gold.Protein.RotatedTorsions>
[ 6907 6896 6895 6894 ] final -142.50 input  -60.11 | X-H torsion
[ 7974 7965 7964 7962 ] final  173.36 input  175.53 | X-H torsion
[ 8008 7997 7996 7995 ] final -138.93 input   59.86 | X-H torsion
[ 10167 10162 10161 10158 ] final  -59.83 input  -65.29 | X-H torsion
[ 10718 10713 10712 10709 ] final  -14.04 input   66.30 | X-H torsion
[ 10763 10752 10751 10750 ] final  176.52 input  -60.55 | X-H torsion
[ 11005 11000 10999 10996 ] final   13.70 input  -57.11 | X-H torsion

> <Gold.Protein.ActiveResidues>
 VAL166  LYS551  ARG553  GLY616  TRP617  ASP618  TYR619  PRO620  LYS621  CYS622 
 ASP623  PHE694  ASN695  SER759  ASP760  ASP761  ALA762  ILE779  LEU786  VAL792 
 PHE793  MET794  SER795  GLU796  ALA797  LYS798  CYS799  TRP800  GLU811  SER814 

> <Gold.Protein.RotatedAtoms>
  151.0880  133.5338  159.2616 H   0  0  0  0  0  0  0  0  0  0  0  0  # atno 6907 bound_to 6896
  151.2216  135.0520  159.8962 H   0  0  0  0  0  0  0  0  0  0  0  0  # atno 6908 bound_to 6896
  152.5431  134.0681  159.8235 H   0  0  0  0  0  0  0  0  0  0  0  0  # atno 6909 bound_to 6896
  144.7245  139.9636  143.6435 H   0  0  0  0  0  0  0  0  0  0  0  0  # atno 7974 bound_to 7965
  155.4365  140.0529  157.3014 H   0  0  0  0  0  0  0  0  0  0  0  0  # atno 8008 bound_to 7997
  154.4837  140.2092  155.9663 H   0  0  0  0  0  0  0  0  0  0  0  0  # atno 8009 bound_to 7997
  156.1243  140.3183  155.8259 H   0  0  0  0  0  0  0  0  0  0  0  0  # atno 8010 bound_to 7997
  140.6110  143.2387  151.5709 H   0  0  0  0  0  0  0  0  0  0  0  0  # atno 10167 bound_to 10162
  156.6217  130.4877  149.6162 H   0  0  0  0  0  0  0  0  0  0  0  0  # atno 10718 bound_to 10713
  154.4822  135.2775  155.1561 H   0  0  0  0  0  0  0  0  0  0  0  0  # atno 10763 bound_to 10752
  154.3267  135.6198  153.5536 H   0  0  0  0  0  0  0  0  0  0  0  0  # atno 10764 bound_to 10752
  152.9877  135.5755  154.5226 H   0  0  0  0  0  0  0  0  0  0  0  0  # atno 10765 bound_to 10752
  140.4778  134.0966  155.7745 H   0  0  0  0  0  0  0  0  0  0  0  0  # atno 11005 bound_to 11000
  146.0618  139.3611  143.0577 LP  0  0  0  0  0  0  0  0  0  0  0  0  # atno 17320 bound_to 7965
  145.8083  140.9738  143.0962 LP  0  0  0  0  0  0  0  0  0  0  0  0  # atno 17321 bound_to 7965
  139.5361  144.2776  152.1255 LP  0  0  0  0  0  0  0  0  0  0  0  0  # atno 17342 bound_to 10162
  140.1976  144.4690  150.6447 LP  0  0  0  0  0  0  0  0  0  0  0  0  # atno 17343 bound_to 10162
  156.2306  130.6792  151.1460 LP  0  0  0  0  0  0  0  0  0  0  0  0  # atno 17370 bound_to 10713
  157.7226  131.0672  150.6072 LP  0  0  0  0  0  0  0  0  0  0  0  0  # atno 17371 bound_to 10713
  141.1546  133.8907  157.2011 LP  0  0  0  0  0  0  0  0  0  0  0  0  # atno 17394 bound_to 11000
  139.9845  135.0087  156.9829 LP  0  0  0  0  0  0  0  0  0  0  0  0  # atno 17395 bound_to 11000

$$$$
