AV-unprocessed.smi:95|AV-procd|sdf|858|dock9
  -GOLD-   2262017303D 1   1.00000     0.00000
 Structure written by MMmdl.
 42 45  0  0  0  0  0  0  0  0  2 V2000
  148.2825  142.8952  154.0350 O   0  0  0  0  0  0  0  0  0  0  0  0
  147.6529  142.0124  154.6212 C   0  0  0  0  0  0  0  0  0  0  0  0
  146.2053  142.0332  154.7922 C   0  0  0  0  0  0  0  0  0  0  0  0
  145.4902  143.0463  154.2748 F   0  0  0  0  0  0  0  0  0  0  0  0
  145.5657  141.0380  155.4438 C   0  0  0  0  0  0  0  0  0  0  0  0
  146.2204  139.9547  156.0093 N   0  0  0  0  0  0  0  0  0  0  0  0
  145.4620  138.8022  156.6371 C   0  0  1  0  0  0  0  0  0  0  0  0
  145.8439  138.5135  158.0995 C   0  0  0  0  0  0  0  0  0  0  0  0
  144.6657  139.0887  158.8611 C   0  0  0  0  0  0  0  0  0  0  0  0
  143.5256  138.8661  157.8751 C   0  0  0  0  0  0  0  0  0  0  0  0
  144.1045  139.1293  156.6032 O   0  0  0  0  0  0  0  0  0  0  0  0
  147.6158  139.8190  155.8263 C   0  0  0  0  0  0  0  0  0  0  0  0
  148.2111  138.8133  156.2198 O   0  0  0  0  0  0  0  0  0  0  0  0
  148.2917  140.8732  155.1659 N   0  0  0  0  0  0  0  0  0  0  0  0
  149.7288  140.7671  154.9733 C   0  0  0  0  0  0  0  0  0  0  0  0
  150.5584  141.0412  156.2193 C   0  0  0  0  0  0  0  0  0  0  0  0
  151.3052  140.0398  156.8791 C   0  0  0  0  0  0  0  0  0  0  0  0
  152.0574  140.3792  158.0219 C   0  0  0  0  0  0  0  0  0  0  0  0
  152.0467  141.7126  158.4836 C   0  0  0  0  0  0  0  0  0  0  0  0
  152.7852  142.0930  159.6227 C   0  0  0  0  0  0  0  0  0  0  0  0
  152.7566  143.4311  160.0642 C   0  0  0  0  0  0  0  0  0  0  0  0
  151.9923  144.3910  159.3707 C   0  0  0  0  0  0  0  0  0  0  0  0
  151.2525  144.0179  158.2310 C   0  0  0  0  0  0  0  0  0  0  0  0
  151.2797  142.6808  157.7877 C   0  0  0  0  0  0  0  0  0  0  0  0
  150.5764  142.3064  156.6962 N   0  3  0  0  0  0  0  0  0  0  0  0
  144.4914  141.1069  155.5057 H   0  0  0  0  0  0  0  0  0  0  0  0
  145.6690  137.9300  156.0149 H   0  0  0  0  0  0  0  0  0  0  0  0
  145.8743  137.4314  158.2333 H   0  0  0  0  0  0  0  0  0  0  0  0
  146.8183  138.9112  158.3832 H   0  0  0  0  0  0  0  0  0  0  0  0
  144.4988  138.6002  159.8214 H   0  0  0  0  0  0  0  0  0  0  0  0
  144.8031  140.1551  159.0410 H   0  0  0  0  0  0  0  0  0  0  0  0
  143.1886  137.8289  157.9065 H   0  0  0  0  0  0  0  0  0  0  0  0
  142.6680  139.5112  158.0674 H   0  0  0  0  0  0  0  0  0  0  0  0
  149.9179  139.7644  154.5840 H   0  0  0  0  0  0  0  0  0  0  0  0
  150.0306  141.4371  154.1679 H   0  0  0  0  0  0  0  0  0  0  0  0
  151.3057  139.0218  156.5177 H   0  0  0  0  0  0  0  0  0  0  0  0
  152.6336  139.6224  158.5342 H   0  0  0  0  0  0  0  0  0  0  0  0
  153.3741  141.3644  160.1612 H   0  0  0  0  0  0  0  0  0  0  0  0
  153.3223  143.7222  160.9373 H   0  0  0  0  0  0  0  0  0  0  0  0
  151.9739  145.4151  159.7140 H   0  0  0  0  0  0  0  0  0  0  0  0
  150.6692  144.7594  157.7042 H   0  0  0  0  0  0  0  0  0  0  0  0
  150.0332  143.0157  156.2043 H   0  0  0  0  0  0  0  0  0  0  0  0
  1  2  2  0  0  0  0
  2 14  1  0  0  0  0
  2  3  1  0  0  0  0
  3  4  1  0  0  0  0
  3  5  2  0  0  0  0
  5  6  1  0  0  0  0
  5 26  1  0  0  0  0
  6  7  1  0  0  0  0
  6 12  1  0  0  0  0
  7 11  1  0  0  0  0
  7  8  1  0  0  0  0
  7 27  1  0  0  0  0
  8  9  1  0  0  0  0
  8 28  1  0  0  0  0
  8 29  1  0  0  0  0
  9 10  1  0  0  0  0
  9 30  1  0  0  0  0
  9 31  1  0  0  0  0
 10 11  1  0  0  0  0
 10 32  1  0  0  0  0
 10 33  1  0  0  0  0
 12 13  2  0  0  0  0
 12 14  1  0  0  0  0
 14 15  1  0  0  0  0
 15 16  1  0  0  0  0
 15 34  1  0  0  0  0
 15 35  1  0  0  0  0
 16 25  1  0  0  0  0
 16 17  2  0  0  0  0
 17 18  1  0  0  0  0
 17 36  1  0  0  0  0
 18 19  2  0  0  0  0
 18 37  1  0  0  0  0
 19 24  1  0  0  0  0
 19 20  1  0  0  0  0
 20 21  2  0  0  0  0
 20 38  1  0  0  0  0
 21 22  1  0  0  0  0
 21 39  1  0  0  0  0
 22 23  2  0  0  0  0
 22 40  1  0  0  0  0
 23 24  1  0  0  0  0
 23 41  1  0  0  0  0
 24 25  2  0  0  0  0
 25 42  1  0  0  0  0
M  CHG  1  25   1
M  END
> <s_m_source_file>
AV-unprocessed.smi

> <i_m_source_file_index>
95

> <i_lp_mmshare_version>
43012

> <i_f3d_flags>
0

> <s_epik_input>
TzFbQ0gyXVtDSDJdW0NIMl1bQ0BIXTFuKFtjSF1jKEYpYzI9TyljKD1PKW4yW0NIMl1jKFtjSF1bY0hdMyluYyhjMzQpW2NIXVtjSF1bY0hdW2NIXTQ=

> <s_epik_cmdline>
J2VwaWtfcHl0aG9uJywgJy1waCcsICc3LjAnLCAnLXRuJywgJzgnLCAnLW1hJywgJzIwMCcsICctbWV0YWxfYmluZGluZycsICctaW1hZScsICc8aW5maWxlLm1hZT4nLCAnLW9tYWUnLCAnPG91dGZpbGUubWFlPic=

> <r_lp_tautomer_probability>
1

> <r_epik_Ionization_Penalty>
1.83445

> <r_epik_Ionization_Penalty_Charging>
1.83445

> <r_epik_Ionization_Penalty_Neutral>
6.33322e-12

> <r_epik_State_Penalty>
1.95069

> <r_epik_Charging_Adjusted_Penalty>
3.78513

> <i_epik_Tot_Q>
1

> <i_epik_Tot_abs_Q>
1

> <r_epik_Metal_State_Penalty>
6.02102

> <b_epik_Metal_Only>
0

> <s_epik_Chemistry_Notes>
This compound contains an acetal/aminal-like group ( X-CH(R)-Y where X, Y are N, S, or O) that may be acid/base labile, releasing an aldehyde.

> <s_lp_Force_Field>
OPLS_2005

> <r_lp_Energy>
36.6829

> <b_lp_Chiralities_Consistent>
1

> <s_lp_Variant>
AV-unprocessed.smi:95-4

> <Gold.Version>
5.8.1

> <Gold.Id.Protein>
6NUR|6NUR_protein|mol2

> <Gold.PLP.Fitness>
46.7154

> <Gold.PLP.PLP>
-38.4877

> <Gold.PLP.part.hbond>
-2.9182

> <Gold.PLP.part.metal>
0.0000

> <Gold.PLP.part.buried>
-1.5100

> <Gold.PLP.part.nonpolar>
-38.1217

> <Gold.PLP.part.repulsive>
3.4754

> <Gold.PLP.ligand.clash>
0.0000

> <Gold.PLP.ligand.torsion>
0.3007

> <Gold.PLP.Chemscore.Hbond>
2.9120

> <Gold.PLP.Chemscore.CHOScore>
0.0000

> <Gold.PLP.Chemscore.Metal>
0.0000

> <Gold.Chemscore.Hbonds>
donor molecule, donor type, donor heavy atom, donor atom, acceptor molecule, acceptor atom, score
      L1  H    25    42       P1  8028  1.53
      P1  H  8022  8030       L1     1  0.99

> <Gold.PLP.Chemscore.Internal.Correction>
0.0930

> <Gold.Rescore>
     Score         DG    S(hbond)    S(metal)    S(lipo)     H(rot)  DE(clash)    DE(int)     intcor
     16.85     -19.08       1.84        0.00      97.53       1.54       1.97       0.26       ----

> <Gold.Chemscore.Fitness>
16.8525

> <Gold.Chemscore.DG>
-19.0823

> <Gold.Chemscore.ZeroCoef>
-5.4800

> <Gold.Chemscore.Hbond>
1.8370

> <Gold.Chemscore.Metal>
0.0000

> <Gold.Chemscore.Lipo>
97.5287

> <Gold.Chemscore.Internal_Hbond>
0.0000

> <Gold.Chemscore.DEClash>
1.9666

> <Gold.Chemscore.DEInternal>
0.2632

> <Gold.Chemscore.Rot>
1.5407

> <Gold.Chemscore.Internal.Correction>
   9.000000E+99

> <Gold.Chemscore.Hbonds>
donor molecule, donor type, donor heavy atom, donor atom, acceptor molecule, acceptor atom, score
      L1  H    25    42       P1  8028  0.77
      P1  H  8011  8017       L1     1  0.01
      P1  H  8022  8030       L1     1  0.93

> <Gold.Chemscore.Hbond.Weighted>
-6.1357

> <Gold.Chemscore.Metal.Weighted>
-0.0000

> <Gold.Chemscore.Lipo.Weighted>
-11.4109

> <Gold.Chemscore.Internal_Hbond.Weighted>
0.0000

> <Gold.Chemscore.DEClash.Weighted>
1.9666

> <Gold.Chemscore.DEInternal.Weighted>
0.2632

> <Gold.Chemscore.Rot.Weighted>
3.9443

> <Gold.Chemscore.Internal.Correction.Weighted>
   9.000000E+99

> <Gold.Protein.RotatedTorsions>
[ 6907 6896 6895 6894 ] final -104.37 input  -60.11 | X-H torsion
[ 7974 7965 7964 7962 ] final   77.00 input  175.53 | X-H torsion
[ 8008 7997 7996 7995 ] final   71.52 input   59.86 | X-H torsion
[ 10167 10162 10161 10158 ] final   39.08 input  -65.29 | X-H torsion
[ 10718 10713 10712 10709 ] final -154.51 input   66.30 | X-H torsion
[ 10763 10752 10751 10750 ] final  138.28 input  -60.55 | X-H torsion
[ 11005 11000 10999 10996 ] final -138.18 input  -57.11 | X-H torsion

> <Gold.Protein.ActiveResidues>
 VAL166  LYS551  ARG553  GLY616  TRP617  ASP618  TYR619  PRO620  LYS621  CYS622 
 ASP623  PHE694  ASN695  SER759  ASP760  ASP761  ALA762  ILE779  LEU786  VAL792 
 PHE793  MET794  SER795  GLU796  ALA797  LYS798  CYS799  TRP800  GLU811  SER814 

> <Gold.Protein.RotatedAtoms>
  150.7284  134.0288  159.3726 H   0  0  0  0  0  0  0  0  0  0  0  0  # atno 6907 bound_to 6896
  151.8256  135.0635  160.0440 H   0  0  0  0  0  0  0  0  0  0  0  0  # atno 6908 bound_to 6896
  152.2971  133.5582  159.5631 H   0  0  0  0  0  0  0  0  0  0  0  0  # atno 6909 bound_to 6896
  145.6956  139.2566  143.1735 H   0  0  0  0  0  0  0  0  0  0  0  0  # atno 7974 bound_to 7965
  155.7551  140.3488  155.5170 H   0  0  0  0  0  0  0  0  0  0  0  0  # atno 8008 bound_to 7997
  155.8967  140.1027  157.1400 H   0  0  0  0  0  0  0  0  0  0  0  0  # atno 8009 bound_to 7997
  154.4039  140.1294  156.4372 H   0  0  0  0  0  0  0  0  0  0  0  0  # atno 8010 bound_to 7997
  140.3874  144.1899  150.6130 H   0  0  0  0  0  0  0  0  0  0  0  0  # atno 10167 bound_to 10162
  156.5002  130.8388  151.2606 H   0  0  0  0  0  0  0  0  0  0  0  0  # atno 10718 bound_to 10713
  153.8870  135.3037  155.3446 H   0  0  0  0  0  0  0  0  0  0  0  0  # atno 10763 bound_to 10752
  154.7735  135.4874  153.9699 H   0  0  0  0  0  0  0  0  0  0  0  0  # atno 10764 bound_to 10752
  153.1319  135.6805  153.9262 H   0  0  0  0  0  0  0  0  0  0  0  0  # atno 10765 bound_to 10752
  140.8640  134.2133  157.4691 H   0  0  0  0  0  0  0  0  0  0  0  0  # atno 11005 bound_to 11000
  146.0843  140.7728  142.9626 LP  0  0  0  0  0  0  0  0  0  0  0  0  # atno 17320 bound_to 7965
  144.6983  140.3538  143.7177 LP  0  0  0  0  0  0  0  0  0  0  0  0  # atno 17321 bound_to 7965
  140.4875  143.2358  151.8866 LP  0  0  0  0  0  0  0  0  0  0  0  0  # atno 17342 bound_to 10162
  139.4791  144.5202  151.8812 LP  0  0  0  0  0  0  0  0  0  0  0  0  # atno 17343 bound_to 10162
  157.7464  130.9984  150.2851 LP  0  0  0  0  0  0  0  0  0  0  0  0  # atno 17370 bound_to 10713
  156.3340  130.3805  149.7466 LP  0  0  0  0  0  0  0  0  0  0  0  0  # atno 17371 bound_to 10713
  139.8708  134.9743  156.4841 LP  0  0  0  0  0  0  0  0  0  0  0  0  # atno 17394 bound_to 11000
  140.8650  133.8031  155.9304 LP  0  0  0  0  0  0  0  0  0  0  0  0  # atno 17395 bound_to 11000

$$$$
