AV-unprocessed.smi:2243|AV-procd|sdf|9071|dock7
  -GOLD-   2272012273D 1   1.00000     0.00000
 Structure written by MMmdl.
 33 34  0  0  0  0  0  0  0  0  2 V2000
  151.8604  137.9237  159.0890 C   0  0  0  0  0  0  0  0  0  0  0  0
  150.6588  137.4291  158.2653 C   0  0  1  0  0  0  0  0  0  0  0  0
  149.4575  137.5910  159.0873 N   0  0  0  0  0  0  0  0  0  0  0  0
  148.6086  136.6266  159.4760 C   0  0  0  0  0  0  0  0  0  0  0  0
  148.7926  135.4595  159.1228 O   0  0  0  0  0  0  0  0  0  0  0  0
  147.5923  137.0778  160.2452 N   0  5  0  0  0  0  0  0  0  0  0  0
  146.8774  136.2127  160.9826 C   0  0  0  0  0  0  0  0  0  0  0  0
  145.7261  136.4675  161.6067 N   0  0  0  0  0  0  0  0  0  0  0  0
  145.3631  135.2840  162.2307 C   0  0  0  0  0  0  0  0  0  0  0  0
  146.3200  134.3486  161.9457 C   0  0  0  0  0  0  0  0  0  0  0  0
  147.2780  134.9211  161.1556 O   0  0  0  0  0  0  0  0  0  0  0  0
  150.5014  138.1672  156.9080 C   0  0  0  0  0  0  0  0  0  0  0  0
  151.5477  137.7264  155.8621 C   0  0  0  0  0  0  0  0  0  0  0  0
  151.4062  138.5256  154.5571 C   0  0  0  0  0  0  0  0  0  0  0  0
  151.5248  139.9178  154.8226 O   0  0  0  0  0  0  0  0  0  0  0  0
  150.5018  140.3982  155.6855 C   0  0  0  0  0  0  0  0  0  0  0  0
  150.5906  139.7003  157.0527 C   0  0  0  0  0  0  0  0  0  0  0  0
  152.8074  137.7035  158.5975 H   0  0  0  0  0  0  0  0  0  0  0  0
  151.8907  137.4362  160.0641 H   0  0  0  0  0  0  0  0  0  0  0  0
  151.8104  138.9997  159.2583 H   0  0  0  0  0  0  0  0  0  0  0  0
  150.8257  136.3705  158.0597 H   0  0  0  0  0  0  0  0  0  0  0  0
  149.2546  138.5279  159.4036 H   0  0  0  0  0  0  0  0  0  0  0  0
  144.4624  135.2016  162.8205 H   0  0  0  0  0  0  0  0  0  0  0  0
  146.4591  133.3100  162.2051 H   0  0  0  0  0  0  0  0  0  0  0  0
  149.5146  137.9273  156.5084 H   0  0  0  0  0  0  0  0  0  0  0  0
  152.5523  137.8643  156.2643 H   0  0  0  0  0  0  0  0  0  0  0  0
  151.4470  136.6650  155.6353 H   0  0  0  0  0  0  0  0  0  0  0  0
  152.1868  138.2344  153.8540 H   0  0  0  0  0  0  0  0  0  0  0  0
  150.4504  138.3156  154.0745 H   0  0  0  0  0  0  0  0  0  0  0  0
  150.6234  141.4746  155.8072 H   0  0  0  0  0  0  0  0  0  0  0  0
  149.5226  140.2393  155.2310 H   0  0  0  0  0  0  0  0  0  0  0  0
  149.7896  140.0766  157.6881 H   0  0  0  0  0  0  0  0  0  0  0  0
  151.5293  139.9720  157.5374 H   0  0  0  0  0  0  0  0  0  0  0  0
  1  2  1  0  0  0  0
  1 18  1  0  0  0  0
  1 19  1  0  0  0  0
  1 20  1  0  0  0  0
  2  3  1  0  0  0  0
  2 12  1  0  0  0  0
  2 21  1  0  0  0  0
  3 22  1  0  0  0  0
  3  4  1  0  0  0  0
  4  6  1  0  0  0  0
  4  5  2  0  0  0  0
  6  7  1  0  0  0  0
  7 11  1  0  0  0  0
  7  8  2  0  0  0  0
  8  9  1  0  0  0  0
  9 23  1  0  0  0  0
  9 10  2  0  0  0  0
 10 24  1  0  0  0  0
 10 11  1  0  0  0  0
 12 17  1  0  0  0  0
 12 13  1  0  0  0  0
 12 25  1  0  0  0  0
 13 14  1  0  0  0  0
 13 26  1  0  0  0  0
 13 27  1  0  0  0  0
 14 15  1  0  0  0  0
 14 28  1  0  0  0  0
 14 29  1  0  0  0  0
 15 16  1  0  0  0  0
 16 17  1  0  0  0  0
 16 30  1  0  0  0  0
 16 31  1  0  0  0  0
 17 32  1  0  0  0  0
 17 33  1  0  0  0  0
M  CHG  1   6  -1
M  END
> <s_m_source_file>
AV-unprocessed.smi

> <i_m_source_file_index>
2243

> <i_lp_mmshare_version>
43012

> <i_f3d_flags>
0

> <s_epik_input>
W0NIMl0xW0NIMl1PW0NIMl1bQ0gyXVtDSF0xW0NASF0oW0NIM10pW05IXUMoPU8pW05IXWMybltjSF1bY0hdbzI=

> <s_epik_cmdline>
J2VwaWtfcHl0aG9uJywgJy1waCcsICc3LjAnLCAnLXRuJywgJzgnLCAnLW1hJywgJzIwMCcsICctbWV0YWxfYmluZGluZycsICctaW1hZScsICc8aW5maWxlLm1hZT4nLCAnLW9tYWUnLCAnPG91dGZpbGUubWFlPic=

> <r_lp_tautomer_probability>
0.107061

> <r_epik_Ionization_Penalty>
11.1403

> <r_epik_Ionization_Penalty_Charging>
7.81312

> <r_epik_Ionization_Penalty_Neutral>
3.32719

> <r_epik_State_Penalty>
5.94317

> <r_epik_Charging_Adjusted_Penalty>
13.7563

> <i_epik_Tot_Q>
-1

> <i_epik_Tot_abs_Q>
1

> <r_epik_Metal_State_Penalty>
1.86619

> <b_epik_Metal_Only>
1

> <s_lp_Force_Field>
OPLS_2005

> <r_lp_Energy>
6.4903

> <b_lp_Chiralities_Consistent>
1

> <s_lp_Variant>
AV-unprocessed.smi:2243-10

> <Gold.Version>
5.8.1

> <Gold.Id.Protein>
6NUR|6NUR_protein|mol2

> <Gold.PLP.Fitness>
41.6961

> <Gold.PLP.PLP>
-27.0538

> <Gold.PLP.part.hbond>
-4.0000

> <Gold.PLP.part.metal>
0.0000

> <Gold.PLP.part.buried>
-5.6797

> <Gold.PLP.part.nonpolar>
-18.5867

> <Gold.PLP.part.repulsive>
0.2997

> <Gold.PLP.ligand.clash>
0.0000

> <Gold.PLP.ligand.torsion>
0.2954

> <Gold.PLP.Chemscore.Hbond>
5.0720

> <Gold.PLP.Chemscore.CHOScore>
0.0000

> <Gold.PLP.Chemscore.Metal>
0.0000

> <Gold.Chemscore.Hbonds>
donor molecule, donor type, donor heavy atom, donor atom, acceptor molecule, acceptor atom, score
      P1  H  6896  6907       L1     5  0.78
      P1  H  6934  6947       L1     6  1.62
      P1  H  7989  7998       L1    15  1.00

> <Gold.PLP.Chemscore.Internal.Correction>
0.0171

> <Gold.Rescore>
     Score         DG    S(hbond)    S(metal)    S(lipo)     H(rot)  DE(clash)    DE(int)     intcor
     15.06     -17.00       2.63        0.00      51.80       1.31       0.00       1.93       ----

> <Gold.Chemscore.Fitness>
15.0599

> <Gold.Chemscore.DG>
-16.9969

> <Gold.Chemscore.ZeroCoef>
-5.4800

> <Gold.Chemscore.Hbond>
2.6349

> <Gold.Chemscore.Metal>
0.0000

> <Gold.Chemscore.Lipo>
51.7988

> <Gold.Chemscore.Internal_Hbond>
0.0000

> <Gold.Chemscore.DEClash>
0.0029

> <Gold.Chemscore.DEInternal>
1.9341

> <Gold.Chemscore.Rot>
1.3063

> <Gold.Chemscore.Internal.Correction>
   9.000000E+99

> <Gold.Chemscore.Hbonds>
donor molecule, donor type, donor heavy atom, donor atom, acceptor molecule, acceptor atom, score
      P1  H  6896  6907       L1     5  0.71
      P1  H  6934  6947       L1     6  0.53
      P1  H  7989  7998       L1    15  0.70

> <Gold.Chemscore.Hbond.Weighted>
-8.8007

> <Gold.Chemscore.Metal.Weighted>
-0.0000

> <Gold.Chemscore.Lipo.Weighted>
-6.0605

> <Gold.Chemscore.Internal_Hbond.Weighted>
0.0000

> <Gold.Chemscore.DEClash.Weighted>
0.0029

> <Gold.Chemscore.DEInternal.Weighted>
1.9341

> <Gold.Chemscore.Rot.Weighted>
3.3443

> <Gold.Chemscore.Internal.Correction.Weighted>
   9.000000E+99

> <Gold.Protein.RotatedTorsions>
[ 6907 6896 6895 6894 ] final  -65.36 input  -60.11 | X-H torsion
[ 7974 7965 7964 7962 ] final -146.73 input  175.53 | X-H torsion
[ 8008 7997 7996 7995 ] final -140.98 input   59.86 | X-H torsion
[ 10167 10162 10161 10158 ] final -143.61 input  -65.29 | X-H torsion
[ 10718 10713 10712 10709 ] final   29.38 input   66.30 | X-H torsion
[ 10763 10752 10751 10750 ] final  -75.04 input  -60.55 | X-H torsion
[ 11005 11000 10999 10996 ] final  135.10 input  -57.11 | X-H torsion

> <Gold.Protein.ActiveResidues>
 VAL166  LYS551  ARG553  GLY616  TRP617  ASP618  TYR619  PRO620  LYS621  CYS622 
 ASP623  PHE694  ASN695  SER759  ASP760  ASP761  ALA762  ILE779  LEU786  VAL792 
 PHE793  MET794  SER795  GLU796  ALA797  LYS798  CYS799  TRP800  GLU811  SER814 

> <Gold.Protein.RotatedAtoms>
  150.7528  134.6170  159.6115 H   0  0  0  0  0  0  0  0  0  0  0  0  # atno 6907 bound_to 6896
  152.3488  134.7032  160.0251 H   0  0  0  0  0  0  0  0  0  0  0  0  # atno 6908 bound_to 6896
  151.7460  133.3288  159.3415 H   0  0  0  0  0  0  0  0  0  0  0  0  # atno 6909 bound_to 6896
  144.8140  140.5419  143.5623 H   0  0  0  0  0  0  0  0  0  0  0  0  # atno 7974 bound_to 7965
  155.4703  140.0552  157.2980 H   0  0  0  0  0  0  0  0  0  0  0  0  # atno 8008 bound_to 7997
  154.4701  140.2036  155.9970 H   0  0  0  0  0  0  0  0  0  0  0  0  # atno 8009 bound_to 7997
  156.1041  140.3214  155.7987 H   0  0  0  0  0  0  0  0  0  0  0  0  # atno 8010 bound_to 7997
  139.7977  143.7877  152.2655 H   0  0  0  0  0  0  0  0  0  0  0  0  # atno 10167 bound_to 10162
  157.2459  130.7091  149.6381 H   0  0  0  0  0  0  0  0  0  0  0  0  # atno 10718 bound_to 10713
  154.4812  135.5844  153.6391 H   0  0  0  0  0  0  0  0  0  0  0  0  # atno 10763 bound_to 10752
  152.9848  135.6090  154.3243 H   0  0  0  0  0  0  0  0  0  0  0  0  # atno 10764 bound_to 10752
  154.3135  135.2844  155.2534 H   0  0  0  0  0  0  0  0  0  0  0  0  # atno 10765 bound_to 10752
  139.9958  134.9498  156.9960 H   0  0  0  0  0  0  0  0  0  0  0  0  # atno 11005 bound_to 11000
  145.5257  139.1476  143.3527 LP  0  0  0  0  0  0  0  0  0  0  0  0  # atno 17320 bound_to 7965
  146.2442  140.5398  142.8921 LP  0  0  0  0  0  0  0  0  0  0  0  0  # atno 17321 bound_to 7965
  139.7987  144.7382  150.9854 LP  0  0  0  0  0  0  0  0  0  0  0  0  # atno 17342 bound_to 10162
  140.7820  143.4367  151.0613 LP  0  0  0  0  0  0  0  0  0  0  0  0  # atno 17343 bound_to 10162
  155.9668  130.4443  150.5456 LP  0  0  0  0  0  0  0  0  0  0  0  0  # atno 17370 bound_to 10713
  157.3330  131.0703  151.1847 LP  0  0  0  0  0  0  0  0  0  0  0  0  # atno 17371 bound_to 10713
  140.4821  134.1279  155.7218 LP  0  0  0  0  0  0  0  0  0  0  0  0  # atno 17394 bound_to 11000
  141.1603  133.8805  157.1866 LP  0  0  0  0  0  0  0  0  0  0  0  0  # atno 17395 bound_to 11000

$$$$
