AV-unprocessed.smi:1563|AV-procd|sdf|6292|dock3
  -GOLD-   22720 6493D 1   1.00000     0.00000
 Structure written by MMmdl.
 44 45  0  0  0  0  0  0  0  0  2 V2000
  151.8250  144.7165  158.1720 C   0  0  0  0  0  0  0  0  0  0  0  0
  151.5648  143.2313  157.9468 C   0  0  0  0  0  0  0  0  0  0  0  0
  152.3181  142.3910  158.4389 O   0  0  0  0  0  0  0  0  0  0  0  0
  150.4958  142.9225  157.1968 N   0  0  0  0  0  0  0  0  0  0  0  0
  150.0748  141.5674  156.8602 C   0  0  1  0  0  0  0  0  0  0  0  0
  148.7631  141.1972  157.5911 C   0  0  0  0  0  0  0  0  0  0  0  0
  148.2002  139.8402  157.1198 C   0  0  0  0  0  0  0  0  0  0  0  0
  148.1601  139.7566  155.5823 C   0  0  0  0  0  0  0  0  0  0  0  0
  149.5099  140.0342  155.0664 N   0  0  0  0  0  0  0  0  0  0  0  0
  150.4188  139.1130  154.6610 C   0  0  0  0  0  0  0  0  0  0  0  0
  151.5612  139.4065  154.3052 O   0  0  0  0  0  0  0  0  0  0  0  0
  150.0084  137.8360  154.7642 N   0  0  0  0  0  0  0  0  0  0  0  0
  150.8609  136.6583  154.6127 C   0  0  0  0  0  0  0  0  0  0  0  0
  150.5323  135.5601  155.6470 C   0  0  0  0  0  0  0  0  0  0  0  0
  150.0074  134.2698  155.0371 C   0  0  0  0  0  0  0  0  0  0  0  0
  150.1781  133.0166  155.6661 C   0  0  0  0  0  0  0  0  0  0  0  0
  149.7030  131.8527  155.0266 C   0  0  0  0  0  0  0  0  0  0  0  0
  149.0674  131.9653  153.7732 C   0  0  0  0  0  0  0  0  0  0  0  0
  148.9144  133.2418  153.1948 C   0  0  0  0  0  0  0  0  0  0  0  0
  149.3804  134.3337  153.8401 N   0  3  0  0  0  0  0  0  0  0  0  0
  149.8993  141.4226  155.3353 C   0  0  0  0  0  0  0  0  0  0  0  0
  150.9030  145.2340  158.4378 H   0  0  0  0  0  0  0  0  0  0  0  0
  152.2277  145.1710  157.2666 H   0  0  0  0  0  0  0  0  0  0  0  0
  152.5431  144.8657  158.9789 H   0  0  0  0  0  0  0  0  0  0  0  0
  149.9350  143.6797  156.8337 H   0  0  0  0  0  0  0  0  0  0  0  0
  150.8549  140.8694  157.1675 H   0  0  0  0  0  0  0  0  0  0  0  0
  148.9202  141.1796  158.6701 H   0  0  0  0  0  0  0  0  0  0  0  0
  148.0166  141.9699  157.4016 H   0  0  0  0  0  0  0  0  0  0  0  0
  148.8217  139.0339  157.5097 H   0  0  0  0  0  0  0  0  0  0  0  0
  147.2026  139.6867  157.5317 H   0  0  0  0  0  0  0  0  0  0  0  0
  147.7624  138.7938  155.2601 H   0  0  0  0  0  0  0  0  0  0  0  0
  147.4645  140.4997  155.1894 H   0  0  0  0  0  0  0  0  0  0  0  0
  149.0563  137.6724  155.0579 H   0  0  0  0  0  0  0  0  0  0  0  0
  150.7289  136.2636  153.6051 H   0  0  0  0  0  0  0  0  0  0  0  0
  151.9128  136.9379  154.6894 H   0  0  0  0  0  0  0  0  0  0  0  0
  151.4286  135.3316  156.2250 H   0  0  0  0  0  0  0  0  0  0  0  0
  149.8008  135.9363  156.3630 H   0  0  0  0  0  0  0  0  0  0  0  0
  150.6782  132.9432  156.6206 H   0  0  0  0  0  0  0  0  0  0  0  0
  149.8345  130.8839  155.4857 H   0  0  0  0  0  0  0  0  0  0  0  0
  148.7063  131.0843  153.2627 H   0  0  0  0  0  0  0  0  0  0  0  0
  148.4435  133.4206  152.2394 H   0  0  0  0  0  0  0  0  0  0  0  0
  149.1284  142.1027  154.9691 H   0  0  0  0  0  0  0  0  0  0  0  0
  150.8162  141.7083  154.8171 H   0  0  0  0  0  0  0  0  0  0  0  0
  149.2700  135.2453  153.3956 H   0  0  0  0  0  0  0  0  0  0  0  0
  1  2  1  0  0  0  0
  1 22  1  0  0  0  0
  1 23  1  0  0  0  0
  1 24  1  0  0  0  0
  2  3  2  0  0  0  0
  2  4  1  0  0  0  0
  4  5  1  0  0  0  0
  4 25  1  0  0  0  0
  5 21  1  0  0  0  0
  5  6  1  0  0  0  0
  5 26  1  0  0  0  0
  6  7  1  0  0  0  0
  6 27  1  0  0  0  0
  6 28  1  0  0  0  0
  7  8  1  0  0  0  0
  7 29  1  0  0  0  0
  7 30  1  0  0  0  0
  8  9  1  0  0  0  0
  8 31  1  0  0  0  0
  8 32  1  0  0  0  0
  9 10  1  0  0  0  0
  9 21  1  0  0  0  0
 10 11  2  0  0  0  0
 10 12  1  0  0  0  0
 12 13  1  0  0  0  0
 12 33  1  0  0  0  0
 13 14  1  0  0  0  0
 13 34  1  0  0  0  0
 13 35  1  0  0  0  0
 14 15  1  0  0  0  0
 14 36  1  0  0  0  0
 14 37  1  0  0  0  0
 15 20  1  0  0  0  0
 15 16  2  0  0  0  0
 16 17  1  0  0  0  0
 16 38  1  0  0  0  0
 17 18  2  0  0  0  0
 17 39  1  0  0  0  0
 18 19  1  0  0  0  0
 18 40  1  0  0  0  0
 19 20  2  0  0  0  0
 19 41  1  0  0  0  0
 20 44  1  0  0  0  0
 21 42  1  0  0  0  0
 21 43  1  0  0  0  0
M  CHG  1  20   1
M  END
> <s_m_source_file>
AV-unprocessed.smi

> <i_m_source_file_index>
1563

> <i_lp_mmshare_version>
43012

> <i_f3d_flags>
0

> <s_epik_input>
W0NIM11DKD1PKVtOSF1bQ0BASF0xW0NIMl1bQ0gyXVtDSDJdTihbQ0gyXTEpQyg9TylbTkhdW0NIMl1bQ0gyXWMyW2NIXVtjSF1bY0hdW2NIXW4y

> <s_epik_cmdline>
J2VwaWtfcHl0aG9uJywgJy1waCcsICc3LjAnLCAnLXRuJywgJzgnLCAnLW1hJywgJzIwMCcsICctbWV0YWxfYmluZGluZycsICctaW1hZScsICc8aW5maWxlLm1hZT4nLCAnLW9tYWUnLCAnPG91dGZpbGUubWFlPic=

> <r_epik_Ionization_Penalty>
1.56048

> <r_epik_Ionization_Penalty_Charging>
1.56043

> <r_epik_Ionization_Penalty_Neutral>
4.90601e-05

> <r_epik_State_Penalty>
1.65539

> <r_epik_Charging_Adjusted_Penalty>
3.21583

> <i_epik_Tot_Q>
1

> <i_epik_Tot_abs_Q>
1

> <r_epik_Metal_State_Penalty>
1.6969

> <b_epik_Metal_Only>
0

> <s_lp_Force_Field>
OPLS_2005

> <r_lp_Energy>
29.938

> <b_lp_Chiralities_Consistent>
1

> <s_lp_Variant>
AV-unprocessed.smi:1563-4

> <Gold.Version>
5.8.1

> <Gold.Id.Protein>
6NUR|6NUR_protein|mol2

> <Gold.PLP.Fitness>
46.5646

> <Gold.PLP.PLP>
-36.5744

> <Gold.PLP.part.hbond>
-3.0000

> <Gold.PLP.part.metal>
0.0000

> <Gold.PLP.part.buried>
-3.1038

> <Gold.PLP.part.nonpolar>
-30.1971

> <Gold.PLP.part.repulsive>
0.1705

> <Gold.PLP.ligand.clash>
0.0000

> <Gold.PLP.ligand.torsion>
0.9824

> <Gold.PLP.Chemscore.Hbond>
3.9520

> <Gold.PLP.Chemscore.CHOScore>
0.0000

> <Gold.PLP.Chemscore.Metal>
0.0000

> <Gold.Chemscore.Hbonds>
donor molecule, donor type, donor heavy atom, donor atom, acceptor molecule, acceptor atom, score
      L1  H     4    25       P1  8028  1.00
      L1  H    20    44       P1  7948  1.73
      P1  H  7989  7998       L1    11  1.00

> <Gold.PLP.Chemscore.Internal.Correction>
0.0991

> <Gold.Rescore>
     Score         DG    S(hbond)    S(metal)    S(lipo)     H(rot)  DE(clash)    DE(int)     intcor
     16.80     -17.83       2.73        0.00      66.27       1.77       0.04       1.00       ----

> <Gold.Chemscore.Fitness>
16.7994

> <Gold.Chemscore.DG>
-17.8338

> <Gold.Chemscore.ZeroCoef>
-5.4800

> <Gold.Chemscore.Hbond>
2.7309

> <Gold.Chemscore.Metal>
0.0000

> <Gold.Chemscore.Lipo>
66.2699

> <Gold.Chemscore.Internal_Hbond>
0.0000

> <Gold.Chemscore.DEClash>
0.0354

> <Gold.Chemscore.DEInternal>
0.9990

> <Gold.Chemscore.Rot>
1.7661

> <Gold.Chemscore.Internal.Correction>
   9.000000E+99

> <Gold.Chemscore.Hbonds>
donor molecule, donor type, donor heavy atom, donor atom, acceptor molecule, acceptor atom, score
      L1  H     4    25       P1  8028  0.99
      L1  H    20    44       P1  7948  0.16
      P1  H  7989  7998       L1    11  0.86

> <Gold.Chemscore.Hbond.Weighted>
-9.1213

> <Gold.Chemscore.Metal.Weighted>
-0.0000

> <Gold.Chemscore.Lipo.Weighted>
-7.7536

> <Gold.Chemscore.Internal_Hbond.Weighted>
0.0000

> <Gold.Chemscore.DEClash.Weighted>
0.0354

> <Gold.Chemscore.DEInternal.Weighted>
0.9990

> <Gold.Chemscore.Rot.Weighted>
4.5211

> <Gold.Chemscore.Internal.Correction.Weighted>
   9.000000E+99

> <Gold.Protein.RotatedTorsions>
[ 6907 6896 6895 6894 ] final   50.54 input  -60.11 | X-H torsion
[ 7974 7965 7964 7962 ] final   38.88 input  175.53 | X-H torsion
[ 8008 7997 7996 7995 ] final  -76.23 input   59.86 | X-H torsion
[ 10167 10162 10161 10158 ] final -149.63 input  -65.29 | X-H torsion
[ 10718 10713 10712 10709 ] final -157.26 input   66.30 | X-H torsion
[ 10763 10752 10751 10750 ] final  176.80 input  -60.55 | X-H torsion
[ 11005 11000 10999 10996 ] final   70.75 input  -57.11 | X-H torsion

> <Gold.Protein.ActiveResidues>
 VAL166  LYS551  ARG553  GLY616  TRP617  ASP618  TYR619  PRO620  LYS621  CYS622 
 ASP623  PHE694  ASN695  SER759  ASP760  ASP761  ALA762  ILE779  LEU786  VAL792 
 PHE793  MET794  SER795  GLU796  ALA797  LYS798  CYS799  TRP800  GLU811  SER814 

> <Gold.Protein.RotatedAtoms>
  152.3029  134.7589  160.0353 H   0  0  0  0  0  0  0  0  0  0  0  0  # atno 6907 bound_to 6896
  151.8096  133.3375  159.3559 H   0  0  0  0  0  0  0  0  0  0  0  0  # atno 6908 bound_to 6896
  150.7282  134.5606  159.5885 H   0  0  0  0  0  0  0  0  0  0  0  0  # atno 6909 bound_to 6896
  146.1028  139.5719  142.9403 H   0  0  0  0  0  0  0  0  0  0  0  0  # atno 7974 bound_to 7965
  154.5487  140.0730  156.8632 H   0  0  0  0  0  0  0  0  0  0  0  0  # atno 8008 bound_to 7997
  155.3036  140.3386  155.4228 H   0  0  0  0  0  0  0  0  0  0  0  0  # atno 8009 bound_to 7997
  156.1942  140.1697  156.8018 H   0  0  0  0  0  0  0  0  0  0  0  0  # atno 8010 bound_to 7997
  139.7425  143.8640  152.2566 H   0  0  0  0  0  0  0  0  0  0  0  0  # atno 10167 bound_to 10162
  156.5379  130.8550  151.2739 H   0  0  0  0  0  0  0  0  0  0  0  0  # atno 10718 bound_to 10713
  154.4860  135.2777  155.1533 H   0  0  0  0  0  0  0  0  0  0  0  0  # atno 10763 bound_to 10752
  154.3224  135.6207  153.5517 H   0  0  0  0  0  0  0  0  0  0  0  0  # atno 10764 bound_to 10752
  152.9881  135.5746  154.5271 H   0  0  0  0  0  0  0  0  0  0  0  0  # atno 10765 bound_to 10752
  139.9580  134.7110  156.0709 H   0  0  0  0  0  0  0  0  0  0  0  0  # atno 11005 bound_to 11000
  145.5820  141.0381  143.2117 LP  0  0  0  0  0  0  0  0  0  0  0  0  # atno 17320 bound_to 7965
  144.7446  139.7354  143.7297 LP  0  0  0  0  0  0  0  0  0  0  0  0  # atno 17321 bound_to 7965
  139.8595  144.7124  150.9117 LP  0  0  0  0  0  0  0  0  0  0  0  0  # atno 17342 bound_to 10162
  140.7788  143.3830  151.1443 LP  0  0  0  0  0  0  0  0  0  0  0  0  # atno 17343 bound_to 10162
  157.7410  130.9862  150.2418 LP  0  0  0  0  0  0  0  0  0  0  0  0  # atno 17370 bound_to 10713
  156.2999  130.3757  149.7760 LP  0  0  0  0  0  0  0  0  0  0  0  0  # atno 17371 bound_to 10713
  141.1254  133.6601  156.3323 LP  0  0  0  0  0  0  0  0  0  0  0  0  # atno 17394 bound_to 11000
  140.5564  134.5977  157.5422 LP  0  0  0  0  0  0  0  0  0  0  0  0  # atno 17395 bound_to 11000

$$$$
