AV-unprocessed.smi:587|AV-procd|sdf|3002|dock6
  -GOLD-   2262023503D 1   1.00000     0.00000
 Structure written by MMmdl.
 46 48  0  0  0  0  0  0  0  0  1 V2000
  149.4109  141.6596  155.0671 C   0  0  0  0  0  0  0  0  0  0  0  0
  150.4767  141.2758  155.9692 N   0  0  0  0  0  0  0  0  0  0  0  0
  150.9596  142.0720  157.0053 C   0  0  0  0  0  0  0  0  0  0  0  0
  150.4238  143.3393  157.1647 N   0  0  0  0  0  0  0  0  0  0  0  0
  151.9600  141.6488  157.8267 C   0  0  0  0  0  0  0  0  0  0  0  0
  152.4735  142.4152  158.8740 N   0  0  0  0  0  0  0  0  0  0  0  0
  152.5200  141.9522  160.2603 C   0  0  0  0  0  0  0  0  0  0  0  0
  151.7592  142.9064  161.2004 C   0  0  0  0  0  0  0  0  0  0  0  0
  152.2558  144.3515  161.0394 C   0  0  0  0  0  0  0  0  0  0  0  0
  152.2011  144.7723  159.5628 C   0  0  0  0  0  0  0  0  0  0  0  0
  152.9751  143.7755  158.6846 C   0  0  0  0  0  0  0  0  0  0  0  0
  152.5624  140.3214  157.6457 C   0  0  0  0  0  0  0  0  0  0  0  0
  153.4574  139.8757  158.3686 O   0  0  0  0  0  0  0  0  0  0  0  0
  152.0666  139.5487  156.5717 N   0  0  0  0  0  0  0  0  0  0  0  0
  152.6736  138.2238  156.3085 C   0  0  0  0  0  0  0  0  0  0  0  0
  151.7443  137.0461  156.6432 C   0  0  0  0  0  0  0  0  0  0  0  0
  151.8405  135.9716  156.0479 O   0  0  0  0  0  0  0  0  0  0  0  0
  150.8443  137.2724  157.6108 N   0  0  0  0  0  0  0  0  0  0  0  0
  149.8938  136.3247  158.0959 C   0  0  0  0  0  0  0  0  0  0  0  0
  148.4323  136.7166  158.0767 C   0  0  0  0  0  0  0  0  0  0  0  0
  149.1723  136.6553  159.3846 C   0  0  0  0  0  0  0  0  0  0  0  0
  151.0450  140.0069  155.7153 C   0  0  0  0  0  0  0  0  0  0  0  0
  150.6633  139.3131  154.7677 O   0  0  0  0  0  0  0  0  0  0  0  0
  148.9168  142.5594  155.4275 H   0  0  0  0  0  0  0  0  0  0  0  0
  148.6821  140.8473  155.0385 H   0  0  0  0  0  0  0  0  0  0  0  0
  149.8633  141.8340  154.0894 H   0  0  0  0  0  0  0  0  0  0  0  0
  149.7011  143.6836  156.5488 H   0  0  0  0  0  0  0  0  0  0  0  0
  150.6345  143.9087  157.9714 H   0  0  0  0  0  0  0  0  0  0  0  0
  152.1076  140.9453  160.3358 H   0  0  0  0  0  0  0  0  0  0  0  0
  153.5644  141.8799  160.5665 H   0  0  0  0  0  0  0  0  0  0  0  0
  150.6910  142.8657  160.9883 H   0  0  0  0  0  0  0  0  0  0  0  0
  151.8782  142.5834  162.2347 H   0  0  0  0  0  0  0  0  0  0  0  0
  151.6543  145.0277  161.6477 H   0  0  0  0  0  0  0  0  0  0  0  0
  153.2807  144.4298  161.4044 H   0  0  0  0  0  0  0  0  0  0  0  0
  151.1627  144.8199  159.2323 H   0  0  0  0  0  0  0  0  0  0  0  0
  152.6128  145.7747  159.4433 H   0  0  0  0  0  0  0  0  0  0  0  0
  154.0383  143.7994  158.9281 H   0  0  0  0  0  0  0  0  0  0  0  0
  152.8877  144.0696  157.6378 H   0  0  0  0  0  0  0  0  0  0  0  0
  152.9822  138.1336  155.2659 H   0  0  0  0  0  0  0  0  0  0  0  0
  153.6038  138.1009  156.8655 H   0  0  0  0  0  0  0  0  0  0  0  0
  150.8365  138.1846  158.0441 H   0  0  0  0  0  0  0  0  0  0  0  0
  150.1105  135.2700  157.9316 H   0  0  0  0  0  0  0  0  0  0  0  0
  148.1738  137.7011  157.6909 H   0  0  0  0  0  0  0  0  0  0  0  0
  147.7069  135.9317  157.8719 H   0  0  0  0  0  0  0  0  0  0  0  0
  148.9391  135.8306  160.0553 H   0  0  0  0  0  0  0  0  0  0  0  0
  149.4059  137.5999  159.8724 H   0  0  0  0  0  0  0  0  0  0  0  0
  1  2  1  0  0  0  0
  1 24  1  0  0  0  0
  1 25  1  0  0  0  0
  1 26  1  0  0  0  0
  2 22  1  0  0  0  0
  2  3  1  0  0  0  0
  3  4  1  0  0  0  0
  3  5  2  0  0  0  0
  4 27  1  0  0  0  0
  4 28  1  0  0  0  0
  5  6  1  0  0  0  0
  5 12  1  0  0  0  0
  6 11  1  0  0  0  0
  6  7  1  0  0  0  0
  7  8  1  0  0  0  0
  7 29  1  0  0  0  0
  7 30  1  0  0  0  0
  8  9  1  0  0  0  0
  8 31  1  0  0  0  0
  8 32  1  0  0  0  0
  9 10  1  0  0  0  0
  9 33  1  0  0  0  0
  9 34  1  0  0  0  0
 10 11  1  0  0  0  0
 10 35  1  0  0  0  0
 10 36  1  0  0  0  0
 11 37  1  0  0  0  0
 11 38  1  0  0  0  0
 12 13  2  0  0  0  0
 12 14  1  0  0  0  0
 14 15  1  0  0  0  0
 14 22  1  0  0  0  0
 15 16  1  0  0  0  0
 15 39  1  0  0  0  0
 15 40  1  0  0  0  0
 16 17  2  0  0  0  0
 16 18  1  0  0  0  0
 18 19  1  0  0  0  0
 18 41  1  0  0  0  0
 19 21  1  0  0  0  0
 19 20  1  0  0  0  0
 19 42  1  0  0  0  0
 20 21  1  0  0  0  0
 20 43  1  0  0  0  0
 20 44  1  0  0  0  0
 21 45  1  0  0  0  0
 21 46  1  0  0  0  0
 22 23  2  0  0  0  0
M  END
> <s_m_source_file>
AV-unprocessed.smi

> <i_m_source_file_index>
587

> <i_lp_mmshare_version>
43012

> <i_f3d_flags>
0

> <s_epik_input>
W0NIMl0xW0NIMl1bQ0gyXVtDSDJdW0NIMl1OMWMoYyhbTkgyXSluMltDSDNdKWMoPU8pbihjMj1PKVtDSDJdQyg9TylbTkhdW0NIXTNbQ0gyXVtDSDJdMw==

> <s_epik_cmdline>
J2VwaWtfcHl0aG9uJywgJy1waCcsICc3LjAnLCAnLXRuJywgJzgnLCAnLW1hJywgJzIwMCcsICctbWV0YWxfYmluZGluZycsICctaW1hZScsICc8aW5maWxlLm1hZT4nLCAnLW9tYWUnLCAnPG91dGZpbGUubWFlPic=

> <r_lp_tautomer_probability>
0.999881

> <r_epik_Ionization_Penalty>
0.00852669

> <r_epik_Ionization_Penalty_Charging>
2.6249e-08

> <r_epik_Ionization_Penalty_Neutral>
0.00852666

> <r_epik_State_Penalty>
0.00667057

> <r_epik_Charging_Adjusted_Penalty>
0.00667059

> <i_epik_Tot_Q>
0

> <i_epik_Tot_abs_Q>
0

> <r_epik_Metal_State_Penalty>
0.00667057

> <b_epik_Metal_Only>
0

> <s_lp_Force_Field>
OPLS_2005

> <r_lp_Energy>
38.4775

> <b_lp_Chiralities_Consistent>
1

> <s_lp_Variant>
AV-unprocessed.smi:587-1

> <Gold.Version>
5.8.1

> <Gold.Id.Protein>
6NUR|6NUR_protein|mol2

> <Gold.PLP.Fitness>
49.3594

> <Gold.PLP.PLP>
-41.2207

> <Gold.PLP.part.hbond>
-3.3524

> <Gold.PLP.part.metal>
0.0000

> <Gold.PLP.part.buried>
-0.7647

> <Gold.PLP.part.nonpolar>
-36.6566

> <Gold.PLP.part.repulsive>
0.1851

> <Gold.PLP.ligand.clash>
0.0000

> <Gold.PLP.ligand.torsion>
1.5759

> <Gold.PLP.Chemscore.Hbond>
3.1417

> <Gold.PLP.Chemscore.CHOScore>
0.0000

> <Gold.PLP.Chemscore.Metal>
0.0000

> <Gold.Chemscore.Hbonds>
donor molecule, donor type, donor heavy atom, donor atom, acceptor molecule, acceptor atom, score
      L1  H     4    27       P1  8028  1.00
      P1  H  7989  7998       L1    23  0.13
      P1  H  7997  8010       L1    13  0.90
      P1  H 10752 10763       L1    17  1.00

> <Gold.PLP.Chemscore.Internal.Correction>
1.8654

> <Gold.Rescore>
     Score         DG    S(hbond)    S(metal)    S(lipo)     H(rot)  DE(clash)    DE(int)     intcor
     16.45     -20.47       2.51        0.00      90.63       1.56       0.23       3.79       ----

> <Gold.Chemscore.Fitness>
16.4477

> <Gold.Chemscore.DG>
-20.4677

> <Gold.Chemscore.ZeroCoef>
-5.4800

> <Gold.Chemscore.Hbond>
2.5066

> <Gold.Chemscore.Metal>
0.0000

> <Gold.Chemscore.Lipo>
90.6279

> <Gold.Chemscore.Internal_Hbond>
0.0000

> <Gold.Chemscore.DEClash>
0.2340

> <Gold.Chemscore.DEInternal>
3.7860

> <Gold.Chemscore.Rot>
1.5577

> <Gold.Chemscore.Internal.Correction>
   9.000000E+99

> <Gold.Chemscore.Hbonds>
donor molecule, donor type, donor heavy atom, donor atom, acceptor molecule, acceptor atom, score
      L1  H     4    27       P1  8028  0.97
      P1  H  7997  8010       L1    13  0.17
      P1  H 10752 10763       L1    17  0.99

> <Gold.Chemscore.Hbond.Weighted>
-8.3720

> <Gold.Chemscore.Metal.Weighted>
-0.0000

> <Gold.Chemscore.Lipo.Weighted>
-10.6035

> <Gold.Chemscore.Internal_Hbond.Weighted>
0.0000

> <Gold.Chemscore.DEClash.Weighted>
0.2340

> <Gold.Chemscore.DEInternal.Weighted>
3.7860

> <Gold.Chemscore.Rot.Weighted>
3.9877

> <Gold.Chemscore.Internal.Correction.Weighted>
   9.000000E+99

> <Gold.Protein.RotatedTorsions>
[ 6907 6896 6895 6894 ] final   92.57 input  -60.11 | X-H torsion
[ 7974 7965 7964 7962 ] final   26.41 input  175.53 | X-H torsion
[ 8008 7997 7996 7995 ] final   16.55 input   59.86 | X-H torsion
[ 10167 10162 10161 10158 ] final  -49.83 input  -65.29 | X-H torsion
[ 10718 10713 10712 10709 ] final  137.68 input   66.30 | X-H torsion
[ 10763 10752 10751 10750 ] final  101.67 input  -60.55 | X-H torsion
[ 11005 11000 10999 10996 ] final  -75.12 input  -57.11 | X-H torsion

> <Gold.Protein.ActiveResidues>
 VAL166  LYS551  ARG553  GLY616  TRP617  ASP618  TYR619  PRO620  LYS621  CYS622 
 ASP623  PHE694  ASN695  SER759  ASP760  ASP761  ALA762  ILE779  LEU786  VAL792 
 PHE793  MET794  SER795  GLU796  ALA797  LYS798  CYS799  TRP800  GLU811  SER814 

> <Gold.Protein.RotatedAtoms>
  152.5453  134.1482  159.8506 H   0  0  0  0  0  0  0  0  0  0  0  0  # atno 6907 bound_to 6896
  151.1511  133.4900  159.2602 H   0  0  0  0  0  0  0  0  0  0  0  0  # atno 6908 bound_to 6896
  151.1471  135.0219  159.8706 H   0  0  0  0  0  0  0  0  0  0  0  0  # atno 6909 bound_to 6896
  146.1839  139.7332  142.8881 H   0  0  0  0  0  0  0  0  0  0  0  0  # atno 7974 bound_to 7965
  154.8786  140.2969  155.5438 H   0  0  0  0  0  0  0  0  0  0  0  0  # atno 8008 bound_to 7997
  156.3022  140.2446  156.3719 H   0  0  0  0  0  0  0  0  0  0  0  0  # atno 8009 bound_to 7997
  154.8741  140.0400  157.1731 H   0  0  0  0  0  0  0  0  0  0  0  0  # atno 8010 bound_to 7997
  140.6667  143.2682  151.4271 H   0  0  0  0  0  0  0  0  0  0  0  0  # atno 10167 bound_to 10162
  157.4335  131.1051  151.0224 H   0  0  0  0  0  0  0  0  0  0  0  0  # atno 10718 bound_to 10713
  153.3296  135.4037  155.1484 H   0  0  0  0  0  0  0  0  0  0  0  0  # atno 10763 bound_to 10752
  154.8620  135.3607  154.5488 H   0  0  0  0  0  0  0  0  0  0  0  0  # atno 10764 bound_to 10752
  153.5926  135.7073  153.5476 H   0  0  0  0  0  0  0  0  0  0  0  0  # atno 10765 bound_to 10752
  141.1642  133.6935  156.7469 H   0  0  0  0  0  0  0  0  0  0  0  0  # atno 11005 bound_to 11000
  145.3997  141.0383  143.3077 LP  0  0  0  0  0  0  0  0  0  0  0  0  # atno 17320 bound_to 7965
  144.8362  139.5546  143.6921 LP  0  0  0  0  0  0  0  0  0  0  0  0  # atno 17321 bound_to 7965
  139.5918  144.1483  152.2097 LP  0  0  0  0  0  0  0  0  0  0  0  0  # atno 17342 bound_to 10162
  140.0839  144.5677  150.7102 LP  0  0  0  0  0  0  0  0  0  0  0  0  # atno 17343 bound_to 10162
  157.1112  130.6022  149.5482 LP  0  0  0  0  0  0  0  0  0  0  0  0  # atno 17370 bound_to 10713
  155.9922  130.4979  150.7329 LP  0  0  0  0  0  0  0  0  0  0  0  0  # atno 17371 bound_to 10713
  140.2633  134.8450  157.3779 LP  0  0  0  0  0  0  0  0  0  0  0  0  # atno 17394 bound_to 11000
  140.1591  134.4752  155.7907 LP  0  0  0  0  0  0  0  0  0  0  0  0  # atno 17395 bound_to 11000

$$$$
