AV-unprocessed.smi:1803|AV-procd|sdf|7294|dock9
  -GOLD-   22720 8553D 1   1.00000     0.00000
 Structure written by MMmdl.
 35 37  0  0  0  0  0  0  0  0  3 V2000
  147.7504  132.2322  153.7957 O   0  0  0  0  0  0  0  0  0  0  0  0
  148.3986  133.2385  153.5121 C   0  0  0  0  0  0  0  0  0  0  0  0
  149.6963  133.4185  153.8716 N   0  5  0  0  0  0  0  0  0  0  0  0
  150.2394  132.8243  154.9504 C   0  0  0  0  0  0  0  0  0  0  0  0
  150.5302  133.4979  156.0750 N   0  0  0  0  0  0  0  0  0  0  0  0
  151.0920  132.6977  157.0603 N   0  0  0  0  0  0  0  0  0  0  0  0
  151.1963  131.4316  156.6575 C   0  0  0  0  0  0  0  0  0  0  0  0
  150.6291  131.1043  155.0337 S   0  0  0  0  0  0  0  0  0  0  0  0
  147.8011  134.2196  152.8103 N   0  0  0  0  0  0  0  0  0  0  0  0
  146.4261  134.2077  152.3262 C   0  0  1  0  0  0  0  0  0  0  0  0
  145.7227  135.5719  152.4059 C   0  0  0  0  0  0  0  0  0  0  0  0
  144.8899  135.6773  151.1133 C   0  0  0  0  0  0  0  0  0  0  0  0
  145.0398  134.3860  150.4036 N   0  3  2  0  0  0  0  0  0  0  0  0
  143.9006  133.4652  150.6695 C   0  0  0  0  0  0  0  0  0  0  0  0
  144.1636  132.0511  150.1354 C   0  0  0  0  0  0  0  0  0  0  0  0
  145.4393  131.4793  150.7589 C   0  0  0  0  0  0  0  0  0  0  0  0
  146.6211  132.4023  150.4426 C   0  0  0  0  0  0  0  0  0  0  0  0
  146.3631  133.8747  150.8338 C   0  0  2  0  0  0  0  0  0  0  0  0
  151.6112  130.6866  157.3199 H   0  0  0  0  0  0  0  0  0  0  0  0
  148.3530  135.0380  152.5980 H   0  0  0  0  0  0  0  0  0  0  0  0
  145.8488  133.4711  152.8875 H   0  0  0  0  0  0  0  0  0  0  0  0
  145.0971  135.6341  153.2969 H   0  0  0  0  0  0  0  0  0  0  0  0
  146.4412  136.3917  152.4529 H   0  0  0  0  0  0  0  0  0  0  0  0
  143.8466  135.9306  151.3078 H   0  0  0  0  0  0  0  0  0  0  0  0
  145.2996  136.4645  150.4794 H   0  0  0  0  0  0  0  0  0  0  0  0
  143.7055  133.4153  151.7420 H   0  0  0  0  0  0  0  0  0  0  0  0
  143.0005  133.8735  150.2087 H   0  0  0  0  0  0  0  0  0  0  0  0
  143.3162  131.4040  150.3637 H   0  0  0  0  0  0  0  0  0  0  0  0
  144.2553  132.0730  149.0486 H   0  0  0  0  0  0  0  0  0  0  0  0
  145.3170  131.3780  151.8378 H   0  0  0  0  0  0  0  0  0  0  0  0
  145.6324  130.4782  150.3723 H   0  0  0  0  0  0  0  0  0  0  0  0
  147.5256  132.0359  150.9295 H   0  0  0  0  0  0  0  0  0  0  0  0
  146.8182  132.3555  149.3709 H   0  0  0  0  0  0  0  0  0  0  0  0
  147.1123  134.4851  150.3248 H   0  0  0  0  0  0  0  0  0  0  0  0
  145.0655  134.5521  149.4078 H   0  0  0  0  0  0  0  0  0  0  0  0
  1  2  2  0  0  0  0
  2  3  1  0  0  0  0
  2  9  1  0  0  0  0
  3  4  1  0  0  0  0
  4  8  1  0  0  0  0
  4  5  2  0  0  0  0
  5  6  1  0  0  0  0
  6  7  2  0  0  0  0
  7  8  1  0  0  0  0
  7 19  1  0  0  0  0
  9 10  1  0  0  0  0
  9 20  1  0  0  0  0
 10 18  1  0  0  0  0
 10 11  1  0  0  0  0
 10 21  1  0  0  0  0
 11 12  1  0  0  0  0
 11 22  1  0  0  0  0
 11 23  1  0  0  0  0
 12 13  1  0  0  0  0
 12 24  1  0  0  0  0
 12 25  1  0  0  0  0
 13 18  1  0  0  0  0
 13 14  1  0  0  0  0
 13 35  1  0  0  0  0
 14 15  1  0  0  0  0
 14 26  1  0  0  0  0
 14 27  1  0  0  0  0
 15 16  1  0  0  0  0
 15 28  1  0  0  0  0
 15 29  1  0  0  0  0
 16 17  1  0  0  0  0
 16 30  1  0  0  0  0
 16 31  1  0  0  0  0
 17 18  1  0  0  0  0
 17 32  1  0  0  0  0
 17 33  1  0  0  0  0
 18 34  1  0  0  0  0
M  CHG  1   3  -1
M  CHG  1  13   1
M  END
> <s_m_source_file>
AV-unprocessed.smi

> <i_m_source_file_index>
1803

> <i_lp_mmshare_version>
43012

> <i_f3d_flags>
0

> <s_epik_input>
czFbY0hdbm5jMVtOSF1DKD1PKVtOSF1bQ0BIXShbQ0gyXVtDSDJdMilbQ0BASF0oTjIzKVtDSDJdW0NIMl1bQ0gyXVtDSDJdMw==

> <s_epik_cmdline>
J2VwaWtfcHl0aG9uJywgJy1waCcsICc3LjAnLCAnLXRuJywgJzgnLCAnLW1hJywgJzIwMCcsICctbWV0YWxfYmluZGluZycsICctaW1hZScsICc8aW5maWxlLm1hZT4nLCAnLW9tYWUnLCAnPG91dGZpbGUubWFlPic=

> <r_lp_tautomer_probability>
1

> <r_epik_Ionization_Penalty>
3.78828

> <r_epik_Ionization_Penalty_Charging>
3.7591

> <r_epik_Ionization_Penalty_Neutral>
0.0291838

> <r_epik_State_Penalty>
3.757

> <r_epik_Charging_Adjusted_Penalty>
7.51609

> <i_epik_Tot_Q>
0

> <i_epik_Tot_abs_Q>
2

> <r_epik_Metal_State_Penalty>
0.558016

> <b_epik_Metal_Only>
1

> <s_lp_Force_Field>
OPLS_2005

> <r_lp_Energy>
31.4395

> <b_lp_Chiralities_Consistent>
1

> <s_lp_Variant>
AV-unprocessed.smi:1803-16

> <Gold.Version>
5.8.1

> <Gold.Id.Protein>
6NUR|6NUR_protein|mol2

> <Gold.PLP.Fitness>
36.2647

> <Gold.PLP.PLP>
-29.4904

> <Gold.PLP.part.hbond>
-2.9744

> <Gold.PLP.part.metal>
0.0000

> <Gold.PLP.part.buried>
-1.3083

> <Gold.PLP.part.nonpolar>
-25.8877

> <Gold.PLP.part.repulsive>
0.2604

> <Gold.PLP.ligand.clash>
0.0000

> <Gold.PLP.ligand.torsion>
1.1176

> <Gold.PLP.Chemscore.Hbond>
3.0000

> <Gold.PLP.Chemscore.CHOScore>
0.0000

> <Gold.PLP.Chemscore.Metal>
0.0000

> <Gold.Chemscore.Hbonds>
donor molecule, donor type, donor heavy atom, donor atom, acceptor molecule, acceptor atom, score
      L1  H     9    20       P1  7948  0.89
      L1  H    13    35       P1  7921  0.86
      P1  H  6896  6909       L1     6  0.42

> <Gold.PLP.Chemscore.Internal.Correction>
0.0095

> <Gold.Rescore>
     Score         DG    S(hbond)    S(metal)    S(lipo)     H(rot)  DE(clash)    DE(int)     intcor
     18.09     -20.51       2.83        0.00      69.63       1.00       1.48       0.94       ----

> <Gold.Chemscore.Fitness>
18.0929

> <Gold.Chemscore.DG>
-20.5148

> <Gold.Chemscore.ZeroCoef>
-5.4800

> <Gold.Chemscore.Hbond>
2.8288

> <Gold.Chemscore.Metal>
0.0000

> <Gold.Chemscore.Lipo>
69.6307

> <Gold.Chemscore.Internal_Hbond>
0.0000

> <Gold.Chemscore.DEClash>
1.4796

> <Gold.Chemscore.DEInternal>
0.9423

> <Gold.Chemscore.Rot>
1.0000

> <Gold.Chemscore.Internal.Correction>
   9.000000E+99

> <Gold.Chemscore.Hbonds>
donor molecule, donor type, donor heavy atom, donor atom, acceptor molecule, acceptor atom, score
      L1  H     9    20       P1  7948  0.57
      L1  H    13    35       P1  7921  0.80
      P1  H  6896  6909       L1     6  0.41

> <Gold.Chemscore.Hbond.Weighted>
-9.4480

> <Gold.Chemscore.Metal.Weighted>
-0.0000

> <Gold.Chemscore.Lipo.Weighted>
-8.1468

> <Gold.Chemscore.Internal_Hbond.Weighted>
0.0000

> <Gold.Chemscore.DEClash.Weighted>
1.4796

> <Gold.Chemscore.DEInternal.Weighted>
0.9423

> <Gold.Chemscore.Rot.Weighted>
2.5600

> <Gold.Chemscore.Internal.Correction.Weighted>
   9.000000E+99

> <Gold.Protein.RotatedTorsions>
[ 6907 6896 6895 6894 ] final  -38.93 input  -60.11 | X-H torsion
[ 7974 7965 7964 7962 ] final -121.49 input  175.53 | X-H torsion
[ 8008 7997 7996 7995 ] final  -13.39 input   59.86 | X-H torsion
[ 10167 10162 10161 10158 ] final -106.38 input  -65.29 | X-H torsion
[ 10718 10713 10712 10709 ] final  139.74 input   66.30 | X-H torsion
[ 10763 10752 10751 10750 ] final    2.39 input  -60.55 | X-H torsion
[ 11005 11000 10999 10996 ] final  -63.81 input  -57.11 | X-H torsion

> <Gold.Protein.ActiveResidues>
 VAL166  LYS551  ARG553  GLY616  TRP617  ASP618  TYR619  PRO620  LYS621  CYS622 
 ASP623  PHE694  ASN695  SER759  ASP760  ASP761  ALA762  ILE779  LEU786  VAL792 
 PHE793  MET794  SER795  GLU796  ALA797  LYS798  CYS799  TRP800  GLU811  SER814 

> <Gold.Protein.RotatedAtoms>
  150.9965  134.9288  159.7929 H   0  0  0  0  0  0  0  0  0  0  0  0  # atno 6907 bound_to 6896
  152.5266  134.3211  159.9158 H   0  0  0  0  0  0  0  0  0  0  0  0  # atno 6908 bound_to 6896
  151.3217  133.3996  159.2689 H   0  0  0  0  0  0  0  0  0  0  0  0  # atno 6909 bound_to 6896
  145.0398  140.8135  143.4273 H   0  0  0  0  0  0  0  0  0  0  0  0  # atno 7974 bound_to 7965
  154.5296  140.2251  155.8828 H   0  0  0  0  0  0  0  0  0  0  0  0  # atno 8008 bound_to 7997
  156.1750  140.3113  155.9006 H   0  0  0  0  0  0  0  0  0  0  0  0  # atno 8009 bound_to 7997
  155.3479  140.0454  157.3036 H   0  0  0  0  0  0  0  0  0  0  0  0  # atno 8010 bound_to 7997
  140.1884  143.3911  152.1226 H   0  0  0  0  0  0  0  0  0  0  0  0  # atno 10167 bound_to 10162
  157.4110  131.1028  151.0454 H   0  0  0  0  0  0  0  0  0  0  0  0  # atno 10718 bound_to 10713
  153.2962  135.6952  153.7246 H   0  0  0  0  0  0  0  0  0  0  0  0  # atno 10763 bound_to 10752
  153.6178  135.3433  155.3001 H   0  0  0  0  0  0  0  0  0  0  0  0  # atno 10764 bound_to 10752
  154.8538  135.4379  154.2060 H   0  0  0  0  0  0  0  0  0  0  0  0  # atno 10765 bound_to 10752
  141.1405  133.6657  156.5737 H   0  0  0  0  0  0  0  0  0  0  0  0  # atno 11005 bound_to 11000
  145.1663  139.2430  143.5365 LP  0  0  0  0  0  0  0  0  0  0  0  0  # atno 17320 bound_to 7965
  146.3508  140.1402  142.8595 LP  0  0  0  0  0  0  0  0  0  0  0  0  # atno 17321 bound_to 7965
  139.5266  144.7110  151.5207 LP  0  0  0  0  0  0  0  0  0  0  0  0  # atno 17342 bound_to 10162
  140.6472  143.8770  150.6749 LP  0  0  0  0  0  0  0  0  0  0  0  0  # atno 17343 bound_to 10162
  157.1418  130.6146  149.5557 LP  0  0  0  0  0  0  0  0  0  0  0  0  # atno 17370 bound_to 10713
  155.9851  130.4879  150.7014 LP  0  0  0  0  0  0  0  0  0  0  0  0  # atno 17371 bound_to 10713
  140.3892  134.7455  157.4711 LP  0  0  0  0  0  0  0  0  0  0  0  0  # atno 17394 bound_to 11000
  140.0579  134.6038  155.8784 LP  0  0  0  0  0  0  0  0  0  0  0  0  # atno 17395 bound_to 11000

$$$$
