AV-unprocessed.smi:2662|AV-procd|sdf|10321|dock3
  -GOLD-   2272014333D 1   1.00000     0.00000
 Structure written by MMmdl.
 37 39  0  0  0  0  0  0  0  0  2 V2000
  152.2788  137.2294  153.7963 O   0  0  0  0  0  0  0  0  0  0  0  0
  151.6103  137.7251  154.9341 C   0  0  0  0  0  0  0  0  0  0  0  0
  150.4847  138.6393  154.5772 C   0  0  0  0  0  0  0  0  0  0  0  0
  149.4249  138.3183  153.7824 N   0  3  0  0  0  0  0  0  0  0  0  0
  148.5658  139.4123  153.6738 C   0  0  0  0  0  0  0  0  0  0  0  0
  147.3698  139.5675  152.9797 C   0  0  0  0  0  0  0  0  0  0  0  0
  146.7384  140.8247  153.0804 C   0  0  0  0  0  0  0  0  0  0  0  0
  147.2966  141.8675  153.8483 C   0  0  0  0  0  0  0  0  0  0  0  0
  148.5096  141.6981  154.5479 C   0  0  0  0  0  0  0  0  0  0  0  0
  149.1274  140.4522  154.4423 C   0  0  0  0  0  0  0  0  0  0  0  0
  150.3077  139.9309  154.9833 N   0  0  0  0  0  0  0  0  0  0  0  0
  151.1310  140.7886  155.8509 C   0  0  0  0  0  0  0  0  0  0  0  0
  150.3314  141.4216  157.0073 C   0  0  1  0  0  0  0  0  0  0  0  0
  149.5308  140.4355  157.6306 O   0  0  0  0  0  0  0  0  0  0  0  0
  151.2552  142.1305  157.9879 C   0  0  0  0  0  0  0  0  0  0  0  0
  151.1459  143.5240  158.1968 C   0  0  0  0  0  0  0  0  0  0  0  0
  151.9951  144.1758  159.1118 C   0  0  0  0  0  0  0  0  0  0  0  0
  151.8840  145.5113  159.3049 F   0  0  0  0  0  0  0  0  0  0  0  0
  152.9576  143.4389  159.8271 C   0  0  0  0  0  0  0  0  0  0  0  0
  153.0673  142.0493  159.6302 C   0  0  0  0  0  0  0  0  0  0  0  0
  152.2178  141.3950  158.7164 C   0  0  0  0  0  0  0  0  0  0  0  0
  152.3293  140.0553  158.5471 F   0  0  0  0  0  0  0  0  0  0  0  0
  151.6317  137.0089  153.1425 H   0  0  0  0  0  0  0  0  0  0  0  0
  151.2381  136.8904  155.5274 H   0  0  0  0  0  0  0  0  0  0  0  0
  152.3269  138.2620  155.5561 H   0  0  0  0  0  0  0  0  0  0  0  0
  146.9401  138.7700  152.3914 H   0  0  0  0  0  0  0  0  0  0  0  0
  145.8073  140.9926  152.5584 H   0  0  0  0  0  0  0  0  0  0  0  0
  146.7838  142.8170  153.9026 H   0  0  0  0  0  0  0  0  0  0  0  0
  148.9281  142.5026  155.1346 H   0  0  0  0  0  0  0  0  0  0  0  0
  151.9523  140.1875  156.2417 H   0  0  0  0  0  0  0  0  0  0  0  0
  151.5893  141.5593  155.2298 H   0  0  0  0  0  0  0  0  0  0  0  0
  149.6363  142.1558  156.5997 H   0  0  0  0  0  0  0  0  0  0  0  0
  149.0992  139.9314  156.9572 H   0  0  0  0  0  0  0  0  0  0  0  0
  150.4071  144.0997  157.6586 H   0  0  0  0  0  0  0  0  0  0  0  0
  153.6093  143.9384  160.5288 H   0  0  0  0  0  0  0  0  0  0  0  0
  153.8026  141.4836  160.1831 H   0  0  0  0  0  0  0  0  0  0  0  0
  149.3003  137.4123  153.3491 H   0  0  0  0  0  0  0  0  0  0  0  0
  1  2  1  0  0  0  0
  1 23  1  0  0  0  0
  2  3  1  0  0  0  0
  2 24  1  0  0  0  0
  2 25  1  0  0  0  0
  3 11  1  0  0  0  0
  3  4  2  0  0  0  0
  4  5  1  0  0  0  0
  4 37  1  0  0  0  0
  5 10  2  0  0  0  0
  5  6  1  0  0  0  0
  6  7  2  0  0  0  0
  6 26  1  0  0  0  0
  7  8  1  0  0  0  0
  7 27  1  0  0  0  0
  8  9  2  0  0  0  0
  8 28  1  0  0  0  0
  9 10  1  0  0  0  0
  9 29  1  0  0  0  0
 10 11  1  0  0  0  0
 11 12  1  0  0  0  0
 12 13  1  0  0  0  0
 12 30  1  0  0  0  0
 12 31  1  0  0  0  0
 13 14  1  0  0  0  0
 13 15  1  0  0  0  0
 13 32  1  0  0  0  0
 14 33  1  0  0  0  0
 15 21  1  0  0  0  0
 15 16  2  0  0  0  0
 16 17  1  0  0  0  0
 16 34  1  0  0  0  0
 17 18  1  0  0  0  0
 17 19  2  0  0  0  0
 19 20  1  0  0  0  0
 19 35  1  0  0  0  0
 20 21  2  0  0  0  0
 20 36  1  0  0  0  0
 21 22  1  0  0  0  0
M  CHG  1   4   1
M  END
> <s_m_source_file>
AV-unprocessed.smi

> <i_m_source_file_index>
2662

> <i_lp_mmshare_version>
43012

> <i_f3d_flags>
0

> <s_epik_input>
W2NIXTFbY0hdW2NIXVtjSF1jKGMxMiluKGMobjIpW0NIMl1bT0hdKVtDSDJdW0NASF0oW09IXSljM1tjSF1jKEYpW2NIXVtjSF1jM0Y=

> <s_epik_cmdline>
J2VwaWtfcHl0aG9uJywgJy1waCcsICc3LjAnLCAnLXRuJywgJzgnLCAnLW1hJywgJzIwMCcsICctbWV0YWxfYmluZGluZycsICctaW1hZScsICc8aW5maWxlLm1hZT4nLCAnLW9tYWUnLCAnPG91dGZpbGUubWFlPic=

> <r_epik_Ionization_Penalty>
1.35643

> <r_epik_Ionization_Penalty_Charging>
1.35557

> <r_epik_Ionization_Penalty_Neutral>
0.000859316

> <r_epik_State_Penalty>
1.43401

> <r_epik_Charging_Adjusted_Penalty>
2.78958

> <i_epik_Tot_Q>
1

> <i_epik_Tot_abs_Q>
1

> <r_epik_Metal_State_Penalty>
5.47166

> <b_epik_Metal_Only>
0

> <s_lp_Force_Field>
OPLS_2005

> <r_lp_Energy>
14.5083

> <b_lp_Chiralities_Consistent>
1

> <s_lp_Variant>
AV-unprocessed.smi:2662-4

> <Gold.Version>
5.8.1

> <Gold.Id.Protein>
6NUR|6NUR_protein|mol2

> <Gold.PLP.Fitness>
65.3952

> <Gold.PLP.PLP>
-53.8791

> <Gold.PLP.part.hbond>
-3.5701

> <Gold.PLP.part.metal>
0.0000

> <Gold.PLP.part.buried>
0.6248

> <Gold.PLP.part.nonpolar>
-50.8225

> <Gold.PLP.part.repulsive>
0.0471

> <Gold.PLP.ligand.clash>
0.0000

> <Gold.PLP.ligand.torsion>
0.1349

> <Gold.PLP.Chemscore.Hbond>
3.9200

> <Gold.PLP.Chemscore.CHOScore>
0.0000

> <Gold.PLP.Chemscore.Metal>
0.0000

> <Gold.Chemscore.Hbonds>
donor molecule, donor type, donor heavy atom, donor atom, acceptor molecule, acceptor atom, score
      L1  H     1    23       P1  7949  0.96
      L1  H     4    37       P1  7948  2.00
      P1  H 10752 10765       L1     1  0.94

> <Gold.PLP.Chemscore.Internal.Correction>
0.0259

> <Gold.Rescore>
     Score         DG    S(hbond)    S(metal)    S(lipo)     H(rot)  DE(clash)    DE(int)     intcor
     17.35     -20.72       2.36        0.00     127.30       2.95       1.44       1.92       ----

> <Gold.Chemscore.Fitness>
17.3513

> <Gold.Chemscore.DG>
-20.7186

> <Gold.Chemscore.ZeroCoef>
-5.4800

> <Gold.Chemscore.Hbond>
2.3623

> <Gold.Chemscore.Metal>
0.0000

> <Gold.Chemscore.Lipo>
127.3004

> <Gold.Chemscore.Internal_Hbond>
0.0000

> <Gold.Chemscore.DEClash>
1.4430

> <Gold.Chemscore.DEInternal>
1.9242

> <Gold.Chemscore.Rot>
2.9475

> <Gold.Chemscore.Internal.Correction>
   9.000000E+99

> <Gold.Chemscore.Hbonds>
donor molecule, donor type, donor heavy atom, donor atom, acceptor molecule, acceptor atom, score
      L1  H     1    23       P1  7949  0.85
      L1  H     4    37       P1  7948  0.95
      P1  H 10752 10765       L1     1  0.24

> <Gold.Chemscore.Hbond.Weighted>
-7.8901

> <Gold.Chemscore.Metal.Weighted>
-0.0000

> <Gold.Chemscore.Lipo.Weighted>
-14.8941

> <Gold.Chemscore.Internal_Hbond.Weighted>
0.0000

> <Gold.Chemscore.DEClash.Weighted>
1.4430

> <Gold.Chemscore.DEInternal.Weighted>
1.9242

> <Gold.Chemscore.Rot.Weighted>
7.5457

> <Gold.Chemscore.Internal.Correction.Weighted>
   9.000000E+99

> <Gold.Protein.RotatedTorsions>
[ 6907 6896 6895 6894 ] final -102.71 input  -60.11 | X-H torsion
[ 7974 7965 7964 7962 ] final  -52.94 input  175.53 | X-H torsion
[ 8008 7997 7996 7995 ] final  -58.46 input   59.86 | X-H torsion
[ 10167 10162 10161 10158 ] final  -89.31 input  -65.29 | X-H torsion
[ 10718 10713 10712 10709 ] final -143.91 input   66.30 | X-H torsion
[ 10763 10752 10751 10750 ] final  147.48 input  -60.55 | X-H torsion
[ 11005 11000 10999 10996 ] final  -96.94 input  -57.11 | X-H torsion

> <Gold.Protein.ActiveResidues>
 VAL166  LYS551  ARG553  GLY616  TRP617  ASP618  TYR619  PRO620  LYS621  CYS622 
 ASP623  PHE694  ASN695  SER759  ASP760  ASP761  ALA762  ILE779  LEU786  VAL792 
 PHE793  MET794  SER795  GLU796  ALA797  LYS798  CYS799  TRP800  GLU811  SER814 

> <Gold.Protein.RotatedAtoms>
  150.7208  134.0540  159.3807 H   0  0  0  0  0  0  0  0  0  0  0  0  # atno 6907 bound_to 6896
  151.8517  135.0553  160.0469 H   0  0  0  0  0  0  0  0  0  0  0  0  # atno 6908 bound_to 6896
  152.2785  133.5412  159.5519 H   0  0  0  0  0  0  0  0  0  0  0  0  # atno 6909 bound_to 6896
  145.9024  140.7983  142.9736 H   0  0  0  0  0  0  0  0  0  0  0  0  # atno 7974 bound_to 7965
  154.4310  140.1084  156.5960 H   0  0  0  0  0  0  0  0  0  0  0  0  # atno 8008 bound_to 7997
  155.5962  140.3492  155.4562 H   0  0  0  0  0  0  0  0  0  0  0  0  # atno 8009 bound_to 7997
  156.0209  140.1239  157.0348 H   0  0  0  0  0  0  0  0  0  0  0  0  # atno 8010 bound_to 7997
  140.3660  143.2818  151.9557 H   0  0  0  0  0  0  0  0  0  0  0  0  # atno 10167 bound_to 10162
  156.3637  130.7752  151.1923 H   0  0  0  0  0  0  0  0  0  0  0  0  # atno 10718 bound_to 10713
  154.0390  135.2891  155.3357 H   0  0  0  0  0  0  0  0  0  0  0  0  # atno 10763 bound_to 10752
  154.6941  135.5215  153.8436 H   0  0  0  0  0  0  0  0  0  0  0  0  # atno 10764 bound_to 10752
  153.0608  135.6613  154.0596 H   0  0  0  0  0  0  0  0  0  0  0  0  # atno 10765 bound_to 10752
  141.1395  133.8134  157.0639 H   0  0  0  0  0  0  0  0  0  0  0  0  # atno 11005 bound_to 11000
  144.6737  140.1698  143.7415 LP  0  0  0  0  0  0  0  0  0  0  0  0  # atno 17320 bound_to 7965
  145.8774  139.2304  143.1625 LP  0  0  0  0  0  0  0  0  0  0  0  0  # atno 17321 bound_to 7965
  139.4809  144.5950  151.7706 LP  0  0  0  0  0  0  0  0  0  0  0  0  # atno 17342 bound_to 10162
  140.5080  144.1068  150.5987 LP  0  0  0  0  0  0  0  0  0  0  0  0  # atno 17343 bound_to 10162
  157.7476  131.0392  150.4541 LP  0  0  0  0  0  0  0  0  0  0  0  0  # atno 17370 bound_to 10713
  156.4756  130.4062  149.6492 LP  0  0  0  0  0  0  0  0  0  0  0  0  # atno 17371 bound_to 10713
  140.0554  134.9783  157.1211 LP  0  0  0  0  0  0  0  0  0  0  0  0  # atno 17394 bound_to 11000
  140.3927  134.2167  155.7165 LP  0  0  0  0  0  0  0  0  0  0  0  0  # atno 17395 bound_to 11000

$$$$
