AV-unprocessed.smi:155|AV-procd|sdf|1281|dock4
  -GOLD-   2262018553D 1   1.00000     0.00000
 Structure written by MMmdl.
 64 67  0  0  0  0  0  0  0  0  3 V2000
  146.0565  133.7365  150.1402 C   0  0  0  0  0  0  0  0  0  0  0  0
  145.4662  133.5750  151.4897 N   0  3  0  0  0  0  0  0  0  0  0  0
  144.4052  134.5778  151.7347 C   0  0  0  0  0  0  0  0  0  0  0  0
  146.4787  133.5531  152.5772 C   0  0  0  0  0  0  0  0  0  0  0  0
  147.4270  134.7716  152.5337 C   0  0  0  0  0  0  0  0  0  0  0  0
  148.5070  134.7054  153.5560 N   0  3  2  0  0  0  0  0  0  0  0  0
  149.2443  133.4124  153.5331 C   0  0  0  0  0  0  0  0  0  0  0  0
  150.7589  133.6465  153.6730 C   0  0  0  0  0  0  0  0  0  0  0  0
  151.1986  134.0553  155.0890 C   0  0  0  0  0  0  0  0  0  0  0  0
  150.4874  135.2327  155.5819 N   0  0  0  0  0  0  0  0  0  0  0  0
  150.8706  136.5028  155.2464 C   0  0  0  0  0  0  0  0  0  0  0  0
  151.8875  136.6407  154.3522 N   0  0  0  0  0  0  0  0  0  0  0  0
  152.3233  137.8457  153.9784 C   0  0  0  0  0  0  0  0  0  0  0  0
  151.8942  139.0429  154.3725 N   0  0  0  0  0  0  0  0  0  0  0  0
  150.8730  138.9280  155.2665 C   0  0  0  0  0  0  0  0  0  0  0  0
  150.3024  137.7145  155.7559 C   0  0  0  0  0  0  0  0  0  0  0  0
  149.2889  138.0251  156.6585 N   0  0  0  0  0  0  0  0  0  0  0  0
  149.2583  139.3282  156.6941 C   0  0  0  0  0  0  0  0  0  0  0  0
  150.1774  139.9506  155.8849 N   0  0  0  0  0  0  0  0  0  0  0  0
  150.3676  141.3814  155.7241 C   0  0  0  0  0  0  0  0  0  0  0  0
  150.7243  142.0774  157.0546 C   0  0  1  0  0  0  0  0  0  0  0  0
  149.6396  142.8609  157.5126 O   0  0  0  0  0  0  0  0  0  0  0  0
  151.1555  141.1156  158.1811 C   0  0  2  0  0  0  0  0  0  0  0  0
  151.9187  141.7880  159.3226 C   0  0  0  0  0  0  0  0  0  0  0  0
  152.6386  140.6100  159.9382 C   0  0  0  0  0  0  0  0  0  0  0  0
  153.0109  139.7874  158.7074 C   0  0  0  0  0  0  0  0  0  0  0  0
  152.0460  140.1075  157.7076 O   0  0  0  0  0  0  0  0  0  0  0  0
  149.1140  134.9892  156.0328 C   0  0  0  0  0  0  0  0  0  0  0  0
  148.0504  135.1108  154.9171 C   0  0  0  0  0  0  0  0  0  0  0  0
  146.5889  134.6849  150.0574 H   0  0  0  0  0  0  0  0  0  0  0  0
  145.2773  133.7204  149.3775 H   0  0  0  0  0  0  0  0  0  0  0  0
  146.7530  132.9331  149.9041 H   0  0  0  0  0  0  0  0  0  0  0  0
  144.8179  135.5876  151.7518 H   0  0  0  0  0  0  0  0  0  0  0  0
  143.9076  134.3945  152.6877 H   0  0  0  0  0  0  0  0  0  0  0  0
  143.6437  134.5336  150.9549 H   0  0  0  0  0  0  0  0  0  0  0  0
  145.9753  133.4865  153.5434 H   0  0  0  0  0  0  0  0  0  0  0  0
  147.0721  132.6443  152.4744 H   0  0  0  0  0  0  0  0  0  0  0  0
  147.8627  134.8857  151.5400 H   0  0  0  0  0  0  0  0  0  0  0  0
  146.8411  135.6708  152.7199 H   0  0  0  0  0  0  0  0  0  0  0  0
  148.8693  132.7305  154.2979 H   0  0  0  0  0  0  0  0  0  0  0  0
  149.0853  132.9012  152.5832 H   0  0  0  0  0  0  0  0  0  0  0  0
  151.2832  132.7277  153.4079 H   0  0  0  0  0  0  0  0  0  0  0  0
  151.0809  134.3919  152.9453 H   0  0  0  0  0  0  0  0  0  0  0  0
  150.9981  133.2267  155.7690 H   0  0  0  0  0  0  0  0  0  0  0  0
  152.2765  134.1927  155.1471 H   0  0  0  0  0  0  0  0  0  0  0  0
  153.1322  137.8511  153.2626 H   0  0  0  0  0  0  0  0  0  0  0  0
  148.5594  139.8736  157.3120 H   0  0  0  0  0  0  0  0  0  0  0  0
  151.1523  141.5428  154.9839 H   0  0  0  0  0  0  0  0  0  0  0  0
  149.4527  141.7993  155.3040 H   0  0  0  0  0  0  0  0  0  0  0  0
  151.5420  142.7776  156.8789 H   0  0  0  0  0  0  0  0  0  0  0  0
  149.2453  143.2902  156.7689 H   0  0  0  0  0  0  0  0  0  0  0  0
  150.2814  140.6218  158.6098 H   0  0  0  0  0  0  0  0  0  0  0  0
  152.6435  142.5086  158.9428 H   0  0  0  0  0  0  0  0  0  0  0  0
  151.2630  142.3021  160.0260 H   0  0  0  0  0  0  0  0  0  0  0  0
  153.5027  140.8976  160.5377 H   0  0  0  0  0  0  0  0  0  0  0  0
  151.9542  140.0459  160.5733 H   0  0  0  0  0  0  0  0  0  0  0  0
  153.9967  140.0724  158.3387 H   0  0  0  0  0  0  0  0  0  0  0  0
  153.0242  138.7176  158.9165 H   0  0  0  0  0  0  0  0  0  0  0  0
  149.0679  133.9793  156.4419 H   0  0  0  0  0  0  0  0  0  0  0  0
  148.8617  135.6366  156.8735 H   0  0  0  0  0  0  0  0  0  0  0  0
  147.7430  136.1548  154.8766 H   0  0  0  0  0  0  0  0  0  0  0  0
  147.1644  134.5408  155.2001 H   0  0  0  0  0  0  0  0  0  0  0  0
  145.0039  132.6768  151.5035 H   0  0  0  0  0  0  0  0  0  0  0  0
  149.1893  135.3941  153.2719 H   0  0  0  0  0  0  0  0  0  0  0  0
  1  2  1  0  0  0  0
  1 30  1  0  0  0  0
  1 31  1  0  0  0  0
  1 32  1  0  0  0  0
  2  3  1  0  0  0  0
  2  4  1  0  0  0  0
  2 63  1  0  0  0  0
  3 33  1  0  0  0  0
  3 34  1  0  0  0  0
  3 35  1  0  0  0  0
  4  5  1  0  0  0  0
  4 36  1  0  0  0  0
  4 37  1  0  0  0  0
  5  6  1  0  0  0  0
  5 38  1  0  0  0  0
  5 39  1  0  0  0  0
  6 29  1  0  0  0  0
  6  7  1  0  0  0  0
  6 64  1  0  0  0  0
  7  8  1  0  0  0  0
  7 40  1  0  0  0  0
  7 41  1  0  0  0  0
  8  9  1  0  0  0  0
  8 42  1  0  0  0  0
  8 43  1  0  0  0  0
  9 10  1  0  0  0  0
  9 44  1  0  0  0  0
  9 45  1  0  0  0  0
 10 11  1  0  0  0  0
 10 28  1  0  0  0  0
 11 16  1  0  0  0  0
 11 12  2  0  0  0  0
 12 13  1  0  0  0  0
 13 14  2  0  0  0  0
 13 46  1  0  0  0  0
 14 15  1  0  0  0  0
 15 19  1  0  0  0  0
 15 16  2  0  0  0  0
 16 17  1  0  0  0  0
 17 18  2  0  0  0  0
 18 19  1  0  0  0  0
 18 47  1  0  0  0  0
 19 20  1  0  0  0  0
 20 21  1  0  0  0  0
 20 48  1  0  0  0  0
 20 49  1  0  0  0  0
 21 22  1  0  0  0  0
 21 23  1  0  0  0  0
 21 50  1  0  0  0  0
 22 51  1  0  0  0  0
 23 27  1  0  0  0  0
 23 24  1  0  0  0  0
 23 52  1  0  0  0  0
 24 25  1  0  0  0  0
 24 53  1  0  0  0  0
 24 54  1  0  0  0  0
 25 26  1  0  0  0  0
 25 55  1  0  0  0  0
 25 56  1  0  0  0  0
 26 27  1  0  0  0  0
 26 57  1  0  0  0  0
 26 58  1  0  0  0  0
 28 29  1  0  0  0  0
 28 59  1  0  0  0  0
 28 60  1  0  0  0  0
 29 61  1  0  0  0  0
 29 62  1  0  0  0  0
M  CHG  1   2   1
M  CHG  1   6   1
M  END
> <s_m_source_file>
AV-unprocessed.smi

> <i_m_source_file_index>
155

> <i_lp_mmshare_version>
43012

> <i_f3d_flags>
0

> <s_epik_input>
W0NIM11OKFtDSDNdKVtDSDJdW0NIMl1OMVtDSDJdW0NIMl1bQ0gyXU4oW0NIMl1bQ0gyXTEpYyhuW2NIXW4yKWMoYzIzKW5bY0hdbjNbQ0gyXVtDQEhdKFtPSF0pW0NAQEhdNFtDSDJdW0NIMl1bQ0gyXU80

> <s_epik_cmdline>
J2VwaWtfcHl0aG9uJywgJy1waCcsICc3LjAnLCAnLXRuJywgJzgnLCAnLW1hJywgJzIwMCcsICctbWV0YWxfYmluZGluZycsICctaW1hZScsICc8aW5maWxlLm1hZT4nLCAnLW9tYWUnLCAnPG91dGZpbGUubWFlPic=

> <r_lp_tautomer_probability>
1

> <r_epik_Ionization_Penalty>
3.0333

> <r_epik_Ionization_Penalty_Charging>
3.03317

> <r_epik_Ionization_Penalty_Neutral>
0.000131872

> <r_epik_State_Penalty>
1.99939

> <r_epik_Charging_Adjusted_Penalty>
5.03256

> <i_epik_Tot_Q>
2

> <i_epik_Tot_abs_Q>
2

> <r_epik_Metal_State_Penalty>
2.00021

> <b_epik_Metal_Only>
0

> <s_lp_Force_Field>
OPLS_2005

> <r_lp_Energy>
62.4537

> <b_lp_Chiralities_Consistent>
1

> <s_lp_Variant>
AV-unprocessed.smi:155-15

> <Gold.Version>
5.8.1

> <Gold.Id.Protein>
6NUR|6NUR_protein|mol2

> <Gold.PLP.Fitness>
48.6427

> <Gold.PLP.PLP>
-36.5951

> <Gold.PLP.part.hbond>
-4.0000

> <Gold.PLP.part.metal>
0.0000

> <Gold.PLP.part.buried>
-3.5783

> <Gold.PLP.part.nonpolar>
-28.6298

> <Gold.PLP.part.repulsive>
0.8667

> <Gold.PLP.ligand.clash>
0.0000

> <Gold.PLP.ligand.torsion>
1.2324

> <Gold.PLP.Chemscore.Hbond>
4.4720

> <Gold.PLP.Chemscore.CHOScore>
0.1932

> <Gold.PLP.Chemscore.Metal>
0.0000

> <Gold.Chemscore.Hbonds>
donor molecule, donor type, donor heavy atom, donor atom, acceptor molecule, acceptor atom, score
      L1  H     6    64       P1  7948  0.80
      L1  H    22    51       P1  8028  1.00
      P1  H  7989  7998       L1    14  0.90
      P1  H 10752 10763       L1    12  0.90

> <Gold.PLP.Chemscore.Internal.Correction>
0.5170

> <Gold.Rescore>
     Score         DG    S(hbond)    S(metal)    S(lipo)     H(rot)  DE(clash)    DE(int)     intcor
     11.96     -16.13       2.38        0.00      83.11       2.75       0.28       3.89       ----

> <Gold.Chemscore.Fitness>
11.9588

> <Gold.Chemscore.DG>
-16.1277

> <Gold.Chemscore.ZeroCoef>
-5.4800

> <Gold.Chemscore.Hbond>
2.3838

> <Gold.Chemscore.Metal>
0.0000

> <Gold.Chemscore.Lipo>
83.1112

> <Gold.Chemscore.Internal_Hbond>
0.0000

> <Gold.Chemscore.DEClash>
0.2764

> <Gold.Chemscore.DEInternal>
3.8925

> <Gold.Chemscore.Rot>
2.7493

> <Gold.Chemscore.Internal.Correction>
   9.000000E+99

> <Gold.Chemscore.Hbonds>
donor molecule, donor type, donor heavy atom, donor atom, acceptor molecule, acceptor atom, score
      L1  H     6    64       P1  7948  0.12
      L1  H    22    51       P1  8028  0.96
      P1  H  7989  7998       L1    14  0.46
      P1  H 10752 10763       L1    12  0.60

> <Gold.Chemscore.Hbond.Weighted>
-7.9619

> <Gold.Chemscore.Metal.Weighted>
-0.0000

> <Gold.Chemscore.Lipo.Weighted>
-9.7240

> <Gold.Chemscore.Internal_Hbond.Weighted>
0.0000

> <Gold.Chemscore.DEClash.Weighted>
0.2764

> <Gold.Chemscore.DEInternal.Weighted>
3.8925

> <Gold.Chemscore.Rot.Weighted>
7.0383

> <Gold.Chemscore.Internal.Correction.Weighted>
   9.000000E+99

> <Gold.Protein.RotatedTorsions>
[ 6907 6896 6895 6894 ] final   38.20 input  -60.11 | X-H torsion
[ 7974 7965 7964 7962 ] final   85.66 input  175.53 | X-H torsion
[ 8008 7997 7996 7995 ] final  -14.21 input   59.86 | X-H torsion
[ 10167 10162 10161 10158 ] final  177.58 input  -65.29 | X-H torsion
[ 10718 10713 10712 10709 ] final   85.43 input   66.30 | X-H torsion
[ 10763 10752 10751 10750 ] final   59.87 input  -60.55 | X-H torsion
[ 11005 11000 10999 10996 ] final  -59.59 input  -57.11 | X-H torsion

> <Gold.Protein.ActiveResidues>
 VAL166  LYS551  ARG553  GLY616  TRP617  ASP618  TYR619  PRO620  LYS621  CYS622 
 ASP623  PHE694  ASN695  SER759  ASP760  ASP761  ALA762  ILE779  LEU786  VAL792 
 PHE793  MET794  SER795  GLU796  ALA797  LYS798  CYS799  TRP800  GLU811  SER814 

> <Gold.Protein.RotatedAtoms>
  152.1533  134.8971  160.0546 H   0  0  0  0  0  0  0  0  0  0  0  0  # atno 6907 bound_to 6896
  151.9994  133.3815  159.4184 H   0  0  0  0  0  0  0  0  0  0  0  0  # atno 6908 bound_to 6896
  150.6878  134.3772  159.5062 H   0  0  0  0  0  0  0  0  0  0  0  0  # atno 6909 bound_to 6896
  145.5826  139.2327  143.2344 H   0  0  0  0  0  0  0  0  0  0  0  0  # atno 7974 bound_to 7965
  154.5229  140.2229  155.8943 H   0  0  0  0  0  0  0  0  0  0  0  0  # atno 8008 bound_to 7997
  156.1681  140.3127  155.8890 H   0  0  0  0  0  0  0  0  0  0  0  0  # atno 8009 bound_to 7997
  155.3614  140.0461  157.3037 H   0  0  0  0  0  0  0  0  0  0  0  0  # atno 8010 bound_to 7997
  139.5259  144.2781  152.0570 H   0  0  0  0  0  0  0  0  0  0  0  0  # atno 10167 bound_to 10162
  157.6914  131.0174  150.2821 H   0  0  0  0  0  0  0  0  0  0  0  0  # atno 10718 bound_to 10713
  152.9906  135.5556  154.5783 H   0  0  0  0  0  0  0  0  0  0  0  0  # atno 10763 bound_to 10752
  154.5169  135.2805  155.1297 H   0  0  0  0  0  0  0  0  0  0  0  0  # atno 10764 bound_to 10752
  154.2666  135.6371  153.5347 H   0  0  0  0  0  0  0  0  0  0  0  0  # atno 10765 bound_to 10752
  141.1254  133.6617  156.5095 H   0  0  0  0  0  0  0  0  0  0  0  0  # atno 11005 bound_to 11000
  146.1705  140.6652  142.9235 LP  0  0  0  0  0  0  0  0  0  0  0  0  # atno 17320 bound_to 7965
  144.7387  140.4882  143.6885 LP  0  0  0  0  0  0  0  0  0  0  0  0  # atno 17321 bound_to 7965
  140.2238  144.4439  150.6330 LP  0  0  0  0  0  0  0  0  0  0  0  0  # atno 17342 bound_to 10162
  140.6401  143.2202  151.6309 LP  0  0  0  0  0  0  0  0  0  0  0  0  # atno 17343 bound_to 10162
  156.3366  130.3809  149.7444 LP  0  0  0  0  0  0  0  0  0  0  0  0  # atno 17370 bound_to 10713
  156.4967  130.8110  151.3116 LP  0  0  0  0  0  0  0  0  0  0  0  0  # atno 17371 bound_to 10713
  140.4380  134.7041  157.4977 LP  0  0  0  0  0  0  0  0  0  0  0  0  # atno 17394 bound_to 11000
  140.0248  134.6493  155.9188 LP  0  0  0  0  0  0  0  0  0  0  0  0  # atno 17395 bound_to 11000

$$$$
