AV-unprocessed.smi:1593|AV-procd|sdf|6410|dock4
  -GOLD-   22720 7 43D 1   1.00000     0.00000
 Structure written by MMmdl.
 37 38  0  0  0  0  0  0  0  0  2 V2000
  153.4198  143.2116  159.8232 C   0  0  0  0  0  0  0  0  0  0  0  0
  152.4838  142.6810  158.7922 C   0  0  0  0  0  0  0  0  0  0  0  0
  151.5371  143.2708  158.0025 C   0  0  0  0  0  0  0  0  0  0  0  0
  151.0210  142.1799  157.2539 C   0  0  0  0  0  0  0  0  0  0  0  0
  149.9940  142.3756  156.2956 N   0  0  0  0  0  0  0  0  0  0  0  0
  149.4335  141.4502  155.4984 C   0  0  0  0  0  0  0  0  0  0  0  0
  149.7252  140.2540  155.4838 O   0  0  0  0  0  0  0  0  0  0  0  0
  148.5013  141.9903  154.6998 N   0  0  0  0  0  0  0  0  0  0  0  0
  147.7089  141.2457  153.7279 C   0  0  0  0  0  0  0  0  0  0  0  0
  146.7831  140.2234  154.4153 C   0  0  0  0  0  0  0  0  0  0  0  0
  146.0901  139.3440  153.4415 N   0  3  0  0  0  0  0  0  0  0  0  0
  146.9571  138.9798  152.2954 C   0  0  0  0  0  0  0  0  0  0  0  0
  146.1870  138.1065  151.2905 C   0  0  0  0  0  0  0  0  0  0  0  0
  145.6888  136.9484  151.9479 O   0  0  0  0  0  0  0  0  0  0  0  0
  144.7838  137.2793  152.9937 C   0  0  0  0  0  0  0  0  0  0  0  0
  145.5074  138.1245  154.0557 C   0  0  0  0  0  0  0  0  0  0  0  0
  151.5996  141.0285  157.5591 N   0  0  0  0  0  0  0  0  0  0  0  0
  152.5400  141.3439  158.5468 O   0  0  0  0  0  0  0  0  0  0  0  0
  153.2888  144.2861  159.9533 H   0  0  0  0  0  0  0  0  0  0  0  0
  154.4549  143.0297  159.5344 H   0  0  0  0  0  0  0  0  0  0  0  0
  153.2467  142.7305  160.7860 H   0  0  0  0  0  0  0  0  0  0  0  0
  151.2615  144.3145  157.9681 H   0  0  0  0  0  0  0  0  0  0  0  0
  149.6556  143.3221  156.2044 H   0  0  0  0  0  0  0  0  0  0  0  0
  148.3215  142.9811  154.7757 H   0  0  0  0  0  0  0  0  0  0  0  0
  147.1439  141.9495  153.1162 H   0  0  0  0  0  0  0  0  0  0  0  0
  148.3952  140.7313  153.0547 H   0  0  0  0  0  0  0  0  0  0  0  0
  147.3931  139.6096  155.0800 H   0  0  0  0  0  0  0  0  0  0  0  0
  146.0449  140.7195  155.0471 H   0  0  0  0  0  0  0  0  0  0  0  0
  147.3123  139.8824  151.7969 H   0  0  0  0  0  0  0  0  0  0  0  0
  147.8367  138.4451  152.6577 H   0  0  0  0  0  0  0  0  0  0  0  0
  145.3663  138.6647  150.8368 H   0  0  0  0  0  0  0  0  0  0  0  0
  146.8471  137.7964  150.4804 H   0  0  0  0  0  0  0  0  0  0  0  0
  143.9220  137.8137  152.5903 H   0  0  0  0  0  0  0  0  0  0  0  0
  144.4068  136.3585  153.4393 H   0  0  0  0  0  0  0  0  0  0  0  0
  146.2983  137.5351  154.5224 H   0  0  0  0  0  0  0  0  0  0  0  0
  144.8026  138.3905  154.8428 H   0  0  0  0  0  0  0  0  0  0  0  0
  145.3245  139.8801  153.0587 H   0  0  0  0  0  0  0  0  0  0  0  0
  1  2  1  0  0  0  0
  1 19  1  0  0  0  0
  1 20  1  0  0  0  0
  1 21  1  0  0  0  0
  2 18  1  0  0  0  0
  2  3  2  0  0  0  0
  3  4  1  0  0  0  0
  3 22  1  0  0  0  0
  4  5  1  0  0  0  0
  4 17  2  0  0  0  0
  5  6  1  0  0  0  0
  5 23  1  0  0  0  0
  6  7  2  0  0  0  0
  6  8  1  0  0  0  0
  8  9  1  0  0  0  0
  8 24  1  0  0  0  0
  9 10  1  0  0  0  0
  9 25  1  0  0  0  0
  9 26  1  0  0  0  0
 10 11  1  0  0  0  0
 10 27  1  0  0  0  0
 10 28  1  0  0  0  0
 11 16  1  0  0  0  0
 11 12  1  0  0  0  0
 11 37  1  0  0  0  0
 12 13  1  0  0  0  0
 12 29  1  0  0  0  0
 12 30  1  0  0  0  0
 13 14  1  0  0  0  0
 13 31  1  0  0  0  0
 13 32  1  0  0  0  0
 14 15  1  0  0  0  0
 15 16  1  0  0  0  0
 15 33  1  0  0  0  0
 15 34  1  0  0  0  0
 16 35  1  0  0  0  0
 16 36  1  0  0  0  0
 17 18  1  0  0  0  0
M  CHG  1  11   1
M  END
> <s_m_source_file>
AV-unprocessed.smi

> <i_m_source_file_index>
1593

> <i_lp_mmshare_version>
43012

> <i_f3d_flags>
0

> <s_epik_input>
W0NIM11jMVtjSF1jKG5vMSlbTkhdQyg9TylbTkhdW0NIMl1bQ0gyXU4yW0NIMl1bQ0gyXU9bQ0gyXVtDSDJdMg==

> <s_epik_cmdline>
J2VwaWtfcHl0aG9uJywgJy1waCcsICc3LjAnLCAnLXRuJywgJzgnLCAnLW1hJywgJzIwMCcsICctbWV0YWxfYmluZGluZycsICctaW1hZScsICc8aW5maWxlLm1hZT4nLCAnLW9tYWUnLCAnPG91dGZpbGUubWFlPic=

> <r_epik_Ionization_Penalty>
0.707076

> <r_epik_Ionization_Penalty_Charging>
0.707039

> <r_epik_Ionization_Penalty_Neutral>
3.67886e-05

> <r_epik_State_Penalty>
0.730276

> <r_epik_Charging_Adjusted_Penalty>
1.43732

> <i_epik_Tot_Q>
1

> <i_epik_Tot_abs_Q>
1

> <r_epik_Metal_State_Penalty>
0.743216

> <b_epik_Metal_Only>
0

> <s_lp_Force_Field>
OPLS_2005

> <r_lp_Energy>
12.0314

> <b_lp_Chiralities_Consistent>
1

> <s_lp_Variant>
AV-unprocessed.smi:1593-2

> <Gold.Version>
5.8.1

> <Gold.Id.Protein>
6NUR|6NUR_protein|mol2

> <Gold.PLP.Fitness>
41.1297

> <Gold.PLP.PLP>
-29.6975

> <Gold.PLP.part.hbond>
-3.0000

> <Gold.PLP.part.metal>
0.0000

> <Gold.PLP.part.buried>
-1.6263

> <Gold.PLP.part.nonpolar>
-26.5727

> <Gold.PLP.part.repulsive>
0.5827

> <Gold.PLP.ligand.clash>
0.0000

> <Gold.PLP.ligand.torsion>
0.2058

> <Gold.PLP.Chemscore.Hbond>
3.9440

> <Gold.PLP.Chemscore.CHOScore>
0.0000

> <Gold.PLP.Chemscore.Metal>
0.0000

> <Gold.Chemscore.Hbonds>
donor molecule, donor type, donor heavy atom, donor atom, acceptor molecule, acceptor atom, score
      L1  H     5    23       P1  8028  1.00
      L1  H     8    24       P1  8028  0.94
      L1  H    11    37       P1 10175  2.00

> <Gold.PLP.Chemscore.Internal.Correction>
0.0117

> <Gold.Rescore>
     Score         DG    S(hbond)    S(metal)    S(lipo)     H(rot)  DE(clash)    DE(int)     intcor
     17.59     -19.27       2.90        0.00      71.13       1.65       0.28       1.40       ----

> <Gold.Chemscore.Fitness>
17.5878

> <Gold.Chemscore.DG>
-19.2663

> <Gold.Chemscore.ZeroCoef>
-5.4800

> <Gold.Chemscore.Hbond>
2.9019

> <Gold.Chemscore.Metal>
0.0000

> <Gold.Chemscore.Lipo>
71.1296

> <Gold.Chemscore.Internal_Hbond>
0.0000

> <Gold.Chemscore.DEClash>
0.2828

> <Gold.Chemscore.DEInternal>
1.3958

> <Gold.Chemscore.Rot>
1.6516

> <Gold.Chemscore.Internal.Correction>
   9.000000E+99

> <Gold.Chemscore.Hbonds>
donor molecule, donor type, donor heavy atom, donor atom, acceptor molecule, acceptor atom, score
      L1  H     5    23       P1  8028  1.00
      L1  H     8    24       P1  8028  0.87
      L1  H    11    37       P1 10175  1.00

> <Gold.Chemscore.Hbond.Weighted>
-9.6923

> <Gold.Chemscore.Metal.Weighted>
-0.0000

> <Gold.Chemscore.Lipo.Weighted>
-8.3222

> <Gold.Chemscore.Internal_Hbond.Weighted>
0.0000

> <Gold.Chemscore.DEClash.Weighted>
0.2828

> <Gold.Chemscore.DEInternal.Weighted>
1.3958

> <Gold.Chemscore.Rot.Weighted>
4.2281

> <Gold.Chemscore.Internal.Correction.Weighted>
   9.000000E+99

> <Gold.Protein.RotatedTorsions>
[ 6907 6896 6895 6894 ] final  -28.86 input  -60.11 | X-H torsion
[ 7974 7965 7964 7962 ] final  125.02 input  175.53 | X-H torsion
[ 8008 7997 7996 7995 ] final  132.87 input   59.86 | X-H torsion
[ 10167 10162 10161 10158 ] final  -82.40 input  -65.29 | X-H torsion
[ 10718 10713 10712 10709 ] final   11.87 input   66.30 | X-H torsion
[ 10763 10752 10751 10750 ] final  168.40 input  -60.55 | X-H torsion
[ 11005 11000 10999 10996 ] final -122.12 input  -57.11 | X-H torsion

> <Gold.Protein.ActiveResidues>
 VAL166  LYS551  ARG553  GLY616  TRP617  ASP618  TYR619  PRO620  LYS621  CYS622 
 ASP623  PHE694  ASN695  SER759  ASP760  ASP761  ALA762  ILE779  LEU786  VAL792 
 PHE793  MET794  SER795  GLU796  ALA797  LYS798  CYS799  TRP800  GLU811  SER814 

> <Gold.Protein.RotatedAtoms>
  151.1271  135.0110  159.8564 H   0  0  0  0  0  0  0  0  0  0  0  0  # atno 6907 bound_to 6896
  152.5450  134.1654  159.8585 H   0  0  0  0  0  0  0  0  0  0  0  0  # atno 6908 bound_to 6896
  151.1717  133.4735  159.2627 H   0  0  0  0  0  0  0  0  0  0  0  0  # atno 6909 bound_to 6896
  145.0777  139.3681  143.4925 H   0  0  0  0  0  0  0  0  0  0  0  0  # atno 7974 bound_to 7965
  156.2987  140.2536  156.3159 H   0  0  0  0  0  0  0  0  0  0  0  0  # atno 8008 bound_to 7997
  154.9281  140.0399  157.2052 H   0  0  0  0  0  0  0  0  0  0  0  0  # atno 8009 bound_to 7997
  154.8245  140.2865  155.5768 H   0  0  0  0  0  0  0  0  0  0  0  0  # atno 8010 bound_to 7997
  140.4323  143.2544  151.8742 H   0  0  0  0  0  0  0  0  0  0  0  0  # atno 10167 bound_to 10162
  157.0018  130.6083  149.5697 H   0  0  0  0  0  0  0  0  0  0  0  0  # atno 10718 bound_to 10713
  154.3680  135.2753  155.2282 H   0  0  0  0  0  0  0  0  0  0  0  0  # atno 10763 bound_to 10752
  154.4442  135.5947  153.6152 H   0  0  0  0  0  0  0  0  0  0  0  0  # atno 10764 bound_to 10752
  152.9840  135.6026  154.3908 H   0  0  0  0  0  0  0  0  0  0  0  0  # atno 10765 bound_to 10752
  141.0019  134.0390  157.3526 H   0  0  0  0  0  0  0  0  0  0  0  0  # atno 11005 bound_to 11000
  146.3530  140.0552  142.8633 LP  0  0  0  0  0  0  0  0  0  0  0  0  # atno 17320 bound_to 7965
  145.1216  140.9465  143.4597 LP  0  0  0  0  0  0  0  0  0  0  0  0  # atno 17321 bound_to 7965
  139.4785  144.5321  151.8651 LP  0  0  0  0  0  0  0  0  0  0  0  0  # atno 17342 bound_to 10162
  140.4413  144.1982  150.5891 LP  0  0  0  0  0  0  0  0  0  0  0  0  # atno 17343 bound_to 10162
  156.0168  130.5262  150.8158 LP  0  0  0  0  0  0  0  0  0  0  0  0  # atno 17370 bound_to 10713
  157.5384  131.0940  150.9860 LP  0  0  0  0  0  0  0  0  0  0  0  0  # atno 17371 bound_to 10713
  139.9043  135.0175  156.7415 LP  0  0  0  0  0  0  0  0  0  0  0  0  # atno 17394 bound_to 11000
  140.6875  133.9420  155.7946 LP  0  0  0  0  0  0  0  0  0  0  0  0  # atno 17395 bound_to 11000

$$$$
