AV-unprocessed.smi:1805|AV-procd|sdf|7297|dock4
  -GOLD-   22720 8553D 1   1.00000     0.00000
 Structure written by MMmdl.
 29 30  0  0  0  0  0  0  0  0  1 V2000
  150.1399  140.5274  156.1012 O   0  0  0  0  0  0  0  0  0  0  0  0
  149.8151  141.7144  156.0652 C   0  0  0  0  0  0  0  0  0  0  0  0
  150.4513  142.6801  156.7429 N   0  0  0  0  0  0  0  0  0  0  0  0
  151.5967  142.4733  157.6219 C   0  0  0  0  0  0  0  0  0  0  0  0
  151.3688  143.1094  159.0028 C   0  0  2  0  0  0  0  0  0  0  0  0
  151.4206  144.6366  158.9937 C   0  0  0  0  0  0  0  0  0  0  0  0
  151.8395  144.9934  160.4124 C   0  0  0  0  0  0  0  0  0  0  0  0
  152.3136  143.6652  161.0085 C   0  0  0  0  0  0  0  0  0  0  0  0
  152.4162  142.7816  159.9018 O   0  0  0  0  0  0  0  0  0  0  0  0
  148.7915  142.2131  155.3528 N   0  0  0  0  0  0  0  0  0  0  0  0
  147.9021  141.5010  154.5089 C   0  0  0  0  0  0  0  0  0  0  0  0
  148.2585  140.3660  153.7310 C   0  0  0  0  0  0  0  0  0  0  0  0
  147.2233  139.9073  153.0421 N   0  0  0  0  0  0  0  0  0  0  0  0
  146.2095  140.7387  153.3729 N   0  0  0  0  0  0  0  0  0  0  0  0
  146.5764  141.7243  154.2627 C   0  0  0  0  0  0  0  0  0  0  0  0
  145.2830  140.6221  152.9876 H   0  0  0  0  0  0  0  0  0  0  0  0
  150.1138  143.6269  156.6516 H   0  0  0  0  0  0  0  0  0  0  0  0
  151.8301  141.4114  157.7173 H   0  0  0  0  0  0  0  0  0  0  0  0
  152.4616  142.9371  157.1469 H   0  0  0  0  0  0  0  0  0  0  0  0
  150.4188  142.7756  159.4249 H   0  0  0  0  0  0  0  0  0  0  0  0
  152.1812  144.9846  158.2931 H   0  0  0  0  0  0  0  0  0  0  0  0
  150.4698  145.0859  158.7060 H   0  0  0  0  0  0  0  0  0  0  0  0
  152.6380  145.7359  160.4034 H   0  0  0  0  0  0  0  0  0  0  0  0
  151.0082  145.4009  160.9887 H   0  0  0  0  0  0  0  0  0  0  0  0
  153.2664  143.7554  161.5307 H   0  0  0  0  0  0  0  0  0  0  0  0
  151.5755  143.2748  161.7106 H   0  0  0  0  0  0  0  0  0  0  0  0
  148.6343  143.2082  155.4173 H   0  0  0  0  0  0  0  0  0  0  0  0
  149.2140  139.8697  153.6453 H   0  0  0  0  0  0  0  0  0  0  0  0
  145.8797  142.4661  154.6238 H   0  0  0  0  0  0  0  0  0  0  0  0
  1  2  2  0  0  0  0
  2  3  1  0  0  0  0
  2 10  1  0  0  0  0
  3  4  1  0  0  0  0
  3 17  1  0  0  0  0
  4  5  1  0  0  0  0
  4 18  1  0  0  0  0
  4 19  1  0  0  0  0
  5  9  1  0  0  0  0
  5  6  1  0  0  0  0
  5 20  1  0  0  0  0
  6  7  1  0  0  0  0
  6 21  1  0  0  0  0
  6 22  1  0  0  0  0
  7  8  1  0  0  0  0
  7 23  1  0  0  0  0
  7 24  1  0  0  0  0
  8  9  1  0  0  0  0
  8 25  1  0  0  0  0
  8 26  1  0  0  0  0
 10 11  1  0  0  0  0
 10 27  1  0  0  0  0
 11 15  2  0  0  0  0
 11 12  1  0  0  0  0
 12 13  2  0  0  0  0
 12 28  1  0  0  0  0
 13 14  1  0  0  0  0
 14 16  1  0  0  0  0
 14 15  1  0  0  0  0
 15 29  1  0  0  0  0
M  END
> <s_m_source_file>
AV-unprocessed.smi

> <i_m_source_file_index>
1805

> <i_lp_mmshare_version>
43012

> <i_f3d_flags>
0

> <s_epik_input>
W2NIXTFbbkhdbltjSF1jMVtOSF1DKD1PKVtOSF1bQ0gyXVtDQEBIXTJbQ0gyXVtDSDJdW0NIMl1PMg==

> <s_epik_cmdline>
J2VwaWtfcHl0aG9uJywgJy1waCcsICc3LjAnLCAnLXRuJywgJzgnLCAnLW1hJywgJzIwMCcsICctbWV0YWxfYmluZGluZycsICctaW1hZScsICc8aW5maWxlLm1hZT4nLCAnLW9tYWUnLCAnPG91dGZpbGUubWFlPic=

> <r_lp_tautomer_probability>
1

> <r_epik_Ionization_Penalty>
4.81496e-05

> <r_epik_Ionization_Penalty_Charging>
0

> <r_epik_Ionization_Penalty_Neutral>
4.81496e-05

> <r_epik_State_Penalty>
-0

> <r_epik_Charging_Adjusted_Penalty>
0

> <i_epik_Tot_Q>
0

> <i_epik_Tot_abs_Q>
0

> <r_epik_Metal_State_Penalty>
-0

> <b_epik_Metal_Only>
0

> <s_lp_Force_Field>
OPLS_2005

> <r_lp_Energy>
19.369

> <b_lp_Chiralities_Consistent>
1

> <s_lp_Variant>
AV-unprocessed.smi:1805-1

> <Gold.Version>
5.8.1

> <Gold.Id.Protein>
6NUR|6NUR_protein|mol2

> <Gold.PLP.Fitness>
39.0262

> <Gold.PLP.PLP>
-29.7835

> <Gold.PLP.part.hbond>
-2.9421

> <Gold.PLP.part.metal>
0.0000

> <Gold.PLP.part.buried>
-4.7629

> <Gold.PLP.part.nonpolar>
-23.0652

> <Gold.PLP.part.repulsive>
0.9283

> <Gold.PLP.ligand.clash>
0.0000

> <Gold.PLP.ligand.torsion>
0.3112

> <Gold.PLP.Chemscore.Hbond>
2.8800

> <Gold.PLP.Chemscore.CHOScore>
0.4059

> <Gold.PLP.Chemscore.Metal>
0.0000

> <Gold.Chemscore.Hbonds>
donor molecule, donor type, donor heavy atom, donor atom, acceptor molecule, acceptor atom, score
      L1  H     3    17       P1  8028  0.88
      L1  H    10    27       P1  8028  1.00
      L1  H    14    16       P1 10175  1.00
      L1  C    12    28       P1  7957  0.42

> <Gold.PLP.Chemscore.Internal.Correction>
0.0075

> <Gold.Rescore>
     Score         DG    S(hbond)    S(metal)    S(lipo)     H(rot)  DE(clash)    DE(int)     intcor
     19.29     -20.63       2.94        0.00      74.62       1.33       0.14       1.20       ----

> <Gold.Chemscore.Fitness>
19.2913

> <Gold.Chemscore.DG>
-20.6298

> <Gold.Chemscore.ZeroCoef>
-5.4800

> <Gold.Chemscore.Hbond>
2.9418

> <Gold.Chemscore.Metal>
0.0000

> <Gold.Chemscore.Lipo>
74.6189

> <Gold.Chemscore.Internal_Hbond>
0.0000

> <Gold.Chemscore.DEClash>
0.1381

> <Gold.Chemscore.DEInternal>
1.2003

> <Gold.Chemscore.Rot>
1.3306

> <Gold.Chemscore.Internal.Correction>
   9.000000E+99

> <Gold.Chemscore.Hbonds>
donor molecule, donor type, donor heavy atom, donor atom, acceptor molecule, acceptor atom, score
      L1  H     3    17       P1  8028  0.86
      L1  H    10    27       P1  8028  0.94
      L1  H    14    16       P1 10175  0.78

> <Gold.Chemscore.Hbond.Weighted>
-9.8256

> <Gold.Chemscore.Metal.Weighted>
-0.0000

> <Gold.Chemscore.Lipo.Weighted>
-8.7304

> <Gold.Chemscore.Internal_Hbond.Weighted>
0.0000

> <Gold.Chemscore.DEClash.Weighted>
0.1381

> <Gold.Chemscore.DEInternal.Weighted>
1.2003

> <Gold.Chemscore.Rot.Weighted>
3.4063

> <Gold.Chemscore.Internal.Correction.Weighted>
   9.000000E+99

> <Gold.Protein.RotatedTorsions>
[ 6907 6896 6895 6894 ] final  -79.48 input  -60.11 | X-H torsion
[ 7974 7965 7964 7962 ] final -142.35 input  175.53 | X-H torsion
[ 8008 7997 7996 7995 ] final   87.16 input   59.86 | X-H torsion
[ 10167 10162 10161 10158 ] final  -36.35 input  -65.29 | X-H torsion
[ 10718 10713 10712 10709 ] final -143.74 input   66.30 | X-H torsion
[ 10763 10752 10751 10750 ] final   33.41 input  -60.55 | X-H torsion
[ 11005 11000 10999 10996 ] final  117.79 input  -57.11 | X-H torsion

> <Gold.Protein.ActiveResidues>
 VAL166  LYS551  ARG553  GLY616  TRP617  ASP618  TYR619  PRO620  LYS621  CYS622 
 ASP623  PHE694  ASN695  SER759  ASP760  ASP761  ALA762  ILE779  LEU786  VAL792 
 PHE793  MET794  SER795  GLU796  ALA797  LYS798  CYS799  TRP800  GLU811  SER814 

> <Gold.Protein.RotatedAtoms>
  150.6949  134.4115  159.5163 H   0  0  0  0  0  0  0  0  0  0  0  0  # atno 6907 bound_to 6896
  152.1873  134.8700  160.0530 H   0  0  0  0  0  0  0  0  0  0  0  0  # atno 6908 bound_to 6896
  151.9668  133.3678  159.4093 H   0  0  0  0  0  0  0  0  0  0  0  0  # atno 6909 bound_to 6896
  144.8450  140.5969  143.5427 H   0  0  0  0  0  0  0  0  0  0  0  0  # atno 7974 bound_to 7965
  155.9718  140.3385  155.6583 H   0  0  0  0  0  0  0  0  0  0  0  0  # atno 8008 bound_to 7997
  155.6664  140.0722  157.2554 H   0  0  0  0  0  0  0  0  0  0  0  0  # atno 8009 bound_to 7997
  154.4168  140.1699  156.1819 H   0  0  0  0  0  0  0  0  0  0  0  0  # atno 8010 bound_to 7997
  140.7144  143.3415  151.2348 H   0  0  0  0  0  0  0  0  0  0  0  0  # atno 10167 bound_to 10162
  156.3616  130.7741  151.1910 H   0  0  0  0  0  0  0  0  0  0  0  0  # atno 10718 bound_to 10713
  153.0213  135.6387  154.1508 H   0  0  0  0  0  0  0  0  0  0  0  0  # atno 10763 bound_to 10752
  154.1242  135.2844  155.3203 H   0  0  0  0  0  0  0  0  0  0  0  0  # atno 10764 bound_to 10752
  154.6241  135.5515  153.7670 H   0  0  0  0  0  0  0  0  0  0  0  0  # atno 10765 bound_to 10752
  139.9086  134.9614  156.7404 H   0  0  0  0  0  0  0  0  0  0  0  0  # atno 11005 bound_to 11000
  145.4615  139.1512  143.3863 LP  0  0  0  0  0  0  0  0  0  0  0  0  # atno 17320 bound_to 7965
  146.2736  140.4745  142.8804 LP  0  0  0  0  0  0  0  0  0  0  0  0  # atno 17321 bound_to 7965
  139.6923  143.9671  152.2865 LP  0  0  0  0  0  0  0  0  0  0  0  0  # atno 17342 bound_to 10162
  139.9337  144.6725  150.8337 LP  0  0  0  0  0  0  0  0  0  0  0  0  # atno 17343 bound_to 10162
  157.7474  131.0398  150.4569 LP  0  0  0  0  0  0  0  0  0  0  0  0  # atno 17370 bound_to 10713
  156.4780  130.4067  149.6478 LP  0  0  0  0  0  0  0  0  0  0  0  0  # atno 17371 bound_to 10713
  140.6854  133.9437  155.7934 LP  0  0  0  0  0  0  0  0  0  0  0  0  # atno 17394 bound_to 11000
  141.0480  134.0526  157.3819 LP  0  0  0  0  0  0  0  0  0  0  0  0  # atno 17395 bound_to 11000

$$$$
