AV-unprocessed.smi:2068|AV-procd|sdf|8430|dock3
  -GOLD-   2272011123D 1   1.00000     0.00000
 Structure written by MMmdl.
 32 33  0  0  0  0  0  0  0  0  2 V2000
  143.8168  141.8436  155.1175 N   0  0  0  0  0  0  0  0  0  0  0  0
  144.8651  142.6623  155.2483 C   0  0  0  0  0  0  0  0  0  0  0  0
  145.0646  143.3134  156.2721 O   0  0  0  0  0  0  0  0  0  0  0  0
  145.8184  142.7830  154.0557 C   0  0  0  0  0  0  0  0  0  0  0  0
  147.0791  142.0036  154.2982 C   0  0  0  0  0  0  0  0  0  0  0  0
  147.7008  141.1452  153.4282 C   0  0  0  0  0  0  0  0  0  0  0  0
  149.1472  140.4657  154.1178 S   0  0  0  0  0  0  0  0  0  0  0  0
  148.8607  141.3848  155.5963 C   0  0  0  0  0  0  0  0  0  0  0  0
  149.6476  141.3605  156.6829 N   0  5  0  0  0  0  0  0  0  0  0  0
  150.9272  140.9298  156.5699 C   0  0  0  0  0  0  0  0  0  0  0  0
  151.5253  140.5412  155.5654 O   0  0  0  0  0  0  0  0  0  0  0  0
  151.6738  140.9726  157.9106 C   0  0  0  0  0  0  0  0  0  0  0  0
  151.3640  142.2416  158.7347 C   0  0  1  0  0  0  0  0  0  0  0  0
  152.2650  142.4304  159.9315 C   0  0  0  0  0  0  0  0  0  0  0  0
  152.8308  143.6346  159.9639 C   0  0  0  0  0  0  0  0  0  0  0  0
  152.4250  144.4927  158.7980 C   0  0  0  0  0  0  0  0  0  0  0  0
  151.5540  143.5546  157.9327 C   0  0  0  0  0  0  0  0  0  0  0  0
  147.7425  142.1147  155.5237 N   0  0  0  0  0  0  0  0  0  0  0  0
  143.1761  141.7179  155.8874 H   0  0  0  0  0  0  0  0  0  0  0  0
  143.6823  141.3358  154.2542 H   0  0  0  0  0  0  0  0  0  0  0  0
  145.3077  142.4305  153.1585 H   0  0  0  0  0  0  0  0  0  0  0  0
  146.0499  143.8349  153.8839 H   0  0  0  0  0  0  0  0  0  0  0  0
  147.4010  140.8771  152.4264 H   0  0  0  0  0  0  0  0  0  0  0  0
  151.4574  140.0820  158.5047 H   0  0  0  0  0  0  0  0  0  0  0  0
  152.7425  140.9343  157.6966 H   0  0  0  0  0  0  0  0  0  0  0  0
  150.3396  142.1924  159.1074 H   0  0  0  0  0  0  0  0  0  0  0  0
  152.4069  141.6594  160.6751 H   0  0  0  0  0  0  0  0  0  0  0  0
  153.5004  143.9874  160.7344 H   0  0  0  0  0  0  0  0  0  0  0  0
  151.8601  145.3554  159.1526 H   0  0  0  0  0  0  0  0  0  0  0  0
  153.3022  144.8470  158.2561 H   0  0  0  0  0  0  0  0  0  0  0  0
  152.0601  143.3593  156.9862 H   0  0  0  0  0  0  0  0  0  0  0  0
  150.5945  144.0131  157.6913 H   0  0  0  0  0  0  0  0  0  0  0  0
  1  2  1  0  0  0  0
  1 19  1  0  0  0  0
  1 20  1  0  0  0  0
  2  3  2  0  0  0  0
  2  4  1  0  0  0  0
  4  5  1  0  0  0  0
  4 21  1  0  0  0  0
  4 22  1  0  0  0  0
  5 18  1  0  0  0  0
  5  6  2  0  0  0  0
  6  7  1  0  0  0  0
  6 23  1  0  0  0  0
  7  8  1  0  0  0  0
  8  9  1  0  0  0  0
  8 18  2  0  0  0  0
  9 10  1  0  0  0  0
 10 11  2  0  0  0  0
 10 12  1  0  0  0  0
 12 13  1  0  0  0  0
 12 24  1  0  0  0  0
 12 25  1  0  0  0  0
 13 17  1  0  0  0  0
 13 14  1  0  0  0  0
 13 26  1  0  0  0  0
 14 15  2  0  0  0  0
 14 27  1  0  0  0  0
 15 16  1  0  0  0  0
 15 28  1  0  0  0  0
 16 17  1  0  0  0  0
 16 29  1  0  0  0  0
 16 30  1  0  0  0  0
 17 31  1  0  0  0  0
 17 32  1  0  0  0  0
M  CHG  1   9  -1
M  END
> <s_m_source_file>
AV-unprocessed.smi

> <i_m_source_file_index>
2068

> <i_lp_mmshare_version>
43012

> <i_f3d_flags>
0

> <s_epik_input>
W05IMl1DKD1PKVtDSDJdYzFbY0hdc2MobjEpW05IXUMoPU8pW0NIMl1bQ0BASF0yW0NIXT1bQ0hdW0NIMl1bQ0gyXTI=

> <s_epik_cmdline>
J2VwaWtfcHl0aG9uJywgJy1waCcsICc3LjAnLCAnLXRuJywgJzgnLCAnLW1hJywgJzIwMCcsICctbWV0YWxfYmluZGluZycsICctaW1hZScsICc8aW5maWxlLm1hZT4nLCAnLW9tYWUnLCAnPG91dGZpbGUubWFlPic=

> <r_lp_tautomer_probability>
1

> <r_epik_Ionization_Penalty>
4.99584

> <r_epik_Ionization_Penalty_Charging>
4.63763

> <r_epik_Ionization_Penalty_Neutral>
0.358213

> <r_epik_State_Penalty>
4.63739

> <r_epik_Charging_Adjusted_Penalty>
9.27502

> <i_epik_Tot_Q>
-1

> <i_epik_Tot_abs_Q>
1

> <r_epik_Metal_State_Penalty>
0.891949

> <b_epik_Metal_Only>
1

> <s_lp_Force_Field>
OPLS_2005

> <r_lp_Energy>
14.2455

> <b_lp_Chiralities_Consistent>
1

> <s_lp_Variant>
AV-unprocessed.smi:2068-4

> <Gold.Version>
5.8.1

> <Gold.Id.Protein>
6NUR|6NUR_protein|mol2

> <Gold.PLP.Fitness>
43.6765

> <Gold.PLP.PLP>
-38.3920

> <Gold.PLP.part.hbond>
-2.6850

> <Gold.PLP.part.metal>
0.0000

> <Gold.PLP.part.buried>
-2.6071

> <Gold.PLP.part.nonpolar>
-35.5253

> <Gold.PLP.part.repulsive>
2.4776

> <Gold.PLP.ligand.clash>
0.0000

> <Gold.PLP.ligand.torsion>
0.7699

> <Gold.PLP.Chemscore.Hbond>
1.7020

> <Gold.PLP.Chemscore.CHOScore>
0.5082

> <Gold.PLP.Chemscore.Metal>
0.0000

> <Gold.Chemscore.Hbonds>
donor molecule, donor type, donor heavy atom, donor atom, acceptor molecule, acceptor atom, score
      L1  H     1    20       P1 10175  1.00
      P1  H  7989  7998       L1    11  0.68
      L1  C     6    23       P1  7957  0.38

> <Gold.PLP.Chemscore.Internal.Correction>
0.1936

> <Gold.Rescore>
     Score         DG    S(hbond)    S(metal)    S(lipo)     H(rot)  DE(clash)    DE(int)     intcor
     14.19     -17.07       1.78        0.00      95.47       2.17       0.83       2.06       ----

> <Gold.Chemscore.Fitness>
14.1876

> <Gold.Chemscore.DG>
-17.0686

> <Gold.Chemscore.ZeroCoef>
-5.4800

> <Gold.Chemscore.Hbond>
1.7847

> <Gold.Chemscore.Metal>
0.0000

> <Gold.Chemscore.Lipo>
95.4730

> <Gold.Chemscore.Internal_Hbond>
0.0000

> <Gold.Chemscore.DEClash>
0.8252

> <Gold.Chemscore.DEInternal>
2.0558

> <Gold.Chemscore.Rot>
2.1650

> <Gold.Chemscore.Internal.Correction>
   9.000000E+99

> <Gold.Chemscore.Hbonds>
donor molecule, donor type, donor heavy atom, donor atom, acceptor molecule, acceptor atom, score
      L1  H     1    20       P1 10175  0.35
      P1  H  7989  7998       L1    11  0.65

> <Gold.Chemscore.Hbond.Weighted>
-5.9608

> <Gold.Chemscore.Metal.Weighted>
-0.0000

> <Gold.Chemscore.Lipo.Weighted>
-11.1703

> <Gold.Chemscore.Internal_Hbond.Weighted>
0.0000

> <Gold.Chemscore.DEClash.Weighted>
0.8252

> <Gold.Chemscore.DEInternal.Weighted>
2.0558

> <Gold.Chemscore.Rot.Weighted>
5.5425

> <Gold.Chemscore.Internal.Correction.Weighted>
   9.000000E+99

> <Gold.Protein.RotatedTorsions>
[ 6907 6896 6895 6894 ] final  162.66 input  -60.11 | X-H torsion
[ 7974 7965 7964 7962 ] final  -86.94 input  175.53 | X-H torsion
[ 8008 7997 7996 7995 ] final  -22.60 input   59.86 | X-H torsion
[ 10167 10162 10161 10158 ] final -152.41 input  -65.29 | X-H torsion
[ 10718 10713 10712 10709 ] final -130.56 input   66.30 | X-H torsion
[ 10763 10752 10751 10750 ] final  -85.26 input  -60.55 | X-H torsion
[ 11005 11000 10999 10996 ] final   93.64 input  -57.11 | X-H torsion

> <Gold.Protein.ActiveResidues>
 VAL166  LYS551  ARG553  GLY616  TRP617  ASP618  TYR619  PRO620  LYS621  CYS622 
 ASP623  PHE694  ASN695  SER759  ASP760  ASP761  ALA762  ILE779  LEU786  VAL792 
 PHE793  MET794  SER795  GLU796  ALA797  LYS798  CYS799  TRP800  GLU811  SER814 

> <Gold.Protein.RotatedAtoms>
  151.9371  133.3627  159.3951 H   0  0  0  0  0  0  0  0  0  0  0  0  # atno 6907 bound_to 6896
  150.7005  134.4477  159.5331 H   0  0  0  0  0  0  0  0  0  0  0  0  # atno 6908 bound_to 6896
  152.2128  134.8486  160.0546 H   0  0  0  0  0  0  0  0  0  0  0  0  # atno 6909 bound_to 6896
  145.4732  140.9559  143.1905 H   0  0  0  0  0  0  0  0  0  0  0  0  # atno 7974 bound_to 7965
  154.4634  140.2003  156.0182 H   0  0  0  0  0  0  0  0  0  0  0  0  # atno 8008 bound_to 7997
  156.0883  140.3261  155.7754 H   0  0  0  0  0  0  0  0  0  0  0  0  # atno 8009 bound_to 7997
  155.4998  140.0553  157.2931 H   0  0  0  0  0  0  0  0  0  0  0  0  # atno 8010 bound_to 7997
  139.7184  143.8997  152.2494 H   0  0  0  0  0  0  0  0  0  0  0  0  # atno 10167 bound_to 10162
  156.2157  130.6946  151.0700 H   0  0  0  0  0  0  0  0  0  0  0  0  # atno 10718 bound_to 10713
  154.6091  135.5491  153.7454 H   0  0  0  0  0  0  0  0  0  0  0  0  # atno 10763 bound_to 10752
  153.0187  135.6385  154.1605 H   0  0  0  0  0  0  0  0  0  0  0  0  # atno 10764 bound_to 10752
  154.1543  135.2901  155.3106 H   0  0  0  0  0  0  0  0  0  0  0  0  # atno 10765 bound_to 10752
  139.8807  134.8801  156.3747 H   0  0  0  0  0  0  0  0  0  0  0  0  # atno 11005 bound_to 11000
  144.7933  139.6285  143.7104 LP  0  0  0  0  0  0  0  0  0  0  0  0  # atno 17320 bound_to 7965
  146.2384  139.5952  142.9508 LP  0  0  0  0  0  0  0  0  0  0  0  0  # atno 17321 bound_to 7965
  139.8886  144.6978  150.8796 LP  0  0  0  0  0  0  0  0  0  0  0  0  # atno 17342 bound_to 10162
  140.7748  143.3604  151.1839 LP  0  0  0  0  0  0  0  0  0  0  0  0  # atno 17343 bound_to 10162
  157.7062  131.0755  150.6659 LP  0  0  0  0  0  0  0  0  0  0  0  0  # atno 17370 bound_to 10713
  156.6720  130.4542  149.5654 LP  0  0  0  0  0  0  0  0  0  0  0  0  # atno 17371 bound_to 10713
  140.9440  133.7495  156.0183 LP  0  0  0  0  0  0  0  0  0  0  0  0  # atno 17394 bound_to 11000
  140.8186  134.3316  157.5389 LP  0  0  0  0  0  0  0  0  0  0  0  0  # atno 17395 bound_to 11000

$$$$
