AV-unprocessed.smi:95|AV-procd|sdf|856|dock3
  -GOLD-   2262017303D 1   1.00000     0.00000
 Structure written by MMmdl.
 41 44  0  0  0  0  0  0  0  0  1 V2000
  150.5796  139.6015  154.6170 O   0  0  0  0  0  0  0  0  0  0  0  0
  150.9371  140.2837  155.5792 C   0  0  0  0  0  0  0  0  0  0  0  0
  150.3186  141.5551  155.9380 C   0  0  0  0  0  0  0  0  0  0  0  0
  149.3132  142.0395  155.1894 F   0  0  0  0  0  0  0  0  0  0  0  0
  150.7372  142.2564  157.0140 C   0  0  0  0  0  0  0  0  0  0  0  0
  151.7652  141.8313  157.8404 N   0  0  0  0  0  0  0  0  0  0  0  0
  152.2035  142.6244  159.0542 C   0  0  1  0  0  0  0  0  0  0  0  0
  152.6821  144.0301  158.6412 C   0  0  0  0  0  0  0  0  0  0  0  0
  151.8768  144.9393  159.5482 C   0  0  0  0  0  0  0  0  0  0  0  0
  150.6147  144.1210  159.7750 C   0  0  0  0  0  0  0  0  0  0  0  0
  151.1217  142.8017  159.9242 O   0  0  0  0  0  0  0  0  0  0  0  0
  152.4142  140.6055  157.5741 C   0  0  0  0  0  0  0  0  0  0  0  0
  153.3098  140.1947  158.3159 O   0  0  0  0  0  0  0  0  0  0  0  0
  151.9874  139.8782  156.4375 N   0  0  0  0  0  0  0  0  0  0  0  0
  152.6205  138.5985  156.1549 C   0  0  0  0  0  0  0  0  0  0  0  0
  151.7477  137.3679  156.3749 C   0  0  0  0  0  0  0  0  0  0  0  0
  151.1050  137.1770  157.6142 C   0  0  0  0  0  0  0  0  0  0  0  0
  150.2953  136.0394  157.7828 C   0  0  0  0  0  0  0  0  0  0  0  0
  150.1543  135.1391  156.7072 C   0  0  0  0  0  0  0  0  0  0  0  0
  149.3498  133.9891  156.8451 C   0  0  0  0  0  0  0  0  0  0  0  0
  149.2132  133.0939  155.7685 C   0  0  0  0  0  0  0  0  0  0  0  0
  149.8799  133.3496  154.5564 C   0  0  0  0  0  0  0  0  0  0  0  0
  150.6818  134.4996  154.4211 C   0  0  0  0  0  0  0  0  0  0  0  0
  150.8335  135.4110  155.4878 C   0  0  0  0  0  0  0  0  0  0  0  0
  151.6078  136.5093  155.3382 N   0  0  0  0  0  0  0  0  0  0  0  0
  150.2307  143.1861  157.2225 H   0  0  0  0  0  0  0  0  0  0  0  0
  152.9672  142.0166  159.5430 H   0  0  0  0  0  0  0  0  0  0  0  0
  153.7593  144.1322  158.7765 H   0  0  0  0  0  0  0  0  0  0  0  0
  152.4364  144.2221  157.5956 H   0  0  0  0  0  0  0  0  0  0  0  0
  152.4011  145.0872  160.4932 H   0  0  0  0  0  0  0  0  0  0  0  0
  151.6794  145.9170  159.1080 H   0  0  0  0  0  0  0  0  0  0  0  0
  150.0556  144.4389  160.6551 H   0  0  0  0  0  0  0  0  0  0  0  0
  149.9550  144.1758  158.9080 H   0  0  0  0  0  0  0  0  0  0  0  0
  152.9724  138.6432  155.1224 H   0  0  0  0  0  0  0  0  0  0  0  0
  153.5307  138.5200  156.7501 H   0  0  0  0  0  0  0  0  0  0  0  0
  151.2305  137.8852  158.4202 H   0  0  0  0  0  0  0  0  0  0  0  0
  149.7925  135.8644  158.7226 H   0  0  0  0  0  0  0  0  0  0  0  0
  148.8362  133.7895  157.7744 H   0  0  0  0  0  0  0  0  0  0  0  0
  148.5978  132.2121  155.8723 H   0  0  0  0  0  0  0  0  0  0  0  0
  149.7764  132.6637  153.7286 H   0  0  0  0  0  0  0  0  0  0  0  0
  151.1881  134.6839  153.4849 H   0  0  0  0  0  0  0  0  0  0  0  0
  1  2  2  0  0  0  0
  2 14  1  0  0  0  0
  2  3  1  0  0  0  0
  3  4  1  0  0  0  0
  3  5  2  0  0  0  0
  5  6  1  0  0  0  0
  5 26  1  0  0  0  0
  6  7  1  0  0  0  0
  6 12  1  0  0  0  0
  7 11  1  0  0  0  0
  7  8  1  0  0  0  0
  7 27  1  0  0  0  0
  8  9  1  0  0  0  0
  8 28  1  0  0  0  0
  8 29  1  0  0  0  0
  9 10  1  0  0  0  0
  9 30  1  0  0  0  0
  9 31  1  0  0  0  0
 10 11  1  0  0  0  0
 10 32  1  0  0  0  0
 10 33  1  0  0  0  0
 12 13  2  0  0  0  0
 12 14  1  0  0  0  0
 14 15  1  0  0  0  0
 15 16  1  0  0  0  0
 15 34  1  0  0  0  0
 15 35  1  0  0  0  0
 16 25  1  0  0  0  0
 16 17  2  0  0  0  0
 17 18  1  0  0  0  0
 17 36  1  0  0  0  0
 18 19  2  0  0  0  0
 18 37  1  0  0  0  0
 19 24  1  0  0  0  0
 19 20  1  0  0  0  0
 20 21  2  0  0  0  0
 20 38  1  0  0  0  0
 21 22  1  0  0  0  0
 21 39  1  0  0  0  0
 22 23  2  0  0  0  0
 22 40  1  0  0  0  0
 23 24  1  0  0  0  0
 23 41  1  0  0  0  0
 24 25  2  0  0  0  0
M  END
> <s_m_source_file>
AV-unprocessed.smi

> <i_m_source_file_index>
95

> <i_lp_mmshare_version>
43012

> <i_f3d_flags>
0

> <s_epik_input>
TzFbQ0gyXVtDSDJdW0NIMl1bQ0BIXTFuKFtjSF1jKEYpYzI9TyljKD1PKW4yW0NIMl1jKFtjSF1bY0hdMyluYyhjMzQpW2NIXVtjSF1bY0hdW2NIXTQ=

> <s_epik_cmdline>
J2VwaWtfcHl0aG9uJywgJy1waCcsICc3LjAnLCAnLXRuJywgJzgnLCAnLW1hJywgJzIwMCcsICctbWV0YWxfYmluZGluZycsICctaW1hZScsICc8aW5maWxlLm1hZT4nLCAnLW9tYWUnLCAnPG91dGZpbGUubWFlPic=

> <r_lp_tautomer_probability>
1

> <r_epik_Ionization_Penalty>
0.0274176

> <r_epik_Ionization_Penalty_Charging>
1.11818e-08

> <r_epik_Ionization_Penalty_Neutral>
0.0274176

> <r_epik_State_Penalty>
0.0224396

> <r_epik_Charging_Adjusted_Penalty>
0.0224396

> <i_epik_Tot_Q>
0

> <i_epik_Tot_abs_Q>
0

> <r_epik_Metal_State_Penalty>
2.28695e-05

> <b_epik_Metal_Only>
0

> <s_epik_Chemistry_Notes>
This compound contains an acetal/aminal-like group ( X-CH(R)-Y where X, Y are N, S, or O) that may be acid/base labile, releasing an aldehyde.

> <s_lp_Force_Field>
OPLS_2005

> <r_lp_Energy>
34.6925

> <b_lp_Chiralities_Consistent>
1

> <s_lp_Variant>
AV-unprocessed.smi:95-2

> <Gold.Version>
5.8.1

> <Gold.Id.Protein>
6NUR|6NUR_protein|mol2

> <Gold.PLP.Fitness>
49.4803

> <Gold.PLP.PLP>
-40.6296

> <Gold.PLP.part.hbond>
-4.0000

> <Gold.PLP.part.metal>
0.0000

> <Gold.PLP.part.buried>
-1.0202

> <Gold.PLP.part.nonpolar>
-35.5883

> <Gold.PLP.part.repulsive>
0.2027

> <Gold.PLP.ligand.clash>
0.0000

> <Gold.PLP.ligand.torsion>
0.1193

> <Gold.PLP.Chemscore.Hbond>
2.0252

> <Gold.PLP.Chemscore.CHOScore>
1.0000

> <Gold.PLP.Chemscore.Metal>
0.0000

> <Gold.Chemscore.Hbonds>
donor molecule, donor type, donor heavy atom, donor atom, acceptor molecule, acceptor atom, score
      P1  H  7989  7998       L1     1  0.35
      P1  H  7997  8010       L1    13  0.74
      P1  H 10752 10765       L1    25  0.65
      L1  C     5    26       P1  8028  0.92

> <Gold.PLP.Chemscore.Internal.Correction>
0.0137

> <Gold.Rescore>
     Score         DG    S(hbond)    S(metal)    S(lipo)     H(rot)  DE(clash)    DE(int)     intcor
     15.08     -16.29       1.15        0.00      92.31       1.50       0.83       0.37       ----

> <Gold.Chemscore.Fitness>
15.0847

> <Gold.Chemscore.DG>
-16.2862

> <Gold.Chemscore.ZeroCoef>
-5.4800

> <Gold.Chemscore.Hbond>
1.1502

> <Gold.Chemscore.Metal>
0.0000

> <Gold.Chemscore.Lipo>
92.3124

> <Gold.Chemscore.Internal_Hbond>
0.0000

> <Gold.Chemscore.DEClash>
0.8304

> <Gold.Chemscore.DEInternal>
0.3711

> <Gold.Chemscore.Rot>
1.4985

> <Gold.Chemscore.Internal.Correction>
   9.000000E+99

> <Gold.Chemscore.Hbonds>
donor molecule, donor type, donor heavy atom, donor atom, acceptor molecule, acceptor atom, score
      P1  H  7989  7998       L1     1  0.01
      P1  H  7997  8010       L1    13  0.44
      P1  H 10752 10765       L1    25  0.06

> <Gold.Chemscore.Hbond.Weighted>
-3.8418

> <Gold.Chemscore.Metal.Weighted>
-0.0000

> <Gold.Chemscore.Lipo.Weighted>
-10.8005

> <Gold.Chemscore.Internal_Hbond.Weighted>
0.0000

> <Gold.Chemscore.DEClash.Weighted>
0.8304

> <Gold.Chemscore.DEInternal.Weighted>
0.3711

> <Gold.Chemscore.Rot.Weighted>
3.8362

> <Gold.Chemscore.Internal.Correction.Weighted>
   9.000000E+99

> <Gold.Protein.RotatedTorsions>
[ 6907 6896 6895 6894 ] final   97.79 input  -60.11 | X-H torsion
[ 7974 7965 7964 7962 ] final  -59.15 input  175.53 | X-H torsion
[ 8008 7997 7996 7995 ] final   12.53 input   59.86 | X-H torsion
[ 10167 10162 10161 10158 ] final  -33.28 input  -65.29 | X-H torsion
[ 10718 10713 10712 10709 ] final   69.99 input   66.30 | X-H torsion
[ 10763 10752 10751 10750 ] final -170.93 input  -60.55 | X-H torsion
[ 11005 11000 10999 10996 ] final -171.38 input  -57.11 | X-H torsion

> <Gold.Protein.ActiveResidues>
 VAL166  LYS551  ARG553  GLY616  TRP617  ASP618  TYR619  PRO620  LYS621  CYS622 
 ASP623  PHE694  ASN695  SER759  ASP760  ASP761  ALA762  ILE779  LEU786  VAL792 
 PHE793  MET794  SER795  GLU796  ALA797  LYS798  CYS799  TRP800  GLU811  SER814 

> <Gold.Protein.RotatedAtoms>
  152.5418  134.0679  159.8180 H   0  0  0  0  0  0  0  0  0  0  0  0  # atno 6907 bound_to 6896
  151.0798  133.5392  159.2628 H   0  0  0  0  0  0  0  0  0  0  0  0  # atno 6908 bound_to 6896
  151.2223  135.0532  159.9009 H   0  0  0  0  0  0  0  0  0  0  0  0  # atno 6909 bound_to 6896
  145.8309  140.8480  143.0084 H   0  0  0  0  0  0  0  0  0  0  0  0  # atno 7974 bound_to 7965
  154.8218  140.2885  155.5781 H   0  0  0  0  0  0  0  0  0  0  0  0  # atno 8008 bound_to 7997
  156.2998  140.2548  156.3057 H   0  0  0  0  0  0  0  0  0  0  0  0  # atno 8009 bound_to 7997
  154.9330  140.0383  157.2047 H   0  0  0  0  0  0  0  0  0  0  0  0  # atno 8010 bound_to 7997
  140.7207  143.3632  151.1922 H   0  0  0  0  0  0  0  0  0  0  0  0  # atno 10167 bound_to 10162
  157.6376  130.9454  150.0590 H   0  0  0  0  0  0  0  0  0  0  0  0  # atno 10718 bound_to 10713
  154.6361  135.2892  155.0159 H   0  0  0  0  0  0  0  0  0  0  0  0  # atno 10763 bound_to 10752
  154.1302  135.6534  153.4924 H   0  0  0  0  0  0  0  0  0  0  0  0  # atno 10764 bound_to 10752
  153.0303  135.5308  154.7209 H   0  0  0  0  0  0  0  0  0  0  0  0  # atno 10765 bound_to 10752
  140.5089  134.5821  157.5012 H   0  0  0  0  0  0  0  0  0  0  0  0  # atno 11005 bound_to 11000
  144.6740  140.0671  143.7474 LP  0  0  0  0  0  0  0  0  0  0  0  0  # atno 17320 bound_to 7965
  145.9572  139.2775  143.1177 LP  0  0  0  0  0  0  0  0  0  0  0  0  # atno 17321 bound_to 7965
  139.7188  143.9257  152.2977 LP  0  0  0  0  0  0  0  0  0  0  0  0  # atno 17342 bound_to 10162
  139.9007  144.6913  150.8668 LP  0  0  0  0  0  0  0  0  0  0  0  0  # atno 17343 bound_to 10162
  156.1628  130.3644  149.9275 LP  0  0  0  0  0  0  0  0  0  0  0  0  # atno 17370 bound_to 10713
  156.7269  130.9028  151.3622 LP  0  0  0  0  0  0  0  0  0  0  0  0  # atno 17371 bound_to 10713
  139.9670  134.7356  156.0118 LP  0  0  0  0  0  0  0  0  0  0  0  0  # atno 17394 bound_to 11000
  141.1396  133.6567  156.3691 LP  0  0  0  0  0  0  0  0  0  0  0  0  # atno 17395 bound_to 11000

$$$$
