AV-unprocessed.smi:3306|AV-procd|sdf|12704|dock6
  -GOLD-   2272019 43D 1   1.00000     0.00000
 Structure written by MMmdl.
 44 45  0  0  0  0  0  0  0  0  2 V2000
  145.5070  141.6154  156.2331 C   0  0  0  0  0  0  0  0  0  0  0  0
  146.4013  141.7795  154.9855 C   0  0  0  0  0  0  0  0  0  0  0  0
  146.2085  143.2086  154.4358 C   0  0  0  0  0  0  0  0  0  0  0  0
  146.1482  140.7379  153.9357 N   0  3  2  0  0  0  0  0  0  0  0  0
  146.0996  139.3417  154.4611 C   0  0  0  0  0  0  0  0  0  0  0  0
  145.7328  138.3271  153.3656 C   0  0  0  0  0  0  0  0  0  0  0  0
  146.7106  138.3958  152.1860 C   0  0  1  0  0  0  0  0  0  0  0  0
  146.2462  137.4783  151.1541 N   0  0  0  0  0  0  0  0  0  0  0  0
  146.0267  136.1339  151.6715 C   0  0  0  0  0  0  0  0  0  0  0  0
  144.8163  135.4719  150.9904 C   0  0  0  0  0  0  0  0  0  0  0  0
  144.8956  133.9542  150.9625 C   0  0  0  0  0  0  0  0  0  0  0  0
  143.7870  133.1877  150.5435 C   0  0  0  0  0  0  0  0  0  0  0  0
  143.8999  131.7839  150.5501 C   0  0  0  0  0  0  0  0  0  0  0  0
  145.1103  131.2027  150.9742 C   0  0  0  0  0  0  0  0  0  0  0  0
  146.1585  132.0551  151.3744 C   0  0  0  0  0  0  0  0  0  0  0  0
  146.0603  133.4020  151.3725 N   0  0  0  0  0  0  0  0  0  0  0  0
  146.7467  139.8416  151.6637 C   0  0  0  0  0  0  0  0  0  0  0  0
  147.0966  140.8306  152.7873 C   0  0  0  0  0  0  0  0  0  0  0  0
  145.6321  142.4542  156.9187 H   0  0  0  0  0  0  0  0  0  0  0  0
  145.7577  140.7226  156.8061 H   0  0  0  0  0  0  0  0  0  0  0  0
  144.4509  141.5676  155.9647 H   0  0  0  0  0  0  0  0  0  0  0  0
  147.4375  141.6809  155.3135 H   0  0  0  0  0  0  0  0  0  0  0  0
  146.2848  143.9485  155.2332 H   0  0  0  0  0  0  0  0  0  0  0  0
  145.2280  143.3270  153.9732 H   0  0  0  0  0  0  0  0  0  0  0  0
  146.9655  143.4829  153.7027 H   0  0  0  0  0  0  0  0  0  0  0  0
  147.0608  139.0850  154.9089 H   0  0  0  0  0  0  0  0  0  0  0  0
  145.3455  139.2438  155.2401 H   0  0  0  0  0  0  0  0  0  0  0  0
  145.7267  137.3213  153.7878 H   0  0  0  0  0  0  0  0  0  0  0  0
  144.7156  138.5230  153.0213 H   0  0  0  0  0  0  0  0  0  0  0  0
  147.7003  138.0922  152.5308 H   0  0  0  0  0  0  0  0  0  0  0  0
  145.3813  137.8193  150.7584 H   0  0  0  0  0  0  0  0  0  0  0  0
  146.9096  135.5126  151.5246 H   0  0  0  0  0  0  0  0  0  0  0  0
  145.8494  136.1944  152.7459 H   0  0  0  0  0  0  0  0  0  0  0  0
  143.9060  135.7601  151.5174 H   0  0  0  0  0  0  0  0  0  0  0  0
  144.7040  135.8494  149.9728 H   0  0  0  0  0  0  0  0  0  0  0  0
  142.8702  133.6629  150.2271 H   0  0  0  0  0  0  0  0  0  0  0  0
  143.0726  131.1642  150.2369 H   0  0  0  0  0  0  0  0  0  0  0  0
  145.2327  130.1298  150.9925 H   0  0  0  0  0  0  0  0  0  0  0  0
  147.1005  131.6441  151.7063 H   0  0  0  0  0  0  0  0  0  0  0  0
  147.4775  139.9460  150.8622 H   0  0  0  0  0  0  0  0  0  0  0  0
  145.7792  140.1075  151.2346 H   0  0  0  0  0  0  0  0  0  0  0  0
  147.0861  141.8271  152.3508 H   0  0  0  0  0  0  0  0  0  0  0  0
  148.1136  140.6506  153.1395 H   0  0  0  0  0  0  0  0  0  0  0  0
  145.2281  140.9284  153.5650 H   0  0  0  0  0  0  0  0  0  0  0  0
  1  2  1  0  0  0  0
  1 19  1  0  0  0  0
  1 20  1  0  0  0  0
  1 21  1  0  0  0  0
  2  3  1  0  0  0  0
  2  4  1  0  0  0  0
  2 22  1  0  0  0  0
  3 23  1  0  0  0  0
  3 24  1  0  0  0  0
  3 25  1  0  0  0  0
  4 18  1  0  0  0  0
  4  5  1  0  0  0  0
  4 44  1  0  0  0  0
  5  6  1  0  0  0  0
  5 26  1  0  0  0  0
  5 27  1  0  0  0  0
  6  7  1  0  0  0  0
  6 28  1  0  0  0  0
  6 29  1  0  0  0  0
  7  8  1  0  0  0  0
  7 17  1  0  0  0  0
  7 30  1  0  0  0  0
  8  9  1  0  0  0  0
  8 31  1  0  0  0  0
  9 10  1  0  0  0  0
  9 32  1  0  0  0  0
  9 33  1  0  0  0  0
 10 11  1  0  0  0  0
 10 34  1  0  0  0  0
 10 35  1  0  0  0  0
 11 16  1  0  0  0  0
 11 12  2  0  0  0  0
 12 13  1  0  0  0  0
 12 36  1  0  0  0  0
 13 14  2  0  0  0  0
 13 37  1  0  0  0  0
 14 15  1  0  0  0  0
 14 38  1  0  0  0  0
 15 16  2  0  0  0  0
 15 39  1  0  0  0  0
 17 18  1  0  0  0  0
 17 40  1  0  0  0  0
 17 41  1  0  0  0  0
 18 42  1  0  0  0  0
 18 43  1  0  0  0  0
M  CHG  1   4   1
M  END
> <s_m_source_file>
AV-unprocessed.smi

> <i_m_source_file_index>
3306

> <i_lp_mmshare_version>
43012

> <i_f3d_flags>
0

> <s_epik_input>
W0NIM11bQ0hdKFtDSDNdKU4xW0NIMl1bQ0gyXVtDSF0oW0NIMl1bQ0gyXTEpW05IXVtDSDJdW0NIMl1jMltjSF1bY0hdW2NIXVtjSF1uMg==

> <s_epik_cmdline>
J2VwaWtfcHl0aG9uJywgJy1waCcsICc3LjAnLCAnLXRuJywgJzgnLCAnLW1hJywgJzIwMCcsICctbWV0YWxfYmluZGluZycsICctaW1hZScsICc8aW5maWxlLm1hZT4nLCAnLW9tYWUnLCAnPG91dGZpbGUubWFlPic=

> <r_epik_Ionization_Penalty>
2.29993

> <r_epik_Ionization_Penalty_Charging>
0.000386008

> <r_epik_Ionization_Penalty_Neutral>
2.29954

> <r_epik_State_Penalty>
2.40593

> <r_epik_Charging_Adjusted_Penalty>
2.40631

> <i_epik_Tot_Q>
1

> <i_epik_Tot_abs_Q>
1

> <r_epik_Metal_State_Penalty>
2.31593

> <b_epik_Metal_Only>
0

> <s_lp_Force_Field>
OPLS_2005

> <r_lp_Energy>
25.7367

> <b_lp_Chiralities_Consistent>
1

> <s_lp_Variant>
AV-unprocessed.smi:3306-4

> <Gold.Version>
5.8.1

> <Gold.Id.Protein>
6NUR|6NUR_protein|mol2

> <Gold.PLP.Fitness>
44.1673

> <Gold.PLP.PLP>
-32.9237

> <Gold.PLP.part.hbond>
-3.1730

> <Gold.PLP.part.metal>
0.0000

> <Gold.PLP.part.buried>
3.6192

> <Gold.PLP.part.nonpolar>
-32.7055

> <Gold.PLP.part.repulsive>
0.1530

> <Gold.PLP.ligand.clash>
0.0000

> <Gold.PLP.ligand.torsion>
0.5665

> <Gold.PLP.Chemscore.Hbond>
3.2007

> <Gold.PLP.Chemscore.CHOScore>
0.9084

> <Gold.PLP.Chemscore.Metal>
0.0000

> <Gold.Chemscore.Hbonds>
donor molecule, donor type, donor heavy atom, donor atom, acceptor molecule, acceptor atom, score
      L1  H     4    44       P1 10175  2.00
      L1  H     8    31       P1 10171  1.00
      P1  H  7954  7966       L1     8  0.14
      L1  C    15    39       P1 10747  0.94

> <Gold.PLP.Chemscore.Internal.Correction>
0.0492

> <Gold.Rescore>
     Score         DG    S(hbond)    S(metal)    S(lipo)     H(rot)  DE(clash)    DE(int)     intcor
     18.64     -20.18       1.93        0.00     101.27       1.41       1.08       0.45       ----

> <Gold.Chemscore.Fitness>
18.6390

> <Gold.Chemscore.DG>
-20.1764

> <Gold.Chemscore.ZeroCoef>
-5.4800

> <Gold.Chemscore.Hbond>
1.9317

> <Gold.Chemscore.Metal>
0.0000

> <Gold.Chemscore.Lipo>
101.2702

> <Gold.Chemscore.Internal_Hbond>
0.0000

> <Gold.Chemscore.DEClash>
1.0825

> <Gold.Chemscore.DEInternal>
0.4550

> <Gold.Chemscore.Rot>
1.4078

> <Gold.Chemscore.Internal.Correction>
   9.000000E+99

> <Gold.Chemscore.Hbonds>
donor molecule, donor type, donor heavy atom, donor atom, acceptor molecule, acceptor atom, score
      L1  H     4    44       P1 10175  0.76
      L1  H     8    31       P1 10171  0.99
      P1  H  7954  7966       L1     8  0.01

> <Gold.Chemscore.Hbond.Weighted>
-6.4519

> <Gold.Chemscore.Metal.Weighted>
-0.0000

> <Gold.Chemscore.Lipo.Weighted>
-11.8486

> <Gold.Chemscore.Internal_Hbond.Weighted>
0.0000

> <Gold.Chemscore.DEClash.Weighted>
1.0825

> <Gold.Chemscore.DEInternal.Weighted>
0.4550

> <Gold.Chemscore.Rot.Weighted>
3.6041

> <Gold.Chemscore.Internal.Correction.Weighted>
   9.000000E+99

> <Gold.Protein.RotatedTorsions>
[ 6907 6896 6895 6894 ] final   -5.62 input  -60.11 | X-H torsion
[ 7974 7965 7964 7962 ] final   13.14 input  175.53 | X-H torsion
[ 8008 7997 7996 7995 ] final -120.15 input   59.86 | X-H torsion
[ 10167 10162 10161 10158 ] final  147.34 input  -65.29 | X-H torsion
[ 10718 10713 10712 10709 ] final  108.23 input   66.30 | X-H torsion
[ 10763 10752 10751 10750 ] final -165.33 input  -60.55 | X-H torsion
[ 11005 11000 10999 10996 ] final  -68.28 input  -57.11 | X-H torsion

> <Gold.Protein.ActiveResidues>
 VAL166  LYS551  ARG553  GLY616  TRP617  ASP618  TYR619  PRO620  LYS621  CYS622 
 ASP623  PHE694  ASN695  SER759  ASP760  ASP761  ALA762  ILE779  LEU786  VAL792 
 PHE793  MET794  SER795  GLU796  ALA797  LYS798  CYS799  TRP800  GLU811  SER814 

> <Gold.Protein.RotatedAtoms>
  151.4787  135.1051  159.9771 H   0  0  0  0  0  0  0  0  0  0  0  0  # atno 6907 bound_to 6896
  152.4788  133.8199  159.7058 H   0  0  0  0  0  0  0  0  0  0  0  0  # atno 6908 bound_to 6896
  150.8844  133.7266  159.2949 H   0  0  0  0  0  0  0  0  0  0  0  0  # atno 6909 bound_to 6896
  146.2336  139.9232  142.8507 H   0  0  0  0  0  0  0  0  0  0  0  0  # atno 7974 bound_to 7965
  155.1273  140.0399  157.2765 H   0  0  0  0  0  0  0  0  0  0  0  0  # atno 8008 bound_to 7997
  154.6569  140.2582  155.7125 H   0  0  0  0  0  0  0  0  0  0  0  0  # atno 8009 bound_to 7997
  156.2602  140.2825  156.1026 H   0  0  0  0  0  0  0  0  0  0  0  0  # atno 8010 bound_to 7997
  139.4891  144.5762  151.6960 H   0  0  0  0  0  0  0  0  0  0  0  0  # atno 10167 bound_to 10162
  157.6595  131.0889  150.6274 H   0  0  0  0  0  0  0  0  0  0  0  0  # atno 10718 bound_to 10713
  154.6942  135.2976  154.9435 H   0  0  0  0  0  0  0  0  0  0  0  0  # atno 10763 bound_to 10752
  154.0388  135.6660  153.4792 H   0  0  0  0  0  0  0  0  0  0  0  0  # atno 10764 bound_to 10752
  153.0634  135.5102  154.8051 H   0  0  0  0  0  0  0  0  0  0  0  0  # atno 10765 bound_to 10752
  141.1528  133.6737  156.6421 H   0  0  0  0  0  0  0  0  0  0  0  0  # atno 11005 bound_to 11000
  145.2116  140.9898  143.4097 LP  0  0  0  0  0  0  0  0  0  0  0  0  # atno 17320 bound_to 7965
  144.9686  139.3904  143.6320 LP  0  0  0  0  0  0  0  0  0  0  0  0  # atno 17321 bound_to 7965
  140.5359  144.0657  150.6070 LP  0  0  0  0  0  0  0  0  0  0  0  0  # atno 17342 bound_to 10162
  140.3662  143.2880  152.0329 LP  0  0  0  0  0  0  0  0  0  0  0  0  # atno 17343 bound_to 10162
  156.6578  130.4503  149.5697 LP  0  0  0  0  0  0  0  0  0  0  0  0  # atno 17370 bound_to 10713
  156.2089  130.6666  151.1248 LP  0  0  0  0  0  0  0  0  0  0  0  0  # atno 17371 bound_to 10713
  140.3385  134.7869  157.4380 LP  0  0  0  0  0  0  0  0  0  0  0  0  # atno 17394 bound_to 11000
  140.0958  134.5540  155.8400 LP  0  0  0  0  0  0  0  0  0  0  0  0  # atno 17395 bound_to 11000

$$$$
