AV-unprocessed.smi:680|AV-procd|sdf|3324|dock4
  -GOLD-   22720 0293D 1   1.00000     0.00000
 Structure written by MMmdl.
 32 33  0  0  0  0  0  0  0  0  1 V2000
  149.6915  135.6588  156.4051 C   0  0  0  0  0  0  0  0  0  0  0  0
  150.6421  136.0364  157.5026 C   0  0  0  0  0  0  0  0  0  0  0  0
  151.1968  137.3147  157.7888 C   0  0  0  0  0  0  0  0  0  0  0  0
  151.9835  137.0661  158.8818 C   0  0  0  0  0  0  0  0  0  0  0  0
  152.7604  137.9354  159.5792 N   0  0  0  0  0  0  0  0  0  0  0  0
  153.2668  139.1179  159.1867 C   0  0  0  0  0  0  0  0  0  0  0  0
  153.1054  139.6318  158.0797 O   0  0  0  0  0  0  0  0  0  0  0  0
  153.9800  139.6860  160.1702 N   0  0  0  0  0  0  0  0  0  0  0  0
  154.6490  140.9827  160.0969 C   0  0  0  0  0  0  0  0  0  0  0  0
  153.6772  142.1433  160.3849 C   0  0  1  0  0  0  0  0  0  0  0  0
  152.4844  142.1165  159.4118 C   0  0  0  0  0  0  0  0  0  0  0  0
  151.5141  143.6495  159.4683 S   0  0  0  0  0  0  0  0  0  0  0  0
  150.9525  143.5999  161.1918 C   0  0  0  0  0  0  0  0  0  0  0  0
  152.1281  143.6221  162.1759 C   0  0  0  0  0  0  0  0  0  0  0  0
  153.0951  142.0887  162.1099 S   0  0  0  0  0  0  0  0  0  0  0  0
  151.9278  135.7603  159.2399 O   0  0  0  0  0  0  0  0  0  0  0  0
  151.0638  135.1102  158.3509 N   0  0  0  0  0  0  0  0  0  0  0  0
  149.4359  136.5231  155.7917 H   0  0  0  0  0  0  0  0  0  0  0  0
  148.7638  135.2535  156.8101 H   0  0  0  0  0  0  0  0  0  0  0  0
  150.1281  134.9051  155.7495 H   0  0  0  0  0  0  0  0  0  0  0  0
  151.0333  138.2447  157.2658 H   0  0  0  0  0  0  0  0  0  0  0  0
  152.9723  137.6551  160.5253 H   0  0  0  0  0  0  0  0  0  0  0  0
  154.0563  139.1889  161.0457 H   0  0  0  0  0  0  0  0  0  0  0  0
  155.4441  140.9745  160.8429 H   0  0  0  0  0  0  0  0  0  0  0  0
  155.1396  141.1332  159.1338 H   0  0  0  0  0  0  0  0  0  0  0  0
  154.2169  143.0811  160.2454 H   0  0  0  0  0  0  0  0  0  0  0  0
  152.8394  141.9981  158.3877 H   0  0  0  0  0  0  0  0  0  0  0  0
  151.8339  141.2661  159.6195 H   0  0  0  0  0  0  0  0  0  0  0  0
  150.3124  144.4654  161.3633 H   0  0  0  0  0  0  0  0  0  0  0  0
  150.3367  142.7136  161.3474 H   0  0  0  0  0  0  0  0  0  0  0  0
  152.7813  144.4726  161.9785 H   0  0  0  0  0  0  0  0  0  0  0  0
  151.7531  143.7397  163.1926 H   0  0  0  0  0  0  0  0  0  0  0  0
  1  2  1  0  0  0  0
  1 18  1  0  0  0  0
  1 19  1  0  0  0  0
  1 20  1  0  0  0  0
  2 17  2  0  0  0  0
  2  3  1  0  0  0  0
  3  4  2  0  0  0  0
  3 21  1  0  0  0  0
  4  5  1  0  0  0  0
  4 16  1  0  0  0  0
  5  6  1  0  0  0  0
  5 22  1  0  0  0  0
  6  7  2  0  0  0  0
  6  8  1  0  0  0  0
  8  9  1  0  0  0  0
  8 23  1  0  0  0  0
  9 10  1  0  0  0  0
  9 24  1  0  0  0  0
  9 25  1  0  0  0  0
 10 15  1  0  0  0  0
 10 11  1  0  0  0  0
 10 26  1  0  0  0  0
 11 12  1  0  0  0  0
 11 27  1  0  0  0  0
 11 28  1  0  0  0  0
 12 13  1  0  0  0  0
 13 14  1  0  0  0  0
 13 29  1  0  0  0  0
 13 30  1  0  0  0  0
 14 15  1  0  0  0  0
 14 31  1  0  0  0  0
 14 32  1  0  0  0  0
 16 17  1  0  0  0  0
M  END
> <s_m_source_file>
AV-unprocessed.smi

> <i_m_source_file_index>
680

> <i_lp_mmshare_version>
43012

> <i_f3d_flags>
0

> <s_epik_input>
W0NIM11jMVtjSF1jKG9uMSlbTkhdQyg9TylbTkhdW0NIMl1bQ0BASF0yW0NIMl1TW0NIMl1bQ0gyXVMy

> <s_epik_cmdline>
J2VwaWtfcHl0aG9uJywgJy1waCcsICc3LjAnLCAnLXRuJywgJzgnLCAnLW1hJywgJzIwMCcsICctbWV0YWxfYmluZGluZycsICctaW1hZScsICc8aW5maWxlLm1hZT4nLCAnLW9tYWUnLCAnPG91dGZpbGUubWFlPic=

> <r_epik_Ionization_Penalty>
0.000554698

> <r_epik_Ionization_Penalty_Charging>
0

> <r_epik_Ionization_Penalty_Neutral>
0.000554698

> <r_epik_State_Penalty>
0.000333438

> <r_epik_Charging_Adjusted_Penalty>
0.000333438

> <i_epik_Tot_Q>
0

> <i_epik_Tot_abs_Q>
0

> <r_epik_Metal_State_Penalty>
-0

> <b_epik_Metal_Only>
0

> <s_lp_Force_Field>
OPLS_2005

> <r_lp_Energy>
4.32293

> <b_lp_Chiralities_Consistent>
1

> <s_lp_Variant>
AV-unprocessed.smi:680-2

> <Gold.Version>
5.8.1

> <Gold.Id.Protein>
6NUR|6NUR_protein|mol2

> <Gold.PLP.Fitness>
38.0278

> <Gold.PLP.PLP>
-32.7439

> <Gold.PLP.part.hbond>
-2.4014

> <Gold.PLP.part.metal>
0.0000

> <Gold.PLP.part.buried>
-5.0466

> <Gold.PLP.part.nonpolar>
-26.1010

> <Gold.PLP.part.repulsive>
0.1950

> <Gold.PLP.ligand.clash>
0.0000

> <Gold.PLP.ligand.torsion>
0.2755

> <Gold.PLP.Chemscore.Hbond>
1.9440

> <Gold.PLP.Chemscore.CHOScore>
0.0000

> <Gold.PLP.Chemscore.Metal>
0.0000

> <Gold.Chemscore.Hbonds>
donor molecule, donor type, donor heavy atom, donor atom, acceptor molecule, acceptor atom, score
      P1  H  7997  8009       L1     7  1.00

> <Gold.PLP.Chemscore.Internal.Correction>
0.0029

> <Gold.Rescore>
     Score         DG    S(hbond)    S(metal)    S(lipo)     H(rot)  DE(clash)    DE(int)     intcor
     17.01     -18.44       1.84        0.00      85.82       1.26       0.10       1.33       ----

> <Gold.Chemscore.Fitness>
17.0100

> <Gold.Chemscore.DG>
-18.4401

> <Gold.Chemscore.ZeroCoef>
-5.4800

> <Gold.Chemscore.Hbond>
1.8391

> <Gold.Chemscore.Metal>
0.0000

> <Gold.Chemscore.Lipo>
85.8169

> <Gold.Chemscore.Internal_Hbond>
0.0000

> <Gold.Chemscore.DEClash>
0.0963

> <Gold.Chemscore.DEInternal>
1.3339

> <Gold.Chemscore.Rot>
1.2590

> <Gold.Chemscore.Internal.Correction>
   9.000000E+99

> <Gold.Chemscore.Hbonds>
donor molecule, donor type, donor heavy atom, donor atom, acceptor molecule, acceptor atom, score
      P1  H  7997  8009       L1     7  0.94

> <Gold.Chemscore.Hbond.Weighted>
-6.1427

> <Gold.Chemscore.Metal.Weighted>
-0.0000

> <Gold.Chemscore.Lipo.Weighted>
-10.0406

> <Gold.Chemscore.Internal_Hbond.Weighted>
0.0000

> <Gold.Chemscore.DEClash.Weighted>
0.0963

> <Gold.Chemscore.DEInternal.Weighted>
1.3339

> <Gold.Chemscore.Rot.Weighted>
3.2232

> <Gold.Chemscore.Internal.Correction.Weighted>
   9.000000E+99

> <Gold.Protein.RotatedTorsions>
[ 6907 6896 6895 6894 ] final  -49.56 input  -60.11 | X-H torsion
[ 7974 7965 7964 7962 ] final   -2.56 input  175.53 | X-H torsion
[ 8008 7997 7996 7995 ] final  148.53 input   59.86 | X-H torsion
[ 10167 10162 10161 10158 ] final  115.57 input  -65.29 | X-H torsion
[ 10718 10713 10712 10709 ] final  -34.45 input   66.30 | X-H torsion
[ 10763 10752 10751 10750 ] final -129.89 input  -60.55 | X-H torsion
[ 11005 11000 10999 10996 ] final   76.21 input  -57.11 | X-H torsion

> <Gold.Protein.ActiveResidues>
 VAL166  LYS551  ARG553  GLY616  TRP617  ASP618  TYR619  PRO620  LYS621  CYS622 
 ASP623  PHE694  ASN695  SER759  ASP760  ASP761  ALA762  ILE779  LEU786  VAL792 
 PHE793  MET794  SER795  GLU796  ALA797  LYS798  CYS799  TRP800  GLU811  SER814 

> <Gold.Protein.RotatedAtoms>
  150.8793  134.8181  159.7212 H   0  0  0  0  0  0  0  0  0  0  0  0  # atno 6907 bound_to 6896
  152.4767  134.4821  159.9679 H   0  0  0  0  0  0  0  0  0  0  0  0  # atno 6908 bound_to 6896
  151.4899  133.3488  159.2887 H   0  0  0  0  0  0  0  0  0  0  0  0  # atno 6909 bound_to 6896
  146.2403  140.1589  142.8333 H   0  0  0  0  0  0  0  0  0  0  0  0  # atno 7974 bound_to 7965
  156.2788  140.2126  156.5713 H   0  0  0  0  0  0  0  0  0  0  0  0  # atno 8008 bound_to 7997
  154.7134  140.0510  157.0594 H   0  0  0  0  0  0  0  0  0  0  0  0  # atno 8009 bound_to 7997
  155.0575  140.3163  155.4674 H   0  0  0  0  0  0  0  0  0  0  0  0  # atno 8010 bound_to 7997
  139.6308  144.7114  151.2437 H   0  0  0  0  0  0  0  0  0  0  0  0  # atno 10167 bound_to 10162
  156.3505  130.4307  149.7709 H   0  0  0  0  0  0  0  0  0  0  0  0  # atno 10718 bound_to 10713
  154.8757  135.3880  154.3993 H   0  0  0  0  0  0  0  0  0  0  0  0  # atno 10763 bound_to 10752
  153.4720  135.7030  153.5993 H   0  0  0  0  0  0  0  0  0  0  0  0  # atno 10764 bound_to 10752
  153.4446  135.3848  155.2216 H   0  0  0  0  0  0  0  0  0  0  0  0  # atno 10765 bound_to 10752
  139.9308  134.7582  156.1368 H   0  0  0  0  0  0  0  0  0  0  0  0  # atno 11005 bound_to 11000
  145.0106  140.8710  143.5226 LP  0  0  0  0  0  0  0  0  0  0  0  0  # atno 17320 bound_to 7965
  145.1622  139.2452  143.5386 LP  0  0  0  0  0  0  0  0  0  0  0  0  # atno 17321 bound_to 7965
  140.7437  143.6484  150.8270 LP  0  0  0  0  0  0  0  0  0  0  0  0  # atno 17342 bound_to 10162
  140.0109  143.5644  152.2839 LP  0  0  0  0  0  0  0  0  0  0  0  0  # atno 17343 bound_to 10162
  156.4911  130.8085  151.3095 LP  0  0  0  0  0  0  0  0  0  0  0  0  # atno 17370 bound_to 10713
  157.7460  130.9975  150.2818 LP  0  0  0  0  0  0  0  0  0  0  0  0  # atno 17371 bound_to 10713
  141.0895  133.6720  156.2510 LP  0  0  0  0  0  0  0  0  0  0  0  0  # atno 17394 bound_to 11000
  140.6207  134.5364  157.5547 LP  0  0  0  0  0  0  0  0  0  0  0  0  # atno 17395 bound_to 11000

$$$$
