AV-unprocessed.smi:290|AV-procd|sdf|2240|dock9
  -GOLD-   2262022113D 1   1.00000     0.00000
 Structure written by MMmdl.
 59 62  0  0  0  0  0  0  0  0  2 V2000
  149.7119  137.6943  155.4720 C   0  0  0  0  0  0  0  0  0  0  0  0
  149.6293  139.1032  156.0815 C   0  0  1  0  0  0  0  0  0  0  0  0
  150.6970  139.3148  157.0048 O   0  0  0  0  0  0  0  0  0  0  0  0
  151.4553  140.4534  156.6219 C   0  0  0  0  0  0  0  0  0  0  0  0
  150.4662  141.3213  155.8555 C   0  0  0  0  0  0  0  0  0  0  0  0
  149.6498  140.2899  155.0893 C   0  0  1  0  0  0  0  0  0  0  0  0
  150.3590  139.9497  153.9081 O   0  0  0  0  0  0  0  0  0  0  0  0
  148.2346  140.7721  154.6906 C   0  0  0  0  0  0  0  0  0  0  0  0
  147.5193  139.8311  153.8418 N   0  0  0  0  0  0  0  0  0  0  0  0
  147.2515  139.9729  152.5004 C   0  0  0  0  0  0  0  0  0  0  0  0
  146.5835  138.9902  151.9625 N   0  0  0  0  0  0  0  0  0  0  0  0
  146.3865  138.0887  153.0042 C   0  0  0  0  0  0  0  0  0  0  0  0
  145.7432  136.8195  153.1305 C   0  0  0  0  0  0  0  0  0  0  0  0
  145.1257  136.1429  152.1250 N   0  0  0  0  0  0  0  0  0  0  0  0
  145.5416  136.3057  150.7426 C   0  0  0  0  0  0  0  0  0  0  0  0
  145.3046  134.9418  150.1093 C   0  0  0  0  0  0  0  0  0  0  0  0
  144.0994  134.3725  150.8756 C   0  0  1  0  0  0  0  0  0  0  0  0
  144.0368  132.8783  150.7972 N   0  3  2  0  0  0  0  0  0  0  0  0
  144.9250  132.2413  151.8049 C   0  0  0  0  0  0  0  0  0  0  0  0
  144.2419  132.3208  149.4287 C   0  0  0  0  0  0  0  0  0  0  0  0
  143.1686  132.7412  148.4064 C   0  0  0  0  0  0  0  0  0  0  0  0
  143.5132  133.9768  147.8160 O   0  0  0  0  0  0  0  0  0  0  0  0
  144.2787  134.9664  152.2993 C   0  0  2  0  0  0  0  0  0  0  0  0
  142.9377  135.3717  152.9508 C   0  0  0  0  0  0  0  0  0  0  0  0
  145.7504  136.2418  154.3606 N   0  0  0  0  0  0  0  0  0  0  0  0
  146.3441  136.8439  155.3939 C   0  0  0  0  0  0  0  0  0  0  0  0
  146.9802  138.0146  155.4212 N   0  0  0  0  0  0  0  0  0  0  0  0
  146.9734  138.6094  154.1949 C   0  0  0  0  0  0  0  0  0  0  0  0
  143.1900  134.7864  150.4355 H   0  0  0  0  0  0  0  0  0  0  0  0
  144.8174  134.2504  152.9189 H   0  0  0  0  0  0  0  0  0  0  0  0
  148.9077  137.5295  154.7550 H   0  0  0  0  0  0  0  0  0  0  0  0
  149.6256  136.9333  156.2476 H   0  0  0  0  0  0  0  0  0  0  0  0
  150.6609  137.5317  154.9604 H   0  0  0  0  0  0  0  0  0  0  0  0
  148.7172  139.1600  156.6768 H   0  0  0  0  0  0  0  0  0  0  0  0
  151.8820  140.9612  157.4869 H   0  0  0  0  0  0  0  0  0  0  0  0
  152.2735  140.1360  155.9741 H   0  0  0  0  0  0  0  0  0  0  0  0
  149.8322  141.8491  156.5689 H   0  0  0  0  0  0  0  0  0  0  0  0
  150.9476  142.0662  155.2205 H   0  0  0  0  0  0  0  0  0  0  0  0
  149.7704  140.0269  153.1732 H   0  0  0  0  0  0  0  0  0  0  0  0
  147.6339  140.9548  155.5827 H   0  0  0  0  0  0  0  0  0  0  0  0
  148.2938  141.7258  154.1644 H   0  0  0  0  0  0  0  0  0  0  0  0
  147.5627  140.8379  151.9323 H   0  0  0  0  0  0  0  0  0  0  0  0
  144.9205  137.0691  150.2724 H   0  0  0  0  0  0  0  0  0  0  0  0
  146.5864  136.6044  150.6471 H   0  0  0  0  0  0  0  0  0  0  0  0
  145.1393  135.0205  149.0346 H   0  0  0  0  0  0  0  0  0  0  0  0
  146.1823  134.3137  150.2711 H   0  0  0  0  0  0  0  0  0  0  0  0
  145.9744  132.3978  151.5526 H   0  0  0  0  0  0  0  0  0  0  0  0
  144.7463  131.1704  151.8829 H   0  0  0  0  0  0  0  0  0  0  0  0
  144.7573  132.6380  152.8050 H   0  0  0  0  0  0  0  0  0  0  0  0
  145.1938  132.6602  149.0252 H   0  0  0  0  0  0  0  0  0  0  0  0
  144.2914  131.2328  149.4872 H   0  0  0  0  0  0  0  0  0  0  0  0
  143.1105  131.9938  147.6146 H   0  0  0  0  0  0  0  0  0  0  0  0
  142.1717  132.7963  148.8420 H   0  0  0  0  0  0  0  0  0  0  0  0
  144.4509  134.0869  147.8722 H   0  0  0  0  0  0  0  0  0  0  0  0
  142.2581  134.5304  153.0702 H   0  0  0  0  0  0  0  0  0  0  0  0
  142.4215  136.1188  152.3469 H   0  0  0  0  0  0  0  0  0  0  0  0
  143.0834  135.8051  153.9396 H   0  0  0  0  0  0  0  0  0  0  0  0
  146.3022  136.3120  156.3329 H   0  0  0  0  0  0  0  0  0  0  0  0
  143.0910  132.6285  151.0501 H   0  0  0  0  0  0  0  0  0  0  0  0
  1  2  1  0  0  0  0
  1 31  1  0  0  0  0
  1 32  1  0  0  0  0
  1 33  1  0  0  0  0
  2  6  1  0  0  0  0
  2  3  1  0  0  0  0
  2 34  1  0  0  0  0
  3  4  1  0  0  0  0
  4  5  1  0  0  0  0
  4 35  1  0  0  0  0
  4 36  1  0  0  0  0
  5  6  1  0  0  0  0
  5 37  1  0  0  0  0
  5 38  1  0  0  0  0
  6  7  1  0  0  0  0
  6  8  1  0  0  0  0
  7 39  1  0  0  0  0
  8  9  1  0  0  0  0
  8 40  1  0  0  0  0
  8 41  1  0  0  0  0
  9 28  1  0  0  0  0
  9 10  1  0  0  0  0
 10 11  2  0  0  0  0
 10 42  1  0  0  0  0
 11 12  1  0  0  0  0
 12 28  2  0  0  0  0
 12 13  1  0  0  0  0
 13 14  1  0  0  0  0
 13 25  2  0  0  0  0
 14 23  1  0  0  0  0
 14 15  1  0  0  0  0
 15 16  1  0  0  0  0
 15 43  1  0  0  0  0
 15 44  1  0  0  0  0
 16 17  1  0  0  0  0
 16 45  1  0  0  0  0
 16 46  1  0  0  0  0
 17 29  1  0  0  0  0
 17 18  1  0  0  0  0
 17 23  1  0  0  0  0
 18 19  1  0  0  0  0
 18 20  1  0  0  0  0
 18 59  1  0  0  0  0
 19 47  1  0  0  0  0
 19 48  1  0  0  0  0
 19 49  1  0  0  0  0
 20 21  1  0  0  0  0
 20 50  1  0  0  0  0
 20 51  1  0  0  0  0
 21 22  1  0  0  0  0
 21 52  1  0  0  0  0
 21 53  1  0  0  0  0
 22 54  1  0  0  0  0
 23 30  1  0  0  0  0
 23 24  1  0  0  0  0
 24 55  1  0  0  0  0
 24 56  1  0  0  0  0
 24 57  1  0  0  0  0
 25 26  1  0  0  0  0
 26 27  2  0  0  0  0
 26 58  1  0  0  0  0
 27 28  1  0  0  0  0
M  CHG  1  18   1
M  END
> <s_m_source_file>
AV-unprocessed.smi

> <i_m_source_file_index>
290

> <i_lp_mmshare_version>
43012

> <i_f3d_flags>
0

> <s_epik_input>
W0NIMl0xW0NIMl1PW0NAQEhdKFtDSDNdKVtDQEBdMShbT0hdKVtDSDJdbihbY0hdbjIpYyhjMjMpbltjSF1uYzNONFtDSDJdW0NIMl1bQ0BIXShbQ0BIXTRbQ0gzXSlOKFtDSDNdKVtDSDJdW0NIMl1bT0hd

> <s_epik_cmdline>
J2VwaWtfcHl0aG9uJywgJy1waCcsICc3LjAnLCAnLXRuJywgJzgnLCAnLW1hJywgJzIwMCcsICctbWV0YWxfYmluZGluZycsICctaW1hZScsICc8aW5maWxlLm1hZT4nLCAnLW9tYWUnLCAnPG91dGZpbGUubWFlPic=

> <r_lp_tautomer_probability>
1

> <r_epik_Ionization_Penalty>
0.0036983

> <r_epik_Ionization_Penalty_Charging>
0.0032725

> <r_epik_Ionization_Penalty_Neutral>
0.000425798

> <r_epik_State_Penalty>
-0

> <r_epik_Charging_Adjusted_Penalty>
0.0032725

> <i_epik_Tot_Q>
1

> <i_epik_Tot_abs_Q>
1

> <r_epik_Metal_State_Penalty>
-0

> <b_epik_Metal_Only>
0

> <s_lp_Force_Field>
OPLS_2005

> <r_lp_Energy>
64.7492

> <b_lp_Chiralities_Consistent>
1

> <s_lp_Variant>
AV-unprocessed.smi:290-26

> <Gold.Version>
5.8.1

> <Gold.Id.Protein>
6NUR|6NUR_protein|mol2

> <Gold.PLP.Fitness>
51.6529

> <Gold.PLP.PLP>
-40.7736

> <Gold.PLP.part.hbond>
-5.6267

> <Gold.PLP.part.metal>
0.0000

> <Gold.PLP.part.buried>
3.1245

> <Gold.PLP.part.nonpolar>
-38.8637

> <Gold.PLP.part.repulsive>
0.4490

> <Gold.PLP.ligand.clash>
0.0000

> <Gold.PLP.ligand.torsion>
0.9252

> <Gold.PLP.Chemscore.Hbond>
3.7920

> <Gold.PLP.Chemscore.CHOScore>
0.3501

> <Gold.PLP.Chemscore.Metal>
0.0000

> <Gold.Chemscore.Hbonds>
donor molecule, donor type, donor heavy atom, donor atom, acceptor molecule, acceptor atom, score
      L1  H     7    39       P1  7957  0.90
      L1  H    22    54       P1  7921  1.00
      P1  H  7989  7998       L1     7  0.99
      P1  H 10192 10197       L1    22  1.00
      L1  C    10    42       P1  7957  0.39

> <Gold.PLP.Chemscore.Internal.Correction>
0.3032

> <Gold.Rescore>
     Score         DG    S(hbond)    S(metal)    S(lipo)     H(rot)  DE(clash)    DE(int)     intcor
     15.20     -19.92       3.31        0.00     102.30       3.35       2.51       2.21       ----

> <Gold.Chemscore.Fitness>
15.2031

> <Gold.Chemscore.DG>
-19.9216

> <Gold.Chemscore.ZeroCoef>
-5.4800

> <Gold.Chemscore.Hbond>
3.3092

> <Gold.Chemscore.Metal>
0.0000

> <Gold.Chemscore.Lipo>
102.3027

> <Gold.Chemscore.Internal_Hbond>
0.0000

> <Gold.Chemscore.DEClash>
2.5133

> <Gold.Chemscore.DEInternal>
2.2052

> <Gold.Chemscore.Rot>
3.3518

> <Gold.Chemscore.Internal.Correction>
   9.000000E+99

> <Gold.Chemscore.Hbonds>
donor molecule, donor type, donor heavy atom, donor atom, acceptor molecule, acceptor atom, score
      L1  H     7    39       P1  7957  0.83
      L1  H    22    54       P1  7921  0.99
      P1  H  7989  7998       L1     7  0.36
      P1  H 10192 10197       L1    22  0.90

> <Gold.Chemscore.Hbond.Weighted>
-11.0527

> <Gold.Chemscore.Metal.Weighted>
-0.0000

> <Gold.Chemscore.Lipo.Weighted>
-11.9694

> <Gold.Chemscore.Internal_Hbond.Weighted>
0.0000

> <Gold.Chemscore.DEClash.Weighted>
2.5133

> <Gold.Chemscore.DEInternal.Weighted>
2.2052

> <Gold.Chemscore.Rot.Weighted>
8.5806

> <Gold.Chemscore.Internal.Correction.Weighted>
   9.000000E+99

> <Gold.Protein.RotatedTorsions>
[ 6907 6896 6895 6894 ] final  -96.57 input  -60.11 | X-H torsion
[ 7974 7965 7964 7962 ] final  -15.32 input  175.53 | X-H torsion
[ 8008 7997 7996 7995 ] final  174.45 input   59.86 | X-H torsion
[ 10167 10162 10161 10158 ] final  177.80 input  -65.29 | X-H torsion
[ 10718 10713 10712 10709 ] final   37.17 input   66.30 | X-H torsion
[ 10763 10752 10751 10750 ] final  -97.95 input  -60.55 | X-H torsion
[ 11005 11000 10999 10996 ] final   30.17 input  -57.11 | X-H torsion

> <Gold.Protein.ActiveResidues>
 VAL166  LYS551  ARG553  GLY616  TRP617  ASP618  TYR619  PRO620  LYS621  CYS622 
 ASP623  PHE694  ASN695  SER759  ASP760  ASP761  ALA762  ILE779  LEU786  VAL792 
 PHE793  MET794  SER795  GLU796  ALA797  LYS798  CYS799  TRP800  GLU811  SER814 

> <Gold.Protein.RotatedAtoms>
  150.6992  134.1483  159.4130 H   0  0  0  0  0  0  0  0  0  0  0  0  # atno 6907 bound_to 6896
  151.9466  135.0186  160.0548 H   0  0  0  0  0  0  0  0  0  0  0  0  # atno 6908 bound_to 6896
  152.2047  133.4832  159.5114 H   0  0  0  0  0  0  0  0  0  0  0  0  # atno 6909 bound_to 6896
  146.2037  140.3475  142.8414 H   0  0  0  0  0  0  0  0  0  0  0  0  # atno 7974 bound_to 7965
  156.0972  140.1434  156.9515 H   0  0  0  0  0  0  0  0  0  0  0  0  # atno 8008 bound_to 7997
  154.4679  140.0920  156.7114 H   0  0  0  0  0  0  0  0  0  0  0  0  # atno 8009 bound_to 7997
  155.4820  140.3445  155.4343 H   0  0  0  0  0  0  0  0  0  0  0  0  # atno 8010 bound_to 7997
  139.5268  144.2755  152.0591 H   0  0  0  0  0  0  0  0  0  0  0  0  # atno 10167 bound_to 10162
  157.3437  130.7561  149.6930 H   0  0  0  0  0  0  0  0  0  0  0  0  # atno 10718 bound_to 10713
  154.7372  135.5027  153.9062 H   0  0  0  0  0  0  0  0  0  0  0  0  # atno 10763 bound_to 10752
  153.1007  135.6684  153.9686 H   0  0  0  0  0  0  0  0  0  0  0  0  # atno 10764 bound_to 10752
  153.9473  135.3061  155.3419 H   0  0  0  0  0  0  0  0  0  0  0  0  # atno 10765 bound_to 10752
  140.2972  134.2798  155.7762 H   0  0  0  0  0  0  0  0  0  0  0  0  # atno 11005 bound_to 11000
  144.8742  140.7314  143.6027 LP  0  0  0  0  0  0  0  0  0  0  0  0  # atno 17320 bound_to 7965
  145.3395  139.1736  143.4493 LP  0  0  0  0  0  0  0  0  0  0  0  0  # atno 17321 bound_to 7965
  140.2213  144.4463  150.6341 LP  0  0  0  0  0  0  0  0  0  0  0  0  # atno 17342 bound_to 10162
  140.6417  143.2205  151.6276 LP  0  0  0  0  0  0  0  0  0  0  0  0  # atno 17343 bound_to 10162
  155.9711  130.4160  150.4210 LP  0  0  0  0  0  0  0  0  0  0  0  0  # atno 17370 bound_to 10713
  157.2262  131.0494  151.2518 LP  0  0  0  0  0  0  0  0  0  0  0  0  # atno 17371 bound_to 10713
  141.2135  133.7623  156.9713 LP  0  0  0  0  0  0  0  0  0  0  0  0  # atno 17394 bound_to 11000
  140.1142  134.9458  157.2110 LP  0  0  0  0  0  0  0  0  0  0  0  0  # atno 17395 bound_to 11000

$$$$
