AV-unprocessed.smi:2494|AV-procd|sdf|9822|dock3
  -GOLD-   2272013453D 1   1.00000     0.00000
 Structure written by MMmdl.
 30 31  0  0  0  0  0  0  0  0  1 V2000
  150.7170  145.6051  160.4194 O   0  0  0  0  0  0  0  0  0  0  0  0
  151.8938  144.9753  159.9606 C   0  0  0  0  0  0  0  0  0  0  0  0
  151.5895  143.5152  159.5864 C   0  0  0  0  0  0  0  0  0  0  0  0
  152.8093  142.5624  159.7049 C   0  0  1  0  0  0  0  0  0  0  0  0
  153.3809  142.5937  161.1445 C   0  0  0  0  0  0  0  0  0  0  0  0
  154.4550  141.6744  161.2903 O   0  0  0  0  0  0  0  0  0  0  0  0
  154.0313  140.3401  161.0590 C   0  0  0  0  0  0  0  0  0  0  0  0
  153.5469  140.2249  159.6093 C   0  0  0  0  0  0  0  0  0  0  0  0
  152.4745  141.1773  159.3357 N   0  0  0  0  0  0  0  0  0  0  0  0
  151.8186  140.9092  158.1408 C   0  0  0  0  0  0  0  0  0  0  0  0
  150.6130  141.4624  157.9497 N   0  0  0  0  0  0  0  0  0  0  0  0
  150.0025  141.2158  156.7703 C   0  0  0  0  0  0  0  0  0  0  0  0
  150.6091  140.4200  155.7785 C   0  0  0  0  0  0  0  0  0  0  0  0
  149.8350  140.1035  154.2698 Cl  0  0  0  0  0  0  0  0  0  0  0  0
  151.8823  139.8986  156.0825 C   0  0  0  0  0  0  0  0  0  0  0  0
  152.4859  140.1503  157.2644 N   0  0  0  0  0  0  0  0  0  0  0  0
  150.7381  145.6308  161.3640 H   0  0  0  0  0  0  0  0  0  0  0  0
  152.2749  145.5221  159.0977 H   0  0  0  0  0  0  0  0  0  0  0  0
  152.6430  145.0379  160.7491 H   0  0  0  0  0  0  0  0  0  0  0  0
  150.7726  143.1416  160.2055 H   0  0  0  0  0  0  0  0  0  0  0  0
  151.2090  143.5196  158.5656 H   0  0  0  0  0  0  0  0  0  0  0  0
  153.5867  142.9029  159.0192 H   0  0  0  0  0  0  0  0  0  0  0  0
  153.7678  143.5832  161.3847 H   0  0  0  0  0  0  0  0  0  0  0  0
  152.6043  142.3715  161.8787 H   0  0  0  0  0  0  0  0  0  0  0  0
  154.8704  139.6657  161.2299 H   0  0  0  0  0  0  0  0  0  0  0  0
  153.2452  140.0595  161.7621 H   0  0  0  0  0  0  0  0  0  0  0  0
  154.3743  140.4138  158.9238 H   0  0  0  0  0  0  0  0  0  0  0  0
  153.2045  139.2065  159.4213 H   0  0  0  0  0  0  0  0  0  0  0  0
  149.0289  141.6578  156.6184 H   0  0  0  0  0  0  0  0  0  0  0  0
  152.4193  139.2812  155.3777 H   0  0  0  0  0  0  0  0  0  0  0  0
  1  2  1  0  0  0  0
  1 17  1  0  0  0  0
  2  3  1  0  0  0  0
  2 18  1  0  0  0  0
  2 19  1  0  0  0  0
  3  4  1  0  0  0  0
  3 20  1  0  0  0  0
  3 21  1  0  0  0  0
  4  9  1  0  0  0  0
  4  5  1  0  0  0  0
  4 22  1  0  0  0  0
  5  6  1  0  0  0  0
  5 23  1  0  0  0  0
  5 24  1  0  0  0  0
  6  7  1  0  0  0  0
  7  8  1  0  0  0  0
  7 25  1  0  0  0  0
  7 26  1  0  0  0  0
  8  9  1  0  0  0  0
  8 27  1  0  0  0  0
  8 28  1  0  0  0  0
  9 10  1  0  0  0  0
 10 16  1  0  0  0  0
 10 11  2  0  0  0  0
 11 12  1  0  0  0  0
 12 13  2  0  0  0  0
 12 29  1  0  0  0  0
 13 14  1  0  0  0  0
 13 15  1  0  0  0  0
 15 16  2  0  0  0  0
 15 30  1  0  0  0  0
M  END
> <s_m_source_file>
AV-unprocessed.smi

> <i_m_source_file_index>
2494

> <i_lp_mmshare_version>
43012

> <i_f3d_flags>
0

> <s_epik_input>
W09IXVtDSDJdW0NIMl1bQ0BASF0xW0NIMl1PW0NIMl1bQ0gyXU4xYzJuW2NIXWMoQ2wpW2NIXW4y

> <s_epik_cmdline>
J2VwaWtfcHl0aG9uJywgJy1waCcsICc3LjAnLCAnLXRuJywgJzgnLCAnLW1hJywgJzIwMCcsICctbWV0YWxfYmluZGluZycsICctaW1hZScsICc8aW5maWxlLm1hZT4nLCAnLW9tYWUnLCAnPG91dGZpbGUubWFlPic=

> <r_lp_tautomer_probability>
1

> <r_epik_Ionization_Penalty>
3.66811e-07

> <r_epik_Ionization_Penalty_Charging>
0

> <r_epik_Ionization_Penalty_Neutral>
3.66811e-07

> <r_epik_State_Penalty>
-0

> <r_epik_Charging_Adjusted_Penalty>
0

> <i_epik_Tot_Q>
0

> <i_epik_Tot_abs_Q>
0

> <r_epik_Metal_State_Penalty>
-0

> <b_epik_Metal_Only>
0

> <s_lp_Force_Field>
OPLS_2005

> <r_lp_Energy>
15.3646

> <b_lp_Chiralities_Consistent>
1

> <s_lp_Variant>
AV-unprocessed.smi:2494-2

> <Gold.Version>
5.8.1

> <Gold.Id.Protein>
6NUR|6NUR_protein|mol2

> <Gold.PLP.Fitness>
36.6880

> <Gold.PLP.PLP>
-34.2121

> <Gold.PLP.part.hbond>
-3.9518

> <Gold.PLP.part.metal>
0.0000

> <Gold.PLP.part.buried>
-1.4669

> <Gold.PLP.part.nonpolar>
-27.8290

> <Gold.PLP.part.repulsive>
0.0328

> <Gold.PLP.ligand.clash>
0.0000

> <Gold.PLP.ligand.torsion>
0.4236

> <Gold.PLP.Chemscore.Hbond>
1.0000

> <Gold.PLP.Chemscore.CHOScore>
0.0000

> <Gold.PLP.Chemscore.Metal>
0.0000

> <Gold.Chemscore.Hbonds>
donor molecule, donor type, donor heavy atom, donor atom, acceptor molecule, acceptor atom, score
      P1  H  7997  8010       L1    16  0.95

> <Gold.PLP.Chemscore.Internal.Correction>
0.3231

> <Gold.Rescore>
     Score         DG    S(hbond)    S(metal)    S(lipo)     H(rot)  DE(clash)    DE(int)     intcor
     10.87     -13.29       0.83        0.00      87.76       2.04       0.68       1.74       ----

> <Gold.Chemscore.Fitness>
10.8737

> <Gold.Chemscore.DG>
-13.2942

> <Gold.Chemscore.ZeroCoef>
-5.4800

> <Gold.Chemscore.Hbond>
0.8308

> <Gold.Chemscore.Metal>
0.0000

> <Gold.Chemscore.Lipo>
87.7577

> <Gold.Chemscore.Internal_Hbond>
0.0000

> <Gold.Chemscore.DEClash>
0.6779

> <Gold.Chemscore.DEInternal>
1.7427

> <Gold.Chemscore.Rot>
2.0424

> <Gold.Chemscore.Internal.Correction>
   9.000000E+99

> <Gold.Chemscore.Hbonds>
donor molecule, donor type, donor heavy atom, donor atom, acceptor molecule, acceptor atom, score
      P1  H  7997  8010       L1    16  0.20

> <Gold.Chemscore.Hbond.Weighted>
-2.7750

> <Gold.Chemscore.Metal.Weighted>
-0.0000

> <Gold.Chemscore.Lipo.Weighted>
-10.2676

> <Gold.Chemscore.Internal_Hbond.Weighted>
0.0000

> <Gold.Chemscore.DEClash.Weighted>
0.6779

> <Gold.Chemscore.DEInternal.Weighted>
1.7427

> <Gold.Chemscore.Rot.Weighted>
5.2285

> <Gold.Chemscore.Internal.Correction.Weighted>
   9.000000E+99

> <Gold.Protein.RotatedTorsions>
[ 6907 6896 6895 6894 ] final   16.77 input  -60.11 | X-H torsion
[ 7974 7965 7964 7962 ] final  179.51 input  175.53 | X-H torsion
[ 8008 7997 7996 7995 ] final   58.93 input   59.86 | X-H torsion
[ 10167 10162 10161 10158 ] final  108.03 input  -65.29 | X-H torsion
[ 10718 10713 10712 10709 ] final  -81.74 input   66.30 | X-H torsion
[ 10763 10752 10751 10750 ] final    2.34 input  -60.55 | X-H torsion
[ 11005 11000 10999 10996 ] final  117.62 input  -57.11 | X-H torsion

> <Gold.Protein.ActiveResidues>
 VAL166  LYS551  ARG553  GLY616  TRP617  ASP618  TYR619  PRO620  LYS621  CYS622 
 ASP623  PHE694  ASN695  SER759  ASP760  ASP761  ALA762  ILE779  LEU786  VAL792 
 PHE793  MET794  SER795  GLU796  ALA797  LYS798  CYS799  TRP800  GLU811  SER814 

> <Gold.Protein.RotatedAtoms>
  151.8391  135.0596  160.0445 H   0  0  0  0  0  0  0  0  0  0  0  0  # atno 6907 bound_to 6896
  152.2823  133.5477  159.5513 H   0  0  0  0  0  0  0  0  0  0  0  0  # atno 6908 bound_to 6896
  150.7194  134.0463  159.3825 H   0  0  0  0  0  0  0  0  0  0  0  0  # atno 6909 bound_to 6896
  144.7145  140.0559  143.6434 H   0  0  0  0  0  0  0  0  0  0  0  0  # atno 7974 bound_to 7965
  155.5581  140.3487  155.4484 H   0  0  0  0  0  0  0  0  0  0  0  0  # atno 8008 bound_to 7997
  156.0535  140.1323  157.0049 H   0  0  0  0  0  0  0  0  0  0  0  0  # atno 8009 bound_to 7997
  154.4445  140.1000  156.6395 H   0  0  0  0  0  0  0  0  0  0  0  0  # atno 8010 bound_to 7997
  139.6879  144.7111  151.1400 H   0  0  0  0  0  0  0  0  0  0  0  0  # atno 10167 bound_to 10162
  156.0045  130.4613  150.3998 H   0  0  0  0  0  0  0  0  0  0  0  0  # atno 10718 bound_to 10713
  153.2968  135.6953  153.7240 H   0  0  0  0  0  0  0  0  0  0  0  0  # atno 10763 bound_to 10752
  153.6170  135.3434  155.2999 H   0  0  0  0  0  0  0  0  0  0  0  0  # atno 10764 bound_to 10752
  154.8539  135.4377  154.2067 H   0  0  0  0  0  0  0  0  0  0  0  0  # atno 10765 bound_to 10752
  139.9081  134.9612  156.7378 H   0  0  0  0  0  0  0  0  0  0  0  0  # atno 11005 bound_to 11000
  145.9905  139.3011  143.0988 LP  0  0  0  0  0  0  0  0  0  0  0  0  # atno 17320 bound_to 7965
  145.8908  140.9305  143.0553 LP  0  0  0  0  0  0  0  0  0  0  0  0  # atno 17321 bound_to 7965
  140.7673  143.5603  150.9107 LP  0  0  0  0  0  0  0  0  0  0  0  0  # atno 17342 bound_to 10162
  139.9278  143.6529  152.3083 LP  0  0  0  0  0  0  0  0  0  0  0  0  # atno 17343 bound_to 10162
  157.2067  131.0451  151.2621 LP  0  0  0  0  0  0  0  0  0  0  0  0  # atno 17370 bound_to 10713
  157.3926  130.7290  149.6708 LP  0  0  0  0  0  0  0  0  0  0  0  0  # atno 17371 bound_to 10713
  140.6874  133.9421  155.7946 LP  0  0  0  0  0  0  0  0  0  0  0  0  # atno 17394 bound_to 11000
  141.0467  134.0544  157.3836 LP  0  0  0  0  0  0  0  0  0  0  0  0  # atno 17395 bound_to 11000

$$$$
