AV-unprocessed.smi:2357|AV-procd|sdf|9401|dock2
  -GOLD-   2272013 33D 1   1.00000     0.00000
 Structure written by MMmdl.
 37 38  0  0  0  0  0  0  0  0  1 V2000
  152.0425  144.6470  160.4329 C   0  0  0  0  0  0  0  0  0  0  0  0
  151.9234  143.5846  159.3559 C   0  0  0  0  0  0  0  0  0  0  0  0
  151.0996  143.8232  158.1887 C   0  0  0  0  0  0  0  0  0  0  0  0
  151.0122  142.8770  157.2419 C   0  0  0  0  0  0  0  0  0  0  0  0
  151.6955  141.6530  157.3488 N   0  0  0  0  0  0  0  0  0  0  0  0
  151.5441  140.6960  156.2407 C   0  0  0  0  0  0  0  0  0  0  0  0
  150.0698  140.4150  155.9260 C   0  0  0  0  0  0  0  0  0  0  0  0
  149.3635  139.8250  156.7437 O   0  0  0  0  0  0  0  0  0  0  0  0
  149.6242  140.8431  154.7359 N   0  0  0  0  0  0  0  0  0  0  0  0
  148.2394  140.7746  154.2804 C   0  0  0  0  0  0  0  0  0  0  0  0
  147.4091  142.0062  154.7008 C   0  0  2  0  0  0  0  0  0  0  0  0
  147.0901  142.1242  156.1963 C   0  0  0  0  0  0  0  0  0  0  0  0
  145.8171  142.9392  156.1746 C   0  0  0  0  0  0  0  0  0  0  0  0
  145.1125  142.3731  154.9466 C   0  0  0  0  0  0  0  0  0  0  0  0
  146.1508  142.0429  154.0295 O   0  0  0  0  0  0  0  0  0  0  0  0
  152.4849  141.3562  158.4253 C   0  0  0  0  0  0  0  0  0  0  0  0
  153.0768  140.2785  158.5168 O   0  0  0  0  0  0  0  0  0  0  0  0
  152.5792  142.4035  159.4544 C   0  0  0  0  0  0  0  0  0  0  0  0
  153.4148  142.0977  160.5708 C   0  0  0  0  0  0  0  0  0  0  0  0
  154.1025  141.8363  161.4646 N   0  0  0  0  0  0  0  0  0  0  0  0
  151.4643  145.5352  160.1767 H   0  0  0  0  0  0  0  0  0  0  0  0
  153.0830  144.9467  160.5597 H   0  0  0  0  0  0  0  0  0  0  0  0
  151.6738  144.2664  161.3858 H   0  0  0  0  0  0  0  0  0  0  0  0
  150.5640  144.7543  158.0740 H   0  0  0  0  0  0  0  0  0  0  0  0
  150.4227  143.0000  156.3449 H   0  0  0  0  0  0  0  0  0  0  0  0
  152.0583  141.0673  155.3520 H   0  0  0  0  0  0  0  0  0  0  0  0
  152.0277  139.7472  156.4764 H   0  0  0  0  0  0  0  0  0  0  0  0
  150.2804  141.3060  154.1237 H   0  0  0  0  0  0  0  0  0  0  0  0
  148.2566  140.7076  153.1923 H   0  0  0  0  0  0  0  0  0  0  0  0
  147.7657  139.8577  154.6349 H   0  0  0  0  0  0  0  0  0  0  0  0
  147.9418  142.9069  154.3924 H   0  0  0  0  0  0  0  0  0  0  0  0
  146.8848  141.1526  156.6465 H   0  0  0  0  0  0  0  0  0  0  0  0
  147.8910  142.5981  156.7644 H   0  0  0  0  0  0  0  0  0  0  0  0
  145.2281  142.8414  157.0870 H   0  0  0  0  0  0  0  0  0  0  0  0
  146.0479  143.9948  156.0243 H   0  0  0  0  0  0  0  0  0  0  0  0
  144.5737  141.4605  155.2037 H   0  0  0  0  0  0  0  0  0  0  0  0
  144.4011  143.0745  154.5104 H   0  0  0  0  0  0  0  0  0  0  0  0
  1  2  1  0  0  0  0
  1 21  1  0  0  0  0
  1 22  1  0  0  0  0
  1 23  1  0  0  0  0
  2 18  2  0  0  0  0
  2  3  1  0  0  0  0
  3  4  2  0  0  0  0
  3 24  1  0  0  0  0
  4  5  1  0  0  0  0
  4 25  1  0  0  0  0
  5  6  1  0  0  0  0
  5 16  1  0  0  0  0
  6  7  1  0  0  0  0
  6 26  1  0  0  0  0
  6 27  1  0  0  0  0
  7  8  2  0  0  0  0
  7  9  1  0  0  0  0
  9 10  1  0  0  0  0
  9 28  1  0  0  0  0
 10 11  1  0  0  0  0
 10 29  1  0  0  0  0
 10 30  1  0  0  0  0
 11 15  1  0  0  0  0
 11 12  1  0  0  0  0
 11 31  1  0  0  0  0
 12 13  1  0  0  0  0
 12 32  1  0  0  0  0
 12 33  1  0  0  0  0
 13 14  1  0  0  0  0
 13 34  1  0  0  0  0
 13 35  1  0  0  0  0
 14 15  1  0  0  0  0
 14 36  1  0  0  0  0
 14 37  1  0  0  0  0
 16 17  2  0  0  0  0
 16 18  1  0  0  0  0
 18 19  1  0  0  0  0
 19 20  3  0  0  0  0
M  END
> <s_m_source_file>
AV-unprocessed.smi

> <i_m_source_file_index>
2357

> <i_lp_mmshare_version>
43012

> <i_f3d_flags>
0

> <s_epik_input>
W0NIM11jMVtjSF1bY0hdbihjKD1PKWMxQyNOKVtDSDJdQyg9TylbTkhdW0NIMl1bQ0BASF0yW0NIMl1bQ0gyXVtDSDJdTzI=

> <s_epik_cmdline>
J2VwaWtfcHl0aG9uJywgJy1waCcsICc3LjAnLCAnLXRuJywgJzgnLCAnLW1hJywgJzIwMCcsICctbWV0YWxfYmluZGluZycsICctaW1hZScsICc8aW5maWxlLm1hZT4nLCAnLW9tYWUnLCAnPG91dGZpbGUubWFlPic=

> <r_lp_tautomer_probability>
1

> <r_epik_Ionization_Penalty>
2.71597e-08

> <r_epik_Ionization_Penalty_Charging>
3.00645e-10

> <r_epik_Ionization_Penalty_Neutral>
2.6859e-08

> <r_epik_State_Penalty>
-0

> <r_epik_Charging_Adjusted_Penalty>
3.00645e-10

> <i_epik_Tot_Q>
0

> <i_epik_Tot_abs_Q>
0

> <r_epik_Metal_State_Penalty>
-0

> <b_epik_Metal_Only>
0

> <s_lp_Force_Field>
OPLS_2005

> <r_lp_Energy>
27.3681

> <b_lp_Chiralities_Consistent>
1

> <s_lp_Variant>
AV-unprocessed.smi:2357-1

> <Gold.Version>
5.8.1

> <Gold.Id.Protein>
6NUR|6NUR_protein|mol2

> <Gold.PLP.Fitness>
43.2309

> <Gold.PLP.PLP>
-37.9156

> <Gold.PLP.part.hbond>
-1.5642

> <Gold.PLP.part.metal>
0.0000

> <Gold.PLP.part.buried>
-5.9576

> <Gold.PLP.part.nonpolar>
-30.7310

> <Gold.PLP.part.repulsive>
0.7886

> <Gold.PLP.ligand.clash>
0.0000

> <Gold.PLP.ligand.torsion>
0.3382

> <Gold.PLP.Chemscore.Hbond>
0.9920

> <Gold.PLP.Chemscore.CHOScore>
1.0000

> <Gold.PLP.Chemscore.Metal>
0.0000

> <Gold.Chemscore.Hbonds>
donor molecule, donor type, donor heavy atom, donor atom, acceptor molecule, acceptor atom, score
      P1  H  7997  8009       L1    17  0.69
      L1  C     4    25       P1  8028  1.00

> <Gold.PLP.Chemscore.Internal.Correction>
0.0158

> <Gold.Rescore>
     Score         DG    S(hbond)    S(metal)    S(lipo)     H(rot)  DE(clash)    DE(int)     intcor
     12.66     -12.98       0.89        0.00      77.13       1.76       0.03       0.29       ----

> <Gold.Chemscore.Fitness>
12.6631

> <Gold.Chemscore.DG>
-12.9837

> <Gold.Chemscore.ZeroCoef>
-5.4800

> <Gold.Chemscore.Hbond>
0.8921

> <Gold.Chemscore.Metal>
0.0000

> <Gold.Chemscore.Lipo>
77.1269

> <Gold.Chemscore.Internal_Hbond>
0.0000

> <Gold.Chemscore.DEClash>
0.0259

> <Gold.Chemscore.DEInternal>
0.2947

> <Gold.Chemscore.Rot>
1.7577

> <Gold.Chemscore.Internal.Correction>
   9.000000E+99

> <Gold.Chemscore.Hbonds>
donor molecule, donor type, donor heavy atom, donor atom, acceptor molecule, acceptor atom, score
      P1  H  7997  8009       L1    17  0.55

> <Gold.Chemscore.Hbond.Weighted>
-2.9796

> <Gold.Chemscore.Metal.Weighted>
-0.0000

> <Gold.Chemscore.Lipo.Weighted>
-9.0239

> <Gold.Chemscore.Internal_Hbond.Weighted>
0.0000

> <Gold.Chemscore.DEClash.Weighted>
0.0259

> <Gold.Chemscore.DEInternal.Weighted>
0.2947

> <Gold.Chemscore.Rot.Weighted>
4.4998

> <Gold.Chemscore.Internal.Correction.Weighted>
   9.000000E+99

> <Gold.Protein.RotatedTorsions>
[ 6907 6896 6895 6894 ] final   47.26 input  -60.11 | X-H torsion
[ 7974 7965 7964 7962 ] final  169.18 input  175.53 | X-H torsion
[ 8008 7997 7996 7995 ] final  157.04 input   59.86 | X-H torsion
[ 10167 10162 10161 10158 ] final -143.37 input  -65.29 | X-H torsion
[ 10718 10713 10712 10709 ] final   47.88 input   66.30 | X-H torsion
[ 10763 10752 10751 10750 ] final  -68.59 input  -60.55 | X-H torsion
[ 11005 11000 10999 10996 ] final   18.57 input  -57.11 | X-H torsion

> <Gold.Protein.ActiveResidues>
 VAL166  LYS551  ARG553  GLY616  TRP617  ASP618  TYR619  PRO620  LYS621  CYS622 
 ASP623  PHE694  ASN695  SER759  ASP760  ASP761  ALA762  ILE779  LEU786  VAL792 
 PHE793  MET794  SER795  GLU796  ALA797  LYS798  CYS799  TRP800  GLU811  SER814 

> <Gold.Protein.RotatedAtoms>
  152.2659  134.7984  160.0422 H   0  0  0  0  0  0  0  0  0  0  0  0  # atno 6907 bound_to 6896
  151.8614  133.3453  159.3713 H   0  0  0  0  0  0  0  0  0  0  0  0  # atno 6908 bound_to 6896
  150.7134  134.5130  159.5661 H   0  0  0  0  0  0  0  0  0  0  0  0  # atno 6909 bound_to 6896
  144.7363  139.9017  143.6410 H   0  0  0  0  0  0  0  0  0  0  0  0  # atno 7974 bound_to 7965
  156.2387  140.1896  156.7047 H   0  0  0  0  0  0  0  0  0  0  0  0  # atno 8008 bound_to 7997
  154.6156  140.0616  156.9576 H   0  0  0  0  0  0  0  0  0  0  0  0  # atno 8009 bound_to 7997
  155.1945  140.3287  155.4355 H   0  0  0  0  0  0  0  0  0  0  0  0  # atno 8010 bound_to 7997
  139.8000  143.7847  152.2657 H   0  0  0  0  0  0  0  0  0  0  0  0  # atno 10167 bound_to 10162
  157.4629  130.8208  149.7906 H   0  0  0  0  0  0  0  0  0  0  0  0  # atno 10718 bound_to 10713
  154.3913  135.6052  153.5845 H   0  0  0  0  0  0  0  0  0  0  0  0  # atno 10763 bound_to 10752
  152.9787  135.5884  154.4294 H   0  0  0  0  0  0  0  0  0  0  0  0  # atno 10764 bound_to 10752
  154.4079  135.2844  155.2033 H   0  0  0  0  0  0  0  0  0  0  0  0  # atno 10765 bound_to 10752
  140.4233  134.1496  155.7674 H   0  0  0  0  0  0  0  0  0  0  0  0  # atno 11005 bound_to 11000
  146.1067  139.4067  143.0313 LP  0  0  0  0  0  0  0  0  0  0  0  0  # atno 17320 bound_to 7965
  145.7502  140.9975  143.1254 LP  0  0  0  0  0  0  0  0  0  0  0  0  # atno 17321 bound_to 7965
  139.7964  144.7391  150.9885 LP  0  0  0  0  0  0  0  0  0  0  0  0  # atno 17342 bound_to 10162
  140.7820  143.4389  151.0581 LP  0  0  0  0  0  0  0  0  0  0  0  0  # atno 17343 bound_to 10162
  156.0037  130.3866  150.2510 LP  0  0  0  0  0  0  0  0  0  0  0  0  # atno 17370 bound_to 10713
  157.0688  131.0111  151.3197 LP  0  0  0  0  0  0  0  0  0  0  0  0  # atno 17371 bound_to 10713
  141.1775  133.8483  157.1371 LP  0  0  0  0  0  0  0  0  0  0  0  0  # atno 17394 bound_to 11000
  140.0185  134.9956  157.0543 LP  0  0  0  0  0  0  0  0  0  0  0  0  # atno 17395 bound_to 11000

$$$$
