AV-unprocessed.smi:1090|AV-procd|sdf|4735|dock8
  -GOLD-   22720 3273D 1   1.00000     0.00000
 Structure written by MMmdl.
 38 40  0  0  0  0  0  0  0  0  1 V2000
  155.8698  139.8023  159.4043 O   0  0  0  0  0  0  0  0  0  0  0  0
  155.1703  139.4743  160.3626 C   0  0  0  0  0  0  0  0  0  0  0  0
  155.6630  138.4094  161.3454 C   0  0  0  0  0  0  0  0  0  0  0  0
  154.5261  137.5573  161.9546 C   0  0  0  0  0  0  0  0  0  0  0  0
  154.9374  136.8556  163.2427 C   0  0  0  0  0  0  0  0  0  0  0  0
  153.9065  136.3384  164.2186 C   0  0  0  0  0  0  0  0  0  0  0  0
  154.7765  137.5156  164.5933 C   0  0  0  0  0  0  0  0  0  0  0  0
  154.0239  136.5479  160.9367 C   0  0  0  0  0  0  0  0  0  0  0  0
  154.9825  135.7966  160.0447 C   0  0  0  0  0  0  0  0  0  0  0  0
  154.0574  136.8385  159.4554 C   0  0  0  0  0  0  0  0  0  0  0  0
  153.9603  139.9994  160.6075 N   0  0  0  0  0  0  0  0  0  0  0  0
  153.3282  141.0450  159.8124 C   0  0  0  0  0  0  0  0  0  0  0  0
  153.0390  142.2965  160.6566 C   0  0  0  0  0  0  0  0  0  0  0  0
  152.3903  143.3794  159.8620 C   0  0  0  0  0  0  0  0  0  0  0  0
  152.0620  144.5713  160.3687 N   0  0  0  0  0  0  0  0  0  0  0  0
  151.4361  145.3958  159.4303 C   0  0  0  0  0  0  0  0  0  0  0  0
  151.2802  144.8063  158.2015 C   0  0  0  0  0  0  0  0  0  0  0  0
  151.9151  143.1840  158.1782 S   0  0  0  0  0  0  0  0  0  0  0  0
  156.3744  137.7629  160.8290 H   0  0  0  0  0  0  0  0  0  0  0  0
  156.2268  138.9008  162.1395 H   0  0  0  0  0  0  0  0  0  0  0  0
  153.6933  138.2224  162.1914 H   0  0  0  0  0  0  0  0  0  0  0  0
  155.8202  136.2293  163.1271 H   0  0  0  0  0  0  0  0  0  0  0  0
  152.8577  136.5411  164.0111 H   0  0  0  0  0  0  0  0  0  0  0  0
  154.1100  135.3863  164.7046 H   0  0  0  0  0  0  0  0  0  0  0  0
  155.5626  137.3509  165.3272 H   0  0  0  0  0  0  0  0  0  0  0  0
  154.3058  138.4963  164.6271 H   0  0  0  0  0  0  0  0  0  0  0  0
  153.1644  135.9769  161.2837 H   0  0  0  0  0  0  0  0  0  0  0  0
  156.0398  136.0455  160.1125 H   0  0  0  0  0  0  0  0  0  0  0  0
  154.7615  134.7516  159.8372 H   0  0  0  0  0  0  0  0  0  0  0  0
  153.2194  136.4878  158.8568 H   0  0  0  0  0  0  0  0  0  0  0  0
  154.5055  137.7743  159.1278 H   0  0  0  0  0  0  0  0  0  0  0  0
  153.4502  139.6650  161.4123 H   0  0  0  0  0  0  0  0  0  0  0  0
  153.9565  141.2968  158.9564 H   0  0  0  0  0  0  0  0  0  0  0  0
  152.3970  140.6472  159.4079 H   0  0  0  0  0  0  0  0  0  0  0  0
  152.3932  142.0429  161.4982 H   0  0  0  0  0  0  0  0  0  0  0  0
  153.9630  142.6906  161.0816 H   0  0  0  0  0  0  0  0  0  0  0  0
  151.1312  146.3896  159.7237 H   0  0  0  0  0  0  0  0  0  0  0  0
  150.8295  145.2245  157.3134 H   0  0  0  0  0  0  0  0  0  0  0  0
  1  2  2  0  0  0  0
  2  3  1  0  0  0  0
  2 11  1  0  0  0  0
  3  4  1  0  0  0  0
  3 19  1  0  0  0  0
  3 20  1  0  0  0  0
  4  5  1  0  0  0  0
  4  8  1  0  0  0  0
  4 21  1  0  0  0  0
  5  7  1  0  0  0  0
  5  6  1  0  0  0  0
  5 22  1  0  0  0  0
  6  7  1  0  0  0  0
  6 23  1  0  0  0  0
  6 24  1  0  0  0  0
  7 25  1  0  0  0  0
  7 26  1  0  0  0  0
  8 10  1  0  0  0  0
  8  9  1  0  0  0  0
  8 27  1  0  0  0  0
  9 10  1  0  0  0  0
  9 28  1  0  0  0  0
  9 29  1  0  0  0  0
 10 30  1  0  0  0  0
 10 31  1  0  0  0  0
 11 12  1  0  0  0  0
 11 32  1  0  0  0  0
 12 13  1  0  0  0  0
 12 33  1  0  0  0  0
 12 34  1  0  0  0  0
 13 14  1  0  0  0  0
 13 35  1  0  0  0  0
 13 36  1  0  0  0  0
 14 18  1  0  0  0  0
 14 15  2  0  0  0  0
 15 16  1  0  0  0  0
 16 17  2  0  0  0  0
 16 37  1  0  0  0  0
 17 18  1  0  0  0  0
 17 38  1  0  0  0  0
M  END
> <s_m_source_file>
AV-unprocessed.smi

> <i_m_source_file_index>
1090

> <i_lp_mmshare_version>
43012

> <i_f3d_flags>
0

> <s_epik_input>
W0NIMl0xW0NIMl1bQ0hdMVtDSF0oW0NIXTJbQ0gyXVtDSDJdMilbQ0gyXUMoPU8pW05IXVtDSDJdW0NIMl1jM25bY0hdW2NIXXMz

> <s_epik_cmdline>
J2VwaWtfcHl0aG9uJywgJy1waCcsICc3LjAnLCAnLXRuJywgJzgnLCAnLW1hJywgJzIwMCcsICctbWV0YWxfYmluZGluZycsICctaW1hZScsICc8aW5maWxlLm1hZT4nLCAnLW9tYWUnLCAnPG91dGZpbGUubWFlPic=

> <r_lp_tautomer_probability>
1

> <r_epik_Ionization_Penalty>
0.000189819

> <r_epik_Ionization_Penalty_Charging>
0

> <r_epik_Ionization_Penalty_Neutral>
0.000189819

> <r_epik_State_Penalty>
-0

> <r_epik_Charging_Adjusted_Penalty>
0

> <i_epik_Tot_Q>
0

> <i_epik_Tot_abs_Q>
0

> <r_epik_Metal_State_Penalty>
-0

> <b_epik_Metal_Only>
0

> <s_lp_Force_Field>
OPLS_2005

> <r_lp_Energy>
14.2357

> <b_lp_Chiralities_Consistent>
1

> <s_lp_Variant>
AV-unprocessed.smi:1090-1

> <Gold.Version>
5.8.1

> <Gold.Id.Protein>
6NUR|6NUR_protein|mol2

> <Gold.PLP.Fitness>
45.9368

> <Gold.PLP.PLP>
-40.8814

> <Gold.PLP.part.hbond>
-1.0000

> <Gold.PLP.part.metal>
0.0000

> <Gold.PLP.part.buried>
-4.6460

> <Gold.PLP.part.nonpolar>
-34.3917

> <Gold.PLP.part.repulsive>
0.1397

> <Gold.PLP.ligand.clash>
0.0000

> <Gold.PLP.ligand.torsion>
1.5928

> <Gold.PLP.Chemscore.Hbond>
1.0000

> <Gold.PLP.Chemscore.CHOScore>
0.9898

> <Gold.PLP.Chemscore.Metal>
0.0000

> <Gold.Chemscore.Hbonds>
donor molecule, donor type, donor heavy atom, donor atom, acceptor molecule, acceptor atom, score
      P1  H  7997  8010       L1     1  0.83
      L1  C    17    38       P1  8028  0.94

> <Gold.PLP.Chemscore.Internal.Correction>
2.2718

> <Gold.Rescore>
     Score         DG    S(hbond)    S(metal)    S(lipo)     H(rot)  DE(clash)    DE(int)     intcor
     15.87     -17.72       0.99        0.00     113.65       1.70       0.16       1.69       ----

> <Gold.Chemscore.Fitness>
15.8722

> <Gold.Chemscore.DG>
-17.7234

> <Gold.Chemscore.ZeroCoef>
-5.4800

> <Gold.Chemscore.Hbond>
0.9862

> <Gold.Chemscore.Metal>
0.0000

> <Gold.Chemscore.Lipo>
113.6491

> <Gold.Chemscore.Internal_Hbond>
0.0000

> <Gold.Chemscore.DEClash>
0.1626

> <Gold.Chemscore.DEInternal>
1.6886

> <Gold.Chemscore.Rot>
1.6982

> <Gold.Chemscore.Internal.Correction>
   9.000000E+99

> <Gold.Chemscore.Hbonds>
donor molecule, donor type, donor heavy atom, donor atom, acceptor molecule, acceptor atom, score
      P1  H  7997  8010       L1     1  0.79

> <Gold.Chemscore.Hbond.Weighted>
-3.2939

> <Gold.Chemscore.Metal.Weighted>
-0.0000

> <Gold.Chemscore.Lipo.Weighted>
-13.2969

> <Gold.Chemscore.Internal_Hbond.Weighted>
0.0000

> <Gold.Chemscore.DEClash.Weighted>
0.1626

> <Gold.Chemscore.DEInternal.Weighted>
1.6886

> <Gold.Chemscore.Rot.Weighted>
4.3474

> <Gold.Chemscore.Internal.Correction.Weighted>
   9.000000E+99

> <Gold.Protein.RotatedTorsions>
[ 6907 6896 6895 6894 ] final    0.31 input  -60.11 | X-H torsion
[ 7974 7965 7964 7962 ] final  146.40 input  175.53 | X-H torsion
[ 8008 7997 7996 7995 ] final  -15.40 input   59.86 | X-H torsion
[ 10167 10162 10161 10158 ] final  140.97 input  -65.29 | X-H torsion
[ 10718 10713 10712 10709 ] final   87.55 input   66.30 | X-H torsion
[ 10763 10752 10751 10750 ] final -133.00 input  -60.55 | X-H torsion
[ 11005 11000 10999 10996 ] final  -38.49 input  -57.11 | X-H torsion

> <Gold.Protein.ActiveResidues>
 VAL166  LYS551  ARG553  GLY616  TRP617  ASP618  TYR619  PRO620  LYS621  CYS622 
 ASP623  PHE694  ASN695  SER759  ASP760  ASP761  ALA762  ILE779  LEU786  VAL792 
 PHE793  MET794  SER795  GLU796  ALA797  LYS798  CYS799  TRP800  GLU811  SER814 

> <Gold.Protein.RotatedAtoms>
  151.5744  135.1061  160.0002 H   0  0  0  0  0  0  0  0  0  0  0  0  # atno 6907 bound_to 6896
  152.4385  133.7400  159.6646 H   0  0  0  0  0  0  0  0  0  0  0  0  # atno 6908 bound_to 6896
  150.8287  133.8059  159.3131 H   0  0  0  0  0  0  0  0  0  0  0  0  # atno 6909 bound_to 6896
  144.8674  139.5901  143.5903 H   0  0  0  0  0  0  0  0  0  0  0  0  # atno 7974 bound_to 7965
  154.5133  140.2197  155.9113 H   0  0  0  0  0  0  0  0  0  0  0  0  # atno 8008 bound_to 7997
  156.1578  140.3148  155.8722 H   0  0  0  0  0  0  0  0  0  0  0  0  # atno 8009 bound_to 7997
  155.3811  140.0472  157.3034 H   0  0  0  0  0  0  0  0  0  0  0  0  # atno 8010 bound_to 7997
  139.5033  144.6201  151.6072 H   0  0  0  0  0  0  0  0  0  0  0  0  # atno 10167 bound_to 10162
  157.6941  131.0260  150.3141 H   0  0  0  0  0  0  0  0  0  0  0  0  # atno 10718 bound_to 10713
  154.8737  135.3780  154.4501 H   0  0  0  0  0  0  0  0  0  0  0  0  # atno 10763 bound_to 10752
  153.5178  135.7029  153.5752 H   0  0  0  0  0  0  0  0  0  0  0  0  # atno 10764 bound_to 10752
  153.4012  135.3948  155.1955 H   0  0  0  0  0  0  0  0  0  0  0  0  # atno 10765 bound_to 10752
  141.0031  133.6945  156.2060 H   0  0  0  0  0  0  0  0  0  0  0  0  # atno 11005 bound_to 11000
  146.2905  139.7127  142.9164 LP  0  0  0  0  0  0  0  0  0  0  0  0  # atno 17320 bound_to 7965
  145.4196  141.0405  143.2971 LP  0  0  0  0  0  0  0  0  0  0  0  0  # atno 17321 bound_to 7965
  140.5900  143.9796  150.6319 LP  0  0  0  0  0  0  0  0  0  0  0  0  # atno 17342 bound_to 10162
  140.2973  143.3284  152.1005 LP  0  0  0  0  0  0  0  0  0  0  0  0  # atno 17343 bound_to 10162
  156.3638  130.3851  149.7230 LP  0  0  0  0  0  0  0  0  0  0  0  0  # atno 17370 bound_to 10713
  156.4668  130.7977  151.2996 LP  0  0  0  0  0  0  0  0  0  0  0  0  # atno 17371 bound_to 10713
  140.6856  134.4720  157.5589 LP  0  0  0  0  0  0  0  0  0  0  0  0  # atno 17394 bound_to 11000
  139.9049  134.8471  156.1745 LP  0  0  0  0  0  0  0  0  0  0  0  0  # atno 17395 bound_to 11000

$$$$
