AV-unprocessed.smi:2095|AV-procd|sdf|8561|dock2
  -GOLD-   2272011283D 1   1.00000     0.00000
 Structure written by MMmdl.
 42 43  0  0  0  0  0  0  0  0  2 V2000
  149.2044  145.1083  160.8684 C   0  0  0  0  0  0  0  0  0  0  0  0
  149.8897  144.8001  159.5298 C   0  0  1  0  0  0  0  0  0  0  0  0
  151.3830  145.1698  159.5626 C   0  0  0  0  0  0  0  0  0  0  0  0
  152.0482  144.8267  158.2229 C   0  0  0  0  0  0  0  0  0  0  0  0
  151.8245  143.3500  157.8631 C   0  0  0  0  0  0  0  0  0  0  0  0
  150.3707  143.0334  157.8285 N   0  3  1  0  0  0  0  0  0  0  0  0
  150.0201  141.6955  157.2689 C   0  0  1  0  0  0  0  0  0  0  0  0
  148.4987  141.5783  157.0572 C   0  0  0  0  0  0  0  0  0  0  0  0
  150.8284  141.3344  155.9966 C   0  0  0  0  0  0  0  0  0  0  0  0
  150.6511  139.9402  155.6061 N   0  0  0  0  0  0  0  0  0  0  0  0
  151.6491  139.0611  155.4232 C   0  0  0  0  0  0  0  0  0  0  0  0
  152.8368  139.3476  155.5707 O   0  0  0  0  0  0  0  0  0  0  0  0
  151.2488  137.6394  155.0263 C   0  0  0  0  0  0  0  0  0  0  0  0
  151.3235  136.7352  156.1587 N   0  0  0  0  0  0  0  0  0  0  0  0
  150.7230  136.7693  157.3502 C   0  0  0  0  0  0  0  0  0  0  0  0
  151.0814  135.7432  158.1068 N   0  0  0  0  0  0  0  0  0  0  0  0
  151.9633  135.0471  157.2971 N   0  0  0  0  0  0  0  0  0  0  0  0
  152.1108  135.6306  156.1396 N   0  0  0  0  0  0  0  0  0  0  0  0
  149.7126  143.3208  159.1314 C   0  0  0  0  0  0  0  0  0  0  0  0
  149.6372  144.5228  161.6803 H   0  0  0  0  0  0  0  0  0  0  0  0
  148.1386  144.8817  160.8254 H   0  0  0  0  0  0  0  0  0  0  0  0
  149.3059  146.1627  161.1276 H   0  0  0  0  0  0  0  0  0  0  0  0
  149.4078  145.4137  158.7670 H   0  0  0  0  0  0  0  0  0  0  0  0
  151.5059  146.2324  159.7755 H   0  0  0  0  0  0  0  0  0  0  0  0
  151.8829  144.6307  160.3687 H   0  0  0  0  0  0  0  0  0  0  0  0
  151.6404  145.4624  157.4358 H   0  0  0  0  0  0  0  0  0  0  0  0
  153.1163  145.0410  158.2725 H   0  0  0  0  0  0  0  0  0  0  0  0
  152.2830  143.1466  156.8960 H   0  0  0  0  0  0  0  0  0  0  0  0
  152.3290  142.7183  158.5951 H   0  0  0  0  0  0  0  0  0  0  0  0
  150.2648  140.9638  158.0403 H   0  0  0  0  0  0  0  0  0  0  0  0
  148.2097  140.5541  156.8198 H   0  0  0  0  0  0  0  0  0  0  0  0
  148.1493  142.2111  156.2417 H   0  0  0  0  0  0  0  0  0  0  0  0
  147.9544  141.8633  157.9581 H   0  0  0  0  0  0  0  0  0  0  0  0
  150.5059  141.9443  155.1526 H   0  0  0  0  0  0  0  0  0  0  0  0
  151.8912  141.5372  156.1345 H   0  0  0  0  0  0  0  0  0  0  0  0
  149.7037  139.6214  155.4599 H   0  0  0  0  0  0  0  0  0  0  0  0
  150.2288  137.6314  154.6396 H   0  0  0  0  0  0  0  0  0  0  0  0
  151.8994  137.2781  154.2284 H   0  0  0  0  0  0  0  0  0  0  0  0
  150.0337  137.5402  157.6616 H   0  0  0  0  0  0  0  0  0  0  0  0
  150.1225  142.6705  159.9054 H   0  0  0  0  0  0  0  0  0  0  0  0
  148.6474  143.0962  159.0619 H   0  0  0  0  0  0  0  0  0  0  0  0
  149.9640  143.6956  157.1835 H   0  0  0  0  0  0  0  0  0  0  0  0
  1  2  1  0  0  0  0
  1 20  1  0  0  0  0
  1 21  1  0  0  0  0
  1 22  1  0  0  0  0
  2 19  1  0  0  0  0
  2  3  1  0  0  0  0
  2 23  1  0  0  0  0
  3  4  1  0  0  0  0
  3 24  1  0  0  0  0
  3 25  1  0  0  0  0
  4  5  1  0  0  0  0
  4 26  1  0  0  0  0
  4 27  1  0  0  0  0
  5  6  1  0  0  0  0
  5 28  1  0  0  0  0
  5 29  1  0  0  0  0
  6  7  1  0  0  0  0
  6 19  1  0  0  0  0
  6 42  1  0  0  0  0
  7  8  1  0  0  0  0
  7  9  1  0  0  0  0
  7 30  1  0  0  0  0
  8 31  1  0  0  0  0
  8 32  1  0  0  0  0
  8 33  1  0  0  0  0
  9 10  1  0  0  0  0
  9 34  1  0  0  0  0
  9 35  1  0  0  0  0
 10 11  1  0  0  0  0
 10 36  1  0  0  0  0
 11 12  2  0  0  0  0
 11 13  1  0  0  0  0
 13 14  1  0  0  0  0
 13 37  1  0  0  0  0
 13 38  1  0  0  0  0
 14 18  1  0  0  0  0
 14 15  1  0  0  0  0
 15 16  2  0  0  0  0
 15 39  1  0  0  0  0
 16 17  1  0  0  0  0
 17 18  2  0  0  0  0
 19 40  1  0  0  0  0
 19 41  1  0  0  0  0
M  CHG  1   6   1
M  END
> <s_m_source_file>
AV-unprocessed.smi

> <i_m_source_file_index>
2095

> <i_lp_mmshare_version>
43012

> <i_f3d_flags>
0

> <s_epik_input>
W0NIM11bQ0BASF0xW0NIMl1bQ0gyXVtDSDJdTihbQ0gyXTEpW0NASF0oW0NIM10pW0NIMl1bTkhdQyg9TylbQ0gyXW4yW2NIXW5ubjI=

> <s_epik_cmdline>
J2VwaWtfcHl0aG9uJywgJy1waCcsICc3LjAnLCAnLXRuJywgJzgnLCAnLW1hJywgJzIwMCcsICctbWV0YWxfYmluZGluZycsICctaW1hZScsICc8aW5maWxlLm1hZT4nLCAnLW9tYWUnLCAnPG91dGZpbGUubWFlPic=

> <r_lp_tautomer_probability>
1

> <r_epik_Ionization_Penalty>
0.00268321

> <r_epik_Ionization_Penalty_Charging>
0.00267875

> <r_epik_Ionization_Penalty_Neutral>
4.46125e-06

> <r_epik_State_Penalty>
0.00186642

> <r_epik_Charging_Adjusted_Penalty>
0.00454517

> <i_epik_Tot_Q>
1

> <i_epik_Tot_abs_Q>
1

> <r_epik_Metal_State_Penalty>
-0

> <b_epik_Metal_Only>
0

> <s_lp_Force_Field>
OPLS_2005

> <r_lp_Energy>
22.3019

> <b_lp_Chiralities_Consistent>
1

> <s_lp_Variant>
AV-unprocessed.smi:2095-8

> <Gold.Version>
5.8.1

> <Gold.Id.Protein>
6NUR|6NUR_protein|mol2

> <Gold.PLP.Fitness>
47.5947

> <Gold.PLP.PLP>
-34.7187

> <Gold.PLP.part.hbond>
-5.0000

> <Gold.PLP.part.metal>
0.0000

> <Gold.PLP.part.buried>
-4.7196

> <Gold.PLP.part.nonpolar>
-24.9809

> <Gold.PLP.part.repulsive>
0.1575

> <Gold.PLP.ligand.clash>
0.0000

> <Gold.PLP.ligand.torsion>
0.3895

> <Gold.PLP.Chemscore.Hbond>
4.5105

> <Gold.PLP.Chemscore.CHOScore>
0.0000

> <Gold.PLP.Chemscore.Metal>
0.0000

> <Gold.Chemscore.Hbonds>
donor molecule, donor type, donor heavy atom, donor atom, acceptor molecule, acceptor atom, score
      L1  H     6    42       P1  8028  1.59
      P1  H  6896  6909       L1    16  0.38
      P1  H  7997  8010       L1    12  1.00
      P1  H 10752 10764       L1    18  0.93

> <Gold.PLP.Chemscore.Internal.Correction>
0.1235

> <Gold.Rescore>
     Score         DG    S(hbond)    S(metal)    S(lipo)     H(rot)  DE(clash)    DE(int)     intcor
     18.44     -18.98       3.20        0.00      81.92       2.64       0.15       0.39       ----

> <Gold.Chemscore.Fitness>
18.4438

> <Gold.Chemscore.DG>
-18.9770

> <Gold.Chemscore.ZeroCoef>
-5.4800

> <Gold.Chemscore.Hbond>
3.1979

> <Gold.Chemscore.Metal>
0.0000

> <Gold.Chemscore.Lipo>
81.9181

> <Gold.Chemscore.Internal_Hbond>
0.0000

> <Gold.Chemscore.DEClash>
0.1461

> <Gold.Chemscore.DEInternal>
0.3871

> <Gold.Chemscore.Rot>
2.6439

> <Gold.Chemscore.Internal.Correction>
   9.000000E+99

> <Gold.Chemscore.Hbonds>
donor molecule, donor type, donor heavy atom, donor atom, acceptor molecule, acceptor atom, score
      L1  H     6    42       P1  8028  0.74
      P1  H  6896  6909       L1    16  0.27
      P1  H  7997  8010       L1    12  1.00
      P1  H 10752 10764       L1    18  0.88

> <Gold.Chemscore.Hbond.Weighted>
-10.6810

> <Gold.Chemscore.Metal.Weighted>
-0.0000

> <Gold.Chemscore.Lipo.Weighted>
-9.5844

> <Gold.Chemscore.Internal_Hbond.Weighted>
0.0000

> <Gold.Chemscore.DEClash.Weighted>
0.1461

> <Gold.Chemscore.DEInternal.Weighted>
0.3871

> <Gold.Chemscore.Rot.Weighted>
6.7685

> <Gold.Chemscore.Internal.Correction.Weighted>
   9.000000E+99

> <Gold.Protein.RotatedTorsions>
[ 6907 6896 6895 6894 ] final   71.78 input  -60.11 | X-H torsion
[ 7974 7965 7964 7962 ] final  120.38 input  175.53 | X-H torsion
[ 8008 7997 7996 7995 ] final   88.48 input   59.86 | X-H torsion
[ 10167 10162 10161 10158 ] final  109.79 input  -65.29 | X-H torsion
[ 10718 10713 10712 10709 ] final  112.92 input   66.30 | X-H torsion
[ 10763 10752 10751 10750 ] final  -26.18 input  -60.55 | X-H torsion
[ 11005 11000 10999 10996 ] final  143.13 input  -57.11 | X-H torsion

> <Gold.Protein.ActiveResidues>
 VAL166  LYS551  ARG553  GLY616  TRP617  ASP618  TYR619  PRO620  LYS621  CYS622 
 ASP623  PHE694  ASN695  SER759  ASP760  ASP761  ALA762  ILE779  LEU786  VAL792 
 PHE793  MET794  SER795  GLU796  ALA797  LYS798  CYS799  TRP800  GLU811  SER814 

> <Gold.Protein.RotatedAtoms>
  152.4830  134.4668  159.9622 H   0  0  0  0  0  0  0  0  0  0  0  0  # atno 6907 bound_to 6896
  151.4670  133.3572  159.2825 H   0  0  0  0  0  0  0  0  0  0  0  0  # atno 6908 bound_to 6896
  150.8918  134.8347  159.7359 H   0  0  0  0  0  0  0  0  0  0  0  0  # atno 6909 bound_to 6896
  145.1319  139.3322  143.4661 H   0  0  0  0  0  0  0  0  0  0  0  0  # atno 7974 bound_to 7965
  155.9883  140.3371  155.6728 H   0  0  0  0  0  0  0  0  0  0  0  0  # atno 8008 bound_to 7997
  155.6455  140.0700  157.2622 H   0  0  0  0  0  0  0  0  0  0  0  0  # atno 8009 bound_to 7997
  154.4212  140.1735  156.1606 H   0  0  0  0  0  0  0  0  0  0  0  0  # atno 8010 bound_to 7997
  139.6739  144.7123  151.1638 H   0  0  0  0  0  0  0  0  0  0  0  0  # atno 10167 bound_to 10162
  157.6367  131.0975  150.6965 H   0  0  0  0  0  0  0  0  0  0  0  0  # atno 10718 bound_to 10713
  153.7117  135.6950  153.5035 H   0  0  0  0  0  0  0  0  0  0  0  0  # atno 10763 bound_to 10752
  153.2267  135.4351  155.0549 H   0  0  0  0  0  0  0  0  0  0  0  0  # atno 10764 bound_to 10752
  154.8312  135.3474  154.6654 H   0  0  0  0  0  0  0  0  0  0  0  0  # atno 10765 bound_to 10752
  140.0530  134.9245  157.1051 H   0  0  0  0  0  0  0  0  0  0  0  0  # atno 11005 bound_to 11000
  146.3513  140.1321  142.8597 LP  0  0  0  0  0  0  0  0  0  0  0  0  # atno 17320 bound_to 7965
  145.0626  140.9099  143.4929 LP  0  0  0  0  0  0  0  0  0  0  0  0  # atno 17321 bound_to 7965
  140.7628  143.5802  150.8903 LP  0  0  0  0  0  0  0  0  0  0  0  0  # atno 17342 bound_to 10162
  139.9470  143.6316  152.3039 LP  0  0  0  0  0  0  0  0  0  0  0  0  # atno 17343 bound_to 10162
  156.7295  130.4705  149.5503 LP  0  0  0  0  0  0  0  0  0  0  0  0  # atno 17370 bound_to 10713
  156.1611  130.6375  151.0720 LP  0  0  0  0  0  0  0  0  0  0  0  0  # atno 17371 bound_to 10713
  140.3887  134.2207  155.7167 LP  0  0  0  0  0  0  0  0  0  0  0  0  # atno 17394 bound_to 11000
  141.1939  133.8140  157.0779 LP  0  0  0  0  0  0  0  0  0  0  0  0  # atno 17395 bound_to 11000

$$$$
