AV-unprocessed.smi:3025|AV-procd|sdf|11505|dock8
  -GOLD-   2272016443D 1   1.00000     0.00000
 Structure written by MMmdl.
 42 43  0  0  0  0  0  0  0  0  2 V2000
  151.3300  143.8035  158.1022 C   0  0  0  0  0  0  0  0  0  0  0  0
  151.2388  142.8709  156.8895 C   0  0  0  0  0  0  0  0  0  0  0  0
  149.9729  141.9974  156.9130 C   0  0  0  0  0  0  0  0  0  0  0  0
  149.6411  141.3317  155.5613 C   0  0  2  0  0  0  0  0  0  0  0  0
  148.1704  141.5398  155.1402 C   0  0  0  0  0  0  0  0  0  0  0  0
  147.8558  140.8550  153.7999 C   0  0  0  0  0  0  0  0  0  0  0  0
  148.1895  139.3493  153.8372 C   0  0  1  0  0  0  0  0  0  0  0  0
  147.9468  138.7058  152.5268 N   0  3  0  0  0  0  0  0  0  0  0  0
  146.5348  138.6743  152.0912 C   0  0  0  0  0  0  0  0  0  0  0  0
  145.7300  137.6534  152.9063 C   0  0  0  0  0  0  0  0  0  0  0  0
  145.2821  136.4913  152.0817 C   0  0  0  0  0  0  0  0  0  0  0  0
  146.1417  135.6612  151.4876 N   0  0  0  0  0  0  0  0  0  0  0  0
  145.4539  134.7244  150.8018 N   0  0  0  0  0  0  0  0  0  0  0  0
  144.1912  135.0730  151.0419 C   0  0  0  0  0  0  0  0  0  0  0  0
  144.0162  136.1740  151.8336 N   0  0  0  0  0  0  0  0  0  0  0  0
  149.6569  139.1446  154.2540 C   0  0  0  0  0  0  0  0  0  0  0  0
  149.9620  139.8241  155.5983 C   0  0  0  0  0  0  0  0  0  0  0  0
  147.1510  135.6899  151.5196 H   0  0  0  0  0  0  0  0  0  0  0  0
  152.2348  144.4100  158.0584 H   0  0  0  0  0  0  0  0  0  0  0  0
  151.3544  143.2378  159.0338 H   0  0  0  0  0  0  0  0  0  0  0  0
  150.4772  144.4816  158.1427 H   0  0  0  0  0  0  0  0  0  0  0  0
  151.2640  143.4745  155.9827 H   0  0  0  0  0  0  0  0  0  0  0  0
  152.1236  142.2340  156.8625 H   0  0  0  0  0  0  0  0  0  0  0  0
  150.1136  141.2173  157.6624 H   0  0  0  0  0  0  0  0  0  0  0  0
  149.1222  142.5897  157.2526 H   0  0  0  0  0  0  0  0  0  0  0  0
  150.2802  141.7849  154.8016 H   0  0  0  0  0  0  0  0  0  0  0  0
  147.5067  141.1491  155.9129 H   0  0  0  0  0  0  0  0  0  0  0  0
  147.9457  142.6022  155.0504 H   0  0  0  0  0  0  0  0  0  0  0  0
  146.8029  141.0105  153.5658 H   0  0  0  0  0  0  0  0  0  0  0  0
  148.4233  141.3402  153.0044 H   0  0  0  0  0  0  0  0  0  0  0  0
  147.5575  138.8604  154.5807 H   0  0  0  0  0  0  0  0  0  0  0  0
  148.5031  139.1748  151.8261 H   0  0  0  0  0  0  0  0  0  0  0  0
  146.1009  139.6683  152.2101 H   0  0  0  0  0  0  0  0  0  0  0  0
  146.4776  138.4209  151.0327 H   0  0  0  0  0  0  0  0  0  0  0  0
  146.3279  137.2845  153.7411 H   0  0  0  0  0  0  0  0  0  0  0  0
  144.8493  138.1290  153.3401 H   0  0  0  0  0  0  0  0  0  0  0  0
  143.3635  134.5154  150.6287 H   0  0  0  0  0  0  0  0  0  0  0  0
  149.8796  138.0795  154.3267 H   0  0  0  0  0  0  0  0  0  0  0  0
  150.3212  139.5470  153.4875 H   0  0  0  0  0  0  0  0  0  0  0  0
  151.0127  139.6720  155.8484 H   0  0  0  0  0  0  0  0  0  0  0  0
  149.3850  139.3425  156.3893 H   0  0  0  0  0  0  0  0  0  0  0  0
  148.2602  137.7479  152.5948 H   0  0  0  0  0  0  0  0  0  0  0  0
  1  2  1  0  0  0  0
  1 19  1  0  0  0  0
  1 20  1  0  0  0  0
  1 21  1  0  0  0  0
  2  3  1  0  0  0  0
  2 22  1  0  0  0  0
  2 23  1  0  0  0  0
  3  4  1  0  0  0  0
  3 24  1  0  0  0  0
  3 25  1  0  0  0  0
  4 17  1  0  0  0  0
  4  5  1  0  0  0  0
  4 26  1  0  0  0  0
  5  6  1  0  0  0  0
  5 27  1  0  0  0  0
  5 28  1  0  0  0  0
  6  7  1  0  0  0  0
  6 29  1  0  0  0  0
  6 30  1  0  0  0  0
  7  8  1  0  0  0  0
  7 16  1  0  0  0  0
  7 31  1  0  0  0  0
  8  9  1  0  0  0  0
  8 32  1  0  0  0  0
  8 42  1  0  0  0  0
  9 10  1  0  0  0  0
  9 33  1  0  0  0  0
  9 34  1  0  0  0  0
 10 35  1  0  0  0  0
 10 36  1  0  0  0  0
 10 11  1  0  0  0  0
 11 15  2  0  0  0  0
 11 12  1  0  0  0  0
 12 18  1  0  0  0  0
 12 13  1  0  0  0  0
 13 14  2  0  0  0  0
 14 15  1  0  0  0  0
 14 37  1  0  0  0  0
 16 17  1  0  0  0  0
 16 38  1  0  0  0  0
 16 39  1  0  0  0  0
 17 40  1  0  0  0  0
 17 41  1  0  0  0  0
M  CHG  1   8   1
M  END
> <s_m_source_file>
AV-unprocessed.smi

> <i_m_source_file_index>
3025

> <i_lp_mmshare_version>
43012

> <i_f3d_flags>
0

> <s_epik_input>
W0NIM11bQ0gyXVtDSDJdW0NAQEhdMVtDSDJdW0NIMl1bQ0BIXShbQ0gyXVtDSDJdMSlbTkhdW0NIMl1bQ0gyXWMybm5bY0hdW25IXTI=

> <s_epik_cmdline>
J2VwaWtfcHl0aG9uJywgJy1waCcsICc3LjAnLCAnLXRuJywgJzgnLCAnLW1hJywgJzIwMCcsICctbWV0YWxfYmluZGluZycsICctaW1hZScsICc8aW5maWxlLm1hZT4nLCAnLW9tYWUnLCAnPG91dGZpbGUubWFlPic=

> <r_lp_tautomer_probability>
0.948284

> <r_epik_Ionization_Penalty>
0.0093758

> <r_epik_Ionization_Penalty_Charging>
0.000546397

> <r_epik_Ionization_Penalty_Neutral>
0.00882941

> <r_epik_State_Penalty>
0.401098

> <r_epik_Charging_Adjusted_Penalty>
0.401645

> <i_epik_Tot_Q>
1

> <i_epik_Tot_abs_Q>
1

> <r_epik_Metal_State_Penalty>
0.634803

> <b_epik_Metal_Only>
0

> <s_lp_Force_Field>
OPLS_2005

> <r_lp_Energy>
13.6193

> <b_lp_Chiralities_Consistent>
1

> <s_lp_Variant>
AV-unprocessed.smi:3025-1

> <Gold.Version>
5.8.1

> <Gold.Id.Protein>
6NUR|6NUR_protein|mol2

> <Gold.PLP.Fitness>
44.5869

> <Gold.PLP.PLP>
-31.8553

> <Gold.PLP.part.hbond>
-2.9281

> <Gold.PLP.part.metal>
0.0000

> <Gold.PLP.part.buried>
-4.1024

> <Gold.PLP.part.nonpolar>
-27.5256

> <Gold.PLP.part.repulsive>
0.7927

> <Gold.PLP.ligand.clash>
0.0000

> <Gold.PLP.ligand.torsion>
1.1678

> <Gold.PLP.Chemscore.Hbond>
3.9913

> <Gold.PLP.Chemscore.CHOScore>
1.0000

> <Gold.PLP.Chemscore.Metal>
0.0000

> <Gold.Chemscore.Hbonds>
donor molecule, donor type, donor heavy atom, donor atom, acceptor molecule, acceptor atom, score
      L1  H     8    32       P1  7957  0.99
      L1  H     8    42       P1  7948  2.00
      L1  H    12    18       P1  7948  1.00
      L1  C    14    37       P1 10186  0.87

> <Gold.PLP.Chemscore.Internal.Correction>
0.0934

> <Gold.Rescore>
     Score         DG    S(hbond)    S(metal)    S(lipo)     H(rot)  DE(clash)    DE(int)     intcor
     16.62     -17.87       2.88        0.00      79.61       2.56       0.08       1.16       ----

> <Gold.Chemscore.Fitness>
16.6245

> <Gold.Chemscore.DG>
-17.8679

> <Gold.Chemscore.ZeroCoef>
-5.4800

> <Gold.Chemscore.Hbond>
2.8826

> <Gold.Chemscore.Metal>
0.0000

> <Gold.Chemscore.Lipo>
79.6098

> <Gold.Chemscore.Internal_Hbond>
0.0000

> <Gold.Chemscore.DEClash>
0.0799

> <Gold.Chemscore.DEInternal>
1.1635

> <Gold.Chemscore.Rot>
2.5602

> <Gold.Chemscore.Internal.Correction>
   9.000000E+99

> <Gold.Chemscore.Hbonds>
donor molecule, donor type, donor heavy atom, donor atom, acceptor molecule, acceptor atom, score
      L1  H     8    32       P1  7957  0.90
      L1  H     8    42       P1  7948  0.94
      L1  H    12    18       P1  7948  0.99

> <Gold.Chemscore.Hbond.Weighted>
-9.6278

> <Gold.Chemscore.Metal.Weighted>
-0.0000

> <Gold.Chemscore.Lipo.Weighted>
-9.3143

> <Gold.Chemscore.Internal_Hbond.Weighted>
0.0000

> <Gold.Chemscore.DEClash.Weighted>
0.0799

> <Gold.Chemscore.DEInternal.Weighted>
1.1635

> <Gold.Chemscore.Rot.Weighted>
6.5542

> <Gold.Chemscore.Internal.Correction.Weighted>
   9.000000E+99

> <Gold.Protein.RotatedTorsions>
[ 6907 6896 6895 6894 ] final  -24.48 input  -60.11 | X-H torsion
[ 7974 7965 7964 7962 ] final -164.60 input  175.53 | X-H torsion
[ 8008 7997 7996 7995 ] final   40.74 input   59.86 | X-H torsion
[ 10167 10162 10161 10158 ] final   26.28 input  -65.29 | X-H torsion
[ 10718 10713 10712 10709 ] final   57.50 input   66.30 | X-H torsion
[ 10763 10752 10751 10750 ] final -116.08 input  -60.55 | X-H torsion
[ 11005 11000 10999 10996 ] final  -79.41 input  -57.11 | X-H torsion

> <Gold.Protein.ActiveResidues>
 VAL166  LYS551  ARG553  GLY616  TRP617  ASP618  TYR619  PRO620  LYS621  CYS622 
 ASP623  PHE694  ASN695  SER759  ASP760  ASP761  ALA762  ILE779  LEU786  VAL792 
 PHE793  MET794  SER795  GLU796  ALA797  LYS798  CYS799  TRP800  GLU811  SER814 

> <Gold.Protein.RotatedAtoms>
  151.1889  135.0394  159.8823 H   0  0  0  0  0  0  0  0  0  0  0  0  # atno 6907 bound_to 6896
  152.5440  134.0978  159.8315 H   0  0  0  0  0  0  0  0  0  0  0  0  # atno 6908 bound_to 6896
  151.1104  133.5130  159.2638 H   0  0  0  0  0  0  0  0  0  0  0  0  # atno 6909 bound_to 6896
  144.7292  140.2937  143.6216 H   0  0  0  0  0  0  0  0  0  0  0  0  # atno 7974 bound_to 7965
  155.2581  140.3357  155.4275 H   0  0  0  0  0  0  0  0  0  0  0  0  # atno 8008 bound_to 7997
  156.2186  140.1799  156.7573 H   0  0  0  0  0  0  0  0  0  0  0  0  # atno 8009 bound_to 7997
  154.5791  140.0656  156.9063 H   0  0  0  0  0  0  0  0  0  0  0  0  # atno 8010 bound_to 7997
  140.5036  144.0275  150.6343 H   0  0  0  0  0  0  0  0  0  0  0  0  # atno 10167 bound_to 10162
  157.5520  130.8772  149.8977 H   0  0  0  0  0  0  0  0  0  0  0  0  # atno 10718 bound_to 10713
  154.8506  135.4358  154.1764 H   0  0  0  0  0  0  0  0  0  0  0  0  # atno 10763 bound_to 10752
  153.2865  135.6958  153.7340 H   0  0  0  0  0  0  0  0  0  0  0  0  # atno 10764 bound_to 10752
  153.6524  135.3449  155.3078 H   0  0  0  0  0  0  0  0  0  0  0  0  # atno 10765 bound_to 10752
  141.1667  133.7104  156.8118 H   0  0  0  0  0  0  0  0  0  0  0  0  # atno 11005 bound_to 11000
  145.7830  139.1898  143.2147 LP  0  0  0  0  0  0  0  0  0  0  0  0  # atno 17320 bound_to 7965
  146.0818  140.7755  142.9638 LP  0  0  0  0  0  0  0  0  0  0  0  0  # atno 17321 bound_to 7965
  140.3578  143.2926  152.0417 LP  0  0  0  0  0  0  0  0  0  0  0  0  # atno 17342 bound_to 10162
  139.4878  144.6326  151.7040 LP  0  0  0  0  0  0  0  0  0  0  0  0  # atno 17343 bound_to 10162
  156.0585  130.3704  150.1037 LP  0  0  0  0  0  0  0  0  0  0  0  0  # atno 17370 bound_to 10713
  156.9209  130.9682  151.3548 LP  0  0  0  0  0  0  0  0  0  0  0  0  # atno 17371 bound_to 10713
  140.2182  134.8777  157.3348 LP  0  0  0  0  0  0  0  0  0  0  0  0  # atno 17394 bound_to 11000
  140.2015  134.4248  155.7660 LP  0  0  0  0  0  0  0  0  0  0  0  0  # atno 17395 bound_to 11000

$$$$
