AV-unprocessed.smi:290|AV-procd|sdf|2219|dock9
  -GOLD-   2262022 63D 1   1.00000     0.00000
 Structure written by MMmdl.
 59 62  0  0  0  0  0  0  0  0  2 V2000
  153.2573  144.9564  157.8813 C   0  0  0  0  0  0  0  0  0  0  0  0
  152.5905  144.2457  159.0693 C   0  0  2  0  0  0  0  0  0  0  0  0
  153.6196  143.6258  159.8362 O   0  0  0  0  0  0  0  0  0  0  0  0
  153.0887  142.4720  160.4627 C   0  0  0  0  0  0  0  0  0  0  0  0
  152.2143  141.8814  159.3677 C   0  0  0  0  0  0  0  0  0  0  0  0
  151.5766  143.1151  158.7334 C   0  0  1  0  0  0  0  0  0  0  0  0
  150.3770  143.3879  159.4386 O   0  0  0  0  0  0  0  0  0  0  0  0
  151.2239  142.9276  157.2340 C   0  0  0  0  0  0  0  0  0  0  0  0
  150.3825  141.7684  156.9793 N   0  0  0  0  0  0  0  0  0  0  0  0
  149.0945  141.5686  157.4253 C   0  0  0  0  0  0  0  0  0  0  0  0
  148.5439  140.4443  157.0549 N   0  0  0  0  0  0  0  0  0  0  0  0
  149.5312  139.8204  156.3040 C   0  0  0  0  0  0  0  0  0  0  0  0
  149.6049  138.5886  155.6045 C   0  0  0  0  0  0  0  0  0  0  0  0
  148.5590  137.7321  155.5659 N   0  0  0  0  0  0  0  0  0  0  0  0
  148.9130  136.3411  155.7759 C   0  0  0  0  0  0  0  0  0  0  0  0
  147.7070  135.5351  155.2952 C   0  0  0  0  0  0  0  0  0  0  0  0
  146.8583  136.5032  154.4432 C   0  0  2  0  0  0  0  0  0  0  0  0
  146.4667  135.8794  153.1395 N   0  3  1  0  0  0  0  0  0  0  0  0
  146.0336  134.4706  153.3314 C   0  0  0  0  0  0  0  0  0  0  0  0
  145.4971  136.6627  152.3208 C   0  0  0  0  0  0  0  0  0  0  0  0
  145.1116  135.9861  150.9915 C   0  0  0  0  0  0  0  0  0  0  0  0
  144.8837  136.9587  149.9932 O   0  0  0  0  0  0  0  0  0  0  0  0
  147.7323  137.7797  154.3660 C   0  0  1  0  0  0  0  0  0  0  0  0
  146.9257  139.0968  154.3285 C   0  0  0  0  0  0  0  0  0  0  0  0
  150.7610  138.2930  154.9533 N   0  0  0  0  0  0  0  0  0  0  0  0
  151.7853  139.1513  154.9921 C   0  0  0  0  0  0  0  0  0  0  0  0
  151.8600  140.3352  155.6047 N   0  0  0  0  0  0  0  0  0  0  0  0
  150.6963  140.6342  156.2511 C   0  0  0  0  0  0  0  0  0  0  0  0
  145.9511  136.7476  154.9994 H   0  0  0  0  0  0  0  0  0  0  0  0
  148.3876  137.7195  153.4957 H   0  0  0  0  0  0  0  0  0  0  0  0
  152.5223  145.4656  157.2581 H   0  0  0  0  0  0  0  0  0  0  0  0
  153.8127  144.2578  157.2555 H   0  0  0  0  0  0  0  0  0  0  0  0
  153.9630  145.7094  158.2332 H   0  0  0  0  0  0  0  0  0  0  0  0
  152.1205  145.0023  159.7007 H   0  0  0  0  0  0  0  0  0  0  0  0
  153.8744  141.7914  160.7905 H   0  0  0  0  0  0  0  0  0  0  0  0
  152.4939  142.7616  161.3304 H   0  0  0  0  0  0  0  0  0  0  0  0
  152.8545  141.3755  158.6441 H   0  0  0  0  0  0  0  0  0  0  0  0
  151.4931  141.1521  159.7397 H   0  0  0  0  0  0  0  0  0  0  0  0
  150.1120  144.2752  159.2493 H   0  0  0  0  0  0  0  0  0  0  0  0
  150.7134  143.8106  156.8475 H   0  0  0  0  0  0  0  0  0  0  0  0
  152.1309  142.8104  156.6403 H   0  0  0  0  0  0  0  0  0  0  0  0
  148.5695  142.2911  158.0334 H   0  0  0  0  0  0  0  0  0  0  0  0
  149.7977  136.0717  155.1968 H   0  0  0  0  0  0  0  0  0  0  0  0
  149.1284  136.1490  156.8275 H   0  0  0  0  0  0  0  0  0  0  0  0
  148.0471  134.6627  154.7358 H   0  0  0  0  0  0  0  0  0  0  0  0
  147.1241  135.1725  156.1426 H   0  0  0  0  0  0  0  0  0  0  0  0
  145.0430  134.4268  153.7860 H   0  0  0  0  0  0  0  0  0  0  0  0
  146.7180  133.9194  153.9758 H   0  0  0  0  0  0  0  0  0  0  0  0
  146.0042  133.9272  152.3880 H   0  0  0  0  0  0  0  0  0  0  0  0
  144.6004  136.8526  152.9122 H   0  0  0  0  0  0  0  0  0  0  0  0
  145.9177  137.6317  152.0590 H   0  0  0  0  0  0  0  0  0  0  0  0
  145.8608  135.2715  150.6539 H   0  0  0  0  0  0  0  0  0  0  0  0
  144.1904  135.4179  151.1247 H   0  0  0  0  0  0  0  0  0  0  0  0
  145.4071  136.7450  149.2353 H   0  0  0  0  0  0  0  0  0  0  0  0
  146.2510  139.1565  153.4773 H   0  0  0  0  0  0  0  0  0  0  0  0
  147.5857  139.9628  154.2694 H   0  0  0  0  0  0  0  0  0  0  0  0
  146.3203  139.2096  155.2286 H   0  0  0  0  0  0  0  0  0  0  0  0
  152.6713  138.8475  154.4542 H   0  0  0  0  0  0  0  0  0  0  0  0
  147.3140  135.8469  152.5903 H   0  0  0  0  0  0  0  0  0  0  0  0
  1  2  1  0  0  0  0
  1 31  1  0  0  0  0
  1 32  1  0  0  0  0
  1 33  1  0  0  0  0
  2  6  1  0  0  0  0
  2  3  1  0  0  0  0
  2 34  1  0  0  0  0
  3  4  1  0  0  0  0
  4  5  1  0  0  0  0
  4 35  1  0  0  0  0
  4 36  1  0  0  0  0
  5  6  1  0  0  0  0
  5 37  1  0  0  0  0
  5 38  1  0  0  0  0
  6  7  1  0  0  0  0
  6  8  1  0  0  0  0
  7 39  1  0  0  0  0
  8  9  1  0  0  0  0
  8 40  1  0  0  0  0
  8 41  1  0  0  0  0
  9 28  1  0  0  0  0
  9 10  1  0  0  0  0
 10 11  2  0  0  0  0
 10 42  1  0  0  0  0
 11 12  1  0  0  0  0
 12 28  2  0  0  0  0
 12 13  1  0  0  0  0
 13 14  1  0  0  0  0
 13 25  2  0  0  0  0
 14 23  1  0  0  0  0
 14 15  1  0  0  0  0
 15 16  1  0  0  0  0
 15 43  1  0  0  0  0
 15 44  1  0  0  0  0
 16 17  1  0  0  0  0
 16 45  1  0  0  0  0
 16 46  1  0  0  0  0
 17 29  1  0  0  0  0
 17 18  1  0  0  0  0
 17 23  1  0  0  0  0
 18 19  1  0  0  0  0
 18 20  1  0  0  0  0
 18 59  1  0  0  0  0
 19 47  1  0  0  0  0
 19 48  1  0  0  0  0
 19 49  1  0  0  0  0
 20 21  1  0  0  0  0
 20 50  1  0  0  0  0
 20 51  1  0  0  0  0
 21 22  1  0  0  0  0
 21 52  1  0  0  0  0
 21 53  1  0  0  0  0
 22 54  1  0  0  0  0
 23 30  1  0  0  0  0
 23 24  1  0  0  0  0
 24 55  1  0  0  0  0
 24 56  1  0  0  0  0
 24 57  1  0  0  0  0
 25 26  1  0  0  0  0
 26 27  2  0  0  0  0
 26 58  1  0  0  0  0
 27 28  1  0  0  0  0
M  CHG  1  18   1
M  END
> <s_m_source_file>
AV-unprocessed.smi

> <i_m_source_file_index>
290

> <i_lp_mmshare_version>
43012

> <i_f3d_flags>
0

> <s_epik_input>
W0NIMl0xW0NIMl1PW0NAQEhdKFtDSDNdKVtDQEBdMShbT0hdKVtDSDJdbihbY0hdbjIpYyhjMjMpbltjSF1uYzNONFtDSDJdW0NIMl1bQ0BIXShbQ0BIXTRbQ0gzXSlOKFtDSDNdKVtDSDJdW0NIMl1bT0hd

> <s_epik_cmdline>
J2VwaWtfcHl0aG9uJywgJy1waCcsICc3LjAnLCAnLXRuJywgJzgnLCAnLW1hJywgJzIwMCcsICctbWV0YWxfYmluZGluZycsICctaW1hZScsICc8aW5maWxlLm1hZT4nLCAnLW9tYWUnLCAnPG91dGZpbGUubWFlPic=

> <r_lp_tautomer_probability>
1

> <r_epik_Ionization_Penalty>
0.0036983

> <r_epik_Ionization_Penalty_Charging>
0.0032725

> <r_epik_Ionization_Penalty_Neutral>
0.000425798

> <r_epik_State_Penalty>
-0

> <r_epik_Charging_Adjusted_Penalty>
0.0032725

> <i_epik_Tot_Q>
1

> <i_epik_Tot_abs_Q>
1

> <r_epik_Metal_State_Penalty>
-0

> <b_epik_Metal_Only>
0

> <s_lp_Force_Field>
OPLS_2005

> <r_lp_Energy>
64.8136

> <b_lp_Chiralities_Consistent>
1

> <s_lp_Variant>
AV-unprocessed.smi:290-5

> <Gold.Version>
5.8.1

> <Gold.Id.Protein>
6NUR|6NUR_protein|mol2

> <Gold.PLP.Fitness>
49.2131

> <Gold.PLP.PLP>
-41.2018

> <Gold.PLP.part.hbond>
-4.8447

> <Gold.PLP.part.metal>
0.0000

> <Gold.PLP.part.buried>
-5.2278

> <Gold.PLP.part.nonpolar>
-32.1893

> <Gold.PLP.part.repulsive>
0.2374

> <Gold.PLP.ligand.clash>
0.0000

> <Gold.PLP.ligand.torsion>
0.9697

> <Gold.PLP.Chemscore.Hbond>
3.2490

> <Gold.PLP.Chemscore.CHOScore>
0.0000

> <Gold.PLP.Chemscore.Metal>
0.0000

> <Gold.Chemscore.Hbonds>
donor molecule, donor type, donor heavy atom, donor atom, acceptor molecule, acceptor atom, score
      L1  H    18    59       P1  7948  2.00

> <Gold.PLP.Chemscore.Internal.Correction>
0.2039

> <Gold.Rescore>
     Score         DG    S(hbond)    S(metal)    S(lipo)     H(rot)  DE(clash)    DE(int)     intcor
     11.95     -14.02       1.95        0.00      97.63       3.67       0.30       1.77       ----

> <Gold.Chemscore.Fitness>
11.9485

> <Gold.Chemscore.DG>
-14.0159

> <Gold.Chemscore.ZeroCoef>
-5.4800

> <Gold.Chemscore.Hbond>
1.9453

> <Gold.Chemscore.Metal>
0.0000

> <Gold.Chemscore.Lipo>
97.6325

> <Gold.Chemscore.Internal_Hbond>
0.0000

> <Gold.Chemscore.DEClash>
0.2969

> <Gold.Chemscore.DEInternal>
1.7705

> <Gold.Chemscore.Rot>
3.6658

> <Gold.Chemscore.Internal.Correction>
   9.000000E+99

> <Gold.Chemscore.Hbonds>
donor molecule, donor type, donor heavy atom, donor atom, acceptor molecule, acceptor atom, score
      L1  H    18    59       P1  7948  1.00

> <Gold.Chemscore.Hbond.Weighted>
-6.4974

> <Gold.Chemscore.Metal.Weighted>
-0.0000

> <Gold.Chemscore.Lipo.Weighted>
-11.4230

> <Gold.Chemscore.Internal_Hbond.Weighted>
0.0000

> <Gold.Chemscore.DEClash.Weighted>
0.2969

> <Gold.Chemscore.DEInternal.Weighted>
1.7705

> <Gold.Chemscore.Rot.Weighted>
9.3844

> <Gold.Chemscore.Internal.Correction.Weighted>
   9.000000E+99

> <Gold.Protein.RotatedTorsions>
[ 6907 6896 6895 6894 ] final   75.55 input  -60.11 | X-H torsion
[ 7974 7965 7964 7962 ] final  129.03 input  175.53 | X-H torsion
[ 8008 7997 7996 7995 ] final   -0.14 input   59.86 | X-H torsion
[ 10167 10162 10161 10158 ] final -149.92 input  -65.29 | X-H torsion
[ 10718 10713 10712 10709 ] final  129.74 input   66.30 | X-H torsion
[ 10763 10752 10751 10750 ] final  -74.17 input  -60.55 | X-H torsion
[ 11005 11000 10999 10996 ] final    8.75 input  -57.11 | X-H torsion

> <Gold.Protein.ActiveResidues>
 VAL166  LYS551  ARG553  GLY616  TRP617  ASP618  TYR619  PRO620  LYS621  CYS622 
 ASP623  PHE694  ASN695  SER759  ASP760  ASP761  ALA762  ILE779  LEU786  VAL792 
 PHE793  MET794  SER795  GLU796  ALA797  LYS798  CYS799  TRP800  GLU811  SER814 

> <Gold.Protein.RotatedAtoms>
  152.5031  134.4103  159.9446 H   0  0  0  0  0  0  0  0  0  0  0  0  # atno 6907 bound_to 6896
  151.4071  133.3733  159.2747 H   0  0  0  0  0  0  0  0  0  0  0  0  # atno 6908 bound_to 6896
  150.9319  134.8755  159.7616 H   0  0  0  0  0  0  0  0  0  0  0  0  # atno 6909 bound_to 6896
  145.0331  139.4028  143.5139 H   0  0  0  0  0  0  0  0  0  0  0  0  # atno 7974 bound_to 7965
  154.6614  140.2591  155.7104 H   0  0  0  0  0  0  0  0  0  0  0  0  # atno 8008 bound_to 7997
  156.2620  140.2848  156.1010 H   0  0  0  0  0  0  0  0  0  0  0  0  # atno 8009 bound_to 7997
  155.1302  140.0378  157.2763 H   0  0  0  0  0  0  0  0  0  0  0  0  # atno 8010 bound_to 7997
  139.7400  143.8677  152.2559 H   0  0  0  0  0  0  0  0  0  0  0  0  # atno 10167 bound_to 10162
  157.5127  131.1097  150.9270 H   0  0  0  0  0  0  0  0  0  0  0  0  # atno 10718 bound_to 10713
  154.4695  135.5873  153.6312 H   0  0  0  0  0  0  0  0  0  0  0  0  # atno 10763 bound_to 10752
  152.9833  135.6063  154.3385 H   0  0  0  0  0  0  0  0  0  0  0  0  # atno 10764 bound_to 10752
  154.3265  135.2843  155.2472 H   0  0  0  0  0  0  0  0  0  0  0  0  # atno 10765 bound_to 10752
  140.5335  134.0443  155.7881 H   0  0  0  0  0  0  0  0  0  0  0  0  # atno 11005 bound_to 11000
  146.3501  139.9892  142.8687 LP  0  0  0  0  0  0  0  0  0  0  0  0  # atno 17320 bound_to 7965
  145.1744  140.9737  143.4302 LP  0  0  0  0  0  0  0  0  0  0  0  0  # atno 17321 bound_to 7965
  139.8625  144.7110  150.9083 LP  0  0  0  0  0  0  0  0  0  0  0  0  # atno 17342 bound_to 10162
  140.7784  143.3806  151.1484 LP  0  0  0  0  0  0  0  0  0  0  0  0  # atno 17343 bound_to 10162
  156.9905  130.5561  149.5303 LP  0  0  0  0  0  0  0  0  0  0  0  0  # atno 17370 bound_to 10713
  156.0299  130.5391  150.8507 LP  0  0  0  0  0  0  0  0  0  0  0  0  # atno 17371 bound_to 10713
  141.1268  133.9370  157.2619 LP  0  0  0  0  0  0  0  0  0  0  0  0  # atno 17394 bound_to 11000
  139.9542  135.0169  156.9079 LP  0  0  0  0  0  0  0  0  0  0  0  0  # atno 17395 bound_to 11000

$$$$
