AV-unprocessed.smi:260|AV-procd|sdf|1979|dock9
  -GOLD-   2262021153D 1   1.00000     0.00000
 Structure written by MMmdl.
 53 56  0  0  0  0  0  0  0  0  1 V2000
  149.9353  131.6901  156.8078 C   0  0  0  0  0  0  0  0  0  0  0  0
  149.5444  132.8666  156.0468 N   0  0  0  0  0  0  0  0  0  0  0  0
  149.1273  132.8407  154.7709 C   0  0  0  0  0  0  0  0  0  0  0  0
  149.0382  131.7892  154.1349 O   0  0  0  0  0  0  0  0  0  0  0  0
  148.7497  134.1994  154.1225 C   0  0  1  0  0  0  0  0  0  0  0  0
  148.3438  134.0095  152.6440 C   0  0  0  0  0  0  0  0  0  0  0  0
  147.6377  134.9232  154.9152 C   0  0  0  0  0  0  0  0  0  0  0  0
  148.3624  135.6873  156.0322 C   0  0  0  0  0  0  0  0  0  0  0  0
  149.7469  135.7977  155.5978 N   0  0  0  0  0  0  0  0  0  0  0  0
  150.5445  136.8107  156.0258 C   0  0  0  0  0  0  0  0  0  0  0  0
  151.5137  137.2745  155.1921 N   0  0  0  0  0  0  0  0  0  0  0  0
  152.3179  138.2713  155.5723 C   0  0  0  0  0  0  0  0  0  0  0  0
  152.3314  138.9375  156.7276 N   0  0  0  0  0  0  0  0  0  0  0  0
  151.3714  138.4713  157.5757 C   0  0  0  0  0  0  0  0  0  0  0  0
  150.4457  137.4207  157.3117 C   0  0  0  0  0  0  0  0  0  0  0  0
  149.6333  137.2267  158.4246 N   0  0  0  0  0  0  0  0  0  0  0  0
  150.0466  138.1139  159.2872 C   0  0  0  0  0  0  0  0  0  0  0  0
  151.0870  138.9047  158.8581 N   0  0  0  0  0  0  0  0  0  0  0  0
  151.7399  139.9669  159.6030 C   0  0  0  0  0  0  0  0  0  0  0  0
  151.4105  141.3669  159.0489 C   0  0  2  0  0  0  0  0  0  0  0  0
  151.9864  141.5074  157.7638 O   0  0  0  0  0  0  0  0  0  0  0  0
  151.9430  142.4905  159.9573 C   0  0  1  0  0  0  0  0  0  0  0  0
  151.9776  143.8720  159.3062 C   0  0  0  0  0  0  0  0  0  0  0  0
  152.0334  144.7914  160.5093 C   0  0  0  0  0  0  0  0  0  0  0  0
  151.2927  144.0034  161.5930 C   0  0  0  0  0  0  0  0  0  0  0  0
  151.0682  142.7027  161.0567 O   0  0  0  0  0  0  0  0  0  0  0  0
  149.9081  135.2015  154.2780 C   0  0  0  0  0  0  0  0  0  0  0  0
  150.2458  131.9826  157.8109 H   0  0  0  0  0  0  0  0  0  0  0  0
  150.7698  131.1769  156.3283 H   0  0  0  0  0  0  0  0  0  0  0  0
  149.1022  130.9921  156.8983 H   0  0  0  0  0  0  0  0  0  0  0  0
  149.5932  133.7587  156.5170 H   0  0  0  0  0  0  0  0  0  0  0  0
  148.0011  134.9463  152.2034 H   0  0  0  0  0  0  0  0  0  0  0  0
  147.5318  133.2880  152.5448 H   0  0  0  0  0  0  0  0  0  0  0  0
  149.1784  133.6626  152.0336 H   0  0  0  0  0  0  0  0  0  0  0  0
  147.1306  135.6438  154.2720 H   0  0  0  0  0  0  0  0  0  0  0  0
  146.8660  134.2567  155.3030 H   0  0  0  0  0  0  0  0  0  0  0  0
  147.9041  136.6632  156.1967 H   0  0  0  0  0  0  0  0  0  0  0  0
  148.3279  135.1289  156.9682 H   0  0  0  0  0  0  0  0  0  0  0  0
  153.0554  138.5793  154.8462 H   0  0  0  0  0  0  0  0  0  0  0  0
  149.6031  138.2139  160.2670 H   0  0  0  0  0  0  0  0  0  0  0  0
  151.4275  139.8889  160.6449 H   0  0  0  0  0  0  0  0  0  0  0  0
  152.8166  139.7928  159.5880 H   0  0  0  0  0  0  0  0  0  0  0  0
  150.3292  141.4684  158.9452 H   0  0  0  0  0  0  0  0  0  0  0  0
  152.0526  142.4284  157.5638 H   0  0  0  0  0  0  0  0  0  0  0  0
  152.9329  142.2370  160.3425 H   0  0  0  0  0  0  0  0  0  0  0  0
  152.8236  144.0052  158.6312 H   0  0  0  0  0  0  0  0  0  0  0  0
  151.0601  144.0502  158.7432 H   0  0  0  0  0  0  0  0  0  0  0  0
  153.0698  144.9521  160.8089 H   0  0  0  0  0  0  0  0  0  0  0  0
  151.5841  145.7653  160.3124 H   0  0  0  0  0  0  0  0  0  0  0  0
  151.8886  143.9373  162.5041 H   0  0  0  0  0  0  0  0  0  0  0  0
  150.3366  144.4623  161.8461 H   0  0  0  0  0  0  0  0  0  0  0  0
  150.8827  134.7194  154.1863 H   0  0  0  0  0  0  0  0  0  0  0  0
  149.8498  135.9816  153.5176 H   0  0  0  0  0  0  0  0  0  0  0  0
  1  2  1  0  0  0  0
  1 28  1  0  0  0  0
  1 29  1  0  0  0  0
  1 30  1  0  0  0  0
  2  3  1  0  0  0  0
  2 31  1  0  0  0  0
  3  4  2  0  0  0  0
  3  5  1  0  0  0  0
  5 27  1  0  0  0  0
  5  6  1  0  0  0  0
  5  7  1  0  0  0  0
  6 32  1  0  0  0  0
  6 33  1  0  0  0  0
  6 34  1  0  0  0  0
  7  8  1  0  0  0  0
  7 35  1  0  0  0  0
  7 36  1  0  0  0  0
  8  9  1  0  0  0  0
  8 37  1  0  0  0  0
  8 38  1  0  0  0  0
  9 10  1  0  0  0  0
  9 27  1  0  0  0  0
 10 15  1  0  0  0  0
 10 11  2  0  0  0  0
 11 12  1  0  0  0  0
 12 13  2  0  0  0  0
 12 39  1  0  0  0  0
 13 14  1  0  0  0  0
 14 18  1  0  0  0  0
 14 15  2  0  0  0  0
 15 16  1  0  0  0  0
 16 17  2  0  0  0  0
 17 18  1  0  0  0  0
 17 40  1  0  0  0  0
 18 19  1  0  0  0  0
 19 20  1  0  0  0  0
 19 41  1  0  0  0  0
 19 42  1  0  0  0  0
 20 21  1  0  0  0  0
 20 22  1  0  0  0  0
 20 43  1  0  0  0  0
 21 44  1  0  0  0  0
 22 26  1  0  0  0  0
 22 23  1  0  0  0  0
 22 45  1  0  0  0  0
 23 24  1  0  0  0  0
 23 46  1  0  0  0  0
 23 47  1  0  0  0  0
 24 25  1  0  0  0  0
 24 48  1  0  0  0  0
 24 49  1  0  0  0  0
 25 26  1  0  0  0  0
 25 50  1  0  0  0  0
 25 51  1  0  0  0  0
 27 52  1  0  0  0  0
 27 53  1  0  0  0  0
M  END
> <s_m_source_file>
AV-unprocessed.smi

> <i_m_source_file_index>
260

> <i_lp_mmshare_version>
43012

> <i_f3d_flags>
0

> <s_epik_input>
W0NIM11bTkhdQyg9TylbQ0BAXTEoW0NIM10pW0NIMl1bQ0gyXU4oW0NIMl0xKWMobltjSF1uMiljKGMyMyluW2NIXW4zW0NIMl1bQ0BIXShbT0hdKVtDQEBIXTRbQ0gyXVtDSDJdW0NIMl1PNA==

> <s_epik_cmdline>
J2VwaWtfcHl0aG9uJywgJy1waCcsICc3LjAnLCAnLXRuJywgJzgnLCAnLW1hJywgJzIwMCcsICctbWV0YWxfYmluZGluZycsICctaW1hZScsICc8aW5maWxlLm1hZT4nLCAnLW9tYWUnLCAnPG91dGZpbGUubWFlPic=

> <r_lp_tautomer_probability>
1

> <r_epik_Ionization_Penalty>
0.00115068

> <r_epik_Ionization_Penalty_Charging>
0

> <r_epik_Ionization_Penalty_Neutral>
0.00115068

> <r_epik_State_Penalty>
0.000668876

> <r_epik_Charging_Adjusted_Penalty>
0.000668876

> <i_epik_Tot_Q>
0

> <i_epik_Tot_abs_Q>
0

> <r_epik_Metal_State_Penalty>
-0

> <b_epik_Metal_Only>
0

> <s_lp_Force_Field>
OPLS_2005

> <r_lp_Energy>
50.4513

> <b_lp_Chiralities_Consistent>
1

> <s_lp_Variant>
AV-unprocessed.smi:260-5

> <Gold.Version>
5.8.1

> <Gold.Id.Protein>
6NUR|6NUR_protein|mol2

> <Gold.PLP.Fitness>
51.2463

> <Gold.PLP.PLP>
-43.2936

> <Gold.PLP.part.hbond>
-3.7845

> <Gold.PLP.part.metal>
0.0000

> <Gold.PLP.part.buried>
-6.3475

> <Gold.PLP.part.nonpolar>
-33.8512

> <Gold.PLP.part.repulsive>
0.2564

> <Gold.PLP.ligand.clash>
0.0000

> <Gold.PLP.ligand.torsion>
0.7309

> <Gold.PLP.Chemscore.Hbond>
3.0068

> <Gold.PLP.Chemscore.CHOScore>
0.0000

> <Gold.PLP.Chemscore.Metal>
0.0000

> <Gold.Chemscore.Hbonds>
donor molecule, donor type, donor heavy atom, donor atom, acceptor molecule, acceptor atom, score
      P1  H  6933  6945       L1    26  0.16
      P1  H  7997  8010       L1    13  0.12
      P1  H 10752 10765       L1    11  0.37

> <Gold.PLP.Chemscore.Internal.Correction>
0.3941

> <Gold.Rescore>
     Score         DG    S(hbond)    S(metal)    S(lipo)     H(rot)  DE(clash)    DE(int)     intcor
     13.47     -16.00       1.81        0.00      93.62       2.53       0.19       2.33       ----

> <Gold.Chemscore.Fitness>
13.4742

> <Gold.Chemscore.DG>
-15.9977

> <Gold.Chemscore.ZeroCoef>
-5.4800

> <Gold.Chemscore.Hbond>
1.8055

> <Gold.Chemscore.Metal>
0.0000

> <Gold.Chemscore.Lipo>
93.6200

> <Gold.Chemscore.Internal_Hbond>
0.0000

> <Gold.Chemscore.DEClash>
0.1902

> <Gold.Chemscore.DEInternal>
2.3333

> <Gold.Chemscore.Rot>
2.5259

> <Gold.Chemscore.Internal.Correction>
   9.000000E+99

> <Gold.Chemscore.Hbonds>
donor molecule, donor type, donor heavy atom, donor atom, acceptor molecule, acceptor atom, score
      P1  H  6933  6945       L1    26  0.12
      P1  H  7997  8010       L1    13  0.02
      P1  H 10752 10765       L1    11  0.14

> <Gold.Chemscore.Hbond.Weighted>
-6.0305

> <Gold.Chemscore.Metal.Weighted>
-0.0000

> <Gold.Chemscore.Lipo.Weighted>
-10.9535

> <Gold.Chemscore.Internal_Hbond.Weighted>
0.0000

> <Gold.Chemscore.DEClash.Weighted>
0.1902

> <Gold.Chemscore.DEInternal.Weighted>
2.3333

> <Gold.Chemscore.Rot.Weighted>
6.4663

> <Gold.Chemscore.Internal.Correction.Weighted>
   9.000000E+99

> <Gold.Protein.RotatedTorsions>
[ 6907 6896 6895 6894 ] final  109.43 input  -60.11 | X-H torsion
[ 7974 7965 7964 7962 ] final  -78.61 input  175.53 | X-H torsion
[ 8008 7997 7996 7995 ] final   81.13 input   59.86 | X-H torsion
[ 10167 10162 10161 10158 ] final  117.89 input  -65.29 | X-H torsion
[ 10718 10713 10712 10709 ] final  122.34 input   66.30 | X-H torsion
[ 10763 10752 10751 10750 ] final  173.20 input  -60.55 | X-H torsion
[ 11005 11000 10999 10996 ] final  163.61 input  -57.11 | X-H torsion

> <Gold.Protein.ActiveResidues>
 VAL166  LYS551  ARG553  GLY616  TRP617  ASP618  TYR619  PRO620  LYS621  CYS622 
 ASP623  PHE694  ASN695  SER759  ASP760  ASP761  ALA762  ILE779  LEU786  VAL792 
 PHE793  MET794  SER795  GLU796  ALA797  LYS798  CYS799  TRP800  GLU811  SER814 

> <Gold.Protein.RotatedAtoms>
  152.5067  133.8945  159.7410 H   0  0  0  0  0  0  0  0  0  0  0  0  # atno 6907 bound_to 6896
  150.9376  133.6685  159.2804 H   0  0  0  0  0  0  0  0  0  0  0  0  # atno 6908 bound_to 6896
  151.4008  135.0975  159.9608 H   0  0  0  0  0  0  0  0  0  0  0  0  # atno 6909 bound_to 6896
  145.5841  140.9442  143.1328 H   0  0  0  0  0  0  0  0  0  0  0  0  # atno 7974 bound_to 7965
  155.8929  140.3438  155.5969 H   0  0  0  0  0  0  0  0  0  0  0  0  # atno 8008 bound_to 7997
  155.7590  140.0830  157.2184 H   0  0  0  0  0  0  0  0  0  0  0  0  # atno 8009 bound_to 7997
  154.4035  140.1539  156.2797 H   0  0  0  0  0  0  0  0  0  0  0  0  # atno 8010 bound_to 7997
  139.6148  144.7090  151.2763 H   0  0  0  0  0  0  0  0  0  0  0  0  # atno 10167 bound_to 10162
  157.5749  131.1080  150.8297 H   0  0  0  0  0  0  0  0  0  0  0  0  # atno 10718 bound_to 10713
  154.4367  135.2761  155.1875 H   0  0  0  0  0  0  0  0  0  0  0  0  # atno 10763 bound_to 10752
  154.3759  135.6098  153.5768 H   0  0  0  0  0  0  0  0  0  0  0  0  # atno 10764 bound_to 10752
  152.9839  135.5868  154.4688 H   0  0  0  0  0  0  0  0  0  0  0  0  # atno 10765 bound_to 10752
  140.2375  134.8076  157.3378 H   0  0  0  0  0  0  0  0  0  0  0  0  # atno 11005 bound_to 11000
  144.7380  139.7529  143.7321 LP  0  0  0  0  0  0  0  0  0  0  0  0  # atno 17320 bound_to 7965
  146.1695  139.4839  142.9937 LP  0  0  0  0  0  0  0  0  0  0  0  0  # atno 17321 bound_to 7965
  140.7344  143.6768  150.8035 LP  0  0  0  0  0  0  0  0  0  0  0  0  # atno 17342 bound_to 10162
  140.0369  143.5386  152.2735 LP  0  0  0  0  0  0  0  0  0  0  0  0  # atno 17343 bound_to 10162
  156.8758  130.5162  149.5294 LP  0  0  0  0  0  0  0  0  0  0  0  0  # atno 17370 bound_to 10713
  156.0794  130.5808  150.9535 LP  0  0  0  0  0  0  0  0  0  0  0  0  # atno 17371 bound_to 10713
  140.1687  134.4636  155.7846 LP  0  0  0  0  0  0  0  0  0  0  0  0  # atno 17394 bound_to 11000
  141.2213  133.6932  156.7670 LP  0  0  0  0  0  0  0  0  0  0  0  0  # atno 17395 bound_to 11000

$$$$
