AV-unprocessed.smi:3349|AV-procd|sdf|12933|dock2
  -GOLD-   2272019363D 1   1.00000     0.00000
 Structure written by MMmdl.
 40 41  0  0  0  0  0  0  0  0  1 V2000
  151.5966  140.2392  157.3133 C   0  0  0  0  0  0  0  0  0  0  0  0
  151.1238  141.6977  157.5488 C   0  0  2  0  0  0  0  0  0  0  0  0
  151.0440  142.4262  156.1787 C   0  0  0  0  0  0  0  0  0  0  0  0
  149.8717  142.0253  155.4100 N   0  0  0  0  0  0  0  0  0  0  0  0
  149.7570  140.8797  154.7210 C   0  0  0  0  0  0  0  0  0  0  0  0
  150.6732  140.0626  154.6235 O   0  0  0  0  0  0  0  0  0  0  0  0
  148.3979  140.6299  154.0444 C   0  0  1  0  0  0  0  0  0  0  0  0
  147.8783  139.1912  154.2425 C   0  0  0  0  0  0  0  0  0  0  0  0
  147.4226  141.6244  154.4776 N   0  0  0  0  0  0  0  0  0  0  0  0
  146.7659  142.5471  153.7709 C   0  0  0  0  0  0  0  0  0  0  0  0
  145.9830  143.3289  154.5011 N   0  0  0  0  0  0  0  0  0  0  0  0
  146.2258  142.8030  155.7381 C   0  0  0  0  0  0  0  0  0  0  0  0
  147.0868  141.7865  155.7819 N   0  0  0  0  0  0  0  0  0  0  0  0
  151.9535  142.4138  158.5458 N   0  0  0  0  0  0  0  0  0  0  0  0
  151.4265  143.7434  158.8755 C   0  0  0  0  0  0  0  0  0  0  0  0
  152.2689  144.4755  159.9347 C   0  0  0  0  0  0  0  0  0  0  0  0
  152.3606  143.6807  161.1087 O   0  0  0  0  0  0  0  0  0  0  0  0
  152.9420  142.4110  160.8476 C   0  0  0  0  0  0  0  0  0  0  0  0
  152.1019  141.6630  159.7981 C   0  0  0  0  0  0  0  0  0  0  0  0
  151.0180  139.7287  156.5439 H   0  0  0  0  0  0  0  0  0  0  0  0
  151.4890  139.6202  158.2029 H   0  0  0  0  0  0  0  0  0  0  0  0
  152.6426  140.2097  157.0067 H   0  0  0  0  0  0  0  0  0  0  0  0
  150.1058  141.6427  157.9382 H   0  0  0  0  0  0  0  0  0  0  0  0
  150.9612  143.5052  156.2978 H   0  0  0  0  0  0  0  0  0  0  0  0
  151.9540  142.2341  155.6070 H   0  0  0  0  0  0  0  0  0  0  0  0
  149.0765  142.6465  155.4358 H   0  0  0  0  0  0  0  0  0  0  0  0
  148.5482  140.7750  152.9734 H   0  0  0  0  0  0  0  0  0  0  0  0
  148.5818  138.4599  153.8428 H   0  0  0  0  0  0  0  0  0  0  0  0
  146.9300  139.0464  153.7243 H   0  0  0  0  0  0  0  0  0  0  0  0
  147.7182  138.9552  155.2956 H   0  0  0  0  0  0  0  0  0  0  0  0
  146.8680  142.6540  152.7009 H   0  0  0  0  0  0  0  0  0  0  0  0
  145.7583  143.1843  156.6341 H   0  0  0  0  0  0  0  0  0  0  0  0
  151.4083  144.3805  157.9936 H   0  0  0  0  0  0  0  0  0  0  0  0
  150.3975  143.6569  159.2279 H   0  0  0  0  0  0  0  0  0  0  0  0
  153.2682  144.6908  159.5524 H   0  0  0  0  0  0  0  0  0  0  0  0
  151.8106  145.4317  160.1879 H   0  0  0  0  0  0  0  0  0  0  0  0
  153.9699  142.5355  160.5034 H   0  0  0  0  0  0  0  0  0  0  0  0
  152.9823  141.8410  161.7760 H   0  0  0  0  0  0  0  0  0  0  0  0
  151.1183  141.4403  160.2146 H   0  0  0  0  0  0  0  0  0  0  0  0
  152.5938  140.7088  159.6185 H   0  0  0  0  0  0  0  0  0  0  0  0
  1  2  1  0  0  0  0
  1 20  1  0  0  0  0
  1 21  1  0  0  0  0
  1 22  1  0  0  0  0
  2  3  1  0  0  0  0
  2 14  1  0  0  0  0
  2 23  1  0  0  0  0
  3  4  1  0  0  0  0
  3 24  1  0  0  0  0
  3 25  1  0  0  0  0
  4  5  1  0  0  0  0
  4 26  1  0  0  0  0
  5  6  2  0  0  0  0
  5  7  1  0  0  0  0
  7  8  1  0  0  0  0
  7  9  1  0  0  0  0
  7 27  1  0  0  0  0
  8 28  1  0  0  0  0
  8 29  1  0  0  0  0
  8 30  1  0  0  0  0
  9 13  1  0  0  0  0
  9 10  1  0  0  0  0
 10 11  2  0  0  0  0
 10 31  1  0  0  0  0
 11 12  1  0  0  0  0
 12 13  2  0  0  0  0
 12 32  1  0  0  0  0
 14 19  1  0  0  0  0
 14 15  1  0  0  0  0
 15 16  1  0  0  0  0
 15 33  1  0  0  0  0
 15 34  1  0  0  0  0
 16 17  1  0  0  0  0
 16 35  1  0  0  0  0
 16 36  1  0  0  0  0
 17 18  1  0  0  0  0
 18 19  1  0  0  0  0
 18 37  1  0  0  0  0
 18 38  1  0  0  0  0
 19 39  1  0  0  0  0
 19 40  1  0  0  0  0
M  END
> <s_m_source_file>
AV-unprocessed.smi

> <i_m_source_file_index>
3349

> <i_lp_mmshare_version>
43012

> <i_f3d_flags>
0

> <s_epik_input>
W0NIMl0xW0NIMl1PW0NIMl1bQ0gyXU4xW0NASF0oW0NIM10pW0NIMl1bTkhdQyg9TylbQ0BIXShbQ0gzXSluMltjSF1uW2NIXW4y

> <s_epik_cmdline>
J2VwaWtfcHl0aG9uJywgJy1waCcsICc3LjAnLCAnLXRuJywgJzgnLCAnLW1hJywgJzIwMCcsICctbWV0YWxfYmluZGluZycsICctaW1hZScsICc8aW5maWxlLm1hZT4nLCAnLW9tYWUnLCAnPG91dGZpbGUubWFlPic=

> <r_lp_tautomer_probability>
1

> <r_epik_Ionization_Penalty>
0.211373

> <r_epik_Ionization_Penalty_Charging>
0

> <r_epik_Ionization_Penalty_Neutral>
0.211373

> <r_epik_State_Penalty>
0.201459

> <r_epik_Charging_Adjusted_Penalty>
0.201459

> <i_epik_Tot_Q>
0

> <i_epik_Tot_abs_Q>
0

> <r_epik_Metal_State_Penalty>
0.201458

> <b_epik_Metal_Only>
0

> <s_lp_Force_Field>
OPLS_2005

> <r_lp_Energy>
35.2026

> <b_lp_Chiralities_Consistent>
1

> <s_lp_Variant>
AV-unprocessed.smi:3349-3

> <Gold.Version>
5.8.1

> <Gold.Id.Protein>
6NUR|6NUR_protein|mol2

> <Gold.PLP.Fitness>
39.4545

> <Gold.PLP.PLP>
-36.0957

> <Gold.PLP.part.hbond>
-2.0000

> <Gold.PLP.part.metal>
0.0000

> <Gold.PLP.part.buried>
-5.4704

> <Gold.PLP.part.nonpolar>
-28.1832

> <Gold.PLP.part.repulsive>
0.6768

> <Gold.PLP.ligand.clash>
0.0000

> <Gold.PLP.ligand.torsion>
0.6410

> <Gold.PLP.Chemscore.Hbond>
1.4906

> <Gold.PLP.Chemscore.CHOScore>
0.0000

> <Gold.PLP.Chemscore.Metal>
0.0000

> <Gold.Chemscore.Hbonds>
donor molecule, donor type, donor heavy atom, donor atom, acceptor molecule, acceptor atom, score
      L1  H     4    26       P1  8028  0.58
      P1  H  7989  7998       L1     6  0.95

> <Gold.PLP.Chemscore.Internal.Correction>
0.1691

> <Gold.Rescore>
     Score         DG    S(hbond)    S(metal)    S(lipo)     H(rot)  DE(clash)    DE(int)     intcor
      9.25     -12.66       1.45        0.00      76.08       2.56       0.18       3.24       ----

> <Gold.Chemscore.Fitness>
9.2454

> <Gold.Chemscore.DG>
-12.6633

> <Gold.Chemscore.ZeroCoef>
-5.4800

> <Gold.Chemscore.Hbond>
1.4456

> <Gold.Chemscore.Metal>
0.0000

> <Gold.Chemscore.Lipo>
76.0768

> <Gold.Chemscore.Internal_Hbond>
0.0000

> <Gold.Chemscore.DEClash>
0.1755

> <Gold.Chemscore.DEInternal>
3.2424

> <Gold.Chemscore.Rot>
2.5570

> <Gold.Chemscore.Internal.Correction>
   9.000000E+99

> <Gold.Chemscore.Hbonds>
donor molecule, donor type, donor heavy atom, donor atom, acceptor molecule, acceptor atom, score
      L1  H     4    26       P1  8028  0.57
      P1  H  7989  7998       L1     6  0.22

> <Gold.Chemscore.Hbond.Weighted>
-4.8281

> <Gold.Chemscore.Metal.Weighted>
-0.0000

> <Gold.Chemscore.Lipo.Weighted>
-8.9010

> <Gold.Chemscore.Internal_Hbond.Weighted>
0.0000

> <Gold.Chemscore.DEClash.Weighted>
0.1755

> <Gold.Chemscore.DEInternal.Weighted>
3.2424

> <Gold.Chemscore.Rot.Weighted>
6.5459

> <Gold.Chemscore.Internal.Correction.Weighted>
   9.000000E+99

> <Gold.Protein.RotatedTorsions>
[ 6907 6896 6895 6894 ] final  -83.93 input  -60.11 | X-H torsion
[ 7974 7965 7964 7962 ] final  -20.72 input  175.53 | X-H torsion
[ 8008 7997 7996 7995 ] final  153.19 input   59.86 | X-H torsion
[ 10167 10162 10161 10158 ] final  -98.56 input  -65.29 | X-H torsion
[ 10718 10713 10712 10709 ] final   84.86 input   66.30 | X-H torsion
[ 10763 10752 10751 10750 ] final  121.33 input  -60.55 | X-H torsion
[ 11005 11000 10999 10996 ] final  -65.97 input  -57.11 | X-H torsion

> <Gold.Protein.ActiveResidues>
 VAL166  LYS551  ARG553  GLY616  TRP617  ASP618  TYR619  PRO620  LYS621  CYS622 
 ASP623  PHE694  ASN695  SER759  ASP760  ASP761  ALA762  ILE779  LEU786  VAL792 
 PHE793  MET794  SER795  GLU796  ALA797  LYS798  CYS799  TRP800  GLU811  SER814 

> <Gold.Protein.RotatedAtoms>
  150.6881  134.3436  159.4878 H   0  0  0  0  0  0  0  0  0  0  0  0  # atno 6907 bound_to 6896
  152.1286  134.9149  160.0569 H   0  0  0  0  0  0  0  0  0  0  0  0  # atno 6908 bound_to 6896
  152.0327  133.3909  159.4341 H   0  0  0  0  0  0  0  0  0  0  0  0  # atno 6909 bound_to 6896
  146.1772  140.4242  142.8509 H   0  0  0  0  0  0  0  0  0  0  0  0  # atno 7974 bound_to 7965
  156.2593  140.2000  156.6452 H   0  0  0  0  0  0  0  0  0  0  0  0  # atno 8008 bound_to 7997
  154.6579  140.0564  157.0054 H   0  0  0  0  0  0  0  0  0  0  0  0  # atno 8009 bound_to 7997
  155.1320  140.3234  155.4474 H   0  0  0  0  0  0  0  0  0  0  0  0  # atno 8010 bound_to 7997
  140.2717  143.3340  152.0528 H   0  0  0  0  0  0  0  0  0  0  0  0  # atno 10167 bound_to 10162
  157.6905  131.0151  150.2736 H   0  0  0  0  0  0  0  0  0  0  0  0  # atno 10718 bound_to 10713
  153.6125  135.3428  155.2983 H   0  0  0  0  0  0  0  0  0  0  0  0  # atno 10763 bound_to 10752
  154.8616  135.4253  154.2295 H   0  0  0  0  0  0  0  0  0  0  0  0  # atno 10764 bound_to 10752
  153.3149  135.7034  153.7155 H   0  0  0  0  0  0  0  0  0  0  0  0  # atno 10765 bound_to 10752
  141.1469  133.6691  156.6067 H   0  0  0  0  0  0  0  0  0  0  0  0  # atno 11005 bound_to 11000
  144.8256  140.6622  143.6324 LP  0  0  0  0  0  0  0  0  0  0  0  0  # atno 17320 bound_to 7965
  145.4177  139.1569  143.4091 LP  0  0  0  0  0  0  0  0  0  0  0  0  # atno 17321 bound_to 7965
  139.4987  144.6652  151.6373 LP  0  0  0  0  0  0  0  0  0  0  0  0  # atno 17342 bound_to 10162
  140.5884  143.9823  150.6309 LP  0  0  0  0  0  0  0  0  0  0  0  0  # atno 17343 bound_to 10162
  156.3294  130.3798  149.7504 LP  0  0  0  0  0  0  0  0  0  0  0  0  # atno 17370 bound_to 10713
  156.5048  130.8145  151.3146 LP  0  0  0  0  0  0  0  0  0  0  0  0  # atno 17371 bound_to 10713
  140.3646  134.7658  157.4557 LP  0  0  0  0  0  0  0  0  0  0  0  0  # atno 17394 bound_to 11000
  140.0758  134.5799  155.8593 LP  0  0  0  0  0  0  0  0  0  0  0  0  # atno 17395 bound_to 11000

$$$$
