AV-unprocessed.smi:2562|AV-procd|sdf|10042|dock6
  -GOLD-   2272014 83D 1   1.00000     0.00000
 Structure written by MMmdl.
 31 32  0  0  0  0  0  0  0  0  2 V2000
  152.2239  144.7443  159.5508 C   0  0  0  0  0  0  0  0  0  0  0  0
  152.1031  143.9639  158.2374 C   0  0  0  0  0  0  0  0  0  0  0  0
  150.7302  143.2967  158.0725 C   0  0  0  0  0  0  0  0  0  0  0  0
  150.7453  142.1961  157.0626 C   0  0  0  0  0  0  0  0  0  0  0  0
  150.1718  142.3199  155.8638 N   0  0  0  0  0  0  0  0  0  0  0  0
  150.3526  141.1809  155.1621 N   0  0  0  0  0  0  0  0  0  0  0  0
  151.0655  140.4414  156.0108 C   0  0  0  0  0  0  0  0  0  0  0  0
  151.4691  139.0441  155.6558 C   0  0  2  0  0  0  0  0  0  0  0  0
  150.9466  138.6203  154.2700 C   0  0  0  0  0  0  0  0  0  0  0  0
  151.2869  137.2069  154.0159 N   0  3  0  0  0  0  0  0  0  0  0  0
  150.7932  136.3290  155.0958 C   0  0  0  0  0  0  0  0  0  0  0  0
  151.3052  136.8253  156.4599 C   0  0  0  0  0  0  0  0  0  0  0  0
  150.9226  138.1833  156.6530 O   0  0  0  0  0  0  0  0  0  0  0  0
  151.3310  141.0145  157.2249 N   0  0  0  0  0  0  0  0  0  0  0  0
  149.6684  143.1180  155.5025 H   0  0  0  0  0  0  0  0  0  0  0  0
  153.2089  145.2027  159.6409 H   0  0  0  0  0  0  0  0  0  0  0  0
  152.0813  144.0903  160.4115 H   0  0  0  0  0  0  0  0  0  0  0  0
  151.4804  145.5400  159.6063 H   0  0  0  0  0  0  0  0  0  0  0  0
  152.2845  144.6396  157.4008 H   0  0  0  0  0  0  0  0  0  0  0  0
  152.8857  143.2054  158.1980 H   0  0  0  0  0  0  0  0  0  0  0  0
  150.3977  142.8866  159.0270 H   0  0  0  0  0  0  0  0  0  0  0  0
  149.9862  144.0377  157.7769 H   0  0  0  0  0  0  0  0  0  0  0  0
  152.5586  138.9768  155.6832 H   0  0  0  0  0  0  0  0  0  0  0  0
  149.8634  138.7409  154.2167 H   0  0  0  0  0  0  0  0  0  0  0  0
  151.3792  139.2431  153.4865 H   0  0  0  0  0  0  0  0  0  0  0  0
  150.8844  136.9167  153.1360 H   0  0  0  0  0  0  0  0  0  0  0  0
  149.7024  136.3229  155.0830 H   0  0  0  0  0  0  0  0  0  0  0  0
  151.1229  135.3065  154.9101 H   0  0  0  0  0  0  0  0  0  0  0  0
  150.8823  136.2209  157.2625 H   0  0  0  0  0  0  0  0  0  0  0  0
  152.3900  136.7291  156.5276 H   0  0  0  0  0  0  0  0  0  0  0  0
  152.2920  137.1213  153.9632 H   0  0  0  0  0  0  0  0  0  0  0  0
  1  2  1  0  0  0  0
  1 16  1  0  0  0  0
  1 17  1  0  0  0  0
  1 18  1  0  0  0  0
  2  3  1  0  0  0  0
  2 19  1  0  0  0  0
  2 20  1  0  0  0  0
  3 21  1  0  0  0  0
  3 22  1  0  0  0  0
  3  4  1  0  0  0  0
  4 14  2  0  0  0  0
  4  5  1  0  0  0  0
  5  6  1  0  0  0  0
  5 15  1  0  0  0  0
  6  7  2  0  0  0  0
  7 14  1  0  0  0  0
  7  8  1  0  0  0  0
  8 13  1  0  0  0  0
  8  9  1  0  0  0  0
  8 23  1  0  0  0  0
  9 10  1  0  0  0  0
  9 24  1  0  0  0  0
  9 25  1  0  0  0  0
 10 11  1  0  0  0  0
 10 26  1  0  0  0  0
 10 31  1  0  0  0  0
 11 12  1  0  0  0  0
 11 27  1  0  0  0  0
 11 28  1  0  0  0  0
 12 13  1  0  0  0  0
 12 29  1  0  0  0  0
 12 30  1  0  0  0  0
M  CHG  1  10   1
M  END
> <s_m_source_file>
AV-unprocessed.smi

> <i_m_source_file_index>
2562

> <i_lp_mmshare_version>
43012

> <i_f3d_flags>
0

> <s_epik_input>
W0NIM11bQ0gyXVtDSDJdYzFuW25IXWMobjEpW0NAQEhdMltDSDJdW05IXVtDSDJdW0NIMl1PMg==

> <s_epik_cmdline>
J2VwaWtfcHl0aG9uJywgJy1waCcsICc3LjAnLCAnLXRuJywgJzgnLCAnLW1hJywgJzIwMCcsICctbWV0YWxfYmluZGluZycsICctaW1hZScsICc8aW5maWxlLm1hZT4nLCAnLW9tYWUnLCAnPG91dGZpbGUubWFlPic=

> <r_lp_tautomer_probability>
0.948284

> <r_epik_Ionization_Penalty>
0.10647

> <r_epik_Ionization_Penalty_Charging>
0.100865

> <r_epik_Ionization_Penalty_Neutral>
0.0056057

> <r_epik_State_Penalty>
0.375056

> <r_epik_Charging_Adjusted_Penalty>
0.47592

> <i_epik_Tot_Q>
1

> <i_epik_Tot_abs_Q>
1

> <r_epik_Metal_State_Penalty>
0.497514

> <b_epik_Metal_Only>
0

> <s_lp_Force_Field>
OPLS_2005

> <r_lp_Energy>
10.3016

> <b_lp_Chiralities_Consistent>
1

> <s_lp_Variant>
AV-unprocessed.smi:2562-1

> <Gold.Version>
5.8.1

> <Gold.Id.Protein>
6NUR|6NUR_protein|mol2

> <Gold.PLP.Fitness>
37.4377

> <Gold.PLP.PLP>
-27.5246

> <Gold.PLP.part.hbond>
-3.0000

> <Gold.PLP.part.metal>
0.0000

> <Gold.PLP.part.buried>
-2.6459

> <Gold.PLP.part.nonpolar>
-22.3265

> <Gold.PLP.part.repulsive>
0.3784

> <Gold.PLP.ligand.clash>
0.0000

> <Gold.PLP.ligand.torsion>
0.2353

> <Gold.PLP.Chemscore.Hbond>
3.4563

> <Gold.PLP.Chemscore.CHOScore>
0.0000

> <Gold.PLP.Chemscore.Metal>
0.0000

> <Gold.Chemscore.Hbonds>
donor molecule, donor type, donor heavy atom, donor atom, acceptor molecule, acceptor atom, score
      L1  H     5    15       P1  8028  1.00
      L1  H    10    26       P1  7949  1.58
      P1  H  7989  7998       L1     6  0.41

> <Gold.PLP.Chemscore.Internal.Correction>
0.0148

> <Gold.Rescore>
     Score         DG    S(hbond)    S(metal)    S(lipo)     H(rot)  DE(clash)    DE(int)     intcor
     14.64     -14.95       1.92        0.00      59.25       1.51       0.13       0.18       ----

> <Gold.Chemscore.Fitness>
14.6391

> <Gold.Chemscore.DG>
-14.9481

> <Gold.Chemscore.ZeroCoef>
-5.4800

> <Gold.Chemscore.Hbond>
1.9177

> <Gold.Chemscore.Metal>
0.0000

> <Gold.Chemscore.Lipo>
59.2531

> <Gold.Chemscore.Internal_Hbond>
0.0000

> <Gold.Chemscore.DEClash>
0.1334

> <Gold.Chemscore.DEInternal>
0.1755

> <Gold.Chemscore.Rot>
1.5115

> <Gold.Chemscore.Internal.Correction>
   9.000000E+99

> <Gold.Chemscore.Hbonds>
donor molecule, donor type, donor heavy atom, donor atom, acceptor molecule, acceptor atom, score
      L1  H     5    15       P1  8028  0.98
      L1  H    10    26       P1  7949  0.13
      P1  H  7989  7998       L1     6  0.06

> <Gold.Chemscore.Hbond.Weighted>
-6.4050

> <Gold.Chemscore.Metal.Weighted>
-0.0000

> <Gold.Chemscore.Lipo.Weighted>
-6.9326

> <Gold.Chemscore.Internal_Hbond.Weighted>
0.0000

> <Gold.Chemscore.DEClash.Weighted>
0.1334

> <Gold.Chemscore.DEInternal.Weighted>
0.1755

> <Gold.Chemscore.Rot.Weighted>
3.8695

> <Gold.Chemscore.Internal.Correction.Weighted>
   9.000000E+99

> <Gold.Protein.RotatedTorsions>
[ 6907 6896 6895 6894 ] final  -12.07 input  -60.11 | X-H torsion
[ 7974 7965 7964 7962 ] final -124.79 input  175.53 | X-H torsion
[ 8008 7997 7996 7995 ] final  -58.62 input   59.86 | X-H torsion
[ 10167 10162 10161 10158 ] final  -77.38 input  -65.29 | X-H torsion
[ 10718 10713 10712 10709 ] final  158.91 input   66.30 | X-H torsion
[ 10763 10752 10751 10750 ] final -142.66 input  -60.55 | X-H torsion
[ 11005 11000 10999 10996 ] final  126.32 input  -57.11 | X-H torsion

> <Gold.Protein.ActiveResidues>
 VAL166  LYS551  ARG553  GLY616  TRP617  ASP618  TYR619  PRO620  LYS621  CYS622 
 ASP623  PHE694  ASN695  SER759  ASP760  ASP761  ALA762  ILE779  LEU786  VAL792 
 PHE793  MET794  SER795  GLU796  ALA797  LYS798  CYS799  TRP800  GLU811  SER814 

> <Gold.Protein.RotatedAtoms>
  151.3763  135.0932  159.9481 H   0  0  0  0  0  0  0  0  0  0  0  0  # atno 6907 bound_to 6896
  152.5121  133.9115  159.7501 H   0  0  0  0  0  0  0  0  0  0  0  0  # atno 6908 bound_to 6896
  150.9539  133.6463  159.2795 H   0  0  0  0  0  0  0  0  0  0  0  0  # atno 6909 bound_to 6896
  145.0044  140.7850  143.4476 H   0  0  0  0  0  0  0  0  0  0  0  0  # atno 7974 bound_to 7965
  154.4316  140.1080  156.5986 H   0  0  0  0  0  0  0  0  0  0  0  0  # atno 8008 bound_to 7997
  155.5935  140.3492  155.4554 H   0  0  0  0  0  0  0  0  0  0  0  0  # atno 8009 bound_to 7997
  156.0228  140.1243  157.0329 H   0  0  0  0  0  0  0  0  0  0  0  0  # atno 8010 bound_to 7997
  140.4775  143.2410  151.8109 H   0  0  0  0  0  0  0  0  0  0  0  0  # atno 10167 bound_to 10162
  157.1714  131.0611  151.2180 H   0  0  0  0  0  0  0  0  0  0  0  0  # atno 10718 bound_to 10713
  154.8500  135.3489  154.6063 H   0  0  0  0  0  0  0  0  0  0  0  0  # atno 10763 bound_to 10752
  153.6672  135.6987  153.5163 H   0  0  0  0  0  0  0  0  0  0  0  0  # atno 10764 bound_to 10752
  153.2771  135.4275  155.1000 H   0  0  0  0  0  0  0  0  0  0  0  0  # atno 10765 bound_to 10752
  139.9450  134.9631  156.8689 H   0  0  0  0  0  0  0  0  0  0  0  0  # atno 11005 bound_to 11000
  145.2109  139.2205  143.5143 LP  0  0  0  0  0  0  0  0  0  0  0  0  # atno 17320 bound_to 7965
  146.3458  140.1946  142.8589 LP  0  0  0  0  0  0  0  0  0  0  0  0  # atno 17321 bound_to 7965
  139.4828  144.4814  151.9302 LP  0  0  0  0  0  0  0  0  0  0  0  0  # atno 17342 bound_to 10162
  140.3899  144.2628  150.5900 LP  0  0  0  0  0  0  0  0  0  0  0  0  # atno 17343 bound_to 10162
  157.4039  130.7348  149.6788 LP  0  0  0  0  0  0  0  0  0  0  0  0  # atno 17370 bound_to 10713
  155.9738  130.4113  150.3975 LP  0  0  0  0  0  0  0  0  0  0  0  0  # atno 17371 bound_to 10713
  140.5857  134.0310  155.7480 LP  0  0  0  0  0  0  0  0  0  0  0  0  # atno 17394 bound_to 11000
  141.1098  133.9635  157.2932 LP  0  0  0  0  0  0  0  0  0  0  0  0  # atno 17395 bound_to 11000

$$$$
