AV-unprocessed.smi:234|AV-procd|sdf|1789|dock3
  -GOLD-   2262020343D 1   1.00000     0.00000
 Structure written by MMmdl.
 59 62  0  0  0  0  0  0  0  0  1 V2000
  152.4664  142.9405  161.4477 C   0  0  0  0  0  0  0  0  0  0  0  0
  152.4383  143.0068  159.9145 C   0  0  0  0  0  0  0  0  0  0  0  0
  151.6170  141.9845  159.3716 O   0  0  0  0  0  0  0  0  0  0  0  0
  151.6209  141.9236  157.9481 C   0  0  2  0  0  0  0  0  0  0  0  0
  150.2729  142.3898  157.3971 C   0  0  0  0  0  0  0  0  0  0  0  0
  149.8174  140.9288  157.5236 C   0  0  1  0  0  0  0  0  0  0  0  0
  148.9549  140.4693  156.4292 N   0  0  0  0  0  0  0  0  0  0  0  0
  149.1009  141.1161  155.1292 C   0  0  0  0  0  0  0  0  0  0  0  0
  148.7285  139.1364  156.3128 C   0  0  0  0  0  0  0  0  0  0  0  0
  149.1868  138.4557  155.2282 N   0  0  0  0  0  0  0  0  0  0  0  0
  148.9528  137.1458  155.1072 C   0  0  0  0  0  0  0  0  0  0  0  0
  148.2925  136.3358  155.9369 N   0  0  0  0  0  0  0  0  0  0  0  0
  147.8271  137.0144  157.0247 C   0  0  0  0  0  0  0  0  0  0  0  0
  147.9942  138.4035  157.2856 C   0  0  0  0  0  0  0  0  0  0  0  0
  147.3833  138.7376  158.4882 N   0  0  0  0  0  0  0  0  0  0  0  0
  146.8857  137.6092  158.9154 C   0  0  0  0  0  0  0  0  0  0  0  0
  147.1119  136.5215  158.1020 N   0  0  0  0  0  0  0  0  0  0  0  0
  146.6811  135.1525  158.3397 C   0  0  0  0  0  0  0  0  0  0  0  0
  147.5195  134.4264  159.4184 C   0  0  2  0  0  0  0  0  0  0  0  0
  148.8941  134.6033  159.1137 O   0  0  0  0  0  0  0  0  0  0  0  0
  147.2352  132.9357  159.5264 C   0  0  0  0  0  0  0  0  0  0  0  0
  147.6804  132.6157  160.9477 C   0  0  0  0  0  0  0  0  0  0  0  0
  147.3348  133.7675  161.7059 O   0  0  0  0  0  0  0  0  0  0  0  0
  147.2120  134.9060  160.8540 C   0  0  1  0  0  0  0  0  0  0  0  0
  148.0520  136.0792  161.3836 C   0  0  0  0  0  0  0  0  0  0  0  0
  151.3090  140.5067  157.4031 C   0  0  0  0  0  0  0  0  0  0  0  0
  151.8668  140.2452  155.9942 C   0  0  0  0  0  0  0  0  0  0  0  0
  151.7680  139.3396  158.2813 C   0  0  0  0  0  0  0  0  0  0  0  0
  153.0623  143.7553  161.8586 H   0  0  0  0  0  0  0  0  0  0  0  0
  152.8967  142.0051  161.8045 H   0  0  0  0  0  0  0  0  0  0  0  0
  151.4602  143.0233  161.8591 H   0  0  0  0  0  0  0  0  0  0  0  0
  152.0216  143.9661  159.6074 H   0  0  0  0  0  0  0  0  0  0  0  0
  153.4451  142.9566  159.4970 H   0  0  0  0  0  0  0  0  0  0  0  0
  152.4738  142.4065  157.4677 H   0  0  0  0  0  0  0  0  0  0  0  0
  149.7371  143.0938  158.0346 H   0  0  0  0  0  0  0  0  0  0  0  0
  150.3344  142.7466  156.3675 H   0  0  0  0  0  0  0  0  0  0  0  0
  149.4129  140.7187  158.5157 H   0  0  0  0  0  0  0  0  0  0  0  0
  149.4529  140.4208  154.3652 H   0  0  0  0  0  0  0  0  0  0  0  0
  149.8151  141.9373  155.1744 H   0  0  0  0  0  0  0  0  0  0  0  0
  148.1429  141.5221  154.8046 H   0  0  0  0  0  0  0  0  0  0  0  0
  149.3513  136.6809  154.2176 H   0  0  0  0  0  0  0  0  0  0  0  0
  146.3432  137.5355  159.8469 H   0  0  0  0  0  0  0  0  0  0  0  0
  145.6284  135.1669  158.6250 H   0  0  0  0  0  0  0  0  0  0  0  0
  146.7327  134.6129  157.3931 H   0  0  0  0  0  0  0  0  0  0  0  0
  148.9604  135.1334  158.3341 H   0  0  0  0  0  0  0  0  0  0  0  0
  146.1637  132.7509  159.4397 H   0  0  0  0  0  0  0  0  0  0  0  0
  147.7414  132.3341  158.7704 H   0  0  0  0  0  0  0  0  0  0  0  0
  147.2072  131.7177  161.3451 H   0  0  0  0  0  0  0  0  0  0  0  0
  148.7615  132.4765  160.9885 H   0  0  0  0  0  0  0  0  0  0  0  0
  146.1605  135.1916  160.9067 H   0  0  0  0  0  0  0  0  0  0  0  0
  147.9656  136.9490  160.7323 H   0  0  0  0  0  0  0  0  0  0  0  0
  149.1075  135.8177  161.4613 H   0  0  0  0  0  0  0  0  0  0  0  0
  147.7164  136.3753  162.3774 H   0  0  0  0  0  0  0  0  0  0  0  0
  151.5271  139.2896  155.5943 H   0  0  0  0  0  0  0  0  0  0  0  0
  152.9569  140.2249  155.9978 H   0  0  0  0  0  0  0  0  0  0  0  0
  151.5647  141.0147  155.2835 H   0  0  0  0  0  0  0  0  0  0  0  0
  151.4967  138.3755  157.8511 H   0  0  0  0  0  0  0  0  0  0  0  0
  151.3207  139.3825  159.2745 H   0  0  0  0  0  0  0  0  0  0  0  0
  152.8501  139.3450  158.4140 H   0  0  0  0  0  0  0  0  0  0  0  0
  1  2  1  0  0  0  0
  1 29  1  0  0  0  0
  1 30  1  0  0  0  0
  1 31  1  0  0  0  0
  2  3  1  0  0  0  0
  2 32  1  0  0  0  0
  2 33  1  0  0  0  0
  3  4  1  0  0  0  0
  4 26  1  0  0  0  0
  4  5  1  0  0  0  0
  4 34  1  0  0  0  0
  5  6  1  0  0  0  0
  5 35  1  0  0  0  0
  5 36  1  0  0  0  0
  6  7  1  0  0  0  0
  6 26  1  0  0  0  0
  6 37  1  0  0  0  0
  7  8  1  0  0  0  0
  7  9  1  0  0  0  0
  8 38  1  0  0  0  0
  8 39  1  0  0  0  0
  8 40  1  0  0  0  0
  9 14  1  0  0  0  0
  9 10  2  0  0  0  0
 10 11  1  0  0  0  0
 11 12  2  0  0  0  0
 11 41  1  0  0  0  0
 12 13  1  0  0  0  0
 13 17  1  0  0  0  0
 13 14  2  0  0  0  0
 14 15  1  0  0  0  0
 15 16  2  0  0  0  0
 16 17  1  0  0  0  0
 16 42  1  0  0  0  0
 17 18  1  0  0  0  0
 18 19  1  0  0  0  0
 18 43  1  0  0  0  0
 18 44  1  0  0  0  0
 19 24  1  0  0  0  0
 19 20  1  0  0  0  0
 19 21  1  0  0  0  0
 20 45  1  0  0  0  0
 21 22  1  0  0  0  0
 21 46  1  0  0  0  0
 21 47  1  0  0  0  0
 22 23  1  0  0  0  0
 22 48  1  0  0  0  0
 22 49  1  0  0  0  0
 23 24  1  0  0  0  0
 24 25  1  0  0  0  0
 24 50  1  0  0  0  0
 25 51  1  0  0  0  0
 25 52  1  0  0  0  0
 25 53  1  0  0  0  0
 26 27  1  0  0  0  0
 26 28  1  0  0  0  0
 27 54  1  0  0  0  0
 27 55  1  0  0  0  0
 27 56  1  0  0  0  0
 28 57  1  0  0  0  0
 28 58  1  0  0  0  0
 28 59  1  0  0  0  0
M  END
> <s_m_source_file>
AV-unprocessed.smi

> <i_m_source_file_index>
234

> <i_lp_mmshare_version>
43012

> <i_f3d_flags>
0

> <s_epik_input>
W0NIM11bQ0gyXU9bQ0BASF0oQzEoW0NIM10pW0NIM10pW0NIMl1bQ0BIXTFOKFtDSDNdKWMobltjSF1uMiljKGMyMyluW2NIXW4zW0NIMl1bQ0BAXTQoW09IXSlbQ0gyXVtDSDJdT1tDQEhdNFtDSDNd

> <s_epik_cmdline>
J2VwaWtfcHl0aG9uJywgJy1waCcsICc3LjAnLCAnLXRuJywgJzgnLCAnLW1hJywgJzIwMCcsICctbWV0YWxfYmluZGluZycsICctaW1hZScsICc8aW5maWxlLm1hZT4nLCAnLW9tYWUnLCAnPG91dGZpbGUubWFlPic=

> <r_lp_tautomer_probability>
1

> <r_epik_Ionization_Penalty>
0.00349132

> <r_epik_Ionization_Penalty_Charging>
0

> <r_epik_Ionization_Penalty_Neutral>
0.00349132

> <r_epik_State_Penalty>
0.00242418

> <r_epik_Charging_Adjusted_Penalty>
0.00242418

> <i_epik_Tot_Q>
0

> <i_epik_Tot_abs_Q>
0

> <r_epik_Metal_State_Penalty>
-0

> <b_epik_Metal_Only>
0

> <s_lp_Force_Field>
OPLS_2005

> <r_lp_Energy>
49.8598

> <b_lp_Chiralities_Consistent>
1

> <s_lp_Variant>
AV-unprocessed.smi:234-5

> <Gold.Version>
5.8.1

> <Gold.Id.Protein>
6NUR|6NUR_protein|mol2

> <Gold.PLP.Fitness>
37.4898

> <Gold.PLP.PLP>
-33.4003

> <Gold.PLP.part.hbond>
-2.0000

> <Gold.PLP.part.metal>
0.0000

> <Gold.PLP.part.buried>
-4.7111

> <Gold.PLP.part.nonpolar>
-27.0730

> <Gold.PLP.part.repulsive>
0.1585

> <Gold.PLP.ligand.clash>
0.0000

> <Gold.PLP.ligand.torsion>
1.5087

> <Gold.PLP.Chemscore.Hbond>
1.0000

> <Gold.PLP.Chemscore.CHOScore>
1.0000

> <Gold.PLP.Chemscore.Metal>
0.0000

> <Gold.Chemscore.Hbonds>
donor molecule, donor type, donor heavy atom, donor atom, acceptor molecule, acceptor atom, score
      P1  H  6896  6909       L1    20  1.00
      L1  C    11    41       P1  7948  1.00

> <Gold.PLP.Chemscore.Internal.Correction>
1.1069

> <Gold.Rescore>
     Score         DG    S(hbond)    S(metal)    S(lipo)     H(rot)  DE(clash)    DE(int)     intcor
     10.37     -12.34       0.88        0.00      90.81       2.62       0.27       1.70       ----

> <Gold.Chemscore.Fitness>
10.3653

> <Gold.Chemscore.DG>
-12.3356

> <Gold.Chemscore.ZeroCoef>
-5.4800

> <Gold.Chemscore.Hbond>
0.8813

> <Gold.Chemscore.Metal>
0.0000

> <Gold.Chemscore.Lipo>
90.8053

> <Gold.Chemscore.Internal_Hbond>
0.0000

> <Gold.Chemscore.DEClash>
0.2658

> <Gold.Chemscore.DEInternal>
1.7045

> <Gold.Chemscore.Rot>
2.6219

> <Gold.Chemscore.Internal.Correction>
   9.000000E+99

> <Gold.Chemscore.Hbonds>
donor molecule, donor type, donor heavy atom, donor atom, acceptor molecule, acceptor atom, score
      P1  H  6896  6909       L1    20  0.30

> <Gold.Chemscore.Hbond.Weighted>
-2.9435

> <Gold.Chemscore.Metal.Weighted>
-0.0000

> <Gold.Chemscore.Lipo.Weighted>
-10.6242

> <Gold.Chemscore.Internal_Hbond.Weighted>
0.0000

> <Gold.Chemscore.DEClash.Weighted>
0.2658

> <Gold.Chemscore.DEInternal.Weighted>
1.7045

> <Gold.Chemscore.Rot.Weighted>
6.7121

> <Gold.Chemscore.Internal.Correction.Weighted>
   9.000000E+99

> <Gold.Protein.RotatedTorsions>
[ 6907 6896 6895 6894 ] final   31.74 input  -60.11 | X-H torsion
[ 7974 7965 7964 7962 ] final  142.24 input  175.53 | X-H torsion
[ 8008 7997 7996 7995 ] final  112.28 input   59.86 | X-H torsion
[ 10167 10162 10161 10158 ] final   34.38 input  -65.29 | X-H torsion
[ 10718 10713 10712 10709 ] final -171.82 input   66.30 | X-H torsion
[ 10763 10752 10751 10750 ] final -162.67 input  -60.55 | X-H torsion
[ 11005 11000 10999 10996 ] final  -66.04 input  -57.11 | X-H torsion

> <Gold.Protein.ActiveResidues>
 VAL166  LYS551  ARG553  GLY616  TRP617  ASP618  TYR619  PRO620  LYS621  CYS622 
 ASP623  PHE694  ASN695  SER759  ASP760  ASP761  ALA762  ILE779  LEU786  VAL792 
 PHE793  MET794  SER795  GLU796  ALA797  LYS798  CYS799  TRP800  GLU811  SER814 

> <Gold.Protein.RotatedAtoms>
  152.0646  134.9573  160.0574 H   0  0  0  0  0  0  0  0  0  0  0  0  # atno 6907 bound_to 6896
  152.0923  133.4202  159.4557 H   0  0  0  0  0  0  0  0  0  0  0  0  # atno 6908 bound_to 6896
  150.6837  134.2777  159.4657 H   0  0  0  0  0  0  0  0  0  0  0  0  # atno 6909 bound_to 6896
  144.9025  139.5403  143.5747 H   0  0  0  0  0  0  0  0  0  0  0  0  # atno 7974 bound_to 7965
  156.2181  140.3002  155.9888 H   0  0  0  0  0  0  0  0  0  0  0  0  # atno 8008 bound_to 7997
  155.2552  140.0427  157.3008 H   0  0  0  0  0  0  0  0  0  0  0  0  # atno 8009 bound_to 7997
  154.5799  140.2372  155.8077 H   0  0  0  0  0  0  0  0  0  0  0  0  # atno 8010 bound_to 7997
  140.4320  144.1311  150.6161 H   0  0  0  0  0  0  0  0  0  0  0  0  # atno 10167 bound_to 10162
  156.7464  130.9362  151.3112 H   0  0  0  0  0  0  0  0  0  0  0  0  # atno 10718 bound_to 10713
  154.7193  135.3022  154.9073 H   0  0  0  0  0  0  0  0  0  0  0  0  # atno 10763 bound_to 10752
  153.9950  135.6714  153.4760 H   0  0  0  0  0  0  0  0  0  0  0  0  # atno 10764 bound_to 10752
  153.0820  135.5004  154.8439 H   0  0  0  0  0  0  0  0  0  0  0  0  # atno 10765 bound_to 10752
  141.1471  133.6692  156.6079 H   0  0  0  0  0  0  0  0  0  0  0  0  # atno 11005 bound_to 11000
  146.3116  139.7767  142.9015 LP  0  0  0  0  0  0  0  0  0  0  0  0  # atno 17320 bound_to 7965
  145.3591  141.0322  143.3295 LP  0  0  0  0  0  0  0  0  0  0  0  0  # atno 17321 bound_to 7965
  140.4416  143.2524  151.9465 LP  0  0  0  0  0  0  0  0  0  0  0  0  # atno 17342 bound_to 10162
  139.4785  144.5648  151.8182 LP  0  0  0  0  0  0  0  0  0  0  0  0  # atno 17343 bound_to 10162
  157.6796  130.9127  150.0234 LP  0  0  0  0  0  0  0  0  0  0  0  0  # atno 17370 bound_to 10713
  156.1430  130.3642  149.9553 LP  0  0  0  0  0  0  0  0  0  0  0  0  # atno 17371 bound_to 10713
  140.3637  134.7665  157.4551 LP  0  0  0  0  0  0  0  0  0  0  0  0  # atno 17394 bound_to 11000
  140.0765  134.5791  155.8586 LP  0  0  0  0  0  0  0  0  0  0  0  0  # atno 17395 bound_to 11000

$$$$
