AV-unprocessed.smi:1845|AV-procd|sdf|7512|dock9
  -GOLD-   22720 9223D 1   1.00000     0.00000
 Structure written by MMmdl.
 45 46  0  0  0  0  0  0  0  0  1 V2000
  147.0048  133.2855  151.5911 C   0  0  0  0  0  0  0  0  0  0  0  0
  147.3957  133.1804  153.3865 S   0  0  0  0  0  0  0  0  0  0  0  0
  146.2713  133.7610  154.1354 O   0  0  0  0  0  0  0  0  0  0  0  0
  147.8689  131.8214  153.6911 O   0  0  0  0  0  0  0  0  0  0  0  0
  148.7343  134.2542  153.5583 N   0  0  0  0  0  0  0  0  0  0  0  0
  150.0665  133.7315  153.8763 C   0  0  0  0  0  0  0  0  0  0  0  0
  150.6455  134.3622  155.1585 C   0  0  0  0  0  0  0  0  0  0  0  0
  150.5785  135.8924  155.1546 C   0  0  0  0  0  0  0  0  0  0  0  0
  150.0770  136.4913  156.1062 O   0  0  0  0  0  0  0  0  0  0  0  0
  151.0745  136.5083  154.0700 N   0  0  0  0  0  0  0  0  0  0  0  0
  151.0038  137.9410  153.8009 C   0  0  0  0  0  0  0  0  0  0  0  0
  151.3990  138.7765  155.0073 C   0  0  0  0  0  0  0  0  0  0  0  0
  150.5036  139.7061  155.5717 C   0  0  0  0  0  0  0  0  0  0  0  0
  150.9052  140.4391  156.7052 C   0  0  0  0  0  0  0  0  0  0  0  0
  152.1952  140.2236  157.2463 C   0  0  0  0  0  0  0  0  0  0  0  0
  152.6139  140.9332  158.3921 N   0  0  0  0  0  0  0  0  0  0  0  0
  153.0365  140.1143  159.5254 C   0  0  0  0  0  0  0  0  0  0  0  0
  153.7492  140.9832  160.5763 C   0  0  0  0  0  0  0  0  0  0  0  0
  152.9092  142.0681  160.9571 O   0  0  0  0  0  0  0  0  0  0  0  0
  152.6073  142.9154  159.8540 C   0  0  0  0  0  0  0  0  0  0  0  0
  151.8477  142.1155  158.7828 C   0  0  0  0  0  0  0  0  0  0  0  0
  153.0554  139.3323  156.6954 N   0  0  0  0  0  0  0  0  0  0  0  0
  152.6679  138.6380  155.6062 C   0  0  0  0  0  0  0  0  0  0  0  0
  146.1520  132.6439  151.3703 H   0  0  0  0  0  0  0  0  0  0  0  0
  147.8598  132.9597  151.0002 H   0  0  0  0  0  0  0  0  0  0  0  0
  146.7540  134.3138  151.3336 H   0  0  0  0  0  0  0  0  0  0  0  0
  148.7264  135.0275  152.8927 H   0  0  0  0  0  0  0  0  0  0  0  0
  150.0005  132.6488  153.9846 H   0  0  0  0  0  0  0  0  0  0  0  0
  150.7391  133.9212  153.0395 H   0  0  0  0  0  0  0  0  0  0  0  0
  150.1041  133.9921  156.0301 H   0  0  0  0  0  0  0  0  0  0  0  0
  151.6810  134.0429  155.2860 H   0  0  0  0  0  0  0  0  0  0  0  0
  151.4827  135.9327  153.3475 H   0  0  0  0  0  0  0  0  0  0  0  0
  151.6356  138.2139  152.9542 H   0  0  0  0  0  0  0  0  0  0  0  0
  149.9814  138.1803  153.5076 H   0  0  0  0  0  0  0  0  0  0  0  0
  149.5184  139.8505  155.1531 H   0  0  0  0  0  0  0  0  0  0  0  0
  150.2160  141.1378  157.1558 H   0  0  0  0  0  0  0  0  0  0  0  0
  152.1568  139.6436  159.9660 H   0  0  0  0  0  0  0  0  0  0  0  0
  153.7042  139.3115  159.2165 H   0  0  0  0  0  0  0  0  0  0  0  0
  153.9821  140.3882  161.4595 H   0  0  0  0  0  0  0  0  0  0  0  0
  154.6965  141.3615  160.1892 H   0  0  0  0  0  0  0  0  0  0  0  0
  151.9984  143.7495  160.2022 H   0  0  0  0  0  0  0  0  0  0  0  0
  153.5254  143.3404  159.4450 H   0  0  0  0  0  0  0  0  0  0  0  0
  151.6677  142.7528  157.9161 H   0  0  0  0  0  0  0  0  0  0  0  0
  150.8757  141.8053  159.1682 H   0  0  0  0  0  0  0  0  0  0  0  0
  153.3945  137.9459  155.2086 H   0  0  0  0  0  0  0  0  0  0  0  0
  1  2  1  0  0  0  0
  1 24  1  0  0  0  0
  1 25  1  0  0  0  0
  1 26  1  0  0  0  0
  2  3  2  0  0  0  0
  2  4  2  0  0  0  0
  2  5  1  0  0  0  0
  5  6  1  0  0  0  0
  5 27  1  0  0  0  0
  6  7  1  0  0  0  0
  6 28  1  0  0  0  0
  6 29  1  0  0  0  0
  7  8  1  0  0  0  0
  7 30  1  0  0  0  0
  7 31  1  0  0  0  0
  8  9  2  0  0  0  0
  8 10  1  0  0  0  0
 10 11  1  0  0  0  0
 10 32  1  0  0  0  0
 11 12  1  0  0  0  0
 11 33  1  0  0  0  0
 11 34  1  0  0  0  0
 12 23  1  0  0  0  0
 12 13  2  0  0  0  0
 13 14  1  0  0  0  0
 13 35  1  0  0  0  0
 14 15  2  0  0  0  0
 14 36  1  0  0  0  0
 15 16  1  0  0  0  0
 15 22  1  0  0  0  0
 16 21  1  0  0  0  0
 16 17  1  0  0  0  0
 17 18  1  0  0  0  0
 17 37  1  0  0  0  0
 17 38  1  0  0  0  0
 18 19  1  0  0  0  0
 18 39  1  0  0  0  0
 18 40  1  0  0  0  0
 19 20  1  0  0  0  0
 20 21  1  0  0  0  0
 20 41  1  0  0  0  0
 20 42  1  0  0  0  0
 21 43  1  0  0  0  0
 21 44  1  0  0  0  0
 22 23  2  0  0  0  0
 23 45  1  0  0  0  0
M  END
> <s_m_source_file>
AV-unprocessed.smi

> <i_m_source_file_index>
1845

> <i_lp_mmshare_version>
43012

> <i_f3d_flags>
0

> <s_epik_input>
W0NIM11TKD1PKSg9TylbTkhdW0NIMl1bQ0gyXUMoPU8pW05IXVtDSDJdYzFbY0hdW2NIXWMobltjSF0xKU4yW0NIMl1bQ0gyXU9bQ0gyXVtDSDJdMg==

> <s_epik_cmdline>
J2VwaWtfcHl0aG9uJywgJy1waCcsICc3LjAnLCAnLXRuJywgJzgnLCAnLW1hJywgJzIwMCcsICctbWV0YWxfYmluZGluZycsICctaW1hZScsICc8aW5maWxlLm1hZT4nLCAnLW9tYWUnLCAnPG91dGZpbGUubWFlPic=

> <r_lp_tautomer_probability>
1

> <r_epik_Ionization_Penalty>
0.00479915

> <r_epik_Ionization_Penalty_Charging>
0

> <r_epik_Ionization_Penalty_Neutral>
0.00479915

> <r_epik_State_Penalty>
0.00346804

> <r_epik_Charging_Adjusted_Penalty>
0.00346804

> <i_epik_Tot_Q>
0

> <i_epik_Tot_abs_Q>
0

> <r_epik_Metal_State_Penalty>
0.0135183

> <b_epik_Metal_Only>
0

> <s_lp_Force_Field>
OPLS_2005

> <r_lp_Energy>
4.60417

> <b_lp_Chiralities_Consistent>
1

> <s_lp_Variant>
AV-unprocessed.smi:1845-1

> <Gold.Version>
5.8.1

> <Gold.Id.Protein>
6NUR|6NUR_protein|mol2

> <Gold.PLP.Fitness>
45.4060

> <Gold.PLP.PLP>
-37.9819

> <Gold.PLP.part.hbond>
-3.9870

> <Gold.PLP.part.metal>
0.0000

> <Gold.PLP.part.buried>
-5.1179

> <Gold.PLP.part.nonpolar>
-29.1218

> <Gold.PLP.part.repulsive>
0.2318

> <Gold.PLP.ligand.clash>
0.0000

> <Gold.PLP.ligand.torsion>
0.8794

> <Gold.PLP.Chemscore.Hbond>
2.8960

> <Gold.PLP.Chemscore.CHOScore>
0.0000

> <Gold.PLP.Chemscore.Metal>
0.0000

> <Gold.Chemscore.Hbonds>
donor molecule, donor type, donor heavy atom, donor atom, acceptor molecule, acceptor atom, score
      L1  H     5    27       P1  7948  1.00
      L1  H    10    32       P1  7949  0.59
      P1  H  7997  8008       L1    22  0.98

> <Gold.PLP.Chemscore.Internal.Correction>
0.4949

> <Gold.Rescore>
     Score         DG    S(hbond)    S(metal)    S(lipo)     H(rot)  DE(clash)    DE(int)     intcor
     12.41     -14.47       1.83        0.00      88.22       2.90       0.01       2.05       ----

> <Gold.Chemscore.Fitness>
12.4097

> <Gold.Chemscore.DG>
-14.4735

> <Gold.Chemscore.ZeroCoef>
-5.4800

> <Gold.Chemscore.Hbond>
1.8264

> <Gold.Chemscore.Metal>
0.0000

> <Gold.Chemscore.Lipo>
88.2151

> <Gold.Chemscore.Internal_Hbond>
0.0000

> <Gold.Chemscore.DEClash>
0.0097

> <Gold.Chemscore.DEInternal>
2.0541

> <Gold.Chemscore.Rot>
2.9015

> <Gold.Chemscore.Internal.Correction>
   9.000000E+99

> <Gold.Chemscore.Hbonds>
donor molecule, donor type, donor heavy atom, donor atom, acceptor molecule, acceptor atom, score
      L1  H     5    27       P1  7948  0.33
      L1  H    10    32       P1  7949  0.45
      P1  H  7997  8008       L1    22  0.40

> <Gold.Chemscore.Hbond.Weighted>
-6.1002

> <Gold.Chemscore.Metal.Weighted>
-0.0000

> <Gold.Chemscore.Lipo.Weighted>
-10.3212

> <Gold.Chemscore.Internal_Hbond.Weighted>
0.0000

> <Gold.Chemscore.DEClash.Weighted>
0.0097

> <Gold.Chemscore.DEInternal.Weighted>
2.0541

> <Gold.Chemscore.Rot.Weighted>
7.4278

> <Gold.Chemscore.Internal.Correction.Weighted>
   9.000000E+99

> <Gold.Protein.RotatedTorsions>
[ 6907 6896 6895 6894 ] final   45.28 input  -60.11 | X-H torsion
[ 7974 7965 7964 7962 ] final  167.80 input  175.53 | X-H torsion
[ 8008 7997 7996 7995 ] final  -47.38 input   59.86 | X-H torsion
[ 10167 10162 10161 10158 ] final  104.63 input  -65.29 | X-H torsion
[ 10718 10713 10712 10709 ] final  -24.69 input   66.30 | X-H torsion
[ 10763 10752 10751 10750 ] final  -40.69 input  -60.55 | X-H torsion
[ 11005 11000 10999 10996 ] final  116.62 input  -57.11 | X-H torsion

> <Gold.Protein.ActiveResidues>
 VAL166  LYS551  ARG553  GLY616  TRP617  ASP618  TYR619  PRO620  LYS621  CYS622 
 ASP623  PHE694  ASN695  SER759  ASP760  ASP761  ALA762  ILE779  LEU786  VAL792 
 PHE793  MET794  SER795  GLU796  ALA797  LYS798  CYS799  TRP800  GLU811  SER814 

> <Gold.Protein.RotatedAtoms>
  152.2426  134.8213  160.0457 H   0  0  0  0  0  0  0  0  0  0  0  0  # atno 6907 bound_to 6896
  151.8922  133.3513  159.3810 H   0  0  0  0  0  0  0  0  0  0  0  0  # atno 6908 bound_to 6896
  150.7058  134.4839  159.5527 H   0  0  0  0  0  0  0  0  0  0  0  0  # atno 6909 bound_to 6896
  144.7411  139.8814  143.6396 H   0  0  0  0  0  0  0  0  0  0  0  0  # atno 7974 bound_to 7965
  154.4016  140.1348  156.4166 H   0  0  0  0  0  0  0  0  0  0  0  0  # atno 8008 bound_to 7997
  155.7683  140.3484  155.5213 H   0  0  0  0  0  0  0  0  0  0  0  0  # atno 8009 bound_to 7997
  155.8792  140.0984  157.1487 H   0  0  0  0  0  0  0  0  0  0  0  0  # atno 8010 bound_to 7997
  139.7161  144.7068  151.0948 H   0  0  0  0  0  0  0  0  0  0  0  0  # atno 10167 bound_to 10162
  156.4743  130.4531  149.6850 H   0  0  0  0  0  0  0  0  0  0  0  0  # atno 10718 bound_to 10713
  153.9501  135.6751  153.4744 H   0  0  0  0  0  0  0  0  0  0  0  0  # atno 10763 bound_to 10752
  153.0888  135.4885  154.8647 H   0  0  0  0  0  0  0  0  0  0  0  0  # atno 10764 bound_to 10752
  154.7330  135.3142  154.8818 H   0  0  0  0  0  0  0  0  0  0  0  0  # atno 10765 bound_to 10752
  139.9047  134.9600  156.7226 H   0  0  0  0  0  0  0  0  0  0  0  0  # atno 11005 bound_to 11000
  146.1208  139.4226  143.0229 LP  0  0  0  0  0  0  0  0  0  0  0  0  # atno 17320 bound_to 7965
  145.7307  141.0043  143.1353 LP  0  0  0  0  0  0  0  0  0  0  0  0  # atno 17321 bound_to 7965
  140.7744  143.5228  150.9516 LP  0  0  0  0  0  0  0  0  0  0  0  0  # atno 17342 bound_to 10162
  139.8914  143.6949  152.3145 LP  0  0  0  0  0  0  0  0  0  0  0  0  # atno 17343 bound_to 10162
  156.3586  130.7470  151.2439 LP  0  0  0  0  0  0  0  0  0  0  0  0  # atno 17370 bound_to 10713
  157.7489  131.0356  150.4373 LP  0  0  0  0  0  0  0  0  0  0  0  0  # atno 17371 bound_to 10713
  140.6988  133.9324  155.8011 LP  0  0  0  0  0  0  0  0  0  0  0  0  # atno 17394 bound_to 11000
  141.0387  134.0653  157.3928 LP  0  0  0  0  0  0  0  0  0  0  0  0  # atno 17395 bound_to 11000

$$$$
