AV-unprocessed.smi:1190|AV-procd|sdf|4980|dock3
  -GOLD-   22720 3573D 1   1.00000     0.00000
 Structure written by MMmdl.
 43 44  0  0  0  0  0  0  0  0  1 V2000
  150.9597  142.0038  157.9463 C   0  0  0  0  0  0  0  0  0  0  0  0
  151.4749  141.4822  156.7262 O   0  0  0  0  0  0  0  0  0  0  0  0
  150.8446  140.3921  156.1620 C   0  0  0  0  0  0  0  0  0  0  0  0
  149.9586  139.6399  156.9582 C   0  0  0  0  0  0  0  0  0  0  0  0
  149.3129  138.5274  156.3871 C   0  0  0  0  0  0  0  0  0  0  0  0
  149.5721  138.1946  155.0423 C   0  0  0  0  0  0  0  0  0  0  0  0
  148.8877  137.0745  154.4962 N   0  0  0  0  0  0  0  0  0  0  0  0
  147.9270  136.3160  155.0514 C   0  0  0  0  0  0  0  0  0  0  0  0
  147.4361  136.4870  156.1668 O   0  0  0  0  0  0  0  0  0  0  0  0
  147.5539  135.3328  154.2206 N   0  0  0  0  0  0  0  0  0  0  0  0
  146.5622  134.2990  154.5111 C   0  0  0  0  0  0  0  0  0  0  0  0
  146.6621  133.0976  153.5344 C   0  0  2  0  0  0  0  0  0  0  0  0
  148.1405  132.6534  153.4562 C   0  0  0  0  0  0  0  0  0  0  0  0
  146.0494  133.3461  152.2106 N   0  0  0  0  0  0  0  0  0  0  0  0
  145.9639  132.1329  151.3922 C   0  0  0  0  0  0  0  0  0  0  0  0
  145.3143  132.3902  150.0214 C   0  0  0  0  0  0  0  0  0  0  0  0
  144.0207  132.9513  150.2030 O   0  0  0  0  0  0  0  0  0  0  0  0
  144.0613  134.1682  150.9366 C   0  0  0  0  0  0  0  0  0  0  0  0
  144.7053  133.9229  152.3123 C   0  0  0  0  0  0  0  0  0  0  0  0
  150.4713  139.0198  154.3224 C   0  0  0  0  0  0  0  0  0  0  0  0
  151.0949  140.0874  154.8649 N   0  0  0  0  0  0  0  0  0  0  0  0
  151.5713  142.8475  158.2653 H   0  0  0  0  0  0  0  0  0  0  0  0
  150.9848  141.2588  158.7429 H   0  0  0  0  0  0  0  0  0  0  0  0
  149.9371  142.3636  157.8243 H   0  0  0  0  0  0  0  0  0  0  0  0
  149.7764  139.9123  157.9874 H   0  0  0  0  0  0  0  0  0  0  0  0
  148.6276  137.9372  156.9782 H   0  0  0  0  0  0  0  0  0  0  0  0
  149.1399  136.8388  153.5477 H   0  0  0  0  0  0  0  0  0  0  0  0
  148.0149  135.2718  153.3245 H   0  0  0  0  0  0  0  0  0  0  0  0
  146.6534  133.9514  155.5414 H   0  0  0  0  0  0  0  0  0  0  0  0
  145.5734  134.7541  154.4681 H   0  0  0  0  0  0  0  0  0  0  0  0
  146.1202  132.2755  154.0045 H   0  0  0  0  0  0  0  0  0  0  0  0
  148.5898  132.5984  154.4483 H   0  0  0  0  0  0  0  0  0  0  0  0
  148.7368  133.3477  152.8636 H   0  0  0  0  0  0  0  0  0  0  0  0
  148.2472  131.6609  153.0197 H   0  0  0  0  0  0  0  0  0  0  0  0
  146.9564  131.7225  151.2118 H   0  0  0  0  0  0  0  0  0  0  0  0
  145.3966  131.3671  151.9233 H   0  0  0  0  0  0  0  0  0  0  0  0
  145.9307  133.0625  149.4224 H   0  0  0  0  0  0  0  0  0  0  0  0
  145.2230  131.4579  149.4643 H   0  0  0  0  0  0  0  0  0  0  0  0
  144.6196  134.9208  150.3776 H   0  0  0  0  0  0  0  0  0  0  0  0
  143.0457  134.5459  151.0562 H   0  0  0  0  0  0  0  0  0  0  0  0
  144.0636  133.2642  152.8994 H   0  0  0  0  0  0  0  0  0  0  0  0
  144.7365  134.8786  152.8326 H   0  0  0  0  0  0  0  0  0  0  0  0
  150.6989  138.8540  153.2817 H   0  0  0  0  0  0  0  0  0  0  0  0
  1  2  1  0  0  0  0
  1 22  1  0  0  0  0
  1 23  1  0  0  0  0
  1 24  1  0  0  0  0
  2  3  1  0  0  0  0
  3 21  1  0  0  0  0
  3  4  2  0  0  0  0
  4  5  1  0  0  0  0
  4 25  1  0  0  0  0
  5  6  2  0  0  0  0
  5 26  1  0  0  0  0
  6  7  1  0  0  0  0
  6 20  1  0  0  0  0
  7  8  1  0  0  0  0
  7 27  1  0  0  0  0
  8  9  2  0  0  0  0
  8 10  1  0  0  0  0
 10 11  1  0  0  0  0
 10 28  1  0  0  0  0
 11 12  1  0  0  0  0
 11 29  1  0  0  0  0
 11 30  1  0  0  0  0
 12 13  1  0  0  0  0
 12 14  1  0  0  0  0
 12 31  1  0  0  0  0
 13 32  1  0  0  0  0
 13 33  1  0  0  0  0
 13 34  1  0  0  0  0
 14 19  1  0  0  0  0
 14 15  1  0  0  0  0
 15 16  1  0  0  0  0
 15 35  1  0  0  0  0
 15 36  1  0  0  0  0
 16 17  1  0  0  0  0
 16 37  1  0  0  0  0
 16 38  1  0  0  0  0
 17 18  1  0  0  0  0
 18 19  1  0  0  0  0
 18 39  1  0  0  0  0
 18 40  1  0  0  0  0
 19 41  1  0  0  0  0
 19 42  1  0  0  0  0
 20 21  2  0  0  0  0
 20 43  1  0  0  0  0
M  END
> <s_m_source_file>
AV-unprocessed.smi

> <i_m_source_file_index>
1190

> <i_lp_mmshare_version>
43012

> <i_f3d_flags>
0

> <s_epik_input>
W0NIM11PYzFbY0hdW2NIXWMoW2NIXW4xKVtOSF1DKD1PKVtOSF1bQ0gyXVtDQEhdKFtDSDNdKU4yW0NIMl1bQ0gyXU9bQ0gyXVtDSDJdMg==

> <s_epik_cmdline>
J2VwaWtfcHl0aG9uJywgJy1waCcsICc3LjAnLCAnLXRuJywgJzgnLCAnLW1hJywgJzIwMCcsICctbWV0YWxfYmluZGluZycsICctaW1hZScsICc8aW5maWxlLm1hZT4nLCAnLW9tYWUnLCAnPG91dGZpbGUubWFlPic=

> <r_lp_tautomer_probability>
1

> <r_epik_Ionization_Penalty>
0.266084

> <r_epik_Ionization_Penalty_Charging>
0

> <r_epik_Ionization_Penalty_Neutral>
0.266084

> <r_epik_State_Penalty>
0.257924

> <r_epik_Charging_Adjusted_Penalty>
0.257924

> <i_epik_Tot_Q>
0

> <i_epik_Tot_abs_Q>
0

> <r_epik_Metal_State_Penalty>
0.257922

> <b_epik_Metal_Only>
0

> <s_lp_Force_Field>
OPLS_2005

> <r_lp_Energy>
36.3321

> <b_lp_Chiralities_Consistent>
1

> <s_lp_Variant>
AV-unprocessed.smi:1190-1

> <Gold.Version>
5.8.1

> <Gold.Id.Protein>
6NUR|6NUR_protein|mol2

> <Gold.PLP.Fitness>
38.5011

> <Gold.PLP.PLP>
-27.4476

> <Gold.PLP.part.hbond>
-3.0000

> <Gold.PLP.part.metal>
0.0000

> <Gold.PLP.part.buried>
-4.5572

> <Gold.PLP.part.nonpolar>
-20.0757

> <Gold.PLP.part.repulsive>
0.4364

> <Gold.PLP.ligand.clash>
0.0000

> <Gold.PLP.ligand.torsion>
0.5139

> <Gold.PLP.Chemscore.Hbond>
2.9920

> <Gold.PLP.Chemscore.CHOScore>
1.0000

> <Gold.PLP.Chemscore.Metal>
0.0000

> <Gold.Chemscore.Hbonds>
donor molecule, donor type, donor heavy atom, donor atom, acceptor molecule, acceptor atom, score
      L1  H     7    27       P1  7948  1.00
      L1  H    10    28       P1  7948  0.98
      P1  H  7989  7998       L1    21  1.00
      L1  C    20    43       P1  7957  0.70

> <Gold.PLP.Chemscore.Internal.Correction>
0.1053

> <Gold.Rescore>
     Score         DG    S(hbond)    S(metal)    S(lipo)     H(rot)  DE(clash)    DE(int)     intcor
     15.48     -17.27       2.56        0.00      65.54       1.73       0.01       1.78       ----

> <Gold.Chemscore.Fitness>
15.4767

> <Gold.Chemscore.DG>
-17.2659

> <Gold.Chemscore.ZeroCoef>
-5.4800

> <Gold.Chemscore.Hbond>
2.5582

> <Gold.Chemscore.Metal>
0.0000

> <Gold.Chemscore.Lipo>
65.5421

> <Gold.Chemscore.Internal_Hbond>
0.0000

> <Gold.Chemscore.DEClash>
0.0106

> <Gold.Chemscore.DEInternal>
1.7787

> <Gold.Chemscore.Rot>
1.7292

> <Gold.Chemscore.Internal.Correction>
   9.000000E+99

> <Gold.Chemscore.Hbonds>
donor molecule, donor type, donor heavy atom, donor atom, acceptor molecule, acceptor atom, score
      L1  H     7    27       P1  7948  0.99
      L1  H    10    28       P1  7948  0.90
      P1  H  7989  7998       L1    21  0.30

> <Gold.Chemscore.Hbond.Weighted>
-8.5443

> <Gold.Chemscore.Metal.Weighted>
-0.0000

> <Gold.Chemscore.Lipo.Weighted>
-7.6684

> <Gold.Chemscore.Internal_Hbond.Weighted>
0.0000

> <Gold.Chemscore.DEClash.Weighted>
0.0106

> <Gold.Chemscore.DEInternal.Weighted>
1.7787

> <Gold.Chemscore.Rot.Weighted>
4.4268

> <Gold.Chemscore.Internal.Correction.Weighted>
   9.000000E+99

> <Gold.Protein.RotatedTorsions>
[ 6907 6896 6895 6894 ] final  -26.22 input  -60.11 | X-H torsion
[ 7974 7965 7964 7962 ] final -176.62 input  175.53 | X-H torsion
[ 8008 7997 7996 7995 ] final  -80.68 input   59.86 | X-H torsion
[ 10167 10162 10161 10158 ] final -137.45 input  -65.29 | X-H torsion
[ 10718 10713 10712 10709 ] final   23.01 input   66.30 | X-H torsion
[ 10763 10752 10751 10750 ] final   72.86 input  -60.55 | X-H torsion
[ 11005 11000 10999 10996 ] final  116.65 input  -57.11 | X-H torsion

> <Gold.Protein.ActiveResidues>
 VAL166  LYS551  ARG553  GLY616  TRP617  ASP618  TYR619  PRO620  LYS621  CYS622 
 ASP623  PHE694  ASN695  SER759  ASP760  ASP761  ALA762  ILE779  LEU786  VAL792 
 PHE793  MET794  SER795  GLU796  ALA797  LYS798  CYS799  TRP800  GLU811  SER814 

> <Gold.Protein.RotatedAtoms>
  151.1641  135.0287  159.8722 H   0  0  0  0  0  0  0  0  0  0  0  0  # atno 6907 bound_to 6896
  152.5451  134.1245  159.8423 H   0  0  0  0  0  0  0  0  0  0  0  0  # atno 6908 bound_to 6896
  151.1344  133.4968  159.2631 H   0  0  0  0  0  0  0  0  0  0  0  0  # atno 6909 bound_to 6896
  144.7127  140.1142  143.6409 H   0  0  0  0  0  0  0  0  0  0  0  0  # atno 7974 bound_to 7965
  154.5907  140.0659  156.9234 H   0  0  0  0  0  0  0  0  0  0  0  0  # atno 8008 bound_to 7997
  155.2301  140.3337  155.4286 H   0  0  0  0  0  0  0  0  0  0  0  0  # atno 8009 bound_to 7997
  156.2253  140.1817  156.7361 H   0  0  0  0  0  0  0  0  0  0  0  0  # atno 8010 bound_to 7997
  139.8577  143.7118  152.2653 H   0  0  0  0  0  0  0  0  0  0  0  0  # atno 10167 bound_to 10162
  157.1602  130.6713  149.6041 H   0  0  0  0  0  0  0  0  0  0  0  0  # atno 10718 bound_to 10713
  153.0485  135.5084  154.7807 H   0  0  0  0  0  0  0  0  0  0  0  0  # atno 10763 bound_to 10752
  154.6688  135.2950  154.9772 H   0  0  0  0  0  0  0  0  0  0  0  0  # atno 10764 bound_to 10752
  154.0598  135.6692  153.4863 H   0  0  0  0  0  0  0  0  0  0  0  0  # atno 10765 bound_to 10752
  139.9048  134.9600  156.7231 H   0  0  0  0  0  0  0  0  0  0  0  0  # atno 11005 bound_to 11000
  145.9428  139.2680  143.1258 LP  0  0  0  0  0  0  0  0  0  0  0  0  # atno 17320 bound_to 7965
  145.9406  140.8982  143.0310 LP  0  0  0  0  0  0  0  0  0  0  0  0  # atno 17321 bound_to 7965
  139.7404  144.7561  151.0661 LP  0  0  0  0  0  0  0  0  0  0  0  0  # atno 17342 bound_to 10162
  140.7779  143.4979  150.9809 LP  0  0  0  0  0  0  0  0  0  0  0  0  # atno 17343 bound_to 10162
  155.9755  130.4714  150.6464 LP  0  0  0  0  0  0  0  0  0  0  0  0  # atno 17370 bound_to 10713
  157.4139  131.0827  151.1195 LP  0  0  0  0  0  0  0  0  0  0  0  0  # atno 17371 bound_to 10713
  140.6985  133.9327  155.8009 LP  0  0  0  0  0  0  0  0  0  0  0  0  # atno 17394 bound_to 11000
  141.0389  134.0649  157.3926 LP  0  0  0  0  0  0  0  0  0  0  0  0  # atno 17395 bound_to 11000

$$$$
