AV-unprocessed.smi:172|AV-procd|sdf|1422|dock10
  -GOLD-   2262019193D 1   1.00000     0.00000
 Structure written by MMmdl.
 56 60  0  0  0  0  0  0  0  0  1 V2000
  144.2211  145.1916  152.4691 O   0  0  0  0  0  0  0  0  0  0  0  0
  144.7758  145.3438  153.7613 C   0  0  0  0  0  0  0  0  0  0  0  0
  143.9590  144.6173  154.8490 C   0  0  0  0  0  0  0  0  0  0  0  0
  144.3511  143.1258  154.9263 C   0  0  0  0  0  0  0  0  0  0  0  0
  145.5534  142.8486  155.6959 N   0  0  0  0  0  0  0  0  0  0  0  0
  145.7312  143.0646  157.0450 C   0  0  0  0  0  0  0  0  0  0  0  0
  146.9079  142.7472  157.5115 N   0  0  0  0  0  0  0  0  0  0  0  0
  147.5867  142.2648  156.4008 C   0  0  0  0  0  0  0  0  0  0  0  0
  148.8973  141.7629  156.1902 C   0  0  0  0  0  0  0  0  0  0  0  0
  149.8059  141.6907  157.1927 N   0  0  0  0  0  0  0  0  0  0  0  0
  150.7192  142.8416  157.1756 C   0  0  0  0  0  0  0  0  0  0  0  0
  151.1172  143.3509  158.5554 C   0  0  0  0  0  0  0  0  0  0  0  0
  151.2252  144.8349  158.8155 C   0  0  0  0  0  0  0  0  0  0  0  0
  152.4699  143.9814  158.7863 C   0  0  0  0  0  0  0  0  0  0  0  0
  150.3858  140.3442  157.3648 C   0  0  0  0  0  0  0  0  0  0  0  0
  149.2999  139.2681  157.6517 C   0  0  0  0  0  0  0  0  0  0  0  0
  149.8976  137.8673  157.8514 C   0  0  0  0  0  0  0  0  0  0  0  0
  150.9360  137.8624  158.9786 C   0  0  0  0  0  0  0  0  0  0  0  0
  152.0327  138.8968  158.7016 C   0  0  0  0  0  0  0  0  0  0  0  0
  151.4438  140.3021  158.4976 C   0  0  0  0  0  0  0  0  0  0  0  0
  149.2355  141.3641  154.9356 N   0  0  0  0  0  0  0  0  0  0  0  0
  148.3400  141.4510  153.9473 C   0  0  0  0  0  0  0  0  0  0  0  0
  147.0842  141.9025  153.9949 N   0  0  0  0  0  0  0  0  0  0  0  0
  146.7481  142.3082  155.2531 C   0  0  0  0  0  0  0  0  0  0  0  0
  143.9576  145.3365  156.2065 C   0  0  0  0  0  0  0  0  0  0  0  0
  142.6449  145.8886  155.9774 O   0  0  0  0  0  0  0  0  0  0  0  0
  142.4591  144.9536  154.8946 C   0  0  0  0  0  0  0  0  0  0  0  0
  143.4944  144.5897  152.5219 H   0  0  0  0  0  0  0  0  0  0  0  0
  145.8080  144.9926  153.7455 H   0  0  0  0  0  0  0  0  0  0  0  0
  144.8205  146.4141  153.9649 H   0  0  0  0  0  0  0  0  0  0  0  0
  143.5339  142.5462  155.3575 H   0  0  0  0  0  0  0  0  0  0  0  0
  144.5006  142.7184  153.9255 H   0  0  0  0  0  0  0  0  0  0  0  0
  144.9587  143.4820  157.6743 H   0  0  0  0  0  0  0  0  0  0  0  0
  151.6389  142.5760  156.6581 H   0  0  0  0  0  0  0  0  0  0  0  0
  150.2669  143.6595  156.6130 H   0  0  0  0  0  0  0  0  0  0  0  0
  150.7058  142.7763  159.3836 H   0  0  0  0  0  0  0  0  0  0  0  0
  151.0618  145.5116  157.9791 H   0  0  0  0  0  0  0  0  0  0  0  0
  150.8894  145.2005  159.7838 H   0  0  0  0  0  0  0  0  0  0  0  0
  152.9622  143.7694  159.7331 H   0  0  0  0  0  0  0  0  0  0  0  0
  153.1319  144.0833  157.9287 H   0  0  0  0  0  0  0  0  0  0  0  0
  150.8881  140.0806  156.4326 H   0  0  0  0  0  0  0  0  0  0  0  0
  148.7325  139.5496  158.5400 H   0  0  0  0  0  0  0  0  0  0  0  0
  148.5796  139.2062  156.8357 H   0  0  0  0  0  0  0  0  0  0  0  0
  149.1040  137.1542  158.0759 H   0  0  0  0  0  0  0  0  0  0  0  0
  150.3615  137.5319  156.9231 H   0  0  0  0  0  0  0  0  0  0  0  0
  150.4497  138.0852  159.9292 H   0  0  0  0  0  0  0  0  0  0  0  0
  151.3752  136.8693  159.0782 H   0  0  0  0  0  0  0  0  0  0  0  0
  152.7460  138.9101  159.5262 H   0  0  0  0  0  0  0  0  0  0  0  0
  152.5943  138.6051  157.8132 H   0  0  0  0  0  0  0  0  0  0  0  0
  152.2762  140.9692  158.2782 H   0  0  0  0  0  0  0  0  0  0  0  0
  150.9995  140.6509  159.4309 H   0  0  0  0  0  0  0  0  0  0  0  0
  148.6789  141.1140  152.9790 H   0  0  0  0  0  0  0  0  0  0  0  0
  143.9666  144.6637  157.0659 H   0  0  0  0  0  0  0  0  0  0  0  0
  144.7254  146.1039  156.3097 H   0  0  0  0  0  0  0  0  0  0  0  0
  142.0730  145.4286  153.9922 H   0  0  0  0  0  0  0  0  0  0  0  0
  141.8241  144.1195  155.1953 H   0  0  0  0  0  0  0  0  0  0  0  0
  1  2  1  0  0  0  0
  1 28  1  0  0  0  0
  2  3  1  0  0  0  0
  2 29  1  0  0  0  0
  2 30  1  0  0  0  0
  3 27  1  0  0  0  0
  3  4  1  0  0  0  0
  3 25  1  0  0  0  0
  4  5  1  0  0  0  0
  4 31  1  0  0  0  0
  4 32  1  0  0  0  0
  5 24  1  0  0  0  0
  5  6  1  0  0  0  0
  6  7  2  0  0  0  0
  6 33  1  0  0  0  0
  7  8  1  0  0  0  0
  8 24  2  0  0  0  0
  8  9  1  0  0  0  0
  9 10  1  0  0  0  0
  9 21  2  0  0  0  0
 10 11  1  0  0  0  0
 10 15  1  0  0  0  0
 11 12  1  0  0  0  0
 11 34  1  0  0  0  0
 11 35  1  0  0  0  0
 12 14  1  0  0  0  0
 12 13  1  0  0  0  0
 12 36  1  0  0  0  0
 13 14  1  0  0  0  0
 13 37  1  0  0  0  0
 13 38  1  0  0  0  0
 14 39  1  0  0  0  0
 14 40  1  0  0  0  0
 15 20  1  0  0  0  0
 15 16  1  0  0  0  0
 15 41  1  0  0  0  0
 16 17  1  0  0  0  0
 16 42  1  0  0  0  0
 16 43  1  0  0  0  0
 17 18  1  0  0  0  0
 17 44  1  0  0  0  0
 17 45  1  0  0  0  0
 18 19  1  0  0  0  0
 18 46  1  0  0  0  0
 18 47  1  0  0  0  0
 19 20  1  0  0  0  0
 19 48  1  0  0  0  0
 19 49  1  0  0  0  0
 20 50  1  0  0  0  0
 20 51  1  0  0  0  0
 21 22  1  0  0  0  0
 22 23  2  0  0  0  0
 22 52  1  0  0  0  0
 23 24  1  0  0  0  0
 25 26  1  0  0  0  0
 25 53  1  0  0  0  0
 25 54  1  0  0  0  0
 26 27  1  0  0  0  0
 27 55  1  0  0  0  0
 27 56  1  0  0  0  0
M  END
> <s_m_source_file>
AV-unprocessed.smi

> <i_m_source_file_index>
172

> <i_lp_mmshare_version>
43012

> <i_f3d_flags>
0

> <s_epik_input>
W0NIMl0xT1tDSDJdQzEoW0NIMl1bT0hdKVtDSDJdbihbY0hdbjIpYyhjMjMpbltjSF1uYzNOKFtDSDJdW0NIXTRbQ0gyXVtDSDJdNClbQ0hdNVtDSDJdW0NIMl1bQ0gyXVtDSDJdW0NIMl01

> <s_epik_cmdline>
J2VwaWtfcHl0aG9uJywgJy1waCcsICc3LjAnLCAnLXRuJywgJzgnLCAnLW1hJywgJzIwMCcsICctbWV0YWxfYmluZGluZycsICctaW1hZScsICc8aW5maWxlLm1hZT4nLCAnLW9tYWUnLCAnPG91dGZpbGUubWFlPic=

> <r_lp_tautomer_probability>
1

> <r_epik_Ionization_Penalty>
0.0023612

> <r_epik_Ionization_Penalty_Charging>
0

> <r_epik_Ionization_Penalty_Neutral>
0.0023612

> <r_epik_State_Penalty>
0.00145434

> <r_epik_Charging_Adjusted_Penalty>
0.00145434

> <i_epik_Tot_Q>
0

> <i_epik_Tot_abs_Q>
0

> <r_epik_Metal_State_Penalty>
-0

> <b_epik_Metal_Only>
0

> <s_lp_Force_Field>
OPLS_2005

> <r_lp_Energy>
48.1575

> <b_lp_Chiralities_Consistent>
1

> <s_lp_Variant>
AV-unprocessed.smi:172-1

> <Gold.Version>
5.8.1

> <Gold.Id.Protein>
6NUR|6NUR_protein|mol2

> <Gold.PLP.Fitness>
46.0529

> <Gold.PLP.PLP>
-42.7864

> <Gold.PLP.part.hbond>
-2.0000

> <Gold.PLP.part.metal>
0.0000

> <Gold.PLP.part.buried>
-8.0007

> <Gold.PLP.part.nonpolar>
-33.8483

> <Gold.PLP.part.repulsive>
0.5095

> <Gold.PLP.ligand.clash>
0.0000

> <Gold.PLP.ligand.torsion>
2.0607

> <Gold.PLP.Chemscore.Hbond>
1.0000

> <Gold.PLP.Chemscore.CHOScore>
1.0000

> <Gold.PLP.Chemscore.Metal>
0.0000

> <Gold.Chemscore.Hbonds>
donor molecule, donor type, donor heavy atom, donor atom, acceptor molecule, acceptor atom, score
      L1  H     1    28       P1 10174  0.41
      L1  C    22    52       P1  7957  1.00

> <Gold.PLP.Chemscore.Internal.Correction>
1.3880

> <Gold.Rescore>
     Score         DG    S(hbond)    S(metal)    S(lipo)     H(rot)  DE(clash)    DE(int)     intcor
      8.35     -12.03       0.78        0.00      96.72       2.87       0.81       2.87       ----

> <Gold.Chemscore.Fitness>
8.3477

> <Gold.Chemscore.DG>
-12.0298

> <Gold.Chemscore.ZeroCoef>
-5.4800

> <Gold.Chemscore.Hbond>
0.7761

> <Gold.Chemscore.Metal>
0.0000

> <Gold.Chemscore.Lipo>
96.7188

> <Gold.Chemscore.Internal_Hbond>
0.0000

> <Gold.Chemscore.DEClash>
0.8095

> <Gold.Chemscore.DEInternal>
2.8725

> <Gold.Chemscore.Rot>
2.8744

> <Gold.Chemscore.Internal.Correction>
   9.000000E+99

> <Gold.Chemscore.Hbonds>
donor molecule, donor type, donor heavy atom, donor atom, acceptor molecule, acceptor atom, score
      L1  H     1    28       P1 10174  0.40

> <Gold.Chemscore.Hbond.Weighted>
-2.5921

> <Gold.Chemscore.Metal.Weighted>
-0.0000

> <Gold.Chemscore.Lipo.Weighted>
-11.3161

> <Gold.Chemscore.Internal_Hbond.Weighted>
0.0000

> <Gold.Chemscore.DEClash.Weighted>
0.8095

> <Gold.Chemscore.DEInternal.Weighted>
2.8725

> <Gold.Chemscore.Rot.Weighted>
7.3584

> <Gold.Chemscore.Internal.Correction.Weighted>
   9.000000E+99

> <Gold.Protein.RotatedTorsions>
[ 6907 6896 6895 6894 ] final    7.65 input  -60.11 | X-H torsion
[ 7974 7965 7964 7962 ] final  124.19 input  175.53 | X-H torsion
[ 8008 7997 7996 7995 ] final  147.62 input   59.86 | X-H torsion
[ 10167 10162 10161 10158 ] final  -33.08 input  -65.29 | X-H torsion
[ 10718 10713 10712 10709 ] final  116.98 input   66.30 | X-H torsion
[ 10763 10752 10751 10750 ] final    0.57 input  -60.55 | X-H torsion
[ 11005 11000 10999 10996 ] final  177.17 input  -57.11 | X-H torsion

> <Gold.Protein.ActiveResidues>
 VAL166  LYS551  ARG553  GLY616  TRP617  ASP618  TYR619  PRO620  LYS621  CYS622 
 ASP623  PHE694  ASN695  SER759  ASP760  ASP761  ALA762  ILE779  LEU786  VAL792 
 PHE793  MET794  SER795  GLU796  ALA797  LYS798  CYS799  TRP800  GLU811  SER814 

> <Gold.Protein.RotatedAtoms>
  151.6934  135.0942  160.0237 H   0  0  0  0  0  0  0  0  0  0  0  0  # atno 6907 bound_to 6896
  152.3765  133.6483  159.6136 H   0  0  0  0  0  0  0  0  0  0  0  0  # atno 6908 bound_to 6896
  150.7713  133.9101  159.3408 H   0  0  0  0  0  0  0  0  0  0  0  0  # atno 6909 bound_to 6896
  145.0873  139.3613  143.4878 H   0  0  0  0  0  0  0  0  0  0  0  0  # atno 7974 bound_to 7965
  156.2819  140.2151  156.5566 H   0  0  0  0  0  0  0  0  0  0  0  0  # atno 8008 bound_to 7997
  154.7247  140.0500  157.0694 H   0  0  0  0  0  0  0  0  0  0  0  0  # atno 8009 bound_to 7997
  155.0432  140.3148  155.4720 H   0  0  0  0  0  0  0  0  0  0  0  0  # atno 8010 bound_to 7997
  140.7210  143.3646  151.1895 H   0  0  0  0  0  0  0  0  0  0  0  0  # atno 10167 bound_to 10162
  157.6126  131.1032  150.7549 H   0  0  0  0  0  0  0  0  0  0  0  0  # atno 10718 bound_to 10713
  153.3190  135.6968  153.7048 H   0  0  0  0  0  0  0  0  0  0  0  0  # atno 10763 bound_to 10752
  153.5895  135.3482  155.2906 H   0  0  0  0  0  0  0  0  0  0  0  0  # atno 10764 bound_to 10752
  154.8593  135.4314  154.2349 H   0  0  0  0  0  0  0  0  0  0  0  0  # atno 10765 bound_to 10752
  140.3811  134.6945  157.4451 H   0  0  0  0  0  0  0  0  0  0  0  0  # atno 11005 bound_to 11000
  146.3531  140.0691  142.8624 LP  0  0  0  0  0  0  0  0  0  0  0  0  # atno 17320 bound_to 7965
  145.1107  140.9403  143.4658 LP  0  0  0  0  0  0  0  0  0  0  0  0  # atno 17321 bound_to 7965
  139.7205  143.9230  152.2983 LP  0  0  0  0  0  0  0  0  0  0  0  0  # atno 17342 bound_to 10162
  139.8986  144.6925  150.8690 LP  0  0  0  0  0  0  0  0  0  0  0  0  # atno 17343 bound_to 10162
  156.7924  130.4894  149.5383 LP  0  0  0  0  0  0  0  0  0  0  0  0  # atno 17370 bound_to 10713
  156.1235  130.6127  151.0228 LP  0  0  0  0  0  0  0  0  0  0  0  0  # atno 17371 bound_to 10713
  140.0478  134.6175  155.8900 LP  0  0  0  0  0  0  0  0  0  0  0  0  # atno 17394 bound_to 11000
  141.1923  133.6575  156.5495 LP  0  0  0  0  0  0  0  0  0  0  0  0  # atno 17395 bound_to 11000

$$$$
