AV-unprocessed.smi:2592|AV-procd|sdf|10162|dock6
  -GOLD-   2272014173D 1   1.00000     0.00000
 Structure written by MMmdl.
 41 42  0  0  0  0  0  0  0  0  2 V2000
  147.4777  136.8892  163.5226 C   0  0  0  0  0  0  0  0  0  0  0  0
  147.6295  136.2902  162.1583 C   0  0  0  0  0  0  0  0  0  0  0  0
  148.1803  137.0534  161.1258 N   0  0  0  0  0  0  0  0  0  0  0  0
  148.2674  136.3995  159.9633 C   0  0  0  0  0  0  0  0  0  0  0  0
  148.7611  136.9560  158.8449 N   0  5  0  0  0  0  0  0  0  0  0  0
  150.0657  137.3072  158.7821 C   0  0  0  0  0  0  0  0  0  0  0  0
  150.9212  137.0992  159.6460 O   0  0  0  0  0  0  0  0  0  0  0  0
  150.4009  137.9344  157.6454 N   0  0  0  0  0  0  0  0  0  0  0  0
  151.7334  138.4134  157.2937 C   0  0  0  0  0  0  0  0  0  0  0  0
  151.6714  139.7445  156.5275 C   0  0  0  0  0  0  0  0  0  0  0  0
  151.0720  140.8767  157.3785 C   0  0  0  0  0  0  0  0  0  0  0  0
  152.0232  141.5697  158.2466 N   0  0  0  0  0  0  0  0  0  0  0  0
  151.4889  142.8551  158.6835 C   0  0  0  0  0  0  0  0  0  0  0  0
  152.4695  143.6049  159.6017 C   0  0  0  0  0  0  0  0  0  0  0  0
  152.7910  142.7877  160.7221 O   0  0  0  0  0  0  0  0  0  0  0  0
  153.3594  141.5381  160.3442 C   0  0  0  0  0  0  0  0  0  0  0  0
  152.3855  140.7821  159.4236 C   0  0  0  0  0  0  0  0  0  0  0  0
  147.6345  134.7574  160.0838 S   0  0  0  0  0  0  0  0  0  0  0  0
  147.2749  135.0223  161.7689 C   0  0  0  0  0  0  0  0  0  0  0  0
  146.6624  133.9453  162.6007 C   0  0  0  0  0  0  0  0  0  0  0  0
  146.4288  137.0773  163.7523 H   0  0  0  0  0  0  0  0  0  0  0  0
  148.0096  137.8373  163.6086 H   0  0  0  0  0  0  0  0  0  0  0  0
  147.8704  136.2225  164.2906 H   0  0  0  0  0  0  0  0  0  0  0  0
  149.6680  138.0858  156.9678 H   0  0  0  0  0  0  0  0  0  0  0  0
  152.2984  138.5421  158.2169 H   0  0  0  0  0  0  0  0  0  0  0  0
  152.2618  137.6584  156.7095 H   0  0  0  0  0  0  0  0  0  0  0  0
  152.6760  140.0125  156.2011 H   0  0  0  0  0  0  0  0  0  0  0  0
  151.0749  139.6151  155.6234 H   0  0  0  0  0  0  0  0  0  0  0  0
  150.6308  141.6034  156.6947 H   0  0  0  0  0  0  0  0  0  0  0  0
  150.2453  140.4864  157.9741 H   0  0  0  0  0  0  0  0  0  0  0  0
  151.2629  143.4763  157.8160 H   0  0  0  0  0  0  0  0  0  0  0  0
  150.5462  142.7035  159.2118 H   0  0  0  0  0  0  0  0  0  0  0  0
  153.3799  143.8701  159.0619 H   0  0  0  0  0  0  0  0  0  0  0  0
  152.0233  144.5346  159.9547 H   0  0  0  0  0  0  0  0  0  0  0  0
  154.3149  141.7019  159.8433 H   0  0  0  0  0  0  0  0  0  0  0  0
  153.5643  140.9539  161.2413 H   0  0  0  0  0  0  0  0  0  0  0  0
  151.4872  140.5213  159.9855 H   0  0  0  0  0  0  0  0  0  0  0  0
  152.8511  139.8436  159.1246 H   0  0  0  0  0  0  0  0  0  0  0  0
  147.4119  133.4810  163.2416 H   0  0  0  0  0  0  0  0  0  0  0  0
  146.2235  133.1670  161.9759 H   0  0  0  0  0  0  0  0  0  0  0  0
  145.8739  134.3465  163.2377 H   0  0  0  0  0  0  0  0  0  0  0  0
  1  2  1  0  0  0  0
  1 21  1  0  0  0  0
  1 22  1  0  0  0  0
  1 23  1  0  0  0  0
  2 19  2  0  0  0  0
  2  3  1  0  0  0  0
  3  4  2  0  0  0  0
  4  5  1  0  0  0  0
  4 18  1  0  0  0  0
  5  6  1  0  0  0  0
  6  7  2  0  0  0  0
  6  8  1  0  0  0  0
  8  9  1  0  0  0  0
  8 24  1  0  0  0  0
  9 10  1  0  0  0  0
  9 25  1  0  0  0  0
  9 26  1  0  0  0  0
 10 11  1  0  0  0  0
 10 27  1  0  0  0  0
 10 28  1  0  0  0  0
 11 12  1  0  0  0  0
 11 29  1  0  0  0  0
 11 30  1  0  0  0  0
 12 17  1  0  0  0  0
 12 13  1  0  0  0  0
 13 14  1  0  0  0  0
 13 31  1  0  0  0  0
 13 32  1  0  0  0  0
 14 15  1  0  0  0  0
 14 33  1  0  0  0  0
 14 34  1  0  0  0  0
 15 16  1  0  0  0  0
 16 17  1  0  0  0  0
 16 35  1  0  0  0  0
 16 36  1  0  0  0  0
 17 37  1  0  0  0  0
 17 38  1  0  0  0  0
 18 19  1  0  0  0  0
 19 20  1  0  0  0  0
 20 39  1  0  0  0  0
 20 40  1  0  0  0  0
 20 41  1  0  0  0  0
M  CHG  1   5  -1
M  END
> <s_m_source_file>
AV-unprocessed.smi

> <i_m_source_file_index>
2592

> <i_lp_mmshare_version>
43012

> <i_f3d_flags>
0

> <s_epik_input>
W0NIM11jMW5jKHNjMVtDSDNdKVtOSF1DKD1PKVtOSF1bQ0gyXVtDSDJdW0NIMl1OMltDSDJdW0NIMl1PW0NIMl1bQ0gyXTI=

> <s_epik_cmdline>
J2VwaWtfcHl0aG9uJywgJy1waCcsICc3LjAnLCAnLXRuJywgJzgnLCAnLW1hJywgJzIwMCcsICctbWV0YWxfYmluZGluZycsICctaW1hZScsICc8aW5maWxlLm1hZT4nLCAnLW9tYWUnLCAnPG91dGZpbGUubWFlPic=

> <r_lp_tautomer_probability>
0.999

> <r_epik_Ionization_Penalty>
8.38414

> <r_epik_Ionization_Penalty_Charging>
6.24826

> <r_epik_Ionization_Penalty_Neutral>
2.13587

> <r_epik_State_Penalty>
6.83636

> <r_epik_Charging_Adjusted_Penalty>
13.0846

> <i_epik_Tot_Q>
-1

> <i_epik_Tot_abs_Q>
1

> <r_epik_Metal_State_Penalty>
2.77797

> <b_epik_Metal_Only>
1

> <s_lp_Force_Field>
OPLS_2005

> <r_lp_Energy>
16.0962

> <b_lp_Chiralities_Consistent>
1

> <s_lp_Variant>
AV-unprocessed.smi:2592-4

> <Gold.Version>
5.8.1

> <Gold.Id.Protein>
6NUR|6NUR_protein|mol2

> <Gold.PLP.Fitness>
45.1951

> <Gold.PLP.PLP>
-40.4269

> <Gold.PLP.part.hbond>
-3.0000

> <Gold.PLP.part.metal>
0.0000

> <Gold.PLP.part.buried>
-5.4437

> <Gold.PLP.part.nonpolar>
-32.7343

> <Gold.PLP.part.repulsive>
0.0550

> <Gold.PLP.ligand.clash>
0.0000

> <Gold.PLP.ligand.torsion>
1.0627

> <Gold.PLP.Chemscore.Hbond>
2.2500

> <Gold.PLP.Chemscore.CHOScore>
0.0000

> <Gold.PLP.Chemscore.Metal>
0.0000

> <Gold.Chemscore.Hbonds>
donor molecule, donor type, donor heavy atom, donor atom, acceptor molecule, acceptor atom, score
      P1  H  6896  6909       L1     7  1.00
      P1  H  6931  6943       L1     3  1.00
      P1  H  6934  6947       L1     3  0.37

> <Gold.PLP.Chemscore.Internal.Correction>
0.1438

> <Gold.Rescore>
     Score         DG    S(hbond)    S(metal)    S(lipo)     H(rot)  DE(clash)    DE(int)     intcor
     17.80     -18.90       1.91        0.00      96.15       1.65       0.02       1.08       ----

> <Gold.Chemscore.Fitness>
17.7978

> <Gold.Chemscore.DG>
-18.9036

> <Gold.Chemscore.ZeroCoef>
-5.4800

> <Gold.Chemscore.Hbond>
1.9119

> <Gold.Chemscore.Metal>
0.0000

> <Gold.Chemscore.Lipo>
96.1498

> <Gold.Chemscore.Internal_Hbond>
0.0000

> <Gold.Chemscore.DEClash>
0.0237

> <Gold.Chemscore.DEInternal>
1.0821

> <Gold.Chemscore.Rot>
1.6452

> <Gold.Chemscore.Internal.Correction>
   9.000000E+99

> <Gold.Chemscore.Hbonds>
donor molecule, donor type, donor heavy atom, donor atom, acceptor molecule, acceptor atom, score
      P1  H  6896  6909       L1     7  0.70
      P1  H  6931  6943       L1     3  0.49
      P1  H  6934  6947       L1     3  0.26

> <Gold.Chemscore.Hbond.Weighted>
-6.3859

> <Gold.Chemscore.Metal.Weighted>
-0.0000

> <Gold.Chemscore.Lipo.Weighted>
-11.2495

> <Gold.Chemscore.Internal_Hbond.Weighted>
0.0000

> <Gold.Chemscore.DEClash.Weighted>
0.0237

> <Gold.Chemscore.DEInternal.Weighted>
1.0821

> <Gold.Chemscore.Rot.Weighted>
4.2118

> <Gold.Chemscore.Internal.Correction.Weighted>
   9.000000E+99

> <Gold.Protein.RotatedTorsions>
[ 6907 6896 6895 6894 ] final   96.13 input  -60.11 | X-H torsion
[ 7974 7965 7964 7962 ] final   42.48 input  175.53 | X-H torsion
[ 8008 7997 7996 7995 ] final -132.95 input   59.86 | X-H torsion
[ 10167 10162 10161 10158 ] final  179.06 input  -65.29 | X-H torsion
[ 10718 10713 10712 10709 ] final  -76.60 input   66.30 | X-H torsion
[ 10763 10752 10751 10750 ] final  161.16 input  -60.55 | X-H torsion
[ 11005 11000 10999 10996 ] final  165.64 input  -57.11 | X-H torsion

> <Gold.Protein.ActiveResidues>
 VAL166  LYS551  ARG553  GLY616  TRP617  ASP618  TYR619  PRO620  LYS621  CYS622 
 ASP623  PHE694  ASN695  SER759  ASP760  ASP761  ALA762  ILE779  LEU786  VAL792 
 PHE793  MET794  SER795  GLU796  ALA797  LYS798  CYS799  TRP800  GLU811  SER814 

> <Gold.Protein.RotatedAtoms>
  152.5438  134.0934  159.8286 H   0  0  0  0  0  0  0  0  0  0  0  0  # atno 6907 bound_to 6896
  151.1021  133.5229  159.2617 H   0  0  0  0  0  0  0  0  0  0  0  0  # atno 6908 bound_to 6896
  151.1980  135.0439  159.8914 H   0  0  0  0  0  0  0  0  0  0  0  0  # atno 6909 bound_to 6896
  146.0736  139.5295  142.9582 H   0  0  0  0  0  0  0  0  0  0  0  0  # atno 7974 bound_to 7965
  155.3375  140.0470  157.3044 H   0  0  0  0  0  0  0  0  0  0  0  0  # atno 8008 bound_to 7997
  154.5295  140.2252  155.8795 H   0  0  0  0  0  0  0  0  0  0  0  0  # atno 8009 bound_to 7997
  156.1774  140.3082  155.9091 H   0  0  0  0  0  0  0  0  0  0  0  0  # atno 8010 bound_to 7997
  139.5320  144.2606  152.0710 H   0  0  0  0  0  0  0  0  0  0  0  0  # atno 10167 bound_to 10162
  156.0170  130.4469  150.3218 H   0  0  0  0  0  0  0  0  0  0  0  0  # atno 10718 bound_to 10713
  154.2586  135.2769  155.2787 H   0  0  0  0  0  0  0  0  0  0  0  0  # atno 10763 bound_to 10752
  154.5404  135.5704  153.6837 H   0  0  0  0  0  0  0  0  0  0  0  0  # atno 10764 bound_to 10752
  152.9966  135.6249  154.2735 H   0  0  0  0  0  0  0  0  0  0  0  0  # atno 10765 bound_to 10752
  140.2582  134.7923  157.3566 H   0  0  0  0  0  0  0  0  0  0  0  0  # atno 11005 bound_to 11000
  145.6346  141.0297  143.1845 LP  0  0  0  0  0  0  0  0  0  0  0  0  # atno 17320 bound_to 7965
  144.7247  139.7913  143.7369 LP  0  0  0  0  0  0  0  0  0  0  0  0  # atno 17321 bound_to 7965
  140.2071  144.4600  150.6403 LP  0  0  0  0  0  0  0  0  0  0  0  0  # atno 17342 bound_to 10162
  140.6504  143.2223  151.6090 LP  0  0  0  0  0  0  0  0  0  0  0  0  # atno 17343 bound_to 10162
  157.1318  131.0273  151.2966 LP  0  0  0  0  0  0  0  0  0  0  0  0  # atno 17370 bound_to 10713
  157.4544  130.7617  149.7180 LP  0  0  0  0  0  0  0  0  0  0  0  0  # atno 17371 bound_to 10713
  140.1490  134.4874  155.7975 LP  0  0  0  0  0  0  0  0  0  0  0  0  # atno 17394 bound_to 11000
  141.2193  133.6855  156.7345 LP  0  0  0  0  0  0  0  0  0  0  0  0  # atno 17395 bound_to 11000

$$$$
