AV-unprocessed.smi:3189|AV-procd|sdf|12187|dock1
  -GOLD-   2272018 33D 1   1.00000     0.00000
 Structure written by MMmdl.
 30 31  0  0  0  0  0  0  0  0  1 V2000
  147.3695  139.5537  152.7424 C   0  0  0  0  0  0  0  0  0  0  0  0
  148.6139  139.8018  153.5740 C   0  0  0  0  0  0  0  0  0  0  0  0
  149.5698  138.8506  153.4950 N   0  0  0  0  0  0  0  0  0  0  0  0
  150.6999  139.0261  154.2098 C   0  0  0  0  0  0  0  0  0  0  0  0
  150.9304  140.1438  155.0345 C   0  0  0  0  0  0  0  0  0  0  0  0
  149.9252  141.1363  155.1303 C   0  0  0  0  0  0  0  0  0  0  0  0
  150.0443  142.3143  155.9195 N   0  0  0  0  0  0  0  0  0  0  0  0
  150.6835  142.5092  157.0899 C   0  0  0  0  0  0  0  0  0  0  0  0
  151.3159  141.6498  157.6999 O   0  0  0  0  0  0  0  0  0  0  0  0
  150.5305  143.7469  157.5934 N   0  0  0  0  0  0  0  0  0  0  0  0
  151.0795  144.2622  158.8109 C   0  0  2  0  0  0  0  0  0  0  0  0
  152.4410  144.9148  158.7247 C   0  0  0  0  0  0  0  0  0  0  0  0
  152.2931  143.5767  159.4017 C   0  0  1  0  0  0  0  0  0  0  0  0
  152.4575  143.4592  160.9014 C   0  0  0  0  0  0  0  0  0  0  0  0
  148.7438  140.9632  154.3711 C   0  0  0  0  0  0  0  0  0  0  0  0
  147.4801  142.1479  154.4191 Cl  0  0  0  0  0  0  0  0  0  0  0  0
  146.4815  139.5586  153.3751 H   0  0  0  0  0  0  0  0  0  0  0  0
  147.4127  138.5899  152.2333 H   0  0  0  0  0  0  0  0  0  0  0  0
  147.2596  140.3313  151.9862 H   0  0  0  0  0  0  0  0  0  0  0  0
  151.4482  138.2530  154.1174 H   0  0  0  0  0  0  0  0  0  0  0  0
  151.8691  140.2161  155.5604 H   0  0  0  0  0  0  0  0  0  0  0  0
  149.5140  143.1043  155.5814 H   0  0  0  0  0  0  0  0  0  0  0  0
  149.9037  144.3637  157.0966 H   0  0  0  0  0  0  0  0  0  0  0  0
  150.3899  144.7407  159.5053 H   0  0  0  0  0  0  0  0  0  0  0  0
  152.9404  144.9324  157.7576 H   0  0  0  0  0  0  0  0  0  0  0  0
  152.6196  145.7844  159.3543 H   0  0  0  0  0  0  0  0  0  0  0  0
  152.6772  142.7193  158.8520 H   0  0  0  0  0  0  0  0  0  0  0  0
  152.0458  144.3336  161.4062 H   0  0  0  0  0  0  0  0  0  0  0  0
  153.5135  143.3739  161.1574 H   0  0  0  0  0  0  0  0  0  0  0  0
  151.9374  142.5726  161.2645 H   0  0  0  0  0  0  0  0  0  0  0  0
  1  2  1  0  0  0  0
  1 17  1  0  0  0  0
  1 18  1  0  0  0  0
  1 19  1  0  0  0  0
  2 15  1  0  0  0  0
  2  3  2  0  0  0  0
  3  4  1  0  0  0  0
  4  5  2  0  0  0  0
  4 20  1  0  0  0  0
  5  6  1  0  0  0  0
  5 21  1  0  0  0  0
  6  7  1  0  0  0  0
  6 15  2  0  0  0  0
  7  8  1  0  0  0  0
  7 22  1  0  0  0  0
  8  9  2  0  0  0  0
  8 10  1  0  0  0  0
 10 11  1  0  0  0  0
 10 23  1  0  0  0  0
 11 13  1  0  0  0  0
 11 12  1  0  0  0  0
 11 24  1  0  0  0  0
 12 13  1  0  0  0  0
 12 25  1  0  0  0  0
 12 26  1  0  0  0  0
 13 14  1  0  0  0  0
 13 27  1  0  0  0  0
 14 28  1  0  0  0  0
 14 29  1  0  0  0  0
 14 30  1  0  0  0  0
 15 16  1  0  0  0  0
M  END
> <s_m_source_file>
AV-unprocessed.smi

> <i_m_source_file_index>
3189

> <i_lp_mmshare_version>
43012

> <i_f3d_flags>
0

> <s_epik_input>
W0NIM11jMW5bY0hdW2NIXWMoYzFDbClbTkhdQyg9TylbTkhdW0NAQEhdMltDSDJdW0NASF0yW0NIM10=

> <s_epik_cmdline>
J2VwaWtfcHl0aG9uJywgJy1waCcsICc3LjAnLCAnLXRuJywgJzgnLCAnLW1hJywgJzIwMCcsICctbWV0YWxfYmluZGluZycsICctaW1hZScsICc8aW5maWxlLm1hZT4nLCAnLW9tYWUnLCAnPG91dGZpbGUubWFlPic=

> <r_epik_Ionization_Penalty>
0.00994309

> <r_epik_Ionization_Penalty_Charging>
0

> <r_epik_Ionization_Penalty_Neutral>
0.00994309

> <r_epik_State_Penalty>
0.00754503

> <r_epik_Charging_Adjusted_Penalty>
0.00754503

> <i_epik_Tot_Q>
0

> <i_epik_Tot_abs_Q>
0

> <r_epik_Metal_State_Penalty>
0.00742071

> <b_epik_Metal_Only>
0

> <s_lp_Force_Field>
OPLS_2005

> <r_lp_Energy>
33.6012

> <b_lp_Chiralities_Consistent>
1

> <s_lp_Variant>
AV-unprocessed.smi:3189-1

> <Gold.Version>
5.8.1

> <Gold.Id.Protein>
6NUR|6NUR_protein|mol2

> <Gold.PLP.Fitness>
42.5580

> <Gold.PLP.PLP>
-37.6246

> <Gold.PLP.part.hbond>
-2.0000

> <Gold.PLP.part.metal>
0.0000

> <Gold.PLP.part.buried>
-0.7038

> <Gold.PLP.part.nonpolar>
-35.1761

> <Gold.PLP.part.repulsive>
1.4371

> <Gold.PLP.ligand.clash>
0.0000

> <Gold.PLP.ligand.torsion>
0.5516

> <Gold.PLP.Chemscore.Hbond>
2.0000

> <Gold.PLP.Chemscore.CHOScore>
0.0000

> <Gold.PLP.Chemscore.Metal>
0.0000

> <Gold.Chemscore.Hbonds>
donor molecule, donor type, donor heavy atom, donor atom, acceptor molecule, acceptor atom, score
      L1  H     7    22       P1  8028  1.00
      L1  H    10    23       P1  8028  1.00

> <Gold.PLP.Chemscore.Internal.Correction>
0.0366

> <Gold.Rescore>
     Score         DG    S(hbond)    S(metal)    S(lipo)     H(rot)  DE(clash)    DE(int)     intcor
     17.98     -20.83       1.88        0.00      99.47       1.00       0.03       2.82       ----

> <Gold.Chemscore.Fitness>
17.9836

> <Gold.Chemscore.DG>
-20.8317

> <Gold.Chemscore.ZeroCoef>
-5.4800

> <Gold.Chemscore.Hbond>
1.8782

> <Gold.Chemscore.Metal>
0.0000

> <Gold.Chemscore.Lipo>
99.4734

> <Gold.Chemscore.Internal_Hbond>
0.0000

> <Gold.Chemscore.DEClash>
0.0270

> <Gold.Chemscore.DEInternal>
2.8211

> <Gold.Chemscore.Rot>
1.0000

> <Gold.Chemscore.Internal.Correction>
   9.000000E+99

> <Gold.Chemscore.Hbonds>
donor molecule, donor type, donor heavy atom, donor atom, acceptor molecule, acceptor atom, score
      L1  H     7    22       P1  8028  0.98
      L1  H    10    23       P1  8028  0.53

> <Gold.Chemscore.Hbond.Weighted>
-6.2733

> <Gold.Chemscore.Metal.Weighted>
-0.0000

> <Gold.Chemscore.Lipo.Weighted>
-11.6384

> <Gold.Chemscore.Internal_Hbond.Weighted>
0.0000

> <Gold.Chemscore.DEClash.Weighted>
0.0270

> <Gold.Chemscore.DEInternal.Weighted>
2.8211

> <Gold.Chemscore.Rot.Weighted>
2.5600

> <Gold.Chemscore.Internal.Correction.Weighted>
   9.000000E+99

> <Gold.Protein.RotatedTorsions>
[ 6907 6896 6895 6894 ] final  -47.86 input  -60.11 | X-H torsion
[ 7974 7965 7964 7962 ] final -154.06 input  175.53 | X-H torsion
[ 8008 7997 7996 7995 ] final  163.64 input   59.86 | X-H torsion
[ 10167 10162 10161 10158 ] final  113.93 input  -65.29 | X-H torsion
[ 10718 10713 10712 10709 ] final   63.42 input   66.30 | X-H torsion
[ 10763 10752 10751 10750 ] final -176.11 input  -60.55 | X-H torsion
[ 11005 11000 10999 10996 ] final -150.48 input  -57.11 | X-H torsion

> <Gold.Protein.ActiveResidues>
 VAL166  LYS551  ARG553  GLY616  TRP617  ASP618  TYR619  PRO620  LYS621  CYS622 
 ASP623  PHE694  ASN695  SER759  ASP760  ASP761  ALA762  ILE779  LEU786  VAL792 
 PHE793  MET794  SER795  GLU796  ALA797  LYS798  CYS799  TRP800  GLU811  SER814 

> <Gold.Protein.RotatedAtoms>
  150.8964  134.8373  159.7329 H   0  0  0  0  0  0  0  0  0  0  0  0  # atno 6907 bound_to 6896
  152.4867  134.4569  159.9602 H   0  0  0  0  0  0  0  0  0  0  0  0  # atno 6908 bound_to 6896
  151.4626  133.3550  159.2846 H   0  0  0  0  0  0  0  0  0  0  0  0  # atno 6909 bound_to 6896
  144.7708  140.4440  143.5908 H   0  0  0  0  0  0  0  0  0  0  0  0  # atno 7974 bound_to 7965
  156.1942  140.1718  156.8032 H   0  0  0  0  0  0  0  0  0  0  0  0  # atno 8008 bound_to 7997
  154.5508  140.0718  156.8697 H   0  0  0  0  0  0  0  0  0  0  0  0  # atno 8009 bound_to 7997
  155.3032  140.3363  155.4249 H   0  0  0  0  0  0  0  0  0  0  0  0  # atno 8010 bound_to 7997
  139.6425  144.7124  151.2208 H   0  0  0  0  0  0  0  0  0  0  0  0  # atno 10167 bound_to 10162
  157.5970  130.9104  149.9714 H   0  0  0  0  0  0  0  0  0  0  0  0  # atno 10718 bound_to 10713
  154.5763  135.2832  155.0778 H   0  0  0  0  0  0  0  0  0  0  0  0  # atno 10763 bound_to 10752
  154.2131  135.6404  153.5125 H   0  0  0  0  0  0  0  0  0  0  0  0  # atno 10764 bound_to 10752
  153.0073  135.5496  154.6402 H   0  0  0  0  0  0  0  0  0  0  0  0  # atno 10765 bound_to 10752
  140.7397  134.3528  157.5150 H   0  0  0  0  0  0  0  0  0  0  0  0  # atno 11005 bound_to 11000
  145.6328  139.1539  143.2959 LP  0  0  0  0  0  0  0  0  0  0  0  0  # atno 17320 bound_to 7965
  146.1854  140.6431  142.9170 LP  0  0  0  0  0  0  0  0  0  0  0  0  # atno 17321 bound_to 7965
  140.7498  143.6287  150.8443 LP  0  0  0  0  0  0  0  0  0  0  0  0  # atno 17342 bound_to 10162
  139.9926  143.5830  152.2904 LP  0  0  0  0  0  0  0  0  0  0  0  0  # atno 17343 bound_to 10162
  156.1034  130.3654  150.0176 LP  0  0  0  0  0  0  0  0  0  0  0  0  # atno 17370 bound_to 10713
  156.8287  130.9385  151.3638 LP  0  0  0  0  0  0  0  0  0  0  0  0  # atno 17371 bound_to 10713
  139.8808  134.9073  156.2941 LP  0  0  0  0  0  0  0  0  0  0  0  0  # atno 17394 bound_to 11000
  140.9847  133.7245  156.0724 LP  0  0  0  0  0  0  0  0  0  0  0  0  # atno 17395 bound_to 11000

$$$$
