AV-unprocessed.smi:160|AV-procd|sdf|1361|dock6
  -GOLD-   2262019 73D 1   1.00000     0.00000
 Structure written by MMmdl.
 28 29  0  0  0  0  0  0  0  0  2 V2000
  149.9833  136.0702  158.3499 N   0  5  0  0  0  0  0  0  0  0  0  0
  150.3599  135.5220  157.1740 C   0  0  0  0  0  0  0  0  0  0  0  0
  150.5036  134.3216  156.9435 O   0  0  0  0  0  0  0  0  0  0  0  0
  150.6126  136.5209  156.0697 C   0  0  0  0  0  0  0  0  0  0  0  0
  151.3498  136.1745  154.9710 N   0  0  0  0  0  0  0  0  0  0  0  0
  151.2965  137.3229  154.3095 C   0  0  0  0  0  0  0  0  0  0  0  0
  150.5882  138.2772  154.9200 N   0  0  0  0  0  0  0  0  0  0  0  0
  150.3381  139.6938  154.4983 C   0  0  2  0  0  0  0  0  0  0  0  0
  150.9413  140.5299  155.4397 O   0  0  0  0  0  0  0  0  0  0  0  0
  149.9664  140.9929  156.3685 C   0  0  1  0  0  0  0  0  0  0  0  0
  150.4621  142.2400  157.1225 C   0  0  0  0  0  0  0  0  0  0  0  0
  150.7868  143.2651  156.2080 O   0  0  0  0  0  0  0  0  0  0  0  0
  148.7415  141.2039  155.4677 C   0  0  1  0  0  0  0  0  0  0  0  0
  148.8127  142.4634  154.8173 O   0  0  0  0  0  0  0  0  0  0  0  0
  148.8328  140.0314  154.4879 C   0  0  1  0  0  0  0  0  0  0  0  0
  148.3437  140.3581  153.1995 O   0  0  0  0  0  0  0  0  0  0  0  0
  150.1425  137.7716  156.0975 N   0  0  0  0  0  0  0  0  0  0  0  0
  150.8270  139.7874  153.5277 H   0  0  0  0  0  0  0  0  0  0  0  0
  149.7366  140.1993  157.0813 H   0  0  0  0  0  0  0  0  0  0  0  0
  147.8135  141.1735  156.0397 H   0  0  0  0  0  0  0  0  0  0  0  0
  148.2537  139.1894  154.8680 H   0  0  0  0  0  0  0  0  0  0  0  0
  149.7391  137.0676  158.3682 H   0  0  0  0  0  0  0  0  0  0  0  0
  151.7847  137.4710  153.3575 H   0  0  0  0  0  0  0  0  0  0  0  0
  149.7196  142.5953  157.8380 H   0  0  0  0  0  0  0  0  0  0  0  0
  151.3681  142.0043  157.6815 H   0  0  0  0  0  0  0  0  0  0  0  0
  149.9978  143.7395  155.9956 H   0  0  0  0  0  0  0  0  0  0  0  0
  148.8798  143.1338  155.4801 H   0  0  0  0  0  0  0  0  0  0  0  0
  149.0640  140.3216  152.5889 H   0  0  0  0  0  0  0  0  0  0  0  0
  1  2  1  0  0  0  0
  1 22  1  0  0  0  0
  2  3  2  0  0  0  0
  2  4  1  0  0  0  0
  4 17  2  0  0  0  0
  4  5  1  0  0  0  0
  5  6  2  0  0  0  0
  6  7  1  0  0  0  0
  6 23  1  0  0  0  0
  7  8  1  0  0  0  0
  7 17  1  0  0  0  0
  8 18  1  0  0  0  0
  8 15  1  0  0  0  0
  8  9  1  0  0  0  0
  9 10  1  0  0  0  0
 10 19  1  0  0  0  0
 10 11  1  0  0  0  0
 10 13  1  0  0  0  0
 11 12  1  0  0  0  0
 11 24  1  0  0  0  0
 11 25  1  0  0  0  0
 12 26  1  0  0  0  0
 13 20  1  0  0  0  0
 13 14  1  0  0  0  0
 13 15  1  0  0  0  0
 14 27  1  0  0  0  0
 15 21  1  0  0  0  0
 15 16  1  0  0  0  0
 16 28  1  0  0  0  0
M  CHG  1   1  -1
M  END
> <s_m_source_file>
AV-unprocessed.smi

> <i_m_source_file_index>
160

> <i_lp_mmshare_version>
43012

> <i_f3d_flags>
0

> <s_epik_input>
W05IMl1DKD1PKWMxbltjSF1uKG4xKVtDQEBIXTJPW0NASF0oW0NIMl1bT0hdKVtDQEBIXShbT0hdKVtDQEhdMltPSF0=

> <s_epik_cmdline>
J2VwaWtfcHl0aG9uJywgJy1waCcsICc3LjAnLCAnLXRuJywgJzgnLCAnLW1hJywgJzIwMCcsICctbWV0YWxfYmluZGluZycsICctaW1hZScsICc8aW5maWxlLm1hZT4nLCAnLW9tYWUnLCAnPG91dGZpbGUubWFlPic=

> <r_lp_tautomer_probability>
1

> <r_epik_Ionization_Penalty>
6.6993

> <r_epik_Ionization_Penalty_Charging>
6.6993

> <r_epik_Ionization_Penalty_Neutral>
6.01698e-06

> <r_epik_State_Penalty>
6.69929

> <r_epik_Charging_Adjusted_Penalty>
13.3986

> <i_epik_Tot_Q>
-1

> <i_epik_Tot_abs_Q>
1

> <r_epik_Metal_State_Penalty>
2.62798

> <b_epik_Metal_Only>
1

> <s_epik_Chemistry_Notes>
This compound contains an acetal/aminal-like group ( X-CH(R)-Y where X, Y are N, S, or O) that may be acid/base labile, releasing an aldehyde.

> <s_lp_Force_Field>
OPLS_2005

> <r_lp_Energy>
44.8838

> <b_lp_Chiralities_Consistent>
1

> <s_lp_Variant>
AV-unprocessed.smi:160-19

> <Gold.Version>
5.8.1

> <Gold.Id.Protein>
6NUR|6NUR_protein|mol2

> <Gold.PLP.Fitness>
43.1900

> <Gold.PLP.PLP>
-23.5118

> <Gold.PLP.part.hbond>
-6.7057

> <Gold.PLP.part.metal>
0.0000

> <Gold.PLP.part.buried>
-2.0118

> <Gold.PLP.part.nonpolar>
-16.6625

> <Gold.PLP.part.repulsive>
0.1939

> <Gold.PLP.ligand.clash>
0.0000

> <Gold.PLP.ligand.torsion>
0.2050

> <Gold.PLP.Chemscore.Hbond>
5.8640

> <Gold.PLP.Chemscore.CHOScore>
0.8241

> <Gold.PLP.Chemscore.Metal>
0.0000

> <Gold.Chemscore.Hbonds>
donor molecule, donor type, donor heavy atom, donor atom, acceptor molecule, acceptor atom, score
      L1  H    12    26       P1  8028  0.96
      L1  H    14    27       P1  8028  0.82
      L1  H    16    28       P1  7957  0.99
      P1  H  6896  6909       L1     1  2.00
      P1  H 10752 10765       L1     5  1.00
      L1  C     6    23       P1  7949  0.77

> <Gold.PLP.Chemscore.Internal.Correction>
0.0238

> <Gold.Rescore>
     Score         DG    S(hbond)    S(metal)    S(lipo)     H(rot)  DE(clash)    DE(int)     intcor
     11.31     -12.21       4.32        0.00      22.47       4.04       0.36       0.54       ----

> <Gold.Chemscore.Fitness>
11.3145

> <Gold.Chemscore.DG>
-12.2080

> <Gold.Chemscore.ZeroCoef>
-5.4800

> <Gold.Chemscore.Hbond>
4.3239

> <Gold.Chemscore.Metal>
0.0000

> <Gold.Chemscore.Lipo>
22.4729

> <Gold.Chemscore.Internal_Hbond>
0.0000

> <Gold.Chemscore.DEClash>
0.3561

> <Gold.Chemscore.DEInternal>
0.5373

> <Gold.Chemscore.Rot>
4.0403

> <Gold.Chemscore.Internal.Correction>
   9.000000E+99

> <Gold.Chemscore.Hbonds>
donor molecule, donor type, donor heavy atom, donor atom, acceptor molecule, acceptor atom, score
      L1  H    12    26       P1  8028  0.90
      L1  H    14    27       P1  8028  0.80
      L1  H    16    28       P1  7957  0.90
      P1  H  6896  6909       L1     1  0.28
      P1  H 10752 10765       L1     5  0.45

> <Gold.Chemscore.Hbond.Weighted>
-14.4417

> <Gold.Chemscore.Metal.Weighted>
-0.0000

> <Gold.Chemscore.Lipo.Weighted>
-2.6293

> <Gold.Chemscore.Internal_Hbond.Weighted>
0.0000

> <Gold.Chemscore.DEClash.Weighted>
0.3561

> <Gold.Chemscore.DEInternal.Weighted>
0.5373

> <Gold.Chemscore.Rot.Weighted>
10.3431

> <Gold.Chemscore.Internal.Correction.Weighted>
   9.000000E+99

> <Gold.Protein.RotatedTorsions>
[ 6907 6896 6895 6894 ] final   64.74 input  -60.11 | X-H torsion
[ 7974 7965 7964 7962 ] final  139.19 input  175.53 | X-H torsion
[ 8008 7997 7996 7995 ] final  -79.06 input   59.86 | X-H torsion
[ 10167 10162 10161 10158 ] final  -78.51 input  -65.29 | X-H torsion
[ 10718 10713 10712 10709 ] final  -58.64 input   66.30 | X-H torsion
[ 10763 10752 10751 10750 ] final -176.71 input  -60.55 | X-H torsion
[ 11005 11000 10999 10996 ] final  -79.42 input  -57.11 | X-H torsion

> <Gold.Protein.ActiveResidues>
 VAL166  LYS551  ARG553  GLY616  TRP617  ASP618  TYR619  PRO620  LYS621  CYS622 
 ASP623  PHE694  ASN695  SER759  ASP760  ASP761  ALA762  ILE779  LEU786  VAL792 
 PHE793  MET794  SER795  GLU796  ALA797  LYS798  CYS799  TRP800  GLU811  SER814 

> <Gold.Protein.RotatedAtoms>
  152.4355  134.5695  159.9916 H   0  0  0  0  0  0  0  0  0  0  0  0  # atno 6907 bound_to 6896
  151.5806  133.3372  159.3015 H   0  0  0  0  0  0  0  0  0  0  0  0  # atno 6908 bound_to 6896
  150.8253  134.7515  159.6872 H   0  0  0  0  0  0  0  0  0  0  0  0  # atno 6909 bound_to 6896
  144.9302  139.5056  143.5621 H   0  0  0  0  0  0  0  0  0  0  0  0  # atno 7974 bound_to 7965
  154.5749  140.0684  156.9019 H   0  0  0  0  0  0  0  0  0  0  0  0  # atno 8008 bound_to 7997
  155.2567  140.3355  155.4259 H   0  0  0  0  0  0  0  0  0  0  0  0  # atno 8009 bound_to 7997
  156.2146  140.1773  156.7603 H   0  0  0  0  0  0  0  0  0  0  0  0  # atno 8010 bound_to 7997
  140.4676  143.2436  151.8255 H   0  0  0  0  0  0  0  0  0  0  0  0  # atno 10167 bound_to 10162
  156.1120  130.4174  150.0605 H   0  0  0  0  0  0  0  0  0  0  0  0  # atno 10718 bound_to 10713
  154.5690  135.2826  155.0846 H   0  0  0  0  0  0  0  0  0  0  0  0  # atno 10763 bound_to 10752
  154.2225  135.6388  153.5153 H   0  0  0  0  0  0  0  0  0  0  0  0  # atno 10764 bound_to 10752
  153.0052  135.5518  154.6308 H   0  0  0  0  0  0  0  0  0  0  0  0  # atno 10765 bound_to 10752
  141.1667  133.7105  156.8119 H   0  0  0  0  0  0  0  0  0  0  0  0  # atno 11005 bound_to 11000
  146.3244  139.8247  142.8920 LP  0  0  0  0  0  0  0  0  0  0  0  0  # atno 17320 bound_to 7965
  145.3154  141.0230  143.3531 LP  0  0  0  0  0  0  0  0  0  0  0  0  # atno 17321 bound_to 7965
  139.4814  144.4932  151.9158 LP  0  0  0  0  0  0  0  0  0  0  0  0  # atno 17342 bound_to 10162
  140.4017  144.2484  150.5893 LP  0  0  0  0  0  0  0  0  0  0  0  0  # atno 17343 bound_to 10162
  156.8566  130.9477  151.3621 LP  0  0  0  0  0  0  0  0  0  0  0  0  # atno 17370 bound_to 10713
  157.6302  130.8723  149.9260 LP  0  0  0  0  0  0  0  0  0  0  0  0  # atno 17371 bound_to 10713
  140.2181  134.8777  157.3347 LP  0  0  0  0  0  0  0  0  0  0  0  0  # atno 17394 bound_to 11000
  140.2016  134.4247  155.7659 LP  0  0  0  0  0  0  0  0  0  0  0  0  # atno 17395 bound_to 11000

$$$$
