AV-unprocessed.smi:2504|AV-procd|sdf|9851|dock6
  -GOLD-   2272013483D 1   1.00000     0.00000
 Structure written by MMmdl.
 45 47  0  0  0  0  0  0  0  0  2 V2000
  150.7638  143.7794  157.5042 O   0  0  0  0  0  0  0  0  0  0  0  0
  151.6809  143.2577  158.1402 C   0  0  0  0  0  0  0  0  0  0  0  0
  153.0441  143.9679  158.3071 C   0  0  0  0  0  0  0  0  0  0  0  0
  153.3899  144.3147  159.7655 C   0  0  0  0  0  0  0  0  0  0  0  0
  152.7284  145.6714  160.0426 C   0  0  0  0  0  0  0  0  0  0  0  0
  152.5046  146.3274  158.6714 C   0  0  0  0  0  0  0  0  0  0  0  0
  153.0601  145.3470  157.6299 C   0  0  0  0  0  0  0  0  0  0  0  0
  151.5022  142.0385  158.8012 N   0  0  0  0  0  0  0  0  0  0  0  0
  150.7420  140.9462  158.2110 C   0  0  0  0  0  0  0  0  0  0  0  0
  151.6480  140.0216  159.0316 C   0  0  0  0  0  0  0  0  0  0  0  0
  152.2649  138.5747  158.0598 S   0  0  0  0  0  0  0  0  0  0  0  0
  153.5961  138.9584  157.5632 O   0  0  0  0  0  0  0  0  0  0  0  0
  152.2065  137.4100  158.9592 O   0  0  0  0  0  0  0  0  0  0  0  0
  151.1603  138.5293  156.8720 N   0  5  0  0  0  0  0  0  0  0  0  0
  151.3680  139.3096  155.6620 C   0  0  0  0  0  0  0  0  0  0  0  0
  150.2796  138.9862  154.6119 C   0  0  0  0  0  0  0  0  0  0  0  0
  149.1863  140.0395  154.4646 C   0  0  0  0  0  0  0  0  0  0  0  0
  147.8229  139.7100  154.6287 C   0  0  0  0  0  0  0  0  0  0  0  0
  146.8562  140.7245  154.4914 C   0  0  0  0  0  0  0  0  0  0  0  0
  147.2928  142.0298  154.1898 C   0  0  0  0  0  0  0  0  0  0  0  0
  148.5909  142.3574  154.0173 N   0  0  0  0  0  0  0  0  0  0  0  0
  149.5114  141.3791  154.1538 C   0  0  0  0  0  0  0  0  0  0  0  0
  152.6360  141.1927  159.1430 C   0  0  0  0  0  0  0  0  0  0  0  0
  153.8214  143.3246  157.8943 H   0  0  0  0  0  0  0  0  0  0  0  0
  153.0886  143.5514  160.4844 H   0  0  0  0  0  0  0  0  0  0  0  0
  154.4722  144.4167  159.8566 H   0  0  0  0  0  0  0  0  0  0  0  0
  151.7704  145.5285  160.5445 H   0  0  0  0  0  0  0  0  0  0  0  0
  153.3481  146.2885  160.6939 H   0  0  0  0  0  0  0  0  0  0  0  0
  151.4370  146.4811  158.5082 H   0  0  0  0  0  0  0  0  0  0  0  0
  152.9889  147.3017  158.5996 H   0  0  0  0  0  0  0  0  0  0  0  0
  154.0897  145.6145  157.3891 H   0  0  0  0  0  0  0  0  0  0  0  0
  152.4973  145.3847  156.6962 H   0  0  0  0  0  0  0  0  0  0  0  0
  149.6912  140.9244  158.5005 H   0  0  0  0  0  0  0  0  0  0  0  0
  150.8857  140.8452  157.1334 H   0  0  0  0  0  0  0  0  0  0  0  0
  151.2032  139.7147  159.9794 H   0  0  0  0  0  0  0  0  0  0  0  0
  151.3269  140.3773  155.8798 H   0  0  0  0  0  0  0  0  0  0  0  0
  152.3519  139.1426  155.2219 H   0  0  0  0  0  0  0  0  0  0  0  0
  150.7456  138.8235  153.6389 H   0  0  0  0  0  0  0  0  0  0  0  0
  149.8045  138.0397  154.8727 H   0  0  0  0  0  0  0  0  0  0  0  0
  147.5237  138.6993  154.8650 H   0  0  0  0  0  0  0  0  0  0  0  0
  145.8059  140.5086  154.6187 H   0  0  0  0  0  0  0  0  0  0  0  0
  146.5785  142.8323  154.0793 H   0  0  0  0  0  0  0  0  0  0  0  0
  150.5413  141.6765  154.0201 H   0  0  0  0  0  0  0  0  0  0  0  0
  153.4227  141.2021  158.3871 H   0  0  0  0  0  0  0  0  0  0  0  0
  153.0249  141.3599  160.1476 H   0  0  0  0  0  0  0  0  0  0  0  0
  1  2  2  0  0  0  0
  2  3  1  0  0  0  0
  2  8  1  0  0  0  0
  3  7  1  0  0  0  0
  3  4  1  0  0  0  0
  3 24  1  0  0  0  0
  4  5  1  0  0  0  0
  4 25  1  0  0  0  0
  4 26  1  0  0  0  0
  5  6  1  0  0  0  0
  5 27  1  0  0  0  0
  5 28  1  0  0  0  0
  6  7  1  0  0  0  0
  6 29  1  0  0  0  0
  6 30  1  0  0  0  0
  7 31  1  0  0  0  0
  7 32  1  0  0  0  0
  8 23  1  0  0  0  0
  8  9  1  0  0  0  0
  9 10  1  0  0  0  0
  9 33  1  0  0  0  0
  9 34  1  0  0  0  0
 10 11  1  0  0  0  0
 10 23  1  0  0  0  0
 10 35  1  0  0  0  0
 11 12  2  0  0  0  0
 11 13  2  0  0  0  0
 11 14  1  0  0  0  0
 14 15  1  0  0  0  0
 15 16  1  0  0  0  0
 15 36  1  0  0  0  0
 15 37  1  0  0  0  0
 16 17  1  0  0  0  0
 16 38  1  0  0  0  0
 16 39  1  0  0  0  0
 17 22  1  0  0  0  0
 17 18  2  0  0  0  0
 18 19  1  0  0  0  0
 18 40  1  0  0  0  0
 19 20  2  0  0  0  0
 19 41  1  0  0  0  0
 20 21  1  0  0  0  0
 20 42  1  0  0  0  0
 21 22  2  0  0  0  0
 22 43  1  0  0  0  0
 23 44  1  0  0  0  0
 23 45  1  0  0  0  0
M  CHG  1  14  -1
M  END
> <s_m_source_file>
AV-unprocessed.smi

> <i_m_source_file_index>
2504

> <i_lp_mmshare_version>
43012

> <i_f3d_flags>
0

> <s_epik_input>
W0NIMl0xW0NIMl1bQ0gyXVtDSDJdW0NIXTFDKD1PKU4yW0NIMl1bQ0hdKFtDSDJdMilTKD1PKSg9TylbTkhdW0NIMl1bQ0gyXWMzW2NIXVtjSF1bY0hdbltjSF0z

> <s_epik_cmdline>
J2VwaWtfcHl0aG9uJywgJy1waCcsICc3LjAnLCAnLXRuJywgJzgnLCAnLW1hJywgJzIwMCcsICctbWV0YWxfYmluZGluZycsICctaW1hZScsICc8aW5maWxlLm1hZT4nLCAnLW9tYWUnLCAnPG91dGZpbGUubWFlPic=

> <r_epik_Ionization_Penalty>
5.82897

> <r_epik_Ionization_Penalty_Charging>
5.8024

> <r_epik_Ionization_Penalty_Neutral>
0.0265674

> <r_epik_State_Penalty>
5.81059

> <r_epik_Charging_Adjusted_Penalty>
11.613

> <i_epik_Tot_Q>
-1

> <i_epik_Tot_abs_Q>
1

> <r_epik_Metal_State_Penalty>
1.79017

> <b_epik_Metal_Only>
1

> <s_lp_Force_Field>
OPLS_2005

> <r_lp_Energy>
30.9789

> <b_lp_Chiralities_Consistent>
1

> <s_lp_Variant>
AV-unprocessed.smi:2504-3

> <Gold.Version>
5.8.1

> <Gold.Id.Protein>
6NUR|6NUR_protein|mol2

> <Gold.PLP.Fitness>
49.7117

> <Gold.PLP.PLP>
-46.4107

> <Gold.PLP.part.hbond>
-3.0000

> <Gold.PLP.part.metal>
0.0000

> <Gold.PLP.part.buried>
-3.8029

> <Gold.PLP.part.nonpolar>
-41.1670

> <Gold.PLP.part.repulsive>
0.6481

> <Gold.PLP.ligand.clash>
0.0000

> <Gold.PLP.ligand.torsion>
1.7200

> <Gold.PLP.Chemscore.Hbond>
1.3952

> <Gold.PLP.Chemscore.CHOScore>
0.0000

> <Gold.PLP.Chemscore.Metal>
0.0000

> <Gold.Chemscore.Hbonds>
donor molecule, donor type, donor heavy atom, donor atom, acceptor molecule, acceptor atom, score
      P1  H  7997  8008       L1    12  1.00

> <Gold.PLP.Chemscore.Internal.Correction>
2.5553

> <Gold.Rescore>
     Score         DG    S(hbond)    S(metal)    S(lipo)     H(rot)  DE(clash)    DE(int)     intcor
     18.70     -21.20       1.67        0.00     121.95       1.61       0.77       1.73       ----

> <Gold.Chemscore.Fitness>
18.6955

> <Gold.Chemscore.DG>
-21.2011

> <Gold.Chemscore.ZeroCoef>
-5.4800

> <Gold.Chemscore.Hbond>
1.6697

> <Gold.Chemscore.Metal>
0.0000

> <Gold.Chemscore.Lipo>
121.9525

> <Gold.Chemscore.Internal_Hbond>
0.0000

> <Gold.Chemscore.DEClash>
0.7718

> <Gold.Chemscore.DEInternal>
1.7338

> <Gold.Chemscore.Rot>
1.6110

> <Gold.Chemscore.Internal.Correction>
   9.000000E+99

> <Gold.Chemscore.Hbonds>
donor molecule, donor type, donor heavy atom, donor atom, acceptor molecule, acceptor atom, score
      P1  H  7997  8008       L1    12  0.96
      P1  H  8022  8030       L1    21  0.03

> <Gold.Chemscore.Hbond.Weighted>
-5.5769

> <Gold.Chemscore.Metal.Weighted>
-0.0000

> <Gold.Chemscore.Lipo.Weighted>
-14.2684

> <Gold.Chemscore.Internal_Hbond.Weighted>
0.0000

> <Gold.Chemscore.DEClash.Weighted>
0.7718

> <Gold.Chemscore.DEInternal.Weighted>
1.7338

> <Gold.Chemscore.Rot.Weighted>
4.1243

> <Gold.Chemscore.Internal.Correction.Weighted>
   9.000000E+99

> <Gold.Protein.RotatedTorsions>
[ 6907 6896 6895 6894 ] final -120.90 input  -60.11 | X-H torsion
[ 7974 7965 7964 7962 ] final -128.18 input  175.53 | X-H torsion
[ 8008 7997 7996 7995 ] final  -68.23 input   59.86 | X-H torsion
[ 10167 10162 10161 10158 ] final   16.96 input  -65.29 | X-H torsion
[ 10718 10713 10712 10709 ] final   30.22 input   66.30 | X-H torsion
[ 10763 10752 10751 10750 ] final  -14.74 input  -60.55 | X-H torsion
[ 11005 11000 10999 10996 ] final -108.96 input  -57.11 | X-H torsion

> <Gold.Protein.ActiveResidues>
 VAL166  LYS551  ARG553  GLY616  TRP617  ASP618  TYR619  PRO620  LYS621  CYS622 
 ASP623  PHE694  ASN695  SER759  ASP760  ASP761  ALA762  ILE779  LEU786  VAL792 
 PHE793  MET794  SER795  GLU796  ALA797  LYS798  CYS799  TRP800  GLU811  SER814 

> <Gold.Protein.RotatedAtoms>
  150.8435  133.7899  159.3051 H   0  0  0  0  0  0  0  0  0  0  0  0  # atno 6907 bound_to 6896
  151.5593  135.1064  159.9978 H   0  0  0  0  0  0  0  0  0  0  0  0  # atno 6908 bound_to 6896
  152.4493  133.7556  159.6774 H   0  0  0  0  0  0  0  0  0  0  0  0  # atno 6909 bound_to 6896
  144.9696  140.7532  143.4678 H   0  0  0  0  0  0  0  0  0  0  0  0  # atno 7974 bound_to 7965
  154.4854  140.0877  156.7473 H   0  0  0  0  0  0  0  0  0  0  0  0  # atno 8008 bound_to 7997
  155.4365  140.3452  155.4267 H   0  0  0  0  0  0  0  0  0  0  0  0  # atno 8009 bound_to 7997
  156.1253  140.1485  156.9134 H   0  0  0  0  0  0  0  0  0  0  0  0  # atno 8010 bound_to 7997
  140.5760  143.9071  150.6750 H   0  0  0  0  0  0  0  0  0  0  0  0  # atno 10167 bound_to 10162
  157.2568  130.7142  149.6433 H   0  0  0  0  0  0  0  0  0  0  0  0  # atno 10718 bound_to 10713
  153.5328  135.7014  153.5675 H   0  0  0  0  0  0  0  0  0  0  0  0  # atno 10763 bound_to 10752
  153.3675  135.3953  155.1764 H   0  0  0  0  0  0  0  0  0  0  0  0  # atno 10764 bound_to 10752
  154.8683  135.3803  154.4826 H   0  0  0  0  0  0  0  0  0  0  0  0  # atno 10765 bound_to 10752
  141.0873  133.9116  157.2156 H   0  0  0  0  0  0  0  0  0  0  0  0  # atno 11005 bound_to 11000
  145.2578  139.2005  143.4908 LP  0  0  0  0  0  0  0  0  0  0  0  0  # atno 17320 bound_to 7965
  146.3378  140.2503  142.8598 LP  0  0  0  0  0  0  0  0  0  0  0  0  # atno 17321 bound_to 7965
  140.2559  143.3559  152.1365 LP  0  0  0  0  0  0  0  0  0  0  0  0  # atno 17342 bound_to 10162
  139.5143  144.6946  151.5667 LP  0  0  0  0  0  0  0  0  0  0  0  0  # atno 17343 bound_to 10162
  155.9665  130.4410  150.5323 LP  0  0  0  0  0  0  0  0  0  0  0  0  # atno 17370 bound_to 10713
  157.3219  131.0683  151.1926 LP  0  0  0  0  0  0  0  0  0  0  0  0  # atno 17371 bound_to 10713
  139.9693  135.0133  156.9471 LP  0  0  0  0  0  0  0  0  0  0  0  0  # atno 17394 bound_to 11000
  140.5333  134.0792  155.7321 LP  0  0  0  0  0  0  0  0  0  0  0  0  # atno 17395 bound_to 11000

$$$$
