AV-unprocessed.smi:760|AV-procd|sdf|3627|dock2
  -GOLD-   22720 1 23D 1   1.00000     0.00000
 Structure written by MMmdl.
 44 45  0  0  0  0  0  0  0  0  2 V2000
  151.2715  141.3171  156.2753 C   0  0  0  0  0  0  0  0  0  0  0  0
  150.3908  141.9693  157.0521 C   0  0  0  0  0  0  0  0  0  0  0  0
  150.8220  143.0736  158.0011 C   0  0  0  0  0  0  0  0  0  0  0  0
  148.9017  141.6621  157.0035 C   0  0  0  0  0  0  0  0  0  0  0  0
  148.5708  140.5330  156.0946 N   0  3  2  0  0  0  0  0  0  0  0  0
  148.6495  140.9434  154.6684 C   0  0  0  0  0  0  0  0  0  0  0  0
  148.4541  139.7454  153.7251 C   0  0  0  0  0  0  0  0  0  0  0  0
  147.1177  139.0402  153.9987 C   0  0  1  0  0  0  0  0  0  0  0  0
  146.9928  137.8643  153.1423 N   0  0  0  0  0  0  0  0  0  0  0  0
  145.8964  137.0996  153.0362 C   0  0  0  0  0  0  0  0  0  0  0  0
  144.8570  137.3112  153.6607 O   0  0  0  0  0  0  0  0  0  0  0  0
  146.0893  136.0876  152.1752 N   0  0  0  0  0  0  0  0  0  0  0  0
  145.1576  135.0848  151.8077 C   0  0  0  0  0  0  0  0  0  0  0  0
  143.9260  134.7262  152.4258 C   0  0  0  0  0  0  0  0  0  0  0  0
  143.3396  133.7326  151.7748 N   0  0  0  0  0  0  0  0  0  0  0  0
  144.1737  133.4439  150.7468 N   0  0  0  0  0  0  0  0  0  0  0  0
  143.8219  132.3863  149.8237 C   0  0  0  0  0  0  0  0  0  0  0  0
  145.2921  134.2533  150.7367 C   0  0  0  0  0  0  0  0  0  0  0  0
  147.0457  138.6464  155.4845 C   0  0  0  0  0  0  0  0  0  0  0  0
  147.2802  139.8591  156.4012 C   0  0  0  0  0  0  0  0  0  0  0  0
  152.3266  141.5479  156.3058 H   0  0  0  0  0  0  0  0  0  0  0  0
  150.9506  140.5413  155.5954 H   0  0  0  0  0  0  0  0  0  0  0  0
  150.3909  144.0240  157.6857 H   0  0  0  0  0  0  0  0  0  0  0  0
  151.9068  143.1851  158.0123 H   0  0  0  0  0  0  0  0  0  0  0  0
  150.4943  142.8786  159.0210 H   0  0  0  0  0  0  0  0  0  0  0  0
  148.5216  141.4685  158.0079 H   0  0  0  0  0  0  0  0  0  0  0  0
  148.3940  142.5610  156.6499 H   0  0  0  0  0  0  0  0  0  0  0  0
  147.8955  141.7062  154.4667 H   0  0  0  0  0  0  0  0  0  0  0  0
  149.6204  141.3985  154.4687 H   0  0  0  0  0  0  0  0  0  0  0  0
  148.4937  140.0834  152.6887 H   0  0  0  0  0  0  0  0  0  0  0  0
  149.2801  139.0441  153.8541 H   0  0  0  0  0  0  0  0  0  0  0  0
  146.3081  139.7372  153.7721 H   0  0  0  0  0  0  0  0  0  0  0  0
  147.7997  137.6142  152.5896 H   0  0  0  0  0  0  0  0  0  0  0  0
  146.9973  136.0253  151.7385 H   0  0  0  0  0  0  0  0  0  0  0  0
  143.4413  135.1363  153.2991 H   0  0  0  0  0  0  0  0  0  0  0  0
  144.6683  132.1597  149.1745 H   0  0  0  0  0  0  0  0  0  0  0  0
  142.9773  132.7004  149.2099 H   0  0  0  0  0  0  0  0  0  0  0  0
  143.5491  131.4862  150.3759 H   0  0  0  0  0  0  0  0  0  0  0  0
  146.0655  134.1681  149.9874 H   0  0  0  0  0  0  0  0  0  0  0  0
  146.0763  138.2008  155.7106 H   0  0  0  0  0  0  0  0  0  0  0  0
  147.7929  137.8814  155.7011 H   0  0  0  0  0  0  0  0  0  0  0  0
  147.2762  139.5048  157.4307 H   0  0  0  0  0  0  0  0  0  0  0  0
  146.4609  140.5730  156.3023 H   0  0  0  0  0  0  0  0  0  0  0  0
  149.2945  139.8414  156.2305 H   0  0  0  0  0  0  0  0  0  0  0  0
  1  2  2  0  0  0  0
  1 21  1  0  0  0  0
  1 22  1  0  0  0  0
  2  3  1  0  0  0  0
  2  4  1  0  0  0  0
  3 23  1  0  0  0  0
  3 24  1  0  0  0  0
  3 25  1  0  0  0  0
  4  5  1  0  0  0  0
  4 26  1  0  0  0  0
  4 27  1  0  0  0  0
  5 20  1  0  0  0  0
  5  6  1  0  0  0  0
  5 44  1  0  0  0  0
  6  7  1  0  0  0  0
  6 28  1  0  0  0  0
  6 29  1  0  0  0  0
  7  8  1  0  0  0  0
  7 30  1  0  0  0  0
  7 31  1  0  0  0  0
  8  9  1  0  0  0  0
  8 19  1  0  0  0  0
  8 32  1  0  0  0  0
  9 10  1  0  0  0  0
  9 33  1  0  0  0  0
 10 11  2  0  0  0  0
 10 12  1  0  0  0  0
 12 13  1  0  0  0  0
 12 34  1  0  0  0  0
 13 18  2  0  0  0  0
 13 14  1  0  0  0  0
 14 15  2  0  0  0  0
 14 35  1  0  0  0  0
 15 16  1  0  0  0  0
 16 17  1  0  0  0  0
 16 18  1  0  0  0  0
 17 36  1  0  0  0  0
 17 37  1  0  0  0  0
 17 38  1  0  0  0  0
 18 39  1  0  0  0  0
 19 20  1  0  0  0  0
 19 40  1  0  0  0  0
 19 41  1  0  0  0  0
 20 42  1  0  0  0  0
 20 43  1  0  0  0  0
M  CHG  1   5   1
M  END
> <s_m_source_file>
AV-unprocessed.smi

> <i_m_source_file_index>
760

> <i_lp_mmshare_version>
43012

> <i_f3d_flags>
0

> <s_epik_input>
W0NIMl09QyhbQ0gzXSlbQ0gyXU4xW0NIMl1bQ0gyXVtDSF0oW0NIMl1bQ0gyXTEpW05IXUMoPU8pW05IXWMyW2NIXW5uKFtDSDNdKVtjSF0y

> <s_epik_cmdline>
J2VwaWtfcHl0aG9uJywgJy1waCcsICc3LjAnLCAnLXRuJywgJzgnLCAnLW1hJywgJzIwMCcsICctbWV0YWxfYmluZGluZycsICctaW1hZScsICc8aW5maWxlLm1hZT4nLCAnLW9tYWUnLCAnPG91dGZpbGUubWFlPic=

> <r_lp_tautomer_probability>
1

> <r_epik_Ionization_Penalty>
0.0194996

> <r_epik_Ionization_Penalty_Charging>
0.0193505

> <r_epik_Ionization_Penalty_Neutral>
0.000149098

> <r_epik_State_Penalty>
0.0154499

> <r_epik_Charging_Adjusted_Penalty>
0.0348004

> <i_epik_Tot_Q>
1

> <i_epik_Tot_abs_Q>
1

> <r_epik_Metal_State_Penalty>
0.0154507

> <b_epik_Metal_Only>
0

> <s_lp_Force_Field>
OPLS_2005

> <r_lp_Energy>
20.4425

> <b_lp_Chiralities_Consistent>
1

> <s_lp_Variant>
AV-unprocessed.smi:760-1

> <Gold.Version>
5.8.1

> <Gold.Id.Protein>
6NUR|6NUR_protein|mol2

> <Gold.PLP.Fitness>
36.8585

> <Gold.PLP.PLP>
-28.3611

> <Gold.PLP.part.hbond>
-2.0000

> <Gold.PLP.part.metal>
0.0000

> <Gold.PLP.part.buried>
-3.1214

> <Gold.PLP.part.nonpolar>
-23.8824

> <Gold.PLP.part.repulsive>
0.4082

> <Gold.PLP.ligand.clash>
0.0000

> <Gold.PLP.ligand.torsion>
0.2692

> <Gold.PLP.Chemscore.Hbond>
2.0000

> <Gold.PLP.Chemscore.CHOScore>
0.9966

> <Gold.PLP.Chemscore.Metal>
0.0000

> <Gold.Chemscore.Hbonds>
donor molecule, donor type, donor heavy atom, donor atom, acceptor molecule, acceptor atom, score
      L1  H     9    33       P1  7948  0.99
      L1  H    12    34       P1  7948  1.00
      L1  C    18    39       P1  7921  1.00

> <Gold.PLP.Chemscore.Internal.Correction>
0.0460

> <Gold.Rescore>
     Score         DG    S(hbond)    S(metal)    S(lipo)     H(rot)  DE(clash)    DE(int)     intcor
     14.53     -16.90       1.95        0.00      72.03       1.38       1.16       1.21       ----

> <Gold.Chemscore.Fitness>
14.5268

> <Gold.Chemscore.DG>
-16.8967

> <Gold.Chemscore.ZeroCoef>
-5.4800

> <Gold.Chemscore.Hbond>
1.9490

> <Gold.Chemscore.Metal>
0.0000

> <Gold.Chemscore.Lipo>
72.0282

> <Gold.Chemscore.Internal_Hbond>
0.0000

> <Gold.Chemscore.DEClash>
1.1622

> <Gold.Chemscore.DEInternal>
1.2076

> <Gold.Chemscore.Rot>
1.3752

> <Gold.Chemscore.Internal.Correction>
   9.000000E+99

> <Gold.Chemscore.Hbonds>
donor molecule, donor type, donor heavy atom, donor atom, acceptor molecule, acceptor atom, score
      L1  H     9    33       P1  7948  0.94
      L1  H    12    34       P1  7948  0.95

> <Gold.Chemscore.Hbond.Weighted>
-6.5098

> <Gold.Chemscore.Metal.Weighted>
-0.0000

> <Gold.Chemscore.Lipo.Weighted>
-8.4273

> <Gold.Chemscore.Internal_Hbond.Weighted>
0.0000

> <Gold.Chemscore.DEClash.Weighted>
1.1622

> <Gold.Chemscore.DEInternal.Weighted>
1.2076

> <Gold.Chemscore.Rot.Weighted>
3.5204

> <Gold.Chemscore.Internal.Correction.Weighted>
   9.000000E+99

> <Gold.Protein.RotatedTorsions>
[ 6907 6896 6895 6894 ] final   82.54 input  -60.11 | X-H torsion
[ 7974 7965 7964 7962 ] final   92.64 input  175.53 | X-H torsion
[ 8008 7997 7996 7995 ] final  -99.67 input   59.86 | X-H torsion
[ 10167 10162 10161 10158 ] final  -11.27 input  -65.29 | X-H torsion
[ 10718 10713 10712 10709 ] final  -14.44 input   66.30 | X-H torsion
[ 10763 10752 10751 10750 ] final   96.40 input  -60.55 | X-H torsion
[ 11005 11000 10999 10996 ] final -117.01 input  -57.11 | X-H torsion

> <Gold.Protein.ActiveResidues>
 VAL166  LYS551  ARG553  GLY616  TRP617  ASP618  TYR619  PRO620  LYS621  CYS622 
 ASP623  PHE694  ASN695  SER759  ASP760  ASP761  ALA762  ILE779  LEU786  VAL792 
 PHE793  MET794  SER795  GLU796  ALA797  LYS798  CYS799  TRP800  GLU811  SER814 

> <Gold.Protein.RotatedAtoms>
  152.5302  134.3033  159.9086 H   0  0  0  0  0  0  0  0  0  0  0  0  # atno 6907 bound_to 6896
  151.2984  133.4127  159.2645 H   0  0  0  0  0  0  0  0  0  0  0  0  # atno 6908 bound_to 6896
  151.0141  134.9435  159.8080 H   0  0  0  0  0  0  0  0  0  0  0  0  # atno 6909 bound_to 6896
  145.4895  139.2277  143.2838 H   0  0  0  0  0  0  0  0  0  0  0  0  # atno 7974 bound_to 7965
  154.8181  140.0446  157.1391 H   0  0  0  0  0  0  0  0  0  0  0  0  # atno 8008 bound_to 7997
  154.9291  140.3037  155.5157 H   0  0  0  0  0  0  0  0  0  0  0  0  # atno 8009 bound_to 7997
  156.2978  140.2326  156.4349 H   0  0  0  0  0  0  0  0  0  0  0  0  # atno 8010 bound_to 7997
  140.7134  143.5658  150.9146 H   0  0  0  0  0  0  0  0  0  0  0  0  # atno 10167 bound_to 10162
  156.6159  130.4862  149.6183 H   0  0  0  0  0  0  0  0  0  0  0  0  # atno 10718 bound_to 10713
  153.2645  135.4220  155.0927 H   0  0  0  0  0  0  0  0  0  0  0  0  # atno 10763 bound_to 10752
  154.8433  135.3457  154.6331 H   0  0  0  0  0  0  0  0  0  0  0  0  # atno 10764 bound_to 10752
  153.6751  135.7041  153.5192 H   0  0  0  0  0  0  0  0  0  0  0  0  # atno 10765 bound_to 10752
  141.0383  133.9875  157.3035 H   0  0  0  0  0  0  0  0  0  0  0  0  # atno 11005 bound_to 11000
  146.2292  140.5688  142.8982 LP  0  0  0  0  0  0  0  0  0  0  0  0  # atno 17320 bound_to 7965
  144.7842  140.5902  143.6585 LP  0  0  0  0  0  0  0  0  0  0  0  0  # atno 17321 bound_to 7965
  139.9384  143.6411  152.3060 LP  0  0  0  0  0  0  0  0  0  0  0  0  # atno 17342 bound_to 10162
  139.6887  144.7649  151.1478 LP  0  0  0  0  0  0  0  0  0  0  0  0  # atno 17343 bound_to 10162
  156.2351  130.6818  151.1502 LP  0  0  0  0  0  0  0  0  0  0  0  0  # atno 17370 bound_to 10713
  157.7241  131.0662  150.6008 LP  0  0  0  0  0  0  0  0  0  0  0  0  # atno 17371 bound_to 10713
  139.9257  135.0201  156.8225 LP  0  0  0  0  0  0  0  0  0  0  0  0  # atno 17394 bound_to 11000
  140.6281  133.9931  155.7649 LP  0  0  0  0  0  0  0  0  0  0  0  0  # atno 17395 bound_to 11000

$$$$
