AV-unprocessed.smi:753|AV-procd|sdf|3601|dock3
  -GOLD-   22720 0593D 1   1.00000     0.00000
 Structure written by MMmdl.
 43 45  0  0  0  0  0  0  0  0  1 V2000
  143.8861  132.4945  150.4916 C   0  0  0  0  0  0  0  0  0  0  0  0
  145.1688  132.4321  151.2940 C   0  0  0  0  0  0  0  0  0  0  0  0
  145.5653  131.2364  151.9291 C   0  0  0  0  0  0  0  0  0  0  0  0
  146.7659  131.2343  152.6645 C   0  0  0  0  0  0  0  0  0  0  0  0
  147.5212  132.4230  152.7370 C   0  0  0  0  0  0  0  0  0  0  0  0
  148.8101  132.4840  153.5377 C   0  0  0  0  0  0  0  0  0  0  0  0
  148.7311  133.4129  154.7639 C   0  0  0  0  0  0  0  0  0  0  0  0
  148.9166  134.8171  154.4070 N   0  0  0  0  0  0  0  0  0  0  0  0
  149.1809  135.8156  155.2675 C   0  0  0  0  0  0  0  0  0  0  0  0
  149.2888  135.6574  156.4820 O   0  0  0  0  0  0  0  0  0  0  0  0
  149.3329  137.0221  154.6947 N   0  0  0  0  0  0  0  0  0  0  0  0
  149.6249  138.2987  155.3518 C   0  0  2  0  0  0  0  0  0  0  0  0
  150.1342  139.3439  154.3346 C   0  0  0  0  0  0  0  0  0  0  0  0
  151.5147  139.7333  154.8946 C   0  0  2  0  0  0  0  0  0  0  0  0
  152.5011  138.5660  154.6975 C   0  0  0  0  0  0  0  0  0  0  0  0
  152.0346  137.5439  155.7512 C   0  0  0  0  0  0  0  0  0  0  0  0
  150.7977  138.2344  156.3656 C   0  0  1  0  0  0  0  0  0  0  0  0
  151.2629  139.6864  156.3953 C   0  0  0  0  0  0  0  0  0  0  0  0
  147.0377  133.5632  152.0612 C   0  0  0  0  0  0  0  0  0  0  0  0
  145.8884  133.5744  151.3525 N   0  0  0  0  0  0  0  0  0  0  0  0
  143.2284  131.6604  150.7381 H   0  0  0  0  0  0  0  0  0  0  0  0
  144.1066  132.4537  149.4249 H   0  0  0  0  0  0  0  0  0  0  0  0
  143.3471  133.4202  150.6965 H   0  0  0  0  0  0  0  0  0  0  0  0
  144.9646  130.3416  151.8587 H   0  0  0  0  0  0  0  0  0  0  0  0
  147.0939  130.3381  153.1701 H   0  0  0  0  0  0  0  0  0  0  0  0
  149.0803  131.4768  153.8580 H   0  0  0  0  0  0  0  0  0  0  0  0
  149.6129  132.8168  152.8789 H   0  0  0  0  0  0  0  0  0  0  0  0
  147.7537  133.3107  155.2356 H   0  0  0  0  0  0  0  0  0  0  0  0
  149.4618  133.1068  155.5144 H   0  0  0  0  0  0  0  0  0  0  0  0
  148.8483  135.0482  153.4267 H   0  0  0  0  0  0  0  0  0  0  0  0
  149.2522  137.0553  153.6887 H   0  0  0  0  0  0  0  0  0  0  0  0
  148.7249  138.6834  155.8360 H   0  0  0  0  0  0  0  0  0  0  0  0
  150.2015  138.9610  153.3150 H   0  0  0  0  0  0  0  0  0  0  0  0
  149.4697  140.2089  154.3157 H   0  0  0  0  0  0  0  0  0  0  0  0
  151.8847  140.6871  154.5178 H   0  0  0  0  0  0  0  0  0  0  0  0
  152.4646  138.1636  153.6844 H   0  0  0  0  0  0  0  0  0  0  0  0
  153.5263  138.8806  154.8964 H   0  0  0  0  0  0  0  0  0  0  0  0
  151.8228  136.5642  155.3233 H   0  0  0  0  0  0  0  0  0  0  0  0
  152.8067  137.4042  156.5091 H   0  0  0  0  0  0  0  0  0  0  0  0
  150.5142  137.8300  157.3377 H   0  0  0  0  0  0  0  0  0  0  0  0
  152.1642  139.8419  156.9912 H   0  0  0  0  0  0  0  0  0  0  0  0
  150.4902  140.3822  156.7272 H   0  0  0  0  0  0  0  0  0  0  0  0
  147.5835  134.4946  152.0970 H   0  0  0  0  0  0  0  0  0  0  0  0
  1  2  1  0  0  0  0
  1 21  1  0  0  0  0
  1 22  1  0  0  0  0
  1 23  1  0  0  0  0
  2 20  1  0  0  0  0
  2  3  2  0  0  0  0
  3  4  1  0  0  0  0
  3 24  1  0  0  0  0
  4  5  2  0  0  0  0
  4 25  1  0  0  0  0
  5  6  1  0  0  0  0
  5 19  1  0  0  0  0
  6  7  1  0  0  0  0
  6 26  1  0  0  0  0
  6 27  1  0  0  0  0
  7  8  1  0  0  0  0
  7 28  1  0  0  0  0
  7 29  1  0  0  0  0
  8  9  1  0  0  0  0
  8 30  1  0  0  0  0
  9 10  2  0  0  0  0
  9 11  1  0  0  0  0
 11 12  1  0  0  0  0
 11 31  1  0  0  0  0
 12 17  1  0  0  0  0
 12 13  1  0  0  0  0
 12 32  1  0  0  0  0
 13 14  1  0  0  0  0
 13 33  1  0  0  0  0
 13 34  1  0  0  0  0
 14 18  1  0  0  0  0
 14 15  1  0  0  0  0
 14 35  1  0  0  0  0
 15 16  1  0  0  0  0
 15 36  1  0  0  0  0
 15 37  1  0  0  0  0
 16 17  1  0  0  0  0
 16 38  1  0  0  0  0
 16 39  1  0  0  0  0
 17 18  1  0  0  0  0
 17 40  1  0  0  0  0
 18 41  1  0  0  0  0
 18 42  1  0  0  0  0
 19 20  2  0  0  0  0
 19 43  1  0  0  0  0
M  END
> <s_m_source_file>
AV-unprocessed.smi

> <i_m_source_file_index>
753

> <i_lp_mmshare_version>
43012

> <i_f3d_flags>
0

> <s_epik_input>
W0NIM11jMVtjSF1bY0hdYyhbY0hdbjEpW0NIMl1bQ0gyXVtOSF1DKD1PKVtOSF1bQ0BIXShbQ0gyXVtDQEBIXTIzKVtDQEBIXShbQ0gyXTMpW0NIMl1bQ0gyXTI=

> <s_epik_cmdline>
J2VwaWtfcHl0aG9uJywgJy1waCcsICc3LjAnLCAnLXRuJywgJzgnLCAnLW1hJywgJzIwMCcsICctbWV0YWxfYmluZGluZycsICctaW1hZScsICc8aW5maWxlLm1hZT4nLCAnLW9tYWUnLCAnPG91dGZpbGUubWFlPic=

> <r_epik_Ionization_Penalty>
0.0569047

> <r_epik_Ionization_Penalty_Charging>
0

> <r_epik_Ionization_Penalty_Neutral>
0.0569047

> <r_epik_State_Penalty>
0.0490541

> <r_epik_Charging_Adjusted_Penalty>
0.0490541

> <i_epik_Tot_Q>
0

> <i_epik_Tot_abs_Q>
0

> <r_epik_Metal_State_Penalty>
0.0447357

> <b_epik_Metal_Only>
0

> <s_lp_Force_Field>
OPLS_2005

> <r_lp_Energy>
52.9013

> <b_lp_Chiralities_Consistent>
1

> <s_lp_Variant>
AV-unprocessed.smi:753-3

> <Gold.Version>
5.8.1

> <Gold.Id.Protein>
6NUR|6NUR_protein|mol2

> <Gold.PLP.Fitness>
42.4525

> <Gold.PLP.PLP>
-34.2488

> <Gold.PLP.part.hbond>
-2.0000

> <Gold.PLP.part.metal>
0.0000

> <Gold.PLP.part.buried>
-0.1018

> <Gold.PLP.part.nonpolar>
-31.5566

> <Gold.PLP.part.repulsive>
0.1699

> <Gold.PLP.ligand.clash>
0.0000

> <Gold.PLP.ligand.torsion>
0.4078

> <Gold.PLP.Chemscore.Hbond>
2.0000

> <Gold.PLP.Chemscore.CHOScore>
1.0000

> <Gold.PLP.Chemscore.Metal>
0.0000

> <Gold.Chemscore.Hbonds>
donor molecule, donor type, donor heavy atom, donor atom, acceptor molecule, acceptor atom, score
      L1  H     8    30       P1  7948  1.00
      L1  H    11    31       P1  7948  1.00
      L1  C    19    43       P1  7948  1.00

> <Gold.PLP.Chemscore.Internal.Correction>
0.0193

> <Gold.Rescore>
     Score         DG    S(hbond)    S(metal)    S(lipo)     H(rot)  DE(clash)    DE(int)     intcor
     15.31     -17.19       1.27        0.00      95.16       1.43       0.04       1.84       ----

> <Gold.Chemscore.Fitness>
15.3057

> <Gold.Chemscore.DG>
-17.1901

> <Gold.Chemscore.ZeroCoef>
-5.4800

> <Gold.Chemscore.Hbond>
1.2679

> <Gold.Chemscore.Metal>
0.0000

> <Gold.Chemscore.Lipo>
95.1609

> <Gold.Chemscore.Internal_Hbond>
0.0000

> <Gold.Chemscore.DEClash>
0.0437

> <Gold.Chemscore.DEInternal>
1.8408

> <Gold.Chemscore.Rot>
1.4291

> <Gold.Chemscore.Internal.Correction>
   9.000000E+99

> <Gold.Chemscore.Hbonds>
donor molecule, donor type, donor heavy atom, donor atom, acceptor molecule, acceptor atom, score
      L1  H     8    30       P1  7948  0.49
      L1  H    11    31       P1  7948  0.92

> <Gold.Chemscore.Hbond.Weighted>
-4.2348

> <Gold.Chemscore.Metal.Weighted>
-0.0000

> <Gold.Chemscore.Lipo.Weighted>
-11.1338

> <Gold.Chemscore.Internal_Hbond.Weighted>
0.0000

> <Gold.Chemscore.DEClash.Weighted>
0.0437

> <Gold.Chemscore.DEInternal.Weighted>
1.8408

> <Gold.Chemscore.Rot.Weighted>
3.6585

> <Gold.Chemscore.Internal.Correction.Weighted>
   9.000000E+99

> <Gold.Protein.RotatedTorsions>
[ 6907 6896 6895 6894 ] final   65.64 input  -60.11 | X-H torsion
[ 7974 7965 7964 7962 ] final  149.44 input  175.53 | X-H torsion
[ 8008 7997 7996 7995 ] final   65.63 input   59.86 | X-H torsion
[ 10167 10162 10161 10158 ] final -111.29 input  -65.29 | X-H torsion
[ 10718 10713 10712 10709 ] final  -95.08 input   66.30 | X-H torsion
[ 10763 10752 10751 10750 ] final  101.60 input  -60.55 | X-H torsion
[ 11005 11000 10999 10996 ] final -128.39 input  -57.11 | X-H torsion

> <Gold.Protein.ActiveResidues>
 VAL166  LYS551  ARG553  GLY616  TRP617  ASP618  TYR619  PRO620  LYS621  CYS622 
 ASP623  PHE694  ASN695  SER759  ASP760  ASP761  ALA762  ILE779  LEU786  VAL792 
 PHE793  MET794  SER795  GLU796  ALA797  LYS798  CYS799  TRP800  GLU811  SER814 

> <Gold.Protein.RotatedAtoms>
  152.4423  134.5566  159.9881 H   0  0  0  0  0  0  0  0  0  0  0  0  # atno 6907 bound_to 6896
  151.5661  133.3390  159.2988 H   0  0  0  0  0  0  0  0  0  0  0  0  # atno 6908 bound_to 6896
  150.8331  134.7626  159.6934 H   0  0  0  0  0  0  0  0  0  0  0  0  # atno 6909 bound_to 6896
  144.8438  139.6281  143.6004 H   0  0  0  0  0  0  0  0  0  0  0  0  # atno 7974 bound_to 7965
  155.6648  140.3497  155.4796 H   0  0  0  0  0  0  0  0  0  0  0  0  # atno 8008 bound_to 7997
  155.9738  140.1161  157.0811 H   0  0  0  0  0  0  0  0  0  0  0  0  # atno 8009 bound_to 7997
  154.4173  140.1152  156.5329 H   0  0  0  0  0  0  0  0  0  0  0  0  # atno 8010 bound_to 7997
  140.1352  143.4326  152.1600 H   0  0  0  0  0  0  0  0  0  0  0  0  # atno 10167 bound_to 10162
  156.0037  130.5094  150.6023 H   0  0  0  0  0  0  0  0  0  0  0  0  # atno 10718 bound_to 10713
  153.3287  135.4039  155.1478 H   0  0  0  0  0  0  0  0  0  0  0  0  # atno 10763 bound_to 10752
  154.8618  135.3605  154.5499 H   0  0  0  0  0  0  0  0  0  0  0  0  # atno 10764 bound_to 10752
  153.5936  135.7073  153.5472 H   0  0  0  0  0  0  0  0  0  0  0  0  # atno 10765 bound_to 10752
  140.9520  134.1052  157.4053 H   0  0  0  0  0  0  0  0  0  0  0  0  # atno 11005 bound_to 11000
  146.2726  139.6673  142.9285 LP  0  0  0  0  0  0  0  0  0  0  0  0  # atno 17320 bound_to 7965
  145.4639  141.0434  143.2736 LP  0  0  0  0  0  0  0  0  0  0  0  0  # atno 17321 bound_to 7965
  139.5499  144.7329  151.4467 LP  0  0  0  0  0  0  0  0  0  0  0  0  # atno 17342 bound_to 10162
  140.6793  143.8118  150.7100 LP  0  0  0  0  0  0  0  0  0  0  0  0  # atno 17343 bound_to 10162
  157.3870  131.0790  151.1427 LP  0  0  0  0  0  0  0  0  0  0  0  0  # atno 17370 bound_to 10713
  157.2131  130.6447  149.5782 LP  0  0  0  0  0  0  0  0  0  0  0  0  # atno 17371 bound_to 10713
  139.8850  135.0068  156.6409 LP  0  0  0  0  0  0  0  0  0  0  0  0  # atno 17394 bound_to 11000
  140.7589  133.8834  155.8403 LP  0  0  0  0  0  0  0  0  0  0  0  0  # atno 17395 bound_to 11000

$$$$
