AV-unprocessed.smi:255|AV-procd|sdf|1952|dock4
  -GOLD-   2262021 93D 1   1.00000     0.00000
 Structure written by MMmdl.
 44 47  0  0  0  0  0  0  0  0  1 V2000
  146.5504  137.2229  150.9865 O   0  0  0  0  0  0  0  0  0  0  0  0
  145.6536  136.8012  151.9909 C   0  0  0  0  0  0  0  0  0  0  0  0
  144.7380  135.6816  151.4487 C   0  0  1  0  0  0  0  0  0  0  0  0
  145.4118  134.7112  150.4768 C   0  0  0  0  0  0  0  0  0  0  0  0
  144.4257  133.5419  150.4391 C   0  0  1  0  0  0  0  0  0  0  0  0
  145.0651  132.3740  150.3740 F   0  0  0  0  0  0  0  0  0  0  0  0
  143.5942  133.6716  151.7278 C   0  0  0  0  0  0  0  0  0  0  0  0
  144.1099  134.8281  152.4599 N   0  0  0  0  0  0  0  0  0  0  0  0
  144.8536  134.5403  153.5584 C   0  0  0  0  0  0  0  0  0  0  0  0
  144.4160  134.8757  154.8019 N   0  0  0  0  0  0  0  0  0  0  0  0
  145.1392  134.5506  155.8771 C   0  0  0  0  0  0  0  0  0  0  0  0
  146.3037  133.9010  155.9344 N   0  0  0  0  0  0  0  0  0  0  0  0
  146.7502  133.5704  154.6884 C   0  0  0  0  0  0  0  0  0  0  0  0
  146.0896  133.8476  153.4592 C   0  0  0  0  0  0  0  0  0  0  0  0
  146.8277  133.3437  152.3967 N   0  0  0  0  0  0  0  0  0  0  0  0
  147.8638  132.7917  152.9668 C   0  0  0  0  0  0  0  0  0  0  0  0
  147.9096  132.8975  154.3397 N   0  0  0  0  0  0  0  0  0  0  0  0
  148.9362  132.3623  155.2235 C   0  0  0  0  0  0  0  0  0  0  0  0
  149.4380  133.3357  156.3218 C   0  0  1  0  0  0  0  0  0  0  0  0
  148.4232  133.3871  157.3082 O   0  0  0  0  0  0  0  0  0  0  0  0
  150.7396  132.9269  157.0115 C   0  0  0  0  0  0  0  0  0  0  0  0
  151.3481  134.2639  157.4117 C   0  0  0  0  0  0  0  0  0  0  0  0
  151.0531  135.0786  156.2912 O   0  0  0  0  0  0  0  0  0  0  0  0
  149.7298  134.7809  155.8598 C   0  0  0  0  0  0  0  0  0  0  0  0
  143.9125  136.1659  150.9242 H   0  0  0  0  0  0  0  0  0  0  0  0
  143.7782  133.6049  149.5641 H   0  0  0  0  0  0  0  0  0  0  0  0
  147.4179  136.9251  151.2146 H   0  0  0  0  0  0  0  0  0  0  0  0
  146.2265  136.4686  152.8574 H   0  0  0  0  0  0  0  0  0  0  0  0
  145.0611  137.6633  152.2988 H   0  0  0  0  0  0  0  0  0  0  0  0
  145.5862  135.1467  149.4927 H   0  0  0  0  0  0  0  0  0  0  0  0
  146.3738  134.3853  150.8750 H   0  0  0  0  0  0  0  0  0  0  0  0
  142.5480  133.8559  151.4826 H   0  0  0  0  0  0  0  0  0  0  0  0
  143.6208  132.7548  152.3188 H   0  0  0  0  0  0  0  0  0  0  0  0
  144.7234  134.8508  156.8275 H   0  0  0  0  0  0  0  0  0  0  0  0
  148.6287  132.2867  152.3949 H   0  0  0  0  0  0  0  0  0  0  0  0
  148.5404  131.4570  155.6862 H   0  0  0  0  0  0  0  0  0  0  0  0
  149.7741  132.0400  154.6038 H   0  0  0  0  0  0  0  0  0  0  0  0
  147.6037  133.1398  156.9078 H   0  0  0  0  0  0  0  0  0  0  0  0
  150.5971  132.2510  157.8558 H   0  0  0  0  0  0  0  0  0  0  0  0
  151.4224  132.4421  156.3168 H   0  0  0  0  0  0  0  0  0  0  0  0
  150.8647  134.6682  158.3024 H   0  0  0  0  0  0  0  0  0  0  0  0
  152.4210  134.2032  157.5953 H   0  0  0  0  0  0  0  0  0  0  0  0
  149.6710  134.9127  154.7820 H   0  0  0  0  0  0  0  0  0  0  0  0
  149.0383  135.4980  156.3050 H   0  0  0  0  0  0  0  0  0  0  0  0
  1  2  1  0  0  0  0
  1 27  1  0  0  0  0
  2  3  1  0  0  0  0
  2 28  1  0  0  0  0
  2 29  1  0  0  0  0
  3 25  1  0  0  0  0
  3  8  1  0  0  0  0
  3  4  1  0  0  0  0
  4  5  1  0  0  0  0
  4 30  1  0  0  0  0
  4 31  1  0  0  0  0
  5 26  1  0  0  0  0
  5  6  1  0  0  0  0
  5  7  1  0  0  0  0
  7  8  1  0  0  0  0
  7 32  1  0  0  0  0
  7 33  1  0  0  0  0
  8  9  1  0  0  0  0
  9 14  1  0  0  0  0
  9 10  2  0  0  0  0
 10 11  1  0  0  0  0
 11 12  2  0  0  0  0
 11 34  1  0  0  0  0
 12 13  1  0  0  0  0
 13 17  1  0  0  0  0
 13 14  2  0  0  0  0
 14 15  1  0  0  0  0
 15 16  2  0  0  0  0
 16 17  1  0  0  0  0
 16 35  1  0  0  0  0
 17 18  1  0  0  0  0
 18 19  1  0  0  0  0
 18 36  1  0  0  0  0
 18 37  1  0  0  0  0
 19 24  1  0  0  0  0
 19 20  1  0  0  0  0
 19 21  1  0  0  0  0
 20 38  1  0  0  0  0
 21 22  1  0  0  0  0
 21 39  1  0  0  0  0
 21 40  1  0  0  0  0
 22 23  1  0  0  0  0
 22 41  1  0  0  0  0
 22 42  1  0  0  0  0
 23 24  1  0  0  0  0
 24 43  1  0  0  0  0
 24 44  1  0  0  0  0
M  END
> <s_m_source_file>
AV-unprocessed.smi

> <i_m_source_file_index>
255

> <i_lp_mmshare_version>
43012

> <i_f3d_flags>
0

> <s_epik_input>
W09IXVtDSDJdW0NAQEhdMVtDSDJdW0NASF0oRilbQ0gyXU4xYyhuW2NIXW4yKWMoYzIzKW5bY0hdbjNbQ0gyXVtDQEBdNChbT0hdKVtDSDJdW0NIMl1PW0NIMl00

> <s_epik_cmdline>
J2VwaWtfcHl0aG9uJywgJy1waCcsICc3LjAnLCAnLXRuJywgJzgnLCAnLW1hJywgJzIwMCcsICctbWV0YWxfYmluZGluZycsICctaW1hZScsICc8aW5maWxlLm1hZT4nLCAnLW9tYWUnLCAnPG91dGZpbGUubWFlPic=

> <r_lp_tautomer_probability>
1

> <r_epik_Ionization_Penalty>
0.0058098

> <r_epik_Ionization_Penalty_Charging>
0

> <r_epik_Ionization_Penalty_Neutral>
0.0058098

> <r_epik_State_Penalty>
0.00411166

> <r_epik_Charging_Adjusted_Penalty>
0.00411166

> <i_epik_Tot_Q>
0

> <i_epik_Tot_abs_Q>
0

> <r_epik_Metal_State_Penalty>
-0

> <b_epik_Metal_Only>
0

> <s_lp_Force_Field>
OPLS_2005

> <r_lp_Energy>
52.3077

> <b_lp_Chiralities_Consistent>
1

> <s_lp_Variant>
AV-unprocessed.smi:255-4

> <Gold.Version>
5.8.1

> <Gold.Id.Protein>
6NUR|6NUR_protein|mol2

> <Gold.PLP.Fitness>
40.2422

> <Gold.PLP.PLP>
-32.3657

> <Gold.PLP.part.hbond>
-3.8805

> <Gold.PLP.part.metal>
0.0000

> <Gold.PLP.part.buried>
-1.0653

> <Gold.PLP.part.nonpolar>
-28.0129

> <Gold.PLP.part.repulsive>
0.4057

> <Gold.PLP.ligand.clash>
0.0096

> <Gold.PLP.ligand.torsion>
0.5779

> <Gold.PLP.Chemscore.Hbond>
2.0000

> <Gold.PLP.Chemscore.CHOScore>
1.0000

> <Gold.PLP.Chemscore.Metal>
0.0000

> <Gold.Chemscore.Hbonds>
donor molecule, donor type, donor heavy atom, donor atom, acceptor molecule, acceptor atom, score
      L1  H     1    27       P1  7948  1.00
      L1  C    16    35       P1 10747  0.92

> <Gold.PLP.Chemscore.Internal.Correction>
0.0418

> <Gold.Rescore>
     Score         DG    S(hbond)    S(metal)    S(lipo)     H(rot)  DE(clash)    DE(int)     intcor
      5.13      -9.24       1.64        0.00      58.13       3.33       0.56       3.56       ----

> <Gold.Chemscore.Fitness>
5.1317

> <Gold.Chemscore.DG>
-9.2450

> <Gold.Chemscore.ZeroCoef>
-5.4800

> <Gold.Chemscore.Hbond>
1.6412

> <Gold.Chemscore.Metal>
0.0000

> <Gold.Chemscore.Lipo>
58.1304

> <Gold.Chemscore.Internal_Hbond>
0.0000

> <Gold.Chemscore.DEClash>
0.5572

> <Gold.Chemscore.DEInternal>
3.5561

> <Gold.Chemscore.Rot>
3.3273

> <Gold.Chemscore.Internal.Correction>
   9.000000E+99

> <Gold.Chemscore.Hbonds>
donor molecule, donor type, donor heavy atom, donor atom, acceptor molecule, acceptor atom, score
      L1  H     1    27       P1  7948  1.00
      P1  H 10752 10764       L1    23  0.03

> <Gold.Chemscore.Hbond.Weighted>
-5.4817

> <Gold.Chemscore.Metal.Weighted>
-0.0000

> <Gold.Chemscore.Lipo.Weighted>
-6.8013

> <Gold.Chemscore.Internal_Hbond.Weighted>
0.0000

> <Gold.Chemscore.DEClash.Weighted>
0.5572

> <Gold.Chemscore.DEInternal.Weighted>
3.5561

> <Gold.Chemscore.Rot.Weighted>
8.5179

> <Gold.Chemscore.Internal.Correction.Weighted>
   9.000000E+99

> <Gold.Protein.RotatedTorsions>
[ 6907 6896 6895 6894 ] final  -57.67 input  -60.11 | X-H torsion
[ 7974 7965 7964 7962 ] final  -92.35 input  175.53 | X-H torsion
[ 8008 7997 7996 7995 ] final    1.47 input   59.86 | X-H torsion
[ 10167 10162 10161 10158 ] final  -94.44 input  -65.29 | X-H torsion
[ 10718 10713 10712 10709 ] final -106.34 input   66.30 | X-H torsion
[ 10763 10752 10751 10750 ] final  -44.87 input  -60.55 | X-H torsion
[ 11005 11000 10999 10996 ] final  154.25 input  -57.11 | X-H torsion

> <Gold.Protein.ActiveResidues>
 VAL166  LYS551  ARG553  GLY616  TRP617  ASP618  TYR619  PRO620  LYS621  CYS622 
 ASP623  PHE694  ASN695  SER759  ASP760  ASP761  ALA762  ILE779  LEU786  VAL792 
 PHE793  MET794  SER795  GLU796  ALA797  LYS798  CYS799  TRP800  GLU811  SER814 

> <Gold.Protein.RotatedAtoms>
  150.8067  134.7197  159.6650 H   0  0  0  0  0  0  0  0  0  0  0  0  # atno 6907 bound_to 6896
  152.4187  134.5992  160.0005 H   0  0  0  0  0  0  0  0  0  0  0  0  # atno 6908 bound_to 6896
  151.6214  133.3302  159.3125 H   0  0  0  0  0  0  0  0  0  0  0  0  # atno 6909 bound_to 6896
  145.4009  140.9537  143.2287 H   0  0  0  0  0  0  0  0  0  0  0  0  # atno 7974 bound_to 7965
  154.6801  140.2631  155.6917 H   0  0  0  0  0  0  0  0  0  0  0  0  # atno 8008 bound_to 7997
  156.2693  140.2812  156.1265 H   0  0  0  0  0  0  0  0  0  0  0  0  # atno 8009 bound_to 7997
  155.1043  140.0375  157.2696 H   0  0  0  0  0  0  0  0  0  0  0  0  # atno 8010 bound_to 7997
  140.3144  143.3086  152.0114 H   0  0  0  0  0  0  0  0  0  0  0  0  # atno 10167 bound_to 10162
  156.0386  130.5608  150.7667 H   0  0  0  0  0  0  0  0  0  0  0  0  # atno 10718 bound_to 10713
  154.0191  135.6671  153.4771 H   0  0  0  0  0  0  0  0  0  0  0  0  # atno 10763 bound_to 10752
  153.0588  135.5040  154.8040 H   0  0  0  0  0  0  0  0  0  0  0  0  # atno 10764 bound_to 10752
  154.6948  135.3068  154.9391 H   0  0  0  0  0  0  0  0  0  0  0  0  # atno 10765 bound_to 10752
  140.1472  134.8699  157.2408 H   0  0  0  0  0  0  0  0  0  0  0  0  # atno 11005 bound_to 11000
  144.8374  139.5527  143.6916 LP  0  0  0  0  0  0  0  0  0  0  0  0  # atno 17320 bound_to 7965
  146.2752  139.6735  142.9268 LP  0  0  0  0  0  0  0  0  0  0  0  0  # atno 17321 bound_to 7965
  139.4887  144.6360  151.6975 LP  0  0  0  0  0  0  0  0  0  0  0  0  # atno 17342 bound_to 10162
  140.5539  144.0379  150.6139 LP  0  0  0  0  0  0  0  0  0  0  0  0  # atno 17343 bound_to 10162
  157.5172  131.0929  151.0124 LP  0  0  0  0  0  0  0  0  0  0  0  0  # atno 17370 bound_to 10713
  157.0465  130.5770  149.5364 LP  0  0  0  0  0  0  0  0  0  0  0  0  # atno 17371 bound_to 10713
  140.2649  134.3528  155.7393 LP  0  0  0  0  0  0  0  0  0  0  0  0  # atno 17394 bound_to 11000
  141.2194  133.7390  156.9135 LP  0  0  0  0  0  0  0  0  0  0  0  0  # atno 17395 bound_to 11000

$$$$
