AV-unprocessed.smi:1867|AV-procd|sdf|7574|dock2
  -GOLD-   22720 9283D 1   1.00000     0.00000
 Structure written by MMmdl.
 53 56  0  0  0  0  0  0  0  0  3 V2000
  148.6306  137.3785  156.8598 O   0  0  0  0  0  0  0  0  0  0  0  0
  148.9510  137.6113  155.6968 C   0  0  0  0  0  0  0  0  0  0  0  0
  149.4986  138.7664  155.2707 N   0  0  0  0  0  0  0  0  0  0  0  0
  149.8466  139.9128  156.0337 C   0  0  0  0  0  0  0  0  0  0  0  0
  150.4715  139.8591  157.3048 C   0  0  0  0  0  0  0  0  0  0  0  0
  150.7904  141.0594  157.9726 C   0  0  0  0  0  0  0  0  0  0  0  0
  150.4871  142.2983  157.3616 C   0  0  0  0  0  0  0  0  0  0  0  0
  150.7699  143.5449  157.9378 N   0  0  0  0  0  0  0  0  0  0  0  0
  149.9860  143.8963  159.1122 C   0  0  0  0  0  0  0  0  0  0  0  0
  150.7675  145.0076  159.8221 C   0  0  0  0  0  0  0  0  0  0  0  0
  152.1783  144.9488  159.2250 C   0  0  0  0  0  0  0  0  0  0  0  0
  152.1616  143.7229  158.3114 C   0  0  0  0  0  0  0  0  0  0  0  0
  149.9101  142.3035  156.1402 N   0  3  0  0  0  0  0  0  0  0  0  0
  149.5885  141.1782  155.4667 C   0  0  0  0  0  0  0  0  0  0  0  0
  148.7605  136.6955  154.7293 N   0  0  0  0  0  0  0  0  0  0  0  0
  148.1940  135.3472  154.8372 C   0  0  2  0  0  0  0  0  0  0  0  0
  149.2061  134.2500  154.4530 C   0  0  0  0  0  0  0  0  0  0  0  0
  148.3983  133.2417  153.6298 C   0  0  0  0  0  0  0  0  0  0  0  0
  147.4158  134.0898  152.9458 N   0  3  1  0  0  0  0  0  0  0  0  0
  146.2931  133.4394  152.2398 C   0  0  0  0  0  0  0  0  0  0  0  0
  145.5161  134.5202  151.4581 C   0  0  0  0  0  0  0  0  0  0  0  0
  145.1031  135.7079  152.3565 C   0  0  0  0  0  0  0  0  0  0  0  0
  146.2984  136.2603  153.1627 C   0  0  0  0  0  0  0  0  0  0  0  0
  146.9701  135.1007  153.9206 C   0  0  2  0  0  0  0  0  0  0  0  0
  149.6257  138.8547  154.2733 H   0  0  0  0  0  0  0  0  0  0  0  0
  150.7274  138.9226  157.7759 H   0  0  0  0  0  0  0  0  0  0  0  0
  151.2715  141.0198  158.9389 H   0  0  0  0  0  0  0  0  0  0  0  0
  148.9898  144.2332  158.8244 H   0  0  0  0  0  0  0  0  0  0  0  0
  149.8679  143.0414  159.7782 H   0  0  0  0  0  0  0  0  0  0  0  0
  150.3177  145.9825  159.6296 H   0  0  0  0  0  0  0  0  0  0  0  0
  150.7748  144.8535  160.9016 H   0  0  0  0  0  0  0  0  0  0  0  0
  152.3672  145.8488  158.6385 H   0  0  0  0  0  0  0  0  0  0  0  0
  152.9550  144.8798  159.9873 H   0  0  0  0  0  0  0  0  0  0  0  0
  152.5245  142.8455  158.8489 H   0  0  0  0  0  0  0  0  0  0  0  0
  152.7919  143.8674  157.4332 H   0  0  0  0  0  0  0  0  0  0  0  0
  149.1295  141.3268  154.4998 H   0  0  0  0  0  0  0  0  0  0  0  0
  149.0569  136.9680  153.8029 H   0  0  0  0  0  0  0  0  0  0  0  0
  147.8947  135.1604  155.8701 H   0  0  0  0  0  0  0  0  0  0  0  0
  149.9995  134.6665  153.8298 H   0  0  0  0  0  0  0  0  0  0  0  0
  149.6800  133.7922  155.3219 H   0  0  0  0  0  0  0  0  0  0  0  0
  149.0149  132.6811  152.9264 H   0  0  0  0  0  0  0  0  0  0  0  0
  147.8851  132.5340  154.2830 H   0  0  0  0  0  0  0  0  0  0  0  0
  146.6769  132.6828  151.5546 H   0  0  0  0  0  0  0  0  0  0  0  0
  145.6433  132.9307  152.9536 H   0  0  0  0  0  0  0  0  0  0  0  0
  146.1418  134.8922  150.6454 H   0  0  0  0  0  0  0  0  0  0  0  0
  144.6349  134.0817  150.9889 H   0  0  0  0  0  0  0  0  0  0  0  0
  144.6616  136.5002  151.7513 H   0  0  0  0  0  0  0  0  0  0  0  0
  144.3247  135.3799  153.0469 H   0  0  0  0  0  0  0  0  0  0  0  0
  147.0116  136.7415  152.4916 H   0  0  0  0  0  0  0  0  0  0  0  0
  145.9483  137.0240  153.8575 H   0  0  0  0  0  0  0  0  0  0  0  0
  146.2100  134.6326  154.5500 H   0  0  0  0  0  0  0  0  0  0  0  0
  147.9402  134.5929  152.2442 H   0  0  0  0  0  0  0  0  0  0  0  0
  149.7054  143.2038  155.7057 H   0  0  0  0  0  0  0  0  0  0  0  0
  1  2  2  0  0  0  0
  2  3  1  0  0  0  0
  2 15  1  0  0  0  0
  3  4  1  0  0  0  0
  3 25  1  0  0  0  0
  4 14  1  0  0  0  0
  4  5  2  0  0  0  0
  5  6  1  0  0  0  0
  5 26  1  0  0  0  0
  6  7  2  0  0  0  0
  6 27  1  0  0  0  0
  7  8  1  0  0  0  0
  7 13  1  0  0  0  0
  8 12  1  0  0  0  0
  8  9  1  0  0  0  0
  9 10  1  0  0  0  0
  9 28  1  0  0  0  0
  9 29  1  0  0  0  0
 10 11  1  0  0  0  0
 10 30  1  0  0  0  0
 10 31  1  0  0  0  0
 11 12  1  0  0  0  0
 11 32  1  0  0  0  0
 11 33  1  0  0  0  0
 12 34  1  0  0  0  0
 12 35  1  0  0  0  0
 13 14  2  0  0  0  0
 13 53  1  0  0  0  0
 14 36  1  0  0  0  0
 15 16  1  0  0  0  0
 15 37  1  0  0  0  0
 16 24  1  0  0  0  0
 16 17  1  0  0  0  0
 16 38  1  0  0  0  0
 17 18  1  0  0  0  0
 17 39  1  0  0  0  0
 17 40  1  0  0  0  0
 18 19  1  0  0  0  0
 18 41  1  0  0  0  0
 18 42  1  0  0  0  0
 19 24  1  0  0  0  0
 19 20  1  0  0  0  0
 19 52  1  0  0  0  0
 20 21  1  0  0  0  0
 20 43  1  0  0  0  0
 20 44  1  0  0  0  0
 21 22  1  0  0  0  0
 21 45  1  0  0  0  0
 21 46  1  0  0  0  0
 22 23  1  0  0  0  0
 22 47  1  0  0  0  0
 22 48  1  0  0  0  0
 23 24  1  0  0  0  0
 23 49  1  0  0  0  0
 23 50  1  0  0  0  0
 24 51  1  0  0  0  0
M  CHG  1  13   1
M  CHG  1  19   1
M  END
> <s_m_source_file>
AV-unprocessed.smi

> <i_m_source_file_index>
1867

> <i_lp_mmshare_version>
43012

> <i_f3d_flags>
0

> <s_epik_input>
W0NIMl0xW0NIMl1bQ0gyXVtDSDJdW0NASF0oTjEyKVtDQEBIXShbQ0gyXVtDSDJdMilbTkhdQyg9TylbTkhdYzNbY0hdW2NIXWMobltjSF0zKU40W0NIMl1bQ0gyXVtDSDJdW0NIMl00

> <s_epik_cmdline>
J2VwaWtfcHl0aG9uJywgJy1waCcsICc3LjAnLCAnLXRuJywgJzgnLCAnLW1hJywgJzIwMCcsICctbWV0YWxfYmluZGluZycsICctaW1hZScsICc8aW5maWxlLm1hZT4nLCAnLW9tYWUnLCAnPG91dGZpbGUubWFlPic=

> <r_lp_tautomer_probability>
0.999994

> <r_epik_Ionization_Penalty>
1.27347

> <r_epik_Ionization_Penalty_Charging>
1.27345

> <r_epik_Ionization_Penalty_Neutral>
1.96458e-05

> <r_epik_State_Penalty>
1.34393

> <r_epik_Charging_Adjusted_Penalty>
2.61738

> <i_epik_Tot_Q>
2

> <i_epik_Tot_abs_Q>
2

> <r_epik_Metal_State_Penalty>
1.41094

> <b_epik_Metal_Only>
0

> <s_lp_Force_Field>
OPLS_2005

> <r_lp_Energy>
89.6482

> <b_lp_Chiralities_Consistent>
1

> <s_lp_Variant>
AV-unprocessed.smi:1867-15

> <Gold.Version>
5.8.1

> <Gold.Id.Protein>
6NUR|6NUR_protein|mol2

> <Gold.PLP.Fitness>
49.2321

> <Gold.PLP.PLP>
-36.2126

> <Gold.PLP.part.hbond>
-3.0000

> <Gold.PLP.part.metal>
0.0000

> <Gold.PLP.part.buried>
-2.8051

> <Gold.PLP.part.nonpolar>
-31.3140

> <Gold.PLP.part.repulsive>
0.2922

> <Gold.PLP.ligand.clash>
0.0000

> <Gold.PLP.ligand.torsion>
0.4230

> <Gold.PLP.Chemscore.Hbond>
4.6142

> <Gold.PLP.Chemscore.CHOScore>
0.0000

> <Gold.PLP.Chemscore.Metal>
0.0000

> <Gold.Chemscore.Hbonds>
donor molecule, donor type, donor heavy atom, donor atom, acceptor molecule, acceptor atom, score
      L1  H    13    53       P1  8028  2.00
      L1  H    15    37       P1  7948  0.73
      L1  H    19    52       P1  7948  1.86

> <Gold.PLP.Chemscore.Internal.Correction>
0.0229

> <Gold.Rescore>
     Score         DG    S(hbond)    S(metal)    S(lipo)     H(rot)  DE(clash)    DE(int)     intcor
     21.09     -21.59       2.38        0.00      95.87       1.20       0.17       0.33       ----

> <Gold.Chemscore.Fitness>
21.0927

> <Gold.Chemscore.DG>
-21.5869

> <Gold.Chemscore.ZeroCoef>
-5.4800

> <Gold.Chemscore.Hbond>
2.3800

> <Gold.Chemscore.Metal>
0.0000

> <Gold.Chemscore.Lipo>
95.8708

> <Gold.Chemscore.Internal_Hbond>
0.0000

> <Gold.Chemscore.DEClash>
0.1657

> <Gold.Chemscore.DEInternal>
0.3285

> <Gold.Chemscore.Rot>
1.1950

> <Gold.Chemscore.Internal.Correction>
   9.000000E+99

> <Gold.Chemscore.Hbonds>
donor molecule, donor type, donor heavy atom, donor atom, acceptor molecule, acceptor atom, score
      L1  H    13    53       P1  8028  0.97
      L1  H    15    37       P1  7948  0.69
      L1  H    19    52       P1  7948  0.36

> <Gold.Chemscore.Hbond.Weighted>
-7.9493

> <Gold.Chemscore.Metal.Weighted>
-0.0000

> <Gold.Chemscore.Lipo.Weighted>
-11.2169

> <Gold.Chemscore.Internal_Hbond.Weighted>
0.0000

> <Gold.Chemscore.DEClash.Weighted>
0.1657

> <Gold.Chemscore.DEInternal.Weighted>
0.3285

> <Gold.Chemscore.Rot.Weighted>
3.0593

> <Gold.Chemscore.Internal.Correction.Weighted>
   9.000000E+99

> <Gold.Protein.RotatedTorsions>
[ 6907 6896 6895 6894 ] final   24.72 input  -60.11 | X-H torsion
[ 7974 7965 7964 7962 ] final -115.56 input  175.53 | X-H torsion
[ 8008 7997 7996 7995 ] final  -10.39 input   59.86 | X-H torsion
[ 10167 10162 10161 10158 ] final -126.49 input  -65.29 | X-H torsion
[ 10718 10713 10712 10709 ] final    6.42 input   66.30 | X-H torsion
[ 10763 10752 10751 10750 ] final  -83.08 input  -60.55 | X-H torsion
[ 11005 11000 10999 10996 ] final   41.24 input  -57.11 | X-H torsion

> <Gold.Protein.ActiveResidues>
 VAL166  LYS551  ARG553  GLY616  TRP617  ASP618  TYR619  PRO620  LYS621  CYS622 
 ASP623  PHE694  ASN695  SER759  ASP760  ASP761  ALA762  ILE779  LEU786  VAL792 
 PHE793  MET794  SER795  GLU796  ALA797  LYS798  CYS799  TRP800  GLU811  SER814 

> <Gold.Protein.RotatedAtoms>
  151.9617  135.0120  160.0547 H   0  0  0  0  0  0  0  0  0  0  0  0  # atno 6907 bound_to 6896
  152.1863  133.4737  159.4992 H   0  0  0  0  0  0  0  0  0  0  0  0  # atno 6908 bound_to 6896
  150.6926  134.1687  159.4247 H   0  0  0  0  0  0  0  0  0  0  0  0  # atno 6909 bound_to 6896
  145.1069  140.8587  143.3893 H   0  0  0  0  0  0  0  0  0  0  0  0  # atno 7974 bound_to 7965
  154.5559  140.2330  155.8411 H   0  0  0  0  0  0  0  0  0  0  0  0  # atno 8008 bound_to 7997
  156.1988  140.3058  155.9442 H   0  0  0  0  0  0  0  0  0  0  0  0  # atno 8009 bound_to 7997
  155.2981  140.0430  157.3018 H   0  0  0  0  0  0  0  0  0  0  0  0  # atno 8010 bound_to 7997
  139.9709  143.5847  152.2413 H   0  0  0  0  0  0  0  0  0  0  0  0  # atno 10167 bound_to 10162
  156.9219  130.5794  149.5648 H   0  0  0  0  0  0  0  0  0  0  0  0  # atno 10718 bound_to 10713
  154.5835  135.5568  153.7208 H   0  0  0  0  0  0  0  0  0  0  0  0  # atno 10763 bound_to 10752
  153.0090  135.6326  154.1950 H   0  0  0  0  0  0  0  0  0  0  0  0  # atno 10764 bound_to 10752
  154.1890  135.2883  155.3008 H   0  0  0  0  0  0  0  0  0  0  0  0  # atno 10765 bound_to 10752
  140.1853  134.4053  155.8176 H   0  0  0  0  0  0  0  0  0  0  0  0  # atno 11005 bound_to 11000
  145.0891  139.2903  143.5744 LP  0  0  0  0  0  0  0  0  0  0  0  0  # atno 17320 bound_to 7965
  146.3528  140.0422  142.8642 LP  0  0  0  0  0  0  0  0  0  0  0  0  # atno 17321 bound_to 7965
  139.6482  144.7659  151.2201 LP  0  0  0  0  0  0  0  0  0  0  0  0  # atno 17342 bound_to 10162
  140.7522  143.6204  150.8519 LP  0  0  0  0  0  0  0  0  0  0  0  0  # atno 17343 bound_to 10162
  156.0487  130.5559  150.8939 LP  0  0  0  0  0  0  0  0  0  0  0  0  # atno 17370 bound_to 10713
  157.5902  131.0944  150.9131 LP  0  0  0  0  0  0  0  0  0  0  0  0  # atno 17371 bound_to 10713
  141.2224  133.7020  156.8002 LP  0  0  0  0  0  0  0  0  0  0  0  0  # atno 17394 bound_to 11000
  140.2220  134.8749  157.3387 LP  0  0  0  0  0  0  0  0  0  0  0  0  # atno 17395 bound_to 11000

$$$$
