AV-unprocessed.smi:2087|AV-procd|sdf|8522|dock8
  -GOLD-   2272011243D 1   1.00000     0.00000
 Structure written by MMmdl.
 51 52  0  0  0  0  0  0  0  0  2 V2000
  146.2020  132.3290  149.9843 C   0  0  0  0  0  0  0  0  0  0  0  0
  145.5566  132.8998  151.2584 C   0  0  0  0  0  0  0  0  0  0  0  0
  144.1960  133.5337  150.9308 C   0  0  0  0  0  0  0  0  0  0  0  0
  146.4741  133.9238  151.9618 C   0  0  0  0  0  0  0  0  0  0  0  0
  146.1917  134.0638  153.4170 N   0  3  1  0  0  0  0  0  0  0  0  0
  146.0941  132.7656  154.1279 C   0  0  0  0  0  0  0  0  0  0  0  0
  147.4890  132.1777  154.4073 C   0  0  0  0  0  0  0  0  0  0  0  0
  148.2532  133.1178  155.1514 O   0  0  0  0  0  0  0  0  0  0  0  0
  148.4665  134.3323  154.4379 C   0  0  2  0  0  0  0  0  0  0  0  0
  149.3714  135.2411  155.2896 C   0  0  0  0  0  0  0  0  0  0  0  0
  150.0549  136.2346  154.4694 N   0  0  0  0  0  0  0  0  0  0  0  0
  151.0553  137.0213  154.8919 C   0  0  0  0  0  0  0  0  0  0  0  0
  151.5467  136.9402  156.0184 O   0  0  0  0  0  0  0  0  0  0  0  0
  151.5794  138.0527  153.8849 C   0  0  0  0  0  0  0  0  0  0  0  0
  151.2947  139.4342  154.2936 N   0  0  0  0  0  0  0  0  0  0  0  0
  150.5216  140.2450  153.4826 C   0  0  0  0  0  0  0  0  0  0  0  0
  150.2182  141.5265  153.7835 C   0  0  0  0  0  0  0  0  0  0  0  0
  150.7045  142.1437  155.0118 C   0  0  0  0  0  0  0  0  0  0  0  0
  150.4376  143.3029  155.3300 O   0  0  0  0  0  0  0  0  0  0  0  0
  151.5035  141.2961  155.8168 N   0  0  0  0  0  0  0  0  0  0  0  0
  152.0300  141.8088  157.0648 C   0  0  0  0  0  0  0  0  0  0  0  0
  151.8055  139.9525  155.5035 C   0  0  0  0  0  0  0  0  0  0  0  0
  152.4886  139.2475  156.2514 O   0  0  0  0  0  0  0  0  0  0  0  0
  147.0983  134.9870  154.1481 C   0  0  0  0  0  0  0  0  0  0  0  0
  146.4222  133.1173  149.2637 H   0  0  0  0  0  0  0  0  0  0  0  0
  145.5396  131.6120  149.4982 H   0  0  0  0  0  0  0  0  0  0  0  0
  147.1342  131.8089  150.2057 H   0  0  0  0  0  0  0  0  0  0  0  0
  145.3582  132.0689  151.9347 H   0  0  0  0  0  0  0  0  0  0  0  0
  144.3043  134.3760  150.2463 H   0  0  0  0  0  0  0  0  0  0  0  0
  143.7039  133.8990  151.8329 H   0  0  0  0  0  0  0  0  0  0  0  0
  143.5268  132.8102  150.4642 H   0  0  0  0  0  0  0  0  0  0  0  0
  147.5065  133.5973  151.8274 H   0  0  0  0  0  0  0  0  0  0  0  0
  146.4038  134.8946  151.4715 H   0  0  0  0  0  0  0  0  0  0  0  0
  145.5791  132.9319  155.0750 H   0  0  0  0  0  0  0  0  0  0  0  0
  145.4796  132.0609  153.5665 H   0  0  0  0  0  0  0  0  0  0  0  0
  147.3986  131.2605  154.9890 H   0  0  0  0  0  0  0  0  0  0  0  0
  148.0047  131.9162  153.4821 H   0  0  0  0  0  0  0  0  0  0  0  0
  148.9738  134.1123  153.4979 H   0  0  0  0  0  0  0  0  0  0  0  0
  148.7874  135.7446  156.0617 H   0  0  0  0  0  0  0  0  0  0  0  0
  150.1232  134.6453  155.8082 H   0  0  0  0  0  0  0  0  0  0  0  0
  149.7170  136.3602  153.5260 H   0  0  0  0  0  0  0  0  0  0  0  0
  152.6546  137.9052  153.7755 H   0  0  0  0  0  0  0  0  0  0  0  0
  151.1525  137.8659  152.8977 H   0  0  0  0  0  0  0  0  0  0  0  0
  150.1381  139.8362  152.5591 H   0  0  0  0  0  0  0  0  0  0  0  0
  149.6061  142.1035  153.1058 H   0  0  0  0  0  0  0  0  0  0  0  0
  153.0828  141.5277  157.1290 H   0  0  0  0  0  0  0  0  0  0  0  0
  151.4455  141.3544  157.8661 H   0  0  0  0  0  0  0  0  0  0  0  0
  151.9594  142.8957  157.1011 H   0  0  0  0  0  0  0  0  0  0  0  0
  147.2278  135.9229  153.6066 H   0  0  0  0  0  0  0  0  0  0  0  0
  146.6180  135.2498  155.0914 H   0  0  0  0  0  0  0  0  0  0  0  0
  145.2684  134.4710  153.4629 H   0  0  0  0  0  0  0  0  0  0  0  0
  1  2  1  0  0  0  0
  1 25  1  0  0  0  0
  1 26  1  0  0  0  0
  1 27  1  0  0  0  0
  2  3  1  0  0  0  0
  2  4  1  0  0  0  0
  2 28  1  0  0  0  0
  3 29  1  0  0  0  0
  3 30  1  0  0  0  0
  3 31  1  0  0  0  0
  4  5  1  0  0  0  0
  4 32  1  0  0  0  0
  4 33  1  0  0  0  0
  5 24  1  0  0  0  0
  5  6  1  0  0  0  0
  5 51  1  0  0  0  0
  6  7  1  0  0  0  0
  6 34  1  0  0  0  0
  6 35  1  0  0  0  0
  7  8  1  0  0  0  0
  7 36  1  0  0  0  0
  7 37  1  0  0  0  0
  8  9  1  0  0  0  0
  9 10  1  0  0  0  0
  9 24  1  0  0  0  0
  9 38  1  0  0  0  0
 10 11  1  0  0  0  0
 10 39  1  0  0  0  0
 10 40  1  0  0  0  0
 11 12  1  0  0  0  0
 11 41  1  0  0  0  0
 12 13  2  0  0  0  0
 12 14  1  0  0  0  0
 14 15  1  0  0  0  0
 14 42  1  0  0  0  0
 14 43  1  0  0  0  0
 15 22  1  0  0  0  0
 15 16  1  0  0  0  0
 16 17  2  0  0  0  0
 16 44  1  0  0  0  0
 17 18  1  0  0  0  0
 17 45  1  0  0  0  0
 18 19  2  0  0  0  0
 18 20  1  0  0  0  0
 20 21  1  0  0  0  0
 20 22  1  0  0  0  0
 21 46  1  0  0  0  0
 21 47  1  0  0  0  0
 21 48  1  0  0  0  0
 22 23  2  0  0  0  0
 24 49  1  0  0  0  0
 24 50  1  0  0  0  0
M  CHG  1   5   1
M  END
> <s_m_source_file>
AV-unprocessed.smi

> <i_m_source_file_index>
2087

> <i_lp_mmshare_version>
43012

> <i_f3d_flags>
0

> <s_epik_input>
W0NIM11bQ0hdKFtDSDNdKVtDSDJdTjFbQ0gyXVtDSDJdT1tDQEhdKFtDSDJdMSlbQ0gyXVtOSF1DKD1PKVtDSDJdbjJbY0hdW2NIXWMoPU8pbihbQ0gzXSljMj1P

> <s_epik_cmdline>
J2VwaWtfcHl0aG9uJywgJy1waCcsICc3LjAnLCAnLXRuJywgJzgnLCAnLW1hJywgJzIwMCcsICctbWV0YWxfYmluZGluZycsICctaW1hZScsICc8aW5maWxlLm1hZT4nLCAnLW9tYWUnLCAnPG91dGZpbGUubWFlPic=

> <r_lp_tautomer_probability>
1

> <r_epik_Ionization_Penalty>
0.097593

> <r_epik_Ionization_Penalty_Charging>
0.097593

> <r_epik_Ionization_Penalty_Neutral>
6.27044e-08

> <r_epik_State_Penalty>
0.0877056

> <r_epik_Charging_Adjusted_Penalty>
0.185299

> <i_epik_Tot_Q>
1

> <i_epik_Tot_abs_Q>
1

> <r_epik_Metal_State_Penalty>
0.0877109

> <b_epik_Metal_Only>
0

> <s_lp_Force_Field>
OPLS_2005

> <r_lp_Energy>
27.8921

> <b_lp_Chiralities_Consistent>
1

> <s_lp_Variant>
AV-unprocessed.smi:2087-3

> <Gold.Version>
5.8.1

> <Gold.Id.Protein>
6NUR|6NUR_protein|mol2

> <Gold.PLP.Fitness>
51.7776

> <Gold.PLP.PLP>
-40.9126

> <Gold.PLP.part.hbond>
-4.0000

> <Gold.PLP.part.metal>
0.0000

> <Gold.PLP.part.buried>
-1.8793

> <Gold.PLP.part.nonpolar>
-35.5063

> <Gold.PLP.part.repulsive>
1.7328

> <Gold.PLP.ligand.clash>
0.0000

> <Gold.PLP.ligand.torsion>
0.5974

> <Gold.PLP.Chemscore.Hbond>
3.0000

> <Gold.PLP.Chemscore.CHOScore>
0.9982

> <Gold.PLP.Chemscore.Metal>
0.0000

> <Gold.Chemscore.Hbonds>
donor molecule, donor type, donor heavy atom, donor atom, acceptor molecule, acceptor atom, score
      L1  H    11    41       P1  7948  1.00
      P1  H  7997  8008       L1    23  0.96
      P1  H 10752 10763       L1    13  0.05

> <Gold.PLP.Chemscore.Internal.Correction>
0.0652

> <Gold.Rescore>
     Score         DG    S(hbond)    S(metal)    S(lipo)     H(rot)  DE(clash)    DE(int)     intcor
     13.87     -15.99       2.21        0.00      75.36       2.22       0.03       2.09       ----

> <Gold.Chemscore.Fitness>
13.8654

> <Gold.Chemscore.DG>
-15.9928

> <Gold.Chemscore.ZeroCoef>
-5.4800

> <Gold.Chemscore.Hbond>
2.2129

> <Gold.Chemscore.Metal>
0.0000

> <Gold.Chemscore.Lipo>
75.3619

> <Gold.Chemscore.Internal_Hbond>
0.0000

> <Gold.Chemscore.DEClash>
0.0338

> <Gold.Chemscore.DEInternal>
2.0936

> <Gold.Chemscore.Rot>
2.2249

> <Gold.Chemscore.Internal.Correction>
   9.000000E+99

> <Gold.Chemscore.Hbonds>
donor molecule, donor type, donor heavy atom, donor atom, acceptor molecule, acceptor atom, score
      L1  H    11    41       P1  7948  0.35
      P1  H  7997  8008       L1    23  0.50

> <Gold.Chemscore.Hbond.Weighted>
-7.3912

> <Gold.Chemscore.Metal.Weighted>
-0.0000

> <Gold.Chemscore.Lipo.Weighted>
-8.8173

> <Gold.Chemscore.Internal_Hbond.Weighted>
0.0000

> <Gold.Chemscore.DEClash.Weighted>
0.0338

> <Gold.Chemscore.DEInternal.Weighted>
2.0936

> <Gold.Chemscore.Rot.Weighted>
5.6957

> <Gold.Chemscore.Internal.Correction.Weighted>
   9.000000E+99

> <Gold.Protein.RotatedTorsions>
[ 6907 6896 6895 6894 ] final  112.90 input  -60.11 | X-H torsion
[ 7974 7965 7964 7962 ] final -147.42 input  175.53 | X-H torsion
[ 8008 7997 7996 7995 ] final  -40.78 input   59.86 | X-H torsion
[ 10167 10162 10161 10158 ] final -143.72 input  -65.29 | X-H torsion
[ 10718 10713 10712 10709 ] final  142.41 input   66.30 | X-H torsion
[ 10763 10752 10751 10750 ] final   88.66 input  -60.55 | X-H torsion
[ 11005 11000 10999 10996 ] final    5.94 input  -57.11 | X-H torsion

> <Gold.Protein.ActiveResidues>
 VAL166  LYS551  ARG553  GLY616  TRP617  ASP618  TYR619  PRO620  LYS621  CYS622 
 ASP623  PHE694  ASN695  SER759  ASP760  ASP761  ALA762  ILE779  LEU786  VAL792 
 PHE793  MET794  SER795  GLU796  ALA797  LYS798  CYS799  TRP800  GLU811  SER814 

> <Gold.Protein.RotatedAtoms>
  152.4891  133.8451  159.7172 H   0  0  0  0  0  0  0  0  0  0  0  0  # atno 6907 bound_to 6896
  150.9004  133.7117  159.2887 H   0  0  0  0  0  0  0  0  0  0  0  0  # atno 6908 bound_to 6896
  151.4560  135.1038  159.9763 H   0  0  0  0  0  0  0  0  0  0  0  0  # atno 6909 bound_to 6896
  144.8094  140.5329  143.5652 H   0  0  0  0  0  0  0  0  0  0  0  0  # atno 7974 bound_to 7965
  154.4009  140.1516  156.3084 H   0  0  0  0  0  0  0  0  0  0  0  0  # atno 8008 bound_to 7997
  155.8638  140.3452  155.5753 H   0  0  0  0  0  0  0  0  0  0  0  0  # atno 8009 bound_to 7997
  155.7851  140.0849  157.2029 H   0  0  0  0  0  0  0  0  0  0  0  0  # atno 8010 bound_to 7997
  139.7967  143.7890  152.2655 H   0  0  0  0  0  0  0  0  0  0  0  0  # atno 10167 bound_to 10162
  157.3808  131.0992  151.0740 H   0  0  0  0  0  0  0  0  0  0  0  0  # atno 10718 bound_to 10713
  153.1791  135.4499  155.0004 H   0  0  0  0  0  0  0  0  0  0  0  0  # atno 10763 bound_to 10752
  154.8018  135.3258  154.7534 H   0  0  0  0  0  0  0  0  0  0  0  0  # atno 10764 bound_to 10752
  153.8000  135.6963  153.4912 H   0  0  0  0  0  0  0  0  0  0  0  0  # atno 10765 bound_to 10752
  140.5651  134.0156  155.7986 H   0  0  0  0  0  0  0  0  0  0  0  0  # atno 11005 bound_to 11000
  145.5359  139.1475  143.3474 LP  0  0  0  0  0  0  0  0  0  0  0  0  # atno 17320 bound_to 7965
  146.2391  140.5499  142.8942 LP  0  0  0  0  0  0  0  0  0  0  0  0  # atno 17321 bound_to 7965
  139.7998  144.7378  150.9840 LP  0  0  0  0  0  0  0  0  0  0  0  0  # atno 17342 bound_to 10162
  140.7820  143.4357  151.0627 LP  0  0  0  0  0  0  0  0  0  0  0  0  # atno 17343 bound_to 10162
  157.1810  130.6309  149.5672 LP  0  0  0  0  0  0  0  0  0  0  0  0  # atno 17370 bound_to 10713
  155.9775  130.4753  150.6599 LP  0  0  0  0  0  0  0  0  0  0  0  0  # atno 17371 bound_to 10713
  141.1091  133.9646  157.2943 LP  0  0  0  0  0  0  0  0  0  0  0  0  # atno 17394 bound_to 11000
  139.9389  135.0193  156.8645 LP  0  0  0  0  0  0  0  0  0  0  0  0  # atno 17395 bound_to 11000

$$$$
