AV-unprocessed.smi:1285|AV-procd|sdf|5371|dock2
  -GOLD-   22720 4513D 1   1.00000     0.00000
 Structure written by MMmdl.
 47 48  0  0  0  0  0  0  0  0  2 V2000
  148.5487  133.8961  157.0288 C   0  0  0  0  0  0  0  0  0  0  0  0
  149.1227  135.2042  156.4559 C   0  0  0  0  0  0  0  0  0  0  0  0
  148.8998  135.4276  154.9278 C   0  0  1  0  0  0  0  0  0  0  0  0
  149.5623  134.2333  154.1901 C   0  0  0  0  0  0  0  0  0  0  0  0
  147.3716  135.4295  154.6092 C   0  0  0  0  0  0  0  0  0  0  0  0
  147.0868  135.4523  153.1762 N   0  0  0  0  0  0  0  0  0  0  0  0
  145.8810  135.2876  152.6098 C   0  0  0  0  0  0  0  0  0  0  0  0
  144.8391  135.1767  153.2569 O   0  0  0  0  0  0  0  0  0  0  0  0
  145.8722  135.1898  151.0778 C   0  0  2  0  0  0  0  0  0  0  0  0
  145.3461  136.4665  150.3953 C   0  0  0  0  0  0  0  0  0  0  0  0
  145.1086  134.0171  150.6736 N   0  0  0  0  0  0  0  0  0  0  0  0
  145.5072  132.8391  150.1851 C   0  0  0  0  0  0  0  0  0  0  0  0
  144.5111  132.0221  149.8736 N   0  0  0  0  0  0  0  0  0  0  0  0
  143.4518  132.8135  150.2154 C   0  0  0  0  0  0  0  0  0  0  0  0
  143.7538  134.0224  150.6890 N   0  0  0  0  0  0  0  0  0  0  0  0
  149.5348  136.7278  154.5001 N   0  3  0  0  0  0  0  0  0  0  0  0
  148.8418  137.9717  154.9407 C   0  0  0  0  0  0  0  0  0  0  0  0
  149.4769  139.2072  154.2797 C   0  0  0  0  0  0  0  0  0  0  0  0
  150.8624  139.2613  154.5882 O   0  0  0  0  0  0  0  0  0  0  0  0
  151.5550  138.1231  154.0955 C   0  0  0  0  0  0  0  0  0  0  0  0
  150.9971  136.8549  154.7614 C   0  0  0  0  0  0  0  0  0  0  0  0
  148.7454  133.8332  158.0993 H   0  0  0  0  0  0  0  0  0  0  0  0
  148.9959  133.0167  156.5660 H   0  0  0  0  0  0  0  0  0  0  0  0
  147.4687  133.8353  156.8967 H   0  0  0  0  0  0  0  0  0  0  0  0
  148.6704  136.0233  157.0155 H   0  0  0  0  0  0  0  0  0  0  0  0
  150.1830  135.2633  156.6997 H   0  0  0  0  0  0  0  0  0  0  0  0
  149.2929  133.2785  154.6438 H   0  0  0  0  0  0  0  0  0  0  0  0
  150.6503  134.2992  154.2063 H   0  0  0  0  0  0  0  0  0  0  0  0
  149.2513  134.1729  153.1469 H   0  0  0  0  0  0  0  0  0  0  0  0
  146.8724  134.5750  155.0664 H   0  0  0  0  0  0  0  0  0  0  0  0
  146.8948  136.3131  155.0319 H   0  0  0  0  0  0  0  0  0  0  0  0
  147.8823  135.5356  152.5592 H   0  0  0  0  0  0  0  0  0  0  0  0
  146.9052  135.0488  150.7530 H   0  0  0  0  0  0  0  0  0  0  0  0
  145.9352  137.3380  150.6830 H   0  0  0  0  0  0  0  0  0  0  0  0
  144.3057  136.6684  150.6532 H   0  0  0  0  0  0  0  0  0  0  0  0
  145.4045  136.3775  149.3100 H   0  0  0  0  0  0  0  0  0  0  0  0
  146.5462  132.5791  150.0432 H   0  0  0  0  0  0  0  0  0  0  0  0
  142.4268  132.4921  150.1037 H   0  0  0  0  0  0  0  0  0  0  0  0
  147.7876  137.9624  154.6709 H   0  0  0  0  0  0  0  0  0  0  0  0
  148.8968  138.0705  156.0252 H   0  0  0  0  0  0  0  0  0  0  0  0
  149.3330  139.1873  153.1982 H   0  0  0  0  0  0  0  0  0  0  0  0
  148.9991  140.1159  154.6463 H   0  0  0  0  0  0  0  0  0  0  0  0
  151.4677  138.0663  153.0091 H   0  0  0  0  0  0  0  0  0  0  0  0
  152.6153  138.2317  154.3242 H   0  0  0  0  0  0  0  0  0  0  0  0
  151.1892  136.9064  155.8332 H   0  0  0  0  0  0  0  0  0  0  0  0
  151.5488  135.9996  154.3767 H   0  0  0  0  0  0  0  0  0  0  0  0
  149.4472  136.7263  153.4939 H   0  0  0  0  0  0  0  0  0  0  0  0
  1  2  1  0  0  0  0
  1 22  1  0  0  0  0
  1 23  1  0  0  0  0
  1 24  1  0  0  0  0
  2  3  1  0  0  0  0
  2 25  1  0  0  0  0
  2 26  1  0  0  0  0
  3  4  1  0  0  0  0
  3  5  1  0  0  0  0
  3 16  1  0  0  0  0
  4 27  1  0  0  0  0
  4 28  1  0  0  0  0
  4 29  1  0  0  0  0
  5  6  1  0  0  0  0
  5 30  1  0  0  0  0
  5 31  1  0  0  0  0
  6  7  1  0  0  0  0
  6 32  1  0  0  0  0
  7  8  2  0  0  0  0
  7  9  1  0  0  0  0
  9 10  1  0  0  0  0
  9 11  1  0  0  0  0
  9 33  1  0  0  0  0
 10 34  1  0  0  0  0
 10 35  1  0  0  0  0
 10 36  1  0  0  0  0
 11 15  1  0  0  0  0
 11 12  1  0  0  0  0
 12 13  2  0  0  0  0
 12 37  1  0  0  0  0
 13 14  1  0  0  0  0
 14 15  2  0  0  0  0
 14 38  1  0  0  0  0
 16 21  1  0  0  0  0
 16 17  1  0  0  0  0
 16 47  1  0  0  0  0
 17 18  1  0  0  0  0
 17 39  1  0  0  0  0
 17 40  1  0  0  0  0
 18 19  1  0  0  0  0
 18 41  1  0  0  0  0
 18 42  1  0  0  0  0
 19 20  1  0  0  0  0
 20 21  1  0  0  0  0
 20 43  1  0  0  0  0
 20 44  1  0  0  0  0
 21 45  1  0  0  0  0
 21 46  1  0  0  0  0
M  CHG  1  16   1
M  END
> <s_m_source_file>
AV-unprocessed.smi

> <i_m_source_file_index>
1285

> <i_lp_mmshare_version>
43012

> <i_f3d_flags>
0

> <s_epik_input>
W0NIMl0xW0NIMl1PW0NIMl1bQ0gyXU4xW0NAQF0oW0NIM10pKFtDSDJdW0NIM10pW0NIMl1bTkhdQyg9TylbQ0BIXShbQ0gzXSluMltjSF1uW2NIXW4y

> <s_epik_cmdline>
J2VwaWtfcHl0aG9uJywgJy1waCcsICc3LjAnLCAnLXRuJywgJzgnLCAnLW1hJywgJzIwMCcsICctbWV0YWxfYmluZGluZycsICctaW1hZScsICc8aW5maWxlLm1hZT4nLCAnLW9tYWUnLCAnPG91dGZpbGUubWFlPic=

> <r_lp_tautomer_probability>
1

> <r_epik_Ionization_Penalty>
0.569304

> <r_epik_Ionization_Penalty_Charging>
0.569295

> <r_epik_Ionization_Penalty_Neutral>
8.22697e-06

> <r_epik_State_Penalty>
0.581114

> <r_epik_Charging_Adjusted_Penalty>
1.15041

> <i_epik_Tot_Q>
1

> <i_epik_Tot_abs_Q>
1

> <r_epik_Metal_State_Penalty>
0.581117

> <b_epik_Metal_Only>
0

> <s_lp_Force_Field>
OPLS_2005

> <r_lp_Energy>
33.7003

> <b_lp_Chiralities_Consistent>
1

> <s_lp_Variant>
AV-unprocessed.smi:1285-5

> <Gold.Version>
5.8.1

> <Gold.Id.Protein>
6NUR|6NUR_protein|mol2

> <Gold.PLP.Fitness>
46.6388

> <Gold.PLP.PLP>
-30.2886

> <Gold.PLP.part.hbond>
-3.2301

> <Gold.PLP.part.metal>
0.0000

> <Gold.PLP.part.buried>
-5.0908

> <Gold.PLP.part.nonpolar>
-23.1670

> <Gold.PLP.part.repulsive>
0.5079

> <Gold.PLP.ligand.clash>
0.0000

> <Gold.PLP.ligand.torsion>
0.7565

> <Gold.PLP.Chemscore.Hbond>
3.9263

> <Gold.PLP.Chemscore.CHOScore>
1.9095

> <Gold.PLP.Chemscore.Metal>
0.0000

> <Gold.Chemscore.Hbonds>
donor molecule, donor type, donor heavy atom, donor atom, acceptor molecule, acceptor atom, score
      L1  H     6    32       P1  7948  0.76
      L1  H    16    47       P1  7948  2.00
      P1  H  7989  7998       L1    19  0.86
      L1  C    14    38       P1 10186  0.61
      L1  C    14    38       P1 10952  0.52

> <Gold.PLP.Chemscore.Internal.Correction>
0.3559

> <Gold.Rescore>
     Score         DG    S(hbond)    S(metal)    S(lipo)     H(rot)  DE(clash)    DE(int)     intcor
     11.61     -12.91       2.49        0.00      52.89       2.76       0.68       0.62       ----

> <Gold.Chemscore.Fitness>
11.6138

> <Gold.Chemscore.DG>
-12.9057

> <Gold.Chemscore.ZeroCoef>
-5.4800

> <Gold.Chemscore.Hbond>
2.4852

> <Gold.Chemscore.Metal>
0.0000

> <Gold.Chemscore.Lipo>
52.8886

> <Gold.Chemscore.Internal_Hbond>
0.0000

> <Gold.Chemscore.DEClash>
0.6756

> <Gold.Chemscore.DEInternal>
0.6163

> <Gold.Chemscore.Rot>
2.7589

> <Gold.Chemscore.Internal.Correction>
   9.000000E+99

> <Gold.Chemscore.Hbonds>
donor molecule, donor type, donor heavy atom, donor atom, acceptor molecule, acceptor atom, score
      L1  H     6    32       P1  7948  0.74
      L1  H    16    47       P1  7948  0.85
      P1  H  7989  7998       L1    19  0.21

> <Gold.Chemscore.Hbond.Weighted>
-8.3004

> <Gold.Chemscore.Metal.Weighted>
-0.0000

> <Gold.Chemscore.Lipo.Weighted>
-6.1880

> <Gold.Chemscore.Internal_Hbond.Weighted>
0.0000

> <Gold.Chemscore.DEClash.Weighted>
0.6756

> <Gold.Chemscore.DEInternal.Weighted>
0.6163

> <Gold.Chemscore.Rot.Weighted>
7.0627

> <Gold.Chemscore.Internal.Correction.Weighted>
   9.000000E+99

> <Gold.Protein.RotatedTorsions>
[ 6907 6896 6895 6894 ] final -126.62 input  -60.11 | X-H torsion
[ 7974 7965 7964 7962 ] final   91.32 input  175.53 | X-H torsion
[ 8008 7997 7996 7995 ] final  171.92 input   59.86 | X-H torsion
[ 10167 10162 10161 10158 ] final   35.14 input  -65.29 | X-H torsion
[ 10718 10713 10712 10709 ] final  169.43 input   66.30 | X-H torsion
[ 10763 10752 10751 10750 ] final  -23.84 input  -60.55 | X-H torsion
[ 11005 11000 10999 10996 ] final  -21.53 input  -57.11 | X-H torsion

> <Gold.Protein.ActiveResidues>
 VAL166  LYS551  ARG553  GLY616  TRP617  ASP618  TYR619  PRO620  LYS621  CYS622 
 ASP623  PHE694  ASN695  SER759  ASP760  ASP761  ALA762  ILE779  LEU786  VAL792 
 PHE793  MET794  SER795  GLU796  ALA797  LYS798  CYS799  TRP800  GLU811  SER814 

> <Gold.Protein.RotatedAtoms>
  150.8988  133.7146  159.2884 H   0  0  0  0  0  0  0  0  0  0  0  0  # atno 6907 bound_to 6896
  151.4671  135.1041  159.9751 H   0  0  0  0  0  0  0  0  0  0  0  0  # atno 6908 bound_to 6896
  152.4864  133.8337  159.7172 H   0  0  0  0  0  0  0  0  0  0  0  0  # atno 6909 bound_to 6896
  145.5073  139.2276  143.2744 H   0  0  0  0  0  0  0  0  0  0  0  0  # atno 7974 bound_to 7965
  156.1224  140.1499  156.9185 H   0  0  0  0  0  0  0  0  0  0  0  0  # atno 8008 bound_to 7997
  154.4846  140.0869  156.7498 H   0  0  0  0  0  0  0  0  0  0  0  0  # atno 8009 bound_to 7997
  155.4404  140.3431  155.4291 H   0  0  0  0  0  0  0  0  0  0  0  0  # atno 8010 bound_to 7997
  140.4250  144.1406  150.6152 H   0  0  0  0  0  0  0  0  0  0  0  0  # atno 10167 bound_to 10162
  157.0227  131.0236  151.2769 H   0  0  0  0  0  0  0  0  0  0  0  0  # atno 10718 bound_to 10713
  153.6743  135.6970  153.5137 H   0  0  0  0  0  0  0  0  0  0  0  0  # atno 10763 bound_to 10752
  153.2534  135.4268  155.0820 H   0  0  0  0  0  0  0  0  0  0  0  0  # atno 10764 bound_to 10752
  154.8418  135.3537  154.6287 H   0  0  0  0  0  0  0  0  0  0  0  0  # atno 10765 bound_to 10752
  140.8570  133.7815  156.0031 H   0  0  0  0  0  0  0  0  0  0  0  0  # atno 11005 bound_to 11000
  146.2189  140.5877  142.9026 LP  0  0  0  0  0  0  0  0  0  0  0  0  # atno 17320 bound_to 7965
  144.7747  140.5713  143.6646 LP  0  0  0  0  0  0  0  0  0  0  0  0  # atno 17321 bound_to 7965
  140.4492  143.2494  151.9371 LP  0  0  0  0  0  0  0  0  0  0  0  0  # atno 17342 bound_to 10162
  139.4783  144.5579  151.8285 LP  0  0  0  0  0  0  0  0  0  0  0  0  # atno 17343 bound_to 10162
  157.5237  130.8014  149.7838 LP  0  0  0  0  0  0  0  0  0  0  0  0  # atno 17370 bound_to 10713
  156.0097  130.3839  150.2308 LP  0  0  0  0  0  0  0  0  0  0  0  0  # atno 17371 bound_to 10713
  140.8726  134.2708  157.5183 LP  0  0  0  0  0  0  0  0  0  0  0  0  # atno 17394 bound_to 11000
  139.8705  134.9575  156.4270 LP  0  0  0  0  0  0  0  0  0  0  0  0  # atno 17395 bound_to 11000

$$$$
