AV-unprocessed.smi:68|AV-procd|sdf|641|dock3
  -GOLD-   2262016533D 1   1.00000     0.00000
 Structure written by MMmdl.
 22 23  0  0  0  0  0  0  0  0  2 V2000
  151.7930  138.7717  154.9610 O   0  0  0  0  0  0  0  0  0  0  0  0
  151.6522  139.6904  155.7667 C   0  0  0  0  0  0  0  0  0  0  0  0
  152.4185  139.8125  156.8893 N   0  5  0  0  0  0  0  0  0  0  0  0
  152.2609  140.8314  157.7851 C   0  0  0  0  0  0  0  0  0  0  0  0
  152.9404  140.9321  158.8063 O   0  0  0  0  0  0  0  0  0  0  0  0
  151.2613  141.8130  157.5366 N   0  0  0  0  0  0  0  0  0  0  0  0
  151.0581  142.9693  158.4892 C   0  0  2  0  0  0  0  0  0  0  0  0
  152.1982  143.9910  158.3646 C   0  0  0  0  0  0  0  0  0  0  0  0
  152.9394  143.8224  159.6771 C   0  0  0  0  0  0  0  0  0  0  0  0
  151.8352  143.3397  160.6091 C   0  0  0  0  0  0  0  0  0  0  0  0
  151.0636  142.4696  159.7940 O   0  0  0  0  0  0  0  0  0  0  0  0
  150.4682  141.7123  156.4071 C   0  0  0  0  0  0  0  0  0  0  0  0
  150.6249  140.7021  155.5279 C   0  0  0  0  0  0  0  0  0  0  0  0
  149.8381  140.6325  154.4405 F   0  0  0  0  0  0  0  0  0  0  0  0
  150.0793  143.4054  158.2916 H   0  0  0  0  0  0  0  0  0  0  0  0
  152.8211  143.8124  157.4871 H   0  0  0  0  0  0  0  0  0  0  0  0
  151.7634  144.9884  158.2901 H   0  0  0  0  0  0  0  0  0  0  0  0
  153.7088  143.0559  159.5793 H   0  0  0  0  0  0  0  0  0  0  0  0
  153.4151  144.7414  160.0201 H   0  0  0  0  0  0  0  0  0  0  0  0
  152.2199  142.8282  161.4915 H   0  0  0  0  0  0  0  0  0  0  0  0
  151.2139  144.1745  160.9370 H   0  0  0  0  0  0  0  0  0  0  0  0
  149.7078  142.4561  156.2220 H   0  0  0  0  0  0  0  0  0  0  0  0
  1  2  2  0  0  0  0
  2 13  1  0  0  0  0
  2  3  1  0  0  0  0
  3  4  1  0  0  0  0
  4  5  2  0  0  0  0
  4  6  1  0  0  0  0
  6  7  1  0  0  0  0
  6 12  1  0  0  0  0
  7 11  1  0  0  0  0
  7  8  1  0  0  0  0
  7 15  1  0  0  0  0
  8  9  1  0  0  0  0
  8 16  1  0  0  0  0
  8 17  1  0  0  0  0
  9 10  1  0  0  0  0
  9 18  1  0  0  0  0
  9 19  1  0  0  0  0
 10 11  1  0  0  0  0
 10 20  1  0  0  0  0
 10 21  1  0  0  0  0
 12 13  2  0  0  0  0
 12 22  1  0  0  0  0
 13 14  1  0  0  0  0
M  CHG  1   3  -1
M  END
> <s_m_source_file>
AV-unprocessed.smi

> <i_m_source_file_index>
68

> <i_lp_mmshare_version>
43012

> <i_f3d_flags>
0

> <s_epik_input>
Tz1jMVtuSF1jKD1PKW4oW2NIXWMxRilbQ0BASF0yW0NIMl1bQ0gyXVtDSDJdTzI=

> <s_epik_cmdline>
J2VwaWtfcHl0aG9uJywgJy1waCcsICc3LjAnLCAnLXRuJywgJzgnLCAnLW1hJywgJzIwMCcsICctbWV0YWxfYmluZGluZycsICctaW1hZScsICc8aW5maWxlLm1hZT4nLCAnLW9tYWUnLCAnPG91dGZpbGUubWFlPic=

> <r_epik_Ionization_Penalty>
1.69229

> <r_epik_Ionization_Penalty_Charging>
3.30034e-08

> <r_epik_Ionization_Penalty_Neutral>
1.69229

> <r_epik_State_Penalty>
1.7976

> <r_epik_Charging_Adjusted_Penalty>
1.7976

> <i_epik_Tot_Q>
-1

> <i_epik_Tot_abs_Q>
1

> <r_epik_Metal_State_Penalty>
0.0116051

> <b_epik_Metal_Only>
0

> <s_epik_Chemistry_Notes>
This compound contains an acetal/aminal-like group ( X-CH(R)-Y where X, Y are N, S, or O) that may be acid/base labile, releasing an aldehyde.

> <s_lp_Force_Field>
OPLS_2005

> <r_lp_Energy>
34.1498

> <b_lp_Chiralities_Consistent>
1

> <s_lp_Variant>
AV-unprocessed.smi:68-3

> <Gold.Version>
5.8.1

> <Gold.Id.Protein>
6NUR|6NUR_protein|mol2

> <Gold.PLP.Fitness>
37.3950

> <Gold.PLP.PLP>
-29.0657

> <Gold.PLP.part.hbond>
-2.0465

> <Gold.PLP.part.metal>
0.0000

> <Gold.PLP.part.buried>
-1.2908

> <Gold.PLP.part.nonpolar>
-24.6780

> <Gold.PLP.part.repulsive>
0.0511

> <Gold.PLP.ligand.clash>
0.0000

> <Gold.PLP.ligand.torsion>
0.3365

> <Gold.PLP.Chemscore.Hbond>
2.0000

> <Gold.PLP.Chemscore.CHOScore>
1.0000

> <Gold.PLP.Chemscore.Metal>
0.0000

> <Gold.Chemscore.Hbonds>
donor molecule, donor type, donor heavy atom, donor atom, acceptor molecule, acceptor atom, score
      P1  H  7997  8008       L1     3  2.00
      L1  C    12    22       P1  8028  1.00

> <Gold.PLP.Chemscore.Internal.Correction>
0.0025

> <Gold.Rescore>
     Score         DG    S(hbond)    S(metal)    S(lipo)     H(rot)  DE(clash)    DE(int)     intcor
      7.81     -10.82       0.60        0.00      50.33       1.00       0.07       2.94       ----

> <Gold.Chemscore.Fitness>
7.8129

> <Gold.Chemscore.DG>
-10.8188

> <Gold.Chemscore.ZeroCoef>
-5.4800

> <Gold.Chemscore.Hbond>
0.6020

> <Gold.Chemscore.Metal>
0.0000

> <Gold.Chemscore.Lipo>
50.3264

> <Gold.Chemscore.Internal_Hbond>
0.0000

> <Gold.Chemscore.DEClash>
0.0671

> <Gold.Chemscore.DEInternal>
2.9388

> <Gold.Chemscore.Rot>
1.0000

> <Gold.Chemscore.Internal.Correction>
   9.000000E+99

> <Gold.Chemscore.Hbonds>
donor molecule, donor type, donor heavy atom, donor atom, acceptor molecule, acceptor atom, score
      P1  H  7997  8008       L1     3  0.16

> <Gold.Chemscore.Hbond.Weighted>
-2.0106

> <Gold.Chemscore.Metal.Weighted>
-0.0000

> <Gold.Chemscore.Lipo.Weighted>
-5.8882

> <Gold.Chemscore.Internal_Hbond.Weighted>
0.0000

> <Gold.Chemscore.DEClash.Weighted>
0.0671

> <Gold.Chemscore.DEInternal.Weighted>
2.9388

> <Gold.Chemscore.Rot.Weighted>
2.5600

> <Gold.Chemscore.Internal.Correction.Weighted>
   9.000000E+99

> <Gold.Protein.RotatedTorsions>
[ 6907 6896 6895 6894 ] final -116.62 input  -60.11 | X-H torsion
[ 7974 7965 7964 7962 ] final -162.24 input  175.53 | X-H torsion
[ 8008 7997 7996 7995 ] final  -40.72 input   59.86 | X-H torsion
[ 10167 10162 10161 10158 ] final  111.48 input  -65.29 | X-H torsion
[ 10718 10713 10712 10709 ] final   97.63 input   66.30 | X-H torsion
[ 10763 10752 10751 10750 ] final  128.38 input  -60.55 | X-H torsion
[ 11005 11000 10999 10996 ] final  -60.56 input  -57.11 | X-H torsion

> <Gold.Protein.ActiveResidues>
 VAL166  LYS551  ARG553  GLY616  TRP617  ASP618  TYR619  PRO620  LYS621  CYS622 
 ASP623  PHE694  ASN695  SER759  ASP760  ASP761  ALA762  ILE779  LEU786  VAL792 
 PHE793  MET794  SER795  GLU796  ALA797  LYS798  CYS799  TRP800  GLU811  SER814 

> <Gold.Protein.RotatedAtoms>
  150.8070  133.8491  159.3200 H   0  0  0  0  0  0  0  0  0  0  0  0  # atno 6907 bound_to 6896
  151.6287  135.1023  160.0126 H   0  0  0  0  0  0  0  0  0  0  0  0  # atno 6908 bound_to 6896
  152.4161  133.7001  159.6475 H   0  0  0  0  0  0  0  0  0  0  0  0  # atno 6909 bound_to 6896
  144.7364  140.3282  143.6158 H   0  0  0  0  0  0  0  0  0  0  0  0  # atno 7974 bound_to 7965
  154.4009  140.1518  156.3074 H   0  0  0  0  0  0  0  0  0  0  0  0  # atno 8008 bound_to 7997
  155.8646  140.3452  155.5758 H   0  0  0  0  0  0  0  0  0  0  0  0  # atno 8009 bound_to 7997
  155.7842  140.0847  157.2034 H   0  0  0  0  0  0  0  0  0  0  0  0  # atno 8010 bound_to 7997
  139.6608  144.7128  151.1869 H   0  0  0  0  0  0  0  0  0  0  0  0  # atno 10167 bound_to 10162
  157.6909  131.0615  150.4673 H   0  0  0  0  0  0  0  0  0  0  0  0  # atno 10718 bound_to 10713
  153.7247  135.3248  155.3274 H   0  0  0  0  0  0  0  0  0  0  0  0  # atno 10763 bound_to 10752
  154.8345  135.4508  154.1182 H   0  0  0  0  0  0  0  0  0  0  0  0  # atno 10764 bound_to 10752
  153.2312  135.6960  153.7968 H   0  0  0  0  0  0  0  0  0  0  0  0  # atno 10765 bound_to 10752
  141.1292  133.6623  156.5242 H   0  0  0  0  0  0  0  0  0  0  0  0  # atno 11005 bound_to 11000
  145.7499  139.1790  143.2327 LP  0  0  0  0  0  0  0  0  0  0  0  0  # atno 17320 bound_to 7965
  146.1069  140.7476  142.9522 LP  0  0  0  0  0  0  0  0  0  0  0  0  # atno 17321 bound_to 7965
  140.7579  143.5998  150.8711 LP  0  0  0  0  0  0  0  0  0  0  0  0  # atno 17342 bound_to 10162
  139.9655  143.6115  152.2989 LP  0  0  0  0  0  0  0  0  0  0  0  0  # atno 17343 bound_to 10162
  156.5013  130.4118  149.6351 LP  0  0  0  0  0  0  0  0  0  0  0  0  # atno 17370 bound_to 10713
  156.3325  130.7339  151.2271 LP  0  0  0  0  0  0  0  0  0  0  0  0  # atno 17371 bound_to 10713
  140.4267  134.7138  157.4920 LP  0  0  0  0  0  0  0  0  0  0  0  0  # atno 17394 bound_to 11000
  140.0322  134.6390  155.9092 LP  0  0  0  0  0  0  0  0  0  0  0  0  # atno 17395 bound_to 11000

$$$$
