AV-unprocessed.smi:148|AV-procd|sdf|1231|dock4
  -GOLD-   2262018433D 1   1.00000     0.00000
 Structure written by MMmdl.
 63 67  0  0  0  0  0  0  0  0  1 V2000
  147.2705  129.3416  151.5889 O   0  0  0  0  0  0  0  0  0  0  0  0
  146.1888  129.8627  152.3342 C   0  0  0  0  0  0  0  0  0  0  0  0
  146.4625  131.3215  152.7877 C   0  0  1  0  0  0  0  0  0  0  0  0
  147.7577  131.4265  153.6385 C   0  0  0  0  0  0  0  0  0  0  0  0
  147.5420  131.9826  154.9627 N   0  0  0  0  0  0  0  0  0  0  0  0
  146.3360  132.3360  155.5235 C   0  0  0  0  0  0  0  0  0  0  0  0
  146.4076  132.8173  156.7343 N   0  0  0  0  0  0  0  0  0  0  0  0
  147.7655  132.7936  157.0307 C   0  0  0  0  0  0  0  0  0  0  0  0
  148.5492  133.1791  158.1563 C   0  0  0  0  0  0  0  0  0  0  0  0
  148.0614  133.7119  159.3013 N   0  0  0  0  0  0  0  0  0  0  0  0
  148.4854  135.1096  159.4020 C   0  0  0  0  0  0  0  0  0  0  0  0
  147.7652  135.8409  160.5423 C   0  0  0  0  0  0  0  0  0  0  0  0
  147.9518  135.0852  161.8613 C   0  0  0  0  0  0  0  0  0  0  0  0
  147.4620  133.6409  161.7001 C   0  0  0  0  0  0  0  0  0  0  0  0
  148.1910  132.9166  160.5378 C   0  0  1  0  0  0  0  0  0  0  0  0
  147.7532  131.4239  160.3767 C   0  0  1  0  0  0  0  0  0  0  0  0
  148.1665  130.5085  161.5451 C   0  0  0  0  0  0  0  0  0  0  0  0
  147.1124  129.3919  161.6217 C   0  0  0  0  0  0  0  0  0  0  0  0
  146.1353  129.6444  160.4701 C   0  0  0  0  0  0  0  0  0  0  0  0
  146.2522  131.1423  160.1903 C   0  0  2  0  0  0  0  0  0  0  0  0
  145.7959  131.4467  158.8894 O   0  0  0  0  0  0  0  0  0  0  0  0
  149.8892  132.9794  158.0945 N   0  0  0  0  0  0  0  0  0  0  0  0
  150.4389  132.4603  156.9926 C   0  0  0  0  0  0  0  0  0  0  0  0
  149.8407  132.0725  155.8643 N   0  0  0  0  0  0  0  0  0  0  0  0
  148.4913  132.2577  155.9302 C   0  0  0  0  0  0  0  0  0  0  0  0
  146.4601  132.3363  151.6024 C   0  0  1  0  0  0  0  0  0  0  0  0
  145.2235  132.2764  150.7111 C   0  0  0  0  0  0  0  0  0  0  0  0
  144.2065  133.1464  151.4500 C   0  0  0  0  0  0  0  0  0  0  0  0
  144.9702  134.0339  152.2597 O   0  0  0  0  0  0  0  0  0  0  0  0
  146.3543  133.8076  152.0291 C   0  0  0  0  0  0  0  0  0  0  0  0
  147.6706  130.0493  151.1067 H   0  0  0  0  0  0  0  0  0  0  0  0
  145.2833  129.7894  151.7357 H   0  0  0  0  0  0  0  0  0  0  0  0
  146.0106  129.2104  153.1889 H   0  0  0  0  0  0  0  0  0  0  0  0
  145.6359  131.5911  153.4464 H   0  0  0  0  0  0  0  0  0  0  0  0
  148.2124  130.4413  153.7498 H   0  0  0  0  0  0  0  0  0  0  0  0
  148.4996  132.0565  153.1511 H   0  0  0  0  0  0  0  0  0  0  0  0
  145.3965  132.2315  155.0004 H   0  0  0  0  0  0  0  0  0  0  0  0
  149.5637  135.1447  159.5660 H   0  0  0  0  0  0  0  0  0  0  0  0
  148.2917  135.6314  158.4632 H   0  0  0  0  0  0  0  0  0  0  0  0
  148.1463  136.8583  160.6340 H   0  0  0  0  0  0  0  0  0  0  0  0
  146.7023  135.9249  160.3118 H   0  0  0  0  0  0  0  0  0  0  0  0
  149.0035  135.0915  162.1500 H   0  0  0  0  0  0  0  0  0  0  0  0
  147.4022  135.5830  162.6606 H   0  0  0  0  0  0  0  0  0  0  0  0
  147.6013  133.1146  162.6428 H   0  0  0  0  0  0  0  0  0  0  0  0
  146.3881  133.6682  161.5171 H   0  0  0  0  0  0  0  0  0  0  0  0
  149.2504  132.9116  160.7940 H   0  0  0  0  0  0  0  0  0  0  0  0
  148.2593  130.9921  159.5130 H   0  0  0  0  0  0  0  0  0  0  0  0
  149.1657  130.1030  161.3820 H   0  0  0  0  0  0  0  0  0  0  0  0
  148.1970  131.0395  162.4953 H   0  0  0  0  0  0  0  0  0  0  0  0
  147.5596  128.3995  161.5577 H   0  0  0  0  0  0  0  0  0  0  0  0
  146.5857  129.4511  162.5749 H   0  0  0  0  0  0  0  0  0  0  0  0
  146.4557  129.0748  159.5960 H   0  0  0  0  0  0  0  0  0  0  0  0
  145.1160  129.3389  160.7083 H   0  0  0  0  0  0  0  0  0  0  0  0
  145.6507  131.6806  160.9213 H   0  0  0  0  0  0  0  0  0  0  0  0
  144.9827  131.9240  158.9602 H   0  0  0  0  0  0  0  0  0  0  0  0
  151.5119  132.3403  157.0177 H   0  0  0  0  0  0  0  0  0  0  0  0
  147.3626  132.1851  151.0086 H   0  0  0  0  0  0  0  0  0  0  0  0
  145.4559  132.7385  149.7503 H   0  0  0  0  0  0  0  0  0  0  0  0
  144.8475  131.2795  150.4920 H   0  0  0  0  0  0  0  0  0  0  0  0
  143.5627  133.6946  150.7615 H   0  0  0  0  0  0  0  0  0  0  0  0
  143.5725  132.5404  152.0981 H   0  0  0  0  0  0  0  0  0  0  0  0
  146.9540  134.0852  152.8931 H   0  0  0  0  0  0  0  0  0  0  0  0
  146.6703  134.4535  151.2082 H   0  0  0  0  0  0  0  0  0  0  0  0
  1  2  1  0  0  0  0
  1 31  1  0  0  0  0
  2  3  1  0  0  0  0
  2 32  1  0  0  0  0
  2 33  1  0  0  0  0
  3  4  1  0  0  0  0
  3 26  1  0  0  0  0
  3 34  1  0  0  0  0
  4  5  1  0  0  0  0
  4 35  1  0  0  0  0
  4 36  1  0  0  0  0
  5 25  1  0  0  0  0
  5  6  1  0  0  0  0
  6  7  2  0  0  0  0
  6 37  1  0  0  0  0
  7  8  1  0  0  0  0
  8 25  2  0  0  0  0
  8  9  1  0  0  0  0
  9 10  1  0  0  0  0
  9 22  2  0  0  0  0
 10 15  1  0  0  0  0
 10 11  1  0  0  0  0
 11 12  1  0  0  0  0
 11 38  1  0  0  0  0
 11 39  1  0  0  0  0
 12 13  1  0  0  0  0
 12 40  1  0  0  0  0
 12 41  1  0  0  0  0
 13 14  1  0  0  0  0
 13 42  1  0  0  0  0
 13 43  1  0  0  0  0
 14 15  1  0  0  0  0
 14 44  1  0  0  0  0
 14 45  1  0  0  0  0
 15 16  1  0  0  0  0
 15 46  1  0  0  0  0
 16 20  1  0  0  0  0
 16 17  1  0  0  0  0
 16 47  1  0  0  0  0
 17 18  1  0  0  0  0
 17 48  1  0  0  0  0
 17 49  1  0  0  0  0
 18 19  1  0  0  0  0
 18 50  1  0  0  0  0
 18 51  1  0  0  0  0
 19 20  1  0  0  0  0
 19 52  1  0  0  0  0
 19 53  1  0  0  0  0
 20 21  1  0  0  0  0
 20 54  1  0  0  0  0
 21 55  1  0  0  0  0
 22 23  1  0  0  0  0
 23 24  2  0  0  0  0
 23 56  1  0  0  0  0
 24 25  1  0  0  0  0
 26 30  1  0  0  0  0
 26 27  1  0  0  0  0
 26 57  1  0  0  0  0
 27 28  1  0  0  0  0
 27 58  1  0  0  0  0
 27 59  1  0  0  0  0
 28 29  1  0  0  0  0
 28 60  1  0  0  0  0
 28 61  1  0  0  0  0
 29 30  1  0  0  0  0
 30 62  1  0  0  0  0
 30 63  1  0  0  0  0
M  END
> <s_m_source_file>
AV-unprocessed.smi

> <i_m_source_file_index>
148

> <i_lp_mmshare_version>
43012

> <i_f3d_flags>
0

> <s_epik_input>
W0NIMl0xT1tDSDJdW0NIMl1bQ0BIXTFbQ0BIXShbQ0gyXVtPSF0pW0NIMl1uKFtjSF1uMiljKGMyMyluW2NIXW5jM040W0NIMl1bQ0gyXVtDSDJdW0NIMl1bQ0BIXTRbQ0BASF01W0NIMl1bQ0gyXVtDSDJdW0NASF01W09IXQ==

> <s_epik_cmdline>
J2VwaWtfcHl0aG9uJywgJy1waCcsICc3LjAnLCAnLXRuJywgJzgnLCAnLW1hJywgJzIwMCcsICctbWV0YWxfYmluZGluZycsICctaW1hZScsICc8aW5maWxlLm1hZT4nLCAnLW9tYWUnLCAnPG91dGZpbGUubWFlPic=

> <r_lp_tautomer_probability>
1

> <r_epik_Ionization_Penalty>
0.00556303

> <r_epik_Ionization_Penalty_Charging>
0

> <r_epik_Ionization_Penalty_Neutral>
0.00556303

> <r_epik_State_Penalty>
0.00401767

> <r_epik_Charging_Adjusted_Penalty>
0.00401767

> <i_epik_Tot_Q>
0

> <i_epik_Tot_abs_Q>
0

> <r_epik_Metal_State_Penalty>
-0

> <b_epik_Metal_Only>
0

> <s_lp_Force_Field>
OPLS_2005

> <r_lp_Energy>
69.9352

> <b_lp_Chiralities_Consistent>
1

> <s_lp_Variant>
AV-unprocessed.smi:148-30

> <Gold.Version>
5.8.1

> <Gold.Id.Protein>
6NUR|6NUR_protein|mol2

> <Gold.PLP.Fitness>
43.4758

> <Gold.PLP.PLP>
-36.0941

> <Gold.PLP.part.hbond>
-2.0000

> <Gold.PLP.part.metal>
0.0000

> <Gold.PLP.part.buried>
-6.7014

> <Gold.PLP.part.nonpolar>
-27.6093

> <Gold.PLP.part.repulsive>
0.1548

> <Gold.PLP.ligand.clash>
0.0000

> <Gold.PLP.ligand.torsion>
1.0438

> <Gold.PLP.Chemscore.Hbond>
2.0000

> <Gold.PLP.Chemscore.CHOScore>
1.0000

> <Gold.PLP.Chemscore.Metal>
0.0000

> <Gold.Chemscore.Hbonds>
donor molecule, donor type, donor heavy atom, donor atom, acceptor molecule, acceptor atom, score
      L1  H     1    31       P1 10747  1.00
      P1  H  6896  6909       L1    22  1.00
      L1  C     6    37       P1 10957  0.45

> <Gold.PLP.Chemscore.Internal.Correction>
0.4693

> <Gold.Rescore>
     Score         DG    S(hbond)    S(metal)    S(lipo)     H(rot)  DE(clash)    DE(int)     intcor
     13.56     -14.68       1.94        0.00      95.84       3.32       0.00       1.11       ----

> <Gold.Chemscore.Fitness>
13.5627

> <Gold.Chemscore.DG>
-14.6770

> <Gold.Chemscore.ZeroCoef>
-5.4800

> <Gold.Chemscore.Hbond>
1.9411

> <Gold.Chemscore.Metal>
0.0000

> <Gold.Chemscore.Lipo>
95.8421

> <Gold.Chemscore.Internal_Hbond>
0.0000

> <Gold.Chemscore.DEClash>
0.0000

> <Gold.Chemscore.DEInternal>
1.1143

> <Gold.Chemscore.Rot>
3.3203

> <Gold.Chemscore.Internal.Correction>
   9.000000E+99

> <Gold.Chemscore.Hbonds>
donor molecule, donor type, donor heavy atom, donor atom, acceptor molecule, acceptor atom, score
      L1  H     1    31       P1 10747  0.97
      P1  H  6896  6909       L1    22  0.93

> <Gold.Chemscore.Hbond.Weighted>
-6.4834

> <Gold.Chemscore.Metal.Weighted>
-0.0000

> <Gold.Chemscore.Lipo.Weighted>
-11.2135

> <Gold.Chemscore.Internal_Hbond.Weighted>
0.0000

> <Gold.Chemscore.DEClash.Weighted>
0.0000

> <Gold.Chemscore.DEInternal.Weighted>
1.1143

> <Gold.Chemscore.Rot.Weighted>
8.5000

> <Gold.Chemscore.Internal.Correction.Weighted>
   9.000000E+99

> <Gold.Protein.RotatedTorsions>
[ 6907 6896 6895 6894 ] final  -12.31 input  -60.11 | X-H torsion
[ 7974 7965 7964 7962 ] final   -0.51 input  175.53 | X-H torsion
[ 8008 7997 7996 7995 ] final  135.78 input   59.86 | X-H torsion
[ 10167 10162 10161 10158 ] final -106.57 input  -65.29 | X-H torsion
[ 10718 10713 10712 10709 ] final  150.80 input   66.30 | X-H torsion
[ 10763 10752 10751 10750 ] final  -65.99 input  -60.55 | X-H torsion
[ 11005 11000 10999 10996 ] final   27.48 input  -57.11 | X-H torsion

> <Gold.Protein.ActiveResidues>
 VAL166  LYS551  ARG553  GLY616  TRP617  ASP618  TYR619  PRO620  LYS621  CYS622 
 ASP623  PHE694  ASN695  SER759  ASP760  ASP761  ALA762  ILE779  LEU786  VAL792 
 PHE793  MET794  SER795  GLU796  ALA797  LYS798  CYS799  TRP800  GLU811  SER814 

> <Gold.Protein.RotatedAtoms>
  151.3726  135.0925  159.9470 H   0  0  0  0  0  0  0  0  0  0  0  0  # atno 6907 bound_to 6896
  152.5131  133.9150  159.7517 H   0  0  0  0  0  0  0  0  0  0  0  0  # atno 6908 bound_to 6896
  150.9567  133.6435  159.2791 H   0  0  0  0  0  0  0  0  0  0  0  0  # atno 6909 bound_to 6896
  146.2426  140.1281  142.8338 H   0  0  0  0  0  0  0  0  0  0  0  0  # atno 7974 bound_to 7965
  156.3003  140.2462  156.3637 H   0  0  0  0  0  0  0  0  0  0  0  0  # atno 8008 bound_to 7997
  154.8853  140.0411  157.1826 H   0  0  0  0  0  0  0  0  0  0  0  0  # atno 8009 bound_to 7997
  154.8654  140.2927  155.5518 H   0  0  0  0  0  0  0  0  0  0  0  0  # atno 8010 bound_to 7997
  140.1863  143.3927  152.1241 H   0  0  0  0  0  0  0  0  0  0  0  0  # atno 10167 bound_to 10162
  157.2788  131.0831  151.1546 H   0  0  0  0  0  0  0  0  0  0  0  0  # atno 10718 bound_to 10713
  154.3532  135.6132  153.5653 H   0  0  0  0  0  0  0  0  0  0  0  0  # atno 10763 bound_to 10752
  152.9797  135.5797  154.4719 H   0  0  0  0  0  0  0  0  0  0  0  0  # atno 10764 bound_to 10752
  154.4444  135.2851  155.1803 H   0  0  0  0  0  0  0  0  0  0  0  0  # atno 10765 bound_to 10752
  140.3258  134.2493  155.7710 H   0  0  0  0  0  0  0  0  0  0  0  0  # atno 11005 bound_to 11000
  145.0349  140.8900  143.5087 LP  0  0  0  0  0  0  0  0  0  0  0  0  # atno 17320 bound_to 7965
  145.1352  139.2607  143.5519 LP  0  0  0  0  0  0  0  0  0  0  0  0  # atno 17321 bound_to 7965
  139.5274  144.7119  151.5178 LP  0  0  0  0  0  0  0  0  0  0  0  0  # atno 17342 bound_to 10162
  140.6486  143.8744  150.6762 LP  0  0  0  0  0  0  0  0  0  0  0  0  # atno 17343 bound_to 10162
  157.2988  130.6833  149.6153 LP  0  0  0  0  0  0  0  0  0  0  0  0  # atno 17370 bound_to 10713
  155.9664  130.4398  150.5274 LP  0  0  0  0  0  0  0  0  0  0  0  0  # atno 17371 bound_to 10713
  141.2075  133.7802  157.0112 LP  0  0  0  0  0  0  0  0  0  0  0  0  # atno 17394 bound_to 11000
  140.0903  134.9596  157.1765 LP  0  0  0  0  0  0  0  0  0  0  0  0  # atno 17395 bound_to 11000

$$$$
