AV-unprocessed.smi:2124|AV-procd|sdf|8661|dock9
  -GOLD-   2272011413D 1   1.00000     0.00000
 Structure written by MMmdl.
 47 49  0  0  0  0  0  0  0  0  1 V2000
  143.6164  143.8271  162.5479 C   0  0  0  0  0  0  0  0  0  0  0  0
  144.4047  143.4904  161.3009 C   0  0  0  0  0  0  0  0  0  0  0  0
  143.6127  143.1346  160.2215 N   0  0  0  0  0  0  0  0  0  0  0  0
  144.2448  142.8130  159.0334 C   0  0  0  0  0  0  0  0  0  0  0  0
  143.3061  142.4341  157.9012 C   0  0  0  0  0  0  0  0  0  0  0  0
  145.5976  142.8416  158.9273 C   0  0  0  0  0  0  0  0  0  0  0  0
  146.3343  142.4876  157.6356 C   0  0  0  0  0  0  0  0  0  0  0  0
  147.6524  141.7253  157.7957 C   0  0  0  0  0  0  0  0  0  0  0  0
  147.6614  140.5660  158.2108 O   0  0  0  0  0  0  0  0  0  0  0  0
  148.7638  142.3961  157.4561 N   0  0  0  0  0  0  0  0  0  0  0  0
  150.1269  141.8730  157.5330 C   0  0  1  0  0  0  0  0  0  0  0  0
  150.8359  142.1268  156.1896 C   0  0  0  0  0  0  0  0  0  0  0  0
  150.8650  142.5192  158.7319 C   0  0  1  0  0  0  0  0  0  0  0  0
  152.3763  142.1786  158.7944 C   0  0  0  0  0  0  0  0  0  0  0  0
  153.0501  143.5592  158.8774 C   0  0  2  0  0  0  0  0  0  0  0  0
  152.7516  144.2009  160.2446 C   0  0  0  0  0  0  0  0  0  0  0  0
  151.2639  144.5792  160.1222 C   0  0  0  0  0  0  0  0  0  0  0  0
  150.8975  144.0690  158.7149 C   0  0  1  0  0  0  0  0  0  0  0  0
  152.1749  144.3795  157.9404 C   0  0  0  0  0  0  0  0  0  0  0  0
  146.3918  143.2232  160.1187 C   0  0  0  0  0  0  0  0  0  0  0  0
  147.6214  143.2551  160.0900 O   0  0  0  0  0  0  0  0  0  0  0  0
  145.7017  143.5470  161.2982 N   0  0  0  0  0  0  0  0  0  0  0  0
  142.6041  143.0987  160.2579 H   0  0  0  0  0  0  0  0  0  0  0  0
  144.2827  144.0515  163.3821 H   0  0  0  0  0  0  0  0  0  0  0  0
  142.9819  142.9883  162.8357 H   0  0  0  0  0  0  0  0  0  0  0  0
  142.9835  144.6974  162.3725 H   0  0  0  0  0  0  0  0  0  0  0  0
  143.5315  141.4313  157.5376 H   0  0  0  0  0  0  0  0  0  0  0  0
  143.4088  143.1332  157.0713 H   0  0  0  0  0  0  0  0  0  0  0  0
  142.2635  142.4473  158.2216 H   0  0  0  0  0  0  0  0  0  0  0  0
  146.5227  143.3847  157.0450 H   0  0  0  0  0  0  0  0  0  0  0  0
  145.6715  141.8824  157.0168 H   0  0  0  0  0  0  0  0  0  0  0  0
  148.6602  143.3450  157.1270 H   0  0  0  0  0  0  0  0  0  0  0  0
  150.0814  140.7955  157.6992 H   0  0  0  0  0  0  0  0  0  0  0  0
  151.8272  141.6766  156.1624 H   0  0  0  0  0  0  0  0  0  0  0  0
  150.9487  143.1939  155.9959 H   0  0  0  0  0  0  0  0  0  0  0  0
  150.2721  141.6982  155.3600 H   0  0  0  0  0  0  0  0  0  0  0  0
  150.3797  142.1762  159.6474 H   0  0  0  0  0  0  0  0  0  0  0  0
  152.6236  141.5436  159.6459 H   0  0  0  0  0  0  0  0  0  0  0  0
  152.7100  141.6632  157.8927 H   0  0  0  0  0  0  0  0  0  0  0  0
  154.1103  143.5436  158.6231 H   0  0  0  0  0  0  0  0  0  0  0  0
  152.9411  143.5162  161.0719 H   0  0  0  0  0  0  0  0  0  0  0  0
  153.3619  145.0916  160.3993 H   0  0  0  0  0  0  0  0  0  0  0  0
  150.6518  144.1287  160.9043 H   0  0  0  0  0  0  0  0  0  0  0  0
  151.1390  145.6608  160.1848 H   0  0  0  0  0  0  0  0  0  0  0  0
  150.0005  144.5417  158.3174 H   0  0  0  0  0  0  0  0  0  0  0  0
  152.4288  145.4409  157.9306 H   0  0  0  0  0  0  0  0  0  0  0  0
  152.1683  144.0057  156.9153 H   0  0  0  0  0  0  0  0  0  0  0  0
  1 24  1  0  0  0  0
  1 25  1  0  0  0  0
  1 26  1  0  0  0  0
  1  2  1  0  0  0  0
  2  3  1  0  0  0  0
  2 22  2  0  0  0  0
  3  4  1  0  0  0  0
  3 23  1  0  0  0  0
  4  6  2  0  0  0  0
  4  5  1  0  0  0  0
  5 27  1  0  0  0  0
  5 28  1  0  0  0  0
  5 29  1  0  0  0  0
  6 20  1  0  0  0  0
  6  7  1  0  0  0  0
  7  8  1  0  0  0  0
  7 30  1  0  0  0  0
  7 31  1  0  0  0  0
  8  9  2  0  0  0  0
  8 10  1  0  0  0  0
 10 11  1  0  0  0  0
 10 32  1  0  0  0  0
 11 12  1  0  0  0  0
 11 13  1  0  0  0  0
 11 33  1  0  0  0  0
 12 34  1  0  0  0  0
 12 35  1  0  0  0  0
 12 36  1  0  0  0  0
 13 18  1  0  0  0  0
 13 14  1  0  0  0  0
 13 37  1  0  0  0  0
 14 15  1  0  0  0  0
 14 38  1  0  0  0  0
 14 39  1  0  0  0  0
 15 19  1  0  0  0  0
 15 16  1  0  0  0  0
 15 40  1  0  0  0  0
 16 17  1  0  0  0  0
 16 41  1  0  0  0  0
 16 42  1  0  0  0  0
 17 18  1  0  0  0  0
 17 43  1  0  0  0  0
 17 44  1  0  0  0  0
 18 19  1  0  0  0  0
 18 45  1  0  0  0  0
 19 46  1  0  0  0  0
 19 47  1  0  0  0  0
 20 21  2  0  0  0  0
 20 22  1  0  0  0  0
M  END
> <s_m_source_file>
AV-unprocessed.smi

> <i_m_source_file_index>
2124

> <i_lp_mmshare_version>
43012

> <i_f3d_flags>
0

> <s_epik_input>
W0NIM11jMW5jKFtDSDNdKWMoYyg9TylbbkhdMSlbQ0gyXUMoPU8pW05IXVtDQEhdKFtDSDNdKVtDQEhdKFtDSDJdW0NASF0yMylbQ0BIXShbQ0gyXTMpW0NIMl1bQ0gyXTI=

> <s_epik_cmdline>
J2VwaWtfcHl0aG9uJywgJy1waCcsICc3LjAnLCAnLXRuJywgJzgnLCAnLW1hJywgJzIwMCcsICctbWV0YWxfYmluZGluZycsICctaW1hZScsICc8aW5maWxlLm1hZT4nLCAnLW9tYWUnLCAnPG91dGZpbGUubWFlPic=

> <r_lp_tautomer_probability>
0.156392

> <r_epik_Ionization_Penalty>
0.0139374

> <r_epik_Ionization_Penalty_Charging>
0.0138122

> <r_epik_Ionization_Penalty_Neutral>
0.000125146

> <r_epik_State_Penalty>
1.15342

> <r_epik_Charging_Adjusted_Penalty>
1.16723

> <i_epik_Tot_Q>
0

> <i_epik_Tot_abs_Q>
0

> <r_epik_Metal_State_Penalty>
1.3173

> <b_epik_Metal_Only>
0

> <s_lp_Force_Field>
OPLS_2005

> <r_lp_Energy>
56.04

> <b_lp_Chiralities_Consistent>
1

> <s_lp_Variant>
AV-unprocessed.smi:2124-12

> <Gold.Version>
5.8.1

> <Gold.Id.Protein>
6NUR|6NUR_protein|mol2

> <Gold.PLP.Fitness>
44.5536

> <Gold.PLP.PLP>
-39.6585

> <Gold.PLP.part.hbond>
-3.2280

> <Gold.PLP.part.metal>
0.0000

> <Gold.PLP.part.buried>
-6.9271

> <Gold.PLP.part.nonpolar>
-29.5734

> <Gold.PLP.part.repulsive>
0.1937

> <Gold.PLP.ligand.clash>
0.0000

> <Gold.PLP.ligand.torsion>
0.5653

> <Gold.PLP.Chemscore.Hbond>
2.0000

> <Gold.PLP.Chemscore.CHOScore>
0.0000

> <Gold.PLP.Chemscore.Metal>
0.0000

> <Gold.Chemscore.Hbonds>
donor molecule, donor type, donor heavy atom, donor atom, acceptor molecule, acceptor atom, score
      L1  H    10    32       P1  8028  1.00
      P1  H  6933  6944       L1    21  1.00

> <Gold.PLP.Chemscore.Internal.Correction>
0.0257

> <Gold.Rescore>
     Score         DG    S(hbond)    S(metal)    S(lipo)     H(rot)  DE(clash)    DE(int)     intcor
     16.93     -18.66       1.58        0.00     103.83       1.65       0.02       1.71       ----

> <Gold.Chemscore.Fitness>
16.9268

> <Gold.Chemscore.DG>
-18.6590

> <Gold.Chemscore.ZeroCoef>
-5.4800

> <Gold.Chemscore.Hbond>
1.5760

> <Gold.Chemscore.Metal>
0.0000

> <Gold.Chemscore.Lipo>
103.8268

> <Gold.Chemscore.Internal_Hbond>
0.0000

> <Gold.Chemscore.DEClash>
0.0198

> <Gold.Chemscore.DEInternal>
1.7124

> <Gold.Chemscore.Rot>
1.6534

> <Gold.Chemscore.Internal.Correction>
   9.000000E+99

> <Gold.Chemscore.Hbonds>
donor molecule, donor type, donor heavy atom, donor atom, acceptor molecule, acceptor atom, score
      L1  H    10    32       P1  8028  0.32
      P1  H  6933  6944       L1    21  0.90

> <Gold.Chemscore.Hbond.Weighted>
-5.2639

> <Gold.Chemscore.Metal.Weighted>
-0.0000

> <Gold.Chemscore.Lipo.Weighted>
-12.1477

> <Gold.Chemscore.Internal_Hbond.Weighted>
0.0000

> <Gold.Chemscore.DEClash.Weighted>
0.0198

> <Gold.Chemscore.DEInternal.Weighted>
1.7124

> <Gold.Chemscore.Rot.Weighted>
4.2326

> <Gold.Chemscore.Internal.Correction.Weighted>
   9.000000E+99

> <Gold.Protein.RotatedTorsions>
[ 6907 6896 6895 6894 ] final -115.22 input  -60.11 | X-H torsion
[ 7974 7965 7964 7962 ] final  -22.59 input  175.53 | X-H torsion
[ 8008 7997 7996 7995 ] final -111.49 input   59.86 | X-H torsion
[ 10167 10162 10161 10158 ] final  -60.82 input  -65.29 | X-H torsion
[ 10718 10713 10712 10709 ] final   42.53 input   66.30 | X-H torsion
[ 10763 10752 10751 10750 ] final  121.51 input  -60.55 | X-H torsion
[ 11005 11000 10999 10996 ] final  139.87 input  -57.11 | X-H torsion

> <Gold.Protein.ActiveResidues>
 VAL166  LYS551  ARG553  GLY616  TRP617  ASP618  TYR619  PRO620  LYS621  CYS622 
 ASP623  PHE694  ASN695  SER759  ASP760  ASP761  ALA762  ILE779  LEU786  VAL792 
 PHE793  MET794  SER795  GLU796  ALA797  LYS798  CYS799  TRP800  GLU811  SER814 

> <Gold.Protein.RotatedAtoms>
  150.7961  133.8689  159.3252 H   0  0  0  0  0  0  0  0  0  0  0  0  # atno 6907 bound_to 6896
  151.6514  135.0999  160.0171 H   0  0  0  0  0  0  0  0  0  0  0  0  # atno 6908 bound_to 6896
  152.4043  133.6825  159.6378 H   0  0  0  0  0  0  0  0  0  0  0  0  # atno 6909 bound_to 6896
  146.1666  140.4500  142.8549 H   0  0  0  0  0  0  0  0  0  0  0  0  # atno 7974 bound_to 7965
  154.9907  140.0395  157.2318 H   0  0  0  0  0  0  0  0  0  0  0  0  # atno 8008 bound_to 7997
  154.7631  140.2788  155.6175 H   0  0  0  0  0  0  0  0  0  0  0  0  # atno 8009 bound_to 7997
  156.2907  140.2624  156.2415 H   0  0  0  0  0  0  0  0  0  0  0  0  # atno 8010 bound_to 7997
  140.6047  143.2370  151.5849 H   0  0  0  0  0  0  0  0  0  0  0  0  # atno 10167 bound_to 10162
  157.4058  130.7886  149.7388 H   0  0  0  0  0  0  0  0  0  0  0  0  # atno 10718 bound_to 10713
  153.6152  135.3423  155.2992 H   0  0  0  0  0  0  0  0  0  0  0  0  # atno 10763 bound_to 10752
  154.8611  135.4260  154.2266 H   0  0  0  0  0  0  0  0  0  0  0  0  # atno 10764 bound_to 10752
  153.3126  135.7032  153.7174 H   0  0  0  0  0  0  0  0  0  0  0  0  # atno 10765 bound_to 10752
  140.0286  134.9363  157.0618 H   0  0  0  0  0  0  0  0  0  0  0  0  # atno 11005 bound_to 11000
  144.8102  140.6372  143.6420 LP  0  0  0  0  0  0  0  0  0  0  0  0  # atno 17320 bound_to 7965
  145.4450  139.1530  143.3949 LP  0  0  0  0  0  0  0  0  0  0  0  0  # atno 17321 bound_to 7965
  139.5316  144.2900  152.1160 LP  0  0  0  0  0  0  0  0  0  0  0  0  # atno 17342 bound_to 10162
  140.2087  144.4584  150.6396 LP  0  0  0  0  0  0  0  0  0  0  0  0  # atno 17343 bound_to 10162
  155.9836  130.3999  150.3354 LP  0  0  0  0  0  0  0  0  0  0  0  0  # atno 17370 bound_to 10713
  157.1487  131.0315  151.2895 LP  0  0  0  0  0  0  0  0  0  0  0  0  # atno 17371 bound_to 10713
  140.4264  134.1827  155.7166 LP  0  0  0  0  0  0  0  0  0  0  0  0  # atno 17394 bound_to 11000
  141.1818  133.8398  157.1232 LP  0  0  0  0  0  0  0  0  0  0  0  0  # atno 17395 bound_to 11000

$$$$
