AV-unprocessed.smi:199|AV-procd|sdf|1566|dock3
  -GOLD-   2262019443D 1   1.00000     0.00000
 Structure written by MMmdl.
 51 55  0  0  0  0  0  0  0  0  1 V2000
  146.3731  130.0885  152.2495 C   0  0  0  0  0  0  0  0  0  0  0  0
  145.8110  131.5155  152.1420 C   0  0  2  0  0  0  0  0  0  0  0  0
  145.4488  131.8151  150.7942 O   0  0  0  0  0  0  0  0  0  0  0  0
  146.1462  132.9683  150.3454 C   0  0  0  0  0  0  0  0  0  0  0  0
  146.4234  133.7586  151.6170 C   0  0  0  0  0  0  0  0  0  0  0  0
  146.7307  132.6612  152.6269 C   0  0  2  0  0  0  0  0  0  0  0  0
  148.0980  132.3053  152.4941 O   0  0  0  0  0  0  0  0  0  0  0  0
  146.4706  133.0673  154.0971 C   0  0  0  0  0  0  0  0  0  0  0  0
  147.1930  134.2639  154.5005 N   0  0  0  0  0  0  0  0  0  0  0  0
  146.6612  135.5148  154.7101 C   0  0  0  0  0  0  0  0  0  0  0  0
  147.5218  136.4311  155.0567 N   0  0  0  0  0  0  0  0  0  0  0  0
  148.7417  135.7646  155.1070 C   0  0  0  0  0  0  0  0  0  0  0  0
  150.0834  136.1434  155.4148 C   0  0  0  0  0  0  0  0  0  0  0  0
  150.4884  137.3988  155.7558 N   0  0  0  0  0  0  0  0  0  0  0  0
  151.4835  138.1307  154.9859 C   0  0  2  0  0  0  0  0  0  0  0  0
  151.7274  139.3726  155.8610 C   0  0  0  0  0  0  0  0  0  0  0  0
  150.3285  139.6083  156.4477 C   0  0  0  0  0  0  0  0  0  0  0  0
  149.5218  138.4893  155.7635 C   0  0  1  0  0  0  0  0  0  0  0  0
  149.3061  138.7753  154.2528 C   0  0  1  0  0  0  0  0  0  0  0  0
  148.6681  140.1241  153.8707 C   0  0  0  0  0  0  0  0  0  0  0  0
  149.6329  141.1533  153.9162 O   0  0  0  0  0  0  0  0  0  0  0  0
  150.7314  138.5619  153.7098 C   0  0  0  0  0  0  0  0  0  0  0  0
  151.0336  135.1746  155.3353 N   0  0  0  0  0  0  0  0  0  0  0  0
  150.7070  133.9246  154.9982 C   0  0  0  0  0  0  0  0  0  0  0  0
  149.5064  133.4308  154.6951 N   0  0  0  0  0  0  0  0  0  0  0  0
  148.5458  134.3956  154.7599 C   0  0  0  0  0  0  0  0  0  0  0  0
  146.6607  129.8570  153.2755 H   0  0  0  0  0  0  0  0  0  0  0  0
  147.2481  129.9510  151.6133 H   0  0  0  0  0  0  0  0  0  0  0  0
  145.6272  129.3561  151.9409 H   0  0  0  0  0  0  0  0  0  0  0  0
  144.8775  131.5522  152.7049 H   0  0  0  0  0  0  0  0  0  0  0  0
  147.0791  132.6596  149.8718 H   0  0  0  0  0  0  0  0  0  0  0  0
  145.5631  133.5320  149.6168 H   0  0  0  0  0  0  0  0  0  0  0  0
  147.2255  134.4889  151.5007 H   0  0  0  0  0  0  0  0  0  0  0  0
  145.5195  134.2961  151.9074 H   0  0  0  0  0  0  0  0  0  0  0  0
  148.2172  131.8761  151.6605 H   0  0  0  0  0  0  0  0  0  0  0  0
  145.4069  133.2511  154.2552 H   0  0  0  0  0  0  0  0  0  0  0  0
  146.7420  132.2518  154.7691 H   0  0  0  0  0  0  0  0  0  0  0  0
  145.6096  135.7303  154.5889 H   0  0  0  0  0  0  0  0  0  0  0  0
  152.4122  137.5987  154.7878 H   0  0  0  0  0  0  0  0  0  0  0  0
  152.4442  139.1583  156.6548 H   0  0  0  0  0  0  0  0  0  0  0  0
  152.0982  140.2247  155.2903 H   0  0  0  0  0  0  0  0  0  0  0  0
  150.3440  139.4546  157.5276 H   0  0  0  0  0  0  0  0  0  0  0  0
  149.9431  140.6107  156.2682 H   0  0  0  0  0  0  0  0  0  0  0  0
  148.5938  138.2716  156.2932 H   0  0  0  0  0  0  0  0  0  0  0  0
  148.6700  137.9866  153.8465 H   0  0  0  0  0  0  0  0  0  0  0  0
  148.2064  140.0961  152.8844 H   0  0  0  0  0  0  0  0  0  0  0  0
  147.8739  140.3688  154.5765 H   0  0  0  0  0  0  0  0  0  0  0  0
  149.7499  141.4155  154.8167 H   0  0  0  0  0  0  0  0  0  0  0  0
  151.1623  139.4561  153.2579 H   0  0  0  0  0  0  0  0  0  0  0  0
  150.7407  137.7710  152.9587 H   0  0  0  0  0  0  0  0  0  0  0  0
  151.5252  133.2204  154.9643 H   0  0  0  0  0  0  0  0  0  0  0  0
  1  2  1  0  0  0  0
  1 27  1  0  0  0  0
  1 28  1  0  0  0  0
  1 29  1  0  0  0  0
  2  6  1  0  0  0  0
  2  3  1  0  0  0  0
  2 30  1  0  0  0  0
  3  4  1  0  0  0  0
  4  5  1  0  0  0  0
  4 31  1  0  0  0  0
  4 32  1  0  0  0  0
  5  6  1  0  0  0  0
  5 33  1  0  0  0  0
  5 34  1  0  0  0  0
  6  7  1  0  0  0  0
  6  8  1  0  0  0  0
  7 35  1  0  0  0  0
  8  9  1  0  0  0  0
  8 36  1  0  0  0  0
  8 37  1  0  0  0  0
  9 26  1  0  0  0  0
  9 10  1  0  0  0  0
 10 11  2  0  0  0  0
 10 38  1  0  0  0  0
 11 12  1  0  0  0  0
 12 26  2  0  0  0  0
 12 13  1  0  0  0  0
 13 14  1  0  0  0  0
 13 23  2  0  0  0  0
 14 18  1  0  0  0  0
 14 15  1  0  0  0  0
 15 22  1  0  0  0  0
 15 16  1  0  0  0  0
 15 39  1  0  0  0  0
 16 17  1  0  0  0  0
 16 40  1  0  0  0  0
 16 41  1  0  0  0  0
 17 18  1  0  0  0  0
 17 42  1  0  0  0  0
 17 43  1  0  0  0  0
 18 19  1  0  0  0  0
 18 44  1  0  0  0  0
 19 20  1  0  0  0  0
 19 22  1  0  0  0  0
 19 45  1  0  0  0  0
 20 21  1  0  0  0  0
 20 46  1  0  0  0  0
 20 47  1  0  0  0  0
 21 48  1  0  0  0  0
 22 49  1  0  0  0  0
 22 50  1  0  0  0  0
 23 24  1  0  0  0  0
 24 25  2  0  0  0  0
 24 51  1  0  0  0  0
 25 26  1  0  0  0  0
M  END
> <s_m_source_file>
AV-unprocessed.smi

> <i_m_source_file_index>
199

> <i_lp_mmshare_version>
43012

> <i_f3d_flags>
0

> <s_epik_input>
W0NIMl0xW0NIMl1PW0NAQEhdKFtDSDNdKVtDQEBdMShbT0hdKVtDSDJdbihbY0hdbjIpYyhjMjMpbltjSF1uYzNOKFtDQEBIXTQ1KVtDQEhdKFtDSDJdW0NIMl00KVtDQEhdKFtDSDJdNSlbQ0gyXVtPSF0=

> <s_epik_cmdline>
J2VwaWtfcHl0aG9uJywgJy1waCcsICc3LjAnLCAnLXRuJywgJzgnLCAnLW1hJywgJzIwMCcsICctbWV0YWxfYmluZGluZycsICctaW1hZScsICc8aW5maWxlLm1hZT4nLCAnLW9tYWUnLCAnPG91dGZpbGUubWFlPic=

> <r_lp_tautomer_probability>
1

> <r_epik_Ionization_Penalty>
0.00583903

> <r_epik_Ionization_Penalty_Charging>
0

> <r_epik_Ionization_Penalty_Neutral>
0.00583903

> <r_epik_State_Penalty>
-0

> <r_epik_Charging_Adjusted_Penalty>
0

> <i_epik_Tot_Q>
0

> <i_epik_Tot_abs_Q>
0

> <r_epik_Metal_State_Penalty>
-0

> <b_epik_Metal_Only>
0

> <s_lp_Force_Field>
OPLS_2005

> <r_lp_Energy>
84.6661

> <b_lp_Chiralities_Consistent>
1

> <s_lp_Variant>
AV-unprocessed.smi:199-7

> <Gold.Version>
5.8.1

> <Gold.Id.Protein>
6NUR|6NUR_protein|mol2

> <Gold.PLP.Fitness>
40.6559

> <Gold.PLP.PLP>
-32.4473

> <Gold.PLP.part.hbond>
-4.9921

> <Gold.PLP.part.metal>
0.0000

> <Gold.PLP.part.buried>
-3.6525

> <Gold.PLP.part.nonpolar>
-23.7665

> <Gold.PLP.part.repulsive>
0.3960

> <Gold.PLP.ligand.clash>
0.0000

> <Gold.PLP.ligand.torsion>
0.3933

> <Gold.PLP.Chemscore.Hbond>
2.9809

> <Gold.PLP.Chemscore.CHOScore>
0.0000

> <Gold.PLP.Chemscore.Metal>
0.0000

> <Gold.Chemscore.Hbonds>
donor molecule, donor type, donor heavy atom, donor atom, acceptor molecule, acceptor atom, score
      L1  H     7    35       P1 10747  1.00
      P1  H  7989  7998       L1    21  0.30
      P1  H  8011  8017       L1    21  0.85
      P1  H 10752 10764       L1    23  0.92

> <Gold.PLP.Chemscore.Internal.Correction>
0.0526

> <Gold.Rescore>
     Score         DG    S(hbond)    S(metal)    S(lipo)     H(rot)  DE(clash)    DE(int)     intcor
      9.58     -12.89       1.83        0.00      78.32       3.07       0.75       2.56       ----

> <Gold.Chemscore.Fitness>
9.5762

> <Gold.Chemscore.DG>
-12.8882

> <Gold.Chemscore.ZeroCoef>
-5.4800

> <Gold.Chemscore.Hbond>
1.8299

> <Gold.Chemscore.Metal>
0.0000

> <Gold.Chemscore.Lipo>
78.3158

> <Gold.Chemscore.Internal_Hbond>
0.0000

> <Gold.Chemscore.DEClash>
0.7539

> <Gold.Chemscore.DEInternal>
2.5581

> <Gold.Chemscore.Rot>
3.0729

> <Gold.Chemscore.Internal.Correction>
   9.000000E+99

> <Gold.Chemscore.Hbonds>
donor molecule, donor type, donor heavy atom, donor atom, acceptor molecule, acceptor atom, score
      L1  H     7    35       P1 10747  1.00
      P1  H  7989  7998       L1    21  0.05
      P1  H  8011  8017       L1    21  0.75
      P1  H 10752 10764       L1    23  0.54

> <Gold.Chemscore.Hbond.Weighted>
-6.1119

> <Gold.Chemscore.Metal.Weighted>
-0.0000

> <Gold.Chemscore.Lipo.Weighted>
-9.1630

> <Gold.Chemscore.Internal_Hbond.Weighted>
0.0000

> <Gold.Chemscore.DEClash.Weighted>
0.7539

> <Gold.Chemscore.DEInternal.Weighted>
2.5581

> <Gold.Chemscore.Rot.Weighted>
7.8667

> <Gold.Chemscore.Internal.Correction.Weighted>
   9.000000E+99

> <Gold.Protein.RotatedTorsions>
[ 6907 6896 6895 6894 ] final -177.92 input  -60.11 | X-H torsion
[ 7974 7965 7964 7962 ] final   13.04 input  175.53 | X-H torsion
[ 8008 7997 7996 7995 ] final  -19.13 input   59.86 | X-H torsion
[ 10167 10162 10161 10158 ] final   92.41 input  -65.29 | X-H torsion
[ 10718 10713 10712 10709 ] final   91.81 input   66.30 | X-H torsion
[ 10763 10752 10751 10750 ] final  -45.27 input  -60.55 | X-H torsion
[ 11005 11000 10999 10996 ] final  -48.75 input  -57.11 | X-H torsion

> <Gold.Protein.ActiveResidues>
 VAL166  LYS551  ARG553  GLY616  TRP617  ASP618  TYR619  PRO620  LYS621  CYS622 
 ASP623  PHE694  ASN695  SER759  ASP760  ASP761  ALA762  ILE779  LEU786  VAL792 
 PHE793  MET794  SER795  GLU796  ALA797  LYS798  CYS799  TRP800  GLU811  SER814 

> <Gold.Protein.RotatedAtoms>
  151.6289  133.3333  159.3104 H   0  0  0  0  0  0  0  0  0  0  0  0  # atno 6907 bound_to 6896
  150.8067  134.7200  159.6662 H   0  0  0  0  0  0  0  0  0  0  0  0  # atno 6908 bound_to 6896
  152.4162  134.6041  160.0059 H   0  0  0  0  0  0  0  0  0  0  0  0  # atno 6909 bound_to 6896
  146.2338  139.9247  142.8505 H   0  0  0  0  0  0  0  0  0  0  0  0  # atno 7974 bound_to 7965
  154.4858  140.2097  155.9659 H   0  0  0  0  0  0  0  0  0  0  0  0  # atno 8008 bound_to 7997
  156.1233  140.3209  155.8210 H   0  0  0  0  0  0  0  0  0  0  0  0  # atno 8009 bound_to 7997
  155.4428  140.0511  157.2999 H   0  0  0  0  0  0  0  0  0  0  0  0  # atno 8010 bound_to 7997
  139.8279  144.6701  150.9436 H   0  0  0  0  0  0  0  0  0  0  0  0  # atno 10167 bound_to 10162
  157.6960  131.0421  150.3787 H   0  0  0  0  0  0  0  0  0  0  0  0  # atno 10718 bound_to 10713
  154.0259  135.6663  153.4776 H   0  0  0  0  0  0  0  0  0  0  0  0  # atno 10763 bound_to 10752
  153.0561  135.5055  154.7979 H   0  0  0  0  0  0  0  0  0  0  0  0  # atno 10764 bound_to 10752
  154.6909  135.3061  154.9446 H   0  0  0  0  0  0  0  0  0  0  0  0  # atno 10765 bound_to 10752
  141.0719  133.6676  156.3486 H   0  0  0  0  0  0  0  0  0  0  0  0  # atno 11005 bound_to 11000
  145.2102  140.9892  143.4105 LP  0  0  0  0  0  0  0  0  0  0  0  0  # atno 17320 bound_to 7965
  144.9698  139.3892  143.6315 LP  0  0  0  0  0  0  0  0  0  0  0  0  # atno 17321 bound_to 7965
  140.7809  143.4028  151.1120 LP  0  0  0  0  0  0  0  0  0  0  0  0  # atno 17342 bound_to 10162
  139.7684  143.8530  152.3115 LP  0  0  0  0  0  0  0  0  0  0  0  0  # atno 17343 bound_to 10162
  156.4203  130.3951  149.6830 LP  0  0  0  0  0  0  0  0  0  0  0  0  # atno 17370 bound_to 10713
  156.4083  130.7709  151.2721 LP  0  0  0  0  0  0  0  0  0  0  0  0  # atno 17371 bound_to 10713
  140.5655  134.5892  157.5444 LP  0  0  0  0  0  0  0  0  0  0  0  0  # atno 17394 bound_to 11000
  139.9532  134.7580  156.0401 LP  0  0  0  0  0  0  0  0  0  0  0  0  # atno 17395 bound_to 11000

$$$$
