AV-unprocessed.smi:258|AV-procd|sdf|1969|dock1
  -GOLD-   2262021123D 1   1.00000     0.00000
 Structure written by MMmdl.
 57 60  0  0  0  0  0  0  0  0  1 V2000
  156.1377  139.9595  158.8466 O   0  0  0  0  0  0  0  0  0  0  0  0
  155.7116  140.9781  159.7263 C   0  0  0  0  0  0  0  0  0  0  0  0
  154.4283  140.5505  160.4491 C   0  0  0  0  0  0  0  0  0  0  0  0
  153.5323  141.6518  160.4887 O   0  0  0  0  0  0  0  0  0  0  0  0
  153.0908  142.1013  159.2143 C   0  0  2  0  0  0  0  0  0  0  0  0
  152.2141  143.3621  159.3442 C   0  0  0  0  0  0  0  0  0  0  0  0
  151.6292  143.7441  157.9762 C   0  0  0  0  0  0  0  0  0  0  0  0
  150.8599  142.5683  157.3524 C   0  0  0  0  0  0  0  0  0  0  0  0
  151.6908  141.3637  157.3073 N   0  0  0  0  0  0  0  0  0  0  0  0
  151.3066  140.4047  156.4243 C   0  0  0  0  0  0  0  0  0  0  0  0
  150.6458  140.8146  155.3096 N   0  0  0  0  0  0  0  0  0  0  0  0
  150.2510  139.9315  154.3886 C   0  0  0  0  0  0  0  0  0  0  0  0
  150.4103  138.6079  154.3803 N   0  0  0  0  0  0  0  0  0  0  0  0
  151.0650  138.1839  155.4982 C   0  0  0  0  0  0  0  0  0  0  0  0
  151.5453  139.0027  156.5617 C   0  0  0  0  0  0  0  0  0  0  0  0
  152.1500  138.2003  157.5251 N   0  0  0  0  0  0  0  0  0  0  0  0
  152.0425  136.9881  157.0557 C   0  0  0  0  0  0  0  0  0  0  0  0
  151.3995  136.8871  155.8442 N   0  0  0  0  0  0  0  0  0  0  0  0
  151.1415  135.6720  155.0926 C   0  0  0  0  0  0  0  0  0  0  0  0
  149.7344  135.0739  155.3380 C   0  0  2  0  0  0  0  0  0  0  0  0
  149.5290  134.5844  156.7950 C   0  0  0  0  0  0  0  0  0  0  0  0
  150.5056  133.6334  157.1658 O   0  0  0  0  0  0  0  0  0  0  0  0
  149.4326  133.9841  154.2774 C   0  0  1  0  0  0  0  0  0  0  0  0
  150.4060  132.8117  154.2236 C   0  0  0  0  0  0  0  0  0  0  0  0
  149.5360  131.7008  153.6531 C   0  0  0  0  0  0  0  0  0  0  0  0
  148.2967  131.9052  154.3109 O   0  0  0  0  0  0  0  0  0  0  0  0
  148.0562  133.3061  154.3967 C   0  0  0  0  0  0  0  0  0  0  0  0
  152.2847  140.9550  158.5793 C   0  0  0  0  0  0  0  0  0  0  0  0
  156.7650  139.4156  159.2981 H   0  0  0  0  0  0  0  0  0  0  0  0
  156.5082  141.1393  160.4527 H   0  0  0  0  0  0  0  0  0  0  0  0
  155.5710  141.9154  159.1872 H   0  0  0  0  0  0  0  0  0  0  0  0
  153.9872  139.6749  159.9718 H   0  0  0  0  0  0  0  0  0  0  0  0
  154.6758  140.2690  161.4736 H   0  0  0  0  0  0  0  0  0  0  0  0
  153.9494  142.3117  158.5735 H   0  0  0  0  0  0  0  0  0  0  0  0
  151.4046  143.1771  160.0515 H   0  0  0  0  0  0  0  0  0  0  0  0
  152.7895  144.1989  159.7388 H   0  0  0  0  0  0  0  0  0  0  0  0
  150.9712  144.6075  158.0775 H   0  0  0  0  0  0  0  0  0  0  0  0
  152.4360  144.0461  157.3072 H   0  0  0  0  0  0  0  0  0  0  0  0
  149.9682  142.3527  157.9420 H   0  0  0  0  0  0  0  0  0  0  0  0
  150.5153  142.8575  156.3594 H   0  0  0  0  0  0  0  0  0  0  0  0
  149.7352  140.3455  153.5346 H   0  0  0  0  0  0  0  0  0  0  0  0
  152.4260  136.1296  157.5872 H   0  0  0  0  0  0  0  0  0  0  0  0
  151.2732  135.9049  154.0353 H   0  0  0  0  0  0  0  0  0  0  0  0
  151.9115  134.9417  155.3446 H   0  0  0  0  0  0  0  0  0  0  0  0
  149.0083  135.8678  155.1553 H   0  0  0  0  0  0  0  0  0  0  0  0
  149.6016  135.4077  157.5045 H   0  0  0  0  0  0  0  0  0  0  0  0
  148.5380  134.1482  156.9236 H   0  0  0  0  0  0  0  0  0  0  0  0
  150.4848  132.9217  156.5443 H   0  0  0  0  0  0  0  0  0  0  0  0
  149.4498  134.4601  153.2952 H   0  0  0  0  0  0  0  0  0  0  0  0
  151.2851  133.0155  153.6116 H   0  0  0  0  0  0  0  0  0  0  0  0
  150.7463  132.5247  155.2182 H   0  0  0  0  0  0  0  0  0  0  0  0
  149.4050  131.8187  152.5763 H   0  0  0  0  0  0  0  0  0  0  0  0
  149.9367  130.7056  153.8477 H   0  0  0  0  0  0  0  0  0  0  0  0
  147.5375  133.5354  155.3270 H   0  0  0  0  0  0  0  0  0  0  0  0
  147.4063  133.6157  153.5773 H   0  0  0  0  0  0  0  0  0  0  0  0
  152.9443  140.0995  158.4284 H   0  0  0  0  0  0  0  0  0  0  0  0
  151.4902  140.6407  159.2575 H   0  0  0  0  0  0  0  0  0  0  0  0
  1  2  1  0  0  0  0
  1 29  1  0  0  0  0
  2  3  1  0  0  0  0
  2 30  1  0  0  0  0
  2 31  1  0  0  0  0
  3  4  1  0  0  0  0
  3 32  1  0  0  0  0
  3 33  1  0  0  0  0
  4  5  1  0  0  0  0
  5 28  1  0  0  0  0
  5  6  1  0  0  0  0
  5 34  1  0  0  0  0
  6  7  1  0  0  0  0
  6 35  1  0  0  0  0
  6 36  1  0  0  0  0
  7  8  1  0  0  0  0
  7 37  1  0  0  0  0
  7 38  1  0  0  0  0
  8  9  1  0  0  0  0
  8 39  1  0  0  0  0
  8 40  1  0  0  0  0
  9 10  1  0  0  0  0
  9 28  1  0  0  0  0
 10 15  1  0  0  0  0
 10 11  2  0  0  0  0
 11 12  1  0  0  0  0
 12 13  2  0  0  0  0
 12 41  1  0  0  0  0
 13 14  1  0  0  0  0
 14 18  1  0  0  0  0
 14 15  2  0  0  0  0
 15 16  1  0  0  0  0
 16 17  2  0  0  0  0
 17 18  1  0  0  0  0
 17 42  1  0  0  0  0
 18 19  1  0  0  0  0
 19 20  1  0  0  0  0
 19 43  1  0  0  0  0
 19 44  1  0  0  0  0
 20 21  1  0  0  0  0
 20 23  1  0  0  0  0
 20 45  1  0  0  0  0
 21 22  1  0  0  0  0
 21 46  1  0  0  0  0
 21 47  1  0  0  0  0
 22 48  1  0  0  0  0
 23 27  1  0  0  0  0
 23 24  1  0  0  0  0
 23 49  1  0  0  0  0
 24 25  1  0  0  0  0
 24 50  1  0  0  0  0
 24 51  1  0  0  0  0
 25 26  1  0  0  0  0
 25 52  1  0  0  0  0
 25 53  1  0  0  0  0
 26 27  1  0  0  0  0
 27 54  1  0  0  0  0
 27 55  1  0  0  0  0
 28 56  1  0  0  0  0
 28 57  1  0  0  0  0
M  END
> <s_m_source_file>
AV-unprocessed.smi

> <i_m_source_file_index>
258

> <i_lp_mmshare_version>
43012

> <i_f3d_flags>
0

> <s_epik_input>
W09IXVtDSDJdW0NIMl1PW0NAQEhdMVtDSDJdW0NIMl1bQ0gyXU4oW0NIMl0xKWMobltjSF1uMiljKGMyMyluW2NIXW4zW0NIMl1bQ0BIXShbQ0gyXVtPSF0pW0NAQEhdNFtDSDJdW0NIMl1PW0NIMl00

> <s_epik_cmdline>
J2VwaWtfcHl0aG9uJywgJy1waCcsICc3LjAnLCAnLXRuJywgJzgnLCAnLW1hJywgJzIwMCcsICctbWV0YWxfYmluZGluZycsICctaW1hZScsICc8aW5maWxlLm1hZT4nLCAnLW9tYWUnLCAnPG91dGZpbGUubWFlPic=

> <r_lp_tautomer_probability>
1

> <r_epik_Ionization_Penalty>
0.00349036

> <r_epik_Ionization_Penalty_Charging>
0

> <r_epik_Ionization_Penalty_Neutral>
0.00349036

> <r_epik_State_Penalty>
0.00229798

> <r_epik_Charging_Adjusted_Penalty>
0.00229798

> <i_epik_Tot_Q>
0

> <i_epik_Tot_abs_Q>
0

> <r_epik_Metal_State_Penalty>
-0

> <b_epik_Metal_Only>
0

> <s_lp_Force_Field>
OPLS_2005

> <r_lp_Energy>
47.936

> <b_lp_Chiralities_Consistent>
1

> <s_lp_Variant>
AV-unprocessed.smi:258-5

> <Gold.Version>
5.8.1

> <Gold.Id.Protein>
6NUR|6NUR_protein|mol2

> <Gold.PLP.Fitness>
52.2393

> <Gold.PLP.PLP>
-44.3624

> <Gold.PLP.part.hbond>
-3.0000

> <Gold.PLP.part.metal>
0.0000

> <Gold.PLP.part.buried>
-4.5000

> <Gold.PLP.part.nonpolar>
-37.5070

> <Gold.PLP.part.repulsive>
0.2680

> <Gold.PLP.ligand.clash>
0.0000

> <Gold.PLP.ligand.torsion>
0.9420

> <Gold.PLP.Chemscore.Hbond>
2.0000

> <Gold.PLP.Chemscore.CHOScore>
1.0000

> <Gold.PLP.Chemscore.Metal>
0.0000

> <Gold.Chemscore.Hbonds>
donor molecule, donor type, donor heavy atom, donor atom, acceptor molecule, acceptor atom, score
      P1  H  6896  6908       L1    22  0.51
      P1  H  7997  8009       L1     1  1.00
      L1  C    12    41       P1  7957  1.00

> <Gold.PLP.Chemscore.Internal.Correction>
0.7609

> <Gold.Rescore>
     Score         DG    S(hbond)    S(metal)    S(lipo)     H(rot)  DE(clash)    DE(int)     intcor
     11.37     -14.06       1.91        0.00     105.05       3.94       0.47       2.23       ----

> <Gold.Chemscore.Fitness>
11.3659

> <Gold.Chemscore.DG>
-14.0622

> <Gold.Chemscore.ZeroCoef>
-5.4800

> <Gold.Chemscore.Hbond>
1.9062

> <Gold.Chemscore.Metal>
0.0000

> <Gold.Chemscore.Lipo>
105.0485

> <Gold.Chemscore.Internal_Hbond>
0.0000

> <Gold.Chemscore.DEClash>
0.4665

> <Gold.Chemscore.DEInternal>
2.2298

> <Gold.Chemscore.Rot>
3.9356

> <Gold.Chemscore.Internal.Correction>
   9.000000E+99

> <Gold.Chemscore.Hbonds>
donor molecule, donor type, donor heavy atom, donor atom, acceptor molecule, acceptor atom, score
      P1  H  6896  6908       L1    22  0.23
      P1  H  7997  8009       L1     1  0.93

> <Gold.Chemscore.Hbond.Weighted>
-6.3666

> <Gold.Chemscore.Metal.Weighted>
-0.0000

> <Gold.Chemscore.Lipo.Weighted>
-12.2907

> <Gold.Chemscore.Internal_Hbond.Weighted>
0.0000

> <Gold.Chemscore.DEClash.Weighted>
0.4665

> <Gold.Chemscore.DEInternal.Weighted>
2.2298

> <Gold.Chemscore.Rot.Weighted>
10.0751

> <Gold.Chemscore.Internal.Correction.Weighted>
   9.000000E+99

> <Gold.Protein.RotatedTorsions>
[ 6907 6896 6895 6894 ] final  129.35 input  -60.11 | X-H torsion
[ 7974 7965 7964 7962 ] final -124.35 input  175.53 | X-H torsion
[ 8008 7997 7996 7995 ] final   79.37 input   59.86 | X-H torsion
[ 10167 10162 10161 10158 ] final   57.82 input  -65.29 | X-H torsion
[ 10718 10713 10712 10709 ] final  -13.84 input   66.30 | X-H torsion
[ 10763 10752 10751 10750 ] final  -42.54 input  -60.55 | X-H torsion
[ 11005 11000 10999 10996 ] final   -8.56 input  -57.11 | X-H torsion

> <Gold.Protein.ActiveResidues>
 VAL166  LYS551  ARG553  GLY616  TRP617  ASP618  TYR619  PRO620  LYS621  CYS622 
 ASP623  PHE694  ASN695  SER759  ASP760  ASP761  ALA762  ILE779  LEU786  VAL792 
 PHE793  MET794  SER795  GLU796  ALA797  LYS798  CYS799  TRP800  GLU811  SER814 

> <Gold.Protein.RotatedAtoms>
  152.3632  133.6323  159.6030 H   0  0  0  0  0  0  0  0  0  0  0  0  # atno 6907 bound_to 6896
  150.7616  133.9390  159.3459 H   0  0  0  0  0  0  0  0  0  0  0  0  # atno 6908 bound_to 6896
  151.7224  135.0892  160.0337 H   0  0  0  0  0  0  0  0  0  0  0  0  # atno 6909 bound_to 6896
  145.0090  140.7889  143.4450 H   0  0  0  0  0  0  0  0  0  0  0  0  # atno 7974 bound_to 7965
  155.8688  140.3450  155.5807 H   0  0  0  0  0  0  0  0  0  0  0  0  # atno 8008 bound_to 7997
  155.7851  140.0864  157.2058 H   0  0  0  0  0  0  0  0  0  0  0  0  # atno 8009 bound_to 7997
  154.4016  140.1493  156.3084 H   0  0  0  0  0  0  0  0  0  0  0  0  # atno 8010 bound_to 7997
  140.1939  144.4058  150.6559 H   0  0  0  0  0  0  0  0  0  0  0  0  # atno 10167 bound_to 10162
  156.6245  130.4884  149.6152 H   0  0  0  0  0  0  0  0  0  0  0  0  # atno 10718 bound_to 10713
  153.9807  135.6717  153.4750 H   0  0  0  0  0  0  0  0  0  0  0  0  # atno 10763 bound_to 10752
  153.0750  135.4954  154.8381 H   0  0  0  0  0  0  0  0  0  0  0  0  # atno 10764 bound_to 10752
  154.7166  135.3108  154.9075 H   0  0  0  0  0  0  0  0  0  0  0  0  # atno 10765 bound_to 10752
  140.7248  133.8798  155.8848 H   0  0  0  0  0  0  0  0  0  0  0  0  # atno 11005 bound_to 11000
  145.2049  139.2233  143.5173 LP  0  0  0  0  0  0  0  0  0  0  0  0  # atno 17320 bound_to 7965
  146.3466  140.1875  142.8589 LP  0  0  0  0  0  0  0  0  0  0  0  0  # atno 17321 bound_to 7965
  140.6437  143.2209  151.6233 LP  0  0  0  0  0  0  0  0  0  0  0  0  # atno 17342 bound_to 10162
  139.5245  144.3103  152.0999 LP  0  0  0  0  0  0  0  0  0  0  0  0  # atno 17343 bound_to 10162
  156.2284  130.6780  151.1439 LP  0  0  0  0  0  0  0  0  0  0  0  0  # atno 17370 bound_to 10713
  157.7218  131.0676  150.6104 LP  0  0  0  0  0  0  0  0  0  0  0  0  # atno 17371 bound_to 10713
  140.9972  134.1199  157.4352 LP  0  0  0  0  0  0  0  0  0  0  0  0  # atno 17394 bound_to 11000
  139.8840  135.0058  156.6337 LP  0  0  0  0  0  0  0  0  0  0  0  0  # atno 17395 bound_to 11000

$$$$
