AV-unprocessed.smi:39|AV-procd|sdf|360|dock8
  -GOLD-   2262016203D 1   1.00000     0.00000
 Structure written by MMmdl.
 31 32  0  0  0  0  0  0  0  0  4 V2000
  153.3548  135.9740  154.2529 C   0  0  0  0  0  0  0  0  0  0  0  0
  152.3477  136.4755  155.2733 C   0  0  0  0  0  0  0  0  0  0  0  0
  151.2336  137.1519  154.9149 C   0  0  0  0  0  0  0  0  0  0  0  0
  150.3168  137.6059  155.8491 N   0  0  0  0  0  0  0  0  0  0  0  0
  149.0663  138.3609  155.4432 C   0  0  2  0  0  0  0  0  0  0  0  0
  149.1679  138.8275  153.9817 C   0  0  0  0  0  0  0  0  0  0  0  0
  148.8088  140.3014  154.0786 C   0  0  2  0  0  0  0  0  0  0  0  0
  149.4306  141.1115  153.0285 N   0  0  0  0  0  0  0  0  0  0  0  0
  150.6405  141.3417  153.1541 N   0  3  0  0  0  0  0  0  0  0  0  0
  151.7193  141.6614  153.3252 N   0  5  0  0  0  0  0  0  0  0  0  0
  149.3281  140.6526  155.4729 C   0  0  1  0  0  0  0  0  0  0  0  0
  148.6926  141.9167  156.0702 C   0  0  0  0  0  0  0  0  0  0  0  0
  147.4569  141.5945  156.6709 O   0  0  0  0  0  0  0  0  0  0  0  0
  148.9267  139.5125  156.2251 O   0  0  0  0  0  0  0  0  0  0  0  0
  150.5503  137.3697  157.2293 C   0  0  0  0  0  0  0  0  0  0  0  0
  149.7215  137.7928  158.0358 O   0  0  0  0  0  0  0  0  0  0  0  0
  151.6711  136.6881  157.6001 N   0  5  0  0  0  0  0  0  0  0  0  0
  152.5837  136.2232  156.6998 C   0  0  0  0  0  0  0  0  0  0  0  0
  153.5892  135.6052  157.0480 O   0  0  0  0  0  0  0  0  0  0  0  0
  148.2330  137.6853  155.6432 H   0  0  0  0  0  0  0  0  0  0  0  0
  147.7219  140.4078  154.0667 H   0  0  0  0  0  0  0  0  0  0  0  0
  150.4172  140.7294  155.4526 H   0  0  0  0  0  0  0  0  0  0  0  0
  153.0498  136.2261  153.2371 H   0  0  0  0  0  0  0  0  0  0  0  0
  153.4536  134.8899  154.3167 H   0  0  0  0  0  0  0  0  0  0  0  0
  154.3333  136.4201  154.4324 H   0  0  0  0  0  0  0  0  0  0  0  0
  151.0685  137.3359  153.8647 H   0  0  0  0  0  0  0  0  0  0  0  0
  150.1888  138.6960  153.6178 H   0  0  0  0  0  0  0  0  0  0  0  0
  148.4900  138.2603  153.3431 H   0  0  0  0  0  0  0  0  0  0  0  0
  149.3361  142.3319  156.8464 H   0  0  0  0  0  0  0  0  0  0  0  0
  148.5576  142.6894  155.3129 H   0  0  0  0  0  0  0  0  0  0  0  0
  147.5892  141.5262  157.6044 H   0  0  0  0  0  0  0  0  0  0  0  0
  1  2  1  0  0  0  0
  1 23  1  0  0  0  0
  1 24  1  0  0  0  0
  1 25  1  0  0  0  0
  2 18  1  0  0  0  0
  2  3  2  0  0  0  0
  3  4  1  0  0  0  0
  3 26  1  0  0  0  0
  4  5  1  0  0  0  0
  4 15  1  0  0  0  0
  5 20  1  0  0  0  0
  5 14  1  0  0  0  0
  5  6  1  0  0  0  0
  6  7  1  0  0  0  0
  6 27  1  0  0  0  0
  6 28  1  0  0  0  0
  7 21  1  0  0  0  0
  7  8  1  0  0  0  0
  7 11  1  0  0  0  0
  8  9  2  0  0  0  0
  9 10  2  0  0  0  0
 11 22  1  0  0  0  0
 11 12  1  0  0  0  0
 11 14  1  0  0  0  0
 12 13  1  0  0  0  0
 12 29  1  0  0  0  0
 12 30  1  0  0  0  0
 13 31  1  0  0  0  0
 15 16  2  0  0  0  0
 15 17  1  0  0  0  0
 17 18  1  0  0  0  0
 18 19  2  0  0  0  0
M  CHG  1   9   1
M  CHG  1  10  -1
M  CHG  1  17  -1
M  END
> <s_m_source_file>
AV-unprocessed.smi

> <i_m_source_file_index>
39

> <i_lp_mmshare_version>
43012

> <i_f3d_flags>
0

> <s_epik_input>
Tz1jMVtuSF1jKD1PKW4oW2NIXWMxW0NIM10pW0NASF0yW0NIMl1bQ0BIXShOPVtOK109W04tXSlbQ0BIXShPMilbQ0gyXVtPSF0=

> <s_epik_cmdline>
J2VwaWtfcHl0aG9uJywgJy1waCcsICc3LjAnLCAnLXRuJywgJzgnLCAnLW1hJywgJzIwMCcsICctbWV0YWxfYmluZGluZycsICctaW1hZScsICc8aW5maWxlLm1hZT4nLCAnLW9tYWUnLCAnPG91dGZpbGUubWFlPic=

> <r_lp_tautomer_probability>
0.999537

> <r_epik_Ionization_Penalty>
3.6393

> <r_epik_Ionization_Penalty_Charging>
9.76484e-08

> <r_epik_Ionization_Penalty_Neutral>
3.6393

> <r_epik_State_Penalty>
3.63887

> <r_epik_Charging_Adjusted_Penalty>
3.63887

> <i_epik_Tot_Q>
-1

> <i_epik_Tot_abs_Q>
3

> <r_epik_Metal_State_Penalty>
0.225911

> <b_epik_Metal_Only>
1

> <s_epik_Chemistry_Notes>
This compound contains an acetal/aminal-like group ( X-CH(R)-Y where X, Y are N, S, or O) that may be acid/base labile, releasing an aldehyde.

> <s_lp_Force_Field>
OPLS_2005

> <r_lp_Energy>
32.3737

> <b_lp_Chiralities_Consistent>
1

> <s_lp_Variant>
AV-unprocessed.smi:39-10

> <Gold.Version>
5.8.1

> <Gold.Id.Protein>
6NUR|6NUR_protein|mol2

> <Gold.PLP.Fitness>
41.8973

> <Gold.PLP.PLP>
-27.7403

> <Gold.PLP.part.hbond>
-7.3865

> <Gold.PLP.part.metal>
0.0000

> <Gold.PLP.part.buried>
-5.1064

> <Gold.PLP.part.nonpolar>
-16.0212

> <Gold.PLP.part.repulsive>
0.2432

> <Gold.PLP.ligand.clash>
0.0000

> <Gold.PLP.ligand.torsion>
0.8515

> <Gold.PLP.Chemscore.Hbond>
5.2750

> <Gold.PLP.Chemscore.CHOScore>
0.0000

> <Gold.PLP.Chemscore.Metal>
0.0000

> <Gold.Chemscore.Hbonds>
donor molecule, donor type, donor heavy atom, donor atom, acceptor molecule, acceptor atom, score
      L1  C     3    26       P1  7949  0.50

> <Gold.PLP.Chemscore.Internal.Correction>
0.0351

> <Gold.Rescore>
     Score         DG    S(hbond)    S(metal)    S(lipo)     H(rot)  DE(clash)    DE(int)     intcor
     11.91     -14.29       3.26        0.00      41.55       2.72       0.06       2.32       ----

> <Gold.Chemscore.Fitness>
11.9137

> <Gold.Chemscore.DG>
-14.2914

> <Gold.Chemscore.ZeroCoef>
-5.4800

> <Gold.Chemscore.Hbond>
3.2638

> <Gold.Chemscore.Metal>
0.0000

> <Gold.Chemscore.Lipo>
41.5511

> <Gold.Chemscore.Internal_Hbond>
0.0000

> <Gold.Chemscore.DEClash>
0.0589

> <Gold.Chemscore.DEInternal>
2.3189

> <Gold.Chemscore.Rot>
2.7153

> <Gold.Chemscore.Internal.Correction>
   9.000000E+99

> <Gold.Chemscore.Hbond.Weighted>
-10.9012

> <Gold.Chemscore.Metal.Weighted>
-0.0000

> <Gold.Chemscore.Lipo.Weighted>
-4.8615

> <Gold.Chemscore.Internal_Hbond.Weighted>
0.0000

> <Gold.Chemscore.DEClash.Weighted>
0.0589

> <Gold.Chemscore.DEInternal.Weighted>
2.3189

> <Gold.Chemscore.Rot.Weighted>
6.9512

> <Gold.Chemscore.Internal.Correction.Weighted>
   9.000000E+99

> <Gold.Protein.RotatedTorsions>
[ 6907 6896 6895 6894 ] final  -44.40 input  -60.11 | X-H torsion
[ 7974 7965 7964 7962 ] final  -41.64 input  175.53 | X-H torsion
[ 8008 7997 7996 7995 ] final  154.48 input   59.86 | X-H torsion
[ 10167 10162 10161 10158 ] final   -2.87 input  -65.29 | X-H torsion
[ 10718 10713 10712 10709 ] final  -20.24 input   66.30 | X-H torsion
[ 10763 10752 10751 10750 ] final -125.71 input  -60.55 | X-H torsion
[ 11005 11000 10999 10996 ] final  155.23 input  -57.11 | X-H torsion

> <Gold.Protein.ActiveResidues>
 VAL166  LYS551  ARG553  GLY616  TRP617  ASP618  TYR619  PRO620  LYS621  CYS622 
 ASP623  PHE694  ASN695  SER759  ASP760  ASP761  ALA762  ILE779  LEU786  VAL792 
 PHE793  MET794  SER795  GLU796  ALA797  LYS798  CYS799  TRP800  GLU811  SER814 

> <Gold.Protein.RotatedAtoms>
  150.9332  134.8746  159.7564 H   0  0  0  0  0  0  0  0  0  0  0  0  # atno 6907 bound_to 6896
  152.5047  134.4049  159.9439 H   0  0  0  0  0  0  0  0  0  0  0  0  # atno 6908 bound_to 6896
  151.4074  133.3698  159.2774 H   0  0  0  0  0  0  0  0  0  0  0  0  # atno 6909 bound_to 6896
  146.0192  140.6871  142.9186 H   0  0  0  0  0  0  0  0  0  0  0  0  # atno 7974 bound_to 7965
  156.2529  140.1965  156.6653 H   0  0  0  0  0  0  0  0  0  0  0  0  # atno 8008 bound_to 7997
  154.6434  140.0581  156.9897 H   0  0  0  0  0  0  0  0  0  0  0  0  # atno 8009 bound_to 7997
  155.1528  140.3253  155.4430 H   0  0  0  0  0  0  0  0  0  0  0  0  # atno 8010 bound_to 7997
  140.6868  143.6606  150.8270 H   0  0  0  0  0  0  0  0  0  0  0  0  # atno 10167 bound_to 10162
  156.5345  130.4663  149.6530 H   0  0  0  0  0  0  0  0  0  0  0  0  # atno 10718 bound_to 10713
  154.8738  135.4020  154.3312 H   0  0  0  0  0  0  0  0  0  0  0  0  # atno 10763 bound_to 10752
  153.4126  135.7021  153.6354 H   0  0  0  0  0  0  0  0  0  0  0  0  # atno 10764 bound_to 10752
  153.5050  135.3719  155.2529 H   0  0  0  0  0  0  0  0  0  0  0  0  # atno 10765 bound_to 10752
  140.1562  134.8641  157.2517 H   0  0  0  0  0  0  0  0  0  0  0  0  # atno 11005 bound_to 11000
  144.6983  140.3535  143.7177 LP  0  0  0  0  0  0  0  0  0  0  0  0  # atno 17320 bound_to 7965
  145.7220  139.1712  143.2479 LP  0  0  0  0  0  0  0  0  0  0  0  0  # atno 17321 bound_to 7965
  140.0314  143.5440  152.2758 LP  0  0  0  0  0  0  0  0  0  0  0  0  # atno 17342 bound_to 10162
  139.6234  144.7633  151.2691 LP  0  0  0  0  0  0  0  0  0  0  0  0  # atno 17343 bound_to 10162
  156.3028  130.7186  151.2062 LP  0  0  0  0  0  0  0  0  0  0  0  0  # atno 17370 bound_to 10713
  157.7416  131.0502  150.5085 LP  0  0  0  0  0  0  0  0  0  0  0  0  # atno 17371 bound_to 10713
  140.2545  134.3644  155.7429 LP  0  0  0  0  0  0  0  0  0  0  0  0  # atno 17394 bound_to 11000
  141.2204  133.7335  156.8985 LP  0  0  0  0  0  0  0  0  0  0  0  0  # atno 17395 bound_to 11000

$$$$
