AV-unprocessed.smi:1801|AV-procd|sdf|7267|dock1
  -GOLD-   22720 8523D 1   1.00000     0.00000
 Structure written by MMmdl.
 38 39  0  0  0  0  0  0  0  0  2 V2000
  147.0679  140.2730  152.7919 C   0  0  0  0  0  0  0  0  0  0  0  0
  147.4812  141.2499  153.9057 C   0  0  2  0  0  0  0  0  0  0  0  0
  148.9589  141.0100  154.2948 C   0  0  0  0  0  0  0  0  0  0  0  0
  149.4764  141.9788  155.2583 N   0  0  0  0  0  0  0  0  0  0  0  0
  150.3174  141.7022  156.2657 C   0  0  0  0  0  0  0  0  0  0  0  0
  150.7629  140.5762  156.4877 O   0  0  0  0  0  0  0  0  0  0  0  0
  150.5990  142.8054  156.9807 N   0  0  0  0  0  0  0  0  0  0  0  0
  151.4837  142.9362  158.0839 C   0  0  0  0  0  0  0  0  0  0  0  0
  152.1526  141.9068  158.6271 N   0  0  0  0  0  0  0  0  0  0  0  0
  152.9542  142.3101  159.6872 N   0  0  0  0  0  0  0  0  0  0  0  0
  152.8598  143.6256  159.9006 C   0  0  0  0  0  0  0  0  0  0  0  0
  151.7853  144.5018  158.8242 S   0  0  0  0  0  0  0  0  0  0  0  0
  146.5279  141.1541  155.1203 C   0  0  0  0  0  0  0  0  0  0  0  0
  145.1774  141.6896  154.8252 N   0  3  0  0  0  0  0  0  0  0  0  0
  144.2072  141.5224  155.9252 C   0  0  0  0  0  0  0  0  0  0  0  0
  143.1369  142.5775  155.6674 C   0  0  0  0  0  0  0  0  0  0  0  0
  143.9438  143.7557  155.1308 C   0  0  0  0  0  0  0  0  0  0  0  0
  145.1376  143.1137  154.4106 C   0  0  0  0  0  0  0  0  0  0  0  0
  147.1030  139.2391  153.1369 H   0  0  0  0  0  0  0  0  0  0  0  0
  147.7321  140.3574  151.9311 H   0  0  0  0  0  0  0  0  0  0  0  0
  146.0559  140.4723  152.4389 H   0  0  0  0  0  0  0  0  0  0  0  0
  147.4134  142.2547  153.4888 H   0  0  0  0  0  0  0  0  0  0  0  0
  149.0700  140.0167  154.7309 H   0  0  0  0  0  0  0  0  0  0  0  0
  149.5908  141.0259  153.4053 H   0  0  0  0  0  0  0  0  0  0  0  0
  149.1557  142.9309  155.1583 H   0  0  0  0  0  0  0  0  0  0  0  0
  150.1324  143.6548  156.6988 H   0  0  0  0  0  0  0  0  0  0  0  0
  153.4286  144.0837  160.6961 H   0  0  0  0  0  0  0  0  0  0  0  0
  146.4403  140.1106  155.4264 H   0  0  0  0  0  0  0  0  0  0  0  0
  146.9265  141.6933  155.9802 H   0  0  0  0  0  0  0  0  0  0  0  0
  143.8020  140.5107  155.9551 H   0  0  0  0  0  0  0  0  0  0  0  0
  144.6945  141.7214  156.8814 H   0  0  0  0  0  0  0  0  0  0  0  0
  142.4420  142.2236  154.9043 H   0  0  0  0  0  0  0  0  0  0  0  0
  142.5617  142.8270  156.5595 H   0  0  0  0  0  0  0  0  0  0  0  0
  143.3565  144.4023  154.4778 H   0  0  0  0  0  0  0  0  0  0  0  0
  144.3018  144.3632  155.9635 H   0  0  0  0  0  0  0  0  0  0  0  0
  146.0597  143.6407  154.6615 H   0  0  0  0  0  0  0  0  0  0  0  0
  145.0161  143.1600  153.3279 H   0  0  0  0  0  0  0  0  0  0  0  0
  144.8084  141.1592  154.0487 H   0  0  0  0  0  0  0  0  0  0  0  0
  1  2  1  0  0  0  0
  1 19  1  0  0  0  0
  1 20  1  0  0  0  0
  1 21  1  0  0  0  0
  2  3  1  0  0  0  0
  2 13  1  0  0  0  0
  2 22  1  0  0  0  0
  3  4  1  0  0  0  0
  3 23  1  0  0  0  0
  3 24  1  0  0  0  0
  4  5  1  0  0  0  0
  4 25  1  0  0  0  0
  5  6  2  0  0  0  0
  5  7  1  0  0  0  0
  7  8  1  0  0  0  0
  7 26  1  0  0  0  0
  8 12  1  0  0  0  0
  8  9  2  0  0  0  0
  9 10  1  0  0  0  0
 10 11  2  0  0  0  0
 11 12  1  0  0  0  0
 11 27  1  0  0  0  0
 13 14  1  0  0  0  0
 13 28  1  0  0  0  0
 13 29  1  0  0  0  0
 14 18  1  0  0  0  0
 14 15  1  0  0  0  0
 14 38  1  0  0  0  0
 15 16  1  0  0  0  0
 15 30  1  0  0  0  0
 15 31  1  0  0  0  0
 16 17  1  0  0  0  0
 16 32  1  0  0  0  0
 16 33  1  0  0  0  0
 17 18  1  0  0  0  0
 17 34  1  0  0  0  0
 17 35  1  0  0  0  0
 18 36  1  0  0  0  0
 18 37  1  0  0  0  0
M  CHG  1  14   1
M  END
> <s_m_source_file>
AV-unprocessed.smi

> <i_m_source_file_index>
1801

> <i_lp_mmshare_version>
43012

> <i_f3d_flags>
0

> <s_epik_input>
W0NIMl0xW0NIMl1bQ0gyXVtDSDJdTjFbQ0gyXVtDQEhdKFtDSDNdKVtDSDJdW05IXUMoPU8pW05IXWMybm5bY0hdczI=

> <s_epik_cmdline>
J2VwaWtfcHl0aG9uJywgJy1waCcsICc3LjAnLCAnLXRuJywgJzgnLCAnLW1hJywgJzIwMCcsICctbWV0YWxfYmluZGluZycsICctaW1hZScsICc8aW5maWxlLm1hZT4nLCAnLW9tYWUnLCAnPG91dGZpbGUubWFlPic=

> <r_lp_tautomer_probability>
1

> <r_epik_Ionization_Penalty>
0.00281598

> <r_epik_Ionization_Penalty_Charging>
0.000371708

> <r_epik_Ionization_Penalty_Neutral>
0.00244427

> <r_epik_State_Penalty>
-0

> <r_epik_Charging_Adjusted_Penalty>
0.000371708

> <i_epik_Tot_Q>
1

> <i_epik_Tot_abs_Q>
1

> <r_epik_Metal_State_Penalty>
0.350595

> <b_epik_Metal_Only>
0

> <s_lp_Force_Field>
OPLS_2005

> <r_lp_Energy>
28.9171

> <b_lp_Chiralities_Consistent>
1

> <s_lp_Variant>
AV-unprocessed.smi:1801-1

> <Gold.Version>
5.8.1

> <Gold.Id.Protein>
6NUR|6NUR_protein|mol2

> <Gold.PLP.Fitness>
46.8628

> <Gold.PLP.PLP>
-35.3048

> <Gold.PLP.part.hbond>
-3.0000

> <Gold.PLP.part.metal>
0.0000

> <Gold.PLP.part.buried>
-5.4140

> <Gold.PLP.part.nonpolar>
-28.6762

> <Gold.PLP.part.repulsive>
0.2611

> <Gold.PLP.ligand.clash>
0.0000

> <Gold.PLP.ligand.torsion>
0.2403

> <Gold.PLP.Chemscore.Hbond>
4.0000

> <Gold.PLP.Chemscore.CHOScore>
0.0000

> <Gold.PLP.Chemscore.Metal>
0.0000

> <Gold.Chemscore.Hbonds>
donor molecule, donor type, donor heavy atom, donor atom, acceptor molecule, acceptor atom, score
      L1  H     4    25       P1  8028  1.00
      L1  H     7    26       P1  8028  1.00
      L1  H    14    38       P1 10175  1.98

> <Gold.PLP.Chemscore.Internal.Correction>
0.0387

> <Gold.Rescore>
     Score         DG    S(hbond)    S(metal)    S(lipo)     H(rot)  DE(clash)    DE(int)     intcor
     15.70     -17.54       2.69        0.00      69.23       1.97       0.31       1.53       ----

> <Gold.Chemscore.Fitness>
15.7008

> <Gold.Chemscore.DG>
-17.5360

> <Gold.Chemscore.ZeroCoef>
-5.4800

> <Gold.Chemscore.Hbond>
2.6921

> <Gold.Chemscore.Metal>
0.0000

> <Gold.Chemscore.Lipo>
69.2251

> <Gold.Chemscore.Internal_Hbond>
0.0000

> <Gold.Chemscore.DEClash>
0.3101

> <Gold.Chemscore.DEInternal>
1.5251

> <Gold.Chemscore.Rot>
1.9667

> <Gold.Chemscore.Internal.Correction>
   9.000000E+99

> <Gold.Chemscore.Hbonds>
donor molecule, donor type, donor heavy atom, donor atom, acceptor molecule, acceptor atom, score
      L1  H     4    25       P1  8028  0.99
      L1  H     7    26       P1  8028  0.98
      L1  H    14    38       P1 10175  0.69

> <Gold.Chemscore.Hbond.Weighted>
-8.9915

> <Gold.Chemscore.Metal.Weighted>
-0.0000

> <Gold.Chemscore.Lipo.Weighted>
-8.0993

> <Gold.Chemscore.Internal_Hbond.Weighted>
0.0000

> <Gold.Chemscore.DEClash.Weighted>
0.3101

> <Gold.Chemscore.DEInternal.Weighted>
1.5251

> <Gold.Chemscore.Rot.Weighted>
5.0348

> <Gold.Chemscore.Internal.Correction.Weighted>
   9.000000E+99

> <Gold.Protein.RotatedTorsions>
[ 6907 6896 6895 6894 ] final  -90.45 input  -60.11 | X-H torsion
[ 7974 7965 7964 7962 ] final  -99.18 input  175.53 | X-H torsion
[ 8008 7997 7996 7995 ] final   -4.23 input   59.86 | X-H torsion
[ 10167 10162 10161 10158 ] final  139.26 input  -65.29 | X-H torsion
[ 10718 10713 10712 10709 ] final  117.19 input   66.30 | X-H torsion
[ 10763 10752 10751 10750 ] final   78.64 input  -60.55 | X-H torsion
[ 11005 11000 10999 10996 ] final  141.53 input  -57.11 | X-H torsion

> <Gold.Protein.ActiveResidues>
 VAL166  LYS551  ARG553  GLY616  TRP617  ASP618  TYR619  PRO620  LYS621  CYS622 
 ASP623  PHE694  ASN695  SER759  ASP760  ASP761  ALA762  ILE779  LEU786  VAL792 
 PHE793  MET794  SER795  GLU796  ALA797  LYS798  CYS799  TRP800  GLU811  SER814 

> <Gold.Protein.RotatedAtoms>
  150.6882  134.2430  159.4479 H   0  0  0  0  0  0  0  0  0  0  0  0  # atno 6907 bound_to 6896
  152.0373  134.9730  160.0582 H   0  0  0  0  0  0  0  0  0  0  0  0  # atno 6908 bound_to 6896
  152.1246  133.4338  159.4728 H   0  0  0  0  0  0  0  0  0  0  0  0  # atno 6909 bound_to 6896
  145.3109  140.9400  143.2770 H   0  0  0  0  0  0  0  0  0  0  0  0  # atno 7974 bound_to 7965
  154.6165  140.2489  155.7603 H   0  0  0  0  0  0  0  0  0  0  0  0  # atno 8008 bound_to 7997
  156.2402  140.2935  156.0371 H   0  0  0  0  0  0  0  0  0  0  0  0  # atno 8009 bound_to 7997
  155.1966  140.0393  157.2900 H   0  0  0  0  0  0  0  0  0  0  0  0  # atno 8010 bound_to 7997
  139.5084  144.6305  151.5830 H   0  0  0  0  0  0  0  0  0  0  0  0  # atno 10167 bound_to 10162
  157.6112  131.1034  150.7580 H   0  0  0  0  0  0  0  0  0  0  0  0  # atno 10718 bound_to 10713
  153.0890  135.4869  154.8653 H   0  0  0  0  0  0  0  0  0  0  0  0  # atno 10763 bound_to 10752
  154.7246  135.3047  154.8994 H   0  0  0  0  0  0  0  0  0  0  0  0  # atno 10764 bound_to 10752
  153.9648  135.6808  153.4799 H   0  0  0  0  0  0  0  0  0  0  0  0  # atno 10765 bound_to 10752
  140.0408  134.9305  157.0840 H   0  0  0  0  0  0  0  0  0  0  0  0  # atno 11005 bound_to 11000
  144.9016  139.4642  143.6629 LP  0  0  0  0  0  0  0  0  0  0  0  0  # atno 17320 bound_to 7965
  146.3118  139.7774  142.9014 LP  0  0  0  0  0  0  0  0  0  0  0  0  # atno 17321 bound_to 7965
  140.6036  143.9565  150.6403 LP  0  0  0  0  0  0  0  0  0  0  0  0  # atno 17342 bound_to 10162
  140.2785  143.3406  152.1173 LP  0  0  0  0  0  0  0  0  0  0  0  0  # atno 17343 bound_to 10162
  156.7957  130.4904  149.5377 LP  0  0  0  0  0  0  0  0  0  0  0  0  # atno 17370 bound_to 10713
  156.1216  130.6114  151.0202 LP  0  0  0  0  0  0  0  0  0  0  0  0  # atno 17371 bound_to 10713
  140.4072  134.2020  155.7163 LP  0  0  0  0  0  0  0  0  0  0  0  0  # atno 17394 bound_to 11000
  141.1882  133.8265  157.1003 LP  0  0  0  0  0  0  0  0  0  0  0  0  # atno 17395 bound_to 11000

$$$$
