AV-unprocessed.smi:2402|AV-procd|sdf|9505|dock4
  -GOLD-   2272013133D 1   1.00000     0.00000
 Structure written by MMmdl.
 38 39  0  0  0  0  0  0  0  0  1 V2000
  151.9444  145.8955  160.3240 C   0  0  0  0  0  0  0  0  0  0  0  0
  151.9674  144.5260  159.6781 C   0  0  0  0  0  0  0  0  0  0  0  0
  152.7837  143.4992  160.1900 C   0  0  0  0  0  0  0  0  0  0  0  0
  152.7599  142.2472  159.5447 C   0  0  0  0  0  0  0  0  0  0  0  0
  153.6170  141.1006  160.0385 C   0  0  0  0  0  0  0  0  0  0  0  0
  151.9939  141.9904  158.4628 N   0  0  0  0  0  0  0  0  0  0  0  0
  151.2033  142.9715  157.9612 C   0  0  0  0  0  0  0  0  0  0  0  0
  150.3670  142.8059  156.8249 N   0  0  0  0  0  0  0  0  0  0  0  0
  150.1558  141.6907  156.1035 C   0  0  0  0  0  0  0  0  0  0  0  0
  150.6364  140.5829  156.3451 O   0  0  0  0  0  0  0  0  0  0  0  0
  149.3393  141.9304  155.0673 N   0  0  0  0  0  0  0  0  0  0  0  0
  148.9153  140.9304  154.0935 C   0  0  2  0  0  0  0  0  0  0  0  0
  147.7280  141.4221  153.3122 C   0  0  0  0  0  0  0  0  0  0  0  0
  146.7005  140.5767  153.3527 C   0  0  0  0  0  0  0  0  0  0  0  0
  146.9855  139.3483  154.1763 C   0  0  2  0  0  0  0  0  0  0  0  0
  145.9053  139.1031  155.2427 C   0  0  0  0  0  0  0  0  0  0  0  0
  144.6521  138.8903  154.6284 O   0  0  0  0  0  0  0  0  0  0  0  0
  148.3966  139.6282  154.7580 C   0  0  0  0  0  0  0  0  0  0  0  0
  151.1680  144.2560  158.5492 C   0  0  0  0  0  0  0  0  0  0  0  0
  149.7211  140.7155  153.3893 H   0  0  0  0  0  0  0  0  0  0  0  0
  147.0262  138.5012  153.4901 H   0  0  0  0  0  0  0  0  0  0  0  0
  152.7202  145.9881  161.0846 H   0  0  0  0  0  0  0  0  0  0  0  0
  150.9784  146.0727  160.7973 H   0  0  0  0  0  0  0  0  0  0  0  0
  152.1086  146.6708  159.5752 H   0  0  0  0  0  0  0  0  0  0  0  0
  153.4119  143.6667  161.0527 H   0  0  0  0  0  0  0  0  0  0  0  0
  154.0391  141.3174  161.0202 H   0  0  0  0  0  0  0  0  0  0  0  0
  154.4390  140.9197  159.3454 H   0  0  0  0  0  0  0  0  0  0  0  0
  153.0262  140.1876  160.1176 H   0  0  0  0  0  0  0  0  0  0  0  0
  149.8859  143.6374  156.5161 H   0  0  0  0  0  0  0  0  0  0  0  0
  148.9860  142.8676  154.9424 H   0  0  0  0  0  0  0  0  0  0  0  0
  147.7421  142.3562  152.7700 H   0  0  0  0  0  0  0  0  0  0  0  0
  145.7564  140.7243  152.8492 H   0  0  0  0  0  0  0  0  0  0  0  0
  146.1560  138.2418  155.8631 H   0  0  0  0  0  0  0  0  0  0  0  0
  145.8221  139.9652  155.9051 H   0  0  0  0  0  0  0  0  0  0  0  0
  144.4972  139.5880  154.0102 H   0  0  0  0  0  0  0  0  0  0  0  0
  149.0727  138.7943  154.5663 H   0  0  0  0  0  0  0  0  0  0  0  0
  148.3450  139.7434  155.8420 H   0  0  0  0  0  0  0  0  0  0  0  0
  150.5344  145.0298  158.1396 H   0  0  0  0  0  0  0  0  0  0  0  0
  1  2  1  0  0  0  0
  1 22  1  0  0  0  0
  1 23  1  0  0  0  0
  1 24  1  0  0  0  0
  2 19  1  0  0  0  0
  2  3  2  0  0  0  0
  3  4  1  0  0  0  0
  3 25  1  0  0  0  0
  4  5  1  0  0  0  0
  4  6  2  0  0  0  0
  5 26  1  0  0  0  0
  5 27  1  0  0  0  0
  5 28  1  0  0  0  0
  6  7  1  0  0  0  0
  7  8  1  0  0  0  0
  7 19  2  0  0  0  0
  8  9  1  0  0  0  0
  8 29  1  0  0  0  0
  9 10  2  0  0  0  0
  9 11  1  0  0  0  0
 11 12  1  0  0  0  0
 11 30  1  0  0  0  0
 12 20  1  0  0  0  0
 12 18  1  0  0  0  0
 12 13  1  0  0  0  0
 13 14  2  0  0  0  0
 13 31  1  0  0  0  0
 14 15  1  0  0  0  0
 14 32  1  0  0  0  0
 15 21  1  0  0  0  0
 15 16  1  0  0  0  0
 15 18  1  0  0  0  0
 16 17  1  0  0  0  0
 16 33  1  0  0  0  0
 16 34  1  0  0  0  0
 17 35  1  0  0  0  0
 18 36  1  0  0  0  0
 18 37  1  0  0  0  0
 19 38  1  0  0  0  0
M  END
> <s_m_source_file>
AV-unprocessed.smi

> <i_m_source_file_index>
2402

> <i_lp_mmshare_version>
43012

> <i_f3d_flags>
0

> <s_epik_input>
W0NIM11jMVtjSF1jKFtDSDNdKW5jKFtjSF0xKVtOSF1DKD1PKVtOSF1bQ0BASF0yW0NIXT1bQ0hdW0NAQEhdKFtDSDJdMilbQ0gyXVtPSF0=

> <s_epik_cmdline>
J2VwaWtfcHl0aG9uJywgJy1waCcsICc3LjAnLCAnLXRuJywgJzgnLCAnLW1hJywgJzIwMCcsICctbWV0YWxfYmluZGluZycsICctaW1hZScsICc8aW5maWxlLm1hZT4nLCAnLW9tYWUnLCAnPG91dGZpbGUubWFlPic=

> <r_lp_tautomer_probability>
1

> <r_epik_Ionization_Penalty>
0.000257495

> <r_epik_Ionization_Penalty_Charging>
0

> <r_epik_Ionization_Penalty_Neutral>
0.000257495

> <r_epik_State_Penalty>
-0

> <r_epik_Charging_Adjusted_Penalty>
0

> <i_epik_Tot_Q>
0

> <i_epik_Tot_abs_Q>
0

> <r_epik_Metal_State_Penalty>
-0

> <b_epik_Metal_Only>
0

> <s_lp_Force_Field>
OPLS_2005

> <r_lp_Energy>
18.4158

> <b_lp_Chiralities_Consistent>
1

> <s_lp_Variant>
AV-unprocessed.smi:2402-1

> <Gold.Version>
5.8.1

> <Gold.Id.Protein>
6NUR|6NUR_protein|mol2

> <Gold.PLP.Fitness>
46.7265

> <Gold.PLP.PLP>
-38.1095

> <Gold.PLP.part.hbond>
-3.0000

> <Gold.PLP.part.metal>
0.0000

> <Gold.PLP.part.buried>
-3.5935

> <Gold.PLP.part.nonpolar>
-32.6742

> <Gold.PLP.part.repulsive>
0.2587

> <Gold.PLP.ligand.clash>
0.0000

> <Gold.PLP.ligand.torsion>
0.1625

> <Gold.PLP.Chemscore.Hbond>
2.9760

> <Gold.PLP.Chemscore.CHOScore>
0.0000

> <Gold.PLP.Chemscore.Metal>
0.0000

> <Gold.Chemscore.Hbonds>
donor molecule, donor type, donor heavy atom, donor atom, acceptor molecule, acceptor atom, score
      L1  H     8    29       P1  8028  1.00
      L1  H    11    30       P1  8028  0.96
      L1  H    17    35       P1 10175  1.00

> <Gold.PLP.Chemscore.Internal.Correction>
0.0141

> <Gold.Rescore>
     Score         DG    S(hbond)    S(metal)    S(lipo)     H(rot)  DE(clash)    DE(int)     intcor
     19.49     -22.72       2.93        0.00     102.87       1.78       0.85       2.39       ----

> <Gold.Chemscore.Fitness>
19.4853

> <Gold.Chemscore.DG>
-22.7249

> <Gold.Chemscore.ZeroCoef>
-5.4800

> <Gold.Chemscore.Hbond>
2.9273

> <Gold.Chemscore.Metal>
0.0000

> <Gold.Chemscore.Lipo>
102.8693

> <Gold.Chemscore.Internal_Hbond>
0.0000

> <Gold.Chemscore.DEClash>
0.8523

> <Gold.Chemscore.DEInternal>
2.3872

> <Gold.Chemscore.Rot>
1.7844

> <Gold.Chemscore.Internal.Correction>
   9.000000E+99

> <Gold.Chemscore.Hbonds>
donor molecule, donor type, donor heavy atom, donor atom, acceptor molecule, acceptor atom, score
      L1  H     8    29       P1  8028  1.00
      L1  H    11    30       P1  8028  0.90
      L1  H    17    35       P1 10175  0.98

> <Gold.Chemscore.Hbond.Weighted>
-9.7773

> <Gold.Chemscore.Metal.Weighted>
-0.0000

> <Gold.Chemscore.Lipo.Weighted>
-12.0357

> <Gold.Chemscore.Internal_Hbond.Weighted>
0.0000

> <Gold.Chemscore.DEClash.Weighted>
0.8523

> <Gold.Chemscore.DEInternal.Weighted>
2.3872

> <Gold.Chemscore.Rot.Weighted>
4.5681

> <Gold.Chemscore.Internal.Correction.Weighted>
   9.000000E+99

> <Gold.Protein.RotatedTorsions>
[ 6907 6896 6895 6894 ] final -115.32 input  -60.11 | X-H torsion
[ 7974 7965 7964 7962 ] final   87.75 input  175.53 | X-H torsion
[ 8008 7997 7996 7995 ] final   34.06 input   59.86 | X-H torsion
[ 10167 10162 10161 10158 ] final -136.22 input  -65.29 | X-H torsion
[ 10718 10713 10712 10709 ] final  -91.90 input   66.30 | X-H torsion
[ 10763 10752 10751 10750 ] final  134.08 input  -60.55 | X-H torsion
[ 11005 11000 10999 10996 ] final -174.68 input  -57.11 | X-H torsion

> <Gold.Protein.ActiveResidues>
 VAL166  LYS551  ARG553  GLY616  TRP617  ASP618  TYR619  PRO620  LYS621  CYS622 
 ASP623  PHE694  ASN695  SER759  ASP760  ASP761  ALA762  ILE779  LEU786  VAL792 
 PHE793  MET794  SER795  GLU796  ALA797  LYS798  CYS799  TRP800  GLU811  SER814 

> <Gold.Protein.RotatedAtoms>
  150.7968  133.8676  159.3249 H   0  0  0  0  0  0  0  0  0  0  0  0  # atno 6907 bound_to 6896
  151.6499  135.1001  160.0168 H   0  0  0  0  0  0  0  0  0  0  0  0  # atno 6908 bound_to 6896
  152.4051  133.6837  159.6384 H   0  0  0  0  0  0  0  0  0  0  0  0  # atno 6909 bound_to 6896
  145.5549  139.2298  143.2492 H   0  0  0  0  0  0  0  0  0  0  0  0  # atno 7974 bound_to 7965
  155.1487  140.3273  155.4436 H   0  0  0  0  0  0  0  0  0  0  0  0  # atno 8008 bound_to 7997
  156.2581  140.1981  156.6550 H   0  0  0  0  0  0  0  0  0  0  0  0  # atno 8009 bound_to 7997
  154.6489  140.0561  156.9919 H   0  0  0  0  0  0  0  0  0  0  0  0  # atno 8010 bound_to 7997
  139.8700  143.6969  152.2641 H   0  0  0  0  0  0  0  0  0  0  0  0  # atno 10167 bound_to 10162
  155.9997  130.4966  150.5544 H   0  0  0  0  0  0  0  0  0  0  0  0  # atno 10718 bound_to 10713
  153.8176  135.3120  155.3407 H   0  0  0  0  0  0  0  0  0  0  0  0  # atno 10763 bound_to 10752
  154.8026  135.4717  154.0315 H   0  0  0  0  0  0  0  0  0  0  0  0  # atno 10764 bound_to 10752
  153.1714  135.6878  153.8693 H   0  0  0  0  0  0  0  0  0  0  0  0  # atno 10765 bound_to 10752
  140.4718  134.6158  157.4885 H   0  0  0  0  0  0  0  0  0  0  0  0  # atno 11005 bound_to 11000
  146.1891  140.6372  142.9154 LP  0  0  0  0  0  0  0  0  0  0  0  0  # atno 17320 bound_to 7965
  144.7511  140.5193  143.6801 LP  0  0  0  0  0  0  0  0  0  0  0  0  # atno 17321 bound_to 7965
  139.7293  144.7586  151.0828 LP  0  0  0  0  0  0  0  0  0  0  0  0  # atno 17342 bound_to 10162
  140.7762  143.5109  150.9654 LP  0  0  0  0  0  0  0  0  0  0  0  0  # atno 17343 bound_to 10162
  157.3462  131.0725  151.1749 LP  0  0  0  0  0  0  0  0  0  0  0  0  # atno 17370 bound_to 10713
  157.2581  130.6645  149.5962 LP  0  0  0  0  0  0  0  0  0  0  0  0  # atno 17371 bound_to 10713
  139.9880  134.7030  155.9739 LP  0  0  0  0  0  0  0  0  0  0  0  0  # atno 17394 bound_to 11000
  141.1573  133.6541  156.4203 LP  0  0  0  0  0  0  0  0  0  0  0  0  # atno 17395 bound_to 11000

$$$$
