AV-unprocessed.smi:3131|AV-procd|sdf|11927|dock8
  -GOLD-   2272017313D 1   1.00000     0.00000
 Structure written by MMmdl.
 43 43  0  0  0  0  0  0  0  0  2 V2000
  146.4757  142.3157  153.8043 C   0  0  0  0  0  0  0  0  0  0  0  0
  146.5212  140.9745  154.5517 C   0  0  0  0  0  0  0  0  0  0  0  0
  147.5750  139.9778  154.0128 C   0  0  0  0  0  0  0  0  0  0  0  0
  148.9390  140.6743  153.7859 C   0  0  0  0  0  0  0  0  0  0  0  0
  149.5955  141.2139  155.0654 C   0  0  0  0  0  0  0  0  0  0  0  0
  147.0866  139.2990  152.7133 C   0  0  0  0  0  0  0  0  0  0  0  0
  145.7925  138.6144  152.9060 N   0  3  0  0  0  0  0  0  0  0  0  0
  145.6874  137.3084  152.2211 C   0  0  0  0  0  0  0  0  0  0  0  0
  144.3048  136.6555  152.4356 C   0  0  1  0  0  0  0  0  0  0  0  0
  144.0219  136.4740  153.9372 C   0  0  0  0  0  0  0  0  0  0  0  0
  143.3304  137.5682  151.9653 O   0  0  0  0  0  0  0  0  0  0  0  0
  144.2185  135.3213  151.7246 C   0  0  0  0  0  0  0  0  0  0  0  0
  143.8491  134.0529  152.2627 C   0  0  0  0  0  0  0  0  0  0  0  0
  143.8603  133.0847  151.3618 N   0  0  0  0  0  0  0  0  0  0  0  0
  144.2424  133.6920  150.2211 N   0  0  0  0  0  0  0  0  0  0  0  0
  144.3678  132.9155  149.0064 C   0  0  0  0  0  0  0  0  0  0  0  0
  144.4657  135.0384  150.4090 C   0  0  0  0  0  0  0  0  0  0  0  0
  145.6509  142.9284  154.1693 H   0  0  0  0  0  0  0  0  0  0  0  0
  146.3252  142.1663  152.7349 H   0  0  0  0  0  0  0  0  0  0  0  0
  147.3887  142.8943  153.9399 H   0  0  0  0  0  0  0  0  0  0  0  0
  146.6875  141.1526  155.6149 H   0  0  0  0  0  0  0  0  0  0  0  0
  145.5267  140.5372  154.4773 H   0  0  0  0  0  0  0  0  0  0  0  0
  147.7158  139.2001  154.7654 H   0  0  0  0  0  0  0  0  0  0  0  0
  149.6426  139.9715  153.3394 H   0  0  0  0  0  0  0  0  0  0  0  0
  148.8281  141.4823  153.0617 H   0  0  0  0  0  0  0  0  0  0  0  0
  150.5903  141.6046  154.8494 H   0  0  0  0  0  0  0  0  0  0  0  0
  149.7062  140.4287  155.8137 H   0  0  0  0  0  0  0  0  0  0  0  0
  149.0220  142.0256  155.5113 H   0  0  0  0  0  0  0  0  0  0  0  0
  146.9487  140.0345  151.9222 H   0  0  0  0  0  0  0  0  0  0  0  0
  147.8308  138.5859  152.3563 H   0  0  0  0  0  0  0  0  0  0  0  0
  145.6497  138.4657  153.8949 H   0  0  0  0  0  0  0  0  0  0  0  0
  145.8616  137.4628  151.1551 H   0  0  0  0  0  0  0  0  0  0  0  0
  146.4806  136.6487  152.5768 H   0  0  0  0  0  0  0  0  0  0  0  0
  144.7495  135.8078  154.4020 H   0  0  0  0  0  0  0  0  0  0  0  0
  143.0323  136.0467  154.1056 H   0  0  0  0  0  0  0  0  0  0  0  0
  144.0648  137.4246  154.4704 H   0  0  0  0  0  0  0  0  0  0  0  0
  143.6905  138.0473  151.2342 H   0  0  0  0  0  0  0  0  0  0  0  0
  143.5679  133.8091  153.2767 H   0  0  0  0  0  0  0  0  0  0  0  0
  144.5925  133.5711  148.1644 H   0  0  0  0  0  0  0  0  0  0  0  0
  143.4342  132.3885  148.8054 H   0  0  0  0  0  0  0  0  0  0  0  0
  145.1738  132.1891  149.1151 H   0  0  0  0  0  0  0  0  0  0  0  0
  144.7773  135.6802  149.5981 H   0  0  0  0  0  0  0  0  0  0  0  0
  145.0552  139.2137  152.5630 H   0  0  0  0  0  0  0  0  0  0  0  0
  1  2  1  0  0  0  0
  1 18  1  0  0  0  0
  1 19  1  0  0  0  0
  1 20  1  0  0  0  0
  2  3  1  0  0  0  0
  2 21  1  0  0  0  0
  2 22  1  0  0  0  0
  3  4  1  0  0  0  0
  3  6  1  0  0  0  0
  3 23  1  0  0  0  0
  4  5  1  0  0  0  0
  4 24  1  0  0  0  0
  4 25  1  0  0  0  0
  5 26  1  0  0  0  0
  5 27  1  0  0  0  0
  5 28  1  0  0  0  0
  6  7  1  0  0  0  0
  6 29  1  0  0  0  0
  6 30  1  0  0  0  0
  7  8  1  0  0  0  0
  7 31  1  0  0  0  0
  7 43  1  0  0  0  0
  8  9  1  0  0  0  0
  8 32  1  0  0  0  0
  8 33  1  0  0  0  0
  9 10  1  0  0  0  0
  9 11  1  0  0  0  0
  9 12  1  0  0  0  0
 10 34  1  0  0  0  0
 10 35  1  0  0  0  0
 10 36  1  0  0  0  0
 11 37  1  0  0  0  0
 12 17  2  0  0  0  0
 12 13  1  0  0  0  0
 13 14  2  0  0  0  0
 13 38  1  0  0  0  0
 14 15  1  0  0  0  0
 15 16  1  0  0  0  0
 15 17  1  0  0  0  0
 16 39  1  0  0  0  0
 16 40  1  0  0  0  0
 16 41  1  0  0  0  0
 17 42  1  0  0  0  0
M  CHG  1   7   1
M  END
> <s_m_source_file>
AV-unprocessed.smi

> <i_m_source_file_index>
3131

> <i_lp_mmshare_version>
43012

> <i_f3d_flags>
0

> <s_epik_input>
W0NIM11bQ0gyXVtDSF0oW0NIMl1bQ0gzXSlbQ0gyXVtOSF1bQ0gyXVtDQEBdKFtDSDNdKShbT0hdKWMxW2NIXW5uKFtDSDNdKVtjSF0x

> <s_epik_cmdline>
J2VwaWtfcHl0aG9uJywgJy1waCcsICc3LjAnLCAnLXRuJywgJzgnLCAnLW1hJywgJzIwMCcsICctbWV0YWxfYmluZGluZycsICctaW1hZScsICc8aW5maWxlLm1hZT4nLCAnLW9tYWUnLCAnPG91dGZpbGUubWFlPic=

> <r_lp_tautomer_probability>
1

> <r_epik_Ionization_Penalty>
0.00304809

> <r_epik_Ionization_Penalty_Charging>
0.00302982

> <r_epik_Ionization_Penalty_Neutral>
1.82731e-05

> <r_epik_State_Penalty>
0.00212874

> <r_epik_Charging_Adjusted_Penalty>
0.00515857

> <i_epik_Tot_Q>
1

> <i_epik_Tot_abs_Q>
1

> <r_epik_Metal_State_Penalty>
-0

> <b_epik_Metal_Only>
0

> <s_lp_Force_Field>
OPLS_2005

> <r_lp_Energy>
10.206

> <b_lp_Chiralities_Consistent>
1

> <s_lp_Variant>
AV-unprocessed.smi:3131-1

> <Gold.Version>
5.8.1

> <Gold.Id.Protein>
6NUR|6NUR_protein|mol2

> <Gold.PLP.Fitness>
45.2162

> <Gold.PLP.PLP>
-31.4391

> <Gold.PLP.part.hbond>
-2.8121

> <Gold.PLP.part.metal>
0.0000

> <Gold.PLP.part.buried>
-1.3096

> <Gold.PLP.part.nonpolar>
-26.6372

> <Gold.PLP.part.repulsive>
0.1713

> <Gold.PLP.ligand.clash>
0.0000

> <Gold.PLP.ligand.torsion>
0.5221

> <Gold.PLP.Chemscore.Hbond>
3.0000

> <Gold.PLP.Chemscore.CHOScore>
1.8708

> <Gold.PLP.Chemscore.Metal>
0.0000

> <Gold.Chemscore.Hbonds>
donor molecule, donor type, donor heavy atom, donor atom, acceptor molecule, acceptor atom, score
      L1  H     7    43       P1 10175  2.00
      L1  H    11    37       P1 10171  0.98
      L1  C    13    38       P1 10957  0.60
      L1  C    17    42       P1  7921  0.86

> <Gold.PLP.Chemscore.Internal.Correction>
0.2090

> <Gold.Rescore>
     Score         DG    S(hbond)    S(metal)    S(lipo)     H(rot)  DE(clash)    DE(int)     intcor
     13.58     -14.86       1.98        0.00      74.84       2.34       0.04       1.24       ----

> <Gold.Chemscore.Fitness>
13.5829

> <Gold.Chemscore.DG>
-14.8641

> <Gold.Chemscore.ZeroCoef>
-5.4800

> <Gold.Chemscore.Hbond>
1.9834

> <Gold.Chemscore.Metal>
0.0000

> <Gold.Chemscore.Lipo>
74.8426

> <Gold.Chemscore.Internal_Hbond>
0.0000

> <Gold.Chemscore.DEClash>
0.0377

> <Gold.Chemscore.DEInternal>
1.2435

> <Gold.Chemscore.Rot>
2.3426

> <Gold.Chemscore.Internal.Correction>
   9.000000E+99

> <Gold.Chemscore.Hbonds>
donor molecule, donor type, donor heavy atom, donor atom, acceptor molecule, acceptor atom, score
      L1  H     7    43       P1 10175  1.00
      L1  H    11    37       P1 10171  0.89

> <Gold.Chemscore.Hbond.Weighted>
-6.6246

> <Gold.Chemscore.Metal.Weighted>
-0.0000

> <Gold.Chemscore.Lipo.Weighted>
-8.7566

> <Gold.Chemscore.Internal_Hbond.Weighted>
0.0000

> <Gold.Chemscore.DEClash.Weighted>
0.0377

> <Gold.Chemscore.DEInternal.Weighted>
1.2435

> <Gold.Chemscore.Rot.Weighted>
5.9972

> <Gold.Chemscore.Internal.Correction.Weighted>
   9.000000E+99

> <Gold.Protein.RotatedTorsions>
[ 6907 6896 6895 6894 ] final -120.03 input  -60.11 | X-H torsion
[ 7974 7965 7964 7962 ] final  -54.78 input  175.53 | X-H torsion
[ 8008 7997 7996 7995 ] final  -96.62 input   59.86 | X-H torsion
[ 10167 10162 10161 10158 ] final -161.97 input  -65.29 | X-H torsion
[ 10718 10713 10712 10709 ] final  137.12 input   66.30 | X-H torsion
[ 10763 10752 10751 10750 ] final   92.04 input  -60.55 | X-H torsion
[ 11005 11000 10999 10996 ] final  -77.12 input  -57.11 | X-H torsion

> <Gold.Protein.ActiveResidues>
 VAL166  LYS551  ARG553  GLY616  TRP617  ASP618  TYR619  PRO620  LYS621  CYS622 
 ASP623  PHE694  ASN695  SER759  ASP760  ASP761  ALA762  ILE779  LEU786  VAL792 
 PHE793  MET794  SER795  GLU796  ALA797  LYS798  CYS799  TRP800  GLU811  SER814 

> <Gold.Protein.RotatedAtoms>
  150.8357  133.8017  159.3080 H   0  0  0  0  0  0  0  0  0  0  0  0  # atno 6907 bound_to 6896
  151.5734  135.1060  160.0010 H   0  0  0  0  0  0  0  0  0  0  0  0  # atno 6908 bound_to 6896
  152.4430  133.7441  159.6714 H   0  0  0  0  0  0  0  0  0  0  0  0  # atno 6909 bound_to 6896
  145.8817  140.8139  142.9836 H   0  0  0  0  0  0  0  0  0  0  0  0  # atno 7974 bound_to 7965
  154.7768  140.0470  157.1095 H   0  0  0  0  0  0  0  0  0  0  0  0  # atno 8008 bound_to 7997
  154.9753  140.3094  155.4950 H   0  0  0  0  0  0  0  0  0  0  0  0  # atno 8009 bound_to 7997
  156.2930  140.2246  156.4848 H   0  0  0  0  0  0  0  0  0  0  0  0  # atno 8010 bound_to 7997
  139.6426  144.0231  152.2103 H   0  0  0  0  0  0  0  0  0  0  0  0  # atno 10167 bound_to 10162
  157.4395  131.1056  151.0159 H   0  0  0  0  0  0  0  0  0  0  0  0  # atno 10718 bound_to 10713
  153.2149  135.4375  155.0422 H   0  0  0  0  0  0  0  0  0  0  0  0  # atno 10763 bound_to 10752
  154.8219  135.3342  154.7014 H   0  0  0  0  0  0  0  0  0  0  0  0  # atno 10764 bound_to 10752
  153.7449  135.7002  153.5014 H   0  0  0  0  0  0  0  0  0  0  0  0  # atno 10765 bound_to 10752
  141.1658  133.7010  156.7772 H   0  0  0  0  0  0  0  0  0  0  0  0  # atno 11005 bound_to 11000
  144.6727  140.1394  143.7438 LP  0  0  0  0  0  0  0  0  0  0  0  0  # atno 17320 bound_to 7965
  145.9015  139.2433  143.1490 LP  0  0  0  0  0  0  0  0  0  0  0  0  # atno 17321 bound_to 7965
  139.9925  144.6351  150.7802 LP  0  0  0  0  0  0  0  0  0  0  0  0  # atno 17342 bound_to 10162
  140.7498  143.2945  151.3240 LP  0  0  0  0  0  0  0  0  0  0  0  0  # atno 17343 bound_to 10162
  157.1028  130.5989  149.5464 LP  0  0  0  0  0  0  0  0  0  0  0  0  # atno 17370 bound_to 10713
  155.9943  130.5007  150.7415 LP  0  0  0  0  0  0  0  0  0  0  0  0  # atno 17371 bound_to 10713
  140.2421  134.8606  157.3583 LP  0  0  0  0  0  0  0  0  0  0  0  0  # atno 17394 bound_to 11000
  140.1786  134.4518  155.7786 LP  0  0  0  0  0  0  0  0  0  0  0  0  # atno 17395 bound_to 11000

$$$$
