AV-unprocessed.smi:72|AV-procd|sdf|749|dock1
  -GOLD-   2262017 83D 1   1.00000     0.00000
 Structure written by MMmdl.
 29 30  0  0  0  0  0  0  0  0  1 V2000
  152.7096  140.9832  158.9632 N   0  0  0  0  0  0  0  0  0  0  0  0
  151.9477  140.9367  157.8150 C   0  0  0  0  0  0  0  0  0  0  0  0
  150.8540  141.8103  157.7578 N   0  0  0  0  0  0  0  0  0  0  0  0
  150.1258  141.7595  156.6879 C   0  0  0  0  0  0  0  0  0  0  0  0
  150.4181  140.8201  155.6157 N   0  0  0  0  0  0  0  0  0  0  0  0
  149.6000  140.7505  154.3344 C   0  0  2  0  0  0  0  0  0  0  0  0
  148.8049  141.8909  154.2027 O   0  0  0  0  0  0  0  0  0  0  0  0
  147.5109  141.6351  154.7343 C   0  0  1  0  0  0  0  0  0  0  0  0
  146.5068  142.6565  154.1807 C   0  0  0  0  0  0  0  0  0  0  0  0
  145.1878  142.2157  154.4227 O   0  0  0  0  0  0  0  0  0  0  0  0
  147.2534  140.2026  154.2647 C   0  0  2  0  0  0  0  0  0  0  0  0
  146.3400  139.5575  155.1295 O   0  0  0  0  0  0  0  0  0  0  0  0
  148.6304  139.5468  154.3483 C   0  0  1  0  0  0  0  0  0  0  0  0
  148.8340  138.7012  153.2347 O   0  0  0  0  0  0  0  0  0  0  0  0
  151.5767  140.0000  155.7226 C   0  0  0  0  0  0  0  0  0  0  0  0
  151.8885  139.2474  154.7993 O   0  0  0  0  0  0  0  0  0  0  0  0
  152.3247  140.0889  156.9021 N   0  0  0  0  0  0  0  0  0  0  0  0
  150.3427  140.7256  153.5349 H   0  0  0  0  0  0  0  0  0  0  0  0
  147.5400  141.6660  155.8253 H   0  0  0  0  0  0  0  0  0  0  0  0
  146.8776  140.2030  153.2400 H   0  0  0  0  0  0  0  0  0  0  0  0
  148.7454  138.9798  155.2738 H   0  0  0  0  0  0  0  0  0  0  0  0
  153.5214  140.4025  159.1146 H   0  0  0  0  0  0  0  0  0  0  0  0
  152.5146  141.6036  159.7353 H   0  0  0  0  0  0  0  0  0  0  0  0
  149.2663  142.4118  156.5338 H   0  0  0  0  0  0  0  0  0  0  0  0
  146.6643  143.6446  154.6141 H   0  0  0  0  0  0  0  0  0  0  0  0
  146.6266  142.7524  153.1013 H   0  0  0  0  0  0  0  0  0  0  0  0
  144.9689  141.5567  153.7818 H   0  0  0  0  0  0  0  0  0  0  0  0
  145.5120  139.4770  154.6810 H   0  0  0  0  0  0  0  0  0  0  0  0
  149.2732  139.1964  152.5600 H   0  0  0  0  0  0  0  0  0  0  0  0
  1  2  1  0  0  0  0
  1 22  1  0  0  0  0
  1 23  1  0  0  0  0
  2 17  2  0  0  0  0
  2  3  1  0  0  0  0
  3  4  2  0  0  0  0
  4  5  1  0  0  0  0
  4 24  1  0  0  0  0
  5  6  1  0  0  0  0
  5 15  1  0  0  0  0
  6 18  1  0  0  0  0
  6 13  1  0  0  0  0
  6  7  1  0  0  0  0
  7  8  1  0  0  0  0
  8 19  1  0  0  0  0
  8  9  1  0  0  0  0
  8 11  1  0  0  0  0
  9 10  1  0  0  0  0
  9 25  1  0  0  0  0
  9 26  1  0  0  0  0
 10 27  1  0  0  0  0
 11 20  1  0  0  0  0
 11 12  1  0  0  0  0
 11 13  1  0  0  0  0
 12 28  1  0  0  0  0
 13 21  1  0  0  0  0
 13 14  1  0  0  0  0
 14 29  1  0  0  0  0
 15 16  2  0  0  0  0
 15 17  1  0  0  0  0
M  END
> <s_m_source_file>
AV-unprocessed.smi

> <i_m_source_file_index>
72

> <i_lp_mmshare_version>
43012

> <i_f3d_flags>
0

> <s_epik_input>
W05IMl1jMW5bY0hdbihjKD1PKW4xKVtDQEBIXTJPW0NASF0oW0NIMl1bT0hdKVtDQEBIXShbT0hdKVtDQEhdMltPSF0=

> <s_epik_cmdline>
J2VwaWtfcHl0aG9uJywgJy1waCcsICc3LjAnLCAnLXRuJywgJzgnLCAnLW1hJywgJzIwMCcsICctbWV0YWxfYmluZGluZycsICctaW1hZScsICc8aW5maWxlLm1hZT4nLCAnLW9tYWUnLCAnPG91dGZpbGUubWFlPic=

> <r_lp_tautomer_probability>
4.77166e-05

> <r_epik_Ionization_Penalty>
1.3546

> <r_epik_Ionization_Penalty_Charging>
1.46833e-10

> <r_epik_Ionization_Penalty_Neutral>
1.3546

> <r_epik_State_Penalty>
3.51908

> <r_epik_Charging_Adjusted_Penalty>
3.51908

> <i_epik_Tot_Q>
0

> <i_epik_Tot_abs_Q>
0

> <r_epik_Metal_State_Penalty>
3.44088

> <b_epik_Metal_Only>
1

> <s_epik_Chemistry_Notes>
This compound contains an acetal/aminal-like group ( X-CH(R)-Y where X, Y are N, S, or O) that may be acid/base labile, releasing an aldehyde.

> <s_lp_Force_Field>
OPLS_2005

> <r_lp_Energy>
23.1621

> <b_lp_Chiralities_Consistent>
1

> <s_lp_Variant>
AV-unprocessed.smi:72-87

> <Gold.Version>
5.8.1

> <Gold.Id.Protein>
6NUR|6NUR_protein|mol2

> <Gold.PLP.Fitness>
41.0843

> <Gold.PLP.PLP>
-28.2304

> <Gold.PLP.part.hbond>
-5.9318

> <Gold.PLP.part.metal>
0.0000

> <Gold.PLP.part.buried>
-2.6291

> <Gold.PLP.part.nonpolar>
-20.8323

> <Gold.PLP.part.repulsive>
0.3899

> <Gold.PLP.ligand.clash>
0.0000

> <Gold.PLP.ligand.torsion>
0.5820

> <Gold.PLP.Chemscore.Hbond>
3.6593

> <Gold.PLP.Chemscore.CHOScore>
1.0000

> <Gold.PLP.Chemscore.Metal>
0.0000

> <Gold.Chemscore.Hbonds>
donor molecule, donor type, donor heavy atom, donor atom, acceptor molecule, acceptor atom, score
      L1  H    10    27       P1 10175  0.70
      L1  H    14    29       P1  7957  1.00
      P1  H  7989  7998       L1    16  0.39
      P1  H  7997  8008       L1    17  0.94
      P1  H  8011  8017       L1     7  0.17
      L1  C     4    24       P1  8028  1.00

> <Gold.PLP.Chemscore.Internal.Correction>
0.0398

> <Gold.Rescore>
     Score         DG    S(hbond)    S(metal)    S(lipo)     H(rot)  DE(clash)    DE(int)     intcor
      4.71      -5.82       2.48        0.00      20.99       4.06       0.86       0.25       ----

> <Gold.Chemscore.Fitness>
4.7116

> <Gold.Chemscore.DG>
-5.8169

> <Gold.Chemscore.ZeroCoef>
-5.4800

> <Gold.Chemscore.Hbond>
2.4773

> <Gold.Chemscore.Metal>
0.0000

> <Gold.Chemscore.Lipo>
20.9935

> <Gold.Chemscore.Internal_Hbond>
0.0000

> <Gold.Chemscore.DEClash>
0.8568

> <Gold.Chemscore.DEInternal>
0.2485

> <Gold.Chemscore.Rot>
4.0600

> <Gold.Chemscore.Internal.Correction>
   9.000000E+99

> <Gold.Chemscore.Hbonds>
donor molecule, donor type, donor heavy atom, donor atom, acceptor molecule, acceptor atom, score
      L1  H    10    27       P1 10175  0.11
      L1  H    14    29       P1  7957  0.99
      P1  H  7989  7998       L1    16  0.01
      P1  H  7997  8008       L1    17  0.65
      P1  H  8011  8017       L1     7  0.01

> <Gold.Chemscore.Hbond.Weighted>
-8.2742

> <Gold.Chemscore.Metal.Weighted>
-0.0000

> <Gold.Chemscore.Lipo.Weighted>
-2.4562

> <Gold.Chemscore.Internal_Hbond.Weighted>
0.0000

> <Gold.Chemscore.DEClash.Weighted>
0.8568

> <Gold.Chemscore.DEInternal.Weighted>
0.2485

> <Gold.Chemscore.Rot.Weighted>
10.3936

> <Gold.Chemscore.Internal.Correction.Weighted>
   9.000000E+99

> <Gold.Protein.RotatedTorsions>
[ 6907 6896 6895 6894 ] final   67.57 input  -60.11 | X-H torsion
[ 7974 7965 7964 7962 ] final    9.01 input  175.53 | X-H torsion
[ 8008 7997 7996 7995 ] final  -56.36 input   59.86 | X-H torsion
[ 10167 10162 10161 10158 ] final -145.63 input  -65.29 | X-H torsion
[ 10718 10713 10712 10709 ] final -172.71 input   66.30 | X-H torsion
[ 10763 10752 10751 10750 ] final  168.67 input  -60.55 | X-H torsion
[ 11005 11000 10999 10996 ] final  137.51 input  -57.11 | X-H torsion

> <Gold.Protein.ActiveResidues>
 VAL166  LYS551  ARG553  GLY616  TRP617  ASP618  TYR619  PRO620  LYS621  CYS622 
 ASP623  PHE694  ASN695  SER759  ASP760  ASP761  ALA762  ILE779  LEU786  VAL792 
 PHE793  MET794  SER795  GLU796  ALA797  LYS798  CYS799  TRP800  GLU811  SER814 

> <Gold.Protein.RotatedAtoms>
  152.4561  134.5289  159.9804 H   0  0  0  0  0  0  0  0  0  0  0  0  # atno 6907 bound_to 6896
  151.5350  133.3437  159.2933 H   0  0  0  0  0  0  0  0  0  0  0  0  # atno 6908 bound_to 6896
  150.8505  134.7859  159.7068 H   0  0  0  0  0  0  0  0  0  0  0  0  # atno 6909 bound_to 6896
  146.2409  139.9847  142.8432 H   0  0  0  0  0  0  0  0  0  0  0  0  # atno 7974 bound_to 7965
  154.4227  140.1131  156.5625 H   0  0  0  0  0  0  0  0  0  0  0  0  # atno 8008 bound_to 7997
  155.6296  140.3495  155.4659 H   0  0  0  0  0  0  0  0  0  0  0  0  # atno 8009 bound_to 7997
  155.9958  140.1189  157.0584 H   0  0  0  0  0  0  0  0  0  0  0  0  # atno 8010 bound_to 7997
  139.7788  143.8131  152.2636 H   0  0  0  0  0  0  0  0  0  0  0  0  # atno 10167 bound_to 10162
  156.7596  130.9408  151.3117 H   0  0  0  0  0  0  0  0  0  0  0  0  # atno 10718 bound_to 10713
  154.3720  135.2753  155.2261 H   0  0  0  0  0  0  0  0  0  0  0  0  # atno 10763 bound_to 10752
  154.4404  135.5955  153.6129 H   0  0  0  0  0  0  0  0  0  0  0  0  # atno 10764 bound_to 10752
  152.9838  135.6017  154.3952 H   0  0  0  0  0  0  0  0  0  0  0  0  # atno 10765 bound_to 10752
  140.0119  134.9435  157.0295 H   0  0  0  0  0  0  0  0  0  0  0  0  # atno 11005 bound_to 11000
  145.1559  140.9647  143.4405 LP  0  0  0  0  0  0  0  0  0  0  0  0  # atno 17320 bound_to 7965
  145.0161  139.3465  143.6095 LP  0  0  0  0  0  0  0  0  0  0  0  0  # atno 17321 bound_to 7965
  139.8187  144.7305  150.9601 LP  0  0  0  0  0  0  0  0  0  0  0  0  # atno 17342 bound_to 10162
  140.7817  143.4180  151.0887 LP  0  0  0  0  0  0  0  0  0  0  0  0  # atno 17343 bound_to 10162
  157.6740  130.9078  150.0108 LP  0  0  0  0  0  0  0  0  0  0  0  0  # atno 17370 bound_to 10713
  156.1348  130.3643  149.9675 LP  0  0  0  0  0  0  0  0  0  0  0  0  # atno 17371 bound_to 10713
  140.4539  134.1553  155.7184 LP  0  0  0  0  0  0  0  0  0  0  0  0  # atno 17394 bound_to 11000
  141.1717  133.8596  157.1551 LP  0  0  0  0  0  0  0  0  0  0  0  0  # atno 17395 bound_to 11000

$$$$
