AV-unprocessed.smi:103|AV-procd|sdf|982|dock10
  -GOLD-   2262017553D 1   1.00000     0.00000
 Structure written by MMmdl.
 53 55  0  0  0  0  0  0  0  0  1 V2000
  149.4770  141.2068  154.6499 C   0  0  0  0  0  0  0  0  0  0  0  0
  150.0098  139.8367  155.0479 C   0  0  0  0  0  0  0  0  0  0  0  0
  151.1570  139.4891  154.7669 O   0  0  0  0  0  0  0  0  0  0  0  0
  149.0993  139.1069  155.7128 O   0  0  0  0  0  0  0  0  0  0  0  0
  149.5173  138.1574  156.6817 C   0  0  0  0  0  0  0  0  0  0  0  0
  148.5350  138.1713  157.8655 C   0  0  1  0  0  0  0  0  0  0  0  0
  147.2964  137.6432  157.3882 O   0  0  0  0  0  0  0  0  0  0  0  0
  146.9051  136.5576  158.1623 C   0  0  1  0  0  0  0  0  0  0  0  0
  146.2365  135.5464  157.2869 N   0  0  0  0  0  0  0  0  0  0  0  0
  144.9817  134.9795  157.3904 C   0  0  0  0  0  0  0  0  0  0  0  0
  143.7421  135.3528  158.6252 S   0  0  0  0  0  0  0  0  0  0  0  0
  143.6706  137.1881  158.5423 C   0  0  0  0  0  0  0  0  0  0  0  0
  142.4703  134.7936  158.1410 O   0  0  0  0  0  0  0  0  0  0  0  0
  144.2874  134.9465  159.9292 O   0  0  0  0  0  0  0  0  0  0  0  0
  144.6254  134.1676  156.4321 N   0  0  0  0  0  0  0  0  0  0  0  0
  145.7538  134.1167  155.6264 C   0  0  0  0  0  0  0  0  0  0  0  0
  146.0829  133.4258  154.4329 C   0  0  0  0  0  0  0  0  0  0  0  0
  145.2344  132.5958  153.8106 N   0  0  0  0  0  0  0  0  0  0  0  0
  147.3103  133.6138  153.8941 N   0  0  0  0  0  0  0  0  0  0  0  0
  148.1742  134.4382  154.4949 C   0  0  0  0  0  0  0  0  0  0  0  0
  148.0078  135.1517  155.6111 N   0  0  0  0  0  0  0  0  0  0  0  0
  146.7699  134.9639  156.1542 C   0  0  0  0  0  0  0  0  0  0  0  0
  148.1672  135.9880  158.7912 C   0  0  2  0  0  0  0  0  0  0  0  0
  147.8419  135.3189  160.0005 O   0  0  0  0  0  0  0  0  0  0  0  0
  147.3809  136.0109  161.0538 C   0  0  0  0  0  0  0  0  0  0  0  0
  147.2544  135.1478  162.3017 C   0  0  0  0  0  0  0  0  0  0  0  0
  147.0776  137.2038  161.0623 O   0  0  0  0  0  0  0  0  0  0  0  0
  148.9458  137.2647  159.0451 C   0  0  1  0  0  0  0  0  0  0  0  0
  150.3382  136.9764  159.0908 O   0  0  0  0  0  0  0  0  0  0  0  0
  151.2324  137.9715  159.2098 C   0  0  0  0  0  0  0  0  0  0  0  0
  152.6629  137.4571  159.2956 C   0  0  0  0  0  0  0  0  0  0  0  0
  150.9775  139.1753  159.2426 O   0  0  0  0  0  0  0  0  0  0  0  0
  148.4311  141.1389  154.3499 H   0  0  0  0  0  0  0  0  0  0  0  0
  150.0491  141.6104  153.8144 H   0  0  0  0  0  0  0  0  0  0  0  0
  149.5537  141.8989  155.4885 H   0  0  0  0  0  0  0  0  0  0  0  0
  149.5811  137.1517  156.2661 H   0  0  0  0  0  0  0  0  0  0  0  0
  150.5194  138.4314  157.0121 H   0  0  0  0  0  0  0  0  0  0  0  0
  148.3934  139.1936  158.2174 H   0  0  0  0  0  0  0  0  0  0  0  0
  146.1623  136.8925  158.8844 H   0  0  0  0  0  0  0  0  0  0  0  0
  142.9324  137.5543  159.2553 H   0  0  0  0  0  0  0  0  0  0  0  0
  143.3860  137.4940  157.5356 H   0  0  0  0  0  0  0  0  0  0  0  0
  144.6479  137.6046  158.7840 H   0  0  0  0  0  0  0  0  0  0  0  0
  144.3122  132.4405  154.1921 H   0  0  0  0  0  0  0  0  0  0  0  0
  145.5187  132.1264  152.9631 H   0  0  0  0  0  0  0  0  0  0  0  0
  149.1346  134.5446  154.0118 H   0  0  0  0  0  0  0  0  0  0  0  0
  148.6717  135.3515  158.0620 H   0  0  0  0  0  0  0  0  0  0  0  0
  148.1566  134.5528  162.4454 H   0  0  0  0  0  0  0  0  0  0  0  0
  146.4041  134.4721  162.2087 H   0  0  0  0  0  0  0  0  0  0  0  0
  147.1073  135.7701  163.1845 H   0  0  0  0  0  0  0  0  0  0  0  0
  148.5947  137.7054  159.9803 H   0  0  0  0  0  0  0  0  0  0  0  0
  152.7238  136.6142  159.9843 H   0  0  0  0  0  0  0  0  0  0  0  0
  153.3312  138.2417  159.6505 H   0  0  0  0  0  0  0  0  0  0  0  0
  153.0046  137.1284  158.3142 H   0  0  0  0  0  0  0  0  0  0  0  0
  1  2  1  0  0  0  0
  1 33  1  0  0  0  0
  1 34  1  0  0  0  0
  1 35  1  0  0  0  0
  2  3  2  0  0  0  0
  2  4  1  0  0  0  0
  4  5  1  0  0  0  0
  5  6  1  0  0  0  0
  5 36  1  0  0  0  0
  5 37  1  0  0  0  0
  6 28  1  0  0  0  0
  6  7  1  0  0  0  0
  6 38  1  0  0  0  0
  7  8  1  0  0  0  0
  8  9  1  0  0  0  0
  8 23  1  0  0  0  0
  8 39  1  0  0  0  0
  9 22  1  0  0  0  0
  9 10  1  0  0  0  0
 10 11  1  0  0  0  0
 10 15  2  0  0  0  0
 11 12  1  0  0  0  0
 11 13  2  0  0  0  0
 11 14  2  0  0  0  0
 12 40  1  0  0  0  0
 12 41  1  0  0  0  0
 12 42  1  0  0  0  0
 15 16  1  0  0  0  0
 16 22  2  0  0  0  0
 16 17  1  0  0  0  0
 17 18  1  0  0  0  0
 17 19  2  0  0  0  0
 18 43  1  0  0  0  0
 18 44  1  0  0  0  0
 19 20  1  0  0  0  0
 20 21  2  0  0  0  0
 20 45  1  0  0  0  0
 21 22  1  0  0  0  0
 23 24  1  0  0  0  0
 23 28  1  0  0  0  0
 23 46  1  0  0  0  0
 24 25  1  0  0  0  0
 25 26  1  0  0  0  0
 25 27  2  0  0  0  0
 26 47  1  0  0  0  0
 26 48  1  0  0  0  0
 26 49  1  0  0  0  0
 28 29  1  0  0  0  0
 28 50  1  0  0  0  0
 29 30  1  0  0  0  0
 30 31  1  0  0  0  0
 30 32  2  0  0  0  0
 31 51  1  0  0  0  0
 31 52  1  0  0  0  0
 31 53  1  0  0  0  0
M  END
> <s_m_source_file>
AV-unprocessed.smi

> <i_m_source_file_index>
103

> <i_lp_mmshare_version>
43012

> <i_f3d_flags>
0

> <s_epik_input>
W0NIM11DKD1PKU9bQ0gyXVtDQEBIXTFPW0NASF0oW0NAQEhdKE9DKD1PKVtDSDNdKVtDQEhdMU9DKD1PKVtDSDNdKW4oYyhuMilTKD1PKSg9TylbQ0gzXSljKGMyMyluW2NIXW5jM1tOSDJd

> <s_epik_cmdline>
J2VwaWtfcHl0aG9uJywgJy1waCcsICc3LjAnLCAnLXRuJywgJzgnLCAnLW1hJywgJzIwMCcsICctbWV0YWxfYmluZGluZycsICctaW1hZScsICc8aW5maWxlLm1hZT4nLCAnLW9tYWUnLCAnPG91dGZpbGUubWFlPic=

> <r_lp_tautomer_probability>
1

> <r_epik_Ionization_Penalty>
1.51338e-05

> <r_epik_Ionization_Penalty_Charging>
0

> <r_epik_Ionization_Penalty_Neutral>
1.51338e-05

> <r_epik_State_Penalty>
-0

> <r_epik_Charging_Adjusted_Penalty>
0

> <i_epik_Tot_Q>
0

> <i_epik_Tot_abs_Q>
0

> <r_epik_Metal_State_Penalty>
-0

> <b_epik_Metal_Only>
0

> <s_epik_Chemistry_Notes>
This compound has an ester and may undergo hydrolysis at high or low pH. This compound contains an acetal/aminal-like group ( X-CH(R)-Y where X, Y are N, S, or O) that may be acid/base labile, releasing an aldehyde.

> <s_lp_Force_Field>
OPLS_2005

> <r_lp_Energy>
15.9567

> <b_lp_Chiralities_Consistent>
1

> <s_lp_Variant>
AV-unprocessed.smi:103-6

> <Gold.Version>
5.8.1

> <Gold.Id.Protein>
6NUR|6NUR_protein|mol2

> <Gold.PLP.Fitness>
43.4330

> <Gold.PLP.PLP>
-28.8367

> <Gold.PLP.part.hbond>
-5.7428

> <Gold.PLP.part.metal>
0.0000

> <Gold.PLP.part.buried>
-4.3834

> <Gold.PLP.part.nonpolar>
-17.8384

> <Gold.PLP.part.repulsive>
0.3023

> <Gold.PLP.ligand.clash>
0.0000

> <Gold.PLP.ligand.torsion>
1.9139

> <Gold.PLP.Chemscore.Hbond>
4.7354

> <Gold.PLP.Chemscore.CHOScore>
0.6788

> <Gold.PLP.Chemscore.Metal>
0.0000

> <Gold.Chemscore.Hbonds>
donor molecule, donor type, donor heavy atom, donor atom, acceptor molecule, acceptor atom, score
      L1  H    18    43       P1 10957  1.00
      P1  H  6931  6943       L1    27  0.13
      P1  H  6934  6947       L1    27  1.00
      P1  H  7989  7998       L1     3  1.00
      P1  H 11000 11005       L1    13  0.98
      L1  C    20    45       P1  7948  0.35

> <Gold.PLP.Chemscore.Internal.Correction>
2.1817

> <Gold.Rescore>
     Score         DG    S(hbond)    S(metal)    S(lipo)     H(rot)  DE(clash)    DE(int)     intcor
      6.64     -11.12       3.83        0.00      31.78       4.25       0.04       4.44       ----

> <Gold.Chemscore.Fitness>
6.6402

> <Gold.Chemscore.DG>
-11.1210

> <Gold.Chemscore.ZeroCoef>
-5.4800

> <Gold.Chemscore.Hbond>
3.8298

> <Gold.Chemscore.Metal>
0.0000

> <Gold.Chemscore.Lipo>
31.7795

> <Gold.Chemscore.Internal_Hbond>
0.0000

> <Gold.Chemscore.DEClash>
0.0404

> <Gold.Chemscore.DEInternal>
4.4404

> <Gold.Chemscore.Rot>
4.2456

> <Gold.Chemscore.Internal.Correction>
   9.000000E+99

> <Gold.Chemscore.Hbonds>
donor molecule, donor type, donor heavy atom, donor atom, acceptor molecule, acceptor atom, score
      L1  H    18    43       P1 10957  0.65
      P1  H  6931  6943       L1    27  0.06
      P1  H  6934  6947       L1    27  1.00
      P1  H  7989  7998       L1     3  0.30
      P1  H 11000 11005       L1    13  0.93

> <Gold.Chemscore.Hbond.Weighted>
-12.7915

> <Gold.Chemscore.Metal.Weighted>
-0.0000

> <Gold.Chemscore.Lipo.Weighted>
-3.7182

> <Gold.Chemscore.Internal_Hbond.Weighted>
0.0000

> <Gold.Chemscore.DEClash.Weighted>
0.0404

> <Gold.Chemscore.DEInternal.Weighted>
4.4404

> <Gold.Chemscore.Rot.Weighted>
10.8687

> <Gold.Chemscore.Internal.Correction.Weighted>
   9.000000E+99

> <Gold.Protein.RotatedTorsions>
[ 6907 6896 6895 6894 ] final    5.95 input  -60.11 | X-H torsion
[ 7974 7965 7964 7962 ] final  126.94 input  175.53 | X-H torsion
[ 8008 7997 7996 7995 ] final  122.97 input   59.86 | X-H torsion
[ 10167 10162 10161 10158 ] final  110.13 input  -65.29 | X-H torsion
[ 10718 10713 10712 10709 ] final -108.17 input   66.30 | X-H torsion
[ 10763 10752 10751 10750 ] final -165.84 input  -60.55 | X-H torsion
[ 11005 11000 10999 10996 ] final -123.45 input  -57.11 | X-H torsion

> <Gold.Protein.ActiveResidues>
 VAL166  LYS551  ARG553  GLY616  TRP617  ASP618  TYR619  PRO620  LYS621  CYS622 
 ASP623  PHE694  ASN695  SER759  ASP760  ASP761  ALA762  ILE779  LEU786  VAL792 
 PHE793  MET794  SER795  GLU796  ALA797  LYS798  CYS799  TRP800  GLU811  SER814 

> <Gold.Protein.RotatedAtoms>
  151.6658  135.0983  160.0188 H   0  0  0  0  0  0  0  0  0  0  0  0  # atno 6907 bound_to 6896
  152.3920  133.6689  159.6254 H   0  0  0  0  0  0  0  0  0  0  0  0  # atno 6908 bound_to 6896
  150.7834  133.8854  159.3339 H   0  0  0  0  0  0  0  0  0  0  0  0  # atno 6909 bound_to 6896
  145.0561  139.3843  143.5029 H   0  0  0  0  0  0  0  0  0  0  0  0  # atno 7974 bound_to 7965
  156.2748  140.2773  156.1552 H   0  0  0  0  0  0  0  0  0  0  0  0  # atno 8008 bound_to 7997
  155.0811  140.0388  157.2657 H   0  0  0  0  0  0  0  0  0  0  0  0  # atno 8009 bound_to 7997
  154.6963  140.2640  155.6768 H   0  0  0  0  0  0  0  0  0  0  0  0  # atno 8010 bound_to 7997
  139.6712  144.7125  151.1684 H   0  0  0  0  0  0  0  0  0  0  0  0  # atno 10167 bound_to 10162
  156.0472  130.5699  150.7924 H   0  0  0  0  0  0  0  0  0  0  0  0  # atno 10718 bound_to 10713
  154.6892  135.2968  154.9504 H   0  0  0  0  0  0  0  0  0  0  0  0  # atno 10763 bound_to 10752
  154.0473  135.6649  153.4800 H   0  0  0  0  0  0  0  0  0  0  0  0  # atno 10764 bound_to 10752
  153.0600  135.5121  154.7975 H   0  0  0  0  0  0  0  0  0  0  0  0  # atno 10765 bound_to 10752
  140.9918  134.0528  157.3646 H   0  0  0  0  0  0  0  0  0  0  0  0  # atno 11005 bound_to 11000
  146.3521  140.0236  142.8656 LP  0  0  0  0  0  0  0  0  0  0  0  0  # atno 17320 bound_to 7965
  145.1467  140.9601  143.4457 LP  0  0  0  0  0  0  0  0  0  0  0  0  # atno 17321 bound_to 7965
  140.7619  143.5841  150.8864 LP  0  0  0  0  0  0  0  0  0  0  0  0  # atno 17342 bound_to 10162
  139.9506  143.6276  152.3030 LP  0  0  0  0  0  0  0  0  0  0  0  0  # atno 17343 bound_to 10162
  157.5361  131.0939  150.9890 LP  0  0  0  0  0  0  0  0  0  0  0  0  # atno 17370 bound_to 10713
  157.0185  130.5664  149.5328 LP  0  0  0  0  0  0  0  0  0  0  0  0  # atno 17371 bound_to 10713
  139.8996  135.0159  156.7201 LP  0  0  0  0  0  0  0  0  0  0  0  0  # atno 17394 bound_to 11000
  140.7029  133.9291  155.8035 LP  0  0  0  0  0  0  0  0  0  0  0  0  # atno 17395 bound_to 11000

$$$$
