AV-unprocessed.smi:819|AV-procd|sdf|3835|dock1
  -GOLD-   22720 1273D 1   1.00000     0.00000
 Structure written by MMmdl.
 40 41  0  0  0  0  0  0  0  0  1 V2000
  149.3535  132.3111  153.8166 C   0  0  0  0  0  0  0  0  0  0  0  0
  148.2706  133.3625  154.1108 C   0  0  1  0  0  0  0  0  0  0  0  0
  148.8572  134.6881  153.9183 N   0  0  0  0  0  0  0  0  0  0  0  0
  149.2777  135.4973  154.9025 C   0  0  0  0  0  0  0  0  0  0  0  0
  149.2216  135.1956  156.0943 O   0  0  0  0  0  0  0  0  0  0  0  0
  149.7445  136.6567  154.4076 N   0  0  0  0  0  0  0  0  0  0  0  0
  150.2845  137.7804  155.0928 C   0  0  0  0  0  0  0  0  0  0  0  0
  150.4497  137.8731  156.4971 C   0  0  0  0  0  0  0  0  0  0  0  0
  151.0081  139.0463  157.0402 C   0  0  0  0  0  0  0  0  0  0  0  0
  151.3852  140.0816  156.1637 C   0  0  0  0  0  0  0  0  0  0  0  0
  151.2403  140.0058  154.8244 N   0  0  0  0  0  0  0  0  0  0  0  0
  150.7032  138.8786  154.3110 C   0  0  0  0  0  0  0  0  0  0  0  0
  147.1014  133.1463  153.1371 C   0  0  0  0  0  0  0  0  0  0  0  0
  146.3686  132.1617  153.2465 O   0  0  0  0  0  0  0  0  0  0  0  0
  146.9417  134.0817  152.1892 N   0  0  0  0  0  0  0  0  0  0  0  0
  145.9181  134.0597  151.1483 C   0  0  0  0  0  0  0  0  0  0  0  0
  144.5103  133.8695  151.7482 C   0  0  0  0  0  0  0  0  0  0  0  0
  144.0994  132.4373  151.4068 C   0  0  0  0  0  0  0  0  0  0  0  0
  144.7893  132.1613  150.0747 C   0  0  0  0  0  0  0  0  0  0  0  0
  146.1389  132.8725  150.1906 C   0  0  0  0  0  0  0  0  0  0  0  0
  148.9666  131.2986  153.9399 H   0  0  0  0  0  0  0  0  0  0  0  0
  150.1964  132.4203  154.4995 H   0  0  0  0  0  0  0  0  0  0  0  0
  149.7403  132.3976  152.7999 H   0  0  0  0  0  0  0  0  0  0  0  0
  147.9305  133.2554  155.1430 H   0  0  0  0  0  0  0  0  0  0  0  0
  148.9303  135.0170  152.9669 H   0  0  0  0  0  0  0  0  0  0  0  0
  149.6835  136.7589  153.4050 H   0  0  0  0  0  0  0  0  0  0  0  0
  150.1724  137.0785  157.1703 H   0  0  0  0  0  0  0  0  0  0  0  0
  151.1464  139.1491  158.1064 H   0  0  0  0  0  0  0  0  0  0  0  0
  151.8177  140.9932  156.5487 H   0  0  0  0  0  0  0  0  0  0  0  0
  150.6038  138.8541  153.2354 H   0  0  0  0  0  0  0  0  0  0  0  0
  147.5920  134.8539  152.1729 H   0  0  0  0  0  0  0  0  0  0  0  0
  145.9514  134.9940  150.5845 H   0  0  0  0  0  0  0  0  0  0  0  0
  144.4619  134.0633  152.8209 H   0  0  0  0  0  0  0  0  0  0  0  0
  143.8204  134.5648  151.2680 H   0  0  0  0  0  0  0  0  0  0  0  0
  144.4803  131.7543  152.1676 H   0  0  0  0  0  0  0  0  0  0  0  0
  143.0177  132.3113  151.3553 H   0  0  0  0  0  0  0  0  0  0  0  0
  144.8926  131.0959  149.8674 H   0  0  0  0  0  0  0  0  0  0  0  0
  144.2092  132.6040  149.2638 H   0  0  0  0  0  0  0  0  0  0  0  0
  146.5124  133.1933  149.2175 H   0  0  0  0  0  0  0  0  0  0  0  0
  146.8716  132.1760  150.6014 H   0  0  0  0  0  0  0  0  0  0  0  0
  1  2  1  0  0  0  0
  1 21  1  0  0  0  0
  1 22  1  0  0  0  0
  1 23  1  0  0  0  0
  2  3  1  0  0  0  0
  2 13  1  0  0  0  0
  2 24  1  0  0  0  0
  3  4  1  0  0  0  0
  3 25  1  0  0  0  0
  4  5  2  0  0  0  0
  4  6  1  0  0  0  0
  6  7  1  0  0  0  0
  6 26  1  0  0  0  0
  7 12  1  0  0  0  0
  7  8  2  0  0  0  0
  8  9  1  0  0  0  0
  8 27  1  0  0  0  0
  9 10  2  0  0  0  0
  9 28  1  0  0  0  0
 10 11  1  0  0  0  0
 10 29  1  0  0  0  0
 11 12  2  0  0  0  0
 12 30  1  0  0  0  0
 13 14  2  0  0  0  0
 13 15  1  0  0  0  0
 15 16  1  0  0  0  0
 15 31  1  0  0  0  0
 16 20  1  0  0  0  0
 16 17  1  0  0  0  0
 16 32  1  0  0  0  0
 17 18  1  0  0  0  0
 17 33  1  0  0  0  0
 17 34  1  0  0  0  0
 18 19  1  0  0  0  0
 18 35  1  0  0  0  0
 18 36  1  0  0  0  0
 19 20  1  0  0  0  0
 19 37  1  0  0  0  0
 19 38  1  0  0  0  0
 20 39  1  0  0  0  0
 20 40  1  0  0  0  0
M  END
> <s_m_source_file>
AV-unprocessed.smi

> <i_m_source_file_index>
819

> <i_lp_mmshare_version>
43012

> <i_f3d_flags>
0

> <s_epik_input>
W0NIMl0xW0NIMl1bQ0gyXVtDSDJdW0NIXTFbTkhdQyg9TylbQ0BIXShbQ0gzXSlbTkhdQyg9TylbTkhdYzJbY0hdW2NIXVtjSF1uW2NIXTI=

> <s_epik_cmdline>
J2VwaWtfcHl0aG9uJywgJy1waCcsICc3LjAnLCAnLXRuJywgJzgnLCAnLW1hJywgJzIwMCcsICctbWV0YWxfYmluZGluZycsICctaW1hZScsICc8aW5maWxlLm1hZT4nLCAnLW9tYWUnLCAnPG91dGZpbGUubWFlPic=

> <r_epik_Ionization_Penalty>
0.00416979

> <r_epik_Ionization_Penalty_Charging>
0

> <r_epik_Ionization_Penalty_Neutral>
0.00416979

> <r_epik_State_Penalty>
0.00297037

> <r_epik_Charging_Adjusted_Penalty>
0.00297037

> <i_epik_Tot_Q>
0

> <i_epik_Tot_abs_Q>
0

> <r_epik_Metal_State_Penalty>
-0

> <b_epik_Metal_Only>
0

> <s_lp_Force_Field>
OPLS_2005

> <r_lp_Energy>
20.1385

> <b_lp_Chiralities_Consistent>
1

> <s_lp_Variant>
AV-unprocessed.smi:819-2

> <Gold.Version>
5.8.1

> <Gold.Id.Protein>
6NUR|6NUR_protein|mol2

> <Gold.PLP.Fitness>
46.3266

> <Gold.PLP.PLP>
-32.2919

> <Gold.PLP.part.hbond>
-4.0000

> <Gold.PLP.part.metal>
0.0000

> <Gold.PLP.part.buried>
-4.0392

> <Gold.PLP.part.nonpolar>
-24.1231

> <Gold.PLP.part.repulsive>
0.2770

> <Gold.PLP.ligand.clash>
0.0000

> <Gold.PLP.ligand.torsion>
0.4854

> <Gold.PLP.Chemscore.Hbond>
4.0000

> <Gold.PLP.Chemscore.CHOScore>
0.9950

> <Gold.PLP.Chemscore.Metal>
0.0000

> <Gold.Chemscore.Hbonds>
donor molecule, donor type, donor heavy atom, donor atom, acceptor molecule, acceptor atom, score
      L1  H     3    25       P1  7948  0.85
      L1  H     6    26       P1  7948  0.99
      L1  H    15    31       P1  7948  1.00
      P1  H  7989  7998       L1    11  1.00
      L1  C    12    30       P1  7957  0.90

> <Gold.PLP.Chemscore.Internal.Correction>
0.0205

> <Gold.Rescore>
     Score         DG    S(hbond)    S(metal)    S(lipo)     H(rot)  DE(clash)    DE(int)     intcor
     14.25     -18.15       2.37        0.00      74.09       1.52       0.06       3.84       ----

> <Gold.Chemscore.Fitness>
14.2489

> <Gold.Chemscore.DG>
-18.1511

> <Gold.Chemscore.ZeroCoef>
-5.4800

> <Gold.Chemscore.Hbond>
2.3653

> <Gold.Chemscore.Metal>
0.0000

> <Gold.Chemscore.Lipo>
74.0913

> <Gold.Chemscore.Internal_Hbond>
0.0000

> <Gold.Chemscore.DEClash>
0.0611

> <Gold.Chemscore.DEInternal>
3.8411

> <Gold.Chemscore.Rot>
1.5225

> <Gold.Chemscore.Internal.Correction>
   9.000000E+99

> <Gold.Chemscore.Hbonds>
donor molecule, donor type, donor heavy atom, donor atom, acceptor molecule, acceptor atom, score
      L1  H     3    25       P1  7948  0.14
      L1  H     6    26       P1  7948  0.52
      L1  H    15    31       P1  7948  0.85
      P1  H  7989  7998       L1    11  0.39

> <Gold.Chemscore.Hbond.Weighted>
-7.9001

> <Gold.Chemscore.Metal.Weighted>
-0.0000

> <Gold.Chemscore.Lipo.Weighted>
-8.6687

> <Gold.Chemscore.Internal_Hbond.Weighted>
0.0000

> <Gold.Chemscore.DEClash.Weighted>
0.0611

> <Gold.Chemscore.DEInternal.Weighted>
3.8411

> <Gold.Chemscore.Rot.Weighted>
3.8977

> <Gold.Chemscore.Internal.Correction.Weighted>
   9.000000E+99

> <Gold.Protein.RotatedTorsions>
[ 6907 6896 6895 6894 ] final -166.45 input  -60.11 | X-H torsion
[ 7974 7965 7964 7962 ] final   95.66 input  175.53 | X-H torsion
[ 8008 7997 7996 7995 ] final  -81.78 input   59.86 | X-H torsion
[ 10167 10162 10161 10158 ] final  -46.40 input  -65.29 | X-H torsion
[ 10718 10713 10712 10709 ] final    1.17 input   66.30 | X-H torsion
[ 10763 10752 10751 10750 ] final -139.28 input  -60.55 | X-H torsion
[ 11005 11000 10999 10996 ] final  -39.41 input  -57.11 | X-H torsion

> <Gold.Protein.ActiveResidues>
 VAL166  LYS551  ARG553  GLY616  TRP617  ASP618  TYR619  PRO620  LYS621  CYS622 
 ASP623  PHE694  ASN695  SER759  ASP760  ASP761  ALA762  ILE779  LEU786  VAL792 
 PHE793  MET794  SER795  GLU796  ALA797  LYS798  CYS799  TRP800  GLU811  SER814 

> <Gold.Protein.RotatedAtoms>
  151.4438  133.3636  159.2785 H   0  0  0  0  0  0  0  0  0  0  0  0  # atno 6907 bound_to 6896
  150.9139  134.8558  159.7454 H   0  0  0  0  0  0  0  0  0  0  0  0  # atno 6908 bound_to 6896
  152.4947  134.4370  159.9583 H   0  0  0  0  0  0  0  0  0  0  0  0  # atno 6909 bound_to 6896
  145.4493  139.2294  143.3049 H   0  0  0  0  0  0  0  0  0  0  0  0  # atno 7974 bound_to 7965
  154.6018  140.0643  156.9379 H   0  0  0  0  0  0  0  0  0  0  0  0  # atno 8008 bound_to 7997
  155.2119  140.3323  155.4309 H   0  0  0  0  0  0  0  0  0  0  0  0  # atno 8009 bound_to 7997
  156.2323  140.1846  156.7194 H   0  0  0  0  0  0  0  0  0  0  0  0  # atno 8010 bound_to 7997
  140.6819  143.2833  151.3777 H   0  0  0  0  0  0  0  0  0  0  0  0  # atno 10167 bound_to 10162
  156.8442  130.5531  149.5675 H   0  0  0  0  0  0  0  0  0  0  0  0  # atno 10718 bound_to 10713
  154.8613  135.3587  154.5521 H   0  0  0  0  0  0  0  0  0  0  0  0  # atno 10763 bound_to 10752
  153.6139  135.7008  153.5341 H   0  0  0  0  0  0  0  0  0  0  0  0  # atno 10764 bound_to 10752
  153.3186  135.4158  155.1358 H   0  0  0  0  0  0  0  0  0  0  0  0  # atno 10765 bound_to 10752
  141.0099  133.6913  156.2183 H   0  0  0  0  0  0  0  0  0  0  0  0  # atno 11005 bound_to 11000
  146.2513  140.5250  142.8892 LP  0  0  0  0  0  0  0  0  0  0  0  0  # atno 17320 bound_to 7965
  144.8072  140.6320  143.6439 LP  0  0  0  0  0  0  0  0  0  0  0  0  # atno 17321 bound_to 7965
  139.6147  144.1026  152.2334 LP  0  0  0  0  0  0  0  0  0  0  0  0  # atno 17342 bound_to 10162
  140.0452  144.5976  150.7380 LP  0  0  0  0  0  0  0  0  0  0  0  0  # atno 17343 bound_to 10162
  156.0864  130.5861  150.9655 LP  0  0  0  0  0  0  0  0  0  0  0  0  # atno 17370 bound_to 10713
  157.6339  131.0918  150.8387 LP  0  0  0  0  0  0  0  0  0  0  0  0  # atno 17371 bound_to 10713
  140.6750  134.4827  157.5588 LP  0  0  0  0  0  0  0  0  0  0  0  0  # atno 17394 bound_to 11000
  139.9084  134.8398  156.1618 LP  0  0  0  0  0  0  0  0  0  0  0  0  # atno 17395 bound_to 11000

$$$$
