AV-unprocessed.smi:2021|AV-procd|sdf|8175|dock10
  -GOLD-   2272010423D 1   1.00000     0.00000
 Structure written by MMmdl.
 42 43  0  0  0  0  0  0  0  0  2 V2000
  145.4104  135.0154  151.1339 C   0  0  0  0  0  0  0  0  0  0  0  0
  144.9699  133.6116  150.6928 C   0  0  0  0  0  0  0  0  0  0  0  0
  143.8086  133.1136  151.5696 C   0  0  0  0  0  0  0  0  0  0  0  0
  146.1656  132.6348  150.7154 C   0  0  0  0  0  0  0  0  0  0  0  0
  146.6081  132.2891  152.0908 N   0  3  1  0  0  0  0  0  0  0  0  0
  146.7402  130.8293  152.3220 C   0  0  0  0  0  0  0  0  0  0  0  0
  147.1641  130.5522  153.7730 C   0  0  0  0  0  0  0  0  0  0  0  0
  148.3793  131.2355  154.0512 O   0  0  0  0  0  0  0  0  0  0  0  0
  148.2461  132.6474  153.9320 C   0  0  1  0  0  0  0  0  0  0  0  0
  149.5847  133.2754  154.3664 C   0  0  0  0  0  0  0  0  0  0  0  0
  149.6839  134.6933  154.0331 N   0  0  0  0  0  0  0  0  0  0  0  0
  150.4869  135.5727  154.6489 C   0  0  0  0  0  0  0  0  0  0  0  0
  151.2154  135.2748  155.5954 O   0  0  0  0  0  0  0  0  0  0  0  0
  150.3848  136.7953  154.0987 N   0  0  0  0  0  0  0  0  0  0  0  0
  151.0686  137.9851  154.4647 C   0  0  0  0  0  0  0  0  0  0  0  0
  150.6178  139.2182  154.1862 N   0  0  0  0  0  0  0  0  0  0  0  0
  151.4780  140.2034  154.6539 N   0  0  0  0  0  0  0  0  0  0  0  0
  152.5423  139.6752  155.2651 C   0  0  0  0  0  0  0  0  0  0  0  0
  152.5985  137.9221  155.3284 S   0  0  0  0  0  0  0  0  0  0  0  0
  147.8565  132.9892  152.4775 C   0  0  0  0  0  0  0  0  0  0  0  0
  145.7887  135.0107  152.1567 H   0  0  0  0  0  0  0  0  0  0  0  0
  144.5801  135.7211  151.0896 H   0  0  0  0  0  0  0  0  0  0  0  0
  146.2007  135.4007  150.4887 H   0  0  0  0  0  0  0  0  0  0  0  0
  144.6026  133.7066  149.6713 H   0  0  0  0  0  0  0  0  0  0  0  0
  144.1142  133.0123  152.6118 H   0  0  0  0  0  0  0  0  0  0  0  0
  143.4412  132.1434  151.2349 H   0  0  0  0  0  0  0  0  0  0  0  0
  142.9679  133.8074  151.5372 H   0  0  0  0  0  0  0  0  0  0  0  0
  145.9245  131.7172  150.1763 H   0  0  0  0  0  0  0  0  0  0  0  0
  146.9923  133.0952  150.1718 H   0  0  0  0  0  0  0  0  0  0  0  0
  145.7979  130.3209  152.1214 H   0  0  0  0  0  0  0  0  0  0  0  0
  147.4797  130.4148  151.6352 H   0  0  0  0  0  0  0  0  0  0  0  0
  146.3871  130.8617  154.4739 H   0  0  0  0  0  0  0  0  0  0  0  0
  147.3193  129.4834  153.9220 H   0  0  0  0  0  0  0  0  0  0  0  0
  147.4581  132.9817  154.6093 H   0  0  0  0  0  0  0  0  0  0  0  0
  149.7291  133.1449  155.4401 H   0  0  0  0  0  0  0  0  0  0  0  0
  150.4117  132.7562  153.8816 H   0  0  0  0  0  0  0  0  0  0  0  0
  149.1191  135.0204  153.2628 H   0  0  0  0  0  0  0  0  0  0  0  0
  149.7493  136.8853  153.3198 H   0  0  0  0  0  0  0  0  0  0  0  0
  153.3001  140.3223  155.6813 H   0  0  0  0  0  0  0  0  0  0  0  0
  148.6595  132.7077  151.7944 H   0  0  0  0  0  0  0  0  0  0  0  0
  147.7105  134.0654  152.3767 H   0  0  0  0  0  0  0  0  0  0  0  0
  145.8913  132.6265  152.7177 H   0  0  0  0  0  0  0  0  0  0  0  0
  1  2  1  0  0  0  0
  1 21  1  0  0  0  0
  1 22  1  0  0  0  0
  1 23  1  0  0  0  0
  2  3  1  0  0  0  0
  2  4  1  0  0  0  0
  2 24  1  0  0  0  0
  3 25  1  0  0  0  0
  3 26  1  0  0  0  0
  3 27  1  0  0  0  0
  4  5  1  0  0  0  0
  4 28  1  0  0  0  0
  4 29  1  0  0  0  0
  5 20  1  0  0  0  0
  5  6  1  0  0  0  0
  5 42  1  0  0  0  0
  6  7  1  0  0  0  0
  6 30  1  0  0  0  0
  6 31  1  0  0  0  0
  7  8  1  0  0  0  0
  7 32  1  0  0  0  0
  7 33  1  0  0  0  0
  8  9  1  0  0  0  0
  9 10  1  0  0  0  0
  9 20  1  0  0  0  0
  9 34  1  0  0  0  0
 10 11  1  0  0  0  0
 10 35  1  0  0  0  0
 10 36  1  0  0  0  0
 11 12  1  0  0  0  0
 11 37  1  0  0  0  0
 12 13  2  0  0  0  0
 12 14  1  0  0  0  0
 14 15  1  0  0  0  0
 14 38  1  0  0  0  0
 15 19  1  0  0  0  0
 15 16  2  0  0  0  0
 16 17  1  0  0  0  0
 17 18  2  0  0  0  0
 18 19  1  0  0  0  0
 18 39  1  0  0  0  0
 20 40  1  0  0  0  0
 20 41  1  0  0  0  0
M  CHG  1   5   1
M  END
> <s_m_source_file>
AV-unprocessed.smi

> <i_m_source_file_index>
2021

> <i_lp_mmshare_version>
43012

> <i_f3d_flags>
0

> <s_epik_input>
W0NIM11bQ0hdKFtDSDNdKVtDSDJdTjFbQ0gyXVtDSDJdT1tDQEhdKFtDSDJdMSlbQ0gyXVtOSF1DKD1PKVtOSF1jMm5uW2NIXXMy

> <s_epik_cmdline>
J2VwaWtfcHl0aG9uJywgJy1waCcsICc3LjAnLCAnLXRuJywgJzgnLCAnLW1hJywgJzIwMCcsICctbWV0YWxfYmluZGluZycsICctaW1hZScsICc8aW5maWxlLm1hZT4nLCAnLW9tYWUnLCAnPG91dGZpbGUubWFlPic=

> <r_lp_tautomer_probability>
1

> <r_epik_Ionization_Penalty>
0.102019

> <r_epik_Ionization_Penalty_Charging>
0.098413

> <r_epik_Ionization_Penalty_Neutral>
0.00360555

> <r_epik_State_Penalty>
0.0884988

> <r_epik_Charging_Adjusted_Penalty>
0.186912

> <i_epik_Tot_Q>
1

> <i_epik_Tot_abs_Q>
1

> <r_epik_Metal_State_Penalty>
0.454709

> <b_epik_Metal_Only>
0

> <s_lp_Force_Field>
OPLS_2005

> <r_lp_Energy>
17.0767

> <b_lp_Chiralities_Consistent>
1

> <s_lp_Variant>
AV-unprocessed.smi:2021-1

> <Gold.Version>
5.8.1

> <Gold.Id.Protein>
6NUR|6NUR_protein|mol2

> <Gold.PLP.Fitness>
42.9752

> <Gold.PLP.PLP>
-33.9484

> <Gold.PLP.part.hbond>
-5.7255

> <Gold.PLP.part.metal>
0.0000

> <Gold.PLP.part.buried>
0.5574

> <Gold.PLP.part.nonpolar>
-28.7564

> <Gold.PLP.part.repulsive>
0.4533

> <Gold.PLP.ligand.clash>
0.0000

> <Gold.PLP.ligand.torsion>
1.0632

> <Gold.PLP.Chemscore.Hbond>
3.7045

> <Gold.PLP.Chemscore.CHOScore>
0.0000

> <Gold.PLP.Chemscore.Metal>
0.0000

> <Gold.Chemscore.Hbonds>
donor molecule, donor type, donor heavy atom, donor atom, acceptor molecule, acceptor atom, score
      L1  H    11    37       P1  7948  0.79
      L1  H    14    38       P1  7948  1.00
      P1  H  7989  7998       L1    17  0.47
      P1  H 10752 10765       L1    13  1.00

> <Gold.PLP.Chemscore.Internal.Correction>
0.0398

> <Gold.Rescore>
     Score         DG    S(hbond)    S(metal)    S(lipo)     H(rot)  DE(clash)    DE(int)     intcor
     13.28     -15.48       2.05        0.00      68.07       1.88       0.08       2.13       ----

> <Gold.Chemscore.Fitness>
13.2785

> <Gold.Chemscore.DG>
-15.4850

> <Gold.Chemscore.ZeroCoef>
-5.4800

> <Gold.Chemscore.Hbond>
2.0529

> <Gold.Chemscore.Metal>
0.0000

> <Gold.Chemscore.Lipo>
68.0704

> <Gold.Chemscore.Internal_Hbond>
0.0000

> <Gold.Chemscore.DEClash>
0.0794

> <Gold.Chemscore.DEInternal>
2.1271

> <Gold.Chemscore.Rot>
1.8812

> <Gold.Chemscore.Internal.Correction>
   9.000000E+99

> <Gold.Chemscore.Hbonds>
donor molecule, donor type, donor heavy atom, donor atom, acceptor molecule, acceptor atom, score
      L1  H    11    37       P1  7948  0.13
      L1  H    14    38       P1  7948  0.42
      P1  H  7989  7998       L1    17  0.09
      P1  H 10752 10765       L1    13  0.42

> <Gold.Chemscore.Hbond.Weighted>
-6.8567

> <Gold.Chemscore.Metal.Weighted>
-0.0000

> <Gold.Chemscore.Lipo.Weighted>
-7.9642

> <Gold.Chemscore.Internal_Hbond.Weighted>
0.0000

> <Gold.Chemscore.DEClash.Weighted>
0.0794

> <Gold.Chemscore.DEInternal.Weighted>
2.1271

> <Gold.Chemscore.Rot.Weighted>
4.8159

> <Gold.Chemscore.Internal.Correction.Weighted>
   9.000000E+99

> <Gold.Protein.RotatedTorsions>
[ 6907 6896 6895 6894 ] final    1.14 input  -60.11 | X-H torsion
[ 7974 7965 7964 7962 ] final -179.17 input  175.53 | X-H torsion
[ 8008 7997 7996 7995 ] final  -82.61 input   59.86 | X-H torsion
[ 10167 10162 10161 10158 ] final   55.62 input  -65.29 | X-H torsion
[ 10718 10713 10712 10709 ] final  115.57 input   66.30 | X-H torsion
[ 10763 10752 10751 10750 ] final -160.82 input  -60.55 | X-H torsion
[ 11005 11000 10999 10996 ] final  -86.26 input  -57.11 | X-H torsion

> <Gold.Protein.ActiveResidues>
 VAL166  LYS551  ARG553  GLY616  TRP617  ASP618  TYR619  PRO620  LYS621  CYS622 
 ASP623  PHE694  ASN695  SER759  ASP760  ASP761  ALA762  ILE779  LEU786  VAL792 
 PHE793  MET794  SER795  GLU796  ALA797  LYS798  CYS799  TRP800  GLU811  SER814 

> <Gold.Protein.RotatedAtoms>
  151.5878  135.1055  160.0031 H   0  0  0  0  0  0  0  0  0  0  0  0  # atno 6907 bound_to 6896
  152.4322  133.7293  159.6589 H   0  0  0  0  0  0  0  0  0  0  0  0  # atno 6908 bound_to 6896
  150.8215  133.8173  159.3159 H   0  0  0  0  0  0  0  0  0  0  0  0  # atno 6909 bound_to 6896
  144.7135  140.0758  143.6427 H   0  0  0  0  0  0  0  0  0  0  0  0  # atno 7974 bound_to 7965
  154.6104  140.0630  156.9486 H   0  0  0  0  0  0  0  0  0  0  0  0  # atno 8008 bound_to 7997
  155.1983  140.3313  155.4329 H   0  0  0  0  0  0  0  0  0  0  0  0  # atno 8009 bound_to 7997
  156.2373  140.1869  156.7068 H   0  0  0  0  0  0  0  0  0  0  0  0  # atno 8010 bound_to 7997
  140.2175  144.3824  150.6464 H   0  0  0  0  0  0  0  0  0  0  0  0  # atno 10167 bound_to 10162
  157.6214  131.1014  150.7349 H   0  0  0  0  0  0  0  0  0  0  0  0  # atno 10718 bound_to 10713
  154.7357  135.3056  154.8815 H   0  0  0  0  0  0  0  0  0  0  0  0  # atno 10763 bound_to 10752
  153.9645  135.6749  153.4750 H   0  0  0  0  0  0  0  0  0  0  0  0  # atno 10764 bound_to 10752
  153.0960  135.4935  154.8702 H   0  0  0  0  0  0  0  0  0  0  0  0  # atno 10765 bound_to 10752
  141.1632  133.7444  156.9135 H   0  0  0  0  0  0  0  0  0  0  0  0  # atno 11005 bound_to 11000
  145.9745  139.2894  143.1079 LP  0  0  0  0  0  0  0  0  0  0  0  0  # atno 17320 bound_to 7965
  145.9080  140.9199  143.0469 LP  0  0  0  0  0  0  0  0  0  0  0  0  # atno 17321 bound_to 7965
  140.6279  143.2183  151.6558 LP  0  0  0  0  0  0  0  0  0  0  0  0  # atno 17342 bound_to 10162
  139.5156  144.3372  152.0773 LP  0  0  0  0  0  0  0  0  0  0  0  0  # atno 17343 bound_to 10162
  156.7706  130.4827  149.5419 LP  0  0  0  0  0  0  0  0  0  0  0  0  # atno 17370 bound_to 10713
  156.1361  130.6212  151.0402 LP  0  0  0  0  0  0  0  0  0  0  0  0  # atno 17371 bound_to 10713
  140.1500  134.9236  157.2580 LP  0  0  0  0  0  0  0  0  0  0  0  0  # atno 17394 bound_to 11000
  140.2734  134.3434  155.7366 LP  0  0  0  0  0  0  0  0  0  0  0  0  # atno 17395 bound_to 11000

$$$$
