AV-unprocessed.smi:1047|AV-procd|sdf|4594|dock5
  -GOLD-   22720 3 73D 1   1.00000     0.00000
 Structure written by MMmdl.
 55 57  0  0  0  0  0  0  0  0  1 V2000
  141.7123  146.1815  154.1774 C   0  0  0  0  0  0  0  0  0  0  0  0
  142.7098  145.2820  154.9215 C   0  0  0  0  0  0  0  0  0  0  0  0
  143.4560  144.3557  154.0722 N   0  0  0  0  0  0  0  0  0  0  0  0
  144.0853  145.0210  152.9335 C   0  0  0  0  0  0  0  0  0  0  0  0
  144.8976  144.0389  152.0718 C   0  0  0  0  0  0  0  0  0  0  0  0
  145.8620  143.3809  152.8860 O   0  0  0  0  0  0  0  0  0  0  0  0
  145.2726  142.6602  153.9658 C   0  0  1  0  0  0  0  0  0  0  0  0
  146.3895  141.9615  154.7530 C   0  0  0  0  0  0  0  0  0  0  0  0
  146.9279  140.8536  153.9771 N   0  0  0  0  0  0  0  0  0  0  0  0
  147.8934  140.0176  154.6821 C   0  0  0  0  0  0  0  0  0  0  0  0
  149.3226  140.5907  154.5695 C   0  0  1  0  0  0  0  0  0  0  0  0
  149.4998  141.0536  153.2474 O   0  0  0  0  0  0  0  0  0  0  0  0
  149.6387  141.7777  155.5126 C   0  0  0  0  0  0  0  0  0  0  0  0
  150.3106  141.3863  156.7404 N   0  0  0  0  0  0  0  0  0  0  0  0
  150.6949  140.1439  157.0927 C   0  0  0  0  0  0  0  0  0  0  0  0
  151.3299  140.0076  158.2531 N   0  0  0  0  0  0  0  0  0  0  0  0
  151.3567  141.3136  158.7106 C   0  0  0  0  0  0  0  0  0  0  0  0
  151.9092  141.8592  159.8898 C   0  0  0  0  0  0  0  0  0  0  0  0
  151.8252  143.2445  160.1558 C   0  0  0  0  0  0  0  0  0  0  0  0
  152.4388  143.7898  161.4333 C   0  0  0  0  0  0  0  0  0  0  0  0
  151.1740  144.1061  159.2370 C   0  0  0  0  0  0  0  0  0  0  0  0
  151.0699  145.5975  159.5024 C   0  0  0  0  0  0  0  0  0  0  0  0
  150.6158  143.5771  158.0544 C   0  0  0  0  0  0  0  0  0  0  0  0
  150.7135  142.1984  157.7962 C   0  0  0  0  0  0  0  0  0  0  0  0
  144.4809  143.6535  154.8377 C   0  0  0  0  0  0  0  0  0  0  0  0
  141.1218  146.7638  154.8848 H   0  0  0  0  0  0  0  0  0  0  0  0
  141.0207  145.5894  153.5772 H   0  0  0  0  0  0  0  0  0  0  0  0
  142.2143  146.8884  153.5169 H   0  0  0  0  0  0  0  0  0  0  0  0
  143.4021  145.9008  155.4944 H   0  0  0  0  0  0  0  0  0  0  0  0
  142.1440  144.7069  155.6561 H   0  0  0  0  0  0  0  0  0  0  0  0
  143.3306  145.4936  152.3056 H   0  0  0  0  0  0  0  0  0  0  0  0
  144.7427  145.8169  153.2875 H   0  0  0  0  0  0  0  0  0  0  0  0
  144.2439  143.3023  151.6016 H   0  0  0  0  0  0  0  0  0  0  0  0
  145.4099  144.5705  151.2700 H   0  0  0  0  0  0  0  0  0  0  0  0
  144.5866  141.9076  153.5700 H   0  0  0  0  0  0  0  0  0  0  0  0
  147.1766  142.6714  155.0094 H   0  0  0  0  0  0  0  0  0  0  0  0
  145.9850  141.5830  155.6926 H   0  0  0  0  0  0  0  0  0  0  0  0
  147.3338  141.2038  153.1147 H   0  0  0  0  0  0  0  0  0  0  0  0
  147.6085  139.9624  155.7338 H   0  0  0  0  0  0  0  0  0  0  0  0
  147.8684  138.9966  154.2990 H   0  0  0  0  0  0  0  0  0  0  0  0
  150.0460  139.7903  154.7273 H   0  0  0  0  0  0  0  0  0  0  0  0
  149.6170  140.3060  152.6814 H   0  0  0  0  0  0  0  0  0  0  0  0
  150.2659  142.5087  155.0007 H   0  0  0  0  0  0  0  0  0  0  0  0
  148.7164  142.2950  155.7822 H   0  0  0  0  0  0  0  0  0  0  0  0
  150.5128  139.2925  156.4533 H   0  0  0  0  0  0  0  0  0  0  0  0
  152.4041  141.2023  160.5897 H   0  0  0  0  0  0  0  0  0  0  0  0
  151.6670  144.2202  162.0718 H   0  0  0  0  0  0  0  0  0  0  0  0
  153.1730  144.5634  161.2063 H   0  0  0  0  0  0  0  0  0  0  0  0
  152.9445  143.0065  161.9990 H   0  0  0  0  0  0  0  0  0  0  0  0
  150.5186  146.1049  158.7101 H   0  0  0  0  0  0  0  0  0  0  0  0
  152.0623  146.0456  159.5594 H   0  0  0  0  0  0  0  0  0  0  0  0
  150.5506  145.7830  160.4428 H   0  0  0  0  0  0  0  0  0  0  0  0
  150.1227  144.2233  157.3437 H   0  0  0  0  0  0  0  0  0  0  0  0
  145.1686  144.3742  155.2836 H   0  0  0  0  0  0  0  0  0  0  0  0
  144.0161  143.1141  155.6640 H   0  0  0  0  0  0  0  0  0  0  0  0
  1  2  1  0  0  0  0
  1 26  1  0  0  0  0
  1 27  1  0  0  0  0
  1 28  1  0  0  0  0
  2  3  1  0  0  0  0
  2 29  1  0  0  0  0
  2 30  1  0  0  0  0
  3 25  1  0  0  0  0
  3  4  1  0  0  0  0
  4  5  1  0  0  0  0
  4 31  1  0  0  0  0
  4 32  1  0  0  0  0
  5  6  1  0  0  0  0
  5 33  1  0  0  0  0
  5 34  1  0  0  0  0
  6  7  1  0  0  0  0
  7  8  1  0  0  0  0
  7 25  1  0  0  0  0
  7 35  1  0  0  0  0
  8  9  1  0  0  0  0
  8 36  1  0  0  0  0
  8 37  1  0  0  0  0
  9 10  1  0  0  0  0
  9 38  1  0  0  0  0
 10 11  1  0  0  0  0
 10 39  1  0  0  0  0
 10 40  1  0  0  0  0
 11 12  1  0  0  0  0
 11 13  1  0  0  0  0
 11 41  1  0  0  0  0
 12 42  1  0  0  0  0
 13 14  1  0  0  0  0
 13 43  1  0  0  0  0
 13 44  1  0  0  0  0
 14 24  1  0  0  0  0
 14 15  1  0  0  0  0
 15 16  2  0  0  0  0
 15 45  1  0  0  0  0
 16 17  1  0  0  0  0
 17 24  2  0  0  0  0
 17 18  1  0  0  0  0
 18 19  2  0  0  0  0
 18 46  1  0  0  0  0
 19 20  1  0  0  0  0
 19 21  1  0  0  0  0
 20 47  1  0  0  0  0
 20 48  1  0  0  0  0
 20 49  1  0  0  0  0
 21 22  1  0  0  0  0
 21 23  2  0  0  0  0
 22 50  1  0  0  0  0
 22 51  1  0  0  0  0
 22 52  1  0  0  0  0
 23 24  1  0  0  0  0
 23 53  1  0  0  0  0
 25 54  1  0  0  0  0
 25 55  1  0  0  0  0
M  END
> <s_m_source_file>
AV-unprocessed.smi

> <i_m_source_file_index>
1047

> <i_lp_mmshare_version>
43012

> <i_f3d_flags>
0

> <s_epik_input>
W0NIM11bQ0gyXU4xW0NIMl1bQ0gyXU9bQ0BIXShbQ0gyXTEpW0NIMl1bTkhdW0NIMl1bQ0BIXShbT0hdKVtDSDJdbihbY0hdbjIpYyhjMjMpW2NIXWMoW0NIM10pYyhbY0hdMylbQ0gzXQ==

> <s_epik_cmdline>
J2VwaWtfcHl0aG9uJywgJy1waCcsICc3LjAnLCAnLXRuJywgJzgnLCAnLW1hJywgJzIwMCcsICctbWV0YWxfYmluZGluZycsICctaW1hZScsICc8aW5maWxlLm1hZT4nLCAnLW9tYWUnLCAnPG91dGZpbGUubWFlPic=

> <r_epik_Ionization_Penalty>
2.74124

> <r_epik_Ionization_Penalty_Charging>
0

> <r_epik_Ionization_Penalty_Neutral>
2.74124

> <r_epik_State_Penalty>
2.37482

> <r_epik_Charging_Adjusted_Penalty>
2.37482

> <i_epik_Tot_Q>
0

> <i_epik_Tot_abs_Q>
0

> <r_epik_Metal_State_Penalty>
2.25944

> <b_epik_Metal_Only>
0

> <s_lp_Force_Field>
OPLS_2005

> <r_lp_Energy>
29.9902

> <b_lp_Chiralities_Consistent>
1

> <s_lp_Variant>
AV-unprocessed.smi:1047-35

> <Gold.Version>
5.8.1

> <Gold.Id.Protein>
6NUR|6NUR_protein|mol2

> <Gold.PLP.Fitness>
57.2478

> <Gold.PLP.PLP>
-53.0367

> <Gold.PLP.part.hbond>
-3.5384

> <Gold.PLP.part.metal>
0.0000

> <Gold.PLP.part.buried>
-4.9042

> <Gold.PLP.part.nonpolar>
-45.3374

> <Gold.PLP.part.repulsive>
0.2997

> <Gold.PLP.ligand.clash>
0.0000

> <Gold.PLP.ligand.torsion>
0.9259

> <Gold.PLP.Chemscore.Hbond>
1.9710

> <Gold.PLP.Chemscore.CHOScore>
0.0000

> <Gold.PLP.Chemscore.Metal>
0.0000

> <Gold.Chemscore.Hbonds>
donor molecule, donor type, donor heavy atom, donor atom, acceptor molecule, acceptor atom, score
      L1  H    12    42       P1  7957  0.72
      P1  H  7989  7998       L1    12  0.01
      P1  H  8011  8017       L1    12  1.00

> <Gold.PLP.Chemscore.Internal.Correction>
0.1500

> <Gold.Rescore>
     Score         DG    S(hbond)    S(metal)    S(lipo)     H(rot)  DE(clash)    DE(int)     intcor
     19.33     -20.70       1.42        0.00     144.87       2.52       0.55       0.83       ----

> <Gold.Chemscore.Fitness>
19.3293

> <Gold.Chemscore.DG>
-20.7045

> <Gold.Chemscore.ZeroCoef>
-5.4800

> <Gold.Chemscore.Hbond>
1.4177

> <Gold.Chemscore.Metal>
0.0000

> <Gold.Chemscore.Lipo>
144.8732

> <Gold.Chemscore.Internal_Hbond>
0.0000

> <Gold.Chemscore.DEClash>
0.5479

> <Gold.Chemscore.DEInternal>
0.8273

> <Gold.Chemscore.Rot>
2.5237

> <Gold.Chemscore.Internal.Correction>
   9.000000E+99

> <Gold.Chemscore.Hbonds>
donor molecule, donor type, donor heavy atom, donor atom, acceptor molecule, acceptor atom, score
      L1  H    12    42       P1  7957  0.68
      P1  H  8011  8017       L1    12  0.60

> <Gold.Chemscore.Hbond.Weighted>
-4.7350

> <Gold.Chemscore.Metal.Weighted>
-0.0000

> <Gold.Chemscore.Lipo.Weighted>
-16.9502

> <Gold.Chemscore.Internal_Hbond.Weighted>
0.0000

> <Gold.Chemscore.DEClash.Weighted>
0.5479

> <Gold.Chemscore.DEInternal.Weighted>
0.8273

> <Gold.Chemscore.Rot.Weighted>
6.4607

> <Gold.Chemscore.Internal.Correction.Weighted>
   9.000000E+99

> <Gold.Protein.RotatedTorsions>
[ 6907 6896 6895 6894 ] final -100.39 input  -60.11 | X-H torsion
[ 7974 7965 7964 7962 ] final   19.44 input  175.53 | X-H torsion
[ 8008 7997 7996 7995 ] final  172.38 input   59.86 | X-H torsion
[ 10167 10162 10161 10158 ] final   58.92 input  -65.29 | X-H torsion
[ 10718 10713 10712 10709 ] final  140.19 input   66.30 | X-H torsion
[ 10763 10752 10751 10750 ] final  -24.52 input  -60.55 | X-H torsion
[ 11005 11000 10999 10996 ] final -138.10 input  -57.11 | X-H torsion

> <Gold.Protein.ActiveResidues>
 VAL166  LYS551  ARG553  GLY616  TRP617  ASP618  TYR619  PRO620  LYS621  CYS622 
 ASP623  PHE694  ASN695  SER759  ASP760  ASP761  ALA762  ILE779  LEU786  VAL792 
 PHE793  MET794  SER795  GLU796  ALA797  LYS798  CYS799  TRP800  GLU811  SER814 

> <Gold.Protein.RotatedAtoms>
  150.7114  134.0895  159.3926 H   0  0  0  0  0  0  0  0  0  0  0  0  # atno 6907 bound_to 6896
  151.8880  135.0425  160.0504 H   0  0  0  0  0  0  0  0  0  0  0  0  # atno 6908 bound_to 6896
  152.2514  133.5183  159.5364 H   0  0  0  0  0  0  0  0  0  0  0  0  # atno 6909 bound_to 6896
  146.2149  139.8313  142.8659 H   0  0  0  0  0  0  0  0  0  0  0  0  # atno 7974 bound_to 7965
  156.1180  140.1487  156.9245 H   0  0  0  0  0  0  0  0  0  0  0  0  # atno 8008 bound_to 7997
  154.4814  140.0878  156.7429 H   0  0  0  0  0  0  0  0  0  0  0  0  # atno 8009 bound_to 7997
  155.4480  140.3433  155.4299 H   0  0  0  0  0  0  0  0  0  0  0  0  # atno 8010 bound_to 7997
  140.1820  144.4173  150.6611 H   0  0  0  0  0  0  0  0  0  0  0  0  # atno 10167 bound_to 10162
  157.4061  131.1022  151.0502 H   0  0  0  0  0  0  0  0  0  0  0  0  # atno 10718 bound_to 10713
  153.6851  135.6964  153.5106 H   0  0  0  0  0  0  0  0  0  0  0  0  # atno 10763 bound_to 10752
  153.2455  135.4292  155.0742 H   0  0  0  0  0  0  0  0  0  0  0  0  # atno 10764 bound_to 10752
  154.8389  135.3518  154.6394 H   0  0  0  0  0  0  0  0  0  0  0  0  # atno 10765 bound_to 10752
  140.8648  134.2124  157.4686 H   0  0  0  0  0  0  0  0  0  0  0  0  # atno 11005 bound_to 11000
  145.2994  141.0190  143.3617 LP  0  0  0  0  0  0  0  0  0  0  0  0  # atno 17320 bound_to 7965
  144.9017  139.4641  143.6629 LP  0  0  0  0  0  0  0  0  0  0  0  0  # atno 17321 bound_to 7965
  140.6513  143.2226  151.6070 LP  0  0  0  0  0  0  0  0  0  0  0  0  # atno 17342 bound_to 10162
  139.5292  144.2966  152.1108 LP  0  0  0  0  0  0  0  0  0  0  0  0  # atno 17343 bound_to 10162
  157.1484  130.6173  149.5575 LP  0  0  0  0  0  0  0  0  0  0  0  0  # atno 17370 bound_to 10713
  155.9837  130.4857  150.6945 LP  0  0  0  0  0  0  0  0  0  0  0  0  # atno 17371 bound_to 10713
  139.8709  134.9747  156.4855 LP  0  0  0  0  0  0  0  0  0  0  0  0  # atno 17394 bound_to 11000
  140.8641  133.8037  155.9295 LP  0  0  0  0  0  0  0  0  0  0  0  0  # atno 17395 bound_to 11000

$$$$
