AV-unprocessed.smi:2390|AV-procd|sdf|9478|dock7
  -GOLD-   2272013103D 1   1.00000     0.00000
 Structure written by MMmdl.
 46 47  0  0  0  0  0  0  0  0  2 V2000
  153.1275  141.3643  160.8169 C   0  0  0  0  0  0  0  0  0  0  0  0
  152.4306  142.5088  160.1117 C   0  0  0  0  0  0  0  0  0  0  0  0
  152.4547  143.8119  160.6462 C   0  0  0  0  0  0  0  0  0  0  0  0
  151.7914  144.8310  159.9395 C   0  0  0  0  0  0  0  0  0  0  0  0
  151.1379  144.5080  158.7349 C   0  0  0  0  0  0  0  0  0  0  0  0
  151.1602  143.1745  158.2682 C   0  0  0  0  0  0  0  0  0  0  0  0
  150.4808  142.9545  157.0407 N   0  0  0  0  0  0  0  0  0  0  0  0
  150.0858  141.7839  156.5106 C   0  0  0  0  0  0  0  0  0  0  0  0
  150.1936  140.6827  157.0515 O   0  0  0  0  0  0  0  0  0  0  0  0
  149.5429  141.9580  155.2963 N   0  0  0  0  0  0  0  0  0  0  0  0
  149.0049  140.8937  154.4488 C   0  0  1  0  0  0  0  0  0  0  0  0
  149.9672  139.6936  154.4955 C   0  0  0  0  0  0  0  0  0  0  0  0
  147.5353  140.5217  154.8319 C   0  0  2  0  0  0  0  0  0  0  0  0
  146.9492  139.4695  153.8560 C   0  0  0  0  0  0  0  0  0  0  0  0
  146.6547  141.7306  154.9731 N   0  3  0  0  0  0  0  0  0  0  0  0
  146.4418  142.4820  153.7037 C   0  0  0  0  0  0  0  0  0  0  0  0
  145.5412  143.7103  153.9174 C   0  0  0  0  0  0  0  0  0  0  0  0
  144.3018  143.3077  154.4776 O   0  0  0  0  0  0  0  0  0  0  0  0
  144.4852  142.7074  155.7496 C   0  0  0  0  0  0  0  0  0  0  0  0
  145.3374  141.4359  155.6045 C   0  0  0  0  0  0  0  0  0  0  0  0
  151.8025  142.1984  158.9570 N   0  0  0  0  0  0  0  0  0  0  0  0
  153.4804  141.6645  161.8040 H   0  0  0  0  0  0  0  0  0  0  0  0
  153.9865  141.0293  160.2346 H   0  0  0  0  0  0  0  0  0  0  0  0
  152.4468  140.5218  160.9424 H   0  0  0  0  0  0  0  0  0  0  0  0
  152.9672  144.0282  161.5719 H   0  0  0  0  0  0  0  0  0  0  0  0
  151.7847  145.8442  160.3135 H   0  0  0  0  0  0  0  0  0  0  0  0
  150.6254  145.2797  158.1789 H   0  0  0  0  0  0  0  0  0  0  0  0
  150.2889  143.7832  156.4978 H   0  0  0  0  0  0  0  0  0  0  0  0
  149.4929  142.8978  154.9305 H   0  0  0  0  0  0  0  0  0  0  0  0
  149.0344  141.2944  153.4364 H   0  0  0  0  0  0  0  0  0  0  0  0
  149.6456  138.8956  153.8264 H   0  0  0  0  0  0  0  0  0  0  0  0
  150.0442  139.2758  155.4996 H   0  0  0  0  0  0  0  0  0  0  0  0
  150.9711  139.9874  154.1860 H   0  0  0  0  0  0  0  0  0  0  0  0
  147.5590  140.0488  155.8148 H   0  0  0  0  0  0  0  0  0  0  0  0
  147.6312  138.6367  153.6882 H   0  0  0  0  0  0  0  0  0  0  0  0
  146.7213  139.9062  152.8835 H   0  0  0  0  0  0  0  0  0  0  0  0
  146.0369  139.0182  154.2457 H   0  0  0  0  0  0  0  0  0  0  0  0
  147.3864  142.8439  153.3007 H   0  0  0  0  0  0  0  0  0  0  0  0
  146.0001  141.8195  152.9576 H   0  0  0  0  0  0  0  0  0  0  0  0
  146.0278  144.4432  154.5630 H   0  0  0  0  0  0  0  0  0  0  0  0
  145.3511  144.2051  152.9648 H   0  0  0  0  0  0  0  0  0  0  0  0
  144.9515  143.4136  156.4387 H   0  0  0  0  0  0  0  0  0  0  0  0
  143.5084  142.4583  156.1645 H   0  0  0  0  0  0  0  0  0  0  0  0
  144.8029  140.6955  155.0072 H   0  0  0  0  0  0  0  0  0  0  0  0
  145.4609  141.0173  156.6009 H   0  0  0  0  0  0  0  0  0  0  0  0
  147.1374  142.3626  155.5958 H   0  0  0  0  0  0  0  0  0  0  0  0
  1  2  1  0  0  0  0
  1 22  1  0  0  0  0
  1 23  1  0  0  0  0
  1 24  1  0  0  0  0
  2 21  1  0  0  0  0
  2  3  2  0  0  0  0
  3  4  1  0  0  0  0
  3 25  1  0  0  0  0
  4  5  2  0  0  0  0
  4 26  1  0  0  0  0
  5  6  1  0  0  0  0
  5 27  1  0  0  0  0
  6  7  1  0  0  0  0
  6 21  2  0  0  0  0
  7  8  1  0  0  0  0
  7 28  1  0  0  0  0
  8  9  2  0  0  0  0
  8 10  1  0  0  0  0
 10 11  1  0  0  0  0
 10 29  1  0  0  0  0
 11 12  1  0  0  0  0
 11 13  1  0  0  0  0
 11 30  1  0  0  0  0
 12 31  1  0  0  0  0
 12 32  1  0  0  0  0
 12 33  1  0  0  0  0
 13 14  1  0  0  0  0
 13 15  1  0  0  0  0
 13 34  1  0  0  0  0
 14 35  1  0  0  0  0
 14 36  1  0  0  0  0
 14 37  1  0  0  0  0
 15 20  1  0  0  0  0
 15 16  1  0  0  0  0
 15 46  1  0  0  0  0
 16 17  1  0  0  0  0
 16 38  1  0  0  0  0
 16 39  1  0  0  0  0
 17 18  1  0  0  0  0
 17 40  1  0  0  0  0
 17 41  1  0  0  0  0
 18 19  1  0  0  0  0
 19 20  1  0  0  0  0
 19 42  1  0  0  0  0
 19 43  1  0  0  0  0
 20 44  1  0  0  0  0
 20 45  1  0  0  0  0
M  CHG  1  15   1
M  END
> <s_m_source_file>
AV-unprocessed.smi

> <i_m_source_file_index>
2390

> <i_lp_mmshare_version>
43012

> <i_f3d_flags>
0

> <s_epik_input>
W0NIM11jMVtjSF1bY0hdW2NIXWMobjEpW05IXUMoPU8pW05IXVtDQEhdKFtDSDNdKVtDQEhdKFtDSDNdKU4yW0NIMl1bQ0gyXU9bQ0gyXVtDSDJdMg==

> <s_epik_cmdline>
J2VwaWtfcHl0aG9uJywgJy1waCcsICc3LjAnLCAnLXRuJywgJzgnLCAnLW1hJywgJzIwMCcsICctbWV0YWxfYmluZGluZycsICctaW1hZScsICc8aW5maWxlLm1hZT4nLCAnLW9tYWUnLCAnPG91dGZpbGUubWFlPic=

> <r_epik_Ionization_Penalty>
0.60259

> <r_epik_Ionization_Penalty_Charging>
0.602531

> <r_epik_Ionization_Penalty_Neutral>
5.9516e-05

> <r_epik_State_Penalty>
0.617039

> <r_epik_Charging_Adjusted_Penalty>
1.21957

> <i_epik_Tot_Q>
1

> <i_epik_Tot_abs_Q>
1

> <r_epik_Metal_State_Penalty>
0.617047

> <b_epik_Metal_Only>
0

> <s_lp_Force_Field>
OPLS_2005

> <r_lp_Energy>
24.4942

> <b_lp_Chiralities_Consistent>
1

> <s_lp_Variant>
AV-unprocessed.smi:2390-6

> <Gold.Version>
5.8.1

> <Gold.Id.Protein>
6NUR|6NUR_protein|mol2

> <Gold.PLP.Fitness>
47.2336

> <Gold.PLP.PLP>
-42.9233

> <Gold.PLP.part.hbond>
-2.0000

> <Gold.PLP.part.metal>
0.0000

> <Gold.PLP.part.buried>
-7.1805

> <Gold.PLP.part.nonpolar>
-35.7614

> <Gold.PLP.part.repulsive>
0.6104

> <Gold.PLP.ligand.clash>
0.0000

> <Gold.PLP.ligand.torsion>
0.4449

> <Gold.PLP.Chemscore.Hbond>
1.6960

> <Gold.PLP.Chemscore.CHOScore>
0.0000

> <Gold.PLP.Chemscore.Metal>
0.0000

> <Gold.Chemscore.Hbonds>
donor molecule, donor type, donor heavy atom, donor atom, acceptor molecule, acceptor atom, score
      L1  H     7    28       P1  8028  0.86
      L1  H    10    29       P1  8028  0.70

> <Gold.PLP.Chemscore.Internal.Correction>
0.1121

> <Gold.Rescore>
     Score         DG    S(hbond)    S(metal)    S(lipo)     H(rot)  DE(clash)    DE(int)     intcor
     15.84     -19.16       1.79        0.00      98.41       1.48       0.20       3.12       ----

> <Gold.Chemscore.Fitness>
15.8363

> <Gold.Chemscore.DG>
-19.1600

> <Gold.Chemscore.ZeroCoef>
-5.4800

> <Gold.Chemscore.Hbond>
1.7861

> <Gold.Chemscore.Metal>
0.0000

> <Gold.Chemscore.Lipo>
98.4139

> <Gold.Chemscore.Internal_Hbond>
0.0000

> <Gold.Chemscore.DEClash>
0.1996

> <Gold.Chemscore.DEInternal>
3.1242

> <Gold.Chemscore.Rot>
1.4844

> <Gold.Chemscore.Internal.Correction>
   9.000000E+99

> <Gold.Chemscore.Hbonds>
donor molecule, donor type, donor heavy atom, donor atom, acceptor molecule, acceptor atom, score
      L1  H     7    28       P1  8028  0.85
      L1  H    10    29       P1  8028  0.66

> <Gold.Chemscore.Hbond.Weighted>
-5.9655

> <Gold.Chemscore.Metal.Weighted>
-0.0000

> <Gold.Chemscore.Lipo.Weighted>
-11.5144

> <Gold.Chemscore.Internal_Hbond.Weighted>
0.0000

> <Gold.Chemscore.DEClash.Weighted>
0.1996

> <Gold.Chemscore.DEInternal.Weighted>
3.1242

> <Gold.Chemscore.Rot.Weighted>
3.8000

> <Gold.Chemscore.Internal.Correction.Weighted>
   9.000000E+99

> <Gold.Protein.RotatedTorsions>
[ 6907 6896 6895 6894 ] final -151.22 input  -60.11 | X-H torsion
[ 7974 7965 7964 7962 ] final  114.96 input  175.53 | X-H torsion
[ 8008 7997 7996 7995 ] final -158.57 input   59.86 | X-H torsion
[ 10167 10162 10161 10158 ] final  -95.63 input  -65.29 | X-H torsion
[ 10718 10713 10712 10709 ] final   55.92 input   66.30 | X-H torsion
[ 10763 10752 10751 10750 ] final  -34.25 input  -60.55 | X-H torsion
[ 11005 11000 10999 10996 ] final  159.79 input  -57.11 | X-H torsion

> <Gold.Protein.ActiveResidues>
 VAL166  LYS551  ARG553  GLY616  TRP617  ASP618  TYR619  PRO620  LYS621  CYS622 
 ASP623  PHE694  ASN695  SER759  ASP760  ASP761  ALA762  ILE779  LEU786  VAL792 
 PHE793  MET794  SER795  GLU796  ALA797  LYS798  CYS799  TRP800  GLU811  SER814 

> <Gold.Protein.RotatedAtoms>
  151.2100  133.4561  159.2597 H   0  0  0  0  0  0  0  0  0  0  0  0  # atno 6907 bound_to 6896
  151.0986  134.9959  159.8447 H   0  0  0  0  0  0  0  0  0  0  0  0  # atno 6908 bound_to 6896
  152.5441  134.2028  159.8772 H   0  0  0  0  0  0  0  0  0  0  0  0  # atno 6909 bound_to 6896
  145.1979  139.2967  143.4334 H   0  0  0  0  0  0  0  0  0  0  0  0  # atno 7974 bound_to 7965
  155.7495  140.0825  157.2208 H   0  0  0  0  0  0  0  0  0  0  0  0  # atno 8008 bound_to 7997
  154.4013  140.1563  156.2764 H   0  0  0  0  0  0  0  0  0  0  0  0  # atno 8009 bound_to 7997
  155.8944  140.3413  155.5982 H   0  0  0  0  0  0  0  0  0  0  0  0  # atno 8010 bound_to 7997
  140.3022  143.3155  152.0236 H   0  0  0  0  0  0  0  0  0  0  0  0  # atno 10167 bound_to 10162
  157.5387  130.8681  149.8790 H   0  0  0  0  0  0  0  0  0  0  0  0  # atno 10718 bound_to 10713
  153.8436  135.6855  153.4800 H   0  0  0  0  0  0  0  0  0  0  0  0  # atno 10763 bound_to 10752
  153.1439  135.4646  154.9535 H   0  0  0  0  0  0  0  0  0  0  0  0  # atno 10764 bound_to 10752
  154.7834  135.3276  154.7887 H   0  0  0  0  0  0  0  0  0  0  0  0  # atno 10765 bound_to 10752
  140.1996  134.8347  157.3003 H   0  0  0  0  0  0  0  0  0  0  0  0  # atno 11005 bound_to 11000
  146.3423  140.2213  142.8591 LP  0  0  0  0  0  0  0  0  0  0  0  0  # atno 17320 bound_to 7965
  144.9977  140.8604  143.5301 LP  0  0  0  0  0  0  0  0  0  0  0  0  # atno 17321 bound_to 7965
  139.4912  144.6447  151.6803 LP  0  0  0  0  0  0  0  0  0  0  0  0  # atno 17342 bound_to 10162
  140.5641  144.0219  150.6184 LP  0  0  0  0  0  0  0  0  0  0  0  0  # atno 17343 bound_to 10162
  156.0479  130.3724  150.1273 LP  0  0  0  0  0  0  0  0  0  0  0  0  # atno 17370 bound_to 10713
  156.9454  130.9758  151.3508 LP  0  0  0  0  0  0  0  0  0  0  0  0  # atno 17371 bound_to 10713
  140.2068  134.4187  155.7633 LP  0  0  0  0  0  0  0  0  0  0  0  0  # atno 17394 bound_to 11000
  141.2227  133.7099  156.8274 LP  0  0  0  0  0  0  0  0  0  0  0  0  # atno 17395 bound_to 11000

$$$$
