AV-unprocessed.smi:2251|AV-procd|sdf|9102|dock6
  -GOLD-   2272012303D 1   1.00000     0.00000
 Structure written by MMmdl.
 45 46  0  0  0  0  0  0  0  0  2 V2000
  147.3947  141.3971  153.3730 C   0  0  0  0  0  0  0  0  0  0  0  0
  146.5963  141.4690  154.6699 C   0  0  0  0  0  0  0  0  0  0  0  0
  145.7513  140.6110  154.9241 O   0  0  0  0  0  0  0  0  0  0  0  0
  146.8757  142.4987  155.4842 N   0  0  0  0  0  0  0  0  0  0  0  0
  146.2415  142.7403  156.7773 C   0  0  0  0  0  0  0  0  0  0  0  0
  147.1879  142.4781  157.9542 C   0  0  0  0  0  0  0  0  0  0  0  0
  146.7608  142.0156  159.0127 O   0  0  0  0  0  0  0  0  0  0  0  0
  148.4819  142.7569  157.7463 N   0  0  0  0  0  0  0  0  0  0  0  0
  149.5350  142.5786  158.7413 C   0  0  0  0  0  0  0  0  0  0  0  0
  150.9088  142.2333  158.0975 C   0  0  0  0  0  0  0  0  0  0  0  0
  150.7590  140.9200  157.2953 C   0  0  0  0  0  0  0  0  0  0  0  0
  151.0566  140.9057  155.9087 C   0  0  0  0  0  0  0  0  0  0  0  0
  150.9355  139.7121  155.1701 C   0  0  0  0  0  0  0  0  0  0  0  0
  150.5392  138.5794  155.7854 N   0  3  0  0  0  0  0  0  0  0  0  0
  150.2494  138.5314  157.1019 C   0  0  0  0  0  0  0  0  0  0  0  0
  150.3539  139.6954  157.8902 C   0  0  0  0  0  0  0  0  0  0  0  0
  151.3945  143.4125  157.1962 C   0  0  0  0  0  0  0  0  0  0  0  0
  151.7504  144.6962  157.9675 C   0  0  0  0  0  0  0  0  0  0  0  0
  152.8050  144.4198  159.0450 C   0  0  0  0  0  0  0  0  0  0  0  0
  152.3458  143.3004  159.9858 C   0  0  0  0  0  0  0  0  0  0  0  0
  151.9792  142.0224  159.2082 C   0  0  0  0  0  0  0  0  0  0  0  0
  147.3281  142.3399  152.8292 H   0  0  0  0  0  0  0  0  0  0  0  0
  147.0150  140.6040  152.7279 H   0  0  0  0  0  0  0  0  0  0  0  0
  148.4444  141.1923  153.5849 H   0  0  0  0  0  0  0  0  0  0  0  0
  147.5907  143.1517  155.1973 H   0  0  0  0  0  0  0  0  0  0  0  0
  145.9239  143.7823  156.8150 H   0  0  0  0  0  0  0  0  0  0  0  0
  145.3385  142.1339  156.8715 H   0  0  0  0  0  0  0  0  0  0  0  0
  148.7518  143.1335  156.8494 H   0  0  0  0  0  0  0  0  0  0  0  0
  149.5907  143.4818  159.3478 H   0  0  0  0  0  0  0  0  0  0  0  0
  149.2324  141.7838  159.4250 H   0  0  0  0  0  0  0  0  0  0  0  0
  151.3844  141.8018  155.4032 H   0  0  0  0  0  0  0  0  0  0  0  0
  151.1456  139.6304  154.1137 H   0  0  0  0  0  0  0  0  0  0  0  0
  149.9468  137.5679  157.4856 H   0  0  0  0  0  0  0  0  0  0  0  0
  150.1215  139.6155  158.9406 H   0  0  0  0  0  0  0  0  0  0  0  0
  152.2945  143.1085  156.6596 H   0  0  0  0  0  0  0  0  0  0  0  0
  150.6514  143.6533  156.4351 H   0  0  0  0  0  0  0  0  0  0  0  0
  152.1292  145.4461  157.2723 H   0  0  0  0  0  0  0  0  0  0  0  0
  150.8593  145.1315  158.4190 H   0  0  0  0  0  0  0  0  0  0  0  0
  153.7459  144.1359  158.5717 H   0  0  0  0  0  0  0  0  0  0  0  0
  153.0061  145.3281  159.6139 H   0  0  0  0  0  0  0  0  0  0  0  0
  153.1376  143.0783  160.7018 H   0  0  0  0  0  0  0  0  0  0  0  0
  151.4950  143.6403  160.5765 H   0  0  0  0  0  0  0  0  0  0  0  0
  151.6539  141.2677  159.9241 H   0  0  0  0  0  0  0  0  0  0  0  0
  152.8897  141.6286  158.7535 H   0  0  0  0  0  0  0  0  0  0  0  0
  150.4580  137.7247  155.2337 H   0  0  0  0  0  0  0  0  0  0  0  0
  1  2  1  0  0  0  0
  1 22  1  0  0  0  0
  1 23  1  0  0  0  0
  1 24  1  0  0  0  0
  2  3  2  0  0  0  0
  2  4  1  0  0  0  0
  4  5  1  0  0  0  0
  4 25  1  0  0  0  0
  5  6  1  0  0  0  0
  5 26  1  0  0  0  0
  5 27  1  0  0  0  0
  6  7  2  0  0  0  0
  6  8  1  0  0  0  0
  8  9  1  0  0  0  0
  8 28  1  0  0  0  0
  9 10  1  0  0  0  0
  9 29  1  0  0  0  0
  9 30  1  0  0  0  0
 10 21  1  0  0  0  0
 10 11  1  0  0  0  0
 10 17  1  0  0  0  0
 11 16  1  0  0  0  0
 11 12  2  0  0  0  0
 12 13  1  0  0  0  0
 12 31  1  0  0  0  0
 13 14  2  0  0  0  0
 13 32  1  0  0  0  0
 14 15  1  0  0  0  0
 14 45  1  0  0  0  0
 15 16  2  0  0  0  0
 15 33  1  0  0  0  0
 16 34  1  0  0  0  0
 17 18  1  0  0  0  0
 17 35  1  0  0  0  0
 17 36  1  0  0  0  0
 18 19  1  0  0  0  0
 18 37  1  0  0  0  0
 18 38  1  0  0  0  0
 19 20  1  0  0  0  0
 19 39  1  0  0  0  0
 19 40  1  0  0  0  0
 20 21  1  0  0  0  0
 20 41  1  0  0  0  0
 20 42  1  0  0  0  0
 21 43  1  0  0  0  0
 21 44  1  0  0  0  0
M  CHG  1  14   1
M  END
> <s_m_source_file>
AV-unprocessed.smi

> <i_m_source_file_index>
2251

> <i_lp_mmshare_version>
43012

> <i_f3d_flags>
0

> <s_epik_input>
W0NIM11DKD1PKVtOSF1bQ0gyXUMoPU8pW05IXVtDSDJdQzEoW0NIMl1bQ0gyXVtDSDJdW0NIMl1bQ0gyXTEpYzJbY0hdW2NIXW5bY0hdW2NIXTI=

> <s_epik_cmdline>
J2VwaWtfcHl0aG9uJywgJy1waCcsICc3LjAnLCAnLXRuJywgJzgnLCAnLW1hJywgJzIwMCcsICctbWV0YWxfYmluZGluZycsICctaW1hZScsICc8aW5maWxlLm1hZT4nLCAnLW9tYWUnLCAnPG91dGZpbGUubWFlPic=

> <r_epik_Ionization_Penalty>
1.36815

> <r_epik_Ionization_Penalty_Charging>
1.36815

> <r_epik_Ionization_Penalty_Neutral>
3.04412e-07

> <r_epik_State_Penalty>
1.44763

> <r_epik_Charging_Adjusted_Penalty>
2.81578

> <i_epik_Tot_Q>
1

> <i_epik_Tot_abs_Q>
1

> <r_epik_Metal_State_Penalty>
1.50443

> <b_epik_Metal_Only>
0

> <s_lp_Force_Field>
OPLS_2005

> <r_lp_Energy>
22.2864

> <b_lp_Chiralities_Consistent>
1

> <s_lp_Variant>
AV-unprocessed.smi:2251-2

> <Gold.Version>
5.8.1

> <Gold.Id.Protein>
6NUR|6NUR_protein|mol2

> <Gold.PLP.Fitness>
43.6257

> <Gold.PLP.PLP>
-36.4242

> <Gold.PLP.part.hbond>
-3.3956

> <Gold.PLP.part.metal>
0.0000

> <Gold.PLP.part.buried>
-2.7382

> <Gold.PLP.part.nonpolar>
-29.4763

> <Gold.PLP.part.repulsive>
0.3112

> <Gold.PLP.ligand.clash>
0.0000

> <Gold.PLP.ligand.torsion>
0.6089

> <Gold.PLP.Chemscore.Hbond>
2.7850

> <Gold.PLP.Chemscore.CHOScore>
0.0000

> <Gold.PLP.Chemscore.Metal>
0.0000

> <Gold.Chemscore.Hbonds>
donor molecule, donor type, donor heavy atom, donor atom, acceptor molecule, acceptor atom, score
      L1  H     4    25       P1  8028  0.95
      L1  H     8    28       P1  8028  0.94
      P1  H  6934  6946       L1     7  0.74

> <Gold.PLP.Chemscore.Internal.Correction>
0.0643

> <Gold.Rescore>
     Score         DG    S(hbond)    S(metal)    S(lipo)     H(rot)  DE(clash)    DE(int)     intcor
     17.17     -18.28       1.67        0.00     107.66       2.10       0.53       0.59       ----

> <Gold.Chemscore.Fitness>
17.1653

> <Gold.Chemscore.DG>
-18.2821

> <Gold.Chemscore.ZeroCoef>
-5.4800

> <Gold.Chemscore.Hbond>
1.6676

> <Gold.Chemscore.Metal>
0.0000

> <Gold.Chemscore.Lipo>
107.6590

> <Gold.Chemscore.Internal_Hbond>
0.0000

> <Gold.Chemscore.DEClash>
0.5269

> <Gold.Chemscore.DEInternal>
0.5900

> <Gold.Chemscore.Rot>
2.0952

> <Gold.Chemscore.Internal.Correction>
   9.000000E+99

> <Gold.Chemscore.Hbonds>
donor molecule, donor type, donor heavy atom, donor atom, acceptor molecule, acceptor atom, score
      L1  H     4    25       P1  8028  0.34
      L1  H     8    28       P1  8028  0.66
      P1  H  6934  6946       L1     7  0.68

> <Gold.Chemscore.Hbond.Weighted>
-5.5697

> <Gold.Chemscore.Metal.Weighted>
-0.0000

> <Gold.Chemscore.Lipo.Weighted>
-12.5961

> <Gold.Chemscore.Internal_Hbond.Weighted>
0.0000

> <Gold.Chemscore.DEClash.Weighted>
0.5269

> <Gold.Chemscore.DEInternal.Weighted>
0.5900

> <Gold.Chemscore.Rot.Weighted>
5.3636

> <Gold.Chemscore.Internal.Correction.Weighted>
   9.000000E+99

> <Gold.Protein.RotatedTorsions>
[ 6907 6896 6895 6894 ] final  129.43 input  -60.11 | X-H torsion
[ 7974 7965 7964 7962 ] final  -84.26 input  175.53 | X-H torsion
[ 8008 7997 7996 7995 ] final  -60.30 input   59.86 | X-H torsion
[ 10167 10162 10161 10158 ] final -154.84 input  -65.29 | X-H torsion
[ 10718 10713 10712 10709 ] final  -17.91 input   66.30 | X-H torsion
[ 10763 10752 10751 10750 ] final  118.04 input  -60.55 | X-H torsion
[ 11005 11000 10999 10996 ] final -121.83 input  -57.11 | X-H torsion

> <Gold.Protein.ActiveResidues>
 VAL166  LYS551  ARG553  GLY616  TRP617  ASP618  TYR619  PRO620  LYS621  CYS622 
 ASP623  PHE694  ASN695  SER759  ASP760  ASP761  ALA762  ILE779  LEU786  VAL792 
 PHE793  MET794  SER795  GLU796  ALA797  LYS798  CYS799  TRP800  GLU811  SER814 

> <Gold.Protein.RotatedAtoms>
  152.3624  133.6314  159.6024 H   0  0  0  0  0  0  0  0  0  0  0  0  # atno 6907 bound_to 6896
  150.7610  133.9402  159.3462 H   0  0  0  0  0  0  0  0  0  0  0  0  # atno 6908 bound_to 6896
  151.7238  135.0890  160.0340 H   0  0  0  0  0  0  0  0  0  0  0  0  # atno 6909 bound_to 6896
  145.5090  140.9541  143.1718 H   0  0  0  0  0  0  0  0  0  0  0  0  # atno 7974 bound_to 7965
  154.4392  140.1042  156.6252 H   0  0  0  0  0  0  0  0  0  0  0  0  # atno 8008 bound_to 7997
  155.5664  140.3488  155.4485 H   0  0  0  0  0  0  0  0  0  0  0  0  # atno 8009 bound_to 7997
  156.0422  140.1284  157.0133 H   0  0  0  0  0  0  0  0  0  0  0  0  # atno 8010 bound_to 7997
  139.6980  143.9309  152.2416 H   0  0  0  0  0  0  0  0  0  0  0  0  # atno 10167 bound_to 10162
  156.5670  130.4740  149.6380 H   0  0  0  0  0  0  0  0  0  0  0  0  # atno 10718 bound_to 10713
  153.5616  135.3519  155.2801 H   0  0  0  0  0  0  0  0  0  0  0  0  # atno 10763 bound_to 10752
  154.8694  135.4138  154.2824 H   0  0  0  0  0  0  0  0  0  0  0  0  # atno 10764 bound_to 10752
  153.3571  135.7058  153.6811 H   0  0  0  0  0  0  0  0  0  0  0  0  # atno 10765 bound_to 10752
  141.0041  134.0360  157.3500 H   0  0  0  0  0  0  0  0  0  0  0  0  # atno 11005 bound_to 11000
  144.7738  139.6676  143.7183 LP  0  0  0  0  0  0  0  0  0  0  0  0  # atno 17320 bound_to 7965
  146.2179  139.5582  142.9638 LP  0  0  0  0  0  0  0  0  0  0  0  0  # atno 17321 bound_to 7965
  139.9144  144.6837  150.8528 LP  0  0  0  0  0  0  0  0  0  0  0  0  # atno 17342 bound_to 10162
  140.7702  143.3420  151.2189 LP  0  0  0  0  0  0  0  0  0  0  0  0  # atno 17343 bound_to 10162
  156.2749  130.7038  151.1845 LP  0  0  0  0  0  0  0  0  0  0  0  0  # atno 17370 bound_to 10713
  157.7356  131.0570  150.5458 LP  0  0  0  0  0  0  0  0  0  0  0  0  # atno 17371 bound_to 10713
  139.9054  135.0178  156.7461 LP  0  0  0  0  0  0  0  0  0  0  0  0  # atno 17394 bound_to 11000
  140.6841  133.9448  155.7928 LP  0  0  0  0  0  0  0  0  0  0  0  0  # atno 17395 bound_to 11000

$$$$
