AV-unprocessed.smi:2816|AV-procd|sdf|10843|dock4
  -GOLD-   2272015283D 1   1.00000     0.00000
 Structure written by MMmdl.
 43 45  0  0  0  0  0  0  0  0  1 V2000
  138.9498  140.2448  153.3722 C   0  0  0  0  0  0  0  0  0  0  0  0
  139.0052  138.8637  154.0480 C   0  0  0  0  0  0  0  0  0  0  0  0
  137.8287  138.7238  155.0312 C   0  0  0  0  0  0  0  0  0  0  0  0
  138.9395  137.7645  152.9716 C   0  0  0  0  0  0  0  0  0  0  0  0
  140.6134  138.7526  154.9796 S   0  0  0  0  0  0  0  0  0  0  0  0
  141.4019  139.9613  154.6914 O   0  0  0  0  0  0  0  0  0  0  0  0
  140.3000  138.4176  156.3778 O   0  0  0  0  0  0  0  0  0  0  0  0
  141.4937  137.3563  154.2762 C   0  0  0  0  0  0  0  0  0  0  0  0
  142.4836  137.5687  153.2956 C   0  0  0  0  0  0  0  0  0  0  0  0
  143.1809  136.4499  152.8032 C   0  0  0  0  0  0  0  0  0  0  0  0
  142.8715  135.1673  153.3153 C   0  0  0  0  0  0  0  0  0  0  0  0
  143.5132  133.9925  152.8969 N   0  0  0  0  0  0  0  0  0  0  0  0
  144.7262  134.0331  152.0877 C   0  0  1  0  0  0  0  0  0  0  0  0
  145.8777  133.1827  152.6369 C   0  0  0  0  0  0  0  0  0  0  0  0
  146.2340  132.3140  151.4225 C   0  0  1  0  0  0  0  0  0  0  0  0
  145.1984  131.2045  151.2029 C   0  0  0  0  0  0  0  0  0  0  0  0
  144.0048  131.9965  150.6737 C   0  0  0  0  0  0  0  0  0  0  0  0
  144.5473  133.4368  150.6797 C   0  0  2  0  0  0  0  0  0  0  0  0
  145.9052  133.1889  150.3559 O   0  0  0  0  0  0  0  0  0  0  0  0
  141.8645  135.0778  154.3008 C   0  0  0  0  0  0  0  0  0  0  0  0
  141.1896  136.1423  154.7826 N   0  0  0  0  0  0  0  0  0  0  0  0
  138.0279  140.3737  152.8042 H   0  0  0  0  0  0  0  0  0  0  0  0
  139.7836  140.3814  152.6829 H   0  0  0  0  0  0  0  0  0  0  0  0
  138.9978  141.0485  154.1076 H   0  0  0  0  0  0  0  0  0  0  0  0
  137.8741  139.4779  155.8174 H   0  0  0  0  0  0  0  0  0  0  0  0
  137.8209  137.7456  155.5117 H   0  0  0  0  0  0  0  0  0  0  0  0
  136.8726  138.8405  154.5201 H   0  0  0  0  0  0  0  0  0  0  0  0
  138.0407  137.8658  152.3626 H   0  0  0  0  0  0  0  0  0  0  0  0
  138.9164  136.7682  153.4113 H   0  0  0  0  0  0  0  0  0  0  0  0
  139.7966  137.8122  152.2993 H   0  0  0  0  0  0  0  0  0  0  0  0
  142.7081  138.5598  152.9307 H   0  0  0  0  0  0  0  0  0  0  0  0
  143.9394  136.5931  152.0488 H   0  0  0  0  0  0  0  0  0  0  0  0
  143.2524  133.1131  153.3200 H   0  0  0  0  0  0  0  0  0  0  0  0
  145.0528  135.0680  151.9790 H   0  0  0  0  0  0  0  0  0  0  0  0
  146.7159  133.8203  152.9199 H   0  0  0  0  0  0  0  0  0  0  0  0
  145.6053  132.5780  153.5034 H   0  0  0  0  0  0  0  0  0  0  0  0
  147.2659  131.9625  151.4169 H   0  0  0  0  0  0  0  0  0  0  0  0
  145.5455  130.4906  150.4551 H   0  0  0  0  0  0  0  0  0  0  0  0
  144.9726  130.6580  152.1192 H   0  0  0  0  0  0  0  0  0  0  0  0
  143.7660  131.6829  149.6568 H   0  0  0  0  0  0  0  0  0  0  0  0
  143.1083  131.8716  151.2811 H   0  0  0  0  0  0  0  0  0  0  0  0
  144.0371  134.1019  149.9825 H   0  0  0  0  0  0  0  0  0  0  0  0
  141.5955  134.1206  154.7234 H   0  0  0  0  0  0  0  0  0  0  0  0
  1  2  1  0  0  0  0
  1 22  1  0  0  0  0
  1 23  1  0  0  0  0
  1 24  1  0  0  0  0
  2  3  1  0  0  0  0
  2  4  1  0  0  0  0
  2  5  1  0  0  0  0
  3 25  1  0  0  0  0
  3 26  1  0  0  0  0
  3 27  1  0  0  0  0
  4 28  1  0  0  0  0
  4 29  1  0  0  0  0
  4 30  1  0  0  0  0
  5  6  2  0  0  0  0
  5  7  2  0  0  0  0
  5  8  1  0  0  0  0
  8 21  1  0  0  0  0
  8  9  2  0  0  0  0
  9 10  1  0  0  0  0
  9 31  1  0  0  0  0
 10 11  2  0  0  0  0
 10 32  1  0  0  0  0
 11 12  1  0  0  0  0
 11 20  1  0  0  0  0
 12 13  1  0  0  0  0
 12 33  1  0  0  0  0
 13 18  1  0  0  0  0
 13 14  1  0  0  0  0
 13 34  1  0  0  0  0
 14 15  1  0  0  0  0
 14 35  1  0  0  0  0
 14 36  1  0  0  0  0
 15 19  1  0  0  0  0
 15 16  1  0  0  0  0
 15 37  1  0  0  0  0
 16 17  1  0  0  0  0
 16 38  1  0  0  0  0
 16 39  1  0  0  0  0
 17 18  1  0  0  0  0
 17 40  1  0  0  0  0
 17 41  1  0  0  0  0
 18 19  1  0  0  0  0
 18 42  1  0  0  0  0
 20 21  2  0  0  0  0
 20 43  1  0  0  0  0
M  END
> <s_m_source_file>
AV-unprocessed.smi

> <i_m_source_file_index>
2816

> <i_lp_mmshare_version>
43012

> <i_f3d_flags>
0

> <s_epik_input>
W0NIM11DKFtDSDNdKShbQ0gzXSlTKD1PKSg9TyljMVtjSF1bY0hdYyhbY0hdbjEpW05IXVtDQEhdKFtDSDJdW0NAQEhdMjMpW0NAQEhdKE8zKVtDSDJdW0NIMl0y

> <s_epik_cmdline>
J2VwaWtfcHl0aG9uJywgJy1waCcsICc3LjAnLCAnLXRuJywgJzgnLCAnLW1hJywgJzIwMCcsICctbWV0YWxfYmluZGluZycsICctaW1hZScsICc8aW5maWxlLm1hZT4nLCAnLW9tYWUnLCAnPG91dGZpbGUubWFlPic=

> <r_lp_tautomer_probability>
1

> <r_epik_Ionization_Penalty>
1.94439e-07

> <r_epik_Ionization_Penalty_Charging>
0

> <r_epik_Ionization_Penalty_Neutral>
1.94439e-07

> <r_epik_State_Penalty>
-0

> <r_epik_Charging_Adjusted_Penalty>
0

> <i_epik_Tot_Q>
0

> <i_epik_Tot_abs_Q>
0

> <r_epik_Metal_State_Penalty>
-0

> <b_epik_Metal_Only>
0

> <s_lp_Force_Field>
OPLS_2005

> <r_lp_Energy>
43.8741

> <b_lp_Chiralities_Consistent>
1

> <s_lp_Variant>
AV-unprocessed.smi:2816-2

> <Gold.Version>
5.8.1

> <Gold.Id.Protein>
6NUR|6NUR_protein|mol2

> <Gold.PLP.Fitness>
38.5184

> <Gold.PLP.PLP>
-31.7473

> <Gold.PLP.part.hbond>
-2.0000

> <Gold.PLP.part.metal>
0.0000

> <Gold.PLP.part.buried>
-4.8430

> <Gold.PLP.part.nonpolar>
-27.5679

> <Gold.PLP.part.repulsive>
1.0463

> <Gold.PLP.ligand.clash>
0.0000

> <Gold.PLP.ligand.torsion>
1.1861

> <Gold.PLP.Chemscore.Hbond>
1.1651

> <Gold.PLP.Chemscore.CHOScore>
1.1409

> <Gold.PLP.Chemscore.Metal>
0.0000

> <Gold.Chemscore.Hbonds>
donor molecule, donor type, donor heavy atom, donor atom, acceptor molecule, acceptor atom, score
      L1  H    12    33       P1 10957  0.91
      P1  H 11000 11005       L1    21  0.09
      L1  C    20    43       P1 10957  0.92

> <Gold.PLP.Chemscore.Internal.Correction>
2.2251

> <Gold.Rescore>
     Score         DG    S(hbond)    S(metal)    S(lipo)     H(rot)  DE(clash)    DE(int)     intcor
     13.57     -16.28       0.96        0.00      90.10       1.15       1.52       1.19       ----

> <Gold.Chemscore.Fitness>
13.5674

> <Gold.Chemscore.DG>
-16.2838

> <Gold.Chemscore.ZeroCoef>
-5.4800

> <Gold.Chemscore.Hbond>
0.9577

> <Gold.Chemscore.Metal>
0.0000

> <Gold.Chemscore.Lipo>
90.1012

> <Gold.Chemscore.Internal_Hbond>
0.0000

> <Gold.Chemscore.DEClash>
1.5217

> <Gold.Chemscore.DEInternal>
1.1947

> <Gold.Chemscore.Rot>
1.1471

> <Gold.Chemscore.Internal.Correction>
   9.000000E+99

> <Gold.Chemscore.Hbonds>
donor molecule, donor type, donor heavy atom, donor atom, acceptor molecule, acceptor atom, score
      L1  H    12    33       P1 10957  0.74
      P1  H 11000 11005       L1    21  0.01

> <Gold.Chemscore.Hbond.Weighted>
-3.1986

> <Gold.Chemscore.Metal.Weighted>
-0.0000

> <Gold.Chemscore.Lipo.Weighted>
-10.5418

> <Gold.Chemscore.Internal_Hbond.Weighted>
0.0000

> <Gold.Chemscore.DEClash.Weighted>
1.5217

> <Gold.Chemscore.DEInternal.Weighted>
1.1947

> <Gold.Chemscore.Rot.Weighted>
2.9366

> <Gold.Chemscore.Internal.Correction.Weighted>
   9.000000E+99

> <Gold.Protein.RotatedTorsions>
[ 6907 6896 6895 6894 ] final    8.04 input  -60.11 | X-H torsion
[ 7974 7965 7964 7962 ] final  -48.45 input  175.53 | X-H torsion
[ 8008 7997 7996 7995 ] final  -98.24 input   59.86 | X-H torsion
[ 10167 10162 10161 10158 ] final   70.04 input  -65.29 | X-H torsion
[ 10718 10713 10712 10709 ] final  -21.20 input   66.30 | X-H torsion
[ 10763 10752 10751 10750 ] final  -29.80 input  -60.55 | X-H torsion
[ 11005 11000 10999 10996 ] final   84.79 input  -57.11 | X-H torsion

> <Gold.Protein.ActiveResidues>
 VAL166  LYS551  ARG553  GLY616  TRP617  ASP618  TYR619  PRO620  LYS621  CYS622 
 ASP623  PHE694  ASN695  SER759  ASP760  ASP761  ALA762  ILE779  LEU786  VAL792 
 PHE793  MET794  SER795  GLU796  ALA797  LYS798  CYS799  TRP800  GLU811  SER814 

> <Gold.Protein.RotatedAtoms>
  151.6996  135.0932  160.0248 H   0  0  0  0  0  0  0  0  0  0  0  0  # atno 6907 bound_to 6896
  152.3728  133.6437  159.6109 H   0  0  0  0  0  0  0  0  0  0  0  0  # atno 6908 bound_to 6896
  150.7686  133.9158  159.3424 H   0  0  0  0  0  0  0  0  0  0  0  0  # atno 6909 bound_to 6896
  145.9510  140.7572  142.9505 H   0  0  0  0  0  0  0  0  0  0  0  0  # atno 7974 bound_to 7965
  154.7986  140.0456  157.1255 H   0  0  0  0  0  0  0  0  0  0  0  0  # atno 8008 bound_to 7997
  154.9506  140.3064  155.5057 H   0  0  0  0  0  0  0  0  0  0  0  0  # atno 8009 bound_to 7997
  156.2959  140.2289  156.4583 H   0  0  0  0  0  0  0  0  0  0  0  0  # atno 8010 bound_to 7997
  140.0613  144.5230  150.7292 H   0  0  0  0  0  0  0  0  0  0  0  0  # atno 10167 bound_to 10162
  156.5215  130.4633  149.6594 H   0  0  0  0  0  0  0  0  0  0  0  0  # atno 10718 bound_to 10713
  153.7706  135.6912  153.4907 H   0  0  0  0  0  0  0  0  0  0  0  0  # atno 10763 bound_to 10752
  153.1877  135.4482  155.0108 H   0  0  0  0  0  0  0  0  0  0  0  0  # atno 10764 bound_to 10752
  154.8119  135.3381  154.7215 H   0  0  0  0  0  0  0  0  0  0  0  0  # atno 10765 bound_to 10752
  139.8990  134.8241  156.2493 H   0  0  0  0  0  0  0  0  0  0  0  0  # atno 11005 bound_to 11000
  144.6796  140.2434  143.7341 LP  0  0  0  0  0  0  0  0  0  0  0  0  # atno 17320 bound_to 7965
  145.8171  139.2028  143.1959 LP  0  0  0  0  0  0  0  0  0  0  0  0  # atno 17321 bound_to 7965
  140.7170  143.2554  151.4401 LP  0  0  0  0  0  0  0  0  0  0  0  0  # atno 17342 bound_to 10162
  139.5892  144.1536  152.2067 LP  0  0  0  0  0  0  0  0  0  0  0  0  # atno 17343 bound_to 10162
  156.3145  130.7247  151.2147 LP  0  0  0  0  0  0  0  0  0  0  0  0  # atno 17370 bound_to 10713
  157.7436  131.0472  150.4933 LP  0  0  0  0  0  0  0  0  0  0  0  0  # atno 17371 bound_to 10713
  141.0234  133.7028  156.1307 LP  0  0  0  0  0  0  0  0  0  0  0  0  # atno 17394 bound_to 11000
  140.7201  134.4368  157.5575 LP  0  0  0  0  0  0  0  0  0  0  0  0  # atno 17395 bound_to 11000

$$$$
