AV-unprocessed.smi:2220|AV-procd|sdf|8978|dock5
  -GOLD-   2272012193D 1   1.00000     0.00000
 Structure written by MMmdl.
 39 40  0  0  0  0  0  0  0  0  2 V2000
  151.4724  140.4786  155.9528 C   0  0  0  0  0  0  0  0  0  0  0  0
  151.0484  139.2159  155.3422 N   0  0  0  0  0  0  0  0  0  0  0  0
  150.2800  139.1828  154.2459 C   0  0  0  0  0  0  0  0  0  0  0  0
  150.0776  137.8962  153.9527 N   0  3  0  0  0  0  0  0  0  0  0  0
  150.7178  137.1018  154.8635 C   0  0  0  0  0  0  0  0  0  0  0  0
  151.3437  137.9359  155.7569 C   0  0  0  0  0  0  0  0  0  0  0  0
  152.1907  137.6186  156.9478 C   0  0  0  0  0  0  0  0  0  0  0  0
  151.3740  137.6569  158.2504 C   0  0  0  0  0  0  0  0  0  0  0  0
  151.2693  139.0126  158.7763 N   0  0  0  0  0  0  0  0  0  0  0  0
  152.2687  139.9084  158.7992 C   0  0  0  0  0  0  0  0  0  0  0  0
  153.3983  139.6674  158.3719 O   0  0  0  0  0  0  0  0  0  0  0  0
  151.9430  141.2834  159.3975 C   0  0  0  0  0  0  0  0  0  0  0  0
  151.0253  142.0910  158.4559 C   0  0  0  0  0  0  0  0  0  0  0  0
  150.6920  143.4682  159.0517 C   0  0  0  0  0  0  0  0  0  0  0  0
  151.9684  144.2578  159.3888 C   0  0  0  0  0  0  0  0  0  0  0  0
  152.6070  144.5698  158.2600 F   0  0  0  0  0  0  0  0  0  0  0  0
  151.6308  145.3917  160.0025 F   0  0  0  0  0  0  0  0  0  0  0  0
  152.9095  143.4528  160.3016 C   0  0  0  0  0  0  0  0  0  0  0  0
  153.2325  142.0750  159.7008 C   0  0  0  0  0  0  0  0  0  0  0  0
  151.0099  141.3207  155.4362 H   0  0  0  0  0  0  0  0  0  0  0  0
  152.5567  140.5647  155.8824 H   0  0  0  0  0  0  0  0  0  0  0  0
  151.1696  140.4917  156.9999 H   0  0  0  0  0  0  0  0  0  0  0  0
  149.8969  140.0279  153.7020 H   0  0  0  0  0  0  0  0  0  0  0  0
  150.6856  136.0230  154.8104 H   0  0  0  0  0  0  0  0  0  0  0  0
  152.6527  136.6397  156.8163 H   0  0  0  0  0  0  0  0  0  0  0  0
  153.0065  138.3411  156.9920 H   0  0  0  0  0  0  0  0  0  0  0  0
  150.3774  137.2415  158.0898 H   0  0  0  0  0  0  0  0  0  0  0  0
  151.8478  137.0376  159.0118 H   0  0  0  0  0  0  0  0  0  0  0  0
  150.3719  139.2932  159.1450 H   0  0  0  0  0  0  0  0  0  0  0  0
  151.4121  141.1291  160.3389 H   0  0  0  0  0  0  0  0  0  0  0  0
  151.5058  142.2264  157.4857 H   0  0  0  0  0  0  0  0  0  0  0  0
  150.1014  141.5425  158.2682 H   0  0  0  0  0  0  0  0  0  0  0  0
  150.0723  144.0355  158.3564 H   0  0  0  0  0  0  0  0  0  0  0  0
  150.0971  143.3341  159.9561 H   0  0  0  0  0  0  0  0  0  0  0  0
  153.8311  144.0095  160.4751 H   0  0  0  0  0  0  0  0  0  0  0  0
  152.4423  143.3183  161.2780 H   0  0  0  0  0  0  0  0  0  0  0  0
  153.8646  141.5158  160.3920 H   0  0  0  0  0  0  0  0  0  0  0  0
  153.8166  142.2093  158.7892 H   0  0  0  0  0  0  0  0  0  0  0  0
  149.5305  137.5609  153.1698 H   0  0  0  0  0  0  0  0  0  0  0  0
  1  2  1  0  0  0  0
  1 20  1  0  0  0  0
  1 21  1  0  0  0  0
  1 22  1  0  0  0  0
  2  6  1  0  0  0  0
  2  3  1  0  0  0  0
  3  4  2  0  0  0  0
  3 23  1  0  0  0  0
  4  5  1  0  0  0  0
  4 39  1  0  0  0  0
  5  6  2  0  0  0  0
  5 24  1  0  0  0  0
  6  7  1  0  0  0  0
  7  8  1  0  0  0  0
  7 25  1  0  0  0  0
  7 26  1  0  0  0  0
  8  9  1  0  0  0  0
  8 27  1  0  0  0  0
  8 28  1  0  0  0  0
  9 10  1  0  0  0  0
  9 29  1  0  0  0  0
 10 11  2  0  0  0  0
 10 12  1  0  0  0  0
 12 19  1  0  0  0  0
 12 13  1  0  0  0  0
 12 30  1  0  0  0  0
 13 14  1  0  0  0  0
 13 31  1  0  0  0  0
 13 32  1  0  0  0  0
 14 15  1  0  0  0  0
 14 33  1  0  0  0  0
 14 34  1  0  0  0  0
 15 16  1  0  0  0  0
 15 17  1  0  0  0  0
 15 18  1  0  0  0  0
 18 19  1  0  0  0  0
 18 35  1  0  0  0  0
 18 36  1  0  0  0  0
 19 37  1  0  0  0  0
 19 38  1  0  0  0  0
M  CHG  1   4   1
M  END
> <s_m_source_file>
AV-unprocessed.smi

> <i_m_source_file_index>
2220

> <i_lp_mmshare_version>
43012

> <i_f3d_flags>
0

> <s_epik_input>
W0NIM11uMVtjSF1uW2NIXWMxW0NIMl1bQ0gyXVtOSF1DKD1PKVtDSF0oW0NIMl1bQ0gyXTIpW0NIMl1bQ0gyXUMyKEYpRg==

> <s_epik_cmdline>
J2VwaWtfcHl0aG9uJywgJy1waCcsICc3LjAnLCAnLXRuJywgJzgnLCAnLW1hJywgJzIwMCcsICctbWV0YWxfYmluZGluZycsICctaW1hZScsICc8aW5maWxlLm1hZT4nLCAnLW9tYWUnLCAnPG91dGZpbGUubWFlPic=

> <r_lp_tautomer_probability>
1

> <r_epik_Ionization_Penalty>
0.15432

> <r_epik_Ionization_Penalty_Charging>
0

> <r_epik_Ionization_Penalty_Neutral>
0.15432

> <r_epik_State_Penalty>
0.143614

> <r_epik_Charging_Adjusted_Penalty>
0.143614

> <i_epik_Tot_Q>
1

> <i_epik_Tot_abs_Q>
1

> <r_epik_Metal_State_Penalty>
0.465047

> <b_epik_Metal_Only>
0

> <s_lp_Force_Field>
OPLS_2005

> <r_lp_Energy>
11.3937

> <b_lp_Chiralities_Consistent>
1

> <s_lp_Variant>
AV-unprocessed.smi:2220-1

> <Gold.Version>
5.8.1

> <Gold.Id.Protein>
6NUR|6NUR_protein|mol2

> <Gold.PLP.Fitness>
55.7350

> <Gold.PLP.PLP>
-45.5208

> <Gold.PLP.part.hbond>
-2.9254

> <Gold.PLP.part.metal>
0.0000

> <Gold.PLP.part.buried>
-4.1954

> <Gold.PLP.part.nonpolar>
-38.0470

> <Gold.PLP.part.repulsive>
0.1860

> <Gold.PLP.ligand.clash>
0.0000

> <Gold.PLP.ligand.torsion>
0.8992

> <Gold.PLP.Chemscore.Hbond>
3.0000

> <Gold.PLP.Chemscore.CHOScore>
0.9998

> <Gold.PLP.Chemscore.Metal>
0.0000

> <Gold.Chemscore.Hbonds>
donor molecule, donor type, donor heavy atom, donor atom, acceptor molecule, acceptor atom, score
      L1  H     4    39       P1  7948  2.00
      P1  H  7997  8009       L1    11  1.00
      L1  C     3    23       P1  7957  0.81

> <Gold.PLP.Chemscore.Internal.Correction>
0.0132

> <Gold.Rescore>
     Score         DG    S(hbond)    S(metal)    S(lipo)     H(rot)  DE(clash)    DE(int)     intcor
     14.57     -17.23       1.94        0.00      85.99       1.87       0.11       2.55       ----

> <Gold.Chemscore.Fitness>
14.5667

> <Gold.Chemscore.DG>
-17.2306

> <Gold.Chemscore.ZeroCoef>
-5.4800

> <Gold.Chemscore.Hbond>
1.9371

> <Gold.Chemscore.Metal>
0.0000

> <Gold.Chemscore.Lipo>
85.9883

> <Gold.Chemscore.Internal_Hbond>
0.0000

> <Gold.Chemscore.DEClash>
0.1103

> <Gold.Chemscore.DEInternal>
2.5536

> <Gold.Chemscore.Rot>
1.8672

> <Gold.Chemscore.Internal.Correction>
   9.000000E+99

> <Gold.Chemscore.Hbonds>
donor molecule, donor type, donor heavy atom, donor atom, acceptor molecule, acceptor atom, score
      L1  H     4    39       P1  7948  0.83
      P1  H  7997  8009       L1    11  1.00

> <Gold.Chemscore.Hbond.Weighted>
-6.4699

> <Gold.Chemscore.Metal.Weighted>
-0.0000

> <Gold.Chemscore.Lipo.Weighted>
-10.0606

> <Gold.Chemscore.Internal_Hbond.Weighted>
0.0000

> <Gold.Chemscore.DEClash.Weighted>
0.1103

> <Gold.Chemscore.DEInternal.Weighted>
2.5536

> <Gold.Chemscore.Rot.Weighted>
4.7800

> <Gold.Chemscore.Internal.Correction.Weighted>
   9.000000E+99

> <Gold.Protein.RotatedTorsions>
[ 6907 6896 6895 6894 ] final   22.80 input  -60.11 | X-H torsion
[ 7974 7965 7964 7962 ] final   31.02 input  175.53 | X-H torsion
[ 8008 7997 7996 7995 ] final  150.52 input   59.86 | X-H torsion
[ 10167 10162 10161 10158 ] final  122.86 input  -65.29 | X-H torsion
[ 10718 10713 10712 10709 ] final -100.33 input   66.30 | X-H torsion
[ 10763 10752 10751 10750 ] final  -84.28 input  -60.55 | X-H torsion
[ 11005 11000 10999 10996 ] final -146.24 input  -57.11 | X-H torsion

> <Gold.Protein.ActiveResidues>
 VAL166  LYS551  ARG553  GLY616  TRP617  ASP618  TYR619  PRO620  LYS621  CYS622 
 ASP623  PHE694  ASN695  SER759  ASP760  ASP761  ALA762  ILE779  LEU786  VAL792 
 PHE793  MET794  SER795  GLU796  ALA797  LYS798  CYS799  TRP800  GLU811  SER814 

> <Gold.Protein.RotatedAtoms>
  151.9327  135.0249  160.0530 H   0  0  0  0  0  0  0  0  0  0  0  0  # atno 6907 bound_to 6896
  152.2105  133.4903  159.5116 H   0  0  0  0  0  0  0  0  0  0  0  0  # atno 6908 bound_to 6896
  150.6975  134.1390  159.4140 H   0  0  0  0  0  0  0  0  0  0  0  0  # atno 6909 bound_to 6896
  146.1576  139.6712  142.9056 H   0  0  0  0  0  0  0  0  0  0  0  0  # atno 7974 bound_to 7965
  156.2712  140.2072  156.6030 H   0  0  0  0  0  0  0  0  0  0  0  0  # atno 8008 bound_to 7997
  154.6891  140.0532  157.0369 H   0  0  0  0  0  0  0  0  0  0  0  0  # atno 8009 bound_to 7997
  155.0891  140.3194  155.4582 H   0  0  0  0  0  0  0  0  0  0  0  0  # atno 8010 bound_to 7997
  139.5834  144.6996  151.3471 H   0  0  0  0  0  0  0  0  0  0  0  0  # atno 10167 bound_to 10162
  156.0160  130.5322  150.6800 H   0  0  0  0  0  0  0  0  0  0  0  0  # atno 10718 bound_to 10713
  154.5977  135.5526  153.7342 H   0  0  0  0  0  0  0  0  0  0  0  0  # atno 10763 bound_to 10752
  153.0142  135.6358  154.1759 H   0  0  0  0  0  0  0  0  0  0  0  0  # atno 10764 bound_to 10752
  154.1699  135.2892  155.3064 H   0  0  0  0  0  0  0  0  0  0  0  0  # atno 10765 bound_to 10752
  140.7840  134.3046  157.5036 H   0  0  0  0  0  0  0  0  0  0  0  0  # atno 11005 bound_to 11000
  145.4669  141.0435  143.2720 LP  0  0  0  0  0  0  0  0  0  0  0  0  # atno 17320 bound_to 7965
  144.7984  139.6189  143.7082 LP  0  0  0  0  0  0  0  0  0  0  0  0  # atno 17321 bound_to 7965
  140.7109  143.7393  150.7565 LP  0  0  0  0  0  0  0  0  0  0  0  0  # atno 17342 bound_to 10162
  140.0931  143.4858  152.2467 LP  0  0  0  0  0  0  0  0  0  0  0  0  # atno 17343 bound_to 10162
  157.4505  131.0872  151.0851 LP  0  0  0  0  0  0  0  0  0  0  0  0  # atno 17370 bound_to 10713
  157.1368  130.6126  149.5544 LP  0  0  0  0  0  0  0  0  0  0  0  0  # atno 17371 bound_to 10713
  139.8739  134.9335  156.3582 LP  0  0  0  0  0  0  0  0  0  0  0  0  # atno 17394 bound_to 11000
  140.9455  133.7486  156.0202 LP  0  0  0  0  0  0  0  0  0  0  0  0  # atno 17395 bound_to 11000

$$$$
