AV-unprocessed.smi:210|AV-procd|sdf|1614|dock1
  -GOLD-   2262019533D 1   1.00000     0.00000
 Structure written by MMmdl.
 57 61  0  0  0  0  0  0  0  0  1 V2000
  151.3729  142.0491  156.3510 C   0  0  0  0  0  0  0  0  0  0  0  0
  151.2139  140.9154  155.5165 O   0  0  0  0  0  0  0  0  0  0  0  0
  149.8625  140.4929  155.4246 C   0  0  1  0  0  0  0  0  0  0  0  0
  149.0744  141.1211  154.2677 C   0  0  0  0  0  0  0  0  0  0  0  0
  148.4271  139.7433  154.0209 C   0  0  2  0  0  0  0  0  0  0  0  0
  147.1647  139.5936  154.7603 N   0  0  0  0  0  0  0  0  0  0  0  0
  146.1531  140.6203  154.5296 C   0  0  0  0  0  0  0  0  0  0  0  0
  146.5952  138.3704  154.6797 C   0  0  0  0  0  0  0  0  0  0  0  0
  146.3970  137.6340  155.8054 N   0  0  0  0  0  0  0  0  0  0  0  0
  145.8296  136.4269  155.7191 C   0  0  0  0  0  0  0  0  0  0  0  0
  145.3947  135.7838  154.6328 N   0  0  0  0  0  0  0  0  0  0  0  0
  145.5973  136.5221  153.5033 C   0  0  0  0  0  0  0  0  0  0  0  0
  146.1972  137.8100  153.4382 C   0  0  0  0  0  0  0  0  0  0  0  0
  146.2530  138.2470  152.1215 N   0  0  0  0  0  0  0  0  0  0  0  0
  145.7174  137.2685  151.4433 C   0  0  0  0  0  0  0  0  0  0  0  0
  145.2674  136.2067  152.1968 N   0  0  0  0  0  0  0  0  0  0  0  0
  144.6710  134.9973  151.7102 C   0  0  0  0  0  0  0  0  0  0  0  0
  144.7067  133.7050  152.5335 C   0  0  0  0  0  0  0  0  0  0  0  0
  144.7891  132.8871  151.2237 C   0  0  0  0  0  0  0  0  0  0  0  0
  145.7238  131.6612  151.2343 C   0  0  0  0  0  0  0  0  0  0  0  0
  146.3717  131.4601  149.9939 O   0  0  0  0  0  0  0  0  0  0  0  0
  143.4236  132.4146  150.6888 C   0  0  0  0  0  0  0  0  0  0  0  0
  143.5472  131.7871  149.4285 O   0  0  0  0  0  0  0  0  0  0  0  0
  145.3337  134.1885  150.5910 C   0  0  0  0  0  0  0  0  0  0  0  0
  149.6771  139.1382  154.7175 C   0  0  0  0  0  0  0  0  0  0  0  0
  150.8180  138.5600  153.8601 C   0  0  0  0  0  0  0  0  0  0  0  0
  151.1574  137.6347  155.0321 C   0  0  0  0  0  0  0  0  0  0  0  0
  149.7137  137.8160  155.5075 C   0  0  0  0  0  0  0  0  0  0  0  0
  152.4248  142.3311  156.3888 H   0  0  0  0  0  0  0  0  0  0  0  0
  151.0445  141.8367  157.3693 H   0  0  0  0  0  0  0  0  0  0  0  0
  150.8096  142.9029  155.9725 H   0  0  0  0  0  0  0  0  0  0  0  0
  149.3268  140.5300  156.3757 H   0  0  0  0  0  0  0  0  0  0  0  0
  148.4099  141.9312  154.5662 H   0  0  0  0  0  0  0  0  0  0  0  0
  149.7182  141.4294  153.4422 H   0  0  0  0  0  0  0  0  0  0  0  0
  148.3532  139.4950  152.9613 H   0  0  0  0  0  0  0  0  0  0  0  0
  145.1688  140.3131  154.8876 H   0  0  0  0  0  0  0  0  0  0  0  0
  146.0713  140.8484  153.4664 H   0  0  0  0  0  0  0  0  0  0  0  0
  146.4123  141.5378  155.0566 H   0  0  0  0  0  0  0  0  0  0  0  0
  145.7028  135.9023  156.6545 H   0  0  0  0  0  0  0  0  0  0  0  0
  145.6279  137.3010  150.3671 H   0  0  0  0  0  0  0  0  0  0  0  0
  143.6452  135.2555  151.4419 H   0  0  0  0  0  0  0  0  0  0  0  0
  145.6021  133.6345  153.1530 H   0  0  0  0  0  0  0  0  0  0  0  0
  143.8108  133.5270  153.1291 H   0  0  0  0  0  0  0  0  0  0  0  0
  146.4936  131.7675  151.9993 H   0  0  0  0  0  0  0  0  0  0  0  0
  145.1727  130.7493  151.4661 H   0  0  0  0  0  0  0  0  0  0  0  0
  147.3055  131.4953  150.1338 H   0  0  0  0  0  0  0  0  0  0  0  0
  142.9509  131.7177  151.3817 H   0  0  0  0  0  0  0  0  0  0  0  0
  142.7311  133.2492  150.5775 H   0  0  0  0  0  0  0  0  0  0  0  0
  144.4073  131.9718  149.0833 H   0  0  0  0  0  0  0  0  0  0  0  0
  144.9549  134.4115  149.5930 H   0  0  0  0  0  0  0  0  0  0  0  0
  146.4220  134.2655  150.6164 H   0  0  0  0  0  0  0  0  0  0  0  0
  150.4521  138.0139  152.9893 H   0  0  0  0  0  0  0  0  0  0  0  0
  151.6058  139.2621  153.5866 H   0  0  0  0  0  0  0  0  0  0  0  0
  151.4223  136.6157  154.7492 H   0  0  0  0  0  0  0  0  0  0  0  0
  151.8868  138.0696  155.7174 H   0  0  0  0  0  0  0  0  0  0  0  0
  149.5952  137.9203  156.5863 H   0  0  0  0  0  0  0  0  0  0  0  0
  149.0645  137.0391  155.1036 H   0  0  0  0  0  0  0  0  0  0  0  0
  1  2  1  0  0  0  0
  1 29  1  0  0  0  0
  1 30  1  0  0  0  0
  1 31  1  0  0  0  0
  2  3  1  0  0  0  0
  3 25  1  0  0  0  0
  3  4  1  0  0  0  0
  3 32  1  0  0  0  0
  4  5  1  0  0  0  0
  4 33  1  0  0  0  0
  4 34  1  0  0  0  0
  5  6  1  0  0  0  0
  5 25  1  0  0  0  0
  5 35  1  0  0  0  0
  6  7  1  0  0  0  0
  6  8  1  0  0  0  0
  7 36  1  0  0  0  0
  7 37  1  0  0  0  0
  7 38  1  0  0  0  0
  8 13  1  0  0  0  0
  8  9  2  0  0  0  0
  9 10  1  0  0  0  0
 10 11  2  0  0  0  0
 10 39  1  0  0  0  0
 11 12  1  0  0  0  0
 12 16  1  0  0  0  0
 12 13  2  0  0  0  0
 13 14  1  0  0  0  0
 14 15  2  0  0  0  0
 15 16  1  0  0  0  0
 15 40  1  0  0  0  0
 16 17  1  0  0  0  0
 17 24  1  0  0  0  0
 17 18  1  0  0  0  0
 17 41  1  0  0  0  0
 18 19  1  0  0  0  0
 18 42  1  0  0  0  0
 18 43  1  0  0  0  0
 19 20  1  0  0  0  0
 19 22  1  0  0  0  0
 19 24  1  0  0  0  0
 20 21  1  0  0  0  0
 20 44  1  0  0  0  0
 20 45  1  0  0  0  0
 21 46  1  0  0  0  0
 22 23  1  0  0  0  0
 22 47  1  0  0  0  0
 22 48  1  0  0  0  0
 23 49  1  0  0  0  0
 24 50  1  0  0  0  0
 24 51  1  0  0  0  0
 25 28  1  0  0  0  0
 25 26  1  0  0  0  0
 26 27  1  0  0  0  0
 26 52  1  0  0  0  0
 26 53  1  0  0  0  0
 27 28  1  0  0  0  0
 27 54  1  0  0  0  0
 27 55  1  0  0  0  0
 28 56  1  0  0  0  0
 28 57  1  0  0  0  0
M  END
> <s_m_source_file>
AV-unprocessed.smi

> <i_m_source_file_index>
210

> <i_lp_mmshare_version>
43012

> <i_f3d_flags>
0

> <s_epik_input>
W0NIMl0xW0NIMl1bQ0gyXUMxMltDQEhdKE9bQ0gzXSlbQ0gyXVtDQEhdMk4oW0NIM10pYyhuW2NIXW4zKWMoYzM0KW5bY0hdbjRbQ0hdKFtDSDJdNSlbQ0gyXUM1KFtDSDJdW09IXSlbQ0gyXVtPSF0=

> <s_epik_cmdline>
J2VwaWtfcHl0aG9uJywgJy1waCcsICc3LjAnLCAnLXRuJywgJzgnLCAnLW1hJywgJzIwMCcsICctbWV0YWxfYmluZGluZycsICctaW1hZScsICc8aW5maWxlLm1hZT4nLCAnLW9tYWUnLCAnPG91dGZpbGUubWFlPic=

> <r_lp_tautomer_probability>
1

> <r_epik_Ionization_Penalty>
0.00313676

> <r_epik_Ionization_Penalty_Charging>
0

> <r_epik_Ionization_Penalty_Neutral>
0.00313676

> <r_epik_State_Penalty>
0.00199132

> <r_epik_Charging_Adjusted_Penalty>
0.00199132

> <i_epik_Tot_Q>
0

> <i_epik_Tot_abs_Q>
0

> <r_epik_Metal_State_Penalty>
-0

> <b_epik_Metal_Only>
0

> <s_lp_Force_Field>
OPLS_2005

> <r_lp_Energy>
61.1908

> <b_lp_Chiralities_Consistent>
1

> <s_lp_Variant>
AV-unprocessed.smi:210-4

> <Gold.Version>
5.8.1

> <Gold.Id.Protein>
6NUR|6NUR_protein|mol2

> <Gold.PLP.Fitness>
46.3708

> <Gold.PLP.PLP>
-37.7989

> <Gold.PLP.part.hbond>
-3.8756

> <Gold.PLP.part.metal>
0.0000

> <Gold.PLP.part.buried>
-5.0885

> <Gold.PLP.part.nonpolar>
-29.0019

> <Gold.PLP.part.repulsive>
0.4415

> <Gold.PLP.ligand.clash>
0.0000

> <Gold.PLP.ligand.torsion>
1.5335

> <Gold.PLP.Chemscore.Hbond>
2.6305

> <Gold.PLP.Chemscore.CHOScore>
0.7401

> <Gold.PLP.Chemscore.Metal>
0.0000

> <Gold.Chemscore.Hbonds>
donor molecule, donor type, donor heavy atom, donor atom, acceptor molecule, acceptor atom, score
      L1  H    21    46       P1 10747  1.00
      P1  H  7989  7998       L1     2  0.59
      P1  H 10785 10796       L1    23  0.96
      L1  C    15    40       P1 10171  0.60

> <Gold.PLP.Chemscore.Internal.Correction>
1.5273

> <Gold.Rescore>
     Score         DG    S(hbond)    S(metal)    S(lipo)     H(rot)  DE(clash)    DE(int)     intcor
     10.53     -14.48       1.99        0.00      98.30       3.57       1.45       2.51       ----

> <Gold.Chemscore.Fitness>
10.5304

> <Gold.Chemscore.DG>
-14.4836

> <Gold.Chemscore.ZeroCoef>
-5.4800

> <Gold.Chemscore.Hbond>
1.9895

> <Gold.Chemscore.Metal>
0.0000

> <Gold.Chemscore.Lipo>
98.2995

> <Gold.Chemscore.Internal_Hbond>
0.0000

> <Gold.Chemscore.DEClash>
1.4463

> <Gold.Chemscore.DEInternal>
2.5069

> <Gold.Chemscore.Rot>
3.5712

> <Gold.Chemscore.Internal.Correction>
   9.000000E+99

> <Gold.Chemscore.Hbonds>
donor molecule, donor type, donor heavy atom, donor atom, acceptor molecule, acceptor atom, score
      L1  H    21    46       P1 10747  0.99
      P1  H  7989  7998       L1     2  0.11
      P1  H 10785 10796       L1    23  0.32

> <Gold.Chemscore.Hbond.Weighted>
-6.6449

> <Gold.Chemscore.Metal.Weighted>
-0.0000

> <Gold.Chemscore.Lipo.Weighted>
-11.5010

> <Gold.Chemscore.Internal_Hbond.Weighted>
0.0000

> <Gold.Chemscore.DEClash.Weighted>
1.4463

> <Gold.Chemscore.DEInternal.Weighted>
2.5069

> <Gold.Chemscore.Rot.Weighted>
9.1423

> <Gold.Chemscore.Internal.Correction.Weighted>
   9.000000E+99

> <Gold.Protein.RotatedTorsions>
[ 6907 6896 6895 6894 ] final  143.66 input  -60.11 | X-H torsion
[ 7974 7965 7964 7962 ] final -100.81 input  175.53 | X-H torsion
[ 8008 7997 7996 7995 ] final   46.89 input   59.86 | X-H torsion
[ 10167 10162 10161 10158 ] final  108.34 input  -65.29 | X-H torsion
[ 10718 10713 10712 10709 ] final -129.46 input   66.30 | X-H torsion
[ 10763 10752 10751 10750 ] final -118.09 input  -60.55 | X-H torsion
[ 11005 11000 10999 10996 ] final   56.39 input  -57.11 | X-H torsion

> <Gold.Protein.ActiveResidues>
 VAL166  LYS551  ARG553  GLY616  TRP617  ASP618  TYR619  PRO620  LYS621  CYS622 
 ASP623  PHE694  ASN695  SER759  ASP760  ASP761  ALA762  ILE779  LEU786  VAL792 
 PHE793  MET794  SER795  GLU796  ALA797  LYS798  CYS799  TRP800  GLU811  SER814 

> <Gold.Protein.RotatedAtoms>
  152.2034  133.4858  159.5070 H   0  0  0  0  0  0  0  0  0  0  0  0  # atno 6907 bound_to 6896
  150.6974  134.1560  159.4167 H   0  0  0  0  0  0  0  0  0  0  0  0  # atno 6908 bound_to 6896
  151.9478  135.0183  160.0591 H   0  0  0  0  0  0  0  0  0  0  0  0  # atno 6909 bound_to 6896
  145.2897  140.9349  143.2885 H   0  0  0  0  0  0  0  0  0  0  0  0  # atno 7974 bound_to 7965
  155.3599  140.3418  155.4240 H   0  0  0  0  0  0  0  0  0  0  0  0  # atno 8008 bound_to 7997
  156.1719  140.1634  156.8467 H   0  0  0  0  0  0  0  0  0  0  0  0  # atno 8009 bound_to 7997
  154.5242  140.0760  156.8210 H   0  0  0  0  0  0  0  0  0  0  0  0  # atno 8010 bound_to 7997
  139.6854  144.7114  151.1442 H   0  0  0  0  0  0  0  0  0  0  0  0  # atno 10167 bound_to 10162
  156.2049  130.6881  151.0582 H   0  0  0  0  0  0  0  0  0  0  0  0  # atno 10718 bound_to 10713
  154.8576  135.4286  154.2083 H   0  0  0  0  0  0  0  0  0  0  0  0  # atno 10763 bound_to 10752
  153.3115  135.6976  153.7118 H   0  0  0  0  0  0  0  0  0  0  0  0  # atno 10764 bound_to 10752
  153.6208  135.3502  155.2984 H   0  0  0  0  0  0  0  0  0  0  0  0  # atno 10765 bound_to 10752
  140.0532  134.5707  155.9238 H   0  0  0  0  0  0  0  0  0  0  0  0  # atno 11005 bound_to 11000
  144.9183  139.4443  143.6553 LP  0  0  0  0  0  0  0  0  0  0  0  0  # atno 17320 bound_to 7965
  146.3189  139.8029  142.8961 LP  0  0  0  0  0  0  0  0  0  0  0  0  # atno 17321 bound_to 7965
  140.7666  143.5637  150.9070 LP  0  0  0  0  0  0  0  0  0  0  0  0  # atno 17342 bound_to 10162
  139.9312  143.6491  152.3076 LP  0  0  0  0  0  0  0  0  0  0  0  0  # atno 17343 bound_to 10162
  157.7006  131.0777  150.6831 LP  0  0  0  0  0  0  0  0  0  0  0  0  # atno 17370 bound_to 10713
  156.6889  130.4589  149.5605 LP  0  0  0  0  0  0  0  0  0  0  0  0  # atno 17371 bound_to 10713
  141.1940  133.6581  156.5575 LP  0  0  0  0  0  0  0  0  0  0  0  0  # atno 17394 bound_to 11000
  140.3884  134.7462  157.4706 LP  0  0  0  0  0  0  0  0  0  0  0  0  # atno 17395 bound_to 11000

$$$$
