AV-unprocessed.smi:58|AV-procd|sdf|583|dock2
  -GOLD-   2262016483D 1   1.00000     0.00000
 Structure written by MMmdl.
 32 33  0  0  0  0  0  0  0  0  1 V2000
  152.2284  143.4837  159.7496 C   0  0  0  0  0  0  0  0  0  0  0  0
  151.7378  142.7799  158.5846 N   0  0  0  0  0  0  0  0  0  0  0  0
  150.8067  143.1941  157.6577 C   0  0  0  0  0  0  0  0  0  0  0  0
  150.6746  142.1939  156.7367 C   0  0  0  0  0  0  0  0  0  0  0  0
  149.8257  142.2215  155.6105 N   0  0  0  0  0  0  0  0  0  0  0  0
  151.5660  141.1785  157.2057 C   0  0  0  0  0  0  0  0  0  0  0  0
  151.7617  139.8986  156.4408 C   0  0  0  0  0  0  0  0  0  0  0  0
  151.4746  139.8623  155.2437 O   0  0  0  0  0  0  0  0  0  0  0  0
  152.2031  138.8151  157.1226 N   0  0  0  0  0  0  0  0  0  0  0  0
  152.5872  138.7896  158.5365 C   0  0  0  0  0  0  0  0  0  0  0  0
  152.8900  137.3301  158.8680 C   0  0  0  0  0  0  0  0  0  0  0  0
  153.2657  136.7225  157.5252 C   0  0  0  0  0  0  0  0  0  0  0  0
  152.4184  137.4982  156.5076 C   0  0  1  0  0  0  0  0  0  0  0  0
  151.0754  136.7973  156.2022 C   0  0  0  0  0  0  0  0  0  0  0  0
  151.3038  135.5121  155.6640 O   0  0  0  0  0  0  0  0  0  0  0  0
  152.2155  141.5516  158.3010 N   0  0  0  0  0  0  0  0  0  0  0  0
  151.7290  144.4485  159.8413 H   0  0  0  0  0  0  0  0  0  0  0  0
  153.3023  143.6479  159.6564 H   0  0  0  0  0  0  0  0  0  0  0  0
  152.0314  142.8958  160.6466 H   0  0  0  0  0  0  0  0  0  0  0  0
  150.3251  144.1587  157.7262 H   0  0  0  0  0  0  0  0  0  0  0  0
  149.2392  143.0192  155.4100 H   0  0  0  0  0  0  0  0  0  0  0  0
  149.6566  141.3969  155.0523 H   0  0  0  0  0  0  0  0  0  0  0  0
  153.4859  139.3922  158.6752 H   0  0  0  0  0  0  0  0  0  0  0  0
  151.8036  139.1870  159.1832 H   0  0  0  0  0  0  0  0  0  0  0  0
  153.6749  137.2203  159.6168 H   0  0  0  0  0  0  0  0  0  0  0  0
  151.9913  136.8459  159.2520 H   0  0  0  0  0  0  0  0  0  0  0  0
  154.3233  136.9055  157.3305 H   0  0  0  0  0  0  0  0  0  0  0  0
  153.1103  135.6436  157.4925 H   0  0  0  0  0  0  0  0  0  0  0  0
  152.9828  137.6179  155.5806 H   0  0  0  0  0  0  0  0  0  0  0  0
  150.4622  136.7128  157.1000 H   0  0  0  0  0  0  0  0  0  0  0  0
  150.4935  137.3584  155.4713 H   0  0  0  0  0  0  0  0  0  0  0  0
  150.5091  135.2156  155.2469 H   0  0  0  0  0  0  0  0  0  0  0  0
  1  2  1  0  0  0  0
  1 17  1  0  0  0  0
  1 18  1  0  0  0  0
  1 19  1  0  0  0  0
  2 16  1  0  0  0  0
  2  3  1  0  0  0  0
  3  4  2  0  0  0  0
  3 20  1  0  0  0  0
  4  5  1  0  0  0  0
  4  6  1  0  0  0  0
  5 21  1  0  0  0  0
  5 22  1  0  0  0  0
  6  7  1  0  0  0  0
  6 16  2  0  0  0  0
  7  8  2  0  0  0  0
  7  9  1  0  0  0  0
  9 13  1  0  0  0  0
  9 10  1  0  0  0  0
 10 11  1  0  0  0  0
 10 23  1  0  0  0  0
 10 24  1  0  0  0  0
 11 12  1  0  0  0  0
 11 25  1  0  0  0  0
 11 26  1  0  0  0  0
 12 13  1  0  0  0  0
 12 27  1  0  0  0  0
 12 28  1  0  0  0  0
 13 14  1  0  0  0  0
 13 29  1  0  0  0  0
 14 15  1  0  0  0  0
 14 30  1  0  0  0  0
 14 31  1  0  0  0  0
 15 32  1  0  0  0  0
M  END
> <s_m_source_file>
AV-unprocessed.smi

> <i_m_source_file_index>
58

> <i_lp_mmshare_version>
43012

> <i_f3d_flags>
0

> <s_epik_input>
W0NIM11uMVtjSF1jKFtOSDJdKWMobjEpQyg9TylOMltDSDJdW0NIMl1bQ0gyXVtDQEhdMltDSDJdW09IXQ==

> <s_epik_cmdline>
J2VwaWtfcHl0aG9uJywgJy1waCcsICc3LjAnLCAnLXRuJywgJzgnLCAnLW1hJywgJzIwMCcsICctbWV0YWxfYmluZGluZycsICctaW1hZScsICc8aW5maWxlLm1hZT4nLCAnLW9tYWUnLCAnPG91dGZpbGUubWFlPic=

> <r_lp_tautomer_probability>
1

> <r_epik_Ionization_Penalty>
5.64206e-05

> <r_epik_Ionization_Penalty_Charging>
0

> <r_epik_Ionization_Penalty_Neutral>
5.64206e-05

> <r_epik_State_Penalty>
-0

> <r_epik_Charging_Adjusted_Penalty>
0

> <i_epik_Tot_Q>
0

> <i_epik_Tot_abs_Q>
0

> <r_epik_Metal_State_Penalty>
-0

> <b_epik_Metal_Only>
0

> <s_lp_Force_Field>
OPLS_2005

> <r_lp_Energy>
40.444

> <b_lp_Chiralities_Consistent>
1

> <s_lp_Variant>
AV-unprocessed.smi:58-1

> <Gold.Version>
5.8.1

> <Gold.Id.Protein>
6NUR|6NUR_protein|mol2

> <Gold.PLP.Fitness>
34.6598

> <Gold.PLP.PLP>
-23.8713

> <Gold.PLP.part.hbond>
-3.0000

> <Gold.PLP.part.metal>
0.0000

> <Gold.PLP.part.buried>
-2.9066

> <Gold.PLP.part.nonpolar>
-18.3877

> <Gold.PLP.part.repulsive>
0.2041

> <Gold.PLP.ligand.clash>
0.0000

> <Gold.PLP.ligand.torsion>
0.2609

> <Gold.PLP.Chemscore.Hbond>
3.0000

> <Gold.PLP.Chemscore.CHOScore>
0.6745

> <Gold.PLP.Chemscore.Metal>
0.0000

> <Gold.Chemscore.Hbonds>
donor molecule, donor type, donor heavy atom, donor atom, acceptor molecule, acceptor atom, score
      L1  H     5    21       P1  8028  0.99
      P1  H  7989  7998       L1     8  1.00
      P1  H 10752 10764       L1    15  1.00
      L1  C     3    20       P1  8028  0.65

> <Gold.PLP.Chemscore.Internal.Correction>
0.2868

> <Gold.Rescore>
     Score         DG    S(hbond)    S(metal)    S(lipo)     H(rot)  DE(clash)    DE(int)     intcor
     14.91     -17.87       2.84        0.00      57.55       1.49       0.05       2.90       ----

> <Gold.Chemscore.Fitness>
14.9148

> <Gold.Chemscore.DG>
-17.8692

> <Gold.Chemscore.ZeroCoef>
-5.4800

> <Gold.Chemscore.Hbond>
2.8361

> <Gold.Chemscore.Metal>
0.0000

> <Gold.Chemscore.Lipo>
57.5459

> <Gold.Chemscore.Internal_Hbond>
0.0000

> <Gold.Chemscore.DEClash>
0.0536

> <Gold.Chemscore.DEInternal>
2.9007

> <Gold.Chemscore.Rot>
1.4907

> <Gold.Chemscore.Internal.Correction>
   9.000000E+99

> <Gold.Chemscore.Hbonds>
donor molecule, donor type, donor heavy atom, donor atom, acceptor molecule, acceptor atom, score
      L1  H     5    21       P1  8028  0.93
      P1  H  7989  7998       L1     8  0.93
      P1  H 10752 10764       L1    15  0.64

> <Gold.Chemscore.Hbond.Weighted>
-9.4726

> <Gold.Chemscore.Metal.Weighted>
-0.0000

> <Gold.Chemscore.Lipo.Weighted>
-6.7329

> <Gold.Chemscore.Internal_Hbond.Weighted>
0.0000

> <Gold.Chemscore.DEClash.Weighted>
0.0536

> <Gold.Chemscore.DEInternal.Weighted>
2.9007

> <Gold.Chemscore.Rot.Weighted>
3.8163

> <Gold.Chemscore.Internal.Correction.Weighted>
   9.000000E+99

> <Gold.Protein.RotatedTorsions>
[ 6907 6896 6895 6894 ] final   47.13 input  -60.11 | X-H torsion
[ 7974 7965 7964 7962 ] final -166.22 input  175.53 | X-H torsion
[ 8008 7997 7996 7995 ] final   48.58 input   59.86 | X-H torsion
[ 10167 10162 10161 10158 ] final  -47.06 input  -65.29 | X-H torsion
[ 10718 10713 10712 10709 ] final  127.79 input   66.30 | X-H torsion
[ 10763 10752 10751 10750 ] final  -32.39 input  -60.55 | X-H torsion
[ 11005 11000 10999 10996 ] final  -68.68 input  -57.11 | X-H torsion

> <Gold.Protein.ActiveResidues>
 VAL166  LYS551  ARG553  GLY616  TRP617  ASP618  TYR619  PRO620  LYS621  CYS622 
 ASP623  PHE694  ASN695  SER759  ASP760  ASP761  ALA762  ILE779  LEU786  VAL792 
 PHE793  MET794  SER795  GLU796  ALA797  LYS798  CYS799  TRP800  GLU811  SER814 

> <Gold.Protein.RotatedAtoms>
  152.2645  134.7999  160.0424 H   0  0  0  0  0  0  0  0  0  0  0  0  # atno 6907 bound_to 6896
  151.8633  133.3456  159.3719 H   0  0  0  0  0  0  0  0  0  0  0  0  # atno 6908 bound_to 6896
  150.7129  134.5112  159.5652 H   0  0  0  0  0  0  0  0  0  0  0  0  # atno 6909 bound_to 6896
  144.7250  140.2698  143.6252 H   0  0  0  0  0  0  0  0  0  0  0  0  # atno 7974 bound_to 7965
  155.3880  140.3432  155.4250 H   0  0  0  0  0  0  0  0  0  0  0  0  # atno 8008 bound_to 7997
  156.1573  140.1589  156.8704 H   0  0  0  0  0  0  0  0  0  0  0  0  # atno 8009 bound_to 7997
  154.5107  140.0791  156.7965 H   0  0  0  0  0  0  0  0  0  0  0  0  # atno 8010 bound_to 7997
  140.6791  143.2802  151.3872 H   0  0  0  0  0  0  0  0  0  0  0  0  # atno 10167 bound_to 10162
  157.5302  131.1098  150.9020 H   0  0  0  0  0  0  0  0  0  0  0  0  # atno 10718 bound_to 10713
  153.8131  135.6880  153.4838 H   0  0  0  0  0  0  0  0  0  0  0  0  # atno 10763 bound_to 10752
  153.1616  135.4577  154.9778 H   0  0  0  0  0  0  0  0  0  0  0  0  # atno 10764 bound_to 10752
  154.7959  135.3319  154.7609 H   0  0  0  0  0  0  0  0  0  0  0  0  # atno 10765 bound_to 10752
  141.1537  133.6746  156.6483 H   0  0  0  0  0  0  0  0  0  0  0  0  # atno 11005 bound_to 11000
  145.8054  139.1981  143.2024 LP  0  0  0  0  0  0  0  0  0  0  0  0  # atno 17320 bound_to 7965
  146.0641  140.7939  142.9720 LP  0  0  0  0  0  0  0  0  0  0  0  0  # atno 17321 bound_to 7965
  139.6102  144.1114  152.2291 LP  0  0  0  0  0  0  0  0  0  0  0  0  # atno 17342 bound_to 10162
  140.0526  144.5921  150.7324 LP  0  0  0  0  0  0  0  0  0  0  0  0  # atno 17343 bound_to 10162
  156.9604  130.5453  149.5285 LP  0  0  0  0  0  0  0  0  0  0  0  0  # atno 17370 bound_to 10713
  156.0417  130.5498  150.8786 LP  0  0  0  0  0  0  0  0  0  0  0  0  # atno 17371 bound_to 10713
  140.3340  134.7905  157.4348 LP  0  0  0  0  0  0  0  0  0  0  0  0  # atno 17394 bound_to 11000
  140.0993  134.5495  155.8368 LP  0  0  0  0  0  0  0  0  0  0  0  0  # atno 17395 bound_to 11000

$$$$
