AV-unprocessed.smi:3321|AV-procd|sdf|12770|dock5
  -GOLD-   2272019113D 1   1.00000     0.00000
 Structure written by MMmdl.
 41 42  0  0  0  0  0  0  0  0  2 V2000
  151.7503  139.8572  155.6952 C   0  0  0  0  0  0  0  0  0  0  0  0
  151.1747  139.7293  157.1154 C   0  0  1  0  0  0  0  0  0  0  0  0
  150.8662  138.3060  157.3904 N   0  3  0  0  0  0  0  0  0  0  0  0
  150.2252  138.0424  158.6966 C   0  0  0  0  0  0  0  0  0  0  0  0
  148.6954  138.0499  158.5668 C   0  0  0  0  0  0  0  0  0  0  0  0
  148.0755  137.0542  159.4194 N   0  0  0  0  0  0  0  0  0  0  0  0
  148.0111  135.6885  159.2384 C   0  0  0  0  0  0  0  0  0  0  0  0
  147.3181  135.1713  160.2949 C   0  0  0  0  0  0  0  0  0  0  0  0
  146.9926  136.3140  161.0780 C   0  0  0  0  0  0  0  0  0  0  0  0
  147.4455  137.4399  160.5499 N   0  0  0  0  0  0  0  0  0  0  0  0
  152.1663  140.3102  158.1467 C   0  0  0  0  0  0  0  0  0  0  0  0
  153.1940  139.6721  158.3832 O   0  0  0  0  0  0  0  0  0  0  0  0
  151.8966  141.4896  158.7614 N   0  0  0  0  0  0  0  0  0  0  0  0
  152.7466  142.1697  159.7487 C   0  0  0  0  0  0  0  0  0  0  0  0
  153.3691  143.4128  159.0887 C   0  0  0  0  0  0  0  0  0  0  0  0
  152.2719  144.3454  158.5404 C   0  0  0  0  0  0  0  0  0  0  0  0
  151.2540  143.5815  157.6712 C   0  0  0  0  0  0  0  0  0  0  0  0
  150.7422  142.3217  158.3951 C   0  0  0  0  0  0  0  0  0  0  0  0
  151.9761  140.8931  155.4405 H   0  0  0  0  0  0  0  0  0  0  0  0
  151.0416  139.4891  154.9528 H   0  0  0  0  0  0  0  0  0  0  0  0
  152.6716  139.2836  155.5849 H   0  0  0  0  0  0  0  0  0  0  0  0
  150.2246  140.2609  157.1625 H   0  0  0  0  0  0  0  0  0  0  0  0
  150.2365  137.9787  156.6720 H   0  0  0  0  0  0  0  0  0  0  0  0
  150.5557  137.0780  159.0841 H   0  0  0  0  0  0  0  0  0  0  0  0
  150.5466  138.8026  159.4100 H   0  0  0  0  0  0  0  0  0  0  0  0
  148.2921  139.0287  158.8303 H   0  0  0  0  0  0  0  0  0  0  0  0
  148.4024  137.8528  157.5348 H   0  0  0  0  0  0  0  0  0  0  0  0
  148.4576  135.2029  158.3829 H   0  0  0  0  0  0  0  0  0  0  0  0
  147.0780  134.1348  160.4796 H   0  0  0  0  0  0  0  0  0  0  0  0
  146.4427  136.3590  162.0063 H   0  0  0  0  0  0  0  0  0  0  0  0
  152.1325  142.4731  160.5980 H   0  0  0  0  0  0  0  0  0  0  0  0
  153.5229  141.5398  160.1775 H   0  0  0  0  0  0  0  0  0  0  0  0
  153.9891  143.9497  159.8072 H   0  0  0  0  0  0  0  0  0  0  0  0
  154.0297  143.1046  158.2770 H   0  0  0  0  0  0  0  0  0  0  0  0
  151.7470  144.8065  159.3780 H   0  0  0  0  0  0  0  0  0  0  0  0
  152.7184  145.1613  157.9711 H   0  0  0  0  0  0  0  0  0  0  0  0
  150.4187  144.2336  157.4149 H   0  0  0  0  0  0  0  0  0  0  0  0
  151.7226  143.2938  156.7289 H   0  0  0  0  0  0  0  0  0  0  0  0
  150.0218  141.8002  157.7635 H   0  0  0  0  0  0  0  0  0  0  0  0
  150.1943  142.6019  159.2961 H   0  0  0  0  0  0  0  0  0  0  0  0
  151.7255  137.7778  157.3319 H   0  0  0  0  0  0  0  0  0  0  0  0
  1  2  1  0  0  0  0
  1 19  1  0  0  0  0
  1 20  1  0  0  0  0
  1 21  1  0  0  0  0
  2  3  1  0  0  0  0
  2 11  1  0  0  0  0
  2 22  1  0  0  0  0
  3  4  1  0  0  0  0
  3 23  1  0  0  0  0
  3 41  1  0  0  0  0
  4  5  1  0  0  0  0
  4 24  1  0  0  0  0
  4 25  1  0  0  0  0
  5  6  1  0  0  0  0
  5 26  1  0  0  0  0
  5 27  1  0  0  0  0
  6 10  1  0  0  0  0
  6  7  1  0  0  0  0
  7  8  2  0  0  0  0
  7 28  1  0  0  0  0
  8  9  1  0  0  0  0
  8 29  1  0  0  0  0
  9 10  2  0  0  0  0
  9 30  1  0  0  0  0
 11 12  2  0  0  0  0
 11 13  1  0  0  0  0
 13 18  1  0  0  0  0
 13 14  1  0  0  0  0
 14 15  1  0  0  0  0
 14 31  1  0  0  0  0
 14 32  1  0  0  0  0
 15 16  1  0  0  0  0
 15 33  1  0  0  0  0
 15 34  1  0  0  0  0
 16 17  1  0  0  0  0
 16 35  1  0  0  0  0
 16 36  1  0  0  0  0
 17 18  1  0  0  0  0
 17 37  1  0  0  0  0
 17 38  1  0  0  0  0
 18 39  1  0  0  0  0
 18 40  1  0  0  0  0
M  CHG  1   3   1
M  END
> <s_m_source_file>
AV-unprocessed.smi

> <i_m_source_file_index>
3321

> <i_lp_mmshare_version>
43012

> <i_f3d_flags>
0

> <s_epik_input>
W0NIMl0xW0NIMl1bQ0gyXVtDSDJdW0NIMl1OMUMoPU8pW0NASF0oW0NIM10pW05IXVtDSDJdW0NIMl1uMltjSF1bY0hdW2NIXW4y

> <s_epik_cmdline>
J2VwaWtfcHl0aG9uJywgJy1waCcsICc3LjAnLCAnLXRuJywgJzgnLCAnLW1hJywgJzIwMCcsICctbWV0YWxfYmluZGluZycsICctaW1hZScsICc8aW5maWxlLm1hZT4nLCAnLW9tYWUnLCAnPG91dGZpbGUubWFlPic=

> <r_lp_tautomer_probability>
1

> <r_epik_Ionization_Penalty>
0.202061

> <r_epik_Ionization_Penalty_Charging>
0.202058

> <r_epik_Ionization_Penalty_Neutral>
2.46932e-06

> <r_epik_State_Penalty>
0.191938

> <r_epik_Charging_Adjusted_Penalty>
0.393996

> <i_epik_Tot_Q>
1

> <i_epik_Tot_abs_Q>
1

> <r_epik_Metal_State_Penalty>
0.192188

> <b_epik_Metal_Only>
0

> <s_lp_Force_Field>
OPLS_2005

> <r_lp_Energy>
26.1916

> <b_lp_Chiralities_Consistent>
1

> <s_lp_Variant>
AV-unprocessed.smi:3321-2

> <Gold.Version>
5.8.1

> <Gold.Id.Protein>
6NUR|6NUR_protein|mol2

> <Gold.PLP.Fitness>
44.2086

> <Gold.PLP.PLP>
-37.9094

> <Gold.PLP.part.hbond>
-3.0000

> <Gold.PLP.part.metal>
0.0000

> <Gold.PLP.part.buried>
-3.6813

> <Gold.PLP.part.nonpolar>
-31.5700

> <Gold.PLP.part.repulsive>
0.0301

> <Gold.PLP.ligand.clash>
0.0000

> <Gold.PLP.ligand.torsion>
0.9071

> <Gold.PLP.Chemscore.Hbond>
2.6800

> <Gold.PLP.Chemscore.CHOScore>
0.0000

> <Gold.PLP.Chemscore.Metal>
0.0000

> <Gold.Chemscore.Hbonds>
donor molecule, donor type, donor heavy atom, donor atom, acceptor molecule, acceptor atom, score
      P1  H  6931  6943       L1    10  0.32
      P1  H  6934  6947       L1    10  1.00
      P1  H  7997  8010       L1    12  1.00

> <Gold.PLP.Chemscore.Internal.Correction>
0.0735

> <Gold.Rescore>
     Score         DG    S(hbond)    S(metal)    S(lipo)     H(rot)  DE(clash)    DE(int)     intcor
     18.37     -19.44       2.35        0.00      91.52       1.79       0.03       1.03       ----

> <Gold.Chemscore.Fitness>
18.3744

> <Gold.Chemscore.DG>
-19.4405

> <Gold.Chemscore.ZeroCoef>
-5.4800

> <Gold.Chemscore.Hbond>
2.3481

> <Gold.Chemscore.Metal>
0.0000

> <Gold.Chemscore.Lipo>
91.5161

> <Gold.Chemscore.Internal_Hbond>
0.0000

> <Gold.Chemscore.DEClash>
0.0318

> <Gold.Chemscore.DEInternal>
1.0343

> <Gold.Chemscore.Rot>
1.7928

> <Gold.Chemscore.Internal.Correction>
   9.000000E+99

> <Gold.Chemscore.Hbonds>
donor molecule, donor type, donor heavy atom, donor atom, acceptor molecule, acceptor atom, score
      P1  H  6931  6943       L1    10  0.12
      P1  H  6934  6947       L1    10  0.95
      P1  H  7997  8010       L1    12  0.87

> <Gold.Chemscore.Hbond.Weighted>
-7.8426

> <Gold.Chemscore.Metal.Weighted>
-0.0000

> <Gold.Chemscore.Lipo.Weighted>
-10.7074

> <Gold.Chemscore.Internal_Hbond.Weighted>
0.0000

> <Gold.Chemscore.DEClash.Weighted>
0.0318

> <Gold.Chemscore.DEInternal.Weighted>
1.0343

> <Gold.Chemscore.Rot.Weighted>
4.5895

> <Gold.Chemscore.Internal.Correction.Weighted>
   9.000000E+99

> <Gold.Protein.RotatedTorsions>
[ 6907 6896 6895 6894 ] final   47.11 input  -60.11 | X-H torsion
[ 7974 7965 7964 7962 ] final  -13.08 input  175.53 | X-H torsion
[ 8008 7997 7996 7995 ] final   25.21 input   59.86 | X-H torsion
[ 10167 10162 10161 10158 ] final -126.19 input  -65.29 | X-H torsion
[ 10718 10713 10712 10709 ] final  -10.29 input   66.30 | X-H torsion
[ 10763 10752 10751 10750 ] final  133.80 input  -60.55 | X-H torsion
[ 11005 11000 10999 10996 ] final -109.89 input  -57.11 | X-H torsion

> <Gold.Protein.ActiveResidues>
 VAL166  LYS551  ARG553  GLY616  TRP617  ASP618  TYR619  PRO620  LYS621  CYS622 
 ASP623  PHE694  ASN695  SER759  ASP760  ASP761  ALA762  ILE779  LEU786  VAL792 
 PHE793  MET794  SER795  GLU796  ALA797  LYS798  CYS799  TRP800  GLU811  SER814 

> <Gold.Protein.RotatedAtoms>
  152.2643  134.8001  160.0425 H   0  0  0  0  0  0  0  0  0  0  0  0  # atno 6907 bound_to 6896
  151.8636  133.3457  159.3720 H   0  0  0  0  0  0  0  0  0  0  0  0  # atno 6908 bound_to 6896
  150.7128  134.5109  159.5651 H   0  0  0  0  0  0  0  0  0  0  0  0  # atno 6909 bound_to 6896
  146.2128  140.3151  142.8386 H   0  0  0  0  0  0  0  0  0  0  0  0  # atno 7974 bound_to 7965
  155.0082  140.3133  155.4840 H   0  0  0  0  0  0  0  0  0  0  0  0  # atno 8008 bound_to 7997
  156.2913  140.2219  156.5137 H   0  0  0  0  0  0  0  0  0  0  0  0  # atno 8009 bound_to 7997
  154.7558  140.0463  157.0920 H   0  0  0  0  0  0  0  0  0  0  0  0  # atno 8010 bound_to 7997
  139.9741  143.5813  152.2402 H   0  0  0  0  0  0  0  0  0  0  0  0  # atno 10167 bound_to 10162
  156.6757  130.5022  149.5986 H   0  0  0  0  0  0  0  0  0  0  0  0  # atno 10718 bound_to 10713
  153.8130  135.3126  155.3403 H   0  0  0  0  0  0  0  0  0  0  0  0  # atno 10763 bound_to 10752
  154.8043  135.4707  154.0357 H   0  0  0  0  0  0  0  0  0  0  0  0  # atno 10764 bound_to 10752
  153.1741  135.6883  153.8656 H   0  0  0  0  0  0  0  0  0  0  0  0  # atno 10765 bound_to 10752
  141.0822  133.9199  157.2263 H   0  0  0  0  0  0  0  0  0  0  0  0  # atno 11005 bound_to 11000
  144.8960  140.7583  143.5897 LP  0  0  0  0  0  0  0  0  0  0  0  0  # atno 17320 bound_to 7965
  145.3075  139.1829  143.4656 LP  0  0  0  0  0  0  0  0  0  0  0  0  # atno 17321 bound_to 7965
  139.6459  144.7658  151.2245 LP  0  0  0  0  0  0  0  0  0  0  0  0  # atno 17342 bound_to 10162
  140.7512  143.6240  150.8486 LP  0  0  0  0  0  0  0  0  0  0  0  0  # atno 17343 bound_to 10162
  156.1905  130.6557  151.1056 LP  0  0  0  0  0  0  0  0  0  0  0  0  # atno 17370 bound_to 10713
  157.7062  131.0755  150.6660 LP  0  0  0  0  0  0  0  0  0  0  0  0  # atno 17371 bound_to 10713
  139.9637  135.0147  156.9330 LP  0  0  0  0  0  0  0  0  0  0  0  0  # atno 17394 bound_to 11000
  140.5442  134.0690  155.7350 LP  0  0  0  0  0  0  0  0  0  0  0  0  # atno 17395 bound_to 11000

$$$$
