AV-unprocessed.smi:1867|AV-procd|sdf|7562|dock3
  -GOLD-   22720 9283D 1   1.00000     0.00000
 Structure written by MMmdl.
 52 55  0  0  0  0  0  0  0  0  2 V2000
  149.1993  135.1306  156.0411 O   0  0  0  0  0  0  0  0  0  0  0  0
  149.1411  135.4187  154.8479 C   0  0  0  0  0  0  0  0  0  0  0  0
  149.4459  136.6276  154.3371 N   0  0  0  0  0  0  0  0  0  0  0  0
  149.9953  137.7511  155.0095 C   0  0  0  0  0  0  0  0  0  0  0  0
  150.2226  137.6538  156.3957 C   0  0  0  0  0  0  0  0  0  0  0  0
  150.7433  138.7639  157.0871 C   0  0  0  0  0  0  0  0  0  0  0  0
  151.0161  139.9535  156.3709 C   0  0  0  0  0  0  0  0  0  0  0  0
  151.5315  141.0899  157.0250 N   0  0  0  0  0  0  0  0  0  0  0  0
  152.0499  141.0210  158.3826 C   0  0  0  0  0  0  0  0  0  0  0  0
  152.3494  142.4718  158.7551 C   0  0  0  0  0  0  0  0  0  0  0  0
  151.2749  143.2509  157.9969 C   0  0  0  0  0  0  0  0  0  0  0  0
  151.0461  142.4296  156.7223 C   0  0  0  0  0  0  0  0  0  0  0  0
  150.7764  140.0545  155.0418 N   0  0  0  0  0  0  0  0  0  0  0  0
  150.2821  138.9861  154.3819 C   0  0  0  0  0  0  0  0  0  0  0  0
  148.7010  134.5299  153.9400 N   0  0  0  0  0  0  0  0  0  0  0  0
  148.2900  133.1431  154.1613 C   0  0  2  0  0  0  0  0  0  0  0  0
  149.4372  132.1870  154.4784 C   0  0  0  0  0  0  0  0  0  0  0  0
  148.8241  130.8268  154.1399 C   0  0  0  0  0  0  0  0  0  0  0  0
  147.9156  131.0650  152.9955 N   0  3  1  0  0  0  0  0  0  0  0  0
  146.7031  130.2106  152.9745 C   0  0  0  0  0  0  0  0  0  0  0  0
  145.8295  130.5392  151.7494 C   0  0  0  0  0  0  0  0  0  0  0  0
  145.5245  132.0459  151.6096 C   0  0  0  0  0  0  0  0  0  0  0  0
  146.1753  132.8834  152.7219 C   0  0  0  0  0  0  0  0  0  0  0  0
  147.6697  132.5316  152.8960 C   0  0  1  0  0  0  0  0  0  0  0  0
  149.2307  136.7678  153.3611 H   0  0  0  0  0  0  0  0  0  0  0  0
  150.0038  136.7388  156.9269 H   0  0  0  0  0  0  0  0  0  0  0  0
  150.9158  138.6922  158.1506 H   0  0  0  0  0  0  0  0  0  0  0  0
  151.2889  140.6035  159.0431 H   0  0  0  0  0  0  0  0  0  0  0  0
  152.9417  140.3964  158.4427 H   0  0  0  0  0  0  0  0  0  0  0  0
  152.3272  142.6469  159.8309 H   0  0  0  0  0  0  0  0  0  0  0  0
  153.3370  142.7522  158.3863 H   0  0  0  0  0  0  0  0  0  0  0  0
  150.3577  143.2708  158.5870 H   0  0  0  0  0  0  0  0  0  0  0  0
  151.5624  144.2820  157.7905 H   0  0  0  0  0  0  0  0  0  0  0  0
  151.6255  142.8347  155.8921 H   0  0  0  0  0  0  0  0  0  0  0  0
  149.9925  142.4328  156.4405 H   0  0  0  0  0  0  0  0  0  0  0  0
  150.0945  139.1489  153.3319 H   0  0  0  0  0  0  0  0  0  0  0  0
  148.5692  134.8822  153.0027 H   0  0  0  0  0  0  0  0  0  0  0  0
  147.5592  133.0950  154.9714 H   0  0  0  0  0  0  0  0  0  0  0  0
  150.2916  132.3857  153.8293 H   0  0  0  0  0  0  0  0  0  0  0  0
  149.7746  132.2506  155.5134 H   0  0  0  0  0  0  0  0  0  0  0  0
  149.5772  130.0752  153.9023 H   0  0  0  0  0  0  0  0  0  0  0  0
  148.2535  130.4674  154.9978 H   0  0  0  0  0  0  0  0  0  0  0  0
  146.9997  129.1614  152.9515 H   0  0  0  0  0  0  0  0  0  0  0  0
  146.1317  130.3556  153.8928 H   0  0  0  0  0  0  0  0  0  0  0  0
  146.3355  130.1947  150.8467 H   0  0  0  0  0  0  0  0  0  0  0  0
  144.8980  129.9750  151.8032 H   0  0  0  0  0  0  0  0  0  0  0  0
  145.8843  132.3945  150.6409 H   0  0  0  0  0  0  0  0  0  0  0  0
  144.4466  132.2124  151.6079 H   0  0  0  0  0  0  0  0  0  0  0  0
  146.0633  133.9460  152.5041 H   0  0  0  0  0  0  0  0  0  0  0  0
  145.6389  132.7109  153.6562 H   0  0  0  0  0  0  0  0  0  0  0  0
  148.2221  132.8689  152.0170 H   0  0  0  0  0  0  0  0  0  0  0  0
  148.4386  130.8276  152.1646 H   0  0  0  0  0  0  0  0  0  0  0  0
  1  2  2  0  0  0  0
  2  3  1  0  0  0  0
  2 15  1  0  0  0  0
  3  4  1  0  0  0  0
  3 25  1  0  0  0  0
  4 14  1  0  0  0  0
  4  5  2  0  0  0  0
  5  6  1  0  0  0  0
  5 26  1  0  0  0  0
  6  7  2  0  0  0  0
  6 27  1  0  0  0  0
  7  8  1  0  0  0  0
  7 13  1  0  0  0  0
  8 12  1  0  0  0  0
  8  9  1  0  0  0  0
  9 10  1  0  0  0  0
  9 28  1  0  0  0  0
  9 29  1  0  0  0  0
 10 11  1  0  0  0  0
 10 30  1  0  0  0  0
 10 31  1  0  0  0  0
 11 12  1  0  0  0  0
 11 32  1  0  0  0  0
 11 33  1  0  0  0  0
 12 34  1  0  0  0  0
 12 35  1  0  0  0  0
 13 14  2  0  0  0  0
 14 36  1  0  0  0  0
 15 16  1  0  0  0  0
 15 37  1  0  0  0  0
 16 24  1  0  0  0  0
 16 17  1  0  0  0  0
 16 38  1  0  0  0  0
 17 18  1  0  0  0  0
 17 39  1  0  0  0  0
 17 40  1  0  0  0  0
 18 19  1  0  0  0  0
 18 41  1  0  0  0  0
 18 42  1  0  0  0  0
 19 24  1  0  0  0  0
 19 20  1  0  0  0  0
 19 52  1  0  0  0  0
 20 21  1  0  0  0  0
 20 43  1  0  0  0  0
 20 44  1  0  0  0  0
 21 22  1  0  0  0  0
 21 45  1  0  0  0  0
 21 46  1  0  0  0  0
 22 23  1  0  0  0  0
 22 47  1  0  0  0  0
 22 48  1  0  0  0  0
 23 24  1  0  0  0  0
 23 49  1  0  0  0  0
 23 50  1  0  0  0  0
 24 51  1  0  0  0  0
M  CHG  1  19   1
M  END
> <s_m_source_file>
AV-unprocessed.smi

> <i_m_source_file_index>
1867

> <i_lp_mmshare_version>
43012

> <i_f3d_flags>
0

> <s_epik_input>
W0NIMl0xW0NIMl1bQ0gyXVtDSDJdW0NASF0oTjEyKVtDQEBIXShbQ0gyXVtDSDJdMilbTkhdQyg9TylbTkhdYzNbY0hdW2NIXWMobltjSF0zKU40W0NIMl1bQ0gyXVtDSDJdW0NIMl00

> <s_epik_cmdline>
J2VwaWtfcHl0aG9uJywgJy1waCcsICc3LjAnLCAnLXRuJywgJzgnLCAnLW1hJywgJzIwMCcsICctbWV0YWxfYmluZGluZycsICctaW1hZScsICc8aW5maWxlLm1hZT4nLCAnLW9tYWUnLCAnPG91dGZpbGUubWFlPic=

> <r_lp_tautomer_probability>
1

> <r_epik_Ionization_Penalty>
0.0751123

> <r_epik_Ionization_Penalty_Charging>
0.000974069

> <r_epik_Ionization_Penalty_Neutral>
0.0741382

> <r_epik_State_Penalty>
0.0647261

> <r_epik_Charging_Adjusted_Penalty>
0.0657002

> <i_epik_Tot_Q>
1

> <i_epik_Tot_abs_Q>
1

> <r_epik_Metal_State_Penalty>
0.0580571

> <b_epik_Metal_Only>
0

> <s_lp_Force_Field>
OPLS_2005

> <r_lp_Energy>
77.3858

> <b_lp_Chiralities_Consistent>
1

> <s_lp_Variant>
AV-unprocessed.smi:1867-3

> <Gold.Version>
5.8.1

> <Gold.Id.Protein>
6NUR|6NUR_protein|mol2

> <Gold.PLP.Fitness>
54.2803

> <Gold.PLP.PLP>
-40.7472

> <Gold.PLP.part.hbond>
-4.0000

> <Gold.PLP.part.metal>
0.0000

> <Gold.PLP.part.buried>
-5.1468

> <Gold.PLP.part.nonpolar>
-32.0575

> <Gold.PLP.part.repulsive>
0.1076

> <Gold.PLP.ligand.clash>
0.1554

> <Gold.PLP.ligand.torsion>
0.4497

> <Gold.PLP.Chemscore.Hbond>
3.7940

> <Gold.PLP.Chemscore.CHOScore>
1.0000

> <Gold.PLP.Chemscore.Metal>
0.0000

> <Gold.Chemscore.Hbonds>
donor molecule, donor type, donor heavy atom, donor atom, acceptor molecule, acceptor atom, score
      L1  H     3    25       P1  7948  1.00
      L1  H    15    37       P1  7948  0.91
      L1  H    19    52       P1 10747  1.00
      P1  H  7989  7998       L1    13  0.80
      L1  C    14    36       P1  7957  1.00

> <Gold.PLP.Chemscore.Internal.Correction>
0.2059

> <Gold.Rescore>
     Score         DG    S(hbond)    S(metal)    S(lipo)     H(rot)  DE(clash)    DE(int)     intcor
     22.13     -23.98       2.61        0.00     105.55       1.00       0.03       1.82       ----

> <Gold.Chemscore.Fitness>
22.1310

> <Gold.Chemscore.DG>
-23.9825

> <Gold.Chemscore.ZeroCoef>
-5.4800

> <Gold.Chemscore.Hbond>
2.6087

> <Gold.Chemscore.Metal>
0.0000

> <Gold.Chemscore.Lipo>
105.5511

> <Gold.Chemscore.Internal_Hbond>
0.0000

> <Gold.Chemscore.DEClash>
0.0289

> <Gold.Chemscore.DEInternal>
1.8226

> <Gold.Chemscore.Rot>
1.0000

> <Gold.Chemscore.Internal.Correction>
   9.000000E+99

> <Gold.Chemscore.Hbonds>
donor molecule, donor type, donor heavy atom, donor atom, acceptor molecule, acceptor atom, score
      L1  H     3    25       P1  7948  0.92
      L1  H    15    37       P1  7948  0.45
      L1  H    19    52       P1 10747  0.95
      P1  H  7989  7998       L1    13  0.12

> <Gold.Chemscore.Hbond.Weighted>
-8.7130

> <Gold.Chemscore.Metal.Weighted>
-0.0000

> <Gold.Chemscore.Lipo.Weighted>
-12.3495

> <Gold.Chemscore.Internal_Hbond.Weighted>
0.0000

> <Gold.Chemscore.DEClash.Weighted>
0.0289

> <Gold.Chemscore.DEInternal.Weighted>
1.8226

> <Gold.Chemscore.Rot.Weighted>
2.5600

> <Gold.Chemscore.Internal.Correction.Weighted>
   9.000000E+99

> <Gold.Protein.RotatedTorsions>
[ 6907 6896 6895 6894 ] final   36.95 input  -60.11 | X-H torsion
[ 7974 7965 7964 7962 ] final -104.82 input  175.53 | X-H torsion
[ 8008 7997 7996 7995 ] final  -39.51 input   59.86 | X-H torsion
[ 10167 10162 10161 10158 ] final  127.44 input  -65.29 | X-H torsion
[ 10718 10713 10712 10709 ] final  -13.70 input   66.30 | X-H torsion
[ 10763 10752 10751 10750 ] final -155.31 input  -60.55 | X-H torsion
[ 11005 11000 10999 10996 ] final -100.45 input  -57.11 | X-H torsion

> <Gold.Protein.ActiveResidues>
 VAL166  LYS551  ARG553  GLY616  TRP617  ASP618  TYR619  PRO620  LYS621  CYS622 
 ASP623  PHE694  ASN695  SER759  ASP760  ASP761  ALA762  ILE779  LEU786  VAL792 
 PHE793  MET794  SER795  GLU796  ALA797  LYS798  CYS799  TRP800  GLU811  SER814 

> <Gold.Protein.RotatedAtoms>
  152.1367  134.9094  160.0555 H   0  0  0  0  0  0  0  0  0  0  0  0  # atno 6907 bound_to 6896
  152.0178  133.3881  159.4254 H   0  0  0  0  0  0  0  0  0  0  0  0  # atno 6908 bound_to 6896
  150.6861  134.3581  159.4982 H   0  0  0  0  0  0  0  0  0  0  0  0  # atno 6909 bound_to 6896
  145.2383  140.9196  143.3165 H   0  0  0  0  0  0  0  0  0  0  0  0  # atno 7974 bound_to 7965
  154.4022  140.1549  156.2875 H   0  0  0  0  0  0  0  0  0  0  0  0  # atno 8008 bound_to 7997
  155.8815  140.3443  155.5869 H   0  0  0  0  0  0  0  0  0  0  0  0  # atno 8009 bound_to 7997
  155.7662  140.0824  157.2121 H   0  0  0  0  0  0  0  0  0  0  0  0  # atno 8010 bound_to 7997
  139.5578  144.6861  151.4131 H   0  0  0  0  0  0  0  0  0  0  0  0  # atno 10167 bound_to 10162
  156.6266  130.4890  149.6145 H   0  0  0  0  0  0  0  0  0  0  0  0  # atno 10718 bound_to 10713
  154.7796  135.3170  154.8018 H   0  0  0  0  0  0  0  0  0  0  0  0  # atno 10763 bound_to 10752
  153.8733  135.6842  153.4777 H   0  0  0  0  0  0  0  0  0  0  0  0  # atno 10764 bound_to 10752
  153.1429  135.4731  154.9459 H   0  0  0  0  0  0  0  0  0  0  0  0  # atno 10765 bound_to 10752
  141.1270  133.8400  157.1104 H   0  0  0  0  0  0  0  0  0  0  0  0  # atno 11005 bound_to 11000
  144.9613  139.3977  143.6354 LP  0  0  0  0  0  0  0  0  0  0  0  0  # atno 17320 bound_to 7965
  146.3335  139.8667  142.8847 LP  0  0  0  0  0  0  0  0  0  0  0  0  # atno 17321 bound_to 7965
  140.6854  143.7987  150.7178 LP  0  0  0  0  0  0  0  0  0  0  0  0  # atno 17342 bound_to 10162
  140.1453  143.4405  152.2167 LP  0  0  0  0  0  0  0  0  0  0  0  0  # atno 17343 bound_to 10162
  156.2269  130.6771  151.1424 LP  0  0  0  0  0  0  0  0  0  0  0  0  # atno 17370 bound_to 10713
  157.7212  131.0680  150.6126 LP  0  0  0  0  0  0  0  0  0  0  0  0  # atno 17371 bound_to 10713
  140.0278  134.9915  157.0721 LP  0  0  0  0  0  0  0  0  0  0  0  0  # atno 17394 bound_to 11000
  140.4334  134.1757  155.7169 LP  0  0  0  0  0  0  0  0  0  0  0  0  # atno 17395 bound_to 11000

$$$$
