AV-unprocessed.smi:2252|AV-procd|sdf|9109|dock4
  -GOLD-   2272012313D 1   1.00000     0.00000
 Structure written by MMmdl.
 45 47  0  0  0  0  0  0  0  0  4 V2000
  152.1019  141.4206  159.3475 C   0  0  0  0  0  0  0  0  0  0  0  0
  151.7164  142.6910  158.7279 N   0  0  0  0  0  0  0  0  0  0  0  0
  152.1500  143.9392  159.0950 C   0  0  0  0  0  0  0  0  0  0  0  0
  151.5363  144.8319  158.2563 C   0  0  0  0  0  0  0  0  0  0  0  0
  150.7542  144.0931  157.4114 N   0  3  0  0  0  0  0  0  0  0  0  0
  150.8633  142.7872  157.6915 C   0  0  0  0  0  0  0  0  0  0  0  0
  150.1511  141.6786  156.9677 C   0  0  0  0  0  0  0  0  0  0  0  0
  151.0791  140.5528  156.4723 C   0  0  0  0  0  0  0  0  0  0  0  0
  150.7615  140.2355  155.0841 N   0  5  0  0  0  0  0  0  0  0  0  0
  150.5062  138.9776  154.6311 C   0  0  0  0  0  0  0  0  0  0  0  0
  151.1926  138.2231  153.9330 O   0  0  0  0  0  0  0  0  0  0  0  0
  149.1230  138.4838  155.0952 C   0  0  2  0  0  0  0  0  0  0  0  0
  149.3135  137.2627  156.0214 C   0  0  0  0  0  0  0  0  0  0  0  0
  150.6472  136.9709  156.6741 C   0  0  0  0  0  0  0  0  0  0  0  0
  150.1388  136.0752  155.5740 C   0  0  0  0  0  0  0  0  0  0  0  0
  148.2493  138.1585  153.9341 N   0  3  0  0  0  0  0  0  0  0  0  0
  146.9685  137.4937  154.2700 C   0  0  0  0  0  0  0  0  0  0  0  0
  145.9609  137.8833  153.1779 C   0  0  0  0  0  0  0  0  0  0  0  0
  146.7260  138.8034  152.2273 C   0  0  0  0  0  0  0  0  0  0  0  0
  147.9008  139.3004  153.0622 C   0  0  0  0  0  0  0  0  0  0  0  0
  152.8152  141.6072  160.1507 H   0  0  0  0  0  0  0  0  0  0  0  0
  152.5645  140.7770  158.5987 H   0  0  0  0  0  0  0  0  0  0  0  0
  151.2163  140.9347  159.7579 H   0  0  0  0  0  0  0  0  0  0  0  0
  152.8459  144.0962  159.9066 H   0  0  0  0  0  0  0  0  0  0  0  0
  151.5954  145.9089  158.1984 H   0  0  0  0  0  0  0  0  0  0  0  0
  149.3871  141.2871  157.6398 H   0  0  0  0  0  0  0  0  0  0  0  0
  149.6284  142.1411  156.1290 H   0  0  0  0  0  0  0  0  0  0  0  0
  152.1158  140.8737  156.5772 H   0  0  0  0  0  0  0  0  0  0  0  0
  150.9654  139.6939  157.1352 H   0  0  0  0  0  0  0  0  0  0  0  0
  148.6186  139.2677  155.6661 H   0  0  0  0  0  0  0  0  0  0  0  0
  148.4289  137.0143  156.6057 H   0  0  0  0  0  0  0  0  0  0  0  0
  151.4851  137.6234  156.4377 H   0  0  0  0  0  0  0  0  0  0  0  0
  150.6338  136.5788  157.6888 H   0  0  0  0  0  0  0  0  0  0  0  0
  149.7839  135.0852  155.8528 H   0  0  0  0  0  0  0  0  0  0  0  0
  150.6350  136.1376  154.6073 H   0  0  0  0  0  0  0  0  0  0  0  0
  147.1059  136.4138  154.3334 H   0  0  0  0  0  0  0  0  0  0  0  0
  146.6013  137.8413  155.2368 H   0  0  0  0  0  0  0  0  0  0  0  0
  145.5648  137.0112  152.6564 H   0  0  0  0  0  0  0  0  0  0  0  0
  145.1167  138.4126  153.6213 H   0  0  0  0  0  0  0  0  0  0  0  0
  147.0983  138.2274  151.3790 H   0  0  0  0  0  0  0  0  0  0  0  0
  146.1120  139.6155  151.8364 H   0  0  0  0  0  0  0  0  0  0  0  0
  147.5905  140.1493  153.6740 H   0  0  0  0  0  0  0  0  0  0  0  0
  148.7387  139.6176  152.4405 H   0  0  0  0  0  0  0  0  0  0  0  0
  148.7634  137.5110  153.3542 H   0  0  0  0  0  0  0  0  0  0  0  0
  150.1770  144.4743  156.6722 H   0  0  0  0  0  0  0  0  0  0  0  0
  1  2  1  0  0  0  0
  1 21  1  0  0  0  0
  1 22  1  0  0  0  0
  1 23  1  0  0  0  0
  2  6  1  0  0  0  0
  2  3  1  0  0  0  0
  3  4  2  0  0  0  0
  3 24  1  0  0  0  0
  4  5  1  0  0  0  0
  4 25  1  0  0  0  0
  5  6  2  0  0  0  0
  5 45  1  0  0  0  0
  6  7  1  0  0  0  0
  7  8  1  0  0  0  0
  7 26  1  0  0  0  0
  7 27  1  0  0  0  0
  8  9  1  0  0  0  0
  8 28  1  0  0  0  0
  8 29  1  0  0  0  0
  9 10  1  0  0  0  0
 10 11  2  0  0  0  0
 10 12  1  0  0  0  0
 12 13  1  0  0  0  0
 12 16  1  0  0  0  0
 12 30  1  0  0  0  0
 13 15  1  0  0  0  0
 13 14  1  0  0  0  0
 13 31  1  0  0  0  0
 14 15  1  0  0  0  0
 14 32  1  0  0  0  0
 14 33  1  0  0  0  0
 15 34  1  0  0  0  0
 15 35  1  0  0  0  0
 16 20  1  0  0  0  0
 16 17  1  0  0  0  0
 16 44  1  0  0  0  0
 17 18  1  0  0  0  0
 17 36  1  0  0  0  0
 17 37  1  0  0  0  0
 18 19  1  0  0  0  0
 18 38  1  0  0  0  0
 18 39  1  0  0  0  0
 19 20  1  0  0  0  0
 19 40  1  0  0  0  0
 19 41  1  0  0  0  0
 20 42  1  0  0  0  0
 20 43  1  0  0  0  0
M  CHG  1   5   1
M  CHG  1   9  -1
M  CHG  1  16   1
M  END
> <s_m_source_file>
AV-unprocessed.smi

> <i_m_source_file_index>
2252

> <i_lp_mmshare_version>
43012

> <i_f3d_flags>
0

> <s_epik_input>
W0NIM11uMVtjSF1bY0hdbmMxW0NIMl1bQ0gyXVtOSF1DKD1PKVtDQEhdKFtDSF0yW0NIMl1bQ0gyXTIpTjNbQ0gyXVtDSDJdW0NIMl1bQ0gyXTM=

> <s_epik_cmdline>
J2VwaWtfcHl0aG9uJywgJy1waCcsICc3LjAnLCAnLXRuJywgJzgnLCAnLW1hJywgJzIwMCcsICctbWV0YWxfYmluZGluZycsICctaW1hZScsICc8aW5maWxlLm1hZT4nLCAnLW9tYWUnLCAnPG91dGZpbGUubWFlPic=

> <r_lp_tautomer_probability>
1

> <r_epik_Ionization_Penalty>
5.88052

> <r_epik_Ionization_Penalty_Charging>
5.85424

> <r_epik_Ionization_Penalty_Neutral>
0.026272

> <r_epik_State_Penalty>
5.94961

> <r_epik_Charging_Adjusted_Penalty>
11.8039

> <i_epik_Tot_Q>
1

> <i_epik_Tot_abs_Q>
3

> <r_epik_Metal_State_Penalty>
2.20001

> <b_epik_Metal_Only>
1

> <s_lp_Force_Field>
OPLS_2005

> <r_lp_Energy>
29.4432

> <b_lp_Chiralities_Consistent>
1

> <s_lp_Variant>
AV-unprocessed.smi:2252-7

> <Gold.Version>
5.8.1

> <Gold.Id.Protein>
6NUR|6NUR_protein|mol2

> <Gold.PLP.Fitness>
48.5222

> <Gold.PLP.PLP>
-35.8119

> <Gold.PLP.part.hbond>
-3.0000

> <Gold.PLP.part.metal>
0.0000

> <Gold.PLP.part.buried>
-0.8901

> <Gold.PLP.part.nonpolar>
-31.8054

> <Gold.PLP.part.repulsive>
0.3124

> <Gold.PLP.ligand.clash>
0.0000

> <Gold.PLP.ligand.torsion>
1.7889

> <Gold.PLP.Chemscore.Hbond>
5.0000

> <Gold.PLP.Chemscore.CHOScore>
0.0000

> <Gold.PLP.Chemscore.Metal>
0.0000

> <Gold.Chemscore.Hbonds>
donor molecule, donor type, donor heavy atom, donor atom, acceptor molecule, acceptor atom, score
      L1  H     5    45       P1  8028  2.00
      L1  H    16    44       P1  7948  2.00
      P1  H  7989  7998       L1     9  0.85

> <Gold.PLP.Chemscore.Internal.Correction>
1.2881

> <Gold.Rescore>
     Score         DG    S(hbond)    S(metal)    S(lipo)     H(rot)  DE(clash)    DE(int)     intcor
     15.01     -18.93       2.76        0.00      79.50       1.98       0.94       2.97       ----

> <Gold.Chemscore.Fitness>
15.0089

> <Gold.Chemscore.DG>
-18.9260

> <Gold.Chemscore.ZeroCoef>
-5.4800

> <Gold.Chemscore.Hbond>
2.7593

> <Gold.Chemscore.Metal>
0.0000

> <Gold.Chemscore.Lipo>
79.4976

> <Gold.Chemscore.Internal_Hbond>
0.0000

> <Gold.Chemscore.DEClash>
0.9429

> <Gold.Chemscore.DEInternal>
2.9742

> <Gold.Chemscore.Rot>
1.9809

> <Gold.Chemscore.Internal.Correction>
   9.000000E+99

> <Gold.Chemscore.Hbonds>
donor molecule, donor type, donor heavy atom, donor atom, acceptor molecule, acceptor atom, score
      L1  H     5    45       P1  8028  0.92
      L1  H    16    44       P1  7948  0.97
      P1  H  7989  7998       L1     9  0.14

> <Gold.Chemscore.Hbond.Weighted>
-9.2159

> <Gold.Chemscore.Metal.Weighted>
-0.0000

> <Gold.Chemscore.Lipo.Weighted>
-9.3012

> <Gold.Chemscore.Internal_Hbond.Weighted>
0.0000

> <Gold.Chemscore.DEClash.Weighted>
0.9429

> <Gold.Chemscore.DEInternal.Weighted>
2.9742

> <Gold.Chemscore.Rot.Weighted>
5.0711

> <Gold.Chemscore.Internal.Correction.Weighted>
   9.000000E+99

> <Gold.Protein.RotatedTorsions>
[ 6907 6896 6895 6894 ] final -146.07 input  -60.11 | X-H torsion
[ 7974 7965 7964 7962 ] final -172.88 input  175.53 | X-H torsion
[ 8008 7997 7996 7995 ] final  131.80 input   59.86 | X-H torsion
[ 10167 10162 10161 10158 ] final -138.49 input  -65.29 | X-H torsion
[ 10718 10713 10712 10709 ] final  150.64 input   66.30 | X-H torsion
[ 10763 10752 10751 10750 ] final  -51.38 input  -60.55 | X-H torsion
[ 11005 11000 10999 10996 ] final  -71.62 input  -57.11 | X-H torsion

> <Gold.Protein.ActiveResidues>
 VAL166  LYS551  ARG553  GLY616  TRP617  ASP618  TYR619  PRO620  LYS621  CYS622 
 ASP623  PHE694  ASN695  SER759  ASP760  ASP761  ALA762  ILE779  LEU786  VAL792 
 PHE793  MET794  SER795  GLU796  ALA797  LYS798  CYS799  TRP800  GLU811  SER814 

> <Gold.Protein.RotatedAtoms>
  151.1365  133.5000  159.2597 H   0  0  0  0  0  0  0  0  0  0  0  0  # atno 6907 bound_to 6896
  151.1701  135.0313  159.8758 H   0  0  0  0  0  0  0  0  0  0  0  0  # atno 6908 bound_to 6896
  152.5461  134.1229  159.8460 H   0  0  0  0  0  0  0  0  0  0  0  0  # atno 6909 bound_to 6896
  144.7142  140.1705  143.6368 H   0  0  0  0  0  0  0  0  0  0  0  0  # atno 7974 bound_to 7965
  156.2975  140.2562  156.2985 H   0  0  0  0  0  0  0  0  0  0  0  0  # atno 8008 bound_to 7997
  154.9440  140.0395  157.2130 H   0  0  0  0  0  0  0  0  0  0  0  0  # atno 8009 bound_to 7997
  154.8099  140.2842  155.5865 H   0  0  0  0  0  0  0  0  0  0  0  0  # atno 8010 bound_to 7997
  139.8473  143.7244  152.2660 H   0  0  0  0  0  0  0  0  0  0  0  0  # atno 10167 bound_to 10162
  157.2808  131.0835  151.1533 H   0  0  0  0  0  0  0  0  0  0  0  0  # atno 10718 bound_to 10713
  154.1256  135.6528  153.4911 H   0  0  0  0  0  0  0  0  0  0  0  0  # atno 10763 bound_to 10752
  153.0211  135.5280  154.7053 H   0  0  0  0  0  0  0  0  0  0  0  0  # atno 10764 bound_to 10752
  154.6273  135.2972  155.0228 H   0  0  0  0  0  0  0  0  0  0  0  0  # atno 10765 bound_to 10752
  141.1595  133.6823  156.6934 H   0  0  0  0  0  0  0  0  0  0  0  0  # atno 11005 bound_to 11000
  145.8948  139.2396  143.1528 LP  0  0  0  0  0  0  0  0  0  0  0  0  # atno 17320 bound_to 7965
  145.9869  140.8636  143.0086 LP  0  0  0  0  0  0  0  0  0  0  0  0  # atno 17321 bound_to 7965
  139.7500  144.7537  151.0522 LP  0  0  0  0  0  0  0  0  0  0  0  0  # atno 17342 bound_to 10162
  140.7791  143.4872  150.9941 LP  0  0  0  0  0  0  0  0  0  0  0  0  # atno 17343 bound_to 10162
  157.2967  130.6823  149.6142 LP  0  0  0  0  0  0  0  0  0  0  0  0  # atno 17370 bound_to 10713
  155.9664  130.4404  150.5299 LP  0  0  0  0  0  0  0  0  0  0  0  0  # atno 17371 bound_to 10713
  140.3013  134.8161  157.4100 LP  0  0  0  0  0  0  0  0  0  0  0  0  # atno 17394 bound_to 11000
  140.1259  134.5158  155.8145 LP  0  0  0  0  0  0  0  0  0  0  0  0  # atno 17395 bound_to 11000

$$$$
