AV-unprocessed.smi:1601|AV-procd|sdf|6434|dock6
  -GOLD-   22720 7 73D 1   1.00000     0.00000
 Structure written by MMmdl.
 41 42  0  0  0  0  0  0  0  0  1 V2000
  153.7079  141.4549  161.4459 C   0  0  0  0  0  0  0  0  0  0  0  0
  153.3604  141.8247  159.9810 C   0  0  1  0  0  0  0  0  0  0  0  0
  152.1249  140.9933  159.5388 C   0  0  0  0  0  0  0  0  0  0  0  0
  152.1503  140.6857  158.1124 N   0  0  0  0  0  0  0  0  0  0  0  0
  151.1213  140.8409  157.2656 C   0  0  0  0  0  0  0  0  0  0  0  0
  150.0225  141.2778  157.6102 O   0  0  0  0  0  0  0  0  0  0  0  0
  151.3833  140.4453  155.8045 C   0  0  1  0  0  0  0  0  0  0  0  0
  151.9346  139.0141  155.6684 C   0  0  0  0  0  0  0  0  0  0  0  0
  150.1747  140.6203  155.0099 N   0  0  0  0  0  0  0  0  0  0  0  0
  149.5046  141.7872  154.6956 C   0  0  0  0  0  0  0  0  0  0  0  0
  148.4300  141.4472  153.9251 C   0  0  0  0  0  0  0  0  0  0  0  0
  148.5251  140.0318  153.8191 C   0  0  0  0  0  0  0  0  0  0  0  0
  149.5683  139.5406  154.4681 N   0  0  0  0  0  0  0  0  0  0  0  0
  153.1883  143.2831  159.7857 N   0  0  0  0  0  0  0  0  0  0  0  0
  152.2749  143.8848  160.7646 C   0  0  0  0  0  0  0  0  0  0  0  0
  152.0712  145.3939  160.5431 C   0  0  0  0  0  0  0  0  0  0  0  0
  151.5980  145.6266  159.2239 O   0  0  0  0  0  0  0  0  0  0  0  0
  152.4945  145.1285  158.2409 C   0  0  0  0  0  0  0  0  0  0  0  0
  152.6958  143.6172  158.4443 C   0  0  0  0  0  0  0  0  0  0  0  0
  153.7700  140.3788  161.6033 H   0  0  0  0  0  0  0  0  0  0  0  0
  152.9586  141.8424  162.1369 H   0  0  0  0  0  0  0  0  0  0  0  0
  154.6795  141.8414  161.7500 H   0  0  0  0  0  0  0  0  0  0  0  0
  154.1992  141.5007  159.3626 H   0  0  0  0  0  0  0  0  0  0  0  0
  152.0666  140.0809  160.1351 H   0  0  0  0  0  0  0  0  0  0  0  0
  151.1939  141.5348  159.6965 H   0  0  0  0  0  0  0  0  0  0  0  0
  153.0175  140.3258  157.7406 H   0  0  0  0  0  0  0  0  0  0  0  0
  152.1463  141.1226  155.4148 H   0  0  0  0  0  0  0  0  0  0  0  0
  152.8470  138.8860  156.2521 H   0  0  0  0  0  0  0  0  0  0  0  0
  152.1773  138.7901  154.6294 H   0  0  0  0  0  0  0  0  0  0  0  0
  151.2155  138.2670  156.0063 H   0  0  0  0  0  0  0  0  0  0  0  0
  149.8469  142.7514  155.0422 H   0  0  0  0  0  0  0  0  0  0  0  0
  147.6892  142.1091  153.5018 H   0  0  0  0  0  0  0  0  0  0  0  0
  147.8718  139.3516  153.2926 H   0  0  0  0  0  0  0  0  0  0  0  0
  151.3082  143.3799  160.7284 H   0  0  0  0  0  0  0  0  0  0  0  0
  152.6582  143.7648  161.7758 H   0  0  0  0  0  0  0  0  0  0  0  0
  151.3452  145.7863  161.2552 H   0  0  0  0  0  0  0  0  0  0  0  0
  153.0036  145.9370  160.7047 H   0  0  0  0  0  0  0  0  0  0  0  0
  152.0828  145.3260  157.2509 H   0  0  0  0  0  0  0  0  0  0  0  0
  153.4470  145.6571  158.3028 H   0  0  0  0  0  0  0  0  0  0  0  0
  153.3993  143.2852  157.6830 H   0  0  0  0  0  0  0  0  0  0  0  0
  151.7549  143.0980  158.2552 H   0  0  0  0  0  0  0  0  0  0  0  0
  1  2  1  0  0  0  0
  1 20  1  0  0  0  0
  1 21  1  0  0  0  0
  1 22  1  0  0  0  0
  2  3  1  0  0  0  0
  2 14  1  0  0  0  0
  2 23  1  0  0  0  0
  3  4  1  0  0  0  0
  3 24  1  0  0  0  0
  3 25  1  0  0  0  0
  4  5  1  0  0  0  0
  4 26  1  0  0  0  0
  5  6  2  0  0  0  0
  5  7  1  0  0  0  0
  7  8  1  0  0  0  0
  7  9  1  0  0  0  0
  7 27  1  0  0  0  0
  8 28  1  0  0  0  0
  8 29  1  0  0  0  0
  8 30  1  0  0  0  0
  9 13  1  0  0  0  0
  9 10  1  0  0  0  0
 10 11  2  0  0  0  0
 10 31  1  0  0  0  0
 11 12  1  0  0  0  0
 11 32  1  0  0  0  0
 12 13  2  0  0  0  0
 12 33  1  0  0  0  0
 14 19  1  0  0  0  0
 14 15  1  0  0  0  0
 15 16  1  0  0  0  0
 15 34  1  0  0  0  0
 15 35  1  0  0  0  0
 16 17  1  0  0  0  0
 16 36  1  0  0  0  0
 16 37  1  0  0  0  0
 17 18  1  0  0  0  0
 18 19  1  0  0  0  0
 18 38  1  0  0  0  0
 18 39  1  0  0  0  0
 19 40  1  0  0  0  0
 19 41  1  0  0  0  0
M  END
> <s_m_source_file>
AV-unprocessed.smi

> <i_m_source_file_index>
1601

> <i_lp_mmshare_version>
43012

> <i_f3d_flags>
0

> <s_epik_input>
W0NIMl0xW0NIMl1PW0NIMl1bQ0gyXU4xW0NASF0oW0NIM10pW0NIMl1bTkhdQyg9TylbQ0BIXShbQ0gzXSluMltjSF1bY0hdW2NIXW4y

> <s_epik_cmdline>
J2VwaWtfcHl0aG9uJywgJy1waCcsICc3LjAnLCAnLXRuJywgJzgnLCAnLW1hJywgJzIwMCcsICctbWV0YWxfYmluZGluZycsICctaW1hZScsICc8aW5maWxlLm1hZT4nLCAnLW9tYWUnLCAnPG91dGZpbGUubWFlPic=

> <r_lp_tautomer_probability>
1

> <r_epik_Ionization_Penalty>
0.203323

> <r_epik_Ionization_Penalty_Charging>
0

> <r_epik_Ionization_Penalty_Neutral>
0.203323

> <r_epik_State_Penalty>
0.193192

> <r_epik_Charging_Adjusted_Penalty>
0.193192

> <i_epik_Tot_Q>
0

> <i_epik_Tot_abs_Q>
0

> <r_epik_Metal_State_Penalty>
0.193187

> <b_epik_Metal_Only>
0

> <s_lp_Force_Field>
OPLS_2005

> <r_lp_Energy>
33.1122

> <b_lp_Chiralities_Consistent>
1

> <s_lp_Variant>
AV-unprocessed.smi:1601-4

> <Gold.Version>
5.8.1

> <Gold.Id.Protein>
6NUR|6NUR_protein|mol2

> <Gold.PLP.Fitness>
45.7101

> <Gold.PLP.PLP>
-44.0509

> <Gold.PLP.part.hbond>
-1.0000

> <Gold.PLP.part.metal>
0.0000

> <Gold.PLP.part.buried>
-3.3296

> <Gold.PLP.part.nonpolar>
-39.4891

> <Gold.PLP.part.repulsive>
0.4113

> <Gold.PLP.ligand.clash>
0.0000

> <Gold.PLP.ligand.torsion>
0.7190

> <Gold.PLP.Chemscore.Hbond>
0.0000

> <Gold.PLP.Chemscore.CHOScore>
1.0000

> <Gold.PLP.Chemscore.Metal>
0.0000

> <Gold.Chemscore.Hbonds>
donor molecule, donor type, donor heavy atom, donor atom, acceptor molecule, acceptor atom, score
      L1  C    10    31       P1  8028  1.00
      L1  C    12    33       P1  7957  0.01

> <Gold.PLP.Chemscore.Internal.Correction>
0.0971

> <Gold.Rescore>
     Score         DG    S(hbond)    S(metal)    S(lipo)     H(rot)  DE(clash)    DE(int)     intcor
     11.75     -14.16       0.00        0.00     113.28       1.79       0.29       2.12       ----

> <Gold.Chemscore.Fitness>
11.7463

> <Gold.Chemscore.DG>
-14.1584

> <Gold.Chemscore.ZeroCoef>
-5.4800

> <Gold.Chemscore.Hbond>
0.0000

> <Gold.Chemscore.Metal>
0.0000

> <Gold.Chemscore.Lipo>
113.2791

> <Gold.Chemscore.Internal_Hbond>
0.0000

> <Gold.Chemscore.DEClash>
0.2941

> <Gold.Chemscore.DEInternal>
2.1181

> <Gold.Chemscore.Rot>
1.7872

> <Gold.Chemscore.Internal.Correction>
   9.000000E+99

> <Gold.Chemscore.Hbond.Weighted>
-0.0000

> <Gold.Chemscore.Metal.Weighted>
-0.0000

> <Gold.Chemscore.Lipo.Weighted>
-13.2537

> <Gold.Chemscore.Internal_Hbond.Weighted>
0.0000

> <Gold.Chemscore.DEClash.Weighted>
0.2941

> <Gold.Chemscore.DEInternal.Weighted>
2.1181

> <Gold.Chemscore.Rot.Weighted>
4.5752

> <Gold.Chemscore.Internal.Correction.Weighted>
   9.000000E+99

> <Gold.Protein.RotatedTorsions>
[ 6907 6896 6895 6894 ] final  -47.64 input  -60.11 | X-H torsion
[ 7974 7965 7964 7962 ] final   89.27 input  175.53 | X-H torsion
[ 8008 7997 7996 7995 ] final  -86.21 input   59.86 | X-H torsion
[ 10167 10162 10161 10158 ] final   98.86 input  -65.29 | X-H torsion
[ 10718 10713 10712 10709 ] final   93.28 input   66.30 | X-H torsion
[ 10763 10752 10751 10750 ] final -133.48 input  -60.55 | X-H torsion
[ 11005 11000 10999 10996 ] final   58.92 input  -57.11 | X-H torsion

> <Gold.Protein.ActiveResidues>
 VAL166  LYS551  ARG553  GLY616  TRP617  ASP618  TYR619  PRO620  LYS621  CYS622 
 ASP623  PHE694  ASN695  SER759  ASP760  ASP761  ALA762  ILE779  LEU786  VAL792 
 PHE793  MET794  SER795  GLU796  ALA797  LYS798  CYS799  TRP800  GLU811  SER814 

> <Gold.Protein.RotatedAtoms>
  150.8988  134.8398  159.7344 H   0  0  0  0  0  0  0  0  0  0  0  0  # atno 6907 bound_to 6896
  152.4880  134.4535  159.9592 H   0  0  0  0  0  0  0  0  0  0  0  0  # atno 6908 bound_to 6896
  151.4589  133.3559  159.2841 H   0  0  0  0  0  0  0  0  0  0  0  0  # atno 6909 bound_to 6896
  145.5345  139.2285  143.2600 H   0  0  0  0  0  0  0  0  0  0  0  0  # atno 7974 bound_to 7965
  154.6493  140.0581  156.9937 H   0  0  0  0  0  0  0  0  0  0  0  0  # atno 8008 bound_to 7997
  155.1396  140.3264  155.4437 H   0  0  0  0  0  0  0  0  0  0  0  0  # atno 8009 bound_to 7997
  156.2568  140.1966  156.6512 H   0  0  0  0  0  0  0  0  0  0  0  0  # atno 8010 bound_to 7997
  139.7670  144.6935  151.0210 H   0  0  0  0  0  0  0  0  0  0  0  0  # atno 10167 bound_to 10162
  157.6955  131.0473  150.4010 H   0  0  0  0  0  0  0  0  0  0  0  0  # atno 10718 bound_to 10713
  154.8732  135.3765  154.4579 H   0  0  0  0  0  0  0  0  0  0  0  0  # atno 10763 bound_to 10752
  153.5249  135.7028  153.5717 H   0  0  0  0  0  0  0  0  0  0  0  0  # atno 10764 bound_to 10752
  153.3948  135.3963  155.1913 H   0  0  0  0  0  0  0  0  0  0  0  0  # atno 10765 bound_to 10752
  140.0342  134.5968  155.9467 H   0  0  0  0  0  0  0  0  0  0  0  0  # atno 11005 bound_to 11000
  146.2022  140.6163  142.9097 LP  0  0  0  0  0  0  0  0  0  0  0  0  # atno 17320 bound_to 7965
  144.7608  140.5418  143.6736 LP  0  0  0  0  0  0  0  0  0  0  0  0  # atno 17321 bound_to 7965
  140.7811  143.4632  151.0249 LP  0  0  0  0  0  0  0  0  0  0  0  0  # atno 17342 bound_to 10162
  139.8316  143.7683  152.3180 LP  0  0  0  0  0  0  0  0  0  0  0  0  # atno 17343 bound_to 10162
  156.4404  130.3990  149.6701 LP  0  0  0  0  0  0  0  0  0  0  0  0  # atno 17370 bound_to 10713
  156.3887  130.7616  151.2615 LP  0  0  0  0  0  0  0  0  0  0  0  0  # atno 17371 bound_to 10713
  141.1848  133.6553  156.5171 LP  0  0  0  0  0  0  0  0  0  0  0  0  # atno 17394 bound_to 11000
  140.4176  134.7216  157.4871 LP  0  0  0  0  0  0  0  0  0  0  0  0  # atno 17395 bound_to 11000

$$$$
