AV-unprocessed.smi:2779|AV-procd|sdf|10712|dock7
  -GOLD-   2272015153D 1   1.00000     0.00000
 Structure written by MMmdl.
 38 39  0  0  0  0  0  0  0  0  1 V2000
  151.2757  135.4578  155.3603 O   0  0  0  0  0  0  0  0  0  0  0  0
  150.2093  136.0540  155.2119 C   0  0  0  0  0  0  0  0  0  0  0  0
  148.9075  135.4369  155.4539 C   0  0  0  0  0  0  0  0  0  0  0  0
  147.7551  136.1204  155.2867 C   0  0  0  0  0  0  0  0  0  0  0  0
  147.8015  137.5066  154.8525 C   0  0  0  0  0  0  0  0  0  0  0  0
  146.5720  138.3547  154.6388 C   0  0  0  0  0  0  0  0  0  0  0  0
  145.4609  137.6606  154.8869 F   0  0  0  0  0  0  0  0  0  0  0  0
  146.5991  139.4137  155.4484 F   0  0  0  0  0  0  0  0  0  0  0  0
  146.5280  138.7875  153.3784 F   0  0  0  0  0  0  0  0  0  0  0  0
  148.9516  138.0582  154.6341 N   0  0  0  0  0  0  0  0  0  0  0  0
  150.1321  137.3553  154.8082 N   0  0  0  0  0  0  0  0  0  0  0  0
  151.3412  138.1440  154.5452 C   0  0  0  0  0  0  0  0  0  0  0  0
  151.5110  139.2885  155.5689 C   0  0  1  0  0  0  0  0  0  0  0  0
  152.8207  139.8107  155.4675 O   0  0  0  0  0  0  0  0  0  0  0  0
  150.5436  140.4538  155.3100 C   0  0  0  0  0  0  0  0  0  0  0  0
  150.8600  141.5246  156.1847 O   0  0  0  0  0  0  0  0  0  0  0  0
  150.7100  141.1820  157.5516 C   0  0  0  0  0  0  0  0  0  0  0  0
  151.2145  142.2895  158.4536 C   0  0  0  0  0  0  0  0  0  0  0  0
  152.1289  141.9943  159.4860 C   0  0  0  0  0  0  0  0  0  0  0  0
  152.6010  143.0202  160.3277 C   0  0  0  0  0  0  0  0  0  0  0  0
  152.1625  144.3451  160.1377 C   0  0  0  0  0  0  0  0  0  0  0  0
  151.2520  144.6437  159.1055 C   0  0  0  0  0  0  0  0  0  0  0  0
  150.7783  143.6177  158.2644 C   0  0  0  0  0  0  0  0  0  0  0  0
  151.3595  138.9245  156.5861 H   0  0  0  0  0  0  0  0  0  0  0  0
  148.8683  134.4068  155.7764 H   0  0  0  0  0  0  0  0  0  0  0  0
  146.8045  135.6433  155.4729 H   0  0  0  0  0  0  0  0  0  0  0  0
  152.2372  137.5221  154.4956 H   0  0  0  0  0  0  0  0  0  0  0  0
  151.2456  138.5659  153.5431 H   0  0  0  0  0  0  0  0  0  0  0  0
  153.0045  139.9878  154.5576 H   0  0  0  0  0  0  0  0  0  0  0  0
  150.6399  140.7956  154.2778 H   0  0  0  0  0  0  0  0  0  0  0  0
  149.5101  140.1344  155.4554 H   0  0  0  0  0  0  0  0  0  0  0  0
  149.6606  140.9793  157.7722 H   0  0  0  0  0  0  0  0  0  0  0  0
  151.2657  140.2691  157.7726 H   0  0  0  0  0  0  0  0  0  0  0  0
  152.4698  140.9801  159.6343 H   0  0  0  0  0  0  0  0  0  0  0  0
  153.2997  142.7911  161.1190 H   0  0  0  0  0  0  0  0  0  0  0  0
  152.5247  145.1318  160.7831 H   0  0  0  0  0  0  0  0  0  0  0  0
  150.9170  145.6599  158.9587 H   0  0  0  0  0  0  0  0  0  0  0  0
  150.0811  143.8541  157.4739 H   0  0  0  0  0  0  0  0  0  0  0  0
  1  2  2  0  0  0  0
  2 11  1  0  0  0  0
  2  3  1  0  0  0  0
  3  4  2  0  0  0  0
  3 25  1  0  0  0  0
  4  5  1  0  0  0  0
  4 26  1  0  0  0  0
  5  6  1  0  0  0  0
  5 10  2  0  0  0  0
  6  7  1  0  0  0  0
  6  8  1  0  0  0  0
  6  9  1  0  0  0  0
 10 11  1  0  0  0  0
 11 12  1  0  0  0  0
 12 13  1  0  0  0  0
 12 27  1  0  0  0  0
 12 28  1  0  0  0  0
 13 24  1  0  0  0  0
 13 14  1  0  0  0  0
 13 15  1  0  0  0  0
 14 29  1  0  0  0  0
 15 16  1  0  0  0  0
 15 30  1  0  0  0  0
 15 31  1  0  0  0  0
 16 17  1  0  0  0  0
 17 18  1  0  0  0  0
 17 32  1  0  0  0  0
 17 33  1  0  0  0  0
 18 23  1  0  0  0  0
 18 19  2  0  0  0  0
 19 20  1  0  0  0  0
 19 34  1  0  0  0  0
 20 21  2  0  0  0  0
 20 35  1  0  0  0  0
 21 22  1  0  0  0  0
 21 36  1  0  0  0  0
 22 23  2  0  0  0  0
 22 37  1  0  0  0  0
 23 38  1  0  0  0  0
M  END
> <s_m_source_file>
AV-unprocessed.smi

> <i_m_source_file_index>
2779

> <i_lp_mmshare_version>
43012

> <i_f3d_flags>
0

> <s_epik_input>
Tz1jMVtjSF1bY0hdYyhDKEYpKEYpRilubjFbQ0gyXVtDQEhdKFtPSF0pW0NIMl1PW0NIMl1jMltjSF1bY0hdW2NIXVtjSF1bY0hdMg==

> <s_epik_cmdline>
J2VwaWtfcHl0aG9uJywgJy1waCcsICc3LjAnLCAnLXRuJywgJzgnLCAnLW1hJywgJzIwMCcsICctbWV0YWxfYmluZGluZycsICctaW1hZScsICc8aW5maWxlLm1hZT4nLCAnLW9tYWUnLCAnPG91dGZpbGUubWFlPic=

> <r_lp_tautomer_probability>
1

> <r_epik_Ionization_Penalty>
6.7226e-08

> <r_epik_Ionization_Penalty_Charging>
6.11342e-09

> <r_epik_Ionization_Penalty_Neutral>
6.11126e-08

> <r_epik_State_Penalty>
-0

> <r_epik_Charging_Adjusted_Penalty>
6.11342e-09

> <i_epik_Tot_Q>
0

> <i_epik_Tot_abs_Q>
0

> <r_epik_Metal_State_Penalty>
-0

> <b_epik_Metal_Only>
0

> <s_lp_Force_Field>
OPLS_2005

> <r_lp_Energy>
32.3095

> <b_lp_Chiralities_Consistent>
1

> <s_lp_Variant>
AV-unprocessed.smi:2779-2

> <Gold.Version>
5.8.1

> <Gold.Id.Protein>
6NUR|6NUR_protein|mol2

> <Gold.PLP.Fitness>
44.2426

> <Gold.PLP.PLP>
-38.6198

> <Gold.PLP.part.hbond>
-1.8864

> <Gold.PLP.part.metal>
0.0000

> <Gold.PLP.part.buried>
-1.8233

> <Gold.PLP.part.nonpolar>
-34.6270

> <Gold.PLP.part.repulsive>
0.3435

> <Gold.PLP.ligand.clash>
0.0000

> <Gold.PLP.ligand.torsion>
0.2532

> <Gold.PLP.Chemscore.Hbond>
1.9920

> <Gold.PLP.Chemscore.CHOScore>
0.0000

> <Gold.PLP.Chemscore.Metal>
0.0000

> <Gold.Chemscore.Hbonds>
donor molecule, donor type, donor heavy atom, donor atom, acceptor molecule, acceptor atom, score
      P1  H  7997  8009       L1    14  0.94
      P1  H 10752 10764       L1     1  1.00

> <Gold.PLP.Chemscore.Internal.Correction>
0.1532

> <Gold.Rescore>
     Score         DG    S(hbond)    S(metal)    S(lipo)     H(rot)  DE(clash)    DE(int)     intcor
     13.48     -15.76       1.65        0.00     102.11       2.80       1.40       0.88       ----

> <Gold.Chemscore.Fitness>
13.4837

> <Gold.Chemscore.DG>
-15.7599

> <Gold.Chemscore.ZeroCoef>
-5.4800

> <Gold.Chemscore.Hbond>
1.6488

> <Gold.Chemscore.Metal>
0.0000

> <Gold.Chemscore.Lipo>
102.1063

> <Gold.Chemscore.Internal_Hbond>
0.0000

> <Gold.Chemscore.DEClash>
1.3951

> <Gold.Chemscore.DEInternal>
0.8811

> <Gold.Chemscore.Rot>
2.8022

> <Gold.Chemscore.Internal.Correction>
   9.000000E+99

> <Gold.Chemscore.Hbonds>
donor molecule, donor type, donor heavy atom, donor atom, acceptor molecule, acceptor atom, score
      P1  H  7997  8009       L1    14  0.55
      P1  H 10752 10764       L1     1  0.94

> <Gold.Chemscore.Hbond.Weighted>
-5.5071

> <Gold.Chemscore.Metal.Weighted>
-0.0000

> <Gold.Chemscore.Lipo.Weighted>
-11.9464

> <Gold.Chemscore.Internal_Hbond.Weighted>
0.0000

> <Gold.Chemscore.DEClash.Weighted>
1.3951

> <Gold.Chemscore.DEInternal.Weighted>
0.8811

> <Gold.Chemscore.Rot.Weighted>
7.1736

> <Gold.Chemscore.Internal.Correction.Weighted>
   9.000000E+99

> <Gold.Protein.RotatedTorsions>
[ 6907 6896 6895 6894 ] final   73.44 input  -60.11 | X-H torsion
[ 7974 7965 7964 7962 ] final  -91.25 input  175.53 | X-H torsion
[ 8008 7997 7996 7995 ] final -167.63 input   59.86 | X-H torsion
[ 10167 10162 10161 10158 ] final  112.91 input  -65.29 | X-H torsion
[ 10718 10713 10712 10709 ] final  -36.52 input   66.30 | X-H torsion
[ 10763 10752 10751 10750 ] final  -36.44 input  -60.55 | X-H torsion
[ 11005 11000 10999 10996 ] final   16.14 input  -57.11 | X-H torsion

> <Gold.Protein.ActiveResidues>
 VAL166  LYS551  ARG553  GLY616  TRP617  ASP618  TYR619  PRO620  LYS621  CYS622 
 ASP623  PHE694  ASN695  SER759  ASP760  ASP761  ALA762  ILE779  LEU786  VAL792 
 PHE793  MET794  SER795  GLU796  ALA797  LYS798  CYS799  TRP800  GLU811  SER814 

> <Gold.Protein.RotatedAtoms>
  152.4923  134.4422  159.9546 H   0  0  0  0  0  0  0  0  0  0  0  0  # atno 6907 bound_to 6896
  151.4407  133.3638  159.2789 H   0  0  0  0  0  0  0  0  0  0  0  0  # atno 6908 bound_to 6896
  150.9090  134.8529  159.7472 H   0  0  0  0  0  0  0  0  0  0  0  0  # atno 6909 bound_to 6896
  145.4157  140.9548  143.2209 H   0  0  0  0  0  0  0  0  0  0  0  0  # atno 7974 bound_to 7965
  155.8803  140.1008  157.1489 H   0  0  0  0  0  0  0  0  0  0  0  0  # atno 8008 bound_to 7997
  154.4004  140.1330  156.4252 H   0  0  0  0  0  0  0  0  0  0  0  0  # atno 8009 bound_to 7997
  155.7650  140.3462  155.5220 H   0  0  0  0  0  0  0  0  0  0  0  0  # atno 8010 bound_to 7997
  139.6501  144.7128  151.2066 H   0  0  0  0  0  0  0  0  0  0  0  0  # atno 10167 bound_to 10162
  156.3259  130.4272  149.7917 H   0  0  0  0  0  0  0  0  0  0  0  0  # atno 10718 bound_to 10713
  153.8797  135.6823  153.4768 H   0  0  0  0  0  0  0  0  0  0  0  0  # atno 10763 bound_to 10752
  153.1240  135.4727  154.9240 H   0  0  0  0  0  0  0  0  0  0  0  0  # atno 10764 bound_to 10752
  154.7674  135.3228  154.8209 H   0  0  0  0  0  0  0  0  0  0  0  0  # atno 10765 bound_to 10752
  140.4505  134.1229  155.7702 H   0  0  0  0  0  0  0  0  0  0  0  0  # atno 11005 bound_to 11000
  144.8279  139.5678  143.6957 LP  0  0  0  0  0  0  0  0  0  0  0  0  # atno 17320 bound_to 7965
  146.2682  139.6571  142.9314 LP  0  0  0  0  0  0  0  0  0  0  0  0  # atno 17321 bound_to 7965
  140.7533  143.6165  150.8554 LP  0  0  0  0  0  0  0  0  0  0  0  0  # atno 17342 bound_to 10162
  139.9812  143.5949  152.2942 LP  0  0  0  0  0  0  0  0  0  0  0  0  # atno 17343 bound_to 10162
  156.5207  130.8214  151.3202 LP  0  0  0  0  0  0  0  0  0  0  0  0  # atno 17370 bound_to 10713
  157.7421  130.9883  150.2493 LP  0  0  0  0  0  0  0  0  0  0  0  0  # atno 17371 bound_to 10713
  141.1666  133.8690  157.1696 LP  0  0  0  0  0  0  0  0  0  0  0  0  # atno 17394 bound_to 11000
  140.0010  135.0028  157.0190 LP  0  0  0  0  0  0  0  0  0  0  0  0  # atno 17395 bound_to 11000

$$$$
