AV-unprocessed.smi:2627|AV-procd|sdf|10240|dock9
  -GOLD-   2272014253D 1   1.00000     0.00000
 Structure written by MMmdl.
 39 41  0  0  0  0  0  0  0  0  1 V2000
  153.1139  138.7218  154.6620 C   0  0  0  0  0  0  0  0  0  0  0  0
  151.7534  139.0203  155.3079 C   0  0  1  0  0  0  0  0  0  0  0  0
  151.1606  137.7980  155.6934 O   0  0  0  0  0  0  0  0  0  0  0  0
  151.8755  139.9715  156.4674 C   0  0  0  0  0  0  0  0  0  0  0  0
  152.6687  139.6935  157.5053 N   0  0  0  0  0  0  0  0  0  0  0  0
  152.5059  140.7931  158.3226 C   0  0  0  0  0  0  0  0  0  0  0  0
  153.0908  141.1038  159.5710 C   0  0  0  0  0  0  0  0  0  0  0  0
  152.7684  142.3079  160.2303 C   0  0  0  0  0  0  0  0  0  0  0  0
  151.8582  143.2160  159.6518 C   0  0  0  0  0  0  0  0  0  0  0  0
  151.2630  142.9241  158.4096 C   0  0  0  0  0  0  0  0  0  0  0  0
  151.5884  141.7205  157.7551 C   0  0  0  0  0  0  0  0  0  0  0  0
  151.1870  141.1419  156.5542 N   0  0  0  0  0  0  0  0  0  0  0  0
  150.2207  141.7190  155.6282 C   0  0  0  0  0  0  0  0  0  0  0  0
  149.2290  140.6787  155.0888 C   0  0  0  0  0  0  0  0  0  0  0  0
  148.3242  141.2937  154.1818 O   0  0  0  0  0  0  0  0  0  0  0  0
  147.2612  142.0018  154.7009 C   0  0  0  0  0  0  0  0  0  0  0  0
  146.4536  142.7097  153.7863 C   0  0  0  0  0  0  0  0  0  0  0  0
  145.3479  143.4604  154.2301 C   0  0  0  0  0  0  0  0  0  0  0  0
  145.0361  143.5098  155.6012 C   0  0  0  0  0  0  0  0  0  0  0  0
  145.8319  142.8074  156.5252 C   0  0  0  0  0  0  0  0  0  0  0  0
  146.9390  142.0579  156.0811 C   0  0  0  0  0  0  0  0  0  0  0  0
  153.6032  139.6405  154.3398 H   0  0  0  0  0  0  0  0  0  0  0  0
  153.0019  138.0812  153.7870 H   0  0  0  0  0  0  0  0  0  0  0  0
  153.7862  138.2193  155.3582 H   0  0  0  0  0  0  0  0  0  0  0  0
  151.1134  139.4448  154.5381 H   0  0  0  0  0  0  0  0  0  0  0  0
  151.0014  137.8280  156.6246 H   0  0  0  0  0  0  0  0  0  0  0  0
  153.7896  140.4145  160.0218 H   0  0  0  0  0  0  0  0  0  0  0  0
  153.2218  142.5359  161.1837 H   0  0  0  0  0  0  0  0  0  0  0  0
  151.6169  144.1366  160.1627 H   0  0  0  0  0  0  0  0  0  0  0  0
  150.5658  143.6185  157.9652 H   0  0  0  0  0  0  0  0  0  0  0  0
  149.7018  142.5527  156.0990 H   0  0  0  0  0  0  0  0  0  0  0  0
  150.7702  142.1558  154.7939 H   0  0  0  0  0  0  0  0  0  0  0  0
  149.7829  139.8875  154.5812 H   0  0  0  0  0  0  0  0  0  0  0  0
  148.6854  140.2280  155.9207 H   0  0  0  0  0  0  0  0  0  0  0  0
  146.6807  142.6748  152.7311 H   0  0  0  0  0  0  0  0  0  0  0  0
  144.7383  143.9969  153.5179 H   0  0  0  0  0  0  0  0  0  0  0  0
  144.1879  144.0843  155.9434 H   0  0  0  0  0  0  0  0  0  0  0  0
  145.5932  142.8439  157.5779 H   0  0  0  0  0  0  0  0  0  0  0  0
  147.5261  141.5353  156.8209 H   0  0  0  0  0  0  0  0  0  0  0  0
  1  2  1  0  0  0  0
  1 22  1  0  0  0  0
  1 23  1  0  0  0  0
  1 24  1  0  0  0  0
  2  3  1  0  0  0  0
  2  4  1  0  0  0  0
  2 25  1  0  0  0  0
  3 26  1  0  0  0  0
  4 12  1  0  0  0  0
  4  5  2  0  0  0  0
  5  6  1  0  0  0  0
  6 11  2  0  0  0  0
  6  7  1  0  0  0  0
  7  8  2  0  0  0  0
  7 27  1  0  0  0  0
  8  9  1  0  0  0  0
  8 28  1  0  0  0  0
  9 10  2  0  0  0  0
  9 29  1  0  0  0  0
 10 11  1  0  0  0  0
 10 30  1  0  0  0  0
 11 12  1  0  0  0  0
 12 13  1  0  0  0  0
 13 14  1  0  0  0  0
 13 31  1  0  0  0  0
 13 32  1  0  0  0  0
 14 15  1  0  0  0  0
 14 33  1  0  0  0  0
 14 34  1  0  0  0  0
 15 16  1  0  0  0  0
 16 21  1  0  0  0  0
 16 17  2  0  0  0  0
 17 18  1  0  0  0  0
 17 35  1  0  0  0  0
 18 19  2  0  0  0  0
 18 36  1  0  0  0  0
 19 20  1  0  0  0  0
 19 37  1  0  0  0  0
 20 21  2  0  0  0  0
 20 38  1  0  0  0  0
 21 39  1  0  0  0  0
M  END
> <s_m_source_file>
AV-unprocessed.smi

> <i_m_source_file_index>
2627

> <i_lp_mmshare_version>
43012

> <i_f3d_flags>
0

> <s_epik_input>
W2NIXTFbY0hdW2NIXVtjSF1jKGMxMiluKGMobjIpW0NASF0oW0NIM10pW09IXSlbQ0gyXVtDSDJdT2MzW2NIXVtjSF1bY0hdW2NIXVtjSF0z

> <s_epik_cmdline>
J2VwaWtfcHl0aG9uJywgJy1waCcsICc3LjAnLCAnLXRuJywgJzgnLCAnLW1hJywgJzIwMCcsICctbWV0YWxfYmluZGluZycsICctaW1hZScsICc8aW5maWxlLm1hZT4nLCAnLW9tYWUnLCAnPG91dGZpbGUubWFlPic=

> <r_lp_tautomer_probability>
1

> <r_epik_Ionization_Penalty>
0.0472514

> <r_epik_Ionization_Penalty_Charging>
0

> <r_epik_Ionization_Penalty_Neutral>
0.0472514

> <r_epik_State_Penalty>
0.040225

> <r_epik_Charging_Adjusted_Penalty>
0.040225

> <i_epik_Tot_Q>
0

> <i_epik_Tot_abs_Q>
0

> <r_epik_Metal_State_Penalty>
4.16204e-05

> <b_epik_Metal_Only>
0

> <s_lp_Force_Field>
OPLS_2005

> <r_lp_Energy>
14.021

> <b_lp_Chiralities_Consistent>
1

> <s_lp_Variant>
AV-unprocessed.smi:2627-2

> <Gold.Version>
5.8.1

> <Gold.Id.Protein>
6NUR|6NUR_protein|mol2

> <Gold.PLP.Fitness>
48.5682

> <Gold.PLP.PLP>
-46.3126

> <Gold.PLP.part.hbond>
-1.0000

> <Gold.PLP.part.metal>
0.0000

> <Gold.PLP.part.buried>
-6.4830

> <Gold.PLP.part.nonpolar>
-39.0197

> <Gold.PLP.part.repulsive>
0.1439

> <Gold.PLP.ligand.clash>
0.0000

> <Gold.PLP.ligand.torsion>
0.4026

> <Gold.PLP.Chemscore.Hbond>
1.0000

> <Gold.PLP.Chemscore.CHOScore>
0.0000

> <Gold.PLP.Chemscore.Metal>
0.0000

> <Gold.Chemscore.Hbonds>
donor molecule, donor type, donor heavy atom, donor atom, acceptor molecule, acceptor atom, score
      P1  H  7997  8010       L1     5  0.95

> <Gold.PLP.Chemscore.Internal.Correction>
0.0610

> <Gold.Rescore>
     Score         DG    S(hbond)    S(metal)    S(lipo)     H(rot)  DE(clash)    DE(int)     intcor
     15.26     -15.63       0.48        0.00     117.98       2.06       0.19       0.19       ----

> <Gold.Chemscore.Fitness>
15.2564

> <Gold.Chemscore.DG>
-15.6293

> <Gold.Chemscore.ZeroCoef>
-5.4800

> <Gold.Chemscore.Hbond>
0.4829

> <Gold.Chemscore.Metal>
0.0000

> <Gold.Chemscore.Lipo>
117.9847

> <Gold.Chemscore.Internal_Hbond>
0.0000

> <Gold.Chemscore.DEClash>
0.1854

> <Gold.Chemscore.DEInternal>
0.1875

> <Gold.Chemscore.Rot>
2.0577

> <Gold.Chemscore.Internal.Correction>
   9.000000E+99

> <Gold.Chemscore.Hbonds>
donor molecule, donor type, donor heavy atom, donor atom, acceptor molecule, acceptor atom, score
      P1  H  7997  8010       L1     5  0.10

> <Gold.Chemscore.Hbond.Weighted>
-1.6129

> <Gold.Chemscore.Metal.Weighted>
-0.0000

> <Gold.Chemscore.Lipo.Weighted>
-13.8042

> <Gold.Chemscore.Internal_Hbond.Weighted>
0.0000

> <Gold.Chemscore.DEClash.Weighted>
0.1854

> <Gold.Chemscore.DEInternal.Weighted>
0.1875

> <Gold.Chemscore.Rot.Weighted>
5.2678

> <Gold.Chemscore.Internal.Correction.Weighted>
   9.000000E+99

> <Gold.Protein.RotatedTorsions>
[ 6907 6896 6895 6894 ] final   66.80 input  -60.11 | X-H torsion
[ 7974 7965 7964 7962 ] final   73.68 input  175.53 | X-H torsion
[ 8008 7997 7996 7995 ] final   47.81 input   59.86 | X-H torsion
[ 10167 10162 10161 10158 ] final -154.42 input  -65.29 | X-H torsion
[ 10718 10713 10712 10709 ] final -125.97 input   66.30 | X-H torsion
[ 10763 10752 10751 10750 ] final  165.96 input  -60.55 | X-H torsion
[ 11005 11000 10999 10996 ] final  100.19 input  -57.11 | X-H torsion

> <Gold.Protein.ActiveResidues>
 VAL166  LYS551  ARG553  GLY616  TRP617  ASP618  TYR619  PRO620  LYS621  CYS622 
 ASP623  PHE694  ASN695  SER759  ASP760  ASP761  ALA762  ILE779  LEU786  VAL792 
 PHE793  MET794  SER795  GLU796  ALA797  LYS798  CYS799  TRP800  GLU811  SER814 

> <Gold.Protein.RotatedAtoms>
  152.4507  134.5400  159.9835 H   0  0  0  0  0  0  0  0  0  0  0  0  # atno 6907 bound_to 6896
  151.5473  133.3417  159.2954 H   0  0  0  0  0  0  0  0  0  0  0  0  # atno 6908 bound_to 6896
  150.8435  134.7767  159.7015 H   0  0  0  0  0  0  0  0  0  0  0  0  # atno 6909 bound_to 6896
  145.7378  139.2709  143.1504 H   0  0  0  0  0  0  0  0  0  0  0  0  # atno 7974 bound_to 7965
  155.3753  140.3426  155.4244 H   0  0  0  0  0  0  0  0  0  0  0  0  # atno 8008 bound_to 7997
  156.1640  140.1610  156.8597 H   0  0  0  0  0  0  0  0  0  0  0  0  # atno 8009 bound_to 7997
  154.5167  140.0776  156.8077 H   0  0  0  0  0  0  0  0  0  0  0  0  # atno 8010 bound_to 7997
  139.7015  143.9256  152.2430 H   0  0  0  0  0  0  0  0  0  0  0  0  # atno 10167 bound_to 10162
  156.1723  130.6676  151.0196 H   0  0  0  0  0  0  0  0  0  0  0  0  # atno 10718 bound_to 10713
  154.3318  135.2754  155.2468 H   0  0  0  0  0  0  0  0  0  0  0  0  # atno 10763 bound_to 10752
  154.4777  135.5866  153.6370 H   0  0  0  0  0  0  0  0  0  0  0  0  # atno 10764 bound_to 10752
  152.9866  135.6103  154.3511 H   0  0  0  0  0  0  0  0  0  0  0  0  # atno 10765 bound_to 10752
  139.8771  134.9129  156.4718 H   0  0  0  0  0  0  0  0  0  0  0  0  # atno 11005 bound_to 11000
  146.0476  140.8102  142.9797 LP  0  0  0  0  0  0  0  0  0  0  0  0  # atno 17320 bound_to 7965
  144.6877  140.3005  143.7264 LP  0  0  0  0  0  0  0  0  0  0  0  0  # atno 17321 bound_to 7965
  139.9099  144.6862  150.8573 LP  0  0  0  0  0  0  0  0  0  0  0  0  # atno 17342 bound_to 10162
  140.7710  143.3451  151.2128 LP  0  0  0  0  0  0  0  0  0  0  0  0  # atno 17343 bound_to 10162
  157.6811  131.0837  150.7366 LP  0  0  0  0  0  0  0  0  0  0  0  0  # atno 17370 bound_to 10713
  156.7425  130.4743  149.5474 LP  0  0  0  0  0  0  0  0  0  0  0  0  # atno 17371 bound_to 10713
  140.8790  133.7932  155.9446 LP  0  0  0  0  0  0  0  0  0  0  0  0  # atno 17394 bound_to 11000
  140.8874  134.2537  157.5113 LP  0  0  0  0  0  0  0  0  0  0  0  0  # atno 17395 bound_to 11000

$$$$
