AV-unprocessed.smi:2371|AV-procd|sdf|9436|dock8
  -GOLD-   2272013 63D 1   1.00000     0.00000
 Structure written by MMmdl.
 35 36  0  0  0  0  0  0  0  0  1 V2000
  154.9298  140.3209  161.2887 C   0  0  0  0  0  0  0  0  0  0  0  0
  153.8941  141.2610  160.8527 N   0  0  0  0  0  0  0  0  0  0  0  0
  153.5582  142.3092  161.7261 C   0  0  0  0  0  0  0  0  0  0  0  0
  152.6217  143.2147  161.4108 C   0  0  0  0  0  0  0  0  0  0  0  0
  151.9531  143.0952  160.1374 C   0  0  0  0  0  0  0  0  0  0  0  0
  152.2675  142.0954  159.2755 C   0  0  0  0  0  0  0  0  0  0  0  0
  151.6610  141.9023  158.0223 N   0  0  0  0  0  0  0  0  0  0  0  0
  151.2624  140.7583  157.4361 C   0  0  0  0  0  0  0  0  0  0  0  0
  151.3386  139.6327  157.9278 O   0  0  0  0  0  0  0  0  0  0  0  0
  150.7336  141.0002  156.2285 N   0  0  0  0  0  0  0  0  0  0  0  0
  150.1744  139.9945  155.3307 C   0  0  0  0  0  0  0  0  0  0  0  0
  149.1442  140.6020  154.3630 C   0  0  2  0  0  0  0  0  0  0  0  0
  148.2221  141.6585  154.9732 C   0  0  0  0  0  0  0  0  0  0  0  0
  147.0260  141.5849  154.0529 C   0  0  0  0  0  0  0  0  0  0  0  0
  146.9363  140.0861  153.7812 C   0  0  0  0  0  0  0  0  0  0  0  0
  148.2688  139.5878  153.8760 O   0  0  0  0  0  0  0  0  0  0  0  0
  153.2912  141.0955  159.6377 C   0  0  0  0  0  0  0  0  0  0  0  0
  153.5975  140.1588  158.8960 O   0  0  0  0  0  0  0  0  0  0  0  0
  155.3657  140.5912  162.2511 H   0  0  0  0  0  0  0  0  0  0  0  0
  155.7450  140.2827  160.5647 H   0  0  0  0  0  0  0  0  0  0  0  0
  154.5156  139.3166  161.3882 H   0  0  0  0  0  0  0  0  0  0  0  0
  154.1026  142.3302  162.6589 H   0  0  0  0  0  0  0  0  0  0  0  0
  152.3735  144.0148  162.0924 H   0  0  0  0  0  0  0  0  0  0  0  0
  151.1881  143.8207  159.9133 H   0  0  0  0  0  0  0  0  0  0  0  0
  151.4644  142.7548  157.5177 H   0  0  0  0  0  0  0  0  0  0  0  0
  150.7066  141.9568  155.9067 H   0  0  0  0  0  0  0  0  0  0  0  0
  150.9993  139.5682  154.7595 H   0  0  0  0  0  0  0  0  0  0  0  0
  149.7336  139.1673  155.8898 H   0  0  0  0  0  0  0  0  0  0  0  0
  149.6545  141.0301  153.4986 H   0  0  0  0  0  0  0  0  0  0  0  0
  147.9290  141.3768  155.9857 H   0  0  0  0  0  0  0  0  0  0  0  0
  148.6742  142.6499  155.0101 H   0  0  0  0  0  0  0  0  0  0  0  0
  146.1169  141.9949  154.4937 H   0  0  0  0  0  0  0  0  0  0  0  0
  147.2322  142.1244  153.1274 H   0  0  0  0  0  0  0  0  0  0  0  0
  146.3304  139.5962  154.5443 H   0  0  0  0  0  0  0  0  0  0  0  0
  146.4968  139.8665  152.8080 H   0  0  0  0  0  0  0  0  0  0  0  0
  1  2  1  0  0  0  0
  1 19  1  0  0  0  0
  1 20  1  0  0  0  0
  1 21  1  0  0  0  0
  2 17  1  0  0  0  0
  2  3  1  0  0  0  0
  3  4  2  0  0  0  0
  3 22  1  0  0  0  0
  4  5  1  0  0  0  0
  4 23  1  0  0  0  0
  5  6  2  0  0  0  0
  5 24  1  0  0  0  0
  6  7  1  0  0  0  0
  6 17  1  0  0  0  0
  7  8  1  0  0  0  0
  7 25  1  0  0  0  0
  8  9  2  0  0  0  0
  8 10  1  0  0  0  0
 10 11  1  0  0  0  0
 10 26  1  0  0  0  0
 11 12  1  0  0  0  0
 11 27  1  0  0  0  0
 11 28  1  0  0  0  0
 12 16  1  0  0  0  0
 12 13  1  0  0  0  0
 12 29  1  0  0  0  0
 13 14  1  0  0  0  0
 13 30  1  0  0  0  0
 13 31  1  0  0  0  0
 14 15  1  0  0  0  0
 14 32  1  0  0  0  0
 14 33  1  0  0  0  0
 15 16  1  0  0  0  0
 15 34  1  0  0  0  0
 15 35  1  0  0  0  0
 17 18  2  0  0  0  0
M  END
> <s_m_source_file>
AV-unprocessed.smi

> <i_m_source_file_index>
2371

> <i_lp_mmshare_version>
43012

> <i_f3d_flags>
0

> <s_epik_input>
W0NIM11uMVtjSF1bY0hdW2NIXWMoYzE9TylbTkhdQyg9TylbTkhdW0NIMl1bQ0BASF0yW0NIMl1bQ0gyXVtDSDJdTzI=

> <s_epik_cmdline>
J2VwaWtfcHl0aG9uJywgJy1waCcsICc3LjAnLCAnLXRuJywgJzgnLCAnLW1hJywgJzIwMCcsICctbWV0YWxfYmluZGluZycsICctaW1hZScsICc8aW5maWxlLm1hZT4nLCAnLW9tYWUnLCAnPG91dGZpbGUubWFlPic=

> <r_lp_tautomer_probability>
1

> <r_epik_Ionization_Penalty>
2.36512e-05

> <r_epik_Ionization_Penalty_Charging>
4.84074e-06

> <r_epik_Ionization_Penalty_Neutral>
1.88105e-05

> <r_epik_State_Penalty>
-0

> <r_epik_Charging_Adjusted_Penalty>
4.84074e-06

> <i_epik_Tot_Q>
0

> <i_epik_Tot_abs_Q>
0

> <r_epik_Metal_State_Penalty>
-0

> <b_epik_Metal_Only>
0

> <s_lp_Force_Field>
OPLS_2005

> <r_lp_Energy>
29.8245

> <b_lp_Chiralities_Consistent>
1

> <s_lp_Variant>
AV-unprocessed.smi:2371-1

> <Gold.Version>
5.8.1

> <Gold.Id.Protein>
6NUR|6NUR_protein|mol2

> <Gold.PLP.Fitness>
39.4316

> <Gold.PLP.PLP>
-38.0866

> <Gold.PLP.part.hbond>
-1.0000

> <Gold.PLP.part.metal>
0.0000

> <Gold.PLP.part.buried>
-4.1772

> <Gold.PLP.part.nonpolar>
-33.7717

> <Gold.PLP.part.repulsive>
1.4017

> <Gold.PLP.ligand.clash>
0.0000

> <Gold.PLP.ligand.torsion>
0.7088

> <Gold.PLP.Chemscore.Hbond>
0.9204

> <Gold.PLP.Chemscore.CHOScore>
0.0000

> <Gold.PLP.Chemscore.Metal>
0.0000

> <Gold.Chemscore.Hbonds>
donor molecule, donor type, donor heavy atom, donor atom, acceptor molecule, acceptor atom, score
      P1  H  7997  8010       L1    18  0.86

> <Gold.PLP.Chemscore.Internal.Correction>
0.0014

> <Gold.Rescore>
     Score         DG    S(hbond)    S(metal)    S(lipo)     H(rot)  DE(clash)    DE(int)     intcor
     11.57     -15.17       0.95        0.00      82.90       1.25       0.08       3.52       ----

> <Gold.Chemscore.Fitness>
11.5714

> <Gold.Chemscore.DG>
-15.1704

> <Gold.Chemscore.ZeroCoef>
-5.4800

> <Gold.Chemscore.Hbond>
0.9537

> <Gold.Chemscore.Metal>
0.0000

> <Gold.Chemscore.Lipo>
82.9011

> <Gold.Chemscore.Internal_Hbond>
0.0000

> <Gold.Chemscore.DEClash>
0.0826

> <Gold.Chemscore.DEInternal>
3.5165

> <Gold.Chemscore.Rot>
1.2478

> <Gold.Chemscore.Internal.Correction>
   9.000000E+99

> <Gold.Chemscore.Hbonds>
donor molecule, donor type, donor heavy atom, donor atom, acceptor molecule, acceptor atom, score
      P1  H  7997  8010       L1    18  0.79

> <Gold.Chemscore.Hbond.Weighted>
-3.1854

> <Gold.Chemscore.Metal.Weighted>
-0.0000

> <Gold.Chemscore.Lipo.Weighted>
-9.6994

> <Gold.Chemscore.Internal_Hbond.Weighted>
0.0000

> <Gold.Chemscore.DEClash.Weighted>
0.0826

> <Gold.Chemscore.DEInternal.Weighted>
3.5165

> <Gold.Chemscore.Rot.Weighted>
3.1944

> <Gold.Chemscore.Internal.Correction.Weighted>
   9.000000E+99

> <Gold.Protein.RotatedTorsions>
[ 6907 6896 6895 6894 ] final  -45.65 input  -60.11 | X-H torsion
[ 7974 7965 7964 7962 ] final  161.02 input  175.53 | X-H torsion
[ 8008 7997 7996 7995 ] final   21.36 input   59.86 | X-H torsion
[ 10167 10162 10161 10158 ] final    4.35 input  -65.29 | X-H torsion
[ 10718 10713 10712 10709 ] final  -62.47 input   66.30 | X-H torsion
[ 10763 10752 10751 10750 ] final   67.81 input  -60.55 | X-H torsion
[ 11005 11000 10999 10996 ] final  141.08 input  -57.11 | X-H torsion

> <Gold.Protein.ActiveResidues>
 VAL166  LYS551  ARG553  GLY616  TRP617  ASP618  TYR619  PRO620  LYS621  CYS622 
 ASP623  PHE694  ASN695  SER759  ASP760  ASP761  ALA762  ILE779  LEU786  VAL792 
 PHE793  MET794  SER795  GLU796  ALA797  LYS798  CYS799  TRP800  GLU811  SER814 

> <Gold.Protein.RotatedAtoms>
  150.9197  134.8614  159.7480 H   0  0  0  0  0  0  0  0  0  0  0  0  # atno 6907 bound_to 6896
  152.4986  134.4237  159.9499 H   0  0  0  0  0  0  0  0  0  0  0  0  # atno 6908 bound_to 6896
  151.4272  133.3641  159.2799 H   0  0  0  0  0  0  0  0  0  0  0  0  # atno 6909 bound_to 6896
  144.7707  139.7839  143.6298 H   0  0  0  0  0  0  0  0  0  0  0  0  # atno 7974 bound_to 7965
  154.9494  140.3063  155.5082 H   0  0  0  0  0  0  0  0  0  0  0  0  # atno 8008 bound_to 7997
  156.2988  140.2321  156.4508 H   0  0  0  0  0  0  0  0  0  0  0  0  # atno 8009 bound_to 7997
  154.8069  140.0431  157.1303 H   0  0  0  0  0  0  0  0  0  0  0  0  # atno 8010 bound_to 7997
  140.6539  143.7476  150.7621 H   0  0  0  0  0  0  0  0  0  0  0  0  # atno 10167 bound_to 10162
  156.0853  130.4209  150.1139 H   0  0  0  0  0  0  0  0  0  0  0  0  # atno 10718 bound_to 10713
  153.0204  135.5270  154.7037 H   0  0  0  0  0  0  0  0  0  0  0  0  # atno 10763 bound_to 10752
  154.6139  135.2881  155.0404 H   0  0  0  0  0  0  0  0  0  0  0  0  # atno 10764 bound_to 10752
  154.1416  135.6577  153.4996 H   0  0  0  0  0  0  0  0  0  0  0  0  # atno 10765 bound_to 10752
  140.0375  134.9322  157.0780 H   0  0  0  0  0  0  0  0  0  0  0  0  # atno 11005 bound_to 11000
  146.1851  139.5062  142.9841 LP  0  0  0  0  0  0  0  0  0  0  0  0  # atno 17320 bound_to 7965
  145.6333  141.0299  143.1851 LP  0  0  0  0  0  0  0  0  0  0  0  0  # atno 17321 bound_to 7965
  140.1132  143.4680  152.2358 LP  0  0  0  0  0  0  0  0  0  0  0  0  # atno 17342 bound_to 10162
  139.5758  144.7487  151.3768 LP  0  0  0  0  0  0  0  0  0  0  0  0  # atno 17343 bound_to 10162
  156.9161  130.9668  151.3555 LP  0  0  0  0  0  0  0  0  0  0  0  0  # atno 17370 bound_to 10713
  157.5985  130.8495  149.8766 LP  0  0  0  0  0  0  0  0  0  0  0  0  # atno 17371 bound_to 10713
  140.4124  134.1967  155.7163 LP  0  0  0  0  0  0  0  0  0  0  0  0  # atno 17394 bound_to 11000
  141.1865  133.8301  157.1066 LP  0  0  0  0  0  0  0  0  0  0  0  0  # atno 17395 bound_to 11000

$$$$
