AV-unprocessed.smi:998|AV-procd|sdf|4349|dock4
  -GOLD-   22720 2253D 1   1.00000     0.00000
 Structure written by MMmdl.
 44 46  0  0  0  0  0  0  0  0  1 V2000
  152.4281  144.8874  159.7210 C   0  0  0  0  0  0  0  0  0  0  0  0
  152.2226  143.2422  160.5198 S   0  0  0  0  0  0  0  0  0  0  0  0
  153.5484  142.6517  160.7580 O   0  0  0  0  0  0  0  0  0  0  0  0
  151.2782  143.4028  161.6360 O   0  0  0  0  0  0  0  0  0  0  0  0
  151.4377  142.3023  159.2935 N   0  0  0  0  0  0  0  0  0  0  0  0
  150.8592  143.0267  158.1436 C   0  0  0  0  0  0  0  0  0  0  0  0
  149.9189  142.1205  157.3312 C   0  0  0  0  0  0  0  0  0  0  0  0
  150.6014  140.8974  156.9300 N   0  0  0  0  0  0  0  0  0  0  0  0
  149.8473  140.1164  156.0425 C   0  0  0  0  0  0  0  0  0  0  0  0
  148.5688  139.6724  156.4380 C   0  0  0  0  0  0  0  0  0  0  0  0
  147.8164  138.8834  155.5464 C   0  0  0  0  0  0  0  0  0  0  0  0
  148.3672  138.5673  154.2814 C   0  0  0  0  0  0  0  0  0  0  0  0
  147.7234  137.7626  153.3028 N   0  0  0  0  0  0  0  0  0  0  0  0
  146.4095  137.6395  153.0468 C   0  0  0  0  0  0  0  0  0  0  0  0
  145.5121  138.2582  153.6184 O   0  0  0  0  0  0  0  0  0  0  0  0
  146.1922  136.7581  152.0612 N   0  0  0  0  0  0  0  0  0  0  0  0
  144.9142  136.4000  151.5359 C   0  0  0  0  0  0  0  0  0  0  0  0
  144.4406  134.9783  151.7485 C   0  0  0  0  0  0  0  0  0  0  0  0
  144.8778  135.4231  150.3804 C   0  0  0  0  0  0  0  0  0  0  0  0
  149.6594  139.0501  153.9897 C   0  0  0  0  0  0  0  0  0  0  0  0
  150.3848  139.8075  154.8388 N   0  0  0  0  0  0  0  0  0  0  0  0
  151.0931  140.1557  158.0840 C   0  0  0  0  0  0  0  0  0  0  0  0
  152.0594  141.0168  158.9163 C   0  0  0  0  0  0  0  0  0  0  0  0
  152.8432  145.5883  160.4446 H   0  0  0  0  0  0  0  0  0  0  0  0
  151.4583  145.2516  159.3828 H   0  0  0  0  0  0  0  0  0  0  0  0
  153.1065  144.8102  158.8728 H   0  0  0  0  0  0  0  0  0  0  0  0
  150.3103  143.9001  158.4921 H   0  0  0  0  0  0  0  0  0  0  0  0
  151.6693  143.3924  157.5111 H   0  0  0  0  0  0  0  0  0  0  0  0
  149.0391  141.8723  157.9273 H   0  0  0  0  0  0  0  0  0  0  0  0
  149.5655  142.6521  156.4468 H   0  0  0  0  0  0  0  0  0  0  0  0
  148.1707  139.9267  157.4095 H   0  0  0  0  0  0  0  0  0  0  0  0
  146.8466  138.5283  155.8577 H   0  0  0  0  0  0  0  0  0  0  0  0
  148.3427  137.2502  152.6920 H   0  0  0  0  0  0  0  0  0  0  0  0
  146.9934  136.3030  151.6490 H   0  0  0  0  0  0  0  0  0  0  0  0
  144.1400  137.1662  151.5372 H   0  0  0  0  0  0  0  0  0  0  0  0
  145.0963  134.2977  152.2882 H   0  0  0  0  0  0  0  0  0  0  0  0
  143.3755  134.8234  151.9094 H   0  0  0  0  0  0  0  0  0  0  0  0
  144.1050  135.5650  149.6278 H   0  0  0  0  0  0  0  0  0  0  0  0
  145.8250  135.0380  150.0074 H   0  0  0  0  0  0  0  0  0  0  0  0
  150.1279  138.8242  153.0428 H   0  0  0  0  0  0  0  0  0  0  0  0
  150.2537  139.8414  158.7061 H   0  0  0  0  0  0  0  0  0  0  0  0
  151.5989  139.2490  157.7496 H   0  0  0  0  0  0  0  0  0  0  0  0
  152.9736  141.2158  158.3555 H   0  0  0  0  0  0  0  0  0  0  0  0
  152.3473  140.4666  159.8116 H   0  0  0  0  0  0  0  0  0  0  0  0
  1  2  1  0  0  0  0
  1 24  1  0  0  0  0
  1 25  1  0  0  0  0
  1 26  1  0  0  0  0
  2  3  2  0  0  0  0
  2  4  2  0  0  0  0
  2  5  1  0  0  0  0
  5 23  1  0  0  0  0
  5  6  1  0  0  0  0
  6  7  1  0  0  0  0
  6 27  1  0  0  0  0
  6 28  1  0  0  0  0
  7  8  1  0  0  0  0
  7 29  1  0  0  0  0
  7 30  1  0  0  0  0
  8  9  1  0  0  0  0
  8 22  1  0  0  0  0
  9 21  1  0  0  0  0
  9 10  2  0  0  0  0
 10 11  1  0  0  0  0
 10 31  1  0  0  0  0
 11 12  2  0  0  0  0
 11 32  1  0  0  0  0
 12 13  1  0  0  0  0
 12 20  1  0  0  0  0
 13 14  1  0  0  0  0
 13 33  1  0  0  0  0
 14 15  2  0  0  0  0
 14 16  1  0  0  0  0
 16 17  1  0  0  0  0
 16 34  1  0  0  0  0
 17 19  1  0  0  0  0
 17 18  1  0  0  0  0
 17 35  1  0  0  0  0
 18 19  1  0  0  0  0
 18 36  1  0  0  0  0
 18 37  1  0  0  0  0
 19 38  1  0  0  0  0
 19 39  1  0  0  0  0
 20 21  2  0  0  0  0
 20 40  1  0  0  0  0
 22 23  1  0  0  0  0
 22 41  1  0  0  0  0
 22 42  1  0  0  0  0
 23 43  1  0  0  0  0
 23 44  1  0  0  0  0
M  END
> <s_m_source_file>
AV-unprocessed.smi

> <i_m_source_file_index>
998

> <i_lp_mmshare_version>
43012

> <i_f3d_flags>
0

> <s_epik_input>
W0NIM11TKD1PKSg9TylOMVtDSDJdW0NIMl1OKFtDSDJdW0NIMl0xKWMyW2NIXVtjSF1jKFtjSF1uMilbTkhdQyg9TylbTkhdW0NIXTNbQ0gyXVtDSDJdMw==

> <s_epik_cmdline>
J2VwaWtfcHl0aG9uJywgJy1waCcsICc3LjAnLCAnLXRuJywgJzgnLCAnLW1hJywgJzIwMCcsICctbWV0YWxfYmluZGluZycsICctaW1hZScsICc8aW5maWxlLm1hZT4nLCAnLW9tYWUnLCAnPG91dGZpbGUubWFlPic=

> <r_lp_tautomer_probability>
1

> <r_epik_Ionization_Penalty>
0.0538093

> <r_epik_Ionization_Penalty_Charging>
0

> <r_epik_Ionization_Penalty_Neutral>
0.0538093

> <r_epik_State_Penalty>
0.0462087

> <r_epik_Charging_Adjusted_Penalty>
0.0462087

> <i_epik_Tot_Q>
0

> <i_epik_Tot_abs_Q>
0

> <r_epik_Metal_State_Penalty>
0.0423268

> <b_epik_Metal_Only>
0

> <s_lp_Force_Field>
OPLS_2005

> <r_lp_Energy>
34.3098

> <b_lp_Chiralities_Consistent>
1

> <s_lp_Variant>
AV-unprocessed.smi:998-1

> <Gold.Version>
5.8.1

> <Gold.Id.Protein>
6NUR|6NUR_protein|mol2

> <Gold.PLP.Fitness>
40.5125

> <Gold.PLP.PLP>
-28.3047

> <Gold.PLP.part.hbond>
-3.7918

> <Gold.PLP.part.metal>
0.0000

> <Gold.PLP.part.buried>
-1.3666

> <Gold.PLP.part.nonpolar>
-24.2748

> <Gold.PLP.part.repulsive>
1.6037

> <Gold.PLP.ligand.clash>
0.0000

> <Gold.PLP.ligand.torsion>
0.6746

> <Gold.PLP.Chemscore.Hbond>
3.2695

> <Gold.PLP.Chemscore.CHOScore>
1.0000

> <Gold.PLP.Chemscore.Metal>
0.0000

> <Gold.Chemscore.Hbonds>
donor molecule, donor type, donor heavy atom, donor atom, acceptor molecule, acceptor atom, score
      L1  H    13    33       P1  7948  0.76
      L1  H    16    34       P1  7948  0.82
      P1  H  6933  6945       L1     4  0.34
      P1  H  7989  7998       L1    21  0.78
      L1  C    20    40       P1  7957  0.83

> <Gold.PLP.Chemscore.Internal.Correction>
0.7486

> <Gold.Rescore>
     Score         DG    S(hbond)    S(metal)    S(lipo)     H(rot)  DE(clash)    DE(int)     intcor
     14.80     -16.51       2.12        0.00      67.62       1.55       1.02       0.69       ----

> <Gold.Chemscore.Fitness>
14.7964

> <Gold.Chemscore.DG>
-16.5093

> <Gold.Chemscore.ZeroCoef>
-5.4800

> <Gold.Chemscore.Hbond>
2.1205

> <Gold.Chemscore.Metal>
0.0000

> <Gold.Chemscore.Lipo>
67.6194

> <Gold.Chemscore.Internal_Hbond>
0.0000

> <Gold.Chemscore.DEClash>
1.0193

> <Gold.Chemscore.DEInternal>
0.6936

> <Gold.Chemscore.Rot>
1.5486

> <Gold.Chemscore.Internal.Correction>
   9.000000E+99

> <Gold.Chemscore.Hbonds>
donor molecule, donor type, donor heavy atom, donor atom, acceptor molecule, acceptor atom, score
      L1  H    13    33       P1  7948  0.77
      L1  H    16    34       P1  7948  0.81
      P1  H  6933  6945       L1     4  0.32
      P1  H  7989  7998       L1    21  0.24

> <Gold.Chemscore.Hbond.Weighted>
-7.0823

> <Gold.Chemscore.Metal.Weighted>
-0.0000

> <Gold.Chemscore.Lipo.Weighted>
-7.9115

> <Gold.Chemscore.Internal_Hbond.Weighted>
0.0000

> <Gold.Chemscore.DEClash.Weighted>
1.0193

> <Gold.Chemscore.DEInternal.Weighted>
0.6936

> <Gold.Chemscore.Rot.Weighted>
3.9645

> <Gold.Chemscore.Internal.Correction.Weighted>
   9.000000E+99

> <Gold.Protein.RotatedTorsions>
[ 6907 6896 6895 6894 ] final  -90.39 input  -60.11 | X-H torsion
[ 7974 7965 7964 7962 ] final   82.96 input  175.53 | X-H torsion
[ 8008 7997 7996 7995 ] final    2.58 input   59.86 | X-H torsion
[ 10167 10162 10161 10158 ] final -129.75 input  -65.29 | X-H torsion
[ 10718 10713 10712 10709 ] final -165.87 input   66.30 | X-H torsion
[ 10763 10752 10751 10750 ] final -148.46 input  -60.55 | X-H torsion
[ 11005 11000 10999 10996 ] final  -49.68 input  -57.11 | X-H torsion

> <Gold.Protein.ActiveResidues>
 VAL166  LYS551  ARG553  GLY616  TRP617  ASP618  TYR619  PRO620  LYS621  CYS622 
 ASP623  PHE694  ASN695  SER759  ASP760  ASP761  ALA762  ILE779  LEU786  VAL792 
 PHE793  MET794  SER795  GLU796  ALA797  LYS798  CYS799  TRP800  GLU811  SER814 

> <Gold.Protein.RotatedAtoms>
  150.6881  134.2439  159.4483 H   0  0  0  0  0  0  0  0  0  0  0  0  # atno 6907 bound_to 6896
  152.0381  134.9725  160.0583 H   0  0  0  0  0  0  0  0  0  0  0  0  # atno 6908 bound_to 6896
  152.1238  133.4333  159.4725 H   0  0  0  0  0  0  0  0  0  0  0  0  # atno 6909 bound_to 6896
  145.6182  139.2381  143.2153 H   0  0  0  0  0  0  0  0  0  0  0  0  # atno 7974 bound_to 7965
  154.6933  140.2658  155.6791 H   0  0  0  0  0  0  0  0  0  0  0  0  # atno 8008 bound_to 7997
  156.2740  140.2786  156.1442 H   0  0  0  0  0  0  0  0  0  0  0  0  # atno 8009 bound_to 7997
  155.0866  140.0373  157.2645 H   0  0  0  0  0  0  0  0  0  0  0  0  # atno 8010 bound_to 7997
  139.9365  143.6212  152.2515 H   0  0  0  0  0  0  0  0  0  0  0  0  # atno 10167 bound_to 10162
  156.6597  130.9041  151.3027 H   0  0  0  0  0  0  0  0  0  0  0  0  # atno 10718 bound_to 10713
  154.8231  135.3334  154.6977 H   0  0  0  0  0  0  0  0  0  0  0  0  # atno 10763 bound_to 10752
  153.7607  135.6933  153.4930 H   0  0  0  0  0  0  0  0  0  0  0  0  # atno 10764 bound_to 10752
  153.2112  135.4481  155.0331 H   0  0  0  0  0  0  0  0  0  0  0  0  # atno 10765 bound_to 10752
  141.0773  133.6662  156.3621 H   0  0  0  0  0  0  0  0  0  0  0  0  # atno 11005 bound_to 11000
  146.1451  140.7003  142.9348 LP  0  0  0  0  0  0  0  0  0  0  0  0  # atno 17320 bound_to 7965
  144.7242  140.4470  143.6986 LP  0  0  0  0  0  0  0  0  0  0  0  0  # atno 17321 bound_to 7965
  139.6739  144.7659  151.1731 LP  0  0  0  0  0  0  0  0  0  0  0  0  # atno 17342 bound_to 10162
  140.7623  143.5823  150.8882 LP  0  0  0  0  0  0  0  0  0  0  0  0  # atno 17343 bound_to 10162
  157.7114  130.9444  150.1101 LP  0  0  0  0  0  0  0  0  0  0  0  0  # atno 17370 bound_to 10713
  156.2020  130.3661  149.8776 LP  0  0  0  0  0  0  0  0  0  0  0  0  # atno 17371 bound_to 10713
  140.5545  134.5995  157.5417 LP  0  0  0  0  0  0  0  0  0  0  0  0  # atno 17394 bound_to 11000
  139.9586  134.7492  156.0287 LP  0  0  0  0  0  0  0  0  0  0  0  0  # atno 17395 bound_to 11000

$$$$
