AV-unprocessed.smi:3303|AV-procd|sdf|12673|dock4
  -GOLD-   2272019 03D 1   1.00000     0.00000
 Structure written by MMmdl.
 44 45  0  0  0  0  0  0  0  0  2 V2000
  150.3424  145.3014  159.3235 C   0  0  0  0  0  0  0  0  0  0  0  0
  150.8315  143.8828  159.6625 C   0  0  2  0  0  0  0  0  0  0  0  0
  151.8803  143.9397  160.7904 C   0  0  0  0  0  0  0  0  0  0  0  0
  152.3351  142.6003  161.1732 N   0  0  0  0  0  0  0  0  0  0  0  0
  153.2329  142.7582  162.3143 C   0  0  0  0  0  0  0  0  0  0  0  0
  152.9993  141.9430  160.0346 C   0  0  1  0  0  0  0  0  0  0  0  0
  153.5482  140.5501  160.4058 C   0  0  0  0  0  0  0  0  0  0  0  0
  151.9903  141.8048  158.8752 C   0  0  0  0  0  0  0  0  0  0  0  0
  151.4216  143.1610  158.4356 C   0  0  1  0  0  0  0  0  0  0  0  0
  150.3890  142.9528  157.3957 N   0  3  0  0  0  0  0  0  0  0  0  0
  150.8209  142.1278  156.2500 C   0  0  0  0  0  0  0  0  0  0  0  0
  149.7355  141.1146  155.8615 C   0  0  0  0  0  0  0  0  0  0  0  0
  150.3214  139.8148  155.3442 C   0  0  0  0  0  0  0  0  0  0  0  0
  149.5036  138.6807  155.1535 C   0  0  0  0  0  0  0  0  0  0  0  0
  150.0970  137.5006  154.6646 C   0  0  0  0  0  0  0  0  0  0  0  0
  151.4774  137.5005  154.3866 C   0  0  0  0  0  0  0  0  0  0  0  0
  152.2064  138.6856  154.6098 C   0  0  0  0  0  0  0  0  0  0  0  0
  151.6465  139.8233  155.0759 N   0  0  0  0  0  0  0  0  0  0  0  0
  151.1522  145.9167  158.9295 H   0  0  0  0  0  0  0  0  0  0  0  0
  149.9482  145.8009  160.2088 H   0  0  0  0  0  0  0  0  0  0  0  0
  149.5448  145.2849  158.5806 H   0  0  0  0  0  0  0  0  0  0  0  0
  149.9758  143.3117  160.0276 H   0  0  0  0  0  0  0  0  0  0  0  0
  152.7327  144.5495  160.4856 H   0  0  0  0  0  0  0  0  0  0  0  0
  151.4371  144.4289  161.6592 H   0  0  0  0  0  0  0  0  0  0  0  0
  153.5111  141.7942  162.7389 H   0  0  0  0  0  0  0  0  0  0  0  0
  152.7456  143.3189  163.1129 H   0  0  0  0  0  0  0  0  0  0  0  0
  154.1440  143.2890  162.0341 H   0  0  0  0  0  0  0  0  0  0  0  0
  153.8334  142.5649  159.7043 H   0  0  0  0  0  0  0  0  0  0  0  0
  153.9179  140.0309  159.5211 H   0  0  0  0  0  0  0  0  0  0  0  0
  152.7771  139.9234  160.8556 H   0  0  0  0  0  0  0  0  0  0  0  0
  154.3861  140.6087  161.1001 H   0  0  0  0  0  0  0  0  0  0  0  0
  152.4732  141.3240  158.0233 H   0  0  0  0  0  0  0  0  0  0  0  0
  151.1766  141.1435  159.1787 H   0  0  0  0  0  0  0  0  0  0  0  0
  152.2402  143.7606  158.0328 H   0  0  0  0  0  0  0  0  0  0  0  0
  149.5887  142.5107  157.8251 H   0  0  0  0  0  0  0  0  0  0  0  0
  151.0414  142.7770  155.4014 H   0  0  0  0  0  0  0  0  0  0  0  0
  151.7447  141.6103  156.5120 H   0  0  0  0  0  0  0  0  0  0  0  0
  149.1002  140.8976  156.7217 H   0  0  0  0  0  0  0  0  0  0  0  0
  149.0835  141.5409  155.0979 H   0  0  0  0  0  0  0  0  0  0  0  0
  148.4468  138.7109  155.3752 H   0  0  0  0  0  0  0  0  0  0  0  0
  149.5040  136.6121  154.5053 H   0  0  0  0  0  0  0  0  0  0  0  0
  151.9660  136.6134  154.0113 H   0  0  0  0  0  0  0  0  0  0  0  0
  153.2667  138.7211  154.4075 H   0  0  0  0  0  0  0  0  0  0  0  0
  150.1059  143.8582  157.0492 H   0  0  0  0  0  0  0  0  0  0  0  0
  1  2  1  0  0  0  0
  1 19  1  0  0  0  0
  1 20  1  0  0  0  0
  1 21  1  0  0  0  0
  2  9  1  0  0  0  0
  2  3  1  0  0  0  0
  2 22  1  0  0  0  0
  3  4  1  0  0  0  0
  3 23  1  0  0  0  0
  3 24  1  0  0  0  0
  4  5  1  0  0  0  0
  4  6  1  0  0  0  0
  5 25  1  0  0  0  0
  5 26  1  0  0  0  0
  5 27  1  0  0  0  0
  6  7  1  0  0  0  0
  6  8  1  0  0  0  0
  6 28  1  0  0  0  0
  7 29  1  0  0  0  0
  7 30  1  0  0  0  0
  7 31  1  0  0  0  0
  8  9  1  0  0  0  0
  8 32  1  0  0  0  0
  8 33  1  0  0  0  0
  9 10  1  0  0  0  0
  9 34  1  0  0  0  0
 10 11  1  0  0  0  0
 10 35  1  0  0  0  0
 10 44  1  0  0  0  0
 11 12  1  0  0  0  0
 11 36  1  0  0  0  0
 11 37  1  0  0  0  0
 12 13  1  0  0  0  0
 12 38  1  0  0  0  0
 12 39  1  0  0  0  0
 13 18  1  0  0  0  0
 13 14  2  0  0  0  0
 14 15  1  0  0  0  0
 14 40  1  0  0  0  0
 15 16  2  0  0  0  0
 15 41  1  0  0  0  0
 16 17  1  0  0  0  0
 16 42  1  0  0  0  0
 17 18  2  0  0  0  0
 17 43  1  0  0  0  0
M  CHG  1  10   1
M  END
> <s_m_source_file>
AV-unprocessed.smi

> <i_m_source_file_index>
3303

> <i_lp_mmshare_version>
43012

> <i_f3d_flags>
0

> <s_epik_input>
W0NIM11bQ0BASF0xW0NIMl1OKFtDSDNdKVtDQEBIXShbQ0gzXSlbQ0gyXVtDQEhdMVtOSF1bQ0gyXVtDSDJdYzJbY0hdW2NIXVtjSF1bY0hdbjI=

> <s_epik_cmdline>
J2VwaWtfcHl0aG9uJywgJy1waCcsICc3LjAnLCAnLXRuJywgJzgnLCAnLW1hJywgJzIwMCcsICctbWV0YWxfYmluZGluZycsICctaW1hZScsICc8aW5maWxlLm1hZT4nLCAnLW9tYWUnLCAnPG91dGZpbGUubWFlPic=

> <r_epik_Ionization_Penalty>
1.37325

> <r_epik_Ionization_Penalty_Charging>
0.000251572

> <r_epik_Ionization_Penalty_Neutral>
1.373

> <r_epik_State_Penalty>
1.46343

> <r_epik_Charging_Adjusted_Penalty>
1.46368

> <i_epik_Tot_Q>
1

> <i_epik_Tot_abs_Q>
1

> <r_epik_Metal_State_Penalty>
1.46331

> <b_epik_Metal_Only>
0

> <s_lp_Force_Field>
OPLS_2005

> <r_lp_Energy>
21.6133

> <b_lp_Chiralities_Consistent>
1

> <s_lp_Variant>
AV-unprocessed.smi:3303-17

> <Gold.Version>
5.8.1

> <Gold.Id.Protein>
6NUR|6NUR_protein|mol2

> <Gold.PLP.Fitness>
48.0551

> <Gold.PLP.PLP>
-41.1927

> <Gold.PLP.part.hbond>
-2.0000

> <Gold.PLP.part.metal>
0.0000

> <Gold.PLP.part.buried>
-6.1923

> <Gold.PLP.part.nonpolar>
-34.0971

> <Gold.PLP.part.repulsive>
0.1050

> <Gold.PLP.ligand.clash>
0.0000

> <Gold.PLP.ligand.torsion>
0.6730

> <Gold.PLP.Chemscore.Hbond>
2.7280

> <Gold.PLP.Chemscore.CHOScore>
0.0000

> <Gold.PLP.Chemscore.Metal>
0.0000

> <Gold.Chemscore.Hbonds>
donor molecule, donor type, donor heavy atom, donor atom, acceptor molecule, acceptor atom, score
      L1  H    10    44       P1  8028  1.70
      P1  H  7989  7998       L1    18  1.00

> <Gold.PLP.Chemscore.Internal.Correction>
0.0244

> <Gold.Rescore>
     Score         DG    S(hbond)    S(metal)    S(lipo)     H(rot)  DE(clash)    DE(int)     intcor
     19.35     -20.34       1.05        0.00     126.17       1.33       0.32       0.67       ----

> <Gold.Chemscore.Fitness>
19.3493

> <Gold.Chemscore.DG>
-20.3398

> <Gold.Chemscore.ZeroCoef>
-5.4800

> <Gold.Chemscore.Hbond>
1.0487

> <Gold.Chemscore.Metal>
0.0000

> <Gold.Chemscore.Lipo>
126.1673

> <Gold.Chemscore.Internal_Hbond>
0.0000

> <Gold.Chemscore.DEClash>
0.3171

> <Gold.Chemscore.DEInternal>
0.6734

> <Gold.Chemscore.Rot>
1.3298

> <Gold.Chemscore.Internal.Correction>
   9.000000E+99

> <Gold.Chemscore.Hbonds>
donor molecule, donor type, donor heavy atom, donor atom, acceptor molecule, acceptor atom, score
      L1  H    10    44       P1  8028  0.77
      P1  H  7989  7998       L1    18  0.06

> <Gold.Chemscore.Hbond.Weighted>
-3.5025

> <Gold.Chemscore.Metal.Weighted>
-0.0000

> <Gold.Chemscore.Lipo.Weighted>
-14.7616

> <Gold.Chemscore.Internal_Hbond.Weighted>
0.0000

> <Gold.Chemscore.DEClash.Weighted>
0.3171

> <Gold.Chemscore.DEInternal.Weighted>
0.6734

> <Gold.Chemscore.Rot.Weighted>
3.4043

> <Gold.Chemscore.Internal.Correction.Weighted>
   9.000000E+99

> <Gold.Protein.RotatedTorsions>
[ 6907 6896 6895 6894 ] final  -91.16 input  -60.11 | X-H torsion
[ 7974 7965 7964 7962 ] final  -77.99 input  175.53 | X-H torsion
[ 8008 7997 7996 7995 ] final  -58.40 input   59.86 | X-H torsion
[ 10167 10162 10161 10158 ] final  107.54 input  -65.29 | X-H torsion
[ 10718 10713 10712 10709 ] final -142.15 input   66.30 | X-H torsion
[ 10763 10752 10751 10750 ] final  -26.26 input  -60.55 | X-H torsion
[ 11005 11000 10999 10996 ] final    9.95 input  -57.11 | X-H torsion

> <Gold.Protein.ActiveResidues>
 VAL166  LYS551  ARG553  GLY616  TRP617  ASP618  TYR619  PRO620  LYS621  CYS622 
 ASP623  PHE694  ASN695  SER759  ASP760  ASP761  ALA762  ILE779  LEU786  VAL792 
 PHE793  MET794  SER795  GLU796  ALA797  LYS798  CYS799  TRP800  GLU811  SER814 

> <Gold.Protein.RotatedAtoms>
  150.6889  134.2320  159.4438 H   0  0  0  0  0  0  0  0  0  0  0  0  # atno 6907 bound_to 6896
  152.0270  134.9787  160.0581 H   0  0  0  0  0  0  0  0  0  0  0  0  # atno 6908 bound_to 6896
  152.1341  133.4390  159.4772 H   0  0  0  0  0  0  0  0  0  0  0  0  # atno 6909 bound_to 6896
  145.5924  140.9426  143.1285 H   0  0  0  0  0  0  0  0  0  0  0  0  # atno 7974 bound_to 7965
  154.4307  140.1085  156.5950 H   0  0  0  0  0  0  0  0  0  0  0  0  # atno 8008 bound_to 7997
  155.5971  140.3493  155.4564 H   0  0  0  0  0  0  0  0  0  0  0  0  # atno 8009 bound_to 7997
  156.0202  140.1238  157.0355 H   0  0  0  0  0  0  0  0  0  0  0  0  # atno 8010 bound_to 7997
  139.6918  144.7107  151.1334 H   0  0  0  0  0  0  0  0  0  0  0  0  # atno 10167 bound_to 10162
  156.3424  130.7645  151.1783 H   0  0  0  0  0  0  0  0  0  0  0  0  # atno 10718 bound_to 10713
  153.7130  135.6949  153.5032 H   0  0  0  0  0  0  0  0  0  0  0  0  # atno 10763 bound_to 10752
  153.2258  135.4354  155.0540 H   0  0  0  0  0  0  0  0  0  0  0  0  # atno 10764 bound_to 10752
  154.8309  135.3472  154.6666 H   0  0  0  0  0  0  0  0  0  0  0  0  # atno 10765 bound_to 10752
  140.5200  134.0568  155.7842 H   0  0  0  0  0  0  0  0  0  0  0  0  # atno 11005 bound_to 11000
  144.7345  139.7626  143.7334 LP  0  0  0  0  0  0  0  0  0  0  0  0  # atno 17320 bound_to 7965
  146.1637  139.4760  142.9972 LP  0  0  0  0  0  0  0  0  0  0  0  0  # atno 17321 bound_to 7965
  140.7685  143.5548  150.9164 LP  0  0  0  0  0  0  0  0  0  0  0  0  # atno 17342 bound_to 10162
  139.9225  143.6588  152.3093 LP  0  0  0  0  0  0  0  0  0  0  0  0  # atno 17343 bound_to 10162
  157.7449  131.0450  150.4824 LP  0  0  0  0  0  0  0  0  0  0  0  0  # atno 17370 bound_to 10713
  156.5006  130.4116  149.6355 LP  0  0  0  0  0  0  0  0  0  0  0  0  # atno 17371 bound_to 10713
  141.1339  133.9255  157.2476 LP  0  0  0  0  0  0  0  0  0  0  0  0  # atno 17394 bound_to 11000
  139.9611  135.0154  156.9263 LP  0  0  0  0  0  0  0  0  0  0  0  0  # atno 17395 bound_to 11000

$$$$
