AV-unprocessed.smi:3235|AV-procd|sdf|12360|dock7
  -GOLD-   2272018223D 1   1.00000     0.00000
 Structure written by MMmdl.
 41 42  0  0  0  0  0  0  0  0  2 V2000
  151.7944  145.4999  159.7848 C   0  0  0  0  0  0  0  0  0  0  0  0
  151.6258  144.2083  159.0379 C   0  0  0  0  0  0  0  0  0  0  0  0
  151.8121  142.8853  159.5304 C   0  0  0  0  0  0  0  0  0  0  0  0
  151.5837  141.9588  158.6137 N   0  0  0  0  0  0  0  0  0  0  0  0
  151.2471  142.6546  157.5074 N   0  0  0  0  0  0  0  0  0  0  0  0
  150.9265  141.9466  156.2833 C   0  0  0  0  0  0  0  0  0  0  0  0
  149.6023  141.1785  156.4025 C   0  0  0  0  0  0  0  0  0  0  0  0
  148.4678  141.9959  155.9314 N   0  3  0  0  0  0  0  0  0  0  0  0
  148.0831  141.7317  154.5314 C   0  0  0  0  0  0  0  0  0  0  0  0
  147.1241  142.8082  154.0076 C   0  0  0  0  0  0  0  0  0  0  0  0
  145.6704  142.5557  154.4422 C   0  0  0  0  0  0  0  0  0  0  0  0
  144.8832  143.7860  154.4475 N   0  0  0  0  0  0  0  0  0  0  0  0
  144.1070  144.1660  155.6161 C   0  0  0  0  0  0  0  0  0  0  0  0
  143.2975  145.3942  155.1752 C   0  0  0  0  0  0  0  0  0  0  0  0
  143.9295  145.8600  153.8588 C   0  0  0  0  0  0  0  0  0  0  0  0
  144.8284  144.6986  153.4700 C   0  0  0  0  0  0  0  0  0  0  0  0
  145.4143  144.6396  152.3900 O   0  0  0  0  0  0  0  0  0  0  0  0
  151.2600  144.0145  157.7358 C   0  0  0  0  0  0  0  0  0  0  0  0
  152.6737  145.4805  160.4290 H   0  0  0  0  0  0  0  0  0  0  0  0
  150.9345  145.7112  160.4205 H   0  0  0  0  0  0  0  0  0  0  0  0
  151.9113  146.3473  159.1091 H   0  0  0  0  0  0  0  0  0  0  0  0
  152.1062  142.5733  160.5217 H   0  0  0  0  0  0  0  0  0  0  0  0
  150.8795  142.6696  155.4674 H   0  0  0  0  0  0  0  0  0  0  0  0
  151.7443  141.2618  156.0542 H   0  0  0  0  0  0  0  0  0  0  0  0
  149.6508  140.2587  155.8176 H   0  0  0  0  0  0  0  0  0  0  0  0
  149.4260  140.8914  157.4402 H   0  0  0  0  0  0  0  0  0  0  0  0
  147.6709  141.8087  156.5232 H   0  0  0  0  0  0  0  0  0  0  0  0
  148.9804  141.6981  153.9122 H   0  0  0  0  0  0  0  0  0  0  0  0
  147.6107  140.7504  154.4697 H   0  0  0  0  0  0  0  0  0  0  0  0
  147.4516  143.7852  154.3657 H   0  0  0  0  0  0  0  0  0  0  0  0
  147.1757  142.8445  152.9186 H   0  0  0  0  0  0  0  0  0  0  0  0
  145.2032  141.8325  153.7723 H   0  0  0  0  0  0  0  0  0  0  0  0
  145.6461  142.1112  155.4383 H   0  0  0  0  0  0  0  0  0  0  0  0
  143.4601  143.3519  155.9456 H   0  0  0  0  0  0  0  0  0  0  0  0
  144.7847  144.4177  156.4331 H   0  0  0  0  0  0  0  0  0  0  0  0
  142.2560  145.1165  155.0082 H   0  0  0  0  0  0  0  0  0  0  0  0
  143.3097  146.1782  155.9332 H   0  0  0  0  0  0  0  0  0  0  0  0
  143.1819  146.0607  153.0908 H   0  0  0  0  0  0  0  0  0  0  0  0
  144.5349  146.7552  154.0027 H   0  0  0  0  0  0  0  0  0  0  0  0
  151.0131  144.7256  156.9613 H   0  0  0  0  0  0  0  0  0  0  0  0
  148.7144  142.9713  156.0196 H   0  0  0  0  0  0  0  0  0  0  0  0
  1  2  1  0  0  0  0
  1 19  1  0  0  0  0
  1 20  1  0  0  0  0
  1 21  1  0  0  0  0
  2 18  2  0  0  0  0
  2  3  1  0  0  0  0
  3  4  2  0  0  0  0
  3 22  1  0  0  0  0
  4  5  1  0  0  0  0
  5  6  1  0  0  0  0
  5 18  1  0  0  0  0
  6  7  1  0  0  0  0
  6 23  1  0  0  0  0
  6 24  1  0  0  0  0
  7  8  1  0  0  0  0
  7 25  1  0  0  0  0
  7 26  1  0  0  0  0
  8  9  1  0  0  0  0
  8 27  1  0  0  0  0
  8 41  1  0  0  0  0
  9 10  1  0  0  0  0
  9 28  1  0  0  0  0
  9 29  1  0  0  0  0
 10 11  1  0  0  0  0
 10 30  1  0  0  0  0
 10 31  1  0  0  0  0
 11 12  1  0  0  0  0
 11 32  1  0  0  0  0
 11 33  1  0  0  0  0
 12 16  1  0  0  0  0
 12 13  1  0  0  0  0
 13 14  1  0  0  0  0
 13 34  1  0  0  0  0
 13 35  1  0  0  0  0
 14 15  1  0  0  0  0
 14 36  1  0  0  0  0
 14 37  1  0  0  0  0
 15 16  1  0  0  0  0
 15 38  1  0  0  0  0
 15 39  1  0  0  0  0
 16 17  2  0  0  0  0
 18 40  1  0  0  0  0
M  CHG  1   8   1
M  END
> <s_m_source_file>
AV-unprocessed.smi

> <i_m_source_file_index>
3235

> <i_lp_mmshare_version>
43012

> <i_f3d_flags>
0

> <s_epik_input>
W0NIM11jMVtjSF1ubihbY0hdMSlbQ0gyXVtDSDJdW05IXVtDSDJdW0NIMl1bQ0gyXU4yW0NIMl1bQ0gyXVtDSDJdQzI9Tw==

> <s_epik_cmdline>
J2VwaWtfcHl0aG9uJywgJy1waCcsICc3LjAnLCAnLXRuJywgJzgnLCAnLW1hJywgJzIwMCcsICctbWV0YWxfYmluZGluZycsICctaW1hZScsICc8aW5maWxlLm1hZT4nLCAnLW9tYWUnLCAnPG91dGZpbGUubWFlPic=

> <r_lp_tautomer_probability>
1

> <r_epik_Ionization_Penalty>
0.00490609

> <r_epik_Ionization_Penalty_Charging>
0.00490019

> <r_epik_Ionization_Penalty_Neutral>
5.89696e-06

> <r_epik_State_Penalty>
-0

> <r_epik_Charging_Adjusted_Penalty>
0.00490019

> <i_epik_Tot_Q>
1

> <i_epik_Tot_abs_Q>
1

> <r_epik_Metal_State_Penalty>
-0

> <b_epik_Metal_Only>
0

> <s_lp_Force_Field>
OPLS_2005

> <r_lp_Energy>
17.6896

> <b_lp_Chiralities_Consistent>
1

> <s_lp_Variant>
AV-unprocessed.smi:3235-1

> <Gold.Version>
5.8.1

> <Gold.Id.Protein>
6NUR|6NUR_protein|mol2

> <Gold.PLP.Fitness>
50.0594

> <Gold.PLP.PLP>
-42.9590

> <Gold.PLP.part.hbond>
-1.2658

> <Gold.PLP.part.metal>
0.0000

> <Gold.PLP.part.buried>
-4.1377

> <Gold.PLP.part.nonpolar>
-37.6811

> <Gold.PLP.part.repulsive>
0.2507

> <Gold.PLP.ligand.clash>
0.0000

> <Gold.PLP.ligand.torsion>
0.9157

> <Gold.PLP.Chemscore.Hbond>
2.0000

> <Gold.PLP.Chemscore.CHOScore>
0.9284

> <Gold.PLP.Chemscore.Metal>
0.0000

> <Gold.Chemscore.Hbonds>
donor molecule, donor type, donor heavy atom, donor atom, acceptor molecule, acceptor atom, score
      L1  H     8    41       P1  8028  2.00
      L1  C    18    40       P1  8028  0.92

> <Gold.PLP.Chemscore.Internal.Correction>
0.1465

> <Gold.Rescore>
     Score         DG    S(hbond)    S(metal)    S(lipo)     H(rot)  DE(clash)    DE(int)     intcor
     13.99     -14.98       0.99        0.00     100.17       2.16       0.35       0.65       ----

> <Gold.Chemscore.Fitness>
13.9876

> <Gold.Chemscore.DG>
-14.9846

> <Gold.Chemscore.ZeroCoef>
-5.4800

> <Gold.Chemscore.Hbond>
0.9922

> <Gold.Chemscore.Metal>
0.0000

> <Gold.Chemscore.Lipo>
100.1687

> <Gold.Chemscore.Internal_Hbond>
0.0000

> <Gold.Chemscore.DEClash>
0.3457

> <Gold.Chemscore.DEInternal>
0.6513

> <Gold.Chemscore.Rot>
2.1598

> <Gold.Chemscore.Internal.Correction>
   9.000000E+99

> <Gold.Chemscore.Hbonds>
donor molecule, donor type, donor heavy atom, donor atom, acceptor molecule, acceptor atom, score
      L1  H     8    41       P1  8028  0.99

> <Gold.Chemscore.Hbond.Weighted>
-3.3139

> <Gold.Chemscore.Metal.Weighted>
-0.0000

> <Gold.Chemscore.Lipo.Weighted>
-11.7197

> <Gold.Chemscore.Internal_Hbond.Weighted>
0.0000

> <Gold.Chemscore.DEClash.Weighted>
0.3457

> <Gold.Chemscore.DEInternal.Weighted>
0.6513

> <Gold.Chemscore.Rot.Weighted>
5.5291

> <Gold.Chemscore.Internal.Correction.Weighted>
   9.000000E+99

> <Gold.Protein.RotatedTorsions>
[ 6907 6896 6895 6894 ] final    8.04 input  -60.11 | X-H torsion
[ 7974 7965 7964 7962 ] final  147.92 input  175.53 | X-H torsion
[ 8008 7997 7996 7995 ] final   11.25 input   59.86 | X-H torsion
[ 10167 10162 10161 10158 ] final  -34.14 input  -65.29 | X-H torsion
[ 10718 10713 10712 10709 ] final  174.26 input   66.30 | X-H torsion
[ 10763 10752 10751 10750 ] final -173.76 input  -60.55 | X-H torsion
[ 11005 11000 10999 10996 ] final   84.05 input  -57.11 | X-H torsion

> <Gold.Protein.ActiveResidues>
 VAL166  LYS551  ARG553  GLY616  TRP617  ASP618  TYR619  PRO620  LYS621  CYS622 
 ASP623  PHE694  ASN695  SER759  ASP760  ASP761  ALA762  ILE779  LEU786  VAL792 
 PHE793  MET794  SER795  GLU796  ALA797  LYS798  CYS799  TRP800  GLU811  SER814 

> <Gold.Protein.RotatedAtoms>
  151.6997  135.0932  160.0248 H   0  0  0  0  0  0  0  0  0  0  0  0  # atno 6907 bound_to 6896
  152.3728  133.6437  159.6109 H   0  0  0  0  0  0  0  0  0  0  0  0  # atno 6908 bound_to 6896
  150.7686  133.9158  159.3424 H   0  0  0  0  0  0  0  0  0  0  0  0  # atno 6909 bound_to 6896
  144.8553  139.6089  143.5955 H   0  0  0  0  0  0  0  0  0  0  0  0  # atno 7974 bound_to 7965
  154.8044  140.2857  155.5898 H   0  0  0  0  0  0  0  0  0  0  0  0  # atno 8008 bound_to 7997
  156.2981  140.2580  156.2849 H   0  0  0  0  0  0  0  0  0  0  0  0  # atno 8009 bound_to 7997
  154.9520  140.0379  157.2138 H   0  0  0  0  0  0  0  0  0  0  0  0  # atno 8010 bound_to 7997
  140.7191  143.3569  151.2041 H   0  0  0  0  0  0  0  0  0  0  0  0  # atno 10167 bound_to 10162
  156.9522  131.0034  151.2946 H   0  0  0  0  0  0  0  0  0  0  0  0  # atno 10718 bound_to 10713
  154.6041  135.2857  155.0504 H   0  0  0  0  0  0  0  0  0  0  0  0  # atno 10763 bound_to 10752
  154.1758  135.6465  153.5025 H   0  0  0  0  0  0  0  0  0  0  0  0  # atno 10764 bound_to 10752
  153.0168  135.5411  154.6770 H   0  0  0  0  0  0  0  0  0  0  0  0  # atno 10765 bound_to 10752
  139.9012  134.8189  156.2393 H   0  0  0  0  0  0  0  0  0  0  0  0  # atno 11005 bound_to 11000
  146.2818  139.6898  142.9223 LP  0  0  0  0  0  0  0  0  0  0  0  0  # atno 17320 bound_to 7965
  145.4418  141.0423  143.2853 LP  0  0  0  0  0  0  0  0  0  0  0  0  # atno 17321 bound_to 7965
  139.7113  143.9373  152.2948 LP  0  0  0  0  0  0  0  0  0  0  0  0  # atno 17342 bound_to 10162
  139.9098  144.6863  150.8574 LP  0  0  0  0  0  0  0  0  0  0  0  0  # atno 17343 bound_to 10162
  157.5714  130.8313  149.8397 LP  0  0  0  0  0  0  0  0  0  0  0  0  # atno 17370 bound_to 10713
  156.0358  130.3752  150.1565 LP  0  0  0  0  0  0  0  0  0  0  0  0  # atno 17371 bound_to 10713
  141.0295  133.6996  156.1406 LP  0  0  0  0  0  0  0  0  0  0  0  0  # atno 17394 bound_to 11000
  140.7117  134.4454  157.5581 LP  0  0  0  0  0  0  0  0  0  0  0  0  # atno 17395 bound_to 11000

$$$$
