AV-unprocessed.smi:2297|AV-procd|sdf|9222|dock8
  -GOLD-   2272012443D 1   1.00000     0.00000
 Structure written by MMmdl.
 44 45  0  0  0  0  0  0  0  0  1 V2000
  150.8505  144.4239  158.6676 C   0  0  0  0  0  0  0  0  0  0  0  0
  151.6397  143.2030  159.0932 C   0  0  0  0  0  0  0  0  0  0  0  0
  152.1523  143.1068  160.4023 C   0  0  0  0  0  0  0  0  0  0  0  0
  152.8860  141.9694  160.7914 C   0  0  0  0  0  0  0  0  0  0  0  0
  153.4355  141.8734  162.1998 C   0  0  0  0  0  0  0  0  0  0  0  0
  153.1045  140.9279  159.8667 C   0  0  0  0  0  0  0  0  0  0  0  0
  152.5988  141.0083  158.5532 C   0  0  0  0  0  0  0  0  0  0  0  0
  152.8606  139.9440  157.7178 O   0  0  0  0  0  0  0  0  0  0  0  0
  152.3037  139.9605  156.4086 C   0  0  0  0  0  0  0  0  0  0  0  0
  152.7847  138.7344  155.6140 C   0  0  2  0  0  0  0  0  0  0  0  0
  154.1614  138.9068  155.3439 O   0  0  0  0  0  0  0  0  0  0  0  0
  151.9991  138.5181  154.3008 C   0  0  0  0  0  0  0  0  0  0  0  0
  150.7459  137.7764  154.5174 N   0  0  0  0  0  0  0  0  0  0  0  0
  149.5692  138.3977  154.0685 C   0  0  0  0  0  0  0  0  0  0  0  0
  148.4115  137.8380  154.2043 N   0  0  0  0  0  0  0  0  0  0  0  0
  148.3103  136.5843  154.8143 C   0  0  0  0  0  0  0  0  0  0  0  0
  146.9044  136.0232  154.9317 C   0  0  0  0  0  0  0  0  0  0  0  0
  149.4130  135.9277  155.2678 C   0  0  0  0  0  0  0  0  0  0  0  0
  149.3639  134.5643  155.9463 C   0  0  0  0  0  0  0  0  0  0  0  0
  150.7384  136.5477  155.1107 C   0  0  0  0  0  0  0  0  0  0  0  0
  151.7796  136.0028  155.4826 O   0  0  0  0  0  0  0  0  0  0  0  0
  151.8631  142.1589  158.1728 C   0  0  0  0  0  0  0  0  0  0  0  0
  150.6700  145.0951  159.5079 H   0  0  0  0  0  0  0  0  0  0  0  0
  149.8849  144.1270  158.2575 H   0  0  0  0  0  0  0  0  0  0  0  0
  151.3948  144.9757  157.9009 H   0  0  0  0  0  0  0  0  0  0  0  0
  151.9844  143.9050  161.1108 H   0  0  0  0  0  0  0  0  0  0  0  0
  153.9653  140.9337  162.3582 H   0  0  0  0  0  0  0  0  0  0  0  0
  152.6255  141.9341  162.9269 H   0  0  0  0  0  0  0  0  0  0  0  0
  154.1300  142.6920  162.3902 H   0  0  0  0  0  0  0  0  0  0  0  0
  153.6663  140.0541  160.1632 H   0  0  0  0  0  0  0  0  0  0  0  0
  151.2129  139.9881  156.4440 H   0  0  0  0  0  0  0  0  0  0  0  0
  152.6405  140.8610  155.8925 H   0  0  0  0  0  0  0  0  0  0  0  0
  152.6895  137.8629  156.2629 H   0  0  0  0  0  0  0  0  0  0  0  0
  154.4707  138.1550  154.8624 H   0  0  0  0  0  0  0  0  0  0  0  0
  151.7513  139.4880  153.8654 H   0  0  0  0  0  0  0  0  0  0  0  0
  152.6338  138.0438  153.5490 H   0  0  0  0  0  0  0  0  0  0  0  0
  149.7024  139.3741  153.5994 H   0  0  0  0  0  0  0  0  0  0  0  0
  146.6364  135.8827  155.9791 H   0  0  0  0  0  0  0  0  0  0  0  0
  146.8322  135.0627  154.4208 H   0  0  0  0  0  0  0  0  0  0  0  0
  146.1696  136.6940  154.4851 H   0  0  0  0  0  0  0  0  0  0  0  0
  149.9668  133.8447  155.3912 H   0  0  0  0  0  0  0  0  0  0  0  0
  148.3569  134.1578  156.0226 H   0  0  0  0  0  0  0  0  0  0  0  0
  149.7666  134.6339  156.9575 H   0  0  0  0  0  0  0  0  0  0  0  0
  151.4587  142.2632  157.1774 H   0  0  0  0  0  0  0  0  0  0  0  0
  1  2  1  0  0  0  0
  1 23  1  0  0  0  0
  1 24  1  0  0  0  0
  1 25  1  0  0  0  0
  2 22  1  0  0  0  0
  2  3  2  0  0  0  0
  3  4  1  0  0  0  0
  3 26  1  0  0  0  0
  4  5  1  0  0  0  0
  4  6  2  0  0  0  0
  5 27  1  0  0  0  0
  5 28  1  0  0  0  0
  5 29  1  0  0  0  0
  6  7  1  0  0  0  0
  6 30  1  0  0  0  0
  7  8  1  0  0  0  0
  7 22  2  0  0  0  0
  8  9  1  0  0  0  0
  9 10  1  0  0  0  0
  9 31  1  0  0  0  0
  9 32  1  0  0  0  0
 10 11  1  0  0  0  0
 10 12  1  0  0  0  0
 10 33  1  0  0  0  0
 11 34  1  0  0  0  0
 12 13  1  0  0  0  0
 12 35  1  0  0  0  0
 12 36  1  0  0  0  0
 13 20  1  0  0  0  0
 13 14  1  0  0  0  0
 14 15  2  0  0  0  0
 14 37  1  0  0  0  0
 15 16  1  0  0  0  0
 16 17  1  0  0  0  0
 16 18  2  0  0  0  0
 17 38  1  0  0  0  0
 17 39  1  0  0  0  0
 17 40  1  0  0  0  0
 18 19  1  0  0  0  0
 18 20  1  0  0  0  0
 19 41  1  0  0  0  0
 19 42  1  0  0  0  0
 19 43  1  0  0  0  0
 20 21  2  0  0  0  0
 22 44  1  0  0  0  0
M  END
> <s_m_source_file>
AV-unprocessed.smi

> <i_m_source_file_index>
2297

> <i_lp_mmshare_version>
43012

> <i_f3d_flags>
0

> <s_epik_input>
W0NIM11jMVtjSF1jKFtDSDNdKVtjSF1jKFtjSF0xKU9bQ0gyXVtDQEhdKFtPSF0pW0NIMl1uMltjSF1uYyhbQ0gzXSljKFtDSDNdKWMyPU8=

> <s_epik_cmdline>
J2VwaWtfcHl0aG9uJywgJy1waCcsICc3LjAnLCAnLXRuJywgJzgnLCAnLW1hJywgJzIwMCcsICctbWV0YWxfYmluZGluZycsICctaW1hZScsICc8aW5maWxlLm1hZT4nLCAnLW9tYWUnLCAnPG91dGZpbGUubWFlPic=

> <r_lp_tautomer_probability>
1

> <r_epik_Ionization_Penalty>
3.72236e-05

> <r_epik_Ionization_Penalty_Charging>
8.38864e-08

> <r_epik_Ionization_Penalty_Neutral>
3.71397e-05

> <r_epik_State_Penalty>
-0

> <r_epik_Charging_Adjusted_Penalty>
8.38864e-08

> <i_epik_Tot_Q>
0

> <i_epik_Tot_abs_Q>
0

> <r_epik_Metal_State_Penalty>
-0

> <b_epik_Metal_Only>
0

> <s_lp_Force_Field>
OPLS_2005

> <r_lp_Energy>
24.6499

> <b_lp_Chiralities_Consistent>
1

> <s_lp_Variant>
AV-unprocessed.smi:2297-1

> <Gold.Version>
5.8.1

> <Gold.Id.Protein>
6NUR|6NUR_protein|mol2

> <Gold.PLP.Fitness>
49.9820

> <Gold.PLP.PLP>
-41.4656

> <Gold.PLP.part.hbond>
-2.8568

> <Gold.PLP.part.metal>
0.0000

> <Gold.PLP.part.buried>
-4.4291

> <Gold.PLP.part.nonpolar>
-33.0391

> <Gold.PLP.part.repulsive>
0.2339

> <Gold.PLP.ligand.clash>
0.0000

> <Gold.PLP.ligand.torsion>
0.3598

> <Gold.PLP.Chemscore.Hbond>
2.0880

> <Gold.PLP.Chemscore.CHOScore>
0.9615

> <Gold.PLP.Chemscore.Metal>
0.0000

> <Gold.Chemscore.Hbonds>
donor molecule, donor type, donor heavy atom, donor atom, acceptor molecule, acceptor atom, score
      P1  H  7997  8008       L1    11  0.35
      P1  H  7997  8010       L1     8  0.59
      P1  H 10752 10764       L1    21  0.91
      L1  C    14    37       P1  7957  1.00

> <Gold.PLP.Chemscore.Internal.Correction>
0.0874

> <Gold.Rescore>
     Score         DG    S(hbond)    S(metal)    S(lipo)     H(rot)  DE(clash)    DE(int)     intcor
     16.79     -18.29       1.68        0.00     112.36       2.32       0.11       1.39       ----

> <Gold.Chemscore.Fitness>
16.7920

> <Gold.Chemscore.DG>
-18.2942

> <Gold.Chemscore.ZeroCoef>
-5.4800

> <Gold.Chemscore.Hbond>
1.6817

> <Gold.Chemscore.Metal>
0.0000

> <Gold.Chemscore.Lipo>
112.3557

> <Gold.Chemscore.Internal_Hbond>
0.0000

> <Gold.Chemscore.DEClash>
0.1149

> <Gold.Chemscore.DEInternal>
1.3873

> <Gold.Chemscore.Rot>
2.3236

> <Gold.Chemscore.Internal.Correction>
   9.000000E+99

> <Gold.Chemscore.Hbonds>
donor molecule, donor type, donor heavy atom, donor atom, acceptor molecule, acceptor atom, score
      P1  H  7997  8008       L1    11  0.34
      P1  H  7997  8010       L1     8  0.06
      P1  H 10752 10764       L1    21  0.87

> <Gold.Chemscore.Hbond.Weighted>
-5.6170

> <Gold.Chemscore.Metal.Weighted>
-0.0000

> <Gold.Chemscore.Lipo.Weighted>
-13.1456

> <Gold.Chemscore.Internal_Hbond.Weighted>
0.0000

> <Gold.Chemscore.DEClash.Weighted>
0.1149

> <Gold.Chemscore.DEInternal.Weighted>
1.3873

> <Gold.Chemscore.Rot.Weighted>
5.9484

> <Gold.Chemscore.Internal.Correction.Weighted>
   9.000000E+99

> <Gold.Protein.RotatedTorsions>
[ 6907 6896 6895 6894 ] final  -34.93 input  -60.11 | X-H torsion
[ 7974 7965 7964 7962 ] final  -89.06 input  175.53 | X-H torsion
[ 8008 7997 7996 7995 ] final   21.34 input   59.86 | X-H torsion
[ 10167 10162 10161 10158 ] final    0.63 input  -65.29 | X-H torsion
[ 10718 10713 10712 10709 ] final   -5.95 input   66.30 | X-H torsion
[ 10763 10752 10751 10750 ] final  -33.35 input  -60.55 | X-H torsion
[ 11005 11000 10999 10996 ] final -147.02 input  -57.11 | X-H torsion

> <Gold.Protein.ActiveResidues>
 VAL166  LYS551  ARG553  GLY616  TRP617  ASP618  TYR619  PRO620  LYS621  CYS622 
 ASP623  PHE694  ASN695  SER759  ASP760  ASP761  ALA762  ILE779  LEU786  VAL792 
 PHE793  MET794  SER795  GLU796  ALA797  LYS798  CYS799  TRP800  GLU811  SER814 

> <Gold.Protein.RotatedAtoms>
  151.0462  134.9642  159.8187 H   0  0  0  0  0  0  0  0  0  0  0  0  # atno 6907 bound_to 6896
  152.5373  134.2595  159.8940 H   0  0  0  0  0  0  0  0  0  0  0  0  # atno 6908 bound_to 6896
  151.2609  133.4260  159.2650 H   0  0  0  0  0  0  0  0  0  0  0  0  # atno 6909 bound_to 6896
  145.4449  140.9560  143.2054 H   0  0  0  0  0  0  0  0  0  0  0  0  # atno 7974 bound_to 7965
  154.9492  140.3063  155.5083 H   0  0  0  0  0  0  0  0  0  0  0  0  # atno 8008 bound_to 7997
  156.2989  140.2322  156.4506 H   0  0  0  0  0  0  0  0  0  0  0  0  # atno 8009 bound_to 7997
  154.8071  140.0430  157.1304 H   0  0  0  0  0  0  0  0  0  0  0  0  # atno 8010 bound_to 7997
  140.6720  143.7023  150.7942 H   0  0  0  0  0  0  0  0  0  0  0  0  # atno 10167 bound_to 10162
  156.7391  130.5204  149.5828 H   0  0  0  0  0  0  0  0  0  0  0  0  # atno 10718 bound_to 10713
  153.8288  135.6868  153.4817 H   0  0  0  0  0  0  0  0  0  0  0  0  # atno 10763 bound_to 10752
  153.1524  135.4613  154.9653 H   0  0  0  0  0  0  0  0  0  0  0  0  # atno 10764 bound_to 10752
  154.7896  135.3297  154.7753 H   0  0  0  0  0  0  0  0  0  0  0  0  # atno 10765 bound_to 10752
  140.7759  134.3135  157.5060 H   0  0  0  0  0  0  0  0  0  0  0  0  # atno 11005 bound_to 11000
  144.8098  139.5983  143.7034 LP  0  0  0  0  0  0  0  0  0  0  0  0  # atno 17320 bound_to 7965
  146.2536  139.6253  142.9410 LP  0  0  0  0  0  0  0  0  0  0  0  0  # atno 17321 bound_to 7965
  140.0710  143.5061  152.2580 LP  0  0  0  0  0  0  0  0  0  0  0  0  # atno 17342 bound_to 10162
  139.5993  144.7577  151.3211 LP  0  0  0  0  0  0  0  0  0  0  0  0  # atno 17343 bound_to 10162
  156.1477  130.6288  151.0553 LP  0  0  0  0  0  0  0  0  0  0  0  0  # atno 17370 bound_to 10713
  157.6826  131.0834  150.7329 LP  0  0  0  0  0  0  0  0  0  0  0  0  # atno 17371 bound_to 10713
  139.8749  134.9289  156.3463 LP  0  0  0  0  0  0  0  0  0  0  0  0  # atno 17394 bound_to 11000
  140.9529  133.7439  156.0296 LP  0  0  0  0  0  0  0  0  0  0  0  0  # atno 17395 bound_to 11000

$$$$
