AV-unprocessed.smi:1370|AV-procd|sdf|5580|dock10
  -GOLD-   22720 5183D 1   1.00000     0.00000
 Structure written by MMmdl.
 39 40  0  0  0  0  0  0  0  0  1 V2000
  152.7581  140.2203  157.3861 O   0  0  0  0  0  0  0  0  0  0  0  0
  151.8048  140.7172  157.9875 C   0  0  0  0  0  0  0  0  0  0  0  0
  151.9514  141.1916  159.4403 C   0  0  0  0  0  0  0  0  0  0  0  0
  151.9446  142.6574  159.5774 N   0  0  0  0  0  0  0  0  0  0  0  0
  152.0140  143.4136  158.3903 C   0  0  0  0  0  0  0  0  0  0  0  0
  152.0142  144.7561  158.4027 C   0  0  0  0  0  0  0  0  0  0  0  0
  151.9392  145.4267  159.6789 C   0  0  0  0  0  0  0  0  0  0  0  0
  151.8764  144.7130  160.8206 C   0  0  0  0  0  0  0  0  0  0  0  0
  151.8803  143.2455  160.8118 C   0  0  0  0  0  0  0  0  0  0  0  0
  151.8279  142.5858  161.8504 O   0  0  0  0  0  0  0  0  0  0  0  0
  150.6004  140.9039  157.4277 N   0  0  0  0  0  0  0  0  0  0  0  0
  150.2498  140.5629  156.0528 C   0  0  0  0  0  0  0  0  0  0  0  0
  148.9941  141.3119  155.5783 C   0  0  0  0  0  0  0  0  0  0  0  0
  148.2765  140.5618  154.0878 S   0  0  0  0  0  0  0  0  0  0  0  0
  146.6546  141.3771  154.0642 C   0  0  0  0  0  0  0  0  0  0  0  0
  146.7571  142.8725  153.7691 C   0  0  0  0  0  0  0  0  0  0  0  0
  145.4275  143.4345  154.2696 C   0  0  0  0  0  0  0  0  0  0  0  0
  145.0578  142.5788  155.4885 C   0  0  0  0  0  0  0  0  0  0  0  0
  145.9230  141.3108  155.4106 C   0  0  0  0  0  0  0  0  0  0  0  0
  151.1416  140.7498  160.0221 H   0  0  0  0  0  0  0  0  0  0  0  0
  152.8668  140.7790  159.8687 H   0  0  0  0  0  0  0  0  0  0  0  0
  152.0745  142.8359  157.4795 H   0  0  0  0  0  0  0  0  0  0  0  0
  152.0731  145.3191  157.4830 H   0  0  0  0  0  0  0  0  0  0  0  0
  151.9344  146.5060  159.7190 H   0  0  0  0  0  0  0  0  0  0  0  0
  151.8212  145.2321  161.7662 H   0  0  0  0  0  0  0  0  0  0  0  0
  149.8762  141.3272  157.9898 H   0  0  0  0  0  0  0  0  0  0  0  0
  151.0891  140.7814  155.3905 H   0  0  0  0  0  0  0  0  0  0  0  0
  150.0860  139.4867  155.9943 H   0  0  0  0  0  0  0  0  0  0  0  0
  148.2418  141.3351  156.3671 H   0  0  0  0  0  0  0  0  0  0  0  0
  149.2498  142.3479  155.3554 H   0  0  0  0  0  0  0  0  0  0  0  0
  146.0374  140.9119  153.2941 H   0  0  0  0  0  0  0  0  0  0  0  0
  147.5780  143.3136  154.3366 H   0  0  0  0  0  0  0  0  0  0  0  0
  146.9295  143.0821  152.7131 H   0  0  0  0  0  0  0  0  0  0  0  0
  145.4875  144.4970  154.5067 H   0  0  0  0  0  0  0  0  0  0  0  0
  144.6685  143.3121  153.4960 H   0  0  0  0  0  0  0  0  0  0  0  0
  145.2677  143.1175  156.4133 H   0  0  0  0  0  0  0  0  0  0  0  0
  143.9940  142.3397  155.4861 H   0  0  0  0  0  0  0  0  0  0  0  0
  145.3275  140.4021  155.5031 H   0  0  0  0  0  0  0  0  0  0  0  0
  146.6410  141.3144  156.2320 H   0  0  0  0  0  0  0  0  0  0  0  0
  1  2  2  0  0  0  0
  2  3  1  0  0  0  0
  2 11  1  0  0  0  0
  3  4  1  0  0  0  0
  3 20  1  0  0  0  0
  3 21  1  0  0  0  0
  4  9  1  0  0  0  0
  4  5  1  0  0  0  0
  5  6  2  0  0  0  0
  5 22  1  0  0  0  0
  6  7  1  0  0  0  0
  6 23  1  0  0  0  0
  7  8  2  0  0  0  0
  7 24  1  0  0  0  0
  8  9  1  0  0  0  0
  8 25  1  0  0  0  0
  9 10  2  0  0  0  0
 11 12  1  0  0  0  0
 11 26  1  0  0  0  0
 12 13  1  0  0  0  0
 12 27  1  0  0  0  0
 12 28  1  0  0  0  0
 13 14  1  0  0  0  0
 13 29  1  0  0  0  0
 13 30  1  0  0  0  0
 14 15  1  0  0  0  0
 15 19  1  0  0  0  0
 15 16  1  0  0  0  0
 15 31  1  0  0  0  0
 16 17  1  0  0  0  0
 16 32  1  0  0  0  0
 16 33  1  0  0  0  0
 17 18  1  0  0  0  0
 17 34  1  0  0  0  0
 17 35  1  0  0  0  0
 18 19  1  0  0  0  0
 18 36  1  0  0  0  0
 18 37  1  0  0  0  0
 19 38  1  0  0  0  0
 19 39  1  0  0  0  0
M  END
> <s_m_source_file>
AV-unprocessed.smi

> <i_m_source_file_index>
1370

> <i_lp_mmshare_version>
43012

> <i_f3d_flags>
0

> <s_epik_input>
Tz1jMVtjSF1bY0hdW2NIXVtjSF1uMVtDSDJdQyg9TylbTkhdW0NIMl1bQ0gyXVNbQ0hdMltDSDJdW0NIMl1bQ0gyXVtDSDJdMg==

> <s_epik_cmdline>
J2VwaWtfcHl0aG9uJywgJy1waCcsICc3LjAnLCAnLXRuJywgJzgnLCAnLW1hJywgJzIwMCcsICctbWV0YWxfYmluZGluZycsICctaW1hZScsICc8aW5maWxlLm1hZT4nLCAnLW9tYWUnLCAnPG91dGZpbGUubWFlPic=

> <r_lp_tautomer_probability>
1

> <r_epik_Ionization_Penalty>
3.75756e-07

> <r_epik_Ionization_Penalty_Charging>
3.52005e-07

> <r_epik_Ionization_Penalty_Neutral>
2.37506e-08

> <r_epik_State_Penalty>
-0

> <r_epik_Charging_Adjusted_Penalty>
3.52005e-07

> <i_epik_Tot_Q>
0

> <i_epik_Tot_abs_Q>
0

> <r_epik_Metal_State_Penalty>
-0

> <b_epik_Metal_Only>
0

> <s_lp_Force_Field>
OPLS_2005

> <r_lp_Energy>
28.6611

> <b_lp_Chiralities_Consistent>
1

> <s_lp_Variant>
AV-unprocessed.smi:1370-1

> <Gold.Version>
5.8.1

> <Gold.Id.Protein>
6NUR|6NUR_protein|mol2

> <Gold.PLP.Fitness>
48.1800

> <Gold.PLP.PLP>
-44.2442

> <Gold.PLP.part.hbond>
-2.0000

> <Gold.PLP.part.metal>
0.0000

> <Gold.PLP.part.buried>
-4.6660

> <Gold.PLP.part.nonpolar>
-38.9938

> <Gold.PLP.part.repulsive>
0.1714

> <Gold.PLP.ligand.clash>
0.5677

> <Gold.PLP.ligand.torsion>
0.4862

> <Gold.PLP.Chemscore.Hbond>
1.8089

> <Gold.PLP.Chemscore.CHOScore>
0.0000

> <Gold.PLP.Chemscore.Metal>
0.0000

> <Gold.Chemscore.Hbonds>
donor molecule, donor type, donor heavy atom, donor atom, acceptor molecule, acceptor atom, score
      P1  H  6933  6945       L1    10  0.80
      P1  H  7997  8008       L1     1  1.00

> <Gold.PLP.Chemscore.Internal.Correction>
0.0493

> <Gold.Rescore>
     Score         DG    S(hbond)    S(metal)    S(lipo)     H(rot)  DE(clash)    DE(int)     intcor
     17.76     -18.52       1.75        0.00     102.38       1.87       0.17       0.59       ----

> <Gold.Chemscore.Fitness>
17.7570

> <Gold.Chemscore.DG>
-18.5222

> <Gold.Chemscore.ZeroCoef>
-5.4800

> <Gold.Chemscore.Hbond>
1.7503

> <Gold.Chemscore.Metal>
0.0000

> <Gold.Chemscore.Lipo>
102.3844

> <Gold.Chemscore.Internal_Hbond>
0.0000

> <Gold.Chemscore.DEClash>
0.1737

> <Gold.Chemscore.DEInternal>
0.5915

> <Gold.Chemscore.Rot>
1.8682

> <Gold.Chemscore.Internal.Correction>
   9.000000E+99

> <Gold.Chemscore.Hbonds>
donor molecule, donor type, donor heavy atom, donor atom, acceptor molecule, acceptor atom, score
      P1  H  6933  6945       L1    10  0.69
      P1  H  7997  8008       L1     1  0.94

> <Gold.Chemscore.Hbond.Weighted>
-5.8459

> <Gold.Chemscore.Metal.Weighted>
-0.0000

> <Gold.Chemscore.Lipo.Weighted>
-11.9790

> <Gold.Chemscore.Internal_Hbond.Weighted>
0.0000

> <Gold.Chemscore.DEClash.Weighted>
0.1737

> <Gold.Chemscore.DEInternal.Weighted>
0.5915

> <Gold.Chemscore.Rot.Weighted>
4.7827

> <Gold.Chemscore.Internal.Correction.Weighted>
   9.000000E+99

> <Gold.Protein.RotatedTorsions>
[ 6907 6896 6895 6894 ] final   47.69 input  -60.11 | X-H torsion
[ 7974 7965 7964 7962 ] final    5.15 input  175.53 | X-H torsion
[ 8008 7997 7996 7995 ] final  -62.56 input   59.86 | X-H torsion
[ 10167 10162 10161 10158 ] final  -98.33 input  -65.29 | X-H torsion
[ 10718 10713 10712 10709 ] final   97.05 input   66.30 | X-H torsion
[ 10763 10752 10751 10750 ] final -113.09 input  -60.55 | X-H torsion
[ 11005 11000 10999 10996 ] final -101.56 input  -57.11 | X-H torsion

> <Gold.Protein.ActiveResidues>
 VAL166  LYS551  ARG553  GLY616  TRP617  ASP618  TYR619  PRO620  LYS621  CYS622 
 ASP623  PHE694  ASN695  SER759  ASP760  ASP761  ALA762  ILE779  LEU786  VAL792 
 PHE793  MET794  SER795  GLU796  ALA797  LYS798  CYS799  TRP800  GLU811  SER814 

> <Gold.Protein.RotatedAtoms>
  152.2709  134.7933  160.0414 H   0  0  0  0  0  0  0  0  0  0  0  0  # atno 6907 bound_to 6896
  151.8546  133.3441  159.3692 H   0  0  0  0  0  0  0  0  0  0  0  0  # atno 6908 bound_to 6896
  150.7151  134.5193  159.5690 H   0  0  0  0  0  0  0  0  0  0  0  0  # atno 6909 bound_to 6896
  146.2441  140.0427  142.8381 H   0  0  0  0  0  0  0  0  0  0  0  0  # atno 7974 bound_to 7965
  154.4506  140.0993  156.6606 H   0  0  0  0  0  0  0  0  0  0  0  0  # atno 8008 bound_to 7997
  155.5298  140.3481  155.4405 H   0  0  0  0  0  0  0  0  0  0  0  0  # atno 8009 bound_to 7997
  156.0672  140.1340  156.9860 H   0  0  0  0  0  0  0  0  0  0  0  0  # atno 8010 bound_to 7997
  140.2740  143.3325  152.0506 H   0  0  0  0  0  0  0  0  0  0  0  0  # atno 10167 bound_to 10162
  157.6918  131.0597  150.4584 H   0  0  0  0  0  0  0  0  0  0  0  0  # atno 10718 bound_to 10713
  154.8380  135.4467  154.1296 H   0  0  0  0  0  0  0  0  0  0  0  0  # atno 10763 bound_to 10752
  153.2510  135.6926  153.7686 H   0  0  0  0  0  0  0  0  0  0  0  0  # atno 10764 bound_to 10752
  153.6998  135.3373  155.3198 H   0  0  0  0  0  0  0  0  0  0  0  0  # atno 10765 bound_to 10752
  141.1226  133.8488  157.1247 H   0  0  0  0  0  0  0  0  0  0  0  0  # atno 11005 bound_to 11000
  145.1055  140.9372  143.4687 LP  0  0  0  0  0  0  0  0  0  0  0  0  # atno 17320 bound_to 7965
  145.0629  139.3091  143.5871 LP  0  0  0  0  0  0  0  0  0  0  0  0  # atno 17321 bound_to 7965
  139.4981  144.6637  151.6406 LP  0  0  0  0  0  0  0  0  0  0  0  0  # atno 17342 bound_to 10162
  140.5866  143.9853  150.6299 LP  0  0  0  0  0  0  0  0  0  0  0  0  # atno 17343 bound_to 10162
  156.4930  130.4099  149.6396 LP  0  0  0  0  0  0  0  0  0  0  0  0  # atno 17370 bound_to 10713
  156.3399  130.7376  151.2320 LP  0  0  0  0  0  0  0  0  0  0  0  0  # atno 17371 bound_to 10713
  140.0195  134.9952  157.0563 LP  0  0  0  0  0  0  0  0  0  0  0  0  # atno 17394 bound_to 11000
  140.4463  134.1629  155.7177 LP  0  0  0  0  0  0  0  0  0  0  0  0  # atno 17395 bound_to 11000

$$$$
