AV-unprocessed.smi:2477|AV-procd|sdf|9759|dock4
  -GOLD-   2272013403D 1   1.00000     0.00000
 Structure written by MMmdl.
 51 53  0  0  0  0  0  0  0  0  1 V2000
  153.3891  141.1380  160.0495 C   0  0  0  0  0  0  0  0  0  0  0  0
  152.7948  142.2063  159.2416 N   0  0  0  0  0  0  0  0  0  0  0  0
  153.2708  143.5131  159.4407 C   0  0  0  0  0  0  0  0  0  0  0  0
  152.7840  144.5519  158.7479 C   0  0  0  0  0  0  0  0  0  0  0  0
  151.7454  144.3034  157.7770 C   0  0  0  0  0  0  0  0  0  0  0  0
  151.2780  143.0477  157.5612 C   0  0  0  0  0  0  0  0  0  0  0  0
  150.2679  142.7146  156.6414 N   0  0  0  0  0  0  0  0  0  0  0  0
  150.2197  141.7098  155.7474 C   0  0  0  0  0  0  0  0  0  0  0  0
  151.0881  140.8554  155.5741 O   0  0  0  0  0  0  0  0  0  0  0  0
  149.0617  141.7317  155.0715 N   0  0  0  0  0  0  0  0  0  0  0  0
  148.6390  140.7505  154.0742 C   0  0  2  0  0  0  0  0  0  0  0  0
  147.3537  141.2593  153.3918 C   0  0  0  0  0  0  0  0  0  0  0  0
  146.7963  140.2380  152.3881 C   0  0  0  0  0  0  0  0  0  0  0  0
  146.5558  138.8778  153.0589 C   0  0  0  0  0  0  0  0  0  0  0  0
  147.8406  138.3588  153.7200 C   0  0  0  0  0  0  0  0  0  0  0  0
  148.4042  139.3704  154.7341 C   0  0  1  0  0  0  0  0  0  0  0  0
  149.6440  138.8481  155.1985 O   0  0  0  0  0  0  0  0  0  0  0  0
  149.5901  137.5141  155.6913 C   0  0  0  0  0  0  0  0  0  0  0  0
  148.9913  137.5542  157.0978 C   0  0  0  0  0  0  0  0  0  0  0  0
  150.1577  137.8962  158.0345 C   0  0  0  0  0  0  0  0  0  0  0  0
  151.4458  137.6047  157.2488 C   0  0  0  0  0  0  0  0  0  0  0  0
  151.0025  136.9713  155.9271 C   0  0  0  0  0  0  0  0  0  0  0  0
  151.8170  141.9111  158.3340 C   0  0  0  0  0  0  0  0  0  0  0  0
  151.4181  140.7537  158.1802 O   0  0  0  0  0  0  0  0  0  0  0  0
  154.1577  141.5030  160.7313 H   0  0  0  0  0  0  0  0  0  0  0  0
  153.8543  140.3870  159.4093 H   0  0  0  0  0  0  0  0  0  0  0  0
  152.6269  140.6447  160.6542 H   0  0  0  0  0  0  0  0  0  0  0  0
  154.0480  143.6172  160.1835 H   0  0  0  0  0  0  0  0  0  0  0  0
  153.1607  145.5510  158.9110 H   0  0  0  0  0  0  0  0  0  0  0  0
  151.3550  145.1575  157.2486 H   0  0  0  0  0  0  0  0  0  0  0  0
  149.4452  143.2970  156.6994 H   0  0  0  0  0  0  0  0  0  0  0  0
  148.4057  142.4687  155.2836 H   0  0  0  0  0  0  0  0  0  0  0  0
  149.4066  140.6475  153.3047 H   0  0  0  0  0  0  0  0  0  0  0  0
  146.5937  141.4710  154.1455 H   0  0  0  0  0  0  0  0  0  0  0  0
  147.5514  142.2024  152.8810 H   0  0  0  0  0  0  0  0  0  0  0  0
  145.8664  140.6096  151.9567 H   0  0  0  0  0  0  0  0  0  0  0  0
  147.4961  140.1197  151.5598 H   0  0  0  0  0  0  0  0  0  0  0  0
  145.7694  138.9711  153.8089 H   0  0  0  0  0  0  0  0  0  0  0  0
  146.1990  138.1572  152.3227 H   0  0  0  0  0  0  0  0  0  0  0  0
  147.6430  137.4073  154.2146 H   0  0  0  0  0  0  0  0  0  0  0  0
  148.5874  138.1563  152.9512 H   0  0  0  0  0  0  0  0  0  0  0  0
  147.6830  139.4769  155.5476 H   0  0  0  0  0  0  0  0  0  0  0  0
  148.9991  136.8767  155.0320 H   0  0  0  0  0  0  0  0  0  0  0  0
  148.1615  138.2569  157.1819 H   0  0  0  0  0  0  0  0  0  0  0  0
  148.6058  136.5662  157.3517 H   0  0  0  0  0  0  0  0  0  0  0  0
  150.1247  138.9492  158.3169 H   0  0  0  0  0  0  0  0  0  0  0  0
  150.1040  137.3105  158.9530 H   0  0  0  0  0  0  0  0  0  0  0  0
  151.9699  138.5404  157.0490 H   0  0  0  0  0  0  0  0  0  0  0  0
  152.1296  136.9583  157.7997 H   0  0  0  0  0  0  0  0  0  0  0  0
  150.9551  135.8878  156.0435 H   0  0  0  0  0  0  0  0  0  0  0  0
  151.6919  137.1800  155.1089 H   0  0  0  0  0  0  0  0  0  0  0  0
  1  2  1  0  0  0  0
  1 25  1  0  0  0  0
  1 26  1  0  0  0  0
  1 27  1  0  0  0  0
  2 23  1  0  0  0  0
  2  3  1  0  0  0  0
  3  4  2  0  0  0  0
  3 28  1  0  0  0  0
  4  5  1  0  0  0  0
  4 29  1  0  0  0  0
  5  6  2  0  0  0  0
  5 30  1  0  0  0  0
  6  7  1  0  0  0  0
  6 23  1  0  0  0  0
  7  8  1  0  0  0  0
  7 31  1  0  0  0  0
  8  9  2  0  0  0  0
  8 10  1  0  0  0  0
 10 11  1  0  0  0  0
 10 32  1  0  0  0  0
 11 16  1  0  0  0  0
 11 12  1  0  0  0  0
 11 33  1  0  0  0  0
 12 13  1  0  0  0  0
 12 34  1  0  0  0  0
 12 35  1  0  0  0  0
 13 14  1  0  0  0  0
 13 36  1  0  0  0  0
 13 37  1  0  0  0  0
 14 15  1  0  0  0  0
 14 38  1  0  0  0  0
 14 39  1  0  0  0  0
 15 16  1  0  0  0  0
 15 40  1  0  0  0  0
 15 41  1  0  0  0  0
 16 17  1  0  0  0  0
 16 42  1  0  0  0  0
 17 18  1  0  0  0  0
 18 22  1  0  0  0  0
 18 19  1  0  0  0  0
 18 43  1  0  0  0  0
 19 20  1  0  0  0  0
 19 44  1  0  0  0  0
 19 45  1  0  0  0  0
 20 21  1  0  0  0  0
 20 46  1  0  0  0  0
 20 47  1  0  0  0  0
 21 22  1  0  0  0  0
 21 48  1  0  0  0  0
 21 49  1  0  0  0  0
 22 50  1  0  0  0  0
 22 51  1  0  0  0  0
 23 24  2  0  0  0  0
M  END
> <s_m_source_file>
AV-unprocessed.smi

> <i_m_source_file_index>
2477

> <i_lp_mmshare_version>
43012

> <i_f3d_flags>
0

> <s_epik_input>
W0NIM11uMVtjSF1bY0hdW2NIXWMoYzE9TylbTkhdQyg9TylbTkhdW0NAQEhdMltDSDJdW0NIMl1bQ0gyXVtDSDJdW0NASF0yT1tDSF0zW0NIMl1bQ0gyXVtDSDJdW0NIMl0z

> <s_epik_cmdline>
J2VwaWtfcHl0aG9uJywgJy1waCcsICc3LjAnLCAnLXRuJywgJzgnLCAnLW1hJywgJzIwMCcsICctbWV0YWxfYmluZGluZycsICctaW1hZScsICc8aW5maWxlLm1hZT4nLCAnLW9tYWUnLCAnPG91dGZpbGUubWFlPic=

> <r_lp_tautomer_probability>
1

> <r_epik_Ionization_Penalty>
2.40753e-05

> <r_epik_Ionization_Penalty_Charging>
4.84018e-06

> <r_epik_Ionization_Penalty_Neutral>
1.92352e-05

> <r_epik_State_Penalty>
-0

> <r_epik_Charging_Adjusted_Penalty>
4.84018e-06

> <i_epik_Tot_Q>
0

> <i_epik_Tot_abs_Q>
0

> <r_epik_Metal_State_Penalty>
-0

> <b_epik_Metal_Only>
0

> <s_lp_Force_Field>
OPLS_2005

> <r_lp_Energy>
41.4176

> <b_lp_Chiralities_Consistent>
1

> <s_lp_Variant>
AV-unprocessed.smi:2477-1

> <Gold.Version>
5.8.1

> <Gold.Id.Protein>
6NUR|6NUR_protein|mol2

> <Gold.PLP.Fitness>
45.1245

> <Gold.PLP.PLP>
-42.0386

> <Gold.PLP.part.hbond>
-2.9453

> <Gold.PLP.part.metal>
0.0000

> <Gold.PLP.part.buried>
-2.2347

> <Gold.PLP.part.nonpolar>
-36.9446

> <Gold.PLP.part.repulsive>
0.3465

> <Gold.PLP.ligand.clash>
0.0000

> <Gold.PLP.ligand.torsion>
0.5677

> <Gold.PLP.Chemscore.Hbond>
1.3866

> <Gold.PLP.Chemscore.CHOScore>
0.0000

> <Gold.PLP.Chemscore.Metal>
0.0000

> <Gold.Chemscore.Hbonds>
donor molecule, donor type, donor heavy atom, donor atom, acceptor molecule, acceptor atom, score
      L1  H     7    31       P1  8028  0.64
      L1  H    10    32       P1  8028  0.15
      P1  H  7989  7998       L1     9  0.55

> <Gold.PLP.Chemscore.Internal.Correction>
0.0616

> <Gold.Rescore>
     Score         DG    S(hbond)    S(metal)    S(lipo)     H(rot)  DE(clash)    DE(int)     intcor
     15.46     -20.30       1.35        0.00     117.82       1.36       1.18       3.65       ----

> <Gold.Chemscore.Fitness>
15.4640

> <Gold.Chemscore.DG>
-20.2976

> <Gold.Chemscore.ZeroCoef>
-5.4800

> <Gold.Chemscore.Hbond>
1.3490

> <Gold.Chemscore.Metal>
0.0000

> <Gold.Chemscore.Lipo>
117.8157

> <Gold.Chemscore.Internal_Hbond>
0.0000

> <Gold.Chemscore.DEClash>
1.1837

> <Gold.Chemscore.DEInternal>
3.6499

> <Gold.Chemscore.Rot>
1.3564

> <Gold.Chemscore.Internal.Correction>
   9.000000E+99

> <Gold.Chemscore.Hbonds>
donor molecule, donor type, donor heavy atom, donor atom, acceptor molecule, acceptor atom, score
      L1  H     7    31       P1  8028  0.64
      L1  H    10    32       P1  8028  0.16
      P1  H  7989  7998       L1     9  0.35

> <Gold.Chemscore.Hbond.Weighted>
-4.5056

> <Gold.Chemscore.Metal.Weighted>
-0.0000

> <Gold.Chemscore.Lipo.Weighted>
-13.7844

> <Gold.Chemscore.Internal_Hbond.Weighted>
0.0000

> <Gold.Chemscore.DEClash.Weighted>
1.1837

> <Gold.Chemscore.DEInternal.Weighted>
3.6499

> <Gold.Chemscore.Rot.Weighted>
3.4724

> <Gold.Chemscore.Internal.Correction.Weighted>
   9.000000E+99

> <Gold.Protein.RotatedTorsions>
[ 6907 6896 6895 6894 ] final   97.65 input  -60.11 | X-H torsion
[ 7974 7965 7964 7962 ] final  179.64 input  175.53 | X-H torsion
[ 8008 7997 7996 7995 ] final  -69.24 input   59.86 | X-H torsion
[ 10167 10162 10161 10158 ] final  133.12 input  -65.29 | X-H torsion
[ 10718 10713 10712 10709 ] final   16.75 input   66.30 | X-H torsion
[ 10763 10752 10751 10750 ] final -122.27 input  -60.55 | X-H torsion
[ 11005 11000 10999 10996 ] final   -9.12 input  -57.11 | X-H torsion

> <Gold.Protein.ActiveResidues>
 VAL166  LYS551  ARG553  GLY616  TRP617  ASP618  TYR619  PRO620  LYS621  CYS622 
 ASP623  PHE694  ASN695  SER759  ASP760  ASP761  ALA762  ILE779  LEU786  VAL792 
 PHE793  MET794  SER795  GLU796  ALA797  LYS798  CYS799  TRP800  GLU811  SER814 

> <Gold.Protein.RotatedAtoms>
  152.5420  134.0701  159.8189 H   0  0  0  0  0  0  0  0  0  0  0  0  # atno 6907 bound_to 6896
  151.0817  133.5378  159.2627 H   0  0  0  0  0  0  0  0  0  0  0  0  # atno 6908 bound_to 6896
  151.2202  135.0524  159.9001 H   0  0  0  0  0  0  0  0  0  0  0  0  # atno 6909 bound_to 6896
  144.7144  140.0579  143.6433 H   0  0  0  0  0  0  0  0  0  0  0  0  # atno 7974 bound_to 7965
  154.4924  140.0857  156.7623 H   0  0  0  0  0  0  0  0  0  0  0  0  # atno 8008 bound_to 7997
  155.4198  140.3445  155.4252 H   0  0  0  0  0  0  0  0  0  0  0  0  # atno 8009 bound_to 7997
  156.1348  140.1512  156.8999 H   0  0  0  0  0  0  0  0  0  0  0  0  # atno 8010 bound_to 7997
  139.5310  144.6631  151.4950 H   0  0  0  0  0  0  0  0  0  0  0  0  # atno 10167 bound_to 10162
  157.0723  130.6353  149.5808 H   0  0  0  0  0  0  0  0  0  0  0  0  # atno 10718 bound_to 10713
  154.8686  135.4138  154.2755 H   0  0  0  0  0  0  0  0  0  0  0  0  # atno 10763 bound_to 10752
  153.3657  135.7005  153.6682 H   0  0  0  0  0  0  0  0  0  0  0  0  # atno 10764 bound_to 10752
  153.5565  135.3618  155.2753 H   0  0  0  0  0  0  0  0  0  0  0  0  # atno 10765 bound_to 10752
  140.7307  133.8751  155.8891 H   0  0  0  0  0  0  0  0  0  0  0  0  # atno 11005 bound_to 11000
  145.9889  139.2999  143.0997 LP  0  0  0  0  0  0  0  0  0  0  0  0  # atno 17320 bound_to 7965
  145.8925  140.9294  143.0544 LP  0  0  0  0  0  0  0  0  0  0  0  0  # atno 17321 bound_to 7965
  140.6488  143.8738  150.6765 LP  0  0  0  0  0  0  0  0  0  0  0  0  # atno 17342 bound_to 10162
  140.2097  143.3893  152.1728 LP  0  0  0  0  0  0  0  0  0  0  0  0  # atno 17343 bound_to 10162
  155.9947  130.5012  150.7430 LP  0  0  0  0  0  0  0  0  0  0  0  0  # atno 17370 bound_to 10713
  157.4868  131.0907  151.0473 LP  0  0  0  0  0  0  0  0  0  0  0  0  # atno 17371 bound_to 10713
  140.9923  134.1262  157.4396 LP  0  0  0  0  0  0  0  0  0  0  0  0  # atno 17394 bound_to 11000
  139.8827  135.0044  156.6247 LP  0  0  0  0  0  0  0  0  0  0  0  0  # atno 17395 bound_to 11000

$$$$
