AV-unprocessed.smi:1214|AV-procd|sdf|5092|dock4
  -GOLD-   22720 4143D 1   1.00000     0.00000
 Structure written by MMmdl.
 33 34  0  0  0  0  0  0  0  0  1 V2000
  147.2884  133.1939  152.6287 C   0  0  0  0  0  0  0  0  0  0  0  0
  146.0975  133.1645  151.6839 C   0  0  0  0  0  0  0  0  0  0  0  0
  145.4271  131.9430  151.4605 C   0  0  0  0  0  0  0  0  0  0  0  0
  144.3260  131.9143  150.5880 C   0  0  0  0  0  0  0  0  0  0  0  0
  143.9393  133.1165  149.9729 C   0  0  0  0  0  0  0  0  0  0  0  0
  144.5747  134.2878  150.1811 N   0  0  0  0  0  0  0  0  0  0  0  0
  145.6441  134.3348  151.0168 C   0  0  0  0  0  0  0  0  0  0  0  0
  146.3617  135.5362  151.3075 N   0  0  0  0  0  0  0  0  0  0  0  0
  145.9423  136.8022  151.5187 C   0  0  0  0  0  0  0  0  0  0  0  0
  144.7463  137.0872  151.4922 O   0  0  0  0  0  0  0  0  0  0  0  0
  146.8987  137.7103  151.7719 N   0  0  0  0  0  0  0  0  0  0  0  0
  146.6724  139.1260  152.0393 C   0  0  2  0  0  0  0  0  0  0  0  0
  146.9028  139.9940  150.7860 C   0  0  0  0  0  0  0  0  0  0  0  0
  147.0277  141.4603  151.2184 C   0  0  0  0  0  0  0  0  0  0  0  0
  147.7421  141.4364  152.9063 S   0  0  0  0  0  0  0  0  0  0  0  0
  149.1611  141.8187  152.8484 O   0  0  0  0  0  0  0  0  0  0  0  0
  146.8134  142.1116  153.8253 O   0  0  0  0  0  0  0  0  0  0  0  0
  147.6185  139.6239  153.1399 C   0  0  0  0  0  0  0  0  0  0  0  0
  147.4943  132.2052  153.0399 H   0  0  0  0  0  0  0  0  0  0  0  0
  147.0988  133.8703  153.4626 H   0  0  0  0  0  0  0  0  0  0  0  0
  148.1829  133.5313  152.1043 H   0  0  0  0  0  0  0  0  0  0  0  0
  145.7498  131.0366  151.9512 H   0  0  0  0  0  0  0  0  0  0  0  0
  143.7916  130.9956  150.3968 H   0  0  0  0  0  0  0  0  0  0  0  0
  143.0976  133.1404  149.2967 H   0  0  0  0  0  0  0  0  0  0  0  0
  147.3593  135.4103  151.3956 H   0  0  0  0  0  0  0  0  0  0  0  0
  147.8576  137.3916  151.7716 H   0  0  0  0  0  0  0  0  0  0  0  0
  145.6474  139.2776  152.3832 H   0  0  0  0  0  0  0  0  0  0  0  0
  147.8358  139.6912  150.3082 H   0  0  0  0  0  0  0  0  0  0  0  0
  146.1113  139.8619  150.0477 H   0  0  0  0  0  0  0  0  0  0  0  0
  147.6566  142.0485  150.5503 H   0  0  0  0  0  0  0  0  0  0  0  0
  146.0459  141.9303  151.2770 H   0  0  0  0  0  0  0  0  0  0  0  0
  147.2621  139.3971  154.1448 H   0  0  0  0  0  0  0  0  0  0  0  0
  148.6189  139.2058  153.0215 H   0  0  0  0  0  0  0  0  0  0  0  0
  1  2  1  0  0  0  0
  1 19  1  0  0  0  0
  1 20  1  0  0  0  0
  1 21  1  0  0  0  0
  2  7  1  0  0  0  0
  2  3  2  0  0  0  0
  3  4  1  0  0  0  0
  3 22  1  0  0  0  0
  4  5  2  0  0  0  0
  4 23  1  0  0  0  0
  5  6  1  0  0  0  0
  5 24  1  0  0  0  0
  6  7  2  0  0  0  0
  7  8  1  0  0  0  0
  8  9  1  0  0  0  0
  8 25  1  0  0  0  0
  9 10  2  0  0  0  0
  9 11  1  0  0  0  0
 11 12  1  0  0  0  0
 11 26  1  0  0  0  0
 12 18  1  0  0  0  0
 12 13  1  0  0  0  0
 12 27  1  0  0  0  0
 13 14  1  0  0  0  0
 13 28  1  0  0  0  0
 13 29  1  0  0  0  0
 14 15  1  0  0  0  0
 14 30  1  0  0  0  0
 14 31  1  0  0  0  0
 15 16  2  0  0  0  0
 15 17  2  0  0  0  0
 15 18  1  0  0  0  0
 18 32  1  0  0  0  0
 18 33  1  0  0  0  0
M  END
> <s_m_source_file>
AV-unprocessed.smi

> <i_m_source_file_index>
1214

> <i_lp_mmshare_version>
43012

> <i_f3d_flags>
0

> <s_epik_input>
W0NIM11jMVtjSF1bY0hdW2NIXW5jMVtOSF1DKD1PKVtOSF1bQ0BASF0oW0NIMl0yKVtDSDJdW0NIMl1TMig9Tyk9Tw==

> <s_epik_cmdline>
J2VwaWtfcHl0aG9uJywgJy1waCcsICc3LjAnLCAnLXRuJywgJzgnLCAnLW1hJywgJzIwMCcsICctbWV0YWxfYmluZGluZycsICctaW1hZScsICc8aW5maWxlLm1hZT4nLCAnLW9tYWUnLCAnPG91dGZpbGUubWFlPic=

> <r_lp_tautomer_probability>
1

> <r_epik_Ionization_Penalty>
4.18367e-05

> <r_epik_Ionization_Penalty_Charging>
0

> <r_epik_Ionization_Penalty_Neutral>
4.18367e-05

> <r_epik_State_Penalty>
-0

> <r_epik_Charging_Adjusted_Penalty>
0

> <i_epik_Tot_Q>
0

> <i_epik_Tot_abs_Q>
0

> <r_epik_Metal_State_Penalty>
-0

> <b_epik_Metal_Only>
0

> <s_lp_Force_Field>
OPLS_2005

> <r_lp_Energy>
8.88601

> <b_lp_Chiralities_Consistent>
1

> <s_lp_Variant>
AV-unprocessed.smi:1214-1

> <Gold.Version>
5.8.1

> <Gold.Id.Protein>
6NUR|6NUR_protein|mol2

> <Gold.PLP.Fitness>
36.5267

> <Gold.PLP.PLP>
-26.8003

> <Gold.PLP.part.hbond>
-3.8085

> <Gold.PLP.part.metal>
0.0000

> <Gold.PLP.part.buried>
-0.8244

> <Gold.PLP.part.nonpolar>
-24.2275

> <Gold.PLP.part.repulsive>
1.3101

> <Gold.PLP.ligand.clash>
0.0000

> <Gold.PLP.ligand.torsion>
0.6092

> <Gold.PLP.Chemscore.Hbond>
2.6480

> <Gold.PLP.Chemscore.CHOScore>
1.0000

> <Gold.PLP.Chemscore.Metal>
0.0000

> <Gold.Chemscore.Hbonds>
donor molecule, donor type, donor heavy atom, donor atom, acceptor molecule, acceptor atom, score
      L1  H     8    25       P1  7948  0.93
      L1  H    11    26       P1  7948  1.00
      L1  C     5    24       P1 10186  0.96

> <Gold.PLP.Chemscore.Internal.Correction>
0.0009

> <Gold.Rescore>
     Score         DG    S(hbond)    S(metal)    S(lipo)     H(rot)  DE(clash)    DE(int)     intcor
     16.20     -19.38       2.46        0.00      70.54       1.00       2.49       0.69       ----

> <Gold.Chemscore.Fitness>
16.1967

> <Gold.Chemscore.DG>
-19.3760

> <Gold.Chemscore.ZeroCoef>
-5.4800

> <Gold.Chemscore.Hbond>
2.4558

> <Gold.Chemscore.Metal>
0.0000

> <Gold.Chemscore.Lipo>
70.5424

> <Gold.Chemscore.Internal_Hbond>
0.0000

> <Gold.Chemscore.DEClash>
2.4910

> <Gold.Chemscore.DEInternal>
0.6882

> <Gold.Chemscore.Rot>
1.0000

> <Gold.Chemscore.Internal.Correction>
   9.000000E+99

> <Gold.Chemscore.Hbonds>
donor molecule, donor type, donor heavy atom, donor atom, acceptor molecule, acceptor atom, score
      L1  H     8    25       P1  7948  0.79
      L1  H    11    26       P1  7948  0.93

> <Gold.Chemscore.Hbond.Weighted>
-8.2025

> <Gold.Chemscore.Metal.Weighted>
-0.0000

> <Gold.Chemscore.Lipo.Weighted>
-8.2535

> <Gold.Chemscore.Internal_Hbond.Weighted>
0.0000

> <Gold.Chemscore.DEClash.Weighted>
2.4910

> <Gold.Chemscore.DEInternal.Weighted>
0.6882

> <Gold.Chemscore.Rot.Weighted>
2.5600

> <Gold.Chemscore.Internal.Correction.Weighted>
   9.000000E+99

> <Gold.Protein.RotatedTorsions>
[ 6907 6896 6895 6894 ] final   91.90 input  -60.11 | X-H torsion
[ 7974 7965 7964 7962 ] final -162.86 input  175.53 | X-H torsion
[ 8008 7997 7996 7995 ] final -130.60 input   59.86 | X-H torsion
[ 10167 10162 10161 10158 ] final  168.12 input  -65.29 | X-H torsion
[ 10718 10713 10712 10709 ] final  -35.93 input   66.30 | X-H torsion
[ 10763 10752 10751 10750 ] final -137.39 input  -60.55 | X-H torsion
[ 11005 11000 10999 10996 ] final  -82.23 input  -57.11 | X-H torsion

> <Gold.Protein.ActiveResidues>
 VAL166  LYS551  ARG553  GLY616  TRP617  ASP618  TYR619  PRO620  LYS621  CYS622 
 ASP623  PHE694  ASN695  SER759  ASP760  ASP761  ALA762  ILE779  LEU786  VAL792 
 PHE793  MET794  SER795  GLU796  ALA797  LYS798  CYS799  TRP800  GLU811  SER814 

> <Gold.Protein.RotatedAtoms>
  152.5451  134.1586  159.8547 H   0  0  0  0  0  0  0  0  0  0  0  0  # atno 6907 bound_to 6896
  151.1606  133.4840  159.2602 H   0  0  0  0  0  0  0  0  0  0  0  0  # atno 6908 bound_to 6896
  151.1377  135.0174  159.8666 H   0  0  0  0  0  0  0  0  0  0  0  0  # atno 6909 bound_to 6896
  144.7344  140.3192  143.6174 H   0  0  0  0  0  0  0  0  0  0  0  0  # atno 7974 bound_to 7965
  155.2985  140.0451  157.3028 H   0  0  0  0  0  0  0  0  0  0  0  0  # atno 8008 bound_to 7997
  154.5500  140.2314  155.8468 H   0  0  0  0  0  0  0  0  0  0  0  0  # atno 8009 bound_to 7997
  156.1958  140.3038  155.9432 H   0  0  0  0  0  0  0  0  0  0  0  0  # atno 8010 bound_to 7997
  139.4960  144.3848  151.9582 H   0  0  0  0  0  0  0  0  0  0  0  0  # atno 10167 bound_to 10162
  156.3328  130.4282  149.7857 H   0  0  0  0  0  0  0  0  0  0  0  0  # atno 10718 bound_to 10713
  154.8663  135.3643  154.5215 H   0  0  0  0  0  0  0  0  0  0  0  0  # atno 10763 bound_to 10752
  153.5845  135.7017  153.5454 H   0  0  0  0  0  0  0  0  0  0  0  0  # atno 10764 bound_to 10752
  153.3427  135.4093  155.1547 H   0  0  0  0  0  0  0  0  0  0  0  0  # atno 10765 bound_to 10752
  141.1664  133.7234  156.8540 H   0  0  0  0  0  0  0  0  0  0  0  0  # atno 11005 bound_to 11000
  145.7586  139.1817  143.2280 LP  0  0  0  0  0  0  0  0  0  0  0  0  # atno 17320 bound_to 7965
  146.1004  140.7550  142.9552 LP  0  0  0  0  0  0  0  0  0  0  0  0  # atno 17321 bound_to 7965
  140.3285  144.3344  150.5993 LP  0  0  0  0  0  0  0  0  0  0  0  0  # atno 17342 bound_to 10162
  140.5664  143.2185  151.7675 LP  0  0  0  0  0  0  0  0  0  0  0  0  # atno 17343 bound_to 10162
  156.5123  130.8177  151.3173 LP  0  0  0  0  0  0  0  0  0  0  0  0  # atno 17370 bound_to 10713
  157.7433  130.9910  150.2585 LP  0  0  0  0  0  0  0  0  0  0  0  0  # atno 17371 bound_to 10713
  140.1895  134.8975  157.3044 LP  0  0  0  0  0  0  0  0  0  0  0  0  # atno 17394 bound_to 11000
  140.2305  134.3914  155.7524 LP  0  0  0  0  0  0  0  0  0  0  0  0  # atno 17395 bound_to 11000

$$$$
