AV-unprocessed.smi:1973|AV-procd|sdf|7979|dock7
  -GOLD-   2272010153D 1   1.00000     0.00000
 Structure written by MMmdl.
 48 50  0  0  0  0  0  0  0  0  2 V2000
  146.5337  142.5575  154.3881 C   0  0  0  0  0  0  0  0  0  0  0  0
  147.4419  141.7100  153.7064 O   0  0  0  0  0  0  0  0  0  0  0  0
  148.0175  140.7344  154.5585 C   0  0  0  0  0  0  0  0  0  0  0  0
  148.3971  139.5032  153.7217 C   0  0  0  0  0  0  0  0  0  0  0  0
  149.4272  138.6974  154.3851 N   0  0  0  0  0  0  0  0  0  0  0  0
  149.1070  137.3546  154.5025 N   0  0  0  0  0  0  0  0  0  0  0  0
  149.9327  136.5372  155.0724 C   0  0  0  0  0  0  0  0  0  0  0  0
  149.6274  135.0865  155.2189 C   0  0  0  0  0  0  0  0  0  0  0  0
  150.1368  134.4005  156.1067 O   0  0  0  0  0  0  0  0  0  0  0  0
  148.7635  134.5840  154.3184 N   0  0  0  0  0  0  0  0  0  0  0  0
  148.3082  133.1983  154.2733 C   0  0  0  0  0  0  0  0  0  0  0  0
  147.2248  132.9779  153.2006 C   0  0  1  0  0  0  0  0  0  0  0  0
  146.8309  131.5168  153.0054 C   0  0  0  0  0  0  0  0  0  0  0  0
  145.4793  131.6305  152.3067 C   0  0  0  0  0  0  0  0  0  0  0  0
  144.8245  132.8108  152.9101 N   0  3  2  0  0  0  0  0  0  0  0  0
  143.9046  133.5191  151.9950 C   0  0  0  0  0  0  0  0  0  0  0  0
  143.3162  132.6307  150.9250 C   0  0  0  0  0  0  0  0  0  0  0  0
  144.4158  133.6109  150.5773 C   0  0  0  0  0  0  0  0  0  0  0  0
  145.8837  133.6696  153.4900 C   0  0  0  0  0  0  0  0  0  0  0  0
  151.2034  137.0083  155.5971 C   0  0  0  0  0  0  0  0  0  0  0  0
  151.4980  138.3218  155.4818 C   0  0  0  0  0  0  0  0  0  0  0  0
  150.5807  139.2685  154.8462 C   0  0  0  0  0  0  0  0  0  0  0  0
  150.8219  140.4704  154.7390 O   0  0  0  0  0  0  0  0  0  0  0  0
  146.1141  143.2824  153.6905 H   0  0  0  0  0  0  0  0  0  0  0  0
  147.0327  143.1091  155.1859 H   0  0  0  0  0  0  0  0  0  0  0  0
  145.7090  141.9882  154.8188 H   0  0  0  0  0  0  0  0  0  0  0  0
  148.9003  141.1455  155.0508 H   0  0  0  0  0  0  0  0  0  0  0  0
  147.3057  140.4545  155.3369 H   0  0  0  0  0  0  0  0  0  0  0  0
  147.5070  138.8968  153.5445 H   0  0  0  0  0  0  0  0  0  0  0  0
  148.7364  139.8147  152.7321 H   0  0  0  0  0  0  0  0  0  0  0  0
  148.3849  135.2144  153.6258 H   0  0  0  0  0  0  0  0  0  0  0  0
  149.1565  132.5355  154.0953 H   0  0  0  0  0  0  0  0  0  0  0  0
  147.9183  132.9395  155.2583 H   0  0  0  0  0  0  0  0  0  0  0  0
  147.5929  133.3462  152.2411 H   0  0  0  0  0  0  0  0  0  0  0  0
  147.5611  130.9545  152.4227 H   0  0  0  0  0  0  0  0  0  0  0  0
  146.7116  131.0212  153.9700 H   0  0  0  0  0  0  0  0  0  0  0  0
  145.6366  131.7983  151.2396 H   0  0  0  0  0  0  0  0  0  0  0  0
  144.8705  130.7330  152.4191 H   0  0  0  0  0  0  0  0  0  0  0  0
  143.3170  134.3277  152.4265 H   0  0  0  0  0  0  0  0  0  0  0  0
  143.5705  131.5722  150.9367 H   0  0  0  0  0  0  0  0  0  0  0  0
  142.3130  132.8633  150.5739 H   0  0  0  0  0  0  0  0  0  0  0  0
  144.1357  134.4888  149.9986 H   0  0  0  0  0  0  0  0  0  0  0  0
  145.4011  133.2037  150.3570 H   0  0  0  0  0  0  0  0  0  0  0  0
  145.7040  133.7416  154.5633 H   0  0  0  0  0  0  0  0  0  0  0  0
  145.8678  134.6838  153.0874 H   0  0  0  0  0  0  0  0  0  0  0  0
  151.8998  136.3324  156.0720 H   0  0  0  0  0  0  0  0  0  0  0  0
  152.4379  138.6863  155.8694 H   0  0  0  0  0  0  0  0  0  0  0  0
  144.2764  132.4733  153.6886 H   0  0  0  0  0  0  0  0  0  0  0  0
  1  2  1  0  0  0  0
  1 24  1  0  0  0  0
  1 25  1  0  0  0  0
  1 26  1  0  0  0  0
  2  3  1  0  0  0  0
  3  4  1  0  0  0  0
  3 27  1  0  0  0  0
  3 28  1  0  0  0  0
  4  5  1  0  0  0  0
  4 29  1  0  0  0  0
  4 30  1  0  0  0  0
  5 22  1  0  0  0  0
  5  6  1  0  0  0  0
  6  7  2  0  0  0  0
  7  8  1  0  0  0  0
  7 20  1  0  0  0  0
  8  9  2  0  0  0  0
  8 10  1  0  0  0  0
 10 11  1  0  0  0  0
 10 31  1  0  0  0  0
 11 12  1  0  0  0  0
 11 32  1  0  0  0  0
 11 33  1  0  0  0  0
 12 19  1  0  0  0  0
 12 13  1  0  0  0  0
 12 34  1  0  0  0  0
 13 14  1  0  0  0  0
 13 35  1  0  0  0  0
 13 36  1  0  0  0  0
 14 15  1  0  0  0  0
 14 37  1  0  0  0  0
 14 38  1  0  0  0  0
 15 16  1  0  0  0  0
 15 19  1  0  0  0  0
 15 48  1  0  0  0  0
 16 18  1  0  0  0  0
 16 17  1  0  0  0  0
 16 39  1  0  0  0  0
 17 18  1  0  0  0  0
 17 40  1  0  0  0  0
 17 41  1  0  0  0  0
 18 42  1  0  0  0  0
 18 43  1  0  0  0  0
 19 44  1  0  0  0  0
 19 45  1  0  0  0  0
 20 21  2  0  0  0  0
 20 46  1  0  0  0  0
 21 22  1  0  0  0  0
 21 47  1  0  0  0  0
 22 23  2  0  0  0  0
M  CHG  1  15   1
M  END
> <s_m_source_file>
AV-unprocessed.smi

> <i_m_source_file_index>
1973

> <i_lp_mmshare_version>
43012

> <i_f3d_flags>
0

> <s_epik_input>
W0NIM11PW0NIMl1bQ0gyXW4xbmMoW2NIXVtjSF1jMT1PKUMoPU8pW05IXVtDSDJdW0NAQEhdMltDSDJdW0NIMl1OKFtDSDJdMilbQ0hdM1tDSDJdW0NIMl0z

> <s_epik_cmdline>
J2VwaWtfcHl0aG9uJywgJy1waCcsICc3LjAnLCAnLXRuJywgJzgnLCAnLW1hJywgJzIwMCcsICctbWV0YWxfYmluZGluZycsICctaW1hZScsICc8aW5maWxlLm1hZT4nLCAnLW9tYWUnLCAnPG91dGZpbGUubWFlPic=

> <r_lp_tautomer_probability>
1

> <r_epik_Ionization_Penalty>
0.000225706

> <r_epik_Ionization_Penalty_Charging>
0.000223776

> <r_epik_Ionization_Penalty_Neutral>
1.93004e-06

> <r_epik_State_Penalty>
-0

> <r_epik_Charging_Adjusted_Penalty>
0.000223776

> <i_epik_Tot_Q>
1

> <i_epik_Tot_abs_Q>
1

> <r_epik_Metal_State_Penalty>
-0

> <b_epik_Metal_Only>
0

> <s_lp_Force_Field>
OPLS_2005

> <r_lp_Energy>
57.1885

> <b_lp_Chiralities_Consistent>
1

> <s_lp_Variant>
AV-unprocessed.smi:1973-4

> <Gold.Version>
5.8.1

> <Gold.Id.Protein>
6NUR|6NUR_protein|mol2

> <Gold.PLP.Fitness>
43.7384

> <Gold.PLP.PLP>
-34.7600

> <Gold.PLP.part.hbond>
-2.6952

> <Gold.PLP.part.metal>
0.0000

> <Gold.PLP.part.buried>
-4.0880

> <Gold.PLP.part.nonpolar>
-31.2961

> <Gold.PLP.part.repulsive>
2.3299

> <Gold.PLP.ligand.clash>
0.0000

> <Gold.PLP.ligand.torsion>
1.2817

> <Gold.PLP.Chemscore.Hbond>
3.3605

> <Gold.PLP.Chemscore.CHOScore>
0.0000

> <Gold.PLP.Chemscore.Metal>
0.0000

> <Gold.Chemscore.Hbonds>
donor molecule, donor type, donor heavy atom, donor atom, acceptor molecule, acceptor atom, score
      L1  H    10    31       P1  7948  0.66
      L1  H    15    48       P1 10957  1.85
      P1  H  7989  7998       L1    23  1.00

> <Gold.PLP.Chemscore.Internal.Correction>
1.4602

> <Gold.Rescore>
     Score         DG    S(hbond)    S(metal)    S(lipo)     H(rot)  DE(clash)    DE(int)     intcor
     12.71     -15.11       1.74        0.00      75.74       1.97       0.96       1.44       ----

> <Gold.Chemscore.Fitness>
12.7097

> <Gold.Chemscore.DG>
-15.1110

> <Gold.Chemscore.ZeroCoef>
-5.4800

> <Gold.Chemscore.Hbond>
1.7412

> <Gold.Chemscore.Metal>
0.0000

> <Gold.Chemscore.Lipo>
75.7394

> <Gold.Chemscore.Internal_Hbond>
0.0000

> <Gold.Chemscore.DEClash>
0.9603

> <Gold.Chemscore.DEInternal>
1.4410

> <Gold.Chemscore.Rot>
1.9711

> <Gold.Chemscore.Internal.Correction>
   9.000000E+99

> <Gold.Chemscore.Hbonds>
donor molecule, donor type, donor heavy atom, donor atom, acceptor molecule, acceptor atom, score
      L1  H    10    31       P1  7948  0.62
      L1  H    15    48       P1 10957  0.31
      P1  H  7989  7998       L1    23  0.85

> <Gold.Chemscore.Hbond.Weighted>
-5.8155

> <Gold.Chemscore.Metal.Weighted>
-0.0000

> <Gold.Chemscore.Lipo.Weighted>
-8.8615

> <Gold.Chemscore.Internal_Hbond.Weighted>
0.0000

> <Gold.Chemscore.DEClash.Weighted>
0.9603

> <Gold.Chemscore.DEInternal.Weighted>
1.4410

> <Gold.Chemscore.Rot.Weighted>
5.0460

> <Gold.Chemscore.Internal.Correction.Weighted>
   9.000000E+99

> <Gold.Protein.RotatedTorsions>
[ 6907 6896 6895 6894 ] final -141.54 input  -60.11 | X-H torsion
[ 7974 7965 7964 7962 ] final  102.45 input  175.53 | X-H torsion
[ 8008 7997 7996 7995 ] final  115.28 input   59.86 | X-H torsion
[ 10167 10162 10161 10158 ] final -136.91 input  -65.29 | X-H torsion
[ 10718 10713 10712 10709 ] final -153.99 input   66.30 | X-H torsion
[ 10763 10752 10751 10750 ] final   51.49 input  -60.55 | X-H torsion
[ 11005 11000 10999 10996 ] final  -22.20 input  -57.11 | X-H torsion

> <Gold.Protein.ActiveResidues>
 VAL166  LYS551  ARG553  GLY616  TRP617  ASP618  TYR619  PRO620  LYS621  CYS622 
 ASP623  PHE694  ASN695  SER759  ASP760  ASP761  ALA762  ILE779  LEU786  VAL792 
 PHE793  MET794  SER795  GLU796  ALA797  LYS798  CYS799  TRP800  GLU811  SER814 

> <Gold.Protein.RotatedAtoms>
  151.0752  133.5434  159.2624 H   0  0  0  0  0  0  0  0  0  0  0  0  # atno 6907 bound_to 6896
  151.2359  135.0570  159.9016 H   0  0  0  0  0  0  0  0  0  0  0  0  # atno 6908 bound_to 6896
  152.5417  134.0534  159.8173 H   0  0  0  0  0  0  0  0  0  0  0  0  # atno 6909 bound_to 6896
  145.3589  139.2422  143.3517 H   0  0  0  0  0  0  0  0  0  0  0  0  # atno 7974 bound_to 7965
  156.2372  140.2942  156.0345 H   0  0  0  0  0  0  0  0  0  0  0  0  # atno 8008 bound_to 7997
  155.2057  140.0411  157.2942 H   0  0  0  0  0  0  0  0  0  0  0  0  # atno 8009 bound_to 7997
  154.6101  140.2449  155.7688 H   0  0  0  0  0  0  0  0  0  0  0  0  # atno 8010 bound_to 7997
  139.8631  143.7052  152.2648 H   0  0  0  0  0  0  0  0  0  0  0  0  # atno 10167 bound_to 10162
  156.4932  130.8357  151.2579 H   0  0  0  0  0  0  0  0  0  0  0  0  # atno 10718 bound_to 10713
  152.9785  135.5844  154.4424 H   0  0  0  0  0  0  0  0  0  0  0  0  # atno 10763 bound_to 10752
  154.4024  135.2769  155.2090 H   0  0  0  0  0  0  0  0  0  0  0  0  # atno 10764 bound_to 10752
  154.3915  135.6124  153.5900 H   0  0  0  0  0  0  0  0  0  0  0  0  # atno 10765 bound_to 10752
  140.8634  133.7772  156.0101 H   0  0  0  0  0  0  0  0  0  0  0  0  # atno 11005 bound_to 11000
  146.2936  140.4219  142.8730 LP  0  0  0  0  0  0  0  0  0  0  0  0  # atno 17320 bound_to 7965
  144.8661  140.7208  143.6076 LP  0  0  0  0  0  0  0  0  0  0  0  0  # atno 17321 bound_to 7965
  139.7355  144.7572  151.0735 LP  0  0  0  0  0  0  0  0  0  0  0  0  # atno 17342 bound_to 10162
  140.7772  143.5036  150.9740 LP  0  0  0  0  0  0  0  0  0  0  0  0  # atno 17343 bound_to 10162
  157.7471  131.0006  150.2933 LP  0  0  0  0  0  0  0  0  0  0  0  0  # atno 17370 bound_to 10713
  156.3405  130.3814  149.7413 LP  0  0  0  0  0  0  0  0  0  0  0  0  # atno 17371 bound_to 10713
  140.8656  134.2788  157.5214 LP  0  0  0  0  0  0  0  0  0  0  0  0  # atno 17394 bound_to 11000
  139.8708  134.9541  156.4165 LP  0  0  0  0  0  0  0  0  0  0  0  0  # atno 17395 bound_to 11000

$$$$
