AV-unprocessed.smi:1046|AV-procd|sdf|4553|dock4
  -GOLD-   22720 2583D 1   1.00000     0.00000
 Structure written by MMmdl.
 54 56  0  0  0  0  0  0  0  0  3 V2000
  152.0947  143.8787  160.1249 C   0  0  0  0  0  0  0  0  0  0  0  0
  151.8973  142.8447  159.0292 C   0  0  0  0  0  0  0  0  0  0  0  0
  151.0488  143.1658  157.9455 C   0  0  0  0  0  0  0  0  0  0  0  0
  150.8848  142.1991  156.9603 C   0  0  0  0  0  0  0  0  0  0  0  0
  150.1250  142.2048  155.7886 N   0  3  0  0  0  0  0  0  0  0  0  0
  150.2794  141.0170  155.1402 C   0  0  0  0  0  0  0  0  0  0  0  0
  151.1369  140.2573  155.8757 N   0  0  0  0  0  0  0  0  0  0  0  0
  151.6406  138.8980  155.6399 C   0  0  0  0  0  0  0  0  0  0  0  0
  150.7526  138.0790  154.6807 C   0  0  1  0  0  0  0  0  0  0  0  0
  151.5769  137.1022  154.0781 O   0  0  0  0  0  0  0  0  0  0  0  0
  149.5754  137.3781  155.3942 C   0  0  0  0  0  0  0  0  0  0  0  0
  149.0683  136.1970  154.6504 N   0  3  0  0  0  0  0  0  0  0  0  0
  147.5883  136.0524  154.7067 C   0  0  0  0  0  0  0  0  0  0  0  0
  147.1355  134.8287  153.8844 C   0  0  0  0  0  0  0  0  0  0  0  0
  147.7700  133.5778  154.3076 N   0  0  0  0  0  0  0  0  0  0  0  0
  147.3245  133.0796  155.6133 C   0  0  0  0  0  0  0  0  0  0  0  0
  145.8027  132.9279  155.7669 C   0  0  0  0  0  0  0  0  0  0  0  0
  145.3280  132.0148  154.8021 O   0  0  0  0  0  0  0  0  0  0  0  0
  149.2207  133.7480  154.2345 C   0  0  0  0  0  0  0  0  0  0  0  0
  149.7365  134.9377  155.0699 C   0  0  0  0  0  0  0  0  0  0  0  0
  151.5321  140.9502  157.0250 C   0  0  0  0  0  0  0  0  0  0  0  0
  152.3691  140.6161  158.0866 C   0  0  0  0  0  0  0  0  0  0  0  0
  152.5469  141.5848  159.1001 C   0  0  0  0  0  0  0  0  0  0  0  0
  153.4516  141.2470  160.2730 C   0  0  0  0  0  0  0  0  0  0  0  0
  151.6231  144.8275  159.8672 H   0  0  0  0  0  0  0  0  0  0  0  0
  153.1550  144.0712  160.2900 H   0  0  0  0  0  0  0  0  0  0  0  0
  151.6556  143.5291  161.0596 H   0  0  0  0  0  0  0  0  0  0  0  0
  150.5468  144.1209  157.8886 H   0  0  0  0  0  0  0  0  0  0  0  0
  149.8088  140.7319  154.2102 H   0  0  0  0  0  0  0  0  0  0  0  0
  152.6605  138.9757  155.2598 H   0  0  0  0  0  0  0  0  0  0  0  0
  151.7095  138.4025  156.6097 H   0  0  0  0  0  0  0  0  0  0  0  0
  150.3880  138.7386  153.8945 H   0  0  0  0  0  0  0  0  0  0  0  0
  151.2928  136.9640  153.1875 H   0  0  0  0  0  0  0  0  0  0  0  0
  149.9065  137.0746  156.3888 H   0  0  0  0  0  0  0  0  0  0  0  0
  148.7457  138.0680  155.5515 H   0  0  0  0  0  0  0  0  0  0  0  0
  147.2590  135.9655  155.7428 H   0  0  0  0  0  0  0  0  0  0  0  0
  147.1079  136.9431  154.3037 H   0  0  0  0  0  0  0  0  0  0  0  0
  146.0505  134.7379  153.9177 H   0  0  0  0  0  0  0  0  0  0  0  0
  147.3760  135.0064  152.8352 H   0  0  0  0  0  0  0  0  0  0  0  0
  147.7700  132.0975  155.7780 H   0  0  0  0  0  0  0  0  0  0  0  0
  147.7036  133.7126  156.4150 H   0  0  0  0  0  0  0  0  0  0  0  0
  145.5324  132.5533  156.7537 H   0  0  0  0  0  0  0  0  0  0  0  0
  145.3027  133.8868  155.6276 H   0  0  0  0  0  0  0  0  0  0  0  0
  144.4086  132.1800  154.6568 H   0  0  0  0  0  0  0  0  0  0  0  0
  149.7183  132.8302  154.5500 H   0  0  0  0  0  0  0  0  0  0  0  0
  149.5090  133.8967  153.1929 H   0  0  0  0  0  0  0  0  0  0  0  0
  150.8135  135.0330  154.9272 H   0  0  0  0  0  0  0  0  0  0  0  0
  149.5761  134.7664  156.1352 H   0  0  0  0  0  0  0  0  0  0  0  0
  152.8608  139.6561  158.1420 H   0  0  0  0  0  0  0  0  0  0  0  0
  153.8024  140.2157  160.2222 H   0  0  0  0  0  0  0  0  0  0  0  0
  152.9215  141.3702  161.2177 H   0  0  0  0  0  0  0  0  0  0  0  0
  154.3265  141.8976  160.2786 H   0  0  0  0  0  0  0  0  0  0  0  0
  149.3173  136.3324  153.6811 H   0  0  0  0  0  0  0  0  0  0  0  0
  149.5380  142.9600  155.4570 H   0  0  0  0  0  0  0  0  0  0  0  0
  1  2  1  0  0  0  0
  1 25  1  0  0  0  0
  1 26  1  0  0  0  0
  1 27  1  0  0  0  0
  2 23  1  0  0  0  0
  2  3  2  0  0  0  0
  3  4  1  0  0  0  0
  3 28  1  0  0  0  0
  4 21  2  0  0  0  0
  4  5  1  0  0  0  0
  5  6  2  0  0  0  0
  5 54  1  0  0  0  0
  6  7  1  0  0  0  0
  6 29  1  0  0  0  0
  7  8  1  0  0  0  0
  7 21  1  0  0  0  0
  8  9  1  0  0  0  0
  8 30  1  0  0  0  0
  8 31  1  0  0  0  0
  9 10  1  0  0  0  0
  9 11  1  0  0  0  0
  9 32  1  0  0  0  0
 10 33  1  0  0  0  0
 11 12  1  0  0  0  0
 11 34  1  0  0  0  0
 11 35  1  0  0  0  0
 12 20  1  0  0  0  0
 12 13  1  0  0  0  0
 12 53  1  0  0  0  0
 13 14  1  0  0  0  0
 13 36  1  0  0  0  0
 13 37  1  0  0  0  0
 14 15  1  0  0  0  0
 14 38  1  0  0  0  0
 14 39  1  0  0  0  0
 15 16  1  0  0  0  0
 15 19  1  0  0  0  0
 16 17  1  0  0  0  0
 16 40  1  0  0  0  0
 16 41  1  0  0  0  0
 17 18  1  0  0  0  0
 17 42  1  0  0  0  0
 17 43  1  0  0  0  0
 18 44  1  0  0  0  0
 19 20  1  0  0  0  0
 19 45  1  0  0  0  0
 19 46  1  0  0  0  0
 20 47  1  0  0  0  0
 20 48  1  0  0  0  0
 21 22  1  0  0  0  0
 22 23  2  0  0  0  0
 22 49  1  0  0  0  0
 23 24  1  0  0  0  0
 24 50  1  0  0  0  0
 24 51  1  0  0  0  0
 24 52  1  0  0  0  0
M  CHG  1   5   1
M  CHG  1  12   1
M  END
> <s_m_source_file>
AV-unprocessed.smi

> <i_m_source_file_index>
1046

> <i_lp_mmshare_version>
43012

> <i_f3d_flags>
0

> <s_epik_input>
W0NIM11jKFtjSF0xKWMoW0NIM10pW2NIXWMoYzEyKW4oW2NIXW4yKVtDSDJdW0NASF0oW09IXSlbQ0gyXU4zW0NIMl1bQ0gyXU4oW0NIMl1bQ0gyXTMpW0NIMl1bQ0gyXVtPSF0=

> <s_epik_cmdline>
J2VwaWtfcHl0aG9uJywgJy1waCcsICc3LjAnLCAnLXRuJywgJzgnLCAnLW1hJywgJzIwMCcsICctbWV0YWxfYmluZGluZycsICctaW1hZScsICc8aW5maWxlLm1hZT4nLCAnLW9tYWUnLCAnPG91dGZpbGUubWFlPic=

> <r_epik_Ionization_Penalty>
1.22056

> <r_epik_Ionization_Penalty_Charging>
1.17959

> <r_epik_Ionization_Penalty_Neutral>
0.0409743

> <r_epik_State_Penalty>
1.27074

> <r_epik_Charging_Adjusted_Penalty>
2.45032

> <i_epik_Tot_Q>
2

> <i_epik_Tot_abs_Q>
2

> <r_epik_Metal_State_Penalty>
5.26922

> <b_epik_Metal_Only>
0

> <s_lp_Force_Field>
OPLS_2005

> <r_lp_Energy>
42.2252

> <b_lp_Chiralities_Consistent>
1

> <s_lp_Variant>
AV-unprocessed.smi:1046-6

> <Gold.Version>
5.8.1

> <Gold.Id.Protein>
6NUR|6NUR_protein|mol2

> <Gold.PLP.Fitness>
61.9194

> <Gold.PLP.PLP>
-43.4548

> <Gold.PLP.part.hbond>
-5.4240

> <Gold.PLP.part.metal>
0.0000

> <Gold.PLP.part.buried>
-4.2083

> <Gold.PLP.part.nonpolar>
-34.2254

> <Gold.PLP.part.repulsive>
0.1901

> <Gold.PLP.ligand.clash>
0.0000

> <Gold.PLP.ligand.torsion>
1.3046

> <Gold.PLP.Chemscore.Hbond>
7.0000

> <Gold.PLP.Chemscore.CHOScore>
0.0000

> <Gold.PLP.Chemscore.Metal>
0.0000

> <Gold.Chemscore.Hbonds>
donor molecule, donor type, donor heavy atom, donor atom, acceptor molecule, acceptor atom, score
      L1  H     5    54       P1  8028  1.98
      L1  H    10    33       P1  7949  1.00
      L1  H    12    53       P1  7948  2.00
      L1  H    18    44       P1 10957  1.00
      P1  H 10752 10765       L1    10  1.00

> <Gold.PLP.Chemscore.Internal.Correction>
0.0738

> <Gold.Rescore>
     Score         DG    S(hbond)    S(metal)    S(lipo)     H(rot)  DE(clash)    DE(int)     intcor
     19.65     -22.25       3.86        0.00     105.07       3.29       0.37       2.23       ----

> <Gold.Chemscore.Fitness>
19.6469

> <Gold.Chemscore.DG>
-22.2500

> <Gold.Chemscore.ZeroCoef>
-5.4800

> <Gold.Chemscore.Hbond>
3.8616

> <Gold.Chemscore.Metal>
0.0000

> <Gold.Chemscore.Lipo>
105.0736

> <Gold.Chemscore.Internal_Hbond>
0.0000

> <Gold.Chemscore.DEClash>
0.3727

> <Gold.Chemscore.DEInternal>
2.2304

> <Gold.Chemscore.Rot>
3.2896

> <Gold.Chemscore.Internal.Correction>
   9.000000E+99

> <Gold.Chemscore.Hbonds>
donor molecule, donor type, donor heavy atom, donor atom, acceptor molecule, acceptor atom, score
      L1  H     5    54       P1  8028  0.94
      L1  H    10    33       P1  7949  0.68
      L1  H    12    53       P1  7948  0.85
      L1  H    18    44       P1 10957  0.53
      P1  H 10752 10765       L1    10  0.25

> <Gold.Chemscore.Hbond.Weighted>
-12.8978

> <Gold.Chemscore.Metal.Weighted>
-0.0000

> <Gold.Chemscore.Lipo.Weighted>
-12.2936

> <Gold.Chemscore.Internal_Hbond.Weighted>
0.0000

> <Gold.Chemscore.DEClash.Weighted>
0.3727

> <Gold.Chemscore.DEInternal.Weighted>
2.2304

> <Gold.Chemscore.Rot.Weighted>
8.4215

> <Gold.Chemscore.Internal.Correction.Weighted>
   9.000000E+99

> <Gold.Protein.RotatedTorsions>
[ 6907 6896 6895 6894 ] final  120.33 input  -60.11 | X-H torsion
[ 7974 7965 7964 7962 ] final  -67.84 input  175.53 | X-H torsion
[ 8008 7997 7996 7995 ] final   69.67 input   59.86 | X-H torsion
[ 10167 10162 10161 10158 ] final  -50.37 input  -65.29 | X-H torsion
[ 10718 10713 10712 10709 ] final   55.40 input   66.30 | X-H torsion
[ 10763 10752 10751 10750 ] final  158.09 input  -60.55 | X-H torsion
[ 11005 11000 10999 10996 ] final -136.14 input  -57.11 | X-H torsion

> <Gold.Protein.ActiveResidues>
 VAL166  LYS551  ARG553  GLY616  TRP617  ASP618  TYR619  PRO620  LYS621  CYS622 
 ASP623  PHE694  ASN695  SER759  ASP760  ASP761  ALA762  ILE779  LEU786  VAL792 
 PHE793  MET794  SER795  GLU796  ALA797  LYS798  CYS799  TRP800  GLU811  SER814 

> <Gold.Protein.RotatedAtoms>
  152.4406  133.7440  159.6656 H   0  0  0  0  0  0  0  0  0  0  0  0  # atno 6907 bound_to 6896
  150.8296  133.8103  159.3110 H   0  0  0  0  0  0  0  0  0  0  0  0  # atno 6908 bound_to 6896
  151.5761  135.1063  160.0058 H   0  0  0  0  0  0  0  0  0  0  0  0  # atno 6909 bound_to 6896
  145.7240  140.9026  143.0615 H   0  0  0  0  0  0  0  0  0  0  0  0  # atno 7974 bound_to 7965
  155.7271  140.3492  155.5042 H   0  0  0  0  0  0  0  0  0  0  0  0  # atno 8008 bound_to 7997
  155.9216  140.1068  157.1224 H   0  0  0  0  0  0  0  0  0  0  0  0  # atno 8009 bound_to 7997
  154.4070  140.1248  156.4674 H   0  0  0  0  0  0  0  0  0  0  0  0  # atno 8010 bound_to 7997
  140.6641  143.2660  151.4349 H   0  0  0  0  0  0  0  0  0  0  0  0  # atno 10167 bound_to 10162
  157.5342  130.8651  149.8729 H   0  0  0  0  0  0  0  0  0  0  0  0  # atno 10718 bound_to 10713
  154.2105  135.2786  155.2960 H   0  0  0  0  0  0  0  0  0  0  0  0  # atno 10763 bound_to 10752
  154.5782  135.5597  153.7163 H   0  0  0  0  0  0  0  0  0  0  0  0  # atno 10764 bound_to 10752
  153.0065  135.6338  154.2244 H   0  0  0  0  0  0  0  0  0  0  0  0  # atno 10765 bound_to 10752
  140.8833  134.1904  157.4577 H   0  0  0  0  0  0  0  0  0  0  0  0  # atno 11005 bound_to 11000
  144.6909  139.9241  143.7469 LP  0  0  0  0  0  0  0  0  0  0  0  0  # atno 17320 bound_to 7965
  146.0599  139.3593  143.0588 LP  0  0  0  0  0  0  0  0  0  0  0  0  # atno 17321 bound_to 7965
  139.5884  144.1554  152.2057 LP  0  0  0  0  0  0  0  0  0  0  0  0  # atno 17342 bound_to 10162
  140.0901  144.5628  150.7061 LP  0  0  0  0  0  0  0  0  0  0  0  0  # atno 17343 bound_to 10162
  156.0445  130.3731  150.1351 LP  0  0  0  0  0  0  0  0  0  0  0  0  # atno 17370 bound_to 10713
  156.9534  130.9782  151.3493 LP  0  0  0  0  0  0  0  0  0  0  0  0  # atno 17371 bound_to 10713
  139.8722  134.9827  156.5166 LP  0  0  0  0  0  0  0  0  0  0  0  0  # atno 17394 bound_to 11000
  140.8435  133.8187  155.9098 LP  0  0  0  0  0  0  0  0  0  0  0  0  # atno 17395 bound_to 11000

$$$$
