AV-unprocessed.smi:1088|AV-procd|sdf|4732|dock10
  -GOLD-   22720 3263D 1   1.00000     0.00000
 Structure written by MMmdl.
 47 48  0  0  0  0  0  0  0  0  1 V2000
  151.0781  142.8439  157.4150 C   0  0  0  0  0  0  0  0  0  0  0  0
  150.4079  141.6274  157.6919 O   0  0  0  0  0  0  0  0  0  0  0  0
  151.2119  140.4896  157.4242 C   0  0  0  0  0  0  0  0  0  0  0  0
  151.7415  140.5451  155.9830 C   0  0  0  0  0  0  0  0  0  0  0  0
  150.7827  140.2899  154.8999 N   0  0  0  0  0  0  0  0  0  0  0  0
  149.6801  141.2323  154.9885 C   0  0  0  0  0  0  0  0  0  0  0  0
  148.5611  140.6818  154.1129 C   0  0  0  0  0  0  0  0  0  0  0  0
  148.8174  139.1734  154.1139 C   0  0  0  0  0  0  0  0  0  0  0  0
  150.1198  138.9833  154.9189 C   0  0  1  0  0  0  0  0  0  0  0  0
  150.9466  137.7912  154.3836 C   0  0  0  0  0  0  0  0  0  0  0  0
  150.1361  136.5809  154.2836 N   0  0  0  0  0  0  0  0  0  0  0  0
  149.8101  135.7663  155.2984 C   0  0  0  0  0  0  0  0  0  0  0  0
  150.1794  135.9463  156.4596 O   0  0  0  0  0  0  0  0  0  0  0  0
  148.9527  134.5483  154.9277 C   0  0  0  0  0  0  0  0  0  0  0  0
  149.6656  133.2725  155.0707 N   0  0  0  0  0  0  0  0  0  0  0  0
  150.7485  133.1839  155.9262 C   0  0  0  0  0  0  0  0  0  0  0  0
  151.4523  132.0477  156.1218 C   0  0  0  0  0  0  0  0  0  0  0  0
  151.1011  130.8183  155.4213 C   0  0  0  0  0  0  0  0  0  0  0  0
  151.7079  129.7589  155.5825 O   0  0  0  0  0  0  0  0  0  0  0  0
  149.9963  130.9395  154.5443 N   0  0  0  0  0  0  0  0  0  0  0  0
  149.5548  129.7736  153.8078 C   0  0  0  0  0  0  0  0  0  0  0  0
  149.2563  132.1275  154.3543 C   0  0  0  0  0  0  0  0  0  0  0  0
  148.2839  132.1741  153.5965 O   0  0  0  0  0  0  0  0  0  0  0  0
  150.4227  143.6835  157.6462 H   0  0  0  0  0  0  0  0  0  0  0  0
  151.3513  142.9106  156.3610 H   0  0  0  0  0  0  0  0  0  0  0  0
  151.9809  142.9444  158.0188 H   0  0  0  0  0  0  0  0  0  0  0  0
  152.0315  140.4050  158.1358 H   0  0  0  0  0  0  0  0  0  0  0  0
  150.6153  139.5849  157.5501 H   0  0  0  0  0  0  0  0  0  0  0  0
  152.2470  141.4982  155.8212 H   0  0  0  0  0  0  0  0  0  0  0  0
  152.5230  139.7867  155.9172 H   0  0  0  0  0  0  0  0  0  0  0  0
  149.3235  141.2947  156.0183 H   0  0  0  0  0  0  0  0  0  0  0  0
  149.9843  142.2344  154.6846 H   0  0  0  0  0  0  0  0  0  0  0  0
  147.5749  140.9411  154.4985 H   0  0  0  0  0  0  0  0  0  0  0  0
  148.6432  141.0767  153.0994 H   0  0  0  0  0  0  0  0  0  0  0  0
  147.9916  138.6190  154.5611 H   0  0  0  0  0  0  0  0  0  0  0  0
  148.9277  138.8269  153.0854 H   0  0  0  0  0  0  0  0  0  0  0  0
  149.8321  138.7652  155.9491 H   0  0  0  0  0  0  0  0  0  0  0  0
  151.4034  138.0500  153.4270 H   0  0  0  0  0  0  0  0  0  0  0  0
  151.7668  137.5391  155.0467 H   0  0  0  0  0  0  0  0  0  0  0  0
  149.7908  136.3455  153.3646 H   0  0  0  0  0  0  0  0  0  0  0  0
  148.0453  134.5374  155.5346 H   0  0  0  0  0  0  0  0  0  0  0  0
  148.6160  134.6727  153.8976 H   0  0  0  0  0  0  0  0  0  0  0  0
  151.0464  134.0669  156.4727 H   0  0  0  0  0  0  0  0  0  0  0  0
  152.2857  132.0473  156.8089 H   0  0  0  0  0  0  0  0  0  0  0  0
  149.4034  130.0691  152.7679 H   0  0  0  0  0  0  0  0  0  0  0  0
  148.6233  129.4412  154.2686 H   0  0  0  0  0  0  0  0  0  0  0  0
  150.3051  128.9840  153.8387 H   0  0  0  0  0  0  0  0  0  0  0  0
  1  2  1  0  0  0  0
  1 24  1  0  0  0  0
  1 25  1  0  0  0  0
  1 26  1  0  0  0  0
  2  3  1  0  0  0  0
  3  4  1  0  0  0  0
  3 27  1  0  0  0  0
  3 28  1  0  0  0  0
  4  5  1  0  0  0  0
  4 29  1  0  0  0  0
  4 30  1  0  0  0  0
  5  9  1  0  0  0  0
  5  6  1  0  0  0  0
  6  7  1  0  0  0  0
  6 31  1  0  0  0  0
  6 32  1  0  0  0  0
  7  8  1  0  0  0  0
  7 33  1  0  0  0  0
  7 34  1  0  0  0  0
  8  9  1  0  0  0  0
  8 35  1  0  0  0  0
  8 36  1  0  0  0  0
  9 10  1  0  0  0  0
  9 37  1  0  0  0  0
 10 11  1  0  0  0  0
 10 38  1  0  0  0  0
 10 39  1  0  0  0  0
 11 12  1  0  0  0  0
 11 40  1  0  0  0  0
 12 13  2  0  0  0  0
 12 14  1  0  0  0  0
 14 15  1  0  0  0  0
 14 41  1  0  0  0  0
 14 42  1  0  0  0  0
 15 22  1  0  0  0  0
 15 16  1  0  0  0  0
 16 17  2  0  0  0  0
 16 43  1  0  0  0  0
 17 18  1  0  0  0  0
 17 44  1  0  0  0  0
 18 19  2  0  0  0  0
 18 20  1  0  0  0  0
 20 21  1  0  0  0  0
 20 22  1  0  0  0  0
 21 45  1  0  0  0  0
 21 46  1  0  0  0  0
 21 47  1  0  0  0  0
 22 23  2  0  0  0  0
M  END
> <s_m_source_file>
AV-unprocessed.smi

> <i_m_source_file_index>
1088

> <i_lp_mmshare_version>
43012

> <i_f3d_flags>
0

> <s_epik_input>
W0NIM11PW0NIMl1bQ0gyXU4xW0NIMl1bQ0gyXVtDSDJdW0NASF0xW0NIMl1bTkhdQyg9TylbQ0gyXW4yW2NIXVtjSF1jKD1PKW4oW0NIM10pYzI9Tw==

> <s_epik_cmdline>
J2VwaWtfcHl0aG9uJywgJy1waCcsICc3LjAnLCAnLXRuJywgJzgnLCAnLW1hJywgJzIwMCcsICctbWV0YWxfYmluZGluZycsICctaW1hZScsICc8aW5maWxlLm1hZT4nLCAnLW9tYWUnLCAnPG91dGZpbGUubWFlPic=

> <r_lp_tautomer_probability>
1

> <r_epik_Ionization_Penalty>
2.28131

> <r_epik_Ionization_Penalty_Charging>
1.22971e-08

> <r_epik_Ionization_Penalty_Neutral>
2.28131

> <r_epik_State_Penalty>
2.43063

> <r_epik_Charging_Adjusted_Penalty>
2.43063

> <i_epik_Tot_Q>
0

> <i_epik_Tot_abs_Q>
0

> <r_epik_Metal_State_Penalty>
2.43056

> <b_epik_Metal_Only>
0

> <s_lp_Force_Field>
OPLS_2005

> <r_lp_Energy>
52.4092

> <b_lp_Chiralities_Consistent>
1

> <s_lp_Variant>
AV-unprocessed.smi:1088-5

> <Gold.Version>
5.8.1

> <Gold.Id.Protein>
6NUR|6NUR_protein|mol2

> <Gold.PLP.Fitness>
45.6457

> <Gold.PLP.PLP>
-40.9446

> <Gold.PLP.part.hbond>
-2.9573

> <Gold.PLP.part.metal>
0.0000

> <Gold.PLP.part.buried>
-4.2907

> <Gold.PLP.part.nonpolar>
-33.5559

> <Gold.PLP.part.repulsive>
0.3098

> <Gold.PLP.ligand.clash>
0.0000

> <Gold.PLP.ligand.torsion>
0.5997

> <Gold.PLP.Chemscore.Hbond>
1.9500

> <Gold.PLP.Chemscore.CHOScore>
0.0000

> <Gold.PLP.Chemscore.Metal>
0.0000

> <Gold.Chemscore.Hbonds>
donor molecule, donor type, donor heavy atom, donor atom, acceptor molecule, acceptor atom, score
      L1  H    11    40       P1  7948  0.90
      P1  H  7989  7998       L1     5  1.00

> <Gold.PLP.Chemscore.Internal.Correction>
0.0506

> <Gold.Rescore>
     Score         DG    S(hbond)    S(metal)    S(lipo)     H(rot)  DE(clash)    DE(int)     intcor
      8.93     -12.32       1.27        0.00      76.67       2.49       0.24       3.15       ----

> <Gold.Chemscore.Fitness>
8.9253

> <Gold.Chemscore.DG>
-12.3165

> <Gold.Chemscore.ZeroCoef>
-5.4800

> <Gold.Chemscore.Hbond>
1.2723

> <Gold.Chemscore.Metal>
0.0000

> <Gold.Chemscore.Lipo>
76.6749

> <Gold.Chemscore.Internal_Hbond>
0.0000

> <Gold.Chemscore.DEClash>
0.2447

> <Gold.Chemscore.DEInternal>
3.1465

> <Gold.Chemscore.Rot>
2.4938

> <Gold.Chemscore.Internal.Correction>
   9.000000E+99

> <Gold.Chemscore.Hbonds>
donor molecule, donor type, donor heavy atom, donor atom, acceptor molecule, acceptor atom, score
      L1  H    11    40       P1  7948  0.18
      P1  H  7989  7998       L1     5  0.10

> <Gold.Chemscore.Hbond.Weighted>
-4.2496

> <Gold.Chemscore.Metal.Weighted>
-0.0000

> <Gold.Chemscore.Lipo.Weighted>
-8.9710

> <Gold.Chemscore.Internal_Hbond.Weighted>
0.0000

> <Gold.Chemscore.DEClash.Weighted>
0.2447

> <Gold.Chemscore.DEInternal.Weighted>
3.1465

> <Gold.Chemscore.Rot.Weighted>
6.3841

> <Gold.Chemscore.Internal.Correction.Weighted>
   9.000000E+99

> <Gold.Protein.RotatedTorsions>
[ 6907 6896 6895 6894 ] final  179.23 input  -60.11 | X-H torsion
[ 7974 7965 7964 7962 ] final  -25.19 input  175.53 | X-H torsion
[ 8008 7997 7996 7995 ] final  -22.97 input   59.86 | X-H torsion
[ 10167 10162 10161 10158 ] final  164.94 input  -65.29 | X-H torsion
[ 10718 10713 10712 10709 ] final  120.31 input   66.30 | X-H torsion
[ 10763 10752 10751 10750 ] final  -56.81 input  -60.55 | X-H torsion
[ 11005 11000 10999 10996 ] final  -21.94 input  -57.11 | X-H torsion

> <Gold.Protein.ActiveResidues>
 VAL166  LYS551  ARG553  GLY616  TRP617  ASP618  TYR619  PRO620  LYS621  CYS622 
 ASP623  PHE694  ASN695  SER759  ASP760  ASP761  ALA762  ILE779  LEU786  VAL792 
 PHE793  MET794  SER795  GLU796  ALA797  LYS798  CYS799  TRP800  GLU811  SER814 

> <Gold.Protein.RotatedAtoms>
  151.6751  133.3313  159.3205 H   0  0  0  0  0  0  0  0  0  0  0  0  # atno 6907 bound_to 6896
  150.7849  134.6829  159.6463 H   0  0  0  0  0  0  0  0  0  0  0  0  # atno 6908 bound_to 6896
  152.3916  134.6435  160.0157 H   0  0  0  0  0  0  0  0  0  0  0  0  # atno 6909 bound_to 6896
  146.1507  140.4852  142.8612 H   0  0  0  0  0  0  0  0  0  0  0  0  # atno 7974 bound_to 7965
  154.4612  140.1993  156.0239 H   0  0  0  0  0  0  0  0  0  0  0  0  # atno 8008 bound_to 7997
  156.0844  140.3267  155.7706 H   0  0  0  0  0  0  0  0  0  0  0  0  # atno 8009 bound_to 7997
  155.5059  140.0557  157.2922 H   0  0  0  0  0  0  0  0  0  0  0  0  # atno 8010 bound_to 7997
  139.4897  144.4183  151.9217 H   0  0  0  0  0  0  0  0  0  0  0  0  # atno 10167 bound_to 10162
  157.5900  131.1065  150.8017 H   0  0  0  0  0  0  0  0  0  0  0  0  # atno 10718 bound_to 10713
  154.2125  135.6392  153.5119 H   0  0  0  0  0  0  0  0  0  0  0  0  # atno 10763 bound_to 10752
  152.9987  135.5477  154.6200 H   0  0  0  0  0  0  0  0  0  0  0  0  # atno 10764 bound_to 10752
  154.5640  135.2911  155.0865 H   0  0  0  0  0  0  0  0  0  0  0  0  # atno 10765 bound_to 10752
  140.8609  133.7788  156.0074 H   0  0  0  0  0  0  0  0  0  0  0  0  # atno 11005 bound_to 11000
  144.7901  140.6014  143.6547 LP  0  0  0  0  0  0  0  0  0  0  0  0  # atno 17320 bound_to 7965
  145.4830  139.1494  143.3751 LP  0  0  0  0  0  0  0  0  0  0  0  0  # atno 17321 bound_to 7965
  140.3626  144.2954  150.5931 LP  0  0  0  0  0  0  0  0  0  0  0  0  # atno 17342 bound_to 10162
  140.5389  143.2227  151.8117 LP  0  0  0  0  0  0  0  0  0  0  0  0  # atno 17343 bound_to 10162
  156.8442  130.5058  149.5318 LP  0  0  0  0  0  0  0  0  0  0  0  0  # atno 17370 bound_to 10713
  156.0953  130.5928  150.9803 LP  0  0  0  0  0  0  0  0  0  0  0  0  # atno 17371 bound_to 10713
  140.8683  134.2757  157.5202 LP  0  0  0  0  0  0  0  0  0  0  0  0  # atno 17394 bound_to 11000
  139.8707  134.9554  156.4206 LP  0  0  0  0  0  0  0  0  0  0  0  0  # atno 17395 bound_to 11000

$$$$
