AV-unprocessed.smi:2302|AV-procd|sdf|9236|dock1
  -GOLD-   2272012453D 1   1.00000     0.00000
 Structure written by MMmdl.
 40 41  0  0  0  0  0  0  0  0  2 V2000
  152.8937  142.7145  161.6074 C   0  0  0  0  0  0  0  0  0  0  0  0
  152.3801  143.3131  160.3149 C   0  0  0  0  0  0  0  0  0  0  0  0
  152.2104  144.7049  160.1773 C   0  0  0  0  0  0  0  0  0  0  0  0
  151.7325  145.1958  158.9492 C   0  0  0  0  0  0  0  0  0  0  0  0
  151.4461  144.2820  157.9167 C   0  0  0  0  0  0  0  0  0  0  0  0
  151.6433  142.9003  158.1370 C   0  0  0  0  0  0  0  0  0  0  0  0
  151.3253  142.0633  157.0343 N   0  0  0  0  0  0  0  0  0  0  0  0
  151.8665  140.8762  156.7095 C   0  0  0  0  0  0  0  0  0  0  0  0
  152.7553  140.3002  157.3378 O   0  0  0  0  0  0  0  0  0  0  0  0
  151.3104  140.3755  155.5969 N   0  0  0  0  0  0  0  0  0  0  0  0
  151.6774  139.1064  154.9781 C   0  0  0  0  0  0  0  0  0  0  0  0
  150.4438  138.2455  154.6512 C   0  0  2  0  0  0  0  0  0  0  0  0
  149.3365  139.0684  153.9643 C   0  0  0  0  0  0  0  0  0  0  0  0
  148.1394  138.2296  153.7274 N   0  3  2  0  0  0  0  0  0  0  0  0
  147.0618  138.9596  153.0261 C   0  0  0  0  0  0  0  0  0  0  0  0
  147.6784  137.6003  154.9859 C   0  0  0  0  0  0  0  0  0  0  0  0
  148.8324  136.8332  155.6525 C   0  0  0  0  0  0  0  0  0  0  0  0
  149.9273  137.7152  155.8688 O   0  0  0  0  0  0  0  0  0  0  0  0
  152.1040  142.4363  159.3254 N   0  0  0  0  0  0  0  0  0  0  0  0
  153.0853  143.4867  162.3527 H   0  0  0  0  0  0  0  0  0  0  0  0
  153.8239  142.1738  161.4305 H   0  0  0  0  0  0  0  0  0  0  0  0
  152.1631  142.0177  162.0192 H   0  0  0  0  0  0  0  0  0  0  0  0
  152.4399  145.3805  160.9882 H   0  0  0  0  0  0  0  0  0  0  0  0
  151.5882  146.2557  158.8003 H   0  0  0  0  0  0  0  0  0  0  0  0
  151.0792  144.6439  156.9672 H   0  0  0  0  0  0  0  0  0  0  0  0
  150.6029  142.4107  156.4212 H   0  0  0  0  0  0  0  0  0  0  0  0
  150.5843  140.9107  155.1430 H   0  0  0  0  0  0  0  0  0  0  0  0
  152.2387  139.3176  154.0675 H   0  0  0  0  0  0  0  0  0  0  0  0
  152.3548  138.5630  155.6392 H   0  0  0  0  0  0  0  0  0  0  0  0
  150.7383  137.4247  153.9944 H   0  0  0  0  0  0  0  0  0  0  0  0
  149.0650  139.9258  154.5825 H   0  0  0  0  0  0  0  0  0  0  0  0
  149.6999  139.4601  153.0133 H   0  0  0  0  0  0  0  0  0  0  0  0
  146.6989  139.7951  153.6263 H   0  0  0  0  0  0  0  0  0  0  0  0
  146.2211  138.2974  152.8168 H   0  0  0  0  0  0  0  0  0  0  0  0
  147.4209  139.3525  152.0743 H   0  0  0  0  0  0  0  0  0  0  0  0
  147.3009  138.3680  155.6636 H   0  0  0  0  0  0  0  0  0  0  0  0
  146.8514  136.9204  154.7774 H   0  0  0  0  0  0  0  0  0  0  0  0
  148.5102  136.4279  156.6118 H   0  0  0  0  0  0  0  0  0  0  0  0
  149.1465  135.9872  155.0389 H   0  0  0  0  0  0  0  0  0  0  0  0
  148.4274  137.4787  153.1160 H   0  0  0  0  0  0  0  0  0  0  0  0
  1  2  1  0  0  0  0
  1 20  1  0  0  0  0
  1 21  1  0  0  0  0
  1 22  1  0  0  0  0
  2 19  1  0  0  0  0
  2  3  2  0  0  0  0
  3  4  1  0  0  0  0
  3 23  1  0  0  0  0
  4  5  2  0  0  0  0
  4 24  1  0  0  0  0
  5  6  1  0  0  0  0
  5 25  1  0  0  0  0
  6  7  1  0  0  0  0
  6 19  2  0  0  0  0
  7  8  1  0  0  0  0
  7 26  1  0  0  0  0
  8  9  2  0  0  0  0
  8 10  1  0  0  0  0
 10 11  1  0  0  0  0
 10 27  1  0  0  0  0
 11 12  1  0  0  0  0
 11 28  1  0  0  0  0
 11 29  1  0  0  0  0
 12 18  1  0  0  0  0
 12 13  1  0  0  0  0
 12 30  1  0  0  0  0
 13 14  1  0  0  0  0
 13 31  1  0  0  0  0
 13 32  1  0  0  0  0
 14 15  1  0  0  0  0
 14 16  1  0  0  0  0
 14 40  1  0  0  0  0
 15 33  1  0  0  0  0
 15 34  1  0  0  0  0
 15 35  1  0  0  0  0
 16 17  1  0  0  0  0
 16 36  1  0  0  0  0
 16 37  1  0  0  0  0
 17 18  1  0  0  0  0
 17 38  1  0  0  0  0
 17 39  1  0  0  0  0
M  CHG  1  14   1
M  END
> <s_m_source_file>
AV-unprocessed.smi

> <i_m_source_file_index>
2302

> <i_lp_mmshare_version>
43012

> <i_f3d_flags>
0

> <s_epik_input>
W0NIM11jMVtjSF1bY0hdW2NIXWMobjEpW05IXUMoPU8pW05IXVtDSDJdW0NAQEhdMltDSDJdTihbQ0gzXSlbQ0gyXVtDSDJdTzI=

> <s_epik_cmdline>
J2VwaWtfcHl0aG9uJywgJy1waCcsICc3LjAnLCAnLXRuJywgJzgnLCAnLW1hJywgJzIwMCcsICctbWV0YWxfYmluZGluZycsICctaW1hZScsICc8aW5maWxlLm1hZT4nLCAnLW9tYWUnLCAnPG91dGZpbGUubWFlPic=

> <r_epik_Ionization_Penalty>
0.204647

> <r_epik_Ionization_Penalty_Charging>
0.204578

> <r_epik_Ionization_Penalty_Neutral>
6.91954e-05

> <r_epik_State_Penalty>
0.194513

> <r_epik_Charging_Adjusted_Penalty>
0.399091

> <i_epik_Tot_Q>
1

> <i_epik_Tot_abs_Q>
1

> <r_epik_Metal_State_Penalty>
0.194515

> <b_epik_Metal_Only>
0

> <s_lp_Force_Field>
OPLS_2005

> <r_lp_Energy>
15.472

> <b_lp_Chiralities_Consistent>
1

> <s_lp_Variant>
AV-unprocessed.smi:2302-1

> <Gold.Version>
5.8.1

> <Gold.Id.Protein>
6NUR|6NUR_protein|mol2

> <Gold.PLP.Fitness>
46.2145

> <Gold.PLP.PLP>
-37.8723

> <Gold.PLP.part.hbond>
-2.0000

> <Gold.PLP.part.metal>
0.0000

> <Gold.PLP.part.buried>
-3.1417

> <Gold.PLP.part.nonpolar>
-31.8763

> <Gold.PLP.part.repulsive>
0.2670

> <Gold.PLP.ligand.clash>
0.0000

> <Gold.PLP.ligand.torsion>
0.3326

> <Gold.PLP.Chemscore.Hbond>
3.0000

> <Gold.PLP.Chemscore.CHOScore>
0.0000

> <Gold.PLP.Chemscore.Metal>
0.0000

> <Gold.Chemscore.Hbonds>
donor molecule, donor type, donor heavy atom, donor atom, acceptor molecule, acceptor atom, score
      L1  H    14    40       P1  7948  2.00
      P1  H  7997  8010       L1     9  0.94

> <Gold.PLP.Chemscore.Internal.Correction>
0.0073

> <Gold.Rescore>
     Score         DG    S(hbond)    S(metal)    S(lipo)     H(rot)  DE(clash)    DE(int)     intcor
     17.55     -19.10       1.88        0.00      90.57       1.27       0.05       1.50       ----

> <Gold.Chemscore.Fitness>
17.5530

> <Gold.Chemscore.DG>
-19.1028

> <Gold.Chemscore.ZeroCoef>
-5.4800

> <Gold.Chemscore.Hbond>
1.8821

> <Gold.Chemscore.Metal>
0.0000

> <Gold.Chemscore.Lipo>
90.5707

> <Gold.Chemscore.Internal_Hbond>
0.0000

> <Gold.Chemscore.DEClash>
0.0476

> <Gold.Chemscore.DEInternal>
1.5022

> <Gold.Chemscore.Rot>
1.2736

> <Gold.Chemscore.Internal.Correction>
   9.000000E+99

> <Gold.Chemscore.Hbonds>
donor molecule, donor type, donor heavy atom, donor atom, acceptor molecule, acceptor atom, score
      L1  H    14    40       P1  7948  1.00
      P1  H  7997  8010       L1     9  0.91

> <Gold.Chemscore.Hbond.Weighted>
-6.2863

> <Gold.Chemscore.Metal.Weighted>
-0.0000

> <Gold.Chemscore.Lipo.Weighted>
-10.5968

> <Gold.Chemscore.Internal_Hbond.Weighted>
0.0000

> <Gold.Chemscore.DEClash.Weighted>
0.0476

> <Gold.Chemscore.DEInternal.Weighted>
1.5022

> <Gold.Chemscore.Rot.Weighted>
3.2603

> <Gold.Chemscore.Internal.Correction.Weighted>
   9.000000E+99

> <Gold.Protein.RotatedTorsions>
[ 6907 6896 6895 6894 ] final -156.38 input  -60.11 | X-H torsion
[ 7974 7965 7964 7962 ] final  -31.52 input  175.53 | X-H torsion
[ 8008 7997 7996 7995 ] final   52.23 input   59.86 | X-H torsion
[ 10167 10162 10161 10158 ] final -112.49 input  -65.29 | X-H torsion
[ 10718 10713 10712 10709 ] final  104.78 input   66.30 | X-H torsion
[ 10763 10752 10751 10750 ] final   34.43 input  -60.55 | X-H torsion
[ 11005 11000 10999 10996 ] final  -51.29 input  -57.11 | X-H torsion

> <Gold.Protein.ActiveResidues>
 VAL166  LYS551  ARG553  GLY616  TRP617  ASP618  TYR619  PRO620  LYS621  CYS622 
 ASP623  PHE694  ASN695  SER759  ASP760  ASP761  ALA762  ILE779  LEU786  VAL792 
 PHE793  MET794  SER795  GLU796  ALA797  LYS798  CYS799  TRP800  GLU811  SER814 

> <Gold.Protein.RotatedAtoms>
  151.2868  133.4184  159.2630 H   0  0  0  0  0  0  0  0  0  0  0  0  # atno 6907 bound_to 6896
  151.0312  134.9541  159.8122 H   0  0  0  0  0  0  0  0  0  0  0  0  # atno 6908 bound_to 6896
  152.5346  134.2829  159.9066 H   0  0  0  0  0  0  0  0  0  0  0  0  # atno 6909 bound_to 6896
  146.1061  140.5677  142.8799 H   0  0  0  0  0  0  0  0  0  0  0  0  # atno 7974 bound_to 7965
  155.4483  140.3457  155.4298 H   0  0  0  0  0  0  0  0  0  0  0  0  # atno 8008 bound_to 7997
  156.1236  140.1494  156.9199 H   0  0  0  0  0  0  0  0  0  0  0  0  # atno 8009 bound_to 7997
  154.4841  140.0860  156.7426 H   0  0  0  0  0  0  0  0  0  0  0  0  # atno 8010 bound_to 7997
  140.1221  143.4434  152.1684 H   0  0  0  0  0  0  0  0  0  0  0  0  # atno 10167 bound_to 10162
  157.6728  131.0812  150.5757 H   0  0  0  0  0  0  0  0  0  0  0  0  # atno 10718 bound_to 10713
  153.0165  135.6360  154.1667 H   0  0  0  0  0  0  0  0  0  0  0  0  # atno 10763 bound_to 10752
  154.1405  135.2835  155.3163 H   0  0  0  0  0  0  0  0  0  0  0  0  # atno 10764 bound_to 10752
  154.6127  135.5551  153.7552 H   0  0  0  0  0  0  0  0  0  0  0  0  # atno 10765 bound_to 10752
  141.0863  133.6642  156.3856 H   0  0  0  0  0  0  0  0  0  0  0  0  # atno 11005 bound_to 11000
  144.7472  140.5098  143.6827 LP  0  0  0  0  0  0  0  0  0  0  0  0  # atno 17320 bound_to 7965
  145.5758  139.1486  143.3263 LP  0  0  0  0  0  0  0  0  0  0  0  0  # atno 17321 bound_to 7965
  139.5563  144.7375  151.4284 LP  0  0  0  0  0  0  0  0  0  0  0  0  # atno 17342 bound_to 10162
  140.6866  143.7960  150.7195 LP  0  0  0  0  0  0  0  0  0  0  0  0  # atno 17343 bound_to 10162
  156.6058  130.4366  149.5879 LP  0  0  0  0  0  0  0  0  0  0  0  0  # atno 17370 bound_to 10713
  156.2470  130.6884  151.1609 LP  0  0  0  0  0  0  0  0  0  0  0  0  # atno 17371 bound_to 10713
  140.5355  134.6171  157.5363 LP  0  0  0  0  0  0  0  0  0  0  0  0  # atno 17394 bound_to 11000
  139.9682  134.7338  156.0096 LP  0  0  0  0  0  0  0  0  0  0  0  0  # atno 17395 bound_to 11000

$$$$
