AV-unprocessed.smi:89|AV-procd|sdf|825|dock6
  -GOLD-   2262017233D 1   1.00000     0.00000
 Structure written by MMmdl.
 54 56  0  0  0  0  0  0  0  0  1 V2000
  145.8089  138.0288  158.3064 C   0  0  0  0  0  0  0  0  0  0  0  0
  147.1508  137.7707  157.6020 C   0  0  0  0  0  0  0  0  0  0  0  0
  148.2559  137.5181  158.5310 N   0  0  0  0  0  0  0  0  0  0  0  0
  149.3276  138.3458  158.4878 C   0  0  0  0  0  0  0  0  0  0  0  0
  150.5016  137.8624  158.9668 N   0  0  0  0  0  0  0  0  0  0  0  0
  151.5967  138.6269  158.9565 C   0  0  0  0  0  0  0  0  0  0  0  0
  151.7366  139.8774  158.5124 N   0  0  0  0  0  0  0  0  0  0  0  0
  150.5632  140.3617  158.0136 C   0  0  0  0  0  0  0  0  0  0  0  0
  149.3186  139.6714  157.9667 C   0  0  0  0  0  0  0  0  0  0  0  0
  148.3501  140.4854  157.3909 N   0  0  0  0  0  0  0  0  0  0  0  0
  148.9826  141.5943  157.1225 C   0  0  0  0  0  0  0  0  0  0  0  0
  150.3199  141.6016  157.4481 N   0  0  0  0  0  0  0  0  0  0  0  0
  151.2580  142.6971  157.2524 C   0  0  0  0  0  0  0  0  0  0  0  0
  151.9454  143.1874  158.5531 C   0  0  1  0  0  0  0  0  0  0  0  0
  152.7971  142.1691  159.0441 O   0  0  0  0  0  0  0  0  0  0  0  0
  152.7529  144.4780  158.3918 C   0  0  0  0  0  0  0  0  0  0  0  0
  151.8058  145.5448  158.9216 C   0  0  0  0  0  0  0  0  0  0  0  0
  151.2059  144.8930  160.0263 O   0  0  0  0  0  0  0  0  0  0  0  0
  150.9102  143.5578  159.6353 C   0  0  0  0  0  0  0  0  0  0  0  0
  148.5825  136.1448  158.9317 C   0  0  2  0  0  0  0  0  0  0  0  0
  149.1963  135.3437  157.7704 C   0  0  0  0  0  0  0  0  0  0  0  0
  147.3778  135.4143  159.5564 C   0  0  0  0  0  0  0  0  0  0  0  0
  146.9275  136.1250  161.2023 S   0  0  0  0  0  0  0  0  0  0  0  0
  147.8821  137.1981  161.5191 O   0  0  0  0  0  0  0  0  0  0  0  0
  145.4846  136.4114  161.2008 O   0  0  0  0  0  0  0  0  0  0  0  0
  147.2415  134.7096  162.3440 C   0  0  0  0  0  0  0  0  0  0  0  0
  146.2217  133.5803  162.1561 C   0  0  0  0  0  0  0  0  0  0  0  0
  145.0081  138.1416  157.5759 H   0  0  0  0  0  0  0  0  0  0  0  0
  145.8299  138.9371  158.9086 H   0  0  0  0  0  0  0  0  0  0  0  0
  145.5457  137.1975  158.9611 H   0  0  0  0  0  0  0  0  0  0  0  0
  147.0307  136.9089  156.9476 H   0  0  0  0  0  0  0  0  0  0  0  0
  147.3978  138.6061  156.9479 H   0  0  0  0  0  0  0  0  0  0  0  0
  152.4886  138.1707  159.3604 H   0  0  0  0  0  0  0  0  0  0  0  0
  148.4889  142.4408  156.6676 H   0  0  0  0  0  0  0  0  0  0  0  0
  152.0098  142.3708  156.5326 H   0  0  0  0  0  0  0  0  0  0  0  0
  150.7221  143.5209  156.7786 H   0  0  0  0  0  0  0  0  0  0  0  0
  153.6912  142.4668  158.9761 H   0  0  0  0  0  0  0  0  0  0  0  0
  153.6427  144.4583  159.0238 H   0  0  0  0  0  0  0  0  0  0  0  0
  153.0849  144.6828  157.3754 H   0  0  0  0  0  0  0  0  0  0  0  0
  152.3213  146.4575  159.2213 H   0  0  0  0  0  0  0  0  0  0  0  0
  151.0454  145.7999  158.1820 H   0  0  0  0  0  0  0  0  0  0  0  0
  149.8949  143.5338  159.2364 H   0  0  0  0  0  0  0  0  0  0  0  0
  150.9342  142.8954  160.5016 H   0  0  0  0  0  0  0  0  0  0  0  0
  149.3486  136.1863  159.7077 H   0  0  0  0  0  0  0  0  0  0  0  0
  149.5124  134.3550  158.1035 H   0  0  0  0  0  0  0  0  0  0  0  0
  150.0739  135.8468  157.3636 H   0  0  0  0  0  0  0  0  0  0  0  0
  148.4839  135.2045  156.9568 H   0  0  0  0  0  0  0  0  0  0  0  0
  146.5035  135.4413  158.9082 H   0  0  0  0  0  0  0  0  0  0  0  0
  147.6259  134.3649  159.7156 H   0  0  0  0  0  0  0  0  0  0  0  0
  148.2574  134.3520  162.1773 H   0  0  0  0  0  0  0  0  0  0  0  0
  147.1926  135.0912  163.3640 H   0  0  0  0  0  0  0  0  0  0  0  0
  146.4083  132.7723  162.8639 H   0  0  0  0  0  0  0  0  0  0  0  0
  146.2732  133.1567  161.1538 H   0  0  0  0  0  0  0  0  0  0  0  0
  145.2043  133.9351  162.3202 H   0  0  0  0  0  0  0  0  0  0  0  0
  1  2  1  0  0  0  0
  1 28  1  0  0  0  0
  1 29  1  0  0  0  0
  1 30  1  0  0  0  0
  2  3  1  0  0  0  0
  2 31  1  0  0  0  0
  2 32  1  0  0  0  0
  3  4  1  0  0  0  0
  3 20  1  0  0  0  0
  4  9  1  0  0  0  0
  4  5  2  0  0  0  0
  5  6  1  0  0  0  0
  6  7  2  0  0  0  0
  6 33  1  0  0  0  0
  7  8  1  0  0  0  0
  8 12  1  0  0  0  0
  8  9  2  0  0  0  0
  9 10  1  0  0  0  0
 10 11  2  0  0  0  0
 11 12  1  0  0  0  0
 11 34  1  0  0  0  0
 12 13  1  0  0  0  0
 13 14  1  0  0  0  0
 13 35  1  0  0  0  0
 13 36  1  0  0  0  0
 14 19  1  0  0  0  0
 14 15  1  0  0  0  0
 14 16  1  0  0  0  0
 15 37  1  0  0  0  0
 16 17  1  0  0  0  0
 16 38  1  0  0  0  0
 16 39  1  0  0  0  0
 17 18  1  0  0  0  0
 17 40  1  0  0  0  0
 17 41  1  0  0  0  0
 18 19  1  0  0  0  0
 19 42  1  0  0  0  0
 19 43  1  0  0  0  0
 20 21  1  0  0  0  0
 20 22  1  0  0  0  0
 20 44  1  0  0  0  0
 21 45  1  0  0  0  0
 21 46  1  0  0  0  0
 21 47  1  0  0  0  0
 22 23  1  0  0  0  0
 22 48  1  0  0  0  0
 22 49  1  0  0  0  0
 23 24  2  0  0  0  0
 23 25  2  0  0  0  0
 23 26  1  0  0  0  0
 26 27  1  0  0  0  0
 26 50  1  0  0  0  0
 26 51  1  0  0  0  0
 27 52  1  0  0  0  0
 27 53  1  0  0  0  0
 27 54  1  0  0  0  0
M  END
> <s_m_source_file>
AV-unprocessed.smi

> <i_m_source_file_index>
89

> <i_lp_mmshare_version>
43012

> <i_f3d_flags>
0

> <s_epik_input>
W0NIM11bQ0gyXVMoPU8pKD1PKVtDSDJdW0NAQEhdKFtDSDNdKU4oW0NIMl1bQ0gzXSljKG5bY0hdbjEpYyhjMTIpbltjSF1uMltDSDJdW0NAQF0zKFtPSF0pW0NIMl1bQ0gyXU9bQ0gyXTM=

> <s_epik_cmdline>
J2VwaWtfcHl0aG9uJywgJy1waCcsICc3LjAnLCAnLXRuJywgJzgnLCAnLW1hJywgJzIwMCcsICctbWV0YWxfYmluZGluZycsICctaW1hZScsICc8aW5maWxlLm1hZT4nLCAnLW9tYWUnLCAnPG91dGZpbGUubWFlPic=

> <r_lp_tautomer_probability>
1

> <r_epik_Ionization_Penalty>
0.00103773

> <r_epik_Ionization_Penalty_Charging>
0

> <r_epik_Ionization_Penalty_Neutral>
0.00103773

> <r_epik_State_Penalty>
0.000558914

> <r_epik_Charging_Adjusted_Penalty>
0.000558914

> <i_epik_Tot_Q>
0

> <i_epik_Tot_abs_Q>
0

> <r_epik_Metal_State_Penalty>
-0

> <b_epik_Metal_Only>
0

> <s_lp_Force_Field>
OPLS_2005

> <r_lp_Energy>
26.0666

> <b_lp_Chiralities_Consistent>
1

> <s_lp_Variant>
AV-unprocessed.smi:89-1

> <Gold.Version>
5.8.1

> <Gold.Id.Protein>
6NUR|6NUR_protein|mol2

> <Gold.PLP.Fitness>
48.4021

> <Gold.PLP.PLP>
-41.0458

> <Gold.PLP.part.hbond>
-1.9184

> <Gold.PLP.part.metal>
0.0000

> <Gold.PLP.part.buried>
-6.4125

> <Gold.PLP.part.nonpolar>
-32.4825

> <Gold.PLP.part.repulsive>
0.1387

> <Gold.PLP.ligand.clash>
0.0000

> <Gold.PLP.ligand.torsion>
0.9983

> <Gold.PLP.Chemscore.Hbond>
1.6076

> <Gold.PLP.Chemscore.CHOScore>
1.0000

> <Gold.PLP.Chemscore.Metal>
0.0000

> <Gold.Chemscore.Hbonds>
donor molecule, donor type, donor heavy atom, donor atom, acceptor molecule, acceptor atom, score
      P1  H  6931  6943       L1    24  1.00
      P1  H  6934  6947       L1    24  0.68
      L1  C    11    34       P1  8028  1.00

> <Gold.PLP.Chemscore.Internal.Correction>
1.5301

> <Gold.Rescore>
     Score         DG    S(hbond)    S(metal)    S(lipo)     H(rot)  DE(clash)    DE(int)     intcor
      9.49     -12.69       1.71        0.00      81.60       3.14       0.04       3.16       ----

> <Gold.Chemscore.Fitness>
9.4918

> <Gold.Chemscore.DG>
-12.6881

> <Gold.Chemscore.ZeroCoef>
-5.4800

> <Gold.Chemscore.Hbond>
1.7055

> <Gold.Chemscore.Metal>
0.0000

> <Gold.Chemscore.Lipo>
81.5955

> <Gold.Chemscore.Internal_Hbond>
0.0000

> <Gold.Chemscore.DEClash>
0.0384

> <Gold.Chemscore.DEInternal>
3.1579

> <Gold.Chemscore.Rot>
3.1386

> <Gold.Chemscore.Internal.Correction>
   9.000000E+99

> <Gold.Chemscore.Hbonds>
donor molecule, donor type, donor heavy atom, donor atom, acceptor molecule, acceptor atom, score
      P1  H  6931  6943       L1    24  0.96
      P1  H  6934  6947       L1    24  0.52

> <Gold.Chemscore.Hbond.Weighted>
-5.6964

> <Gold.Chemscore.Metal.Weighted>
-0.0000

> <Gold.Chemscore.Lipo.Weighted>
-9.5467

> <Gold.Chemscore.Internal_Hbond.Weighted>
0.0000

> <Gold.Chemscore.DEClash.Weighted>
0.0384

> <Gold.Chemscore.DEInternal.Weighted>
3.1579

> <Gold.Chemscore.Rot.Weighted>
8.0349

> <Gold.Chemscore.Internal.Correction.Weighted>
   9.000000E+99

> <Gold.Protein.RotatedTorsions>
[ 6907 6896 6895 6894 ] final  -84.80 input  -60.11 | X-H torsion
[ 7974 7965 7964 7962 ] final -143.80 input  175.53 | X-H torsion
[ 8008 7997 7996 7995 ] final    2.49 input   59.86 | X-H torsion
[ 10167 10162 10161 10158 ] final  158.78 input  -65.29 | X-H torsion
[ 10718 10713 10712 10709 ] final  -53.19 input   66.30 | X-H torsion
[ 10763 10752 10751 10750 ] final  -27.11 input  -60.55 | X-H torsion
[ 11005 11000 10999 10996 ] final  167.50 input  -57.11 | X-H torsion

> <Gold.Protein.ActiveResidues>
 VAL166  LYS551  ARG553  GLY616  TRP617  ASP618  TYR619  PRO620  LYS621  CYS622 
 ASP623  PHE694  ASN695  SER759  ASP760  ASP761  ALA762  ILE779  LEU786  VAL792 
 PHE793  MET794  SER795  GLU796  ALA797  LYS798  CYS799  TRP800  GLU811  SER814 

> <Gold.Protein.RotatedAtoms>
  150.6874  134.3303  159.4824 H   0  0  0  0  0  0  0  0  0  0  0  0  # atno 6907 bound_to 6896
  152.1169  134.9231  160.0574 H   0  0  0  0  0  0  0  0  0  0  0  0  # atno 6908 bound_to 6896
  152.0453  133.3960  159.4391 H   0  0  0  0  0  0  0  0  0  0  0  0  # atno 6909 bound_to 6896
  144.8343  140.5790  143.5494 H   0  0  0  0  0  0  0  0  0  0  0  0  # atno 7974 bound_to 7965
  154.6922  140.2655  155.6801 H   0  0  0  0  0  0  0  0  0  0  0  0  # atno 8008 bound_to 7997
  156.2736  140.2789  156.1427 H   0  0  0  0  0  0  0  0  0  0  0  0  # atno 8009 bound_to 7997
  155.0881  140.0373  157.2650 H   0  0  0  0  0  0  0  0  0  0  0  0  # atno 8010 bound_to 7997
  139.4828  144.4792  151.8468 H   0  0  0  0  0  0  0  0  0  0  0  0  # atno 10167 bound_to 10162
  156.1557  130.4150  149.9874 H   0  0  0  0  0  0  0  0  0  0  0  0  # atno 10718 bound_to 10713
  153.7267  135.6941  153.4999 H   0  0  0  0  0  0  0  0  0  0  0  0  # atno 10763 bound_to 10752
  153.2165  135.4385  155.0439 H   0  0  0  0  0  0  0  0  0  0  0  0  # atno 10764 bound_to 10752
  154.8266  135.3450  154.6799 H   0  0  0  0  0  0  0  0  0  0  0  0  # atno 10765 bound_to 10752
  140.2775  134.7777  157.3729 H   0  0  0  0  0  0  0  0  0  0  0  0  # atno 11005 bound_to 11000
  145.4827  139.1494  143.3753 LP  0  0  0  0  0  0  0  0  0  0  0  0  # atno 17320 bound_to 7965
  146.2644  140.4964  142.8840 LP  0  0  0  0  0  0  0  0  0  0  0  0  # atno 17321 bound_to 7965
  140.4266  144.2172  150.5887 LP  0  0  0  0  0  0  0  0  0  0  0  0  # atno 17342 bound_to 10162
  140.4821  143.2376  151.8941 LP  0  0  0  0  0  0  0  0  0  0  0  0  # atno 17343 bound_to 10162
  156.7718  130.9189  151.3644 LP  0  0  0  0  0  0  0  0  0  0  0  0  # atno 17370 bound_to 10713
  157.6692  130.9036  150.0002 LP  0  0  0  0  0  0  0  0  0  0  0  0  # atno 17371 bound_to 10713
  140.1315  134.5089  155.8102 LP  0  0  0  0  0  0  0  0  0  0  0  0  # atno 17394 bound_to 11000
  141.2168  133.6791  156.7047 LP  0  0  0  0  0  0  0  0  0  0  0  0  # atno 17395 bound_to 11000

$$$$
