AV-unprocessed.smi:1749|AV-procd|sdf|7044|dock4
  -GOLD-   22720 8263D 1   1.00000     0.00000
 Structure written by MMmdl.
 32 33  0  0  0  0  0  0  0  0  1 V2000
  152.7715  142.9339  162.1994 C   0  0  0  0  0  0  0  0  0  0  0  0
  152.2150  143.2771  160.8105 C   0  0  2  0  0  0  0  0  0  0  0  0
  153.1921  142.8618  159.6938 C   0  0  0  0  0  0  0  0  0  0  0  0
  152.6409  143.2072  158.3014 C   0  0  0  0  0  0  0  0  0  0  0  0
  152.2893  144.7013  158.1926 C   0  0  0  0  0  0  0  0  0  0  0  0
  151.3206  145.1517  159.3028 C   0  0  1  0  0  0  0  0  0  0  0  0
  150.0014  144.5631  159.0859 N   0  0  0  0  0  0  0  0  0  0  0  0
  149.0175  144.4691  159.9950 C   0  0  0  0  0  0  0  0  0  0  0  0
  149.1089  144.9383  161.1279 O   0  0  0  0  0  0  0  0  0  0  0  0
  147.8995  143.8283  159.5930 N   0  0  0  0  0  0  0  0  0  0  0  0
  146.6810  143.5476  160.2774 C   0  0  0  0  0  0  0  0  0  0  0  0
  145.8952  142.4877  160.0238 N   0  0  0  0  0  0  0  0  0  0  0  0
  144.7850  142.4484  160.8559 N   0  0  0  0  0  0  0  0  0  0  0  0
  144.7813  143.4710  161.7152 C   0  0  0  0  0  0  0  0  0  0  0  0
  146.1344  144.5819  161.5901 S   0  0  0  0  0  0  0  0  0  0  0  0
  151.8715  144.7774  160.6959 C   0  0  0  0  0  0  0  0  0  0  0  0
  153.6986  143.4717  162.3994 H   0  0  0  0  0  0  0  0  0  0  0  0
  152.9795  141.8672  162.2862 H   0  0  0  0  0  0  0  0  0  0  0  0
  152.0591  143.1947  162.9825 H   0  0  0  0  0  0  0  0  0  0  0  0
  151.2946  142.7055  160.6812 H   0  0  0  0  0  0  0  0  0  0  0  0
  154.1509  143.3617  159.8381 H   0  0  0  0  0  0  0  0  0  0  0  0
  153.3910  141.7911  159.7515 H   0  0  0  0  0  0  0  0  0  0  0  0
  153.3736  142.9438  157.5383 H   0  0  0  0  0  0  0  0  0  0  0  0
  151.7563  142.6025  158.0979 H   0  0  0  0  0  0  0  0  0  0  0  0
  153.2066  145.2874  158.2602 H   0  0  0  0  0  0  0  0  0  0  0  0
  151.8650  144.9149  157.2107 H   0  0  0  0  0  0  0  0  0  0  0  0
  151.2246  146.2372  159.2434 H   0  0  0  0  0  0  0  0  0  0  0  0
  149.8365  144.1549  158.1768 H   0  0  0  0  0  0  0  0  0  0  0  0
  147.8993  143.5599  158.6198 H   0  0  0  0  0  0  0  0  0  0  0  0
  143.9780  143.5702  162.4301 H   0  0  0  0  0  0  0  0  0  0  0  0
  151.1556  145.0582  161.4696 H   0  0  0  0  0  0  0  0  0  0  0  0
  152.7685  145.3669  160.8909 H   0  0  0  0  0  0  0  0  0  0  0  0
  1  2  1  0  0  0  0
  1 17  1  0  0  0  0
  1 18  1  0  0  0  0
  1 19  1  0  0  0  0
  2 16  1  0  0  0  0
  2  3  1  0  0  0  0
  2 20  1  0  0  0  0
  3  4  1  0  0  0  0
  3 21  1  0  0  0  0
  3 22  1  0  0  0  0
  4  5  1  0  0  0  0
  4 23  1  0  0  0  0
  4 24  1  0  0  0  0
  5  6  1  0  0  0  0
  5 25  1  0  0  0  0
  5 26  1  0  0  0  0
  6  7  1  0  0  0  0
  6 16  1  0  0  0  0
  6 27  1  0  0  0  0
  7  8  1  0  0  0  0
  7 28  1  0  0  0  0
  8  9  2  0  0  0  0
  8 10  1  0  0  0  0
 10 11  1  0  0  0  0
 10 29  1  0  0  0  0
 11 15  1  0  0  0  0
 11 12  2  0  0  0  0
 12 13  1  0  0  0  0
 13 14  2  0  0  0  0
 14 15  1  0  0  0  0
 14 30  1  0  0  0  0
 16 31  1  0  0  0  0
 16 32  1  0  0  0  0
M  END
> <s_m_source_file>
AV-unprocessed.smi

> <i_m_source_file_index>
1749

> <i_lp_mmshare_version>
43012

> <i_f3d_flags>
0

> <s_epik_input>
W0NIM11bQ0BASF0xW0NIMl1bQ0gyXVtDSDJdW0NASF0oW0NIMl0xKVtOSF1DKD1PKVtOSF1jMm5uW2NIXXMy

> <s_epik_cmdline>
J2VwaWtfcHl0aG9uJywgJy1waCcsICc3LjAnLCAnLXRuJywgJzgnLCAnLW1hJywgJzIwMCcsICctbWV0YWxfYmluZGluZycsICctaW1hZScsICc8aW5maWxlLm1hZT4nLCAnLW9tYWUnLCAnPG91dGZpbGUubWFlPic=

> <r_lp_tautomer_probability>
1

> <r_epik_Ionization_Penalty>
0.000318591

> <r_epik_Ionization_Penalty_Charging>
0

> <r_epik_Ionization_Penalty_Neutral>
0.000318591

> <r_epik_State_Penalty>
-0

> <r_epik_Charging_Adjusted_Penalty>
0

> <i_epik_Tot_Q>
0

> <i_epik_Tot_abs_Q>
0

> <r_epik_Metal_State_Penalty>
0.169791

> <b_epik_Metal_Only>
0

> <s_lp_Force_Field>
OPLS_2005

> <r_lp_Energy>
10.2552

> <b_lp_Chiralities_Consistent>
1

> <s_lp_Variant>
AV-unprocessed.smi:1749-1

> <Gold.Version>
5.8.1

> <Gold.Id.Protein>
6NUR|6NUR_protein|mol2

> <Gold.PLP.Fitness>
41.4650

> <Gold.PLP.PLP>
-39.2943

> <Gold.PLP.part.hbond>
-2.3291

> <Gold.PLP.part.metal>
0.0000

> <Gold.PLP.part.buried>
-6.6719

> <Gold.PLP.part.nonpolar>
-32.2502

> <Gold.PLP.part.repulsive>
0.9721

> <Gold.PLP.ligand.clash>
0.0000

> <Gold.PLP.ligand.torsion>
0.4174

> <Gold.PLP.Chemscore.Hbond>
1.0000

> <Gold.PLP.Chemscore.CHOScore>
0.0000

> <Gold.PLP.Chemscore.Metal>
0.0000

> <Gold.Chemscore.Hbonds>
donor molecule, donor type, donor heavy atom, donor atom, acceptor molecule, acceptor atom, score
      P1  H  6934  6946       L1    12  0.99

> <Gold.PLP.Chemscore.Internal.Correction>
0.0056

> <Gold.Rescore>
     Score         DG    S(hbond)    S(metal)    S(lipo)     H(rot)  DE(clash)    DE(int)     intcor
     16.63     -19.62       1.73        0.00      93.37       1.00       0.46       2.53       ----

> <Gold.Chemscore.Fitness>
16.6281

> <Gold.Chemscore.DG>
-19.6173

> <Gold.Chemscore.ZeroCoef>
-5.4800

> <Gold.Chemscore.Hbond>
1.7283

> <Gold.Chemscore.Metal>
0.0000

> <Gold.Chemscore.Lipo>
93.3743

> <Gold.Chemscore.Internal_Hbond>
0.0000

> <Gold.Chemscore.DEClash>
0.4575

> <Gold.Chemscore.DEInternal>
2.5317

> <Gold.Chemscore.Rot>
1.0000

> <Gold.Chemscore.Internal.Correction>
   9.000000E+99

> <Gold.Chemscore.Hbonds>
donor molecule, donor type, donor heavy atom, donor atom, acceptor molecule, acceptor atom, score
      P1  H  6934  6946       L1    12  0.13

> <Gold.Chemscore.Hbond.Weighted>
-5.7725

> <Gold.Chemscore.Metal.Weighted>
-0.0000

> <Gold.Chemscore.Lipo.Weighted>
-10.9248

> <Gold.Chemscore.Internal_Hbond.Weighted>
0.0000

> <Gold.Chemscore.DEClash.Weighted>
0.4575

> <Gold.Chemscore.DEInternal.Weighted>
2.5317

> <Gold.Chemscore.Rot.Weighted>
2.5600

> <Gold.Chemscore.Internal.Correction.Weighted>
   9.000000E+99

> <Gold.Protein.RotatedTorsions>
[ 6907 6896 6895 6894 ] final   80.87 input  -60.11 | X-H torsion
[ 7974 7965 7964 7962 ] final  144.06 input  175.53 | X-H torsion
[ 8008 7997 7996 7995 ] final  113.94 input   59.86 | X-H torsion
[ 10167 10162 10161 10158 ] final   72.00 input  -65.29 | X-H torsion
[ 10718 10713 10712 10709 ] final   76.96 input   66.30 | X-H torsion
[ 10763 10752 10751 10750 ] final -167.96 input  -60.55 | X-H torsion
[ 11005 11000 10999 10996 ] final -104.33 input  -57.11 | X-H torsion

> <Gold.Protein.ActiveResidues>
 VAL166  LYS551  ARG553  GLY616  TRP617  ASP618  TYR619  PRO620  LYS621  CYS622 
 ASP623  PHE694  ASN695  SER759  ASP760  ASP761  ALA762  ILE779  LEU786  VAL792 
 PHE793  MET794  SER795  GLU796  ALA797  LYS798  CYS799  TRP800  GLU811  SER814 

> <Gold.Protein.RotatedAtoms>
  152.5249  134.3291  159.9176 H   0  0  0  0  0  0  0  0  0  0  0  0  # atno 6907 bound_to 6896
  151.3240  133.4021  159.2664 H   0  0  0  0  0  0  0  0  0  0  0  0  # atno 6908 bound_to 6896
  150.9935  134.9282  159.7971 H   0  0  0  0  0  0  0  0  0  0  0  0  # atno 6909 bound_to 6896
  144.8868  139.5617  143.5817 H   0  0  0  0  0  0  0  0  0  0  0  0  # atno 7974 bound_to 7965
  156.2290  140.2969  156.0140 H   0  0  0  0  0  0  0  0  0  0  0  0  # atno 8008 bound_to 7997
  155.2277  140.0418  157.2975 H   0  0  0  0  0  0  0  0  0  0  0  0  # atno 8009 bound_to 7997
  154.5964  140.2415  155.7859 H   0  0  0  0  0  0  0  0  0  0  0  0  # atno 8010 bound_to 7997
  140.0400  144.5397  150.7441 H   0  0  0  0  0  0  0  0  0  0  0  0  # atno 10167 bound_to 10162
  157.6693  130.9799  150.1572 H   0  0  0  0  0  0  0  0  0  0  0  0  # atno 10718 bound_to 10713
  154.6678  135.2934  154.9782 H   0  0  0  0  0  0  0  0  0  0  0  0  # atno 10763 bound_to 10752
  154.0820  135.6603  153.4843 H   0  0  0  0  0  0  0  0  0  0  0  0  # atno 10764 bound_to 10752
  153.0468  135.5199  154.7659 H   0  0  0  0  0  0  0  0  0  0  0  0  # atno 10765 bound_to 10752
  141.1105  133.8715  157.1598 H   0  0  0  0  0  0  0  0  0  0  0  0  # atno 11005 bound_to 11000
  146.3029  139.7485  142.9078 LP  0  0  0  0  0  0  0  0  0  0  0  0  # atno 17320 bound_to 7965
  145.3855  141.0365  143.3153 LP  0  0  0  0  0  0  0  0  0  0  0  0  # atno 17321 bound_to 7965
  140.7264  143.2641  151.4104 LP  0  0  0  0  0  0  0  0  0  0  0  0  # atno 17342 bound_to 10162
  139.6020  144.1276  152.2208 LP  0  0  0  0  0  0  0  0  0  0  0  0  # atno 17343 bound_to 10162
  156.2357  130.3686  149.8394 LP  0  0  0  0  0  0  0  0  0  0  0  0  # atno 17370 bound_to 10713
  156.6208  130.8625  151.3475 LP  0  0  0  0  0  0  0  0  0  0  0  0  # atno 17371 bound_to 10713
  139.9997  135.0033  157.0161 LP  0  0  0  0  0  0  0  0  0  0  0  0  # atno 17394 bound_to 11000
  140.4788  134.1311  155.7213 LP  0  0  0  0  0  0  0  0  0  0  0  0  # atno 17395 bound_to 11000

$$$$
