AV-unprocessed.smi:2655|AV-procd|sdf|10298|dock7
  -GOLD-   2272014313D 1   1.00000     0.00000
 Structure written by MMmdl.
 33 34  0  0  0  0  0  0  0  0  2 V2000
  150.9993  141.4829  156.0932 C   0  0  0  0  0  0  0  0  0  0  0  0
  151.4288  140.0840  155.7570 C   0  0  0  0  0  0  0  0  0  0  0  0
  152.5819  139.6270  156.2350 N   0  0  0  0  0  0  0  0  0  0  0  0
  152.6668  138.3719  155.7546 N   0  0  0  0  0  0  0  0  0  0  0  0
  151.5792  138.0462  154.9863 C   0  0  0  0  0  0  0  0  0  0  0  0
  151.4689  136.8367  154.4069 O   0  5  0  0  0  0  0  0  0  0  0  0
  150.7393  139.1214  154.9560 C   0  0  0  0  0  0  0  0  0  0  0  0
  149.4187  139.2696  154.2519 C   0  0  0  0  0  0  0  0  0  0  0  0
  148.3736  138.2945  154.8156 C   0  0  0  0  0  0  0  0  0  0  0  0
  147.9070  137.3626  153.7963 N   0  0  0  0  0  0  0  0  0  0  0  0
  146.7076  136.7637  153.7912 C   0  0  0  0  0  0  0  0  0  0  0  0
  145.8517  136.9506  154.6561 O   0  0  0  0  0  0  0  0  0  0  0  0
  146.5794  135.9470  152.7319 N   0  0  0  0  0  0  0  0  0  0  0  0
  145.4748  135.1314  152.3753 C   0  0  0  0  0  0  0  0  0  0  0  0
  145.4803  134.0713  151.4226 C   0  0  0  0  0  0  0  0  0  0  0  0
  144.1907  133.6211  151.4582 C   0  0  0  0  0  0  0  0  0  0  0  0
  143.4747  132.5370  150.7282 C   0  0  0  0  0  0  0  0  0  0  0  0
  143.4617  134.3416  152.3522 O   0  0  0  0  0  0  0  0  0  0  0  0
  144.2919  135.3058  152.9354 N   0  0  0  0  0  0  0  0  0  0  0  0
  150.4502  141.9343  155.2669 H   0  0  0  0  0  0  0  0  0  0  0  0
  151.8548  142.1240  156.3081 H   0  0  0  0  0  0  0  0  0  0  0  0
  150.3488  141.4899  156.9675 H   0  0  0  0  0  0  0  0  0  0  0  0
  153.4522  137.7698  155.9552 H   0  0  0  0  0  0  0  0  0  0  0  0
  149.5382  139.1008  153.1812 H   0  0  0  0  0  0  0  0  0  0  0  0
  149.0485  140.2909  154.3488 H   0  0  0  0  0  0  0  0  0  0  0  0
  148.7793  137.7483  155.6691 H   0  0  0  0  0  0  0  0  0  0  0  0
  147.5107  138.8500  155.1843 H   0  0  0  0  0  0  0  0  0  0  0  0
  148.5505  137.1518  153.0476 H   0  0  0  0  0  0  0  0  0  0  0  0
  147.3712  135.8969  152.1080 H   0  0  0  0  0  0  0  0  0  0  0  0
  146.2828  133.6919  150.8087 H   0  0  0  0  0  0  0  0  0  0  0  0
  144.1773  131.8985  150.1924 H   0  0  0  0  0  0  0  0  0  0  0  0
  142.7774  132.9565  150.0027 H   0  0  0  0  0  0  0  0  0  0  0  0
  142.9099  131.9116  151.4196 H   0  0  0  0  0  0  0  0  0  0  0  0
  1 20  1  0  0  0  0
  1 21  1  0  0  0  0
  1 22  1  0  0  0  0
  1  2  1  0  0  0  0
  2  7  1  0  0  0  0
  2  3  2  0  0  0  0
  3  4  1  0  0  0  0
  4 23  1  0  0  0  0
  4  5  1  0  0  0  0
  5  7  2  0  0  0  0
  5  6  1  0  0  0  0
  7  8  1  0  0  0  0
  8  9  1  0  0  0  0
  8 24  1  0  0  0  0
  8 25  1  0  0  0  0
  9 10  1  0  0  0  0
  9 26  1  0  0  0  0
  9 27  1  0  0  0  0
 10 11  1  0  0  0  0
 10 28  1  0  0  0  0
 11 12  2  0  0  0  0
 11 13  1  0  0  0  0
 13 14  1  0  0  0  0
 13 29  1  0  0  0  0
 14 19  2  0  0  0  0
 14 15  1  0  0  0  0
 15 16  2  0  0  0  0
 15 30  1  0  0  0  0
 16 17  1  0  0  0  0
 16 18  1  0  0  0  0
 17 31  1  0  0  0  0
 17 32  1  0  0  0  0
 17 33  1  0  0  0  0
 18 19  1  0  0  0  0
M  CHG  1   6  -1
M  END
> <s_m_source_file>
AV-unprocessed.smi

> <i_m_source_file_index>
2655

> <i_lp_mmshare_version>
43012

> <i_f3d_flags>
0

> <s_epik_input>
W0NIM11DMT1OW05IXUMoPU8pW0NASF0xW0NIMl1bQ0gyXVtOSF1DKD1PKVtOSF1jMltjSF1jKFtDSDNdKW9uMg==

> <s_epik_cmdline>
J2VwaWtfcHl0aG9uJywgJy1waCcsICc3LjAnLCAnLXRuJywgJzgnLCAnLW1hJywgJzIwMCcsICctbWV0YWxfYmluZGluZycsICctaW1hZScsICc8aW5maWxlLm1hZT4nLCAnLW9tYWUnLCAnPG91dGZpbGUubWFlPic=

> <r_lp_tautomer_probability>
0.99495

> <r_epik_Ionization_Penalty>
1.68606

> <r_epik_Ionization_Penalty_Charging>
0.00156442

> <r_epik_Ionization_Penalty_Neutral>
1.68449

> <r_epik_State_Penalty>
0.315845

> <r_epik_Charging_Adjusted_Penalty>
0.31741

> <i_epik_Tot_Q>
-1

> <i_epik_Tot_abs_Q>
1

> <r_epik_Metal_State_Penalty>
0.0445802

> <b_epik_Metal_Only>
0

> <s_lp_Force_Field>
OPLS_2005

> <r_lp_Energy>
-3.25288

> <b_lp_Chiralities_Consistent>
1

> <s_lp_Variant>
AV-unprocessed.smi:2655-1

> <Gold.Version>
5.8.1

> <Gold.Id.Protein>
6NUR|6NUR_protein|mol2

> <Gold.PLP.Fitness>
41.4121

> <Gold.PLP.PLP>
-27.6661

> <Gold.PLP.part.hbond>
-3.8312

> <Gold.PLP.part.metal>
0.0000

> <Gold.PLP.part.buried>
-4.5547

> <Gold.PLP.part.nonpolar>
-20.6591

> <Gold.PLP.part.repulsive>
1.1905

> <Gold.PLP.ligand.clash>
0.0000

> <Gold.PLP.ligand.torsion>
0.6194

> <Gold.PLP.Chemscore.Hbond>
4.9920

> <Gold.PLP.Chemscore.CHOScore>
0.0000

> <Gold.PLP.Chemscore.Metal>
0.0000

> <Gold.Chemscore.Hbonds>
donor molecule, donor type, donor heavy atom, donor atom, acceptor molecule, acceptor atom, score
      L1  H    10    28       P1  7948  0.99
      L1  H    13    29       P1  7948  0.98
      P1  H  7997  8010       L1     3  1.00
      P1  H 10752 10765       L1     6  2.00

> <Gold.PLP.Chemscore.Internal.Correction>
0.0088

> <Gold.Rescore>
     Score         DG    S(hbond)    S(metal)    S(lipo)     H(rot)  DE(clash)    DE(int)     intcor
     16.86     -18.81       3.71        0.00      48.41       1.85       0.01       1.93       ----

> <Gold.Chemscore.Fitness>
16.8638

> <Gold.Chemscore.DG>
-18.8053

> <Gold.Chemscore.ZeroCoef>
-5.4800

> <Gold.Chemscore.Hbond>
3.7120

> <Gold.Chemscore.Metal>
0.0000

> <Gold.Chemscore.Lipo>
48.4102

> <Gold.Chemscore.Internal_Hbond>
0.0000

> <Gold.Chemscore.DEClash>
0.0121

> <Gold.Chemscore.DEInternal>
1.9293

> <Gold.Chemscore.Rot>
1.8504

> <Gold.Chemscore.Internal.Correction>
   9.000000E+99

> <Gold.Chemscore.Hbonds>
donor molecule, donor type, donor heavy atom, donor atom, acceptor molecule, acceptor atom, score
      L1  H    10    28       P1  7948  0.89
      L1  H    13    29       P1  7948  0.92
      P1  H  7997  8010       L1     3  0.30
      P1  H 10752 10765       L1     6  0.98

> <Gold.Chemscore.Hbond.Weighted>
-12.3982

> <Gold.Chemscore.Metal.Weighted>
-0.0000

> <Gold.Chemscore.Lipo.Weighted>
-5.6640

> <Gold.Chemscore.Internal_Hbond.Weighted>
0.0000

> <Gold.Chemscore.DEClash.Weighted>
0.0121

> <Gold.Chemscore.DEInternal.Weighted>
1.9293

> <Gold.Chemscore.Rot.Weighted>
4.7369

> <Gold.Chemscore.Internal.Correction.Weighted>
   9.000000E+99

> <Gold.Protein.RotatedTorsions>
[ 6907 6896 6895 6894 ] final  144.81 input  -60.11 | X-H torsion
[ 7974 7965 7964 7962 ] final   20.87 input  175.53 | X-H torsion
[ 8008 7997 7996 7995 ] final   90.18 input   59.86 | X-H torsion
[ 10167 10162 10161 10158 ] final -104.89 input  -65.29 | X-H torsion
[ 10718 10713 10712 10709 ] final   30.38 input   66.30 | X-H torsion
[ 10763 10752 10751 10750 ] final  170.98 input  -60.55 | X-H torsion
[ 11005 11000 10999 10996 ] final  -28.09 input  -57.11 | X-H torsion

> <Gold.Protein.ActiveResidues>
 VAL166  LYS551  ARG553  GLY616  TRP617  ASP618  TYR619  PRO620  LYS621  CYS622 
 ASP623  PHE694  ASN695  SER759  ASP760  ASP761  ALA762  ILE779  LEU786  VAL792 
 PHE793  MET794  SER795  GLU796  ALA797  LYS798  CYS799  TRP800  GLU811  SER814 

> <Gold.Protein.RotatedAtoms>
  152.1890  133.4759  159.4997 H   0  0  0  0  0  0  0  0  0  0  0  0  # atno 6907 bound_to 6896
  150.6947  134.1737  159.4231 H   0  0  0  0  0  0  0  0  0  0  0  0  # atno 6908 bound_to 6896
  151.9651  135.0104  160.0600 H   0  0  0  0  0  0  0  0  0  0  0  0  # atno 6909 bound_to 6896
  146.2094  139.8107  142.8700 H   0  0  0  0  0  0  0  0  0  0  0  0  # atno 7974 bound_to 7965
  156.0089  140.3352  155.6921 H   0  0  0  0  0  0  0  0  0  0  0  0  # atno 8008 bound_to 7997
  155.6185  140.0672  157.2703 H   0  0  0  0  0  0  0  0  0  0  0  0  # atno 8009 bound_to 7997
  154.4274  140.1781  156.1335 H   0  0  0  0  0  0  0  0  0  0  0  0  # atno 8010 bound_to 7997
  140.2044  143.3794  152.1103 H   0  0  0  0  0  0  0  0  0  0  0  0  # atno 10167 bound_to 10162
  157.2588  130.7151  149.6443 H   0  0  0  0  0  0  0  0  0  0  0  0  # atno 10718 bound_to 10713
  154.4053  135.2755  155.2071 H   0  0  0  0  0  0  0  0  0  0  0  0  # atno 10763 bound_to 10752
  154.4079  135.6029  153.5939 H   0  0  0  0  0  0  0  0  0  0  0  0  # atno 10764 bound_to 10752
  152.9831  135.5942  154.4327 H   0  0  0  0  0  0  0  0  0  0  0  0  # atno 10765 bound_to 10752
  140.9177  133.7419  156.0758 H   0  0  0  0  0  0  0  0  0  0  0  0  # atno 11005 bound_to 11000
  145.3198  141.0241  143.3507 LP  0  0  0  0  0  0  0  0  0  0  0  0  # atno 17320 bound_to 7965
  144.8875  139.4820  143.6694 LP  0  0  0  0  0  0  0  0  0  0  0  0  # atno 17321 bound_to 7965
  139.5204  144.7033  151.5430 LP  0  0  0  0  0  0  0  0  0  0  0  0  # atno 17342 bound_to 10162
  140.6368  143.8968  150.6654 LP  0  0  0  0  0  0  0  0  0  0  0  0  # atno 17343 bound_to 10162
  155.9664  130.4404  150.5298 LP  0  0  0  0  0  0  0  0  0  0  0  0  # atno 17370 bound_to 10713
  157.3198  131.0679  151.1940 LP  0  0  0  0  0  0  0  0  0  0  0  0  # atno 17371 bound_to 10713
  140.8028  134.3489  157.5434 LP  0  0  0  0  0  0  0  0  0  0  0  0  # atno 17394 bound_to 11000
  139.8769  134.9208  156.3260 LP  0  0  0  0  0  0  0  0  0  0  0  0  # atno 17395 bound_to 11000

$$$$
