AV-unprocessed.smi:55|AV-procd|sdf|571|dock3
  -GOLD-   2262016473D 1   1.00000     0.00000
 Structure written by MMmdl.
 30 31  0  0  0  0  0  0  0  0  2 V2000
  152.2455  144.7200  157.9734 C   0  0  0  0  0  0  0  0  0  0  0  0
  151.8828  143.2682  158.2329 C   0  0  0  0  0  0  0  0  0  0  0  0
  151.0299  142.5845  157.4377 C   0  0  0  0  0  0  0  0  0  0  0  0
  150.7054  141.2611  157.6780 N   0  0  0  0  0  0  0  0  0  0  0  0
  149.7680  140.5186  156.7564 C   0  0  2  0  0  0  0  0  0  0  0  0
  150.4158  140.2706  155.4001 C   0  0  0  0  0  0  0  0  0  0  0  0
  149.2104  140.2583  154.4675 C   0  0  2  0  0  0  0  0  0  0  0  0
  149.4938  141.0078  153.3004 O   0  0  0  0  0  0  0  0  0  0  0  0
  148.0383  140.8094  155.3172 C   0  0  2  0  0  0  0  0  0  0  0  0
  147.1897  141.9197  154.6692 C   0  0  0  0  0  0  0  0  0  0  0  0
  148.0280  142.9052  154.1036 O   0  0  0  0  0  0  0  0  0  0  0  0
  148.6558  141.3085  156.4977 O   0  0  0  0  0  0  0  0  0  0  0  0
  151.3025  140.5771  158.7679 C   0  0  0  0  0  0  0  0  0  0  0  0
  151.0273  139.3874  158.9272 O   0  0  0  0  0  0  0  0  0  0  0  0
  152.1567  141.2612  159.5817 N   0  5  0  0  0  0  0  0  0  0  0  0
  152.4785  142.5716  159.3799 C   0  0  0  0  0  0  0  0  0  0  0  0
  153.2494  143.1774  160.1239 O   0  0  0  0  0  0  0  0  0  0  0  0
  149.4473  139.6098  157.2693 H   0  0  0  0  0  0  0  0  0  0  0  0
  148.9845  139.2355  154.1633 H   0  0  0  0  0  0  0  0  0  0  0  0
  147.4014  139.9680  155.5966 H   0  0  0  0  0  0  0  0  0  0  0  0
  151.7335  145.1051  157.0912 H   0  0  0  0  0  0  0  0  0  0  0  0
  153.3192  144.8206  157.8123 H   0  0  0  0  0  0  0  0  0  0  0  0
  151.9647  145.3408  158.8247 H   0  0  0  0  0  0  0  0  0  0  0  0
  150.5971  143.0883  156.5860 H   0  0  0  0  0  0  0  0  0  0  0  0
  151.0883  141.0989  155.1683 H   0  0  0  0  0  0  0  0  0  0  0  0
  150.9846  139.3404  155.4025 H   0  0  0  0  0  0  0  0  0  0  0  0
  149.3522  140.4552  152.5473 H   0  0  0  0  0  0  0  0  0  0  0  0
  146.5165  141.5136  153.9134 H   0  0  0  0  0  0  0  0  0  0  0  0
  146.5777  142.4214  155.4192 H   0  0  0  0  0  0  0  0  0  0  0  0
  148.1647  143.5864  154.7439 H   0  0  0  0  0  0  0  0  0  0  0  0
  1  2  1  0  0  0  0
  1 21  1  0  0  0  0
  1 22  1  0  0  0  0
  1 23  1  0  0  0  0
  2 16  1  0  0  0  0
  2  3  2  0  0  0  0
  3  4  1  0  0  0  0
  3 24  1  0  0  0  0
  4  5  1  0  0  0  0
  4 13  1  0  0  0  0
  5 18  1  0  0  0  0
  5 12  1  0  0  0  0
  5  6  1  0  0  0  0
  6  7  1  0  0  0  0
  6 25  1  0  0  0  0
  6 26  1  0  0  0  0
  7 19  1  0  0  0  0
  7  8  1  0  0  0  0
  7  9  1  0  0  0  0
  8 27  1  0  0  0  0
  9 20  1  0  0  0  0
  9 10  1  0  0  0  0
  9 12  1  0  0  0  0
 10 11  1  0  0  0  0
 10 28  1  0  0  0  0
 10 29  1  0  0  0  0
 11 30  1  0  0  0  0
 13 14  2  0  0  0  0
 13 15  1  0  0  0  0
 15 16  1  0  0  0  0
 16 17  2  0  0  0  0
M  CHG  1  15  -1
M  END
> <s_m_source_file>
AV-unprocessed.smi

> <i_m_source_file_index>
55

> <i_lp_mmshare_version>
43012

> <i_f3d_flags>
0

> <s_epik_input>
Tz1jMVtuSF1jKD1PKW4oW2NIXWMxW0NIM10pW0NAQEhdMltDSDJdW0NAQEhdKFtPSF0pW0NAQEhdKE8yKVtDSDJdW09IXQ==

> <s_epik_cmdline>
J2VwaWtfcHl0aG9uJywgJy1waCcsICc3LjAnLCAnLXRuJywgJzgnLCAnLW1hJywgJzIwMCcsICctbWV0YWxfYmluZGluZycsICctaW1hZScsICc8aW5maWxlLm1hZT4nLCAnLW9tYWUnLCAnPG91dGZpbGUubWFlPic=

> <r_lp_tautomer_probability>
0.999537

> <r_epik_Ionization_Penalty>
3.66603

> <r_epik_Ionization_Penalty_Charging>
1.09773e-07

> <r_epik_Ionization_Penalty_Neutral>
3.66603

> <r_epik_State_Penalty>
3.66562

> <r_epik_Charging_Adjusted_Penalty>
3.66562

> <i_epik_Tot_Q>
-1

> <i_epik_Tot_abs_Q>
1

> <r_epik_Metal_State_Penalty>
0.234536

> <b_epik_Metal_Only>
1

> <s_epik_Chemistry_Notes>
This compound contains an acetal/aminal-like group ( X-CH(R)-Y where X, Y are N, S, or O) that may be acid/base labile, releasing an aldehyde.

> <s_lp_Force_Field>
OPLS_2005

> <r_lp_Energy>
40.7454

> <b_lp_Chiralities_Consistent>
1

> <s_lp_Variant>
AV-unprocessed.smi:55-11

> <Gold.Version>
5.8.1

> <Gold.Id.Protein>
6NUR|6NUR_protein|mol2

> <Gold.PLP.Fitness>
45.0366

> <Gold.PLP.PLP>
-34.8652

> <Gold.PLP.part.hbond>
-5.2784

> <Gold.PLP.part.metal>
0.0000

> <Gold.PLP.part.buried>
-4.3320

> <Gold.PLP.part.nonpolar>
-24.7066

> <Gold.PLP.part.repulsive>
0.0898

> <Gold.PLP.ligand.clash>
0.0000

> <Gold.PLP.ligand.torsion>
0.3627

> <Gold.PLP.Chemscore.Hbond>
2.6276

> <Gold.PLP.Chemscore.CHOScore>
0.9966

> <Gold.PLP.Chemscore.Metal>
0.0000

> <Gold.Chemscore.Hbonds>
donor molecule, donor type, donor heavy atom, donor atom, acceptor molecule, acceptor atom, score
      L1  H     8    27       P1  7957  0.84
      L1  H    11    30       P1  8028  1.00
      P1  H  7989  7998       L1     8  0.13
      P1  H  8011  8017       L1     8  0.65
      L1  C     3    24       P1  8028  0.99

> <Gold.PLP.Chemscore.Internal.Correction>
0.0242

> <Gold.Rescore>
     Score         DG    S(hbond)    S(metal)    S(lipo)     H(rot)  DE(clash)    DE(int)     intcor
     11.39     -11.70       1.93        0.00      56.73       2.69       0.00       0.31       ----

> <Gold.Chemscore.Fitness>
11.3865

> <Gold.Chemscore.DG>
-11.6967

> <Gold.Chemscore.ZeroCoef>
-5.4800

> <Gold.Chemscore.Hbond>
1.9335

> <Gold.Chemscore.Metal>
0.0000

> <Gold.Chemscore.Lipo>
56.7348

> <Gold.Chemscore.Internal_Hbond>
0.0000

> <Gold.Chemscore.DEClash>
0.0048

> <Gold.Chemscore.DEInternal>
0.3054

> <Gold.Chemscore.Rot>
2.6871

> <Gold.Chemscore.Internal.Correction>
   9.000000E+99

> <Gold.Chemscore.Hbonds>
donor molecule, donor type, donor heavy atom, donor atom, acceptor molecule, acceptor atom, score
      L1  H     8    27       P1  7957  0.79
      L1  H    11    30       P1  8028  0.86
      P1  H  7989  7998       L1     8  0.01
      P1  H  8011  8017       L1     8  0.06

> <Gold.Chemscore.Hbond.Weighted>
-6.4578

> <Gold.Chemscore.Metal.Weighted>
-0.0000

> <Gold.Chemscore.Lipo.Weighted>
-6.6380

> <Gold.Chemscore.Internal_Hbond.Weighted>
0.0000

> <Gold.Chemscore.DEClash.Weighted>
0.0048

> <Gold.Chemscore.DEInternal.Weighted>
0.3054

> <Gold.Chemscore.Rot.Weighted>
6.8791

> <Gold.Chemscore.Internal.Correction.Weighted>
   9.000000E+99

> <Gold.Protein.RotatedTorsions>
[ 6907 6896 6895 6894 ] final  168.85 input  -60.11 | X-H torsion
[ 7974 7965 7964 7962 ] final  -11.86 input  175.53 | X-H torsion
[ 8008 7997 7996 7995 ] final  167.66 input   59.86 | X-H torsion
[ 10167 10162 10161 10158 ] final   10.57 input  -65.29 | X-H torsion
[ 10718 10713 10712 10709 ] final -146.90 input   66.30 | X-H torsion
[ 10763 10752 10751 10750 ] final -152.28 input  -60.55 | X-H torsion
[ 11005 11000 10999 10996 ] final  -27.99 input  -57.11 | X-H torsion

> <Gold.Protein.ActiveResidues>
 VAL166  LYS551  ARG553  GLY616  TRP617  ASP618  TYR619  PRO620  LYS621  CYS622 
 ASP623  PHE694  ASN695  SER759  ASP760  ASP761  ALA762  ILE779  LEU786  VAL792 
 PHE793  MET794  SER795  GLU796  ALA797  LYS798  CYS799  TRP800  GLU811  SER814 

> <Gold.Protein.RotatedAtoms>
  151.8412  133.3424  159.3643 H   0  0  0  0  0  0  0  0  0  0  0  0  # atno 6907 bound_to 6896
  150.7234  134.5389  159.5747 H   0  0  0  0  0  0  0  0  0  0  0  0  # atno 6908 bound_to 6896
  152.2863  134.7773  160.0438 H   0  0  0  0  0  0  0  0  0  0  0  0  # atno 6909 bound_to 6896
  146.2172  140.2973  142.8372 H   0  0  0  0  0  0  0  0  0  0  0  0  # atno 7974 bound_to 7965
  156.1614  140.1611  156.8605 H   0  0  0  0  0  0  0  0  0  0  0  0  # atno 8008 bound_to 7997
  154.5165  140.0788  156.8126 H   0  0  0  0  0  0  0  0  0  0  0  0  # atno 8009 bound_to 7997
  155.3699  140.3399  155.4245 H   0  0  0  0  0  0  0  0  0  0  0  0  # atno 8010 bound_to 7997
  140.6186  143.8254  150.7148 H   0  0  0  0  0  0  0  0  0  0  0  0  # atno 10167 bound_to 10162
  156.4008  130.7933  151.2143 H   0  0  0  0  0  0  0  0  0  0  0  0  # atno 10718 bound_to 10713
  154.8004  135.3240  154.7564 H   0  0  0  0  0  0  0  0  0  0  0  0  # atno 10763 bound_to 10752
  153.8233  135.6885  153.4828 H   0  0  0  0  0  0  0  0  0  0  0  0  # atno 10764 bound_to 10752
  153.1717  135.4620  154.9855 H   0  0  0  0  0  0  0  0  0  0  0  0  # atno 10765 bound_to 10752
  140.9169  133.7424  156.0746 H   0  0  0  0  0  0  0  0  0  0  0  0  # atno 11005 bound_to 11000
  144.9083  140.7726  143.5823 LP  0  0  0  0  0  0  0  0  0  0  0  0  # atno 17320 bound_to 7965
  145.2902  139.1886  143.4744 LP  0  0  0  0  0  0  0  0  0  0  0  0  # atno 17321 bound_to 7965
  140.1839  143.4092  152.1913 LP  0  0  0  0  0  0  0  0  0  0  0  0  # atno 17342 bound_to 10162
  139.5419  144.7264  151.4706 LP  0  0  0  0  0  0  0  0  0  0  0  0  # atno 17343 bound_to 10162
  157.7504  131.0287  150.4062 LP  0  0  0  0  0  0  0  0  0  0  0  0  # atno 17370 bound_to 10713
  156.4341  130.3978  149.6741 LP  0  0  0  0  0  0  0  0  0  0  0  0  # atno 17371 bound_to 10713
  140.8039  134.3477  157.5431 LP  0  0  0  0  0  0  0  0  0  0  0  0  # atno 17394 bound_to 11000
  139.8767  134.9214  156.3274 LP  0  0  0  0  0  0  0  0  0  0  0  0  # atno 17395 bound_to 11000

$$$$
