AV-unprocessed.smi:2850|AV-procd|sdf|10967|dock7
  -GOLD-   2272015423D 1   1.00000     0.00000
 Structure written by MMmdl.
 45 46  0  0  0  0  0  0  0  0  2 V2000
  152.8091  143.1452  162.5716 C   0  0  0  0  0  0  0  0  0  0  0  0
  153.4551  141.9219  161.3969 S   0  0  0  0  0  0  0  0  0  0  0  0
  152.5092  142.0739  159.9123 C   0  0  0  0  0  0  0  0  0  0  0  0
  152.4383  143.3013  159.2294 C   0  0  0  0  0  0  0  0  0  0  0  0
  151.6711  143.3333  158.0517 C   0  0  0  0  0  0  0  0  0  0  0  0
  151.0347  142.1410  157.6507 C   0  0  0  0  0  0  0  0  0  0  0  0
  150.2750  142.1437  156.4716 N   0  0  0  0  0  0  0  0  0  0  0  0
  150.5427  141.2133  155.3798 C   0  0  0  0  0  0  0  0  0  0  0  0
  149.2669  140.5658  154.8095 C   0  0  2  0  0  0  0  0  0  0  0  0
  149.5386  139.2256  154.0923 C   0  0  0  0  0  0  0  0  0  0  0  0
  148.2912  138.6681  153.5153 N   0  3  1  0  0  0  0  0  0  0  0  0
  147.3944  138.0498  154.5298 C   0  0  0  0  0  0  0  0  0  0  0  0
  145.9361  137.9090  154.0445 C   0  0  0  0  0  0  0  0  0  0  0  0
  145.0883  137.1815  155.0989 C   0  0  0  0  0  0  0  0  0  0  0  0
  145.8483  137.1834  152.6915 C   0  0  0  0  0  0  0  0  0  0  0  0
  147.6376  139.6704  152.6353 C   0  0  0  0  0  0  0  0  0  0  0  0
  147.4576  141.0227  153.3530 C   0  0  0  0  0  0  0  0  0  0  0  0
  148.7081  141.4706  153.8633 O   0  0  0  0  0  0  0  0  0  0  0  0
  151.1435  140.9945  158.3690 N   0  0  0  0  0  0  0  0  0  0  0  0
  151.8760  140.9573  159.4873 N   0  0  0  0  0  0  0  0  0  0  0  0
  153.3445  143.0739  163.5183 H   0  0  0  0  0  0  0  0  0  0  0  0
  151.7499  142.9694  162.7603 H   0  0  0  0  0  0  0  0  0  0  0  0
  152.9328  144.1559  162.1821 H   0  0  0  0  0  0  0  0  0  0  0  0
  152.9533  144.1796  159.5894 H   0  0  0  0  0  0  0  0  0  0  0  0
  151.5790  144.2428  157.4761 H   0  0  0  0  0  0  0  0  0  0  0  0
  149.5185  142.8051  156.3697 H   0  0  0  0  0  0  0  0  0  0  0  0
  151.0847  141.7343  154.5897 H   0  0  0  0  0  0  0  0  0  0  0  0
  151.2157  140.4389  155.7487 H   0  0  0  0  0  0  0  0  0  0  0  0
  148.5476  140.4193  155.6158 H   0  0  0  0  0  0  0  0  0  0  0  0
  150.2539  139.3817  153.2834 H   0  0  0  0  0  0  0  0  0  0  0  0
  149.9961  138.5012  154.7670 H   0  0  0  0  0  0  0  0  0  0  0  0
  147.7641  137.0547  154.7820 H   0  0  0  0  0  0  0  0  0  0  0  0
  147.4304  138.6230  155.4563 H   0  0  0  0  0  0  0  0  0  0  0  0
  145.5015  138.9005  153.9210 H   0  0  0  0  0  0  0  0  0  0  0  0
  145.4611  136.1730  155.2816 H   0  0  0  0  0  0  0  0  0  0  0  0
  144.0486  137.0984  154.7808 H   0  0  0  0  0  0  0  0  0  0  0  0
  145.0980  137.7166  156.0489 H   0  0  0  0  0  0  0  0  0  0  0  0
  146.2664  136.1781  152.7517 H   0  0  0  0  0  0  0  0  0  0  0  0
  146.3871  137.7230  151.9124 H   0  0  0  0  0  0  0  0  0  0  0  0
  144.8123  137.0918  152.3638 H   0  0  0  0  0  0  0  0  0  0  0  0
  148.2722  139.8150  151.7599 H   0  0  0  0  0  0  0  0  0  0  0  0
  146.6826  139.3063  152.2591 H   0  0  0  0  0  0  0  0  0  0  0  0
  147.0788  141.7670  152.6524 H   0  0  0  0  0  0  0  0  0  0  0  0
  146.7259  140.9543  154.1590 H   0  0  0  0  0  0  0  0  0  0  0  0
  148.5802  137.9044  152.9205 H   0  0  0  0  0  0  0  0  0  0  0  0
  1  2  1  0  0  0  0
  1 21  1  0  0  0  0
  1 22  1  0  0  0  0
  1 23  1  0  0  0  0
  2  3  1  0  0  0  0
  3 20  1  0  0  0  0
  3  4  2  0  0  0  0
  4  5  1  0  0  0  0
  4 24  1  0  0  0  0
  5  6  2  0  0  0  0
  5 25  1  0  0  0  0
  6  7  1  0  0  0  0
  6 19  1  0  0  0  0
  7  8  1  0  0  0  0
  7 26  1  0  0  0  0
  8  9  1  0  0  0  0
  8 27  1  0  0  0  0
  8 28  1  0  0  0  0
  9 18  1  0  0  0  0
  9 10  1  0  0  0  0
  9 29  1  0  0  0  0
 10 11  1  0  0  0  0
 10 30  1  0  0  0  0
 10 31  1  0  0  0  0
 11 12  1  0  0  0  0
 11 16  1  0  0  0  0
 11 45  1  0  0  0  0
 12 13  1  0  0  0  0
 12 32  1  0  0  0  0
 12 33  1  0  0  0  0
 13 14  1  0  0  0  0
 13 15  1  0  0  0  0
 13 34  1  0  0  0  0
 14 35  1  0  0  0  0
 14 36  1  0  0  0  0
 14 37  1  0  0  0  0
 15 38  1  0  0  0  0
 15 39  1  0  0  0  0
 15 40  1  0  0  0  0
 16 17  1  0  0  0  0
 16 41  1  0  0  0  0
 16 42  1  0  0  0  0
 17 18  1  0  0  0  0
 17 43  1  0  0  0  0
 17 44  1  0  0  0  0
 19 20  2  0  0  0  0
M  CHG  1  11   1
M  END
> <s_m_source_file>
AV-unprocessed.smi

> <i_m_source_file_index>
2850

> <i_lp_mmshare_version>
43012

> <i_f3d_flags>
0

> <s_epik_input>
W0NIM11TYzFbY0hdW2NIXWMobm4xKVtOSF1bQ0gyXVtDQEBIXTJbQ0gyXU4oW0NIMl1bQ0gyXU8yKVtDSDJdW0NIXShbQ0gzXSlbQ0gzXQ==

> <s_epik_cmdline>
J2VwaWtfcHl0aG9uJywgJy1waCcsICc3LjAnLCAnLXRuJywgJzgnLCAnLW1hJywgJzIwMCcsICctbWV0YWxfYmluZGluZycsICctaW1hZScsICc8aW5maWxlLm1hZT4nLCAnLW9tYWUnLCAnPG91dGZpbGUubWFlPic=

> <r_lp_tautomer_probability>
0.999978

> <r_epik_Ionization_Penalty>
0.0874875

> <r_epik_Ionization_Penalty_Charging>
0.0831532

> <r_epik_Ionization_Penalty_Neutral>
0.00433433

> <r_epik_State_Penalty>
0.0738301

> <r_epik_Charging_Adjusted_Penalty>
0.156983

> <i_epik_Tot_Q>
1

> <i_epik_Tot_abs_Q>
1

> <r_epik_Metal_State_Penalty>
0.073888

> <b_epik_Metal_Only>
0

> <s_lp_Force_Field>
OPLS_2005

> <r_lp_Energy>
26.7302

> <b_lp_Chiralities_Consistent>
1

> <s_lp_Variant>
AV-unprocessed.smi:2850-3

> <Gold.Version>
5.8.1

> <Gold.Id.Protein>
6NUR|6NUR_protein|mol2

> <Gold.PLP.Fitness>
44.3906

> <Gold.PLP.PLP>
-35.9210

> <Gold.PLP.part.hbond>
-3.9945

> <Gold.PLP.part.metal>
0.0000

> <Gold.PLP.part.buried>
2.2594

> <Gold.PLP.part.nonpolar>
-33.1839

> <Gold.PLP.part.repulsive>
0.2894

> <Gold.PLP.ligand.clash>
0.0000

> <Gold.PLP.ligand.torsion>
1.1312

> <Gold.PLP.Chemscore.Hbond>
3.5381

> <Gold.PLP.Chemscore.CHOScore>
0.0000

> <Gold.PLP.Chemscore.Metal>
0.0000

> <Gold.Chemscore.Hbonds>
donor molecule, donor type, donor heavy atom, donor atom, acceptor molecule, acceptor atom, score
      L1  H     7    26       P1  8028  0.69
      L1  H    11    45       P1  7948  2.00
      P1  H  8011  8017       L1    18  0.58

> <Gold.PLP.Chemscore.Internal.Correction>
0.1176

> <Gold.Rescore>
     Score         DG    S(hbond)    S(metal)    S(lipo)     H(rot)  DE(clash)    DE(int)     intcor
     18.68     -21.62       2.41        0.00     104.00       1.60       2.00       0.93       ----

> <Gold.Chemscore.Fitness>
18.6842

> <Gold.Chemscore.DG>
-21.6151

> <Gold.Chemscore.ZeroCoef>
-5.4800

> <Gold.Chemscore.Hbond>
2.4144

> <Gold.Chemscore.Metal>
0.0000

> <Gold.Chemscore.Lipo>
103.9998

> <Gold.Chemscore.Internal_Hbond>
0.0000

> <Gold.Chemscore.DEClash>
2.0034

> <Gold.Chemscore.DEInternal>
0.9275

> <Gold.Chemscore.Rot>
1.6003

> <Gold.Chemscore.Internal.Correction>
   9.000000E+99

> <Gold.Chemscore.Hbonds>
donor molecule, donor type, donor heavy atom, donor atom, acceptor molecule, acceptor atom, score
      L1  H     7    26       P1  8028  0.66
      L1  H    11    45       P1  7948  0.97
      P1  H  8011  8017       L1    18  0.40

> <Gold.Chemscore.Hbond.Weighted>
-8.0640

> <Gold.Chemscore.Metal.Weighted>
-0.0000

> <Gold.Chemscore.Lipo.Weighted>
-12.1680

> <Gold.Chemscore.Internal_Hbond.Weighted>
0.0000

> <Gold.Chemscore.DEClash.Weighted>
2.0034

> <Gold.Chemscore.DEInternal.Weighted>
0.9275

> <Gold.Chemscore.Rot.Weighted>
4.0968

> <Gold.Chemscore.Internal.Correction.Weighted>
   9.000000E+99

> <Gold.Protein.RotatedTorsions>
[ 6907 6896 6895 6894 ] final   23.54 input  -60.11 | X-H torsion
[ 7974 7965 7964 7962 ] final  176.42 input  175.53 | X-H torsion
[ 8008 7997 7996 7995 ] final   47.78 input   59.86 | X-H torsion
[ 10167 10162 10161 10158 ] final -147.38 input  -65.29 | X-H torsion
[ 10718 10713 10712 10709 ] final  -74.62 input   66.30 | X-H torsion
[ 10763 10752 10751 10750 ] final  173.57 input  -60.55 | X-H torsion
[ 11005 11000 10999 10996 ] final -117.76 input  -57.11 | X-H torsion

> <Gold.Protein.ActiveResidues>
 VAL166  LYS551  ARG553  GLY616  TRP617  ASP618  TYR619  PRO620  LYS621  CYS622 
 ASP623  PHE694  ASN695  SER759  ASP760  ASP761  ALA762  ILE779  LEU786  VAL792 
 PHE793  MET794  SER795  GLU796  ALA797  LYS798  CYS799  TRP800  GLU811  SER814 

> <Gold.Protein.RotatedAtoms>
  151.9440  135.0200  160.0537 H   0  0  0  0  0  0  0  0  0  0  0  0  # atno 6907 bound_to 6896
  152.2012  133.4837  159.5068 H   0  0  0  0  0  0  0  0  0  0  0  0  # atno 6908 bound_to 6896
  150.6955  134.1505  159.4181 H   0  0  0  0  0  0  0  0  0  0  0  0  # atno 6909 bound_to 6896
  144.7184  140.0095  143.6440 H   0  0  0  0  0  0  0  0  0  0  0  0  # atno 7974 bound_to 7965
  155.3747  140.3425  155.4244 H   0  0  0  0  0  0  0  0  0  0  0  0  # atno 8008 bound_to 7997
  156.1643  140.1611  156.8591 H   0  0  0  0  0  0  0  0  0  0  0  0  # atno 8009 bound_to 7997
  154.5170  140.0776  156.8082 H   0  0  0  0  0  0  0  0  0  0  0  0  # atno 8010 bound_to 7997
  139.7627  143.8353  152.2610 H   0  0  0  0  0  0  0  0  0  0  0  0  # atno 10167 bound_to 10162
  156.0236  130.4421  150.2920 H   0  0  0  0  0  0  0  0  0  0  0  0  # atno 10718 bound_to 10713
  154.4419  135.2762  155.1842 H   0  0  0  0  0  0  0  0  0  0  0  0  # atno 10763 bound_to 10752
  154.3705  135.6110  153.5741 H   0  0  0  0  0  0  0  0  0  0  0  0  # atno 10764 bound_to 10752
  152.9841  135.5856  154.4748 H   0  0  0  0  0  0  0  0  0  0  0  0  # atno 10765 bound_to 10752
  141.0332  133.9949  157.3110 H   0  0  0  0  0  0  0  0  0  0  0  0  # atno 11005 bound_to 11000
  146.0270  139.3301  143.0778 LP  0  0  0  0  0  0  0  0  0  0  0  0  # atno 17320 bound_to 7965
  145.8499  140.9534  143.0755 LP  0  0  0  0  0  0  0  0  0  0  0  0  # atno 17321 bound_to 7965
  139.8364  144.7230  150.9386 LP  0  0  0  0  0  0  0  0  0  0  0  0  # atno 17342 bound_to 10162
  140.7808  143.4023  151.1128 LP  0  0  0  0  0  0  0  0  0  0  0  0  # atno 17343 bound_to 10162
  157.1024  131.0199  151.3080 LP  0  0  0  0  0  0  0  0  0  0  0  0  # atno 17370 bound_to 10713
  157.4770  130.7742  149.7377 LP  0  0  0  0  0  0  0  0  0  0  0  0  # atno 17371 bound_to 10713
  139.9222  135.0201  156.8107 LP  0  0  0  0  0  0  0  0  0  0  0  0  # atno 17394 bound_to 11000
  140.6368  133.9855  155.7688 LP  0  0  0  0  0  0  0  0  0  0  0  0  # atno 17395 bound_to 11000

$$$$
