AV-unprocessed.smi:500|AV-procd|sdf|2740|dock4
  -GOLD-   2262023203D 1   1.00000     0.00000
 Structure written by MMmdl.
 45 47  0  0  0  0  0  0  0  0  3 V2000
  154.0263  137.0444  162.8338 C   0  0  0  0  0  0  0  0  0  0  0  0
  154.2639  135.9627  161.7779 C   0  0  0  0  0  0  0  0  0  0  0  0
  154.4959  136.5907  160.5257 O   0  0  0  0  0  0  0  0  0  0  0  0
  153.3541  137.2275  159.9697 C   0  0  0  0  0  0  0  0  0  0  0  0
  153.2261  138.6865  160.4403 C   0  0  0  0  0  0  0  0  0  0  0  0
  152.2924  139.4504  159.5905 N   0  0  0  0  0  0  0  0  0  0  0  0
  151.2061  139.0624  158.8469 C   0  0  0  0  0  0  0  0  0  0  0  0
  150.6337  137.6781  158.6702 C   0  0  2  0  0  0  0  0  0  0  0  0
  150.1079  137.5052  157.2390 C   0  0  0  0  0  0  0  0  0  0  0  0
  149.5494  137.4059  159.6159 N   0  5  0  0  0  0  0  0  0  0  0  0
  148.8874  136.2164  159.6975 C   0  0  0  0  0  0  0  0  0  0  0  0
  148.9428  135.2326  158.9515 O   0  0  0  0  0  0  0  0  0  0  0  0
  147.9954  136.1478  160.8790 C   0  0  0  0  0  0  0  0  0  0  0  0
  147.5229  135.0592  161.5633 C   0  0  0  0  0  0  0  0  0  0  0  0
  146.7057  135.5569  162.6160 C   0  0  0  0  0  0  0  0  0  0  0  0
  146.7361  136.9168  162.5036 C   0  0  0  0  0  0  0  0  0  0  0  0
  147.5150  137.2936  161.4540 O   0  0  0  0  0  0  0  0  0  0  0  0
  150.7101  140.1877  158.2556 N   0  3  0  0  0  0  0  0  0  0  0  0
  151.4570  141.3008  158.6348 C   0  0  0  0  0  0  0  0  0  0  0  0
  151.3218  142.6444  158.3010 C   0  0  0  0  0  0  0  0  0  0  0  0
  152.2560  143.5344  158.8700 C   0  0  0  0  0  0  0  0  0  0  0  0
  153.2723  143.0773  159.7338 C   0  0  0  0  0  0  0  0  0  0  0  0
  153.3987  141.7117  160.0638 C   0  0  0  0  0  0  0  0  0  0  0  0
  152.4723  140.8371  159.4947 C   0  0  0  0  0  0  0  0  0  0  0  0
  153.8435  136.6000  163.8124 H   0  0  0  0  0  0  0  0  0  0  0  0
  153.1620  137.6579  162.5781 H   0  0  0  0  0  0  0  0  0  0  0  0
  154.8909  137.7027  162.9212 H   0  0  0  0  0  0  0  0  0  0  0  0
  155.1240  135.3544  162.0609 H   0  0  0  0  0  0  0  0  0  0  0  0
  153.3960  135.3054  161.7279 H   0  0  0  0  0  0  0  0  0  0  0  0
  153.4721  137.2151  158.8856 H   0  0  0  0  0  0  0  0  0  0  0  0
  152.4488  136.6583  160.1865 H   0  0  0  0  0  0  0  0  0  0  0  0
  152.8886  138.7537  161.4739 H   0  0  0  0  0  0  0  0  0  0  0  0
  154.1991  139.1771  160.4149 H   0  0  0  0  0  0  0  0  0  0  0  0
  151.4498  136.9667  158.8035 H   0  0  0  0  0  0  0  0  0  0  0  0
  150.9026  137.6683  156.5105 H   0  0  0  0  0  0  0  0  0  0  0  0
  149.3057  138.2108  157.0190 H   0  0  0  0  0  0  0  0  0  0  0  0
  149.7199  136.4985  157.0798 H   0  0  0  0  0  0  0  0  0  0  0  0
  147.7398  134.0266  161.3320 H   0  0  0  0  0  0  0  0  0  0  0  0
  146.1649  134.9916  163.3604 H   0  0  0  0  0  0  0  0  0  0  0  0
  146.2845  137.7268  163.0570 H   0  0  0  0  0  0  0  0  0  0  0  0
  150.5406  142.9944  157.6425 H   0  0  0  0  0  0  0  0  0  0  0  0
  152.1900  144.5881  158.6410 H   0  0  0  0  0  0  0  0  0  0  0  0
  153.9691  143.7883  160.1529 H   0  0  0  0  0  0  0  0  0  0  0  0
  154.1784  141.3742  160.7303 H   0  0  0  0  0  0  0  0  0  0  0  0
  149.8980  140.1790  157.6517 H   0  0  0  0  0  0  0  0  0  0  0  0
  1  2  1  0  0  0  0
  1 25  1  0  0  0  0
  1 26  1  0  0  0  0
  1 27  1  0  0  0  0
  2  3  1  0  0  0  0
  2 28  1  0  0  0  0
  2 29  1  0  0  0  0
  3  4  1  0  0  0  0
  4  5  1  0  0  0  0
  4 30  1  0  0  0  0
  4 31  1  0  0  0  0
  5  6  1  0  0  0  0
  5 32  1  0  0  0  0
  5 33  1  0  0  0  0
  6 24  1  0  0  0  0
  6  7  1  0  0  0  0
  7  8  1  0  0  0  0
  7 18  2  0  0  0  0
  8  9  1  0  0  0  0
  8 10  1  0  0  0  0
  8 34  1  0  0  0  0
  9 35  1  0  0  0  0
  9 36  1  0  0  0  0
  9 37  1  0  0  0  0
 10 11  1  0  0  0  0
 11 12  2  0  0  0  0
 11 13  1  0  0  0  0
 13 17  1  0  0  0  0
 13 14  2  0  0  0  0
 14 15  1  0  0  0  0
 14 38  1  0  0  0  0
 15 16  2  0  0  0  0
 15 39  1  0  0  0  0
 16 17  1  0  0  0  0
 16 40  1  0  0  0  0
 18 19  1  0  0  0  0
 18 45  1  0  0  0  0
 19 24  2  0  0  0  0
 19 20  1  0  0  0  0
 20 21  2  0  0  0  0
 20 41  1  0  0  0  0
 21 22  1  0  0  0  0
 21 42  1  0  0  0  0
 22 23  2  0  0  0  0
 22 43  1  0  0  0  0
 23 24  1  0  0  0  0
 23 44  1  0  0  0  0
M  CHG  1  10  -1
M  CHG  1  18   1
M  END
> <s_m_source_file>
AV-unprocessed.smi

> <i_m_source_file_index>
500

> <i_lp_mmshare_version>
43012

> <i_f3d_flags>
0

> <s_epik_input>
W0NIM11bQ0gyXU9bQ0gyXVtDSDJdbihjKGMxMilbY0hdW2NIXVtjSF1bY0hdMiljKG4xKVtDQEhdKFtDSDNdKVtOSF1DKD1PKWMzW2NIXVtjSF1bY0hdbzM=

> <s_epik_cmdline>
J2VwaWtfcHl0aG9uJywgJy1waCcsICc3LjAnLCAnLXRuJywgJzgnLCAnLW1hJywgJzIwMCcsICctbWV0YWxfYmluZGluZycsICctaW1hZScsICc8aW5maWxlLm1hZT4nLCAnLW9tYWUnLCAnPG91dGZpbGUubWFlPic=

> <r_epik_Ionization_Penalty>
6.22753

> <r_epik_Ionization_Penalty_Charging>
6.22753

> <r_epik_Ionization_Penalty_Neutral>
2.56065e-12

> <r_epik_State_Penalty>
7.17947

> <r_epik_Charging_Adjusted_Penalty>
13.407

> <i_epik_Tot_Q>
0

> <i_epik_Tot_abs_Q>
2

> <r_epik_Metal_State_Penalty>
3.2092

> <b_epik_Metal_Only>
1

> <s_lp_Force_Field>
OPLS_2005

> <r_lp_Energy>
11.6209

> <b_lp_Chiralities_Consistent>
1

> <s_lp_Variant>
AV-unprocessed.smi:500-7

> <Gold.Version>
5.8.1

> <Gold.Id.Protein>
6NUR|6NUR_protein|mol2

> <Gold.PLP.Fitness>
53.4803

> <Gold.PLP.PLP>
-48.1821

> <Gold.PLP.part.hbond>
-4.0000

> <Gold.PLP.part.metal>
0.0000

> <Gold.PLP.part.buried>
-6.1231

> <Gold.PLP.part.nonpolar>
-39.2635

> <Gold.PLP.part.repulsive>
0.1521

> <Gold.PLP.ligand.clash>
0.0000

> <Gold.PLP.ligand.torsion>
1.5962

> <Gold.PLP.Chemscore.Hbond>
2.7360

> <Gold.PLP.Chemscore.CHOScore>
0.0000

> <Gold.PLP.Chemscore.Metal>
0.0000

> <Gold.Chemscore.Hbonds>
donor molecule, donor type, donor heavy atom, donor atom, acceptor molecule, acceptor atom, score
      P1  H  6896  6909       L1    12  1.00
      P1  H  6931  6943       L1    17  0.90
      P1  H  6934  6947       L1    17  0.85

> <Gold.PLP.Chemscore.Internal.Correction>
0.2827

> <Gold.Rescore>
     Score         DG    S(hbond)    S(metal)    S(lipo)     H(rot)  DE(clash)    DE(int)     intcor
     19.96     -21.63       2.04        0.00     121.44       1.90       0.07       1.60       ----

> <Gold.Chemscore.Fitness>
19.9611

> <Gold.Chemscore.DG>
-21.6269

> <Gold.Chemscore.ZeroCoef>
-5.4800

> <Gold.Chemscore.Hbond>
2.0362

> <Gold.Chemscore.Metal>
0.0000

> <Gold.Chemscore.Lipo>
121.4374

> <Gold.Chemscore.Internal_Hbond>
0.0000

> <Gold.Chemscore.DEClash>
0.0650

> <Gold.Chemscore.DEInternal>
1.6008

> <Gold.Chemscore.Rot>
1.8993

> <Gold.Chemscore.Internal.Correction>
   9.000000E+99

> <Gold.Chemscore.Hbonds>
donor molecule, donor type, donor heavy atom, donor atom, acceptor molecule, acceptor atom, score
      P1  H  6896  6909       L1    12  0.48
      P1  H  6931  6943       L1    17  0.39
      P1  H  6934  6947       L1    17  0.68

> <Gold.Chemscore.Hbond.Weighted>
-6.8010

> <Gold.Chemscore.Metal.Weighted>
-0.0000

> <Gold.Chemscore.Lipo.Weighted>
-14.2082

> <Gold.Chemscore.Internal_Hbond.Weighted>
0.0000

> <Gold.Chemscore.DEClash.Weighted>
0.0650

> <Gold.Chemscore.DEInternal.Weighted>
1.6008

> <Gold.Chemscore.Rot.Weighted>
4.8622

> <Gold.Chemscore.Internal.Correction.Weighted>
   9.000000E+99

> <Gold.Protein.RotatedTorsions>
[ 6907 6896 6895 6894 ] final   31.80 input  -60.11 | X-H torsion
[ 7974 7965 7964 7962 ] final  -96.37 input  175.53 | X-H torsion
[ 8008 7997 7996 7995 ] final -156.67 input   59.86 | X-H torsion
[ 10167 10162 10161 10158 ] final -162.15 input  -65.29 | X-H torsion
[ 10718 10713 10712 10709 ] final -131.70 input   66.30 | X-H torsion
[ 10763 10752 10751 10750 ] final   27.37 input  -60.55 | X-H torsion
[ 11005 11000 10999 10996 ] final  -54.27 input  -57.11 | X-H torsion

> <Gold.Protein.ActiveResidues>
 VAL166  LYS551  ARG553  GLY616  TRP617  ASP618  TYR619  PRO620  LYS621  CYS622 
 ASP623  PHE694  ASN695  SER759  ASP760  ASP761  ALA762  ILE779  LEU786  VAL792 
 PHE793  MET794  SER795  GLU796  ALA797  LYS798  CYS799  TRP800  GLU811  SER814 

> <Gold.Protein.RotatedAtoms>
  152.0654  134.9567  160.0574 H   0  0  0  0  0  0  0  0  0  0  0  0  # atno 6907 bound_to 6896
  152.0914  133.4198  159.4554 H   0  0  0  0  0  0  0  0  0  0  0  0  # atno 6908 bound_to 6896
  150.6837  134.2786  159.4661 H   0  0  0  0  0  0  0  0  0  0  0  0  # atno 6909 bound_to 6896
  145.3477  140.9471  143.2572 H   0  0  0  0  0  0  0  0  0  0  0  0  # atno 7974 bound_to 7965
  155.7208  140.0790  157.2331 H   0  0  0  0  0  0  0  0  0  0  0  0  # atno 8008 bound_to 7997
  154.4045  140.1613  156.2454 H   0  0  0  0  0  0  0  0  0  0  0  0  # atno 8009 bound_to 7997
  155.9198  140.3398  155.6167 H   0  0  0  0  0  0  0  0  0  0  0  0  # atno 8010 bound_to 7997
  139.6413  144.0254  152.2094 H   0  0  0  0  0  0  0  0  0  0  0  0  # atno 10167 bound_to 10162
  156.2271  130.7014  151.0818 H   0  0  0  0  0  0  0  0  0  0  0  0  # atno 10718 bound_to 10713
  153.0560  135.6538  154.0576 H   0  0  0  0  0  0  0  0  0  0  0  0  # atno 10763 bound_to 10752
  154.0254  135.2916  155.3377 H   0  0  0  0  0  0  0  0  0  0  0  0  # atno 10764 bound_to 10752
  154.6875  135.5296  153.8414 H   0  0  0  0  0  0  0  0  0  0  0  0  # atno 10765 bound_to 10752
  141.1017  133.6617  156.4295 H   0  0  0  0  0  0  0  0  0  0  0  0  # atno 11005 bound_to 11000
  144.8741  139.4996  143.6754 LP  0  0  0  0  0  0  0  0  0  0  0  0  # atno 17320 bound_to 7965
  146.2981  139.7340  142.9112 LP  0  0  0  0  0  0  0  0  0  0  0  0  # atno 17321 bound_to 7965
  139.9944  144.6338  150.7785 LP  0  0  0  0  0  0  0  0  0  0  0  0  # atno 17342 bound_to 10162
  140.7492  143.2935  151.3267 LP  0  0  0  0  0  0  0  0  0  0  0  0  # atno 17343 bound_to 10162
  157.7115  131.0731  150.6482 LP  0  0  0  0  0  0  0  0  0  0  0  0  # atno 17370 bound_to 10713
  156.6548  130.4495  149.5707 LP  0  0  0  0  0  0  0  0  0  0  0  0  # atno 17371 bound_to 10713
  140.5005  134.6490  157.5246 LP  0  0  0  0  0  0  0  0  0  0  0  0  # atno 17394 bound_to 11000
  139.9871  134.7044  155.9754 LP  0  0  0  0  0  0  0  0  0  0  0  0  # atno 17395 bound_to 11000

$$$$
