AV-unprocessed.smi:777|AV-procd|sdf|3701|dock1
  -GOLD-   22720 1123D 1   1.00000     0.00000
 Structure written by MMmdl.
 37 38  0  0  0  0  0  0  0  0  2 V2000
  151.8220  144.9460  158.6806 C   0  0  0  0  0  0  0  0  0  0  0  0
  152.1570  143.4505  158.8641 C   0  0  2  0  0  0  0  0  0  0  0  0
  151.0556  142.5256  158.3238 C   0  0  0  0  0  0  0  0  0  0  0  0
  149.9500  142.5037  158.8640 O   0  0  0  0  0  0  0  0  0  0  0  0
  151.4122  141.7747  157.2640 N   0  0  0  0  0  0  0  0  0  0  0  0
  150.7083  140.7285  156.5060 C   0  0  0  0  0  0  0  0  0  0  0  0
  151.8377  139.8105  155.9708 C   0  0  0  0  0  0  0  0  0  0  0  0
  152.6303  139.3092  156.7992 O   0  0  0  0  0  0  0  0  0  0  0  0
  151.9296  139.6604  154.7315 O   0  5  0  0  0  0  0  0  0  0  0  0
  149.6596  139.9127  157.3285 C   0  0  0  0  0  0  0  0  0  0  0  0
  148.8398  138.9339  156.4651 C   0  0  0  0  0  0  0  0  0  0  0  0
  148.1306  139.6686  155.3182 C   0  0  0  0  0  0  0  0  0  0  0  0
  149.1291  140.4695  154.4700 C   0  0  0  0  0  0  0  0  0  0  0  0
  149.9564  141.4352  155.3418 C   0  0  0  0  0  0  0  0  0  0  0  0
  152.4629  143.1009  160.2478 N   0  0  0  0  0  0  0  0  0  0  0  0
  152.1972  143.8403  161.3833 C   0  0  0  0  0  0  0  0  0  0  0  0
  152.7056  143.1561  162.4498 C   0  0  0  0  0  0  0  0  0  0  0  0
  153.2894  142.0007  161.8611 C   0  0  0  0  0  0  0  0  0  0  0  0
  153.1517  141.9740  160.5458 N   0  0  0  0  0  0  0  0  0  0  0  0
  151.6619  145.1841  157.6287 H   0  0  0  0  0  0  0  0  0  0  0  0
  152.6399  145.5733  159.0357 H   0  0  0  0  0  0  0  0  0  0  0  0
  150.9221  145.2373  159.2240 H   0  0  0  0  0  0  0  0  0  0  0  0
  153.0608  143.2570  158.2837 H   0  0  0  0  0  0  0  0  0  0  0  0
  152.3619  141.9145  156.9516 H   0  0  0  0  0  0  0  0  0  0  0  0
  150.1333  139.3674  158.1462 H   0  0  0  0  0  0  0  0  0  0  0  0
  148.9508  140.5980  157.7945 H   0  0  0  0  0  0  0  0  0  0  0  0
  149.4847  138.1532  156.0604 H   0  0  0  0  0  0  0  0  0  0  0  0
  148.1025  138.4253  157.0868 H   0  0  0  0  0  0  0  0  0  0  0  0
  147.5965  138.9544  154.6911 H   0  0  0  0  0  0  0  0  0  0  0  0
  147.3784  140.3434  155.7287 H   0  0  0  0  0  0  0  0  0  0  0  0
  149.7891  139.7849  153.9363 H   0  0  0  0  0  0  0  0  0  0  0  0
  148.5932  141.0318  153.7050 H   0  0  0  0  0  0  0  0  0  0  0  0
  149.2828  142.1853  155.7590 H   0  0  0  0  0  0  0  0  0  0  0  0
  150.6482  141.9933  154.7088 H   0  0  0  0  0  0  0  0  0  0  0  0
  151.6768  144.7858  161.3372 H   0  0  0  0  0  0  0  0  0  0  0  0
  152.6743  143.4433  163.4901 H   0  0  0  0  0  0  0  0  0  0  0  0
  153.8112  141.1891  162.3463 H   0  0  0  0  0  0  0  0  0  0  0  0
  1  2  1  0  0  0  0
  1 20  1  0  0  0  0
  1 21  1  0  0  0  0
  1 22  1  0  0  0  0
  2  3  1  0  0  0  0
  2 15  1  0  0  0  0
  2 23  1  0  0  0  0
  3  4  2  0  0  0  0
  3  5  1  0  0  0  0
  5  6  1  0  0  0  0
  5 24  1  0  0  0  0
  6 14  1  0  0  0  0
  6  7  1  0  0  0  0
  6 10  1  0  0  0  0
  7  8  2  0  0  0  0
  7  9  1  0  0  0  0
 10 11  1  0  0  0  0
 10 25  1  0  0  0  0
 10 26  1  0  0  0  0
 11 12  1  0  0  0  0
 11 27  1  0  0  0  0
 11 28  1  0  0  0  0
 12 13  1  0  0  0  0
 12 29  1  0  0  0  0
 12 30  1  0  0  0  0
 13 14  1  0  0  0  0
 13 31  1  0  0  0  0
 13 32  1  0  0  0  0
 14 33  1  0  0  0  0
 14 34  1  0  0  0  0
 15 19  1  0  0  0  0
 15 16  1  0  0  0  0
 16 17  2  0  0  0  0
 16 35  1  0  0  0  0
 17 18  1  0  0  0  0
 17 36  1  0  0  0  0
 18 19  2  0  0  0  0
 18 37  1  0  0  0  0
M  CHG  1   9  -1
M  END
> <s_m_source_file>
AV-unprocessed.smi

> <i_m_source_file_index>
777

> <i_lp_mmshare_version>
43012

> <i_f3d_flags>
0

> <s_epik_input>
bjFbY0hdW2NIXVtjSF1uMVtDQEhdKFtDSDNdKUMoPU8pW05IXUMyKEMoPU8pW09IXSlbQ0gyXVtDSDJdW0NIMl1bQ0gyXVtDSDJdMg==

> <s_epik_cmdline>
J2VwaWtfcHl0aG9uJywgJy1waCcsICc3LjAnLCAnLXRuJywgJzgnLCAnLW1hJywgJzIwMCcsICctbWV0YWxfYmluZGluZycsICctaW1hZScsICc8aW5maWxlLm1hZT4nLCAnLW9tYWUnLCAnPG91dGZpbGUubWFlPic=

> <r_lp_tautomer_probability>
1

> <r_epik_Ionization_Penalty>
0.000371068

> <r_epik_Ionization_Penalty_Charging>
0.000323848

> <r_epik_Ionization_Penalty_Neutral>
4.72198e-05

> <r_epik_State_Penalty>
0.000195685

> <r_epik_Charging_Adjusted_Penalty>
0.000519533

> <i_epik_Tot_Q>
-1

> <i_epik_Tot_abs_Q>
1

> <r_epik_Metal_State_Penalty>
-0

> <b_epik_Metal_Only>
0

> <s_lp_Force_Field>
OPLS_2005

> <r_lp_Energy>
8.44032

> <b_lp_Chiralities_Consistent>
1

> <s_lp_Variant>
AV-unprocessed.smi:777-1

> <Gold.Version>
5.8.1

> <Gold.Id.Protein>
6NUR|6NUR_protein|mol2

> <Gold.PLP.Fitness>
49.9719

> <Gold.PLP.PLP>
-43.0369

> <Gold.PLP.part.hbond>
-2.8124

> <Gold.PLP.part.metal>
0.0000

> <Gold.PLP.part.buried>
-6.0378

> <Gold.PLP.part.nonpolar>
-34.6624

> <Gold.PLP.part.repulsive>
0.2115

> <Gold.PLP.ligand.clash>
0.0000

> <Gold.PLP.ligand.torsion>
1.0677

> <Gold.PLP.Chemscore.Hbond>
2.9600

> <Gold.PLP.Chemscore.CHOScore>
0.0000

> <Gold.PLP.Chemscore.Metal>
0.0000

> <Gold.Chemscore.Hbonds>
donor molecule, donor type, donor heavy atom, donor atom, acceptor molecule, acceptor atom, score
      P1  H  7989  7998       L1     9  0.94
      P1  H  7997  8010       L1     8  2.00

> <Gold.PLP.Chemscore.Internal.Correction>
0.1904

> <Gold.Rescore>
     Score         DG    S(hbond)    S(metal)    S(lipo)     H(rot)  DE(clash)    DE(int)     intcor
     13.77     -17.28       1.91        0.00      89.65       1.98       0.06       3.44       ----

> <Gold.Chemscore.Fitness>
13.7715

> <Gold.Chemscore.DG>
-17.2766

> <Gold.Chemscore.ZeroCoef>
-5.4800

> <Gold.Chemscore.Hbond>
1.9071

> <Gold.Chemscore.Metal>
0.0000

> <Gold.Chemscore.Lipo>
89.6497

> <Gold.Chemscore.Internal_Hbond>
0.0000

> <Gold.Chemscore.DEClash>
0.0646

> <Gold.Chemscore.DEInternal>
3.4405

> <Gold.Chemscore.Rot>
1.9774

> <Gold.Chemscore.Internal.Correction>
   9.000000E+99

> <Gold.Chemscore.Hbonds>
donor molecule, donor type, donor heavy atom, donor atom, acceptor molecule, acceptor atom, score
      P1  H  7989  7998       L1     9  0.91
      P1  H  7997  8010       L1     8  0.28

> <Gold.Chemscore.Hbond.Weighted>
-6.3696

> <Gold.Chemscore.Metal.Weighted>
-0.0000

> <Gold.Chemscore.Lipo.Weighted>
-10.4890

> <Gold.Chemscore.Internal_Hbond.Weighted>
0.0000

> <Gold.Chemscore.DEClash.Weighted>
0.0646

> <Gold.Chemscore.DEInternal.Weighted>
3.4405

> <Gold.Chemscore.Rot.Weighted>
5.0620

> <Gold.Chemscore.Internal.Correction.Weighted>
   9.000000E+99

> <Gold.Protein.RotatedTorsions>
[ 6907 6896 6895 6894 ] final  -72.01 input  -60.11 | X-H torsion
[ 7974 7965 7964 7962 ] final   81.46 input  175.53 | X-H torsion
[ 8008 7997 7996 7995 ] final   85.33 input   59.86 | X-H torsion
[ 10167 10162 10161 10158 ] final   46.29 input  -65.29 | X-H torsion
[ 10718 10713 10712 10709 ] final -148.38 input   66.30 | X-H torsion
[ 10763 10752 10751 10750 ] final  160.33 input  -60.55 | X-H torsion
[ 11005 11000 10999 10996 ] final  -30.47 input  -57.11 | X-H torsion

> <Gold.Protein.ActiveResidues>
 VAL166  LYS551  ARG553  GLY616  TRP617  ASP618  TYR619  PRO620  LYS621  CYS622 
 ASP623  PHE694  ASN695  SER759  ASP760  ASP761  ALA762  ILE779  LEU786  VAL792 
 PHE793  MET794  SER795  GLU796  ALA797  LYS798  CYS799  TRP800  GLU811  SER814 

> <Gold.Protein.RotatedAtoms>
  150.7188  134.5226  159.5660 H   0  0  0  0  0  0  0  0  0  0  0  0  # atno 6907 bound_to 6896
  152.2777  134.7860  160.0411 H   0  0  0  0  0  0  0  0  0  0  0  0  # atno 6908 bound_to 6896
  151.8517  133.3406  159.3712 H   0  0  0  0  0  0  0  0  0  0  0  0  # atno 6909 bound_to 6896
  145.6378  139.2419  143.2048 H   0  0  0  0  0  0  0  0  0  0  0  0  # atno 7974 bound_to 7965
  155.9486  140.3402  155.6388 H   0  0  0  0  0  0  0  0  0  0  0  0  # atno 8008 bound_to 7997
  155.6949  140.0753  157.2452 H   0  0  0  0  0  0  0  0  0  0  0  0  # atno 8009 bound_to 7997
  154.4117  140.1650  156.2114 H   0  0  0  0  0  0  0  0  0  0  0  0  # atno 8010 bound_to 7997
  140.3154  144.2770  150.6192 H   0  0  0  0  0  0  0  0  0  0  0  0  # atno 10167 bound_to 10162
  156.4195  130.8022  151.2244 H   0  0  0  0  0  0  0  0  0  0  0  0  # atno 10718 bound_to 10713
  154.2457  135.2773  155.2836 H   0  0  0  0  0  0  0  0  0  0  0  0  # atno 10763 bound_to 10752
  154.5507  135.5676  153.6923 H   0  0  0  0  0  0  0  0  0  0  0  0  # atno 10764 bound_to 10752
  152.9990  135.6274  154.2602 H   0  0  0  0  0  0  0  0  0  0  0  0  # atno 10765 bound_to 10752
  140.9386  133.7293  156.1041 H   0  0  0  0  0  0  0  0  0  0  0  0  # atno 11005 bound_to 11000
  146.1305  140.7192  142.9414 LP  0  0  0  0  0  0  0  0  0  0  0  0  # atno 17320 bound_to 7965
  144.7169  140.4240  143.7038 LP  0  0  0  0  0  0  0  0  0  0  0  0  # atno 17321 bound_to 7965
  140.5531  143.2203  151.7893 LP  0  0  0  0  0  0  0  0  0  0  0  0  # atno 17342 bound_to 10162
  139.4885  144.4450  151.9721 LP  0  0  0  0  0  0  0  0  0  0  0  0  # atno 17343 bound_to 10162
  157.7508  131.0232  150.3826 LP  0  0  0  0  0  0  0  0  0  0  0  0  # atno 17370 bound_to 10713
  156.4140  130.3940  149.6871 LP  0  0  0  0  0  0  0  0  0  0  0  0  # atno 17371 bound_to 10713
  140.7766  134.3773  157.5496 LP  0  0  0  0  0  0  0  0  0  0  0  0  # atno 17394 bound_to 11000
  139.8814  134.9055  156.2901 LP  0  0  0  0  0  0  0  0  0  0  0  0  # atno 17395 bound_to 11000

$$$$
