AV-unprocessed.smi:153|AV-procd|sdf|1263|dock4
  -GOLD-   2262018513D 1   1.00000     0.00000
 Structure written by MMmdl.
 59 62  0  0  0  0  0  0  0  0  1 V2000
  143.8990  134.4788  152.5700 C   0  0  0  0  0  0  0  0  0  0  0  0
  144.7959  133.2876  152.1952 C   0  0  1  0  0  0  0  0  0  0  0  0
  144.2438  132.6481  151.0476 O   0  0  0  0  0  0  0  0  0  0  0  0
  145.2995  132.0821  150.2916 C   0  0  0  0  0  0  0  0  0  0  0  0
  146.3685  133.1587  150.3786 C   0  0  0  0  0  0  0  0  0  0  0  0
  146.2730  133.6131  151.8357 C   0  0  1  0  0  0  0  0  0  0  0  0
  146.5573  135.0012  151.8873 O   0  0  0  0  0  0  0  0  0  0  0  0
  147.2511  132.8756  152.7880 C   0  0  0  0  0  0  0  0  0  0  0  0
  147.6319  133.6400  153.9667 N   0  0  0  0  0  0  0  0  0  0  0  0
  148.6546  134.5540  154.0622 C   0  0  0  0  0  0  0  0  0  0  0  0
  148.7894  135.1136  155.2324 N   0  0  0  0  0  0  0  0  0  0  0  0
  147.7808  134.5513  156.0088 C   0  0  0  0  0  0  0  0  0  0  0  0
  147.3511  134.7037  157.3632 C   0  0  0  0  0  0  0  0  0  0  0  0
  147.9496  135.5201  158.2775 N   0  0  0  0  0  0  0  0  0  0  0  0
  149.2073  136.1680  157.9098 C   0  0  0  0  0  0  0  0  0  0  0  0
  147.1189  136.1919  159.2773 C   0  0  0  0  0  0  0  0  0  0  0  0
  147.7203  136.1540  160.7001 C   0  0  1  0  0  0  0  0  0  0  0  0
  148.8442  137.0058  160.8001 O   0  0  0  0  0  0  0  0  0  0  0  0
  146.7079  136.5332  161.8049 C   0  0  0  0  0  0  0  0  0  0  0  0
  145.4547  135.7722  161.8435 N   0  0  0  0  0  0  0  0  0  0  0  0
  144.3729  136.4817  162.5241 C   0  0  0  0  0  0  0  0  0  0  0  0
  143.0802  135.6483  162.5762 C   0  0  0  0  0  0  0  0  0  0  0  0
  143.3398  134.3959  163.2014 O   0  0  0  0  0  0  0  0  0  0  0  0
  144.3554  133.6526  162.5360 C   0  0  0  0  0  0  0  0  0  0  0  0
  145.6516  134.4799  162.4922 C   0  0  0  0  0  0  0  0  0  0  0  0
  146.2672  133.9754  157.7471 N   0  0  0  0  0  0  0  0  0  0  0  0
  145.6572  133.1502  156.8930 C   0  0  0  0  0  0  0  0  0  0  0  0
  145.9562  132.9018  155.6186 N   0  0  0  0  0  0  0  0  0  0  0  0
  147.0337  133.6322  155.2149 C   0  0  0  0  0  0  0  0  0  0  0  0
  144.2743  134.9911  153.4564 H   0  0  0  0  0  0  0  0  0  0  0  0
  142.8844  134.1446  152.7880 H   0  0  0  0  0  0  0  0  0  0  0  0
  143.8392  135.2042  151.7579 H   0  0  0  0  0  0  0  0  0  0  0  0
  144.7650  132.5633  153.0107 H   0  0  0  0  0  0  0  0  0  0  0  0
  145.6354  131.1526  150.7538 H   0  0  0  0  0  0  0  0  0  0  0  0
  144.9933  131.8718  149.2668 H   0  0  0  0  0  0  0  0  0  0  0  0
  147.3525  132.8074  150.0723 H   0  0  0  0  0  0  0  0  0  0  0  0
  146.0933  133.9721  149.7048 H   0  0  0  0  0  0  0  0  0  0  0  0
  147.4952  135.1123  151.9124 H   0  0  0  0  0  0  0  0  0  0  0  0
  146.8069  131.9377  153.1241 H   0  0  0  0  0  0  0  0  0  0  0  0
  148.1614  132.6016  152.2534 H   0  0  0  0  0  0  0  0  0  0  0  0
  149.3026  134.7938  153.2318 H   0  0  0  0  0  0  0  0  0  0  0  0
  149.9292  135.4360  157.5458 H   0  0  0  0  0  0  0  0  0  0  0  0
  149.6535  136.6682  158.7694 H   0  0  0  0  0  0  0  0  0  0  0  0
  149.0462  136.9149  157.1316 H   0  0  0  0  0  0  0  0  0  0  0  0
  146.8510  137.2036  158.9831 H   0  0  0  0  0  0  0  0  0  0  0  0
  146.1687  135.6573  159.2968 H   0  0  0  0  0  0  0  0  0  0  0  0
  148.0729  135.1453  160.9181 H   0  0  0  0  0  0  0  0  0  0  0  0
  149.5144  136.6837  160.2171 H   0  0  0  0  0  0  0  0  0  0  0  0
  147.2208  136.3718  162.7541 H   0  0  0  0  0  0  0  0  0  0  0  0
  146.4990  137.6038  161.7707 H   0  0  0  0  0  0  0  0  0  0  0  0
  144.6793  136.7394  163.5391 H   0  0  0  0  0  0  0  0  0  0  0  0
  144.1535  137.4185  162.0137 H   0  0  0  0  0  0  0  0  0  0  0  0
  142.3111  136.1759  163.1401 H   0  0  0  0  0  0  0  0  0  0  0  0
  142.6864  135.4860  161.5716 H   0  0  0  0  0  0  0  0  0  0  0  0
  144.5201  132.7162  163.0693 H   0  0  0  0  0  0  0  0  0  0  0  0
  144.0270  133.3948  161.5278 H   0  0  0  0  0  0  0  0  0  0  0  0
  146.4195  133.9132  161.9644 H   0  0  0  0  0  0  0  0  0  0  0  0
  146.0182  134.6287  163.5092 H   0  0  0  0  0  0  0  0  0  0  0  0
  144.8091  132.6112  157.2887 H   0  0  0  0  0  0  0  0  0  0  0  0
  1  2  1  0  0  0  0
  1 30  1  0  0  0  0
  1 31  1  0  0  0  0
  1 32  1  0  0  0  0
  2  6  1  0  0  0  0
  2  3  1  0  0  0  0
  2 33  1  0  0  0  0
  3  4  1  0  0  0  0
  4  5  1  0  0  0  0
  4 34  1  0  0  0  0
  4 35  1  0  0  0  0
  5  6  1  0  0  0  0
  5 36  1  0  0  0  0
  5 37  1  0  0  0  0
  6  7  1  0  0  0  0
  6  8  1  0  0  0  0
  7 38  1  0  0  0  0
  8  9  1  0  0  0  0
  8 39  1  0  0  0  0
  8 40  1  0  0  0  0
  9 29  1  0  0  0  0
  9 10  1  0  0  0  0
 10 11  2  0  0  0  0
 10 41  1  0  0  0  0
 11 12  1  0  0  0  0
 12 29  2  0  0  0  0
 12 13  1  0  0  0  0
 13 14  1  0  0  0  0
 13 26  2  0  0  0  0
 14 15  1  0  0  0  0
 14 16  1  0  0  0  0
 15 42  1  0  0  0  0
 15 43  1  0  0  0  0
 15 44  1  0  0  0  0
 16 17  1  0  0  0  0
 16 45  1  0  0  0  0
 16 46  1  0  0  0  0
 17 18  1  0  0  0  0
 17 19  1  0  0  0  0
 17 47  1  0  0  0  0
 18 48  1  0  0  0  0
 19 20  1  0  0  0  0
 19 49  1  0  0  0  0
 19 50  1  0  0  0  0
 20 25  1  0  0  0  0
 20 21  1  0  0  0  0
 21 22  1  0  0  0  0
 21 51  1  0  0  0  0
 21 52  1  0  0  0  0
 22 23  1  0  0  0  0
 22 53  1  0  0  0  0
 22 54  1  0  0  0  0
 23 24  1  0  0  0  0
 24 25  1  0  0  0  0
 24 55  1  0  0  0  0
 24 56  1  0  0  0  0
 25 57  1  0  0  0  0
 25 58  1  0  0  0  0
 26 27  1  0  0  0  0
 27 28  2  0  0  0  0
 27 59  1  0  0  0  0
 28 29  1  0  0  0  0
M  END
> <s_m_source_file>
AV-unprocessed.smi

> <i_m_source_file_index>
153

> <i_lp_mmshare_version>
43012

> <i_f3d_flags>
0

> <s_epik_input>
W0NIMl0xW0NIMl1PW0NAQEhdKFtDSDNdKVtDQEBdMShbT0hdKVtDSDJdbihbY0hdbjIpYyhjMjMpbltjSF1uYzNOKFtDSDNdKVtDSDJdW0NASF0oW09IXSlbQ0gyXU40W0NIMl1bQ0gyXU9bQ0gyXVtDSDJdNA==

> <s_epik_cmdline>
J2VwaWtfcHl0aG9uJywgJy1waCcsICc3LjAnLCAnLXRuJywgJzgnLCAnLW1hJywgJzIwMCcsICctbWV0YWxfYmluZGluZycsICctaW1hZScsICc8aW5maWxlLm1hZT4nLCAnLW9tYWUnLCAnPG91dGZpbGUubWFlPic=

> <r_lp_tautomer_probability>
1

> <r_epik_Ionization_Penalty>
0.424123

> <r_epik_Ionization_Penalty_Charging>
0

> <r_epik_Ionization_Penalty_Neutral>
0.424123

> <r_epik_State_Penalty>
0.421495

> <r_epik_Charging_Adjusted_Penalty>
0.421495

> <i_epik_Tot_Q>
0

> <i_epik_Tot_abs_Q>
0

> <r_epik_Metal_State_Penalty>
0.421223

> <b_epik_Metal_Only>
0

> <s_lp_Force_Field>
OPLS_2005

> <r_lp_Energy>
60.0656

> <b_lp_Chiralities_Consistent>
1

> <s_lp_Variant>
AV-unprocessed.smi:153-14

> <Gold.Version>
5.8.1

> <Gold.Id.Protein>
6NUR|6NUR_protein|mol2

> <Gold.PLP.Fitness>
39.4714

> <Gold.PLP.PLP>
-35.6131

> <Gold.PLP.part.hbond>
-2.0000

> <Gold.PLP.part.metal>
0.0000

> <Gold.PLP.part.buried>
-6.3655

> <Gold.PLP.part.nonpolar>
-27.8232

> <Gold.PLP.part.repulsive>
0.5089

> <Gold.PLP.ligand.clash>
0.0000

> <Gold.PLP.ligand.torsion>
1.5919

> <Gold.PLP.Chemscore.Hbond>
1.7280

> <Gold.PLP.Chemscore.CHOScore>
0.3713

> <Gold.PLP.Chemscore.Metal>
0.0000

> <Gold.Chemscore.Hbonds>
donor molecule, donor type, donor heavy atom, donor atom, acceptor molecule, acceptor atom, score
      L1  H     7    38       P1  7948  1.00
      P1  H  6931  6943       L1    18  0.86
      L1  C    10    41       P1  7948  0.37

> <Gold.PLP.Chemscore.Internal.Correction>
0.7442

> <Gold.Rescore>
     Score         DG    S(hbond)    S(metal)    S(lipo)     H(rot)  DE(clash)    DE(int)     intcor
      9.61     -12.52       1.88        0.00      83.32       3.52       0.02       2.89       ----

> <Gold.Chemscore.Fitness>
9.6071

> <Gold.Chemscore.DG>
-12.5184

> <Gold.Chemscore.ZeroCoef>
-5.4800

> <Gold.Chemscore.Hbond>
1.8843

> <Gold.Chemscore.Metal>
0.0000

> <Gold.Chemscore.Lipo>
83.3193

> <Gold.Chemscore.Internal_Hbond>
0.0000

> <Gold.Chemscore.DEClash>
0.0166

> <Gold.Chemscore.DEInternal>
2.8947

> <Gold.Chemscore.Rot>
3.5170

> <Gold.Chemscore.Internal.Correction>
   9.000000E+99

> <Gold.Chemscore.Hbonds>
donor molecule, donor type, donor heavy atom, donor atom, acceptor molecule, acceptor atom, score
      L1  H     7    38       P1  7948  0.88
      P1  H  6931  6943       L1    18  0.84

> <Gold.Chemscore.Hbond.Weighted>
-6.2936

> <Gold.Chemscore.Metal.Weighted>
-0.0000

> <Gold.Chemscore.Lipo.Weighted>
-9.7484

> <Gold.Chemscore.Internal_Hbond.Weighted>
0.0000

> <Gold.Chemscore.DEClash.Weighted>
0.0166

> <Gold.Chemscore.DEInternal.Weighted>
2.8947

> <Gold.Chemscore.Rot.Weighted>
9.0036

> <Gold.Chemscore.Internal.Correction.Weighted>
   9.000000E+99

> <Gold.Protein.RotatedTorsions>
[ 6907 6896 6895 6894 ] final   92.35 input  -60.11 | X-H torsion
[ 7974 7965 7964 7962 ] final -129.04 input  175.53 | X-H torsion
[ 8008 7997 7996 7995 ] final  -64.41 input   59.86 | X-H torsion
[ 10167 10162 10161 10158 ] final   16.36 input  -65.29 | X-H torsion
[ 10718 10713 10712 10709 ] final -166.03 input   66.30 | X-H torsion
[ 10763 10752 10751 10750 ] final -163.02 input  -60.55 | X-H torsion
[ 11005 11000 10999 10996 ] final -142.76 input  -57.11 | X-H torsion

> <Gold.Protein.ActiveResidues>
 VAL166  LYS551  ARG553  GLY616  TRP617  ASP618  TYR619  PRO620  LYS621  CYS622 
 ASP623  PHE694  ASN695  SER759  ASP760  ASP761  ALA762  ILE779  LEU786  VAL792 
 PHE793  MET794  SER795  GLU796  ALA797  LYS798  CYS799  TRP800  GLU811  SER814 

> <Gold.Protein.RotatedAtoms>
  152.5452  134.1515  159.8520 H   0  0  0  0  0  0  0  0  0  0  0  0  # atno 6907 bound_to 6896
  151.1542  133.4880  159.2602 H   0  0  0  0  0  0  0  0  0  0  0  0  # atno 6908 bound_to 6896
  151.1441  135.0205  159.8694 H   0  0  0  0  0  0  0  0  0  0  0  0  # atno 6909 bound_to 6896
  144.9611  140.7448  143.4728 H   0  0  0  0  0  0  0  0  0  0  0  0  # atno 7974 bound_to 7965
  154.4610  140.0954  156.6893 H   0  0  0  0  0  0  0  0  0  0  0  0  # atno 8008 bound_to 7997
  155.4994  140.3473  155.4350 H   0  0  0  0  0  0  0  0  0  0  0  0  # atno 8009 bound_to 7997
  156.0870  140.1387  156.9629 H   0  0  0  0  0  0  0  0  0  0  0  0  # atno 8010 bound_to 7997
  140.5802  143.8995  150.6784 H   0  0  0  0  0  0  0  0  0  0  0  0  # atno 10167 bound_to 10162
  156.6619  130.9049  151.3030 H   0  0  0  0  0  0  0  0  0  0  0  0  # atno 10718 bound_to 10713
  154.7161  135.3016  154.9121 H   0  0  0  0  0  0  0  0  0  0  0  0  # atno 10763 bound_to 10752
  154.0008  135.6707  153.4763 H   0  0  0  0  0  0  0  0  0  0  0  0  # atno 10764 bound_to 10752
  153.0795  135.5017  154.8388 H   0  0  0  0  0  0  0  0  0  0  0  0  # atno 10765 bound_to 10752
  140.8193  134.2650  157.4907 H   0  0  0  0  0  0  0  0  0  0  0  0  # atno 11005 bound_to 11000
  145.2698  139.1959  143.4847 LP  0  0  0  0  0  0  0  0  0  0  0  0  # atno 17320 bound_to 7965
  146.3353  140.2643  142.8603 LP  0  0  0  0  0  0  0  0  0  0  0  0  # atno 17321 bound_to 7965
  140.2492  143.3606  152.1420 LP  0  0  0  0  0  0  0  0  0  0  0  0  # atno 17342 bound_to 10162
  139.5165  144.6979  151.5578 LP  0  0  0  0  0  0  0  0  0  0  0  0  # atno 17343 bound_to 10162
  157.7107  130.9436  150.1078 LP  0  0  0  0  0  0  0  0  0  0  0  0  # atno 17370 bound_to 10713
  156.2004  130.3660  149.8795 LP  0  0  0  0  0  0  0  0  0  0  0  0  # atno 17371 bound_to 10713
  139.8709  134.9526  156.4121 LP  0  0  0  0  0  0  0  0  0  0  0  0  # atno 17394 bound_to 11000
  140.9116  133.7708  155.9798 LP  0  0  0  0  0  0  0  0  0  0  0  0  # atno 17395 bound_to 11000

$$$$
