AV-unprocessed.smi:998|AV-procd|sdf|4349|dock3
  -GOLD-   22720 2243D 1   1.00000     0.00000
 Structure written by MMmdl.
 44 46  0  0  0  0  0  0  0  0  1 V2000
  153.5085  141.9309  159.7140 C   0  0  0  0  0  0  0  0  0  0  0  0
  152.0270  143.0212  159.7706 S   0  0  0  0  0  0  0  0  0  0  0  0
  151.3647  142.8693  161.0750 O   0  0  0  0  0  0  0  0  0  0  0  0
  152.4364  144.3551  159.3051 O   0  0  0  0  0  0  0  0  0  0  0  0
  150.9858  142.3367  158.5661 N   0  0  0  0  0  0  0  0  0  0  0  0
  149.6135  142.8734  158.4648 C   0  0  0  0  0  0  0  0  0  0  0  0
  148.7202  141.9592  157.6095 C   0  0  0  0  0  0  0  0  0  0  0  0
  149.3224  141.7256  156.3036 N   0  0  0  0  0  0  0  0  0  0  0  0
  148.4710  141.0428  155.4232 C   0  0  0  0  0  0  0  0  0  0  0  0
  147.9908  141.7117  154.2786 C   0  0  0  0  0  0  0  0  0  0  0  0
  147.1313  141.0249  153.3995 C   0  0  0  0  0  0  0  0  0  0  0  0
  146.7829  139.6845  153.6920 C   0  0  0  0  0  0  0  0  0  0  0  0
  145.9084  138.8904  152.9017 N   0  0  0  0  0  0  0  0  0  0  0  0
  145.8208  137.5509  152.8322 C   0  0  0  0  0  0  0  0  0  0  0  0
  146.4872  136.7585  153.4976 O   0  0  0  0  0  0  0  0  0  0  0  0
  144.8878  137.1754  151.9467 N   0  0  0  0  0  0  0  0  0  0  0  0
  144.5331  135.8279  151.6369 C   0  0  0  0  0  0  0  0  0  0  0  0
  145.6021  134.9404  151.0366 C   0  0  0  0  0  0  0  0  0  0  0  0
  144.4725  135.4351  150.1764 C   0  0  0  0  0  0  0  0  0  0  0  0
  147.3071  139.1128  154.8695 C   0  0  0  0  0  0  0  0  0  0  0  0
  148.1320  139.7649  155.7151 N   0  0  0  0  0  0  0  0  0  0  0  0
  150.6424  141.1198  156.4235 C   0  0  0  0  0  0  0  0  0  0  0  0
  151.5808  142.0132  157.2537 C   0  0  0  0  0  0  0  0  0  0  0  0
  154.2711  142.3266  160.3841 H   0  0  0  0  0  0  0  0  0  0  0  0
  153.9015  141.9031  158.6980 H   0  0  0  0  0  0  0  0  0  0  0  0
  153.2450  140.9235  160.0325 H   0  0  0  0  0  0  0  0  0  0  0  0
  149.1806  142.9778  159.4585 H   0  0  0  0  0  0  0  0  0  0  0  0
  149.6551  143.8732  158.0301 H   0  0  0  0  0  0  0  0  0  0  0  0
  148.5696  141.0069  158.1208 H   0  0  0  0  0  0  0  0  0  0  0  0
  147.7366  142.4138  157.4855 H   0  0  0  0  0  0  0  0  0  0  0  0
  148.2709  142.7355  154.0776 H   0  0  0  0  0  0  0  0  0  0  0  0
  146.7492  141.5439  152.5344 H   0  0  0  0  0  0  0  0  0  0  0  0
  145.2356  139.4065  152.3539 H   0  0  0  0  0  0  0  0  0  0  0  0
  144.3881  137.8991  151.4512 H   0  0  0  0  0  0  0  0  0  0  0  0
  143.8171  135.3353  152.2933 H   0  0  0  0  0  0  0  0  0  0  0  0
  146.5872  135.3714  150.8679 H   0  0  0  0  0  0  0  0  0  0  0  0
  145.5964  133.8889  151.3168 H   0  0  0  0  0  0  0  0  0  0  0  0
  143.7127  134.7141  149.8822 H   0  0  0  0  0  0  0  0  0  0  0  0
  144.7047  136.1954  149.4332 H   0  0  0  0  0  0  0  0  0  0  0  0
  147.0593  138.0974  155.1429 H   0  0  0  0  0  0  0  0  0  0  0  0
  150.5575  140.1396  156.8951 H   0  0  0  0  0  0  0  0  0  0  0  0
  151.0648  140.9602  155.4306 H   0  0  0  0  0  0  0  0  0  0  0  0
  151.7937  142.9417  156.7221 H   0  0  0  0  0  0  0  0  0  0  0  0
  152.5317  141.4998  157.3932 H   0  0  0  0  0  0  0  0  0  0  0  0
  1  2  1  0  0  0  0
  1 24  1  0  0  0  0
  1 25  1  0  0  0  0
  1 26  1  0  0  0  0
  2  3  2  0  0  0  0
  2  4  2  0  0  0  0
  2  5  1  0  0  0  0
  5 23  1  0  0  0  0
  5  6  1  0  0  0  0
  6  7  1  0  0  0  0
  6 27  1  0  0  0  0
  6 28  1  0  0  0  0
  7  8  1  0  0  0  0
  7 29  1  0  0  0  0
  7 30  1  0  0  0  0
  8  9  1  0  0  0  0
  8 22  1  0  0  0  0
  9 21  1  0  0  0  0
  9 10  2  0  0  0  0
 10 11  1  0  0  0  0
 10 31  1  0  0  0  0
 11 12  2  0  0  0  0
 11 32  1  0  0  0  0
 12 13  1  0  0  0  0
 12 20  1  0  0  0  0
 13 14  1  0  0  0  0
 13 33  1  0  0  0  0
 14 15  2  0  0  0  0
 14 16  1  0  0  0  0
 16 17  1  0  0  0  0
 16 34  1  0  0  0  0
 17 19  1  0  0  0  0
 17 18  1  0  0  0  0
 17 35  1  0  0  0  0
 18 19  1  0  0  0  0
 18 36  1  0  0  0  0
 18 37  1  0  0  0  0
 19 38  1  0  0  0  0
 19 39  1  0  0  0  0
 20 21  2  0  0  0  0
 20 40  1  0  0  0  0
 22 23  1  0  0  0  0
 22 41  1  0  0  0  0
 22 42  1  0  0  0  0
 23 43  1  0  0  0  0
 23 44  1  0  0  0  0
M  END
> <s_m_source_file>
AV-unprocessed.smi

> <i_m_source_file_index>
998

> <i_lp_mmshare_version>
43012

> <i_f3d_flags>
0

> <s_epik_input>
W0NIM11TKD1PKSg9TylOMVtDSDJdW0NIMl1OKFtDSDJdW0NIMl0xKWMyW2NIXVtjSF1jKFtjSF1uMilbTkhdQyg9TylbTkhdW0NIXTNbQ0gyXVtDSDJdMw==

> <s_epik_cmdline>
J2VwaWtfcHl0aG9uJywgJy1waCcsICc3LjAnLCAnLXRuJywgJzgnLCAnLW1hJywgJzIwMCcsICctbWV0YWxfYmluZGluZycsICctaW1hZScsICc8aW5maWxlLm1hZT4nLCAnLW9tYWUnLCAnPG91dGZpbGUubWFlPic=

> <r_lp_tautomer_probability>
1

> <r_epik_Ionization_Penalty>
0.0538093

> <r_epik_Ionization_Penalty_Charging>
0

> <r_epik_Ionization_Penalty_Neutral>
0.0538093

> <r_epik_State_Penalty>
0.0462087

> <r_epik_Charging_Adjusted_Penalty>
0.0462087

> <i_epik_Tot_Q>
0

> <i_epik_Tot_abs_Q>
0

> <r_epik_Metal_State_Penalty>
0.0423268

> <b_epik_Metal_Only>
0

> <s_lp_Force_Field>
OPLS_2005

> <r_lp_Energy>
34.3098

> <b_lp_Chiralities_Consistent>
1

> <s_lp_Variant>
AV-unprocessed.smi:998-1

> <Gold.Version>
5.8.1

> <Gold.Id.Protein>
6NUR|6NUR_protein|mol2

> <Gold.PLP.Fitness>
42.1242

> <Gold.PLP.PLP>
-36.2027

> <Gold.PLP.part.hbond>
-3.0000

> <Gold.PLP.part.metal>
0.0000

> <Gold.PLP.part.buried>
-7.8254

> <Gold.PLP.part.nonpolar>
-26.3298

> <Gold.PLP.part.repulsive>
0.6619

> <Gold.PLP.ligand.clash>
0.0000

> <Gold.PLP.ligand.torsion>
0.5426

> <Gold.PLP.Chemscore.Hbond>
2.0861

> <Gold.PLP.Chemscore.CHOScore>
0.0000

> <Gold.PLP.Chemscore.Metal>
0.0000

> <Gold.Chemscore.Hbonds>
donor molecule, donor type, donor heavy atom, donor atom, acceptor molecule, acceptor atom, score
      L1  H    13    33       P1 10175  0.90
      L1  H    16    34       P1 10171  0.96
      P1  H  6933  6945       L1     3  0.26

> <Gold.PLP.Chemscore.Internal.Correction>
0.7486

> <Gold.Rescore>
     Score         DG    S(hbond)    S(metal)    S(lipo)     H(rot)  DE(clash)    DE(int)     intcor
     14.79     -16.91       2.08        0.00      72.16       1.55       0.16       1.95       ----

> <Gold.Chemscore.Fitness>
14.7920

> <Gold.Chemscore.DG>
-16.9067

> <Gold.Chemscore.ZeroCoef>
-5.4800

> <Gold.Chemscore.Hbond>
2.0805

> <Gold.Chemscore.Metal>
0.0000

> <Gold.Chemscore.Lipo>
72.1575

> <Gold.Chemscore.Internal_Hbond>
0.0000

> <Gold.Chemscore.DEClash>
0.1626

> <Gold.Chemscore.DEInternal>
1.9521

> <Gold.Chemscore.Rot>
1.5486

> <Gold.Chemscore.Internal.Correction>
   9.000000E+99

> <Gold.Chemscore.Hbonds>
donor molecule, donor type, donor heavy atom, donor atom, acceptor molecule, acceptor atom, score
      L1  H    13    33       P1 10175  0.86
      L1  H    16    34       P1 10171  0.92
      P1  H  6933  6945       L1     3  0.26

> <Gold.Chemscore.Hbond.Weighted>
-6.9487

> <Gold.Chemscore.Metal.Weighted>
-0.0000

> <Gold.Chemscore.Lipo.Weighted>
-8.4424

> <Gold.Chemscore.Internal_Hbond.Weighted>
0.0000

> <Gold.Chemscore.DEClash.Weighted>
0.1626

> <Gold.Chemscore.DEInternal.Weighted>
1.9521

> <Gold.Chemscore.Rot.Weighted>
3.9645

> <Gold.Chemscore.Internal.Correction.Weighted>
   9.000000E+99

> <Gold.Protein.RotatedTorsions>
[ 6907 6896 6895 6894 ] final  -28.23 input  -60.11 | X-H torsion
[ 7974 7965 7964 7962 ] final -146.48 input  175.53 | X-H torsion
[ 8008 7997 7996 7995 ] final   90.49 input   59.86 | X-H torsion
[ 10167 10162 10161 10158 ] final -126.57 input  -65.29 | X-H torsion
[ 10718 10713 10712 10709 ] final   42.87 input   66.30 | X-H torsion
[ 10763 10752 10751 10750 ] final   -0.02 input  -60.55 | X-H torsion
[ 11005 11000 10999 10996 ] final    1.48 input  -57.11 | X-H torsion

> <Gold.Protein.ActiveResidues>
 VAL166  LYS551  ARG553  GLY616  TRP617  ASP618  TYR619  PRO620  LYS621  CYS622 
 ASP623  PHE694  ASN695  SER759  ASP760  ASP761  ALA762  ILE779  LEU786  VAL792 
 PHE793  MET794  SER795  GLU796  ALA797  LYS798  CYS799  TRP800  GLU811  SER814 

> <Gold.Protein.RotatedAtoms>
  151.1358  135.0154  159.8602 H   0  0  0  0  0  0  0  0  0  0  0  0  # atno 6907 bound_to 6896
  152.5452  134.1557  159.8547 H   0  0  0  0  0  0  0  0  0  0  0  0  # atno 6908 bound_to 6896
  151.1627  133.4789  159.2627 H   0  0  0  0  0  0  0  0  0  0  0  0  # atno 6909 bound_to 6896
  144.8157  140.5451  143.5612 H   0  0  0  0  0  0  0  0  0  0  0  0  # atno 7974 bound_to 7965
  156.0125  140.3349  155.6956 H   0  0  0  0  0  0  0  0  0  0  0  0  # atno 8008 bound_to 7997
  155.6137  140.0668  157.2716 H   0  0  0  0  0  0  0  0  0  0  0  0  # atno 8009 bound_to 7997
  154.4286  140.1789  156.1286 H   0  0  0  0  0  0  0  0  0  0  0  0  # atno 8010 bound_to 7997
  139.9700  143.5855  152.2416 H   0  0  0  0  0  0  0  0  0  0  0  0  # atno 10167 bound_to 10162
  157.4097  130.7907  149.7419 H   0  0  0  0  0  0  0  0  0  0  0  0  # atno 10718 bound_to 10713
  153.3266  135.6972  153.6984 H   0  0  0  0  0  0  0  0  0  0  0  0  # atno 10763 bound_to 10752
  153.5803  135.3499  155.2873 H   0  0  0  0  0  0  0  0  0  0  0  0  # atno 10764 bound_to 10752
  154.8609  135.4293  154.2444 H   0  0  0  0  0  0  0  0  0  0  0  0  # atno 10765 bound_to 10752
  140.6150  133.9713  155.8196 H   0  0  0  0  0  0  0  0  0  0  0  0  # atno 11005 bound_to 11000
  145.5220  139.1476  143.3547 LP  0  0  0  0  0  0  0  0  0  0  0  0  # atno 17320 bound_to 7965
  146.2460  140.5361  142.8914 LP  0  0  0  0  0  0  0  0  0  0  0  0  # atno 17321 bound_to 7965
  139.6488  144.7659  151.2190 LP  0  0  0  0  0  0  0  0  0  0  0  0  # atno 17342 bound_to 10162
  140.7525  143.6195  150.8527 LP  0  0  0  0  0  0  0  0  0  0  0  0  # atno 17343 bound_to 10162
  155.9847  130.3989  150.3299 LP  0  0  0  0  0  0  0  0  0  0  0  0  # atno 17370 bound_to 10713
  157.1436  131.0303  151.2917 LP  0  0  0  0  0  0  0  0  0  0  0  0  # atno 17371 bound_to 10713
  141.0782  134.0103  157.3426 LP  0  0  0  0  0  0  0  0  0  0  0  0  # atno 17394 bound_to 11000
  139.9176  135.0198  156.7943 LP  0  0  0  0  0  0  0  0  0  0  0  0  # atno 17395 bound_to 11000

$$$$
