AV-unprocessed.smi:3240|AV-procd|sdf|12384|dock4
  -GOLD-   2272018253D 1   1.00000     0.00000
 Structure written by MMmdl.
 43 44  0  0  0  0  0  0  0  0  1 V2000
  146.2440  142.6801  153.7854 C   0  0  0  0  0  0  0  0  0  0  0  0
  147.1551  141.5052  153.9953 C   0  0  0  0  0  0  0  0  0  0  0  0
  146.9135  140.1423  153.6612 C   0  0  0  0  0  0  0  0  0  0  0  0
  147.9224  139.3480  153.9795 N   0  0  0  0  0  0  0  0  0  0  0  0
  148.8386  140.1712  154.5325 N   0  0  0  0  0  0  0  0  0  0  0  0
  150.1010  139.6354  155.0117 C   0  0  0  0  0  0  0  0  0  0  0  0
  150.1647  139.5261  156.5498 C   0  0  1  0  0  0  0  0  0  0  0  0
  150.6896  138.1549  157.0247 C   0  0  0  0  0  0  0  0  0  0  0  0
  150.9734  140.6310  157.0742 N   0  0  0  0  0  0  0  0  0  0  0  0
  150.3428  141.4368  158.1244 C   0  0  0  0  0  0  0  0  0  0  0  0
  150.8078  142.9106  158.0997 C   0  0  0  0  0  0  0  0  0  0  0  0
  150.7956  143.3223  156.7447 O   0  0  0  0  0  0  0  0  0  0  0  0
  149.8976  143.8403  158.9427 C   0  0  0  0  0  0  0  0  0  0  0  0
  150.4337  145.2806  159.0378 C   0  0  0  0  0  0  0  0  0  0  0  0
  151.8755  145.3109  159.5628 C   0  0  0  0  0  0  0  0  0  0  0  0
  152.7928  144.4411  158.6930 C   0  0  0  0  0  0  0  0  0  0  0  0
  152.2695  142.9966  158.6005 C   0  0  0  0  0  0  0  0  0  0  0  0
  148.4034  141.4792  154.5500 C   0  0  0  0  0  0  0  0  0  0  0  0
  145.6429  142.5685  152.8830 H   0  0  0  0  0  0  0  0  0  0  0  0
  146.8007  143.6121  153.6862 H   0  0  0  0  0  0  0  0  0  0  0  0
  145.5529  142.8048  154.6192 H   0  0  0  0  0  0  0  0  0  0  0  0
  146.0390  139.7095  153.1980 H   0  0  0  0  0  0  0  0  0  0  0  0
  150.2674  138.6578  154.5553 H   0  0  0  0  0  0  0  0  0  0  0  0
  150.8979  140.2860  154.6485 H   0  0  0  0  0  0  0  0  0  0  0  0
  149.1459  139.6363  156.9232 H   0  0  0  0  0  0  0  0  0  0  0  0
  150.0924  137.3367  156.6223 H   0  0  0  0  0  0  0  0  0  0  0  0
  150.6510  138.0543  158.1085 H   0  0  0  0  0  0  0  0  0  0  0  0
  151.7212  137.9962  156.7089 H   0  0  0  0  0  0  0  0  0  0  0  0
  151.2573  141.2357  156.3100 H   0  0  0  0  0  0  0  0  0  0  0  0
  149.2601  141.4055  157.9960 H   0  0  0  0  0  0  0  0  0  0  0  0
  150.5476  141.0151  159.1083 H   0  0  0  0  0  0  0  0  0  0  0  0
  150.0349  143.8662  156.6068 H   0  0  0  0  0  0  0  0  0  0  0  0
  148.8866  143.8653  158.5347 H   0  0  0  0  0  0  0  0  0  0  0  0
  149.8073  143.4335  159.9508 H   0  0  0  0  0  0  0  0  0  0  0  0
  150.3922  145.7550  158.0566 H   0  0  0  0  0  0  0  0  0  0  0  0
  149.7910  145.8716  159.6905 H   0  0  0  0  0  0  0  0  0  0  0  0
  152.2436  146.3371  159.5811 H   0  0  0  0  0  0  0  0  0  0  0  0
  151.8990  144.9537  160.5931 H   0  0  0  0  0  0  0  0  0  0  0  0
  152.8681  144.8728  157.6943 H   0  0  0  0  0  0  0  0  0  0  0  0
  153.8025  144.4423  159.1041 H   0  0  0  0  0  0  0  0  0  0  0  0
  152.3375  142.5411  159.5895 H   0  0  0  0  0  0  0  0  0  0  0  0
  152.9256  142.4107  157.9554 H   0  0  0  0  0  0  0  0  0  0  0  0
  149.0114  142.2746  154.9546 H   0  0  0  0  0  0  0  0  0  0  0  0
  1  2  1  0  0  0  0
  1 19  1  0  0  0  0
  1 20  1  0  0  0  0
  1 21  1  0  0  0  0
  2 18  2  0  0  0  0
  2  3  1  0  0  0  0
  3  4  2  0  0  0  0
  3 22  1  0  0  0  0
  4  5  1  0  0  0  0
  5  6  1  0  0  0  0
  5 18  1  0  0  0  0
  6  7  1  0  0  0  0
  6 23  1  0  0  0  0
  6 24  1  0  0  0  0
  7  8  1  0  0  0  0
  7  9  1  0  0  0  0
  7 25  1  0  0  0  0
  8 26  1  0  0  0  0
  8 27  1  0  0  0  0
  8 28  1  0  0  0  0
  9 10  1  0  0  0  0
  9 29  1  0  0  0  0
 10 11  1  0  0  0  0
 10 30  1  0  0  0  0
 10 31  1  0  0  0  0
 11 17  1  0  0  0  0
 11 12  1  0  0  0  0
 11 13  1  0  0  0  0
 12 32  1  0  0  0  0
 13 14  1  0  0  0  0
 13 33  1  0  0  0  0
 13 34  1  0  0  0  0
 14 15  1  0  0  0  0
 14 35  1  0  0  0  0
 14 36  1  0  0  0  0
 15 16  1  0  0  0  0
 15 37  1  0  0  0  0
 15 38  1  0  0  0  0
 16 17  1  0  0  0  0
 16 39  1  0  0  0  0
 16 40  1  0  0  0  0
 17 41  1  0  0  0  0
 17 42  1  0  0  0  0
 18 43  1  0  0  0  0
M  END
> <s_m_source_file>
AV-unprocessed.smi

> <i_m_source_file_index>
3240

> <i_lp_mmshare_version>
43012

> <i_f3d_flags>
0

> <s_epik_input>
W0NIM11jMVtjSF1ubihbY0hdMSlbQ0gyXVtDQEhdKFtDSDNdKVtOSF1bQ0gyXUMyKFtPSF0pW0NIMl1bQ0gyXVtDSDJdW0NIMl1bQ0gyXTI=

> <s_epik_cmdline>
J2VwaWtfcHl0aG9uJywgJy1waCcsICc3LjAnLCAnLXRuJywgJzgnLCAnLW1hJywgJzIwMCcsICctbWV0YWxfYmluZGluZycsICctaW1hZScsICc8aW5maWxlLm1hZT4nLCAnLW9tYWUnLCAnPG91dGZpbGUubWFlPic=

> <r_lp_tautomer_probability>
1

> <r_epik_Ionization_Penalty>
2.35969

> <r_epik_Ionization_Penalty_Charging>
0

> <r_epik_Ionization_Penalty_Neutral>
2.35969

> <r_epik_State_Penalty>
2.51455

> <r_epik_Charging_Adjusted_Penalty>
2.51455

> <i_epik_Tot_Q>
0

> <i_epik_Tot_abs_Q>
0

> <r_epik_Metal_State_Penalty>
2.51446

> <b_epik_Metal_Only>
0

> <s_lp_Force_Field>
OPLS_2005

> <r_lp_Energy>
22.6589

> <b_lp_Chiralities_Consistent>
1

> <s_lp_Variant>
AV-unprocessed.smi:3240-4

> <Gold.Version>
5.8.1

> <Gold.Id.Protein>
6NUR|6NUR_protein|mol2

> <Gold.PLP.Fitness>
44.9254

> <Gold.PLP.PLP>
-39.6435

> <Gold.PLP.part.hbond>
-1.0000

> <Gold.PLP.part.metal>
0.0000

> <Gold.PLP.part.buried>
-5.8329

> <Gold.PLP.part.nonpolar>
-33.8651

> <Gold.PLP.part.repulsive>
0.3602

> <Gold.PLP.ligand.clash>
0.0000

> <Gold.PLP.ligand.torsion>
1.8893

> <Gold.PLP.Chemscore.Hbond>
1.0000

> <Gold.PLP.Chemscore.CHOScore>
1.9988

> <Gold.PLP.Chemscore.Metal>
0.0000

> <Gold.Chemscore.Hbonds>
donor molecule, donor type, donor heavy atom, donor atom, acceptor molecule, acceptor atom, score
      L1  H    12    32       P1  8028  1.00
      L1  C     3    22       P1 10175  0.87
      L1  C    18    43       P1  8028  0.98

> <Gold.PLP.Chemscore.Internal.Correction>
0.0640

> <Gold.Rescore>
     Score         DG    S(hbond)    S(metal)    S(lipo)     H(rot)  DE(clash)    DE(int)     intcor
     14.97     -17.18       0.99        0.00     116.42       2.04       0.19       2.02       ----

> <Gold.Chemscore.Fitness>
14.9713

> <Gold.Chemscore.DG>
-17.1782

> <Gold.Chemscore.ZeroCoef>
-5.4800

> <Gold.Chemscore.Hbond>
0.9915

> <Gold.Chemscore.Metal>
0.0000

> <Gold.Chemscore.Lipo>
116.4200

> <Gold.Chemscore.Internal_Hbond>
0.0000

> <Gold.Chemscore.DEClash>
0.1852

> <Gold.Chemscore.DEInternal>
2.0217

> <Gold.Chemscore.Rot>
2.0447

> <Gold.Chemscore.Internal.Correction>
   9.000000E+99

> <Gold.Chemscore.Hbonds>
donor molecule, donor type, donor heavy atom, donor atom, acceptor molecule, acceptor atom, score
      L1  H    12    32       P1  8028  0.98

> <Gold.Chemscore.Hbond.Weighted>
-3.3115

> <Gold.Chemscore.Metal.Weighted>
-0.0000

> <Gold.Chemscore.Lipo.Weighted>
-13.6211

> <Gold.Chemscore.Internal_Hbond.Weighted>
0.0000

> <Gold.Chemscore.DEClash.Weighted>
0.1852

> <Gold.Chemscore.DEInternal.Weighted>
2.0217

> <Gold.Chemscore.Rot.Weighted>
5.2344

> <Gold.Chemscore.Internal.Correction.Weighted>
   9.000000E+99

> <Gold.Protein.RotatedTorsions>
[ 6907 6896 6895 6894 ] final  -95.30 input  -60.11 | X-H torsion
[ 7974 7965 7964 7962 ] final -166.71 input  175.53 | X-H torsion
[ 8008 7997 7996 7995 ] final  157.83 input   59.86 | X-H torsion
[ 10167 10162 10161 10158 ] final -164.43 input  -65.29 | X-H torsion
[ 10718 10713 10712 10709 ] final -120.20 input   66.30 | X-H torsion
[ 10763 10752 10751 10750 ] final -163.59 input  -60.55 | X-H torsion
[ 11005 11000 10999 10996 ] final -161.01 input  -57.11 | X-H torsion

> <Gold.Protein.ActiveResidues>
 VAL166  LYS551  ARG553  GLY616  TRP617  ASP618  TYR619  PRO620  LYS621  CYS622 
 ASP623  PHE694  ASN695  SER759  ASP760  ASP761  ALA762  ILE779  LEU786  VAL792 
 PHE793  MET794  SER795  GLU796  ALA797  LYS798  CYS799  TRP800  GLU811  SER814 

> <Gold.Protein.RotatedAtoms>
  150.6961  134.1678  159.4200 H   0  0  0  0  0  0  0  0  0  0  0  0  # atno 6907 bound_to 6896
  151.9657  135.0099  160.0559 H   0  0  0  0  0  0  0  0  0  0  0  0  # atno 6908 bound_to 6896
  152.1887  133.4722  159.5033 H   0  0  0  0  0  0  0  0  0  0  0  0  # atno 6909 bound_to 6896
  144.7239  140.2627  143.6262 H   0  0  0  0  0  0  0  0  0  0  0  0  # atno 7974 bound_to 7965
  156.2340  140.1874  156.7169 H   0  0  0  0  0  0  0  0  0  0  0  0  # atno 8008 bound_to 7997
  154.6073  140.0627  156.9474 H   0  0  0  0  0  0  0  0  0  0  0  0  # atno 8009 bound_to 7997
  155.2075  140.3297  155.4336 H   0  0  0  0  0  0  0  0  0  0  0  0  # atno 8010 bound_to 7997
  139.6251  144.0548  152.1967 H   0  0  0  0  0  0  0  0  0  0  0  0  # atno 10167 bound_to 10162
  156.1239  130.6344  150.9510 H   0  0  0  0  0  0  0  0  0  0  0  0  # atno 10718 bound_to 10713
  154.7108  135.3006  154.9200 H   0  0  0  0  0  0  0  0  0  0  0  0  # atno 10763 bound_to 10752
  154.0103  135.6695  153.4769 H   0  0  0  0  0  0  0  0  0  0  0  0  # atno 10764 bound_to 10752
  153.0753  135.5038  154.8305 H   0  0  0  0  0  0  0  0  0  0  0  0  # atno 10765 bound_to 10752
  140.6252  134.4709  157.5226 H   0  0  0  0  0  0  0  0  0  0  0  0  # atno 11005 bound_to 11000
  145.8120  139.2007  143.1987 LP  0  0  0  0  0  0  0  0  0  0  0  0  # atno 17320 bound_to 7965
  146.0588  140.7993  142.9745 LP  0  0  0  0  0  0  0  0  0  0  0  0  # atno 17321 bound_to 7965
  140.0199  144.6160  150.7575 LP  0  0  0  0  0  0  0  0  0  0  0  0  # atno 17342 bound_to 10162
  140.7406  143.2807  151.3608 LP  0  0  0  0  0  0  0  0  0  0  0  0  # atno 17343 bound_to 10162
  157.6422  131.0909  150.8228 LP  0  0  0  0  0  0  0  0  0  0  0  0  # atno 17370 bound_to 10713
  156.8321  130.5019  149.5330 LP  0  0  0  0  0  0  0  0  0  0  0  0  # atno 17371 bound_to 10713
  139.9138  134.8289  156.1437 LP  0  0  0  0  0  0  0  0  0  0  0  0  # atno 17394 bound_to 11000
  141.0715  133.6795  156.2149 LP  0  0  0  0  0  0  0  0  0  0  0  0  # atno 17395 bound_to 11000

$$$$
