AV-unprocessed.smi:2479|AV-procd|sdf|9768|dock4
  -GOLD-   2272013413D 1   1.00000     0.00000
 Structure written by MMmdl.
 29 30  0  0  0  0  0  0  0  0  1 V2000
  152.7327  137.0148  160.3733 N   0  0  0  0  0  0  0  0  0  0  0  0
  152.0073  137.5901  159.6796 C   0  0  0  0  0  0  0  0  0  0  0  0
  151.0961  138.3120  158.8088 C   0  0  0  0  0  0  0  0  0  0  0  0
  149.9057  137.7123  158.3525 C   0  0  0  0  0  0  0  0  0  0  0  0
  149.0261  138.3399  157.5436 N   0  0  0  0  0  0  0  0  0  0  0  0
  149.2933  139.6103  157.1520 C   0  0  0  0  0  0  0  0  0  0  0  0
  148.3700  140.2488  156.2990 N   0  0  0  0  0  0  0  0  0  0  0  0
  147.6717  141.3127  157.0167 C   0  0  0  0  0  0  0  0  0  0  0  0
  146.5579  141.9118  156.1477 C   0  0  0  0  0  0  0  0  0  0  0  0
  147.1239  142.3805  154.9320 O   0  0  0  0  0  0  0  0  0  0  0  0
  147.6990  141.3195  154.1788 C   0  0  0  0  0  0  0  0  0  0  0  0
  148.8512  140.6486  154.9647 C   0  0  2  0  0  0  0  0  0  0  0  0
  149.4339  139.5238  154.0834 C   0  0  0  0  0  0  0  0  0  0  0  0
  148.5961  138.7896  153.3430 N   0  0  0  0  0  0  0  0  0  0  0  0
  150.6451  139.3148  154.0808 O   0  0  0  0  0  0  0  0  0  0  0  0
  150.4670  140.2926  157.5566 C   0  0  0  0  0  0  0  0  0  0  0  0
  150.7915  141.9154  157.0549 Cl  0  0  0  0  0  0  0  0  0  0  0  0
  151.3801  139.6293  158.3999 C   0  0  0  0  0  0  0  0  0  0  0  0
  149.6475  136.7030  158.6394 H   0  0  0  0  0  0  0  0  0  0  0  0
  147.2413  140.9279  157.9426 H   0  0  0  0  0  0  0  0  0  0  0  0
  148.3813  142.0937  157.2958 H   0  0  0  0  0  0  0  0  0  0  0  0
  145.7770  141.1764  155.9462 H   0  0  0  0  0  0  0  0  0  0  0  0
  146.0851  142.7470  156.6645 H   0  0  0  0  0  0  0  0  0  0  0  0
  146.9238  140.5952  153.9197 H   0  0  0  0  0  0  0  0  0  0  0  0
  148.0679  141.7333  153.2392 H   0  0  0  0  0  0  0  0  0  0  0  0
  149.6350  141.3968  155.0975 H   0  0  0  0  0  0  0  0  0  0  0  0
  148.9573  138.0479  152.7605 H   0  0  0  0  0  0  0  0  0  0  0  0
  147.6047  138.9793  153.3707 H   0  0  0  0  0  0  0  0  0  0  0  0
  152.2814  140.1280  158.7262 H   0  0  0  0  0  0  0  0  0  0  0  0
  1  2  3  0  0  0  0
  2  3  1  0  0  0  0
  3 18  1  0  0  0  0
  3  4  2  0  0  0  0
  4  5  1  0  0  0  0
  4 19  1  0  0  0  0
  5  6  2  0  0  0  0
  6  7  1  0  0  0  0
  6 16  1  0  0  0  0
  7 12  1  0  0  0  0
  7  8  1  0  0  0  0
  8  9  1  0  0  0  0
  8 20  1  0  0  0  0
  8 21  1  0  0  0  0
  9 10  1  0  0  0  0
  9 22  1  0  0  0  0
  9 23  1  0  0  0  0
 10 11  1  0  0  0  0
 11 12  1  0  0  0  0
 11 24  1  0  0  0  0
 11 25  1  0  0  0  0
 12 13  1  0  0  0  0
 12 26  1  0  0  0  0
 13 14  1  0  0  0  0
 13 15  2  0  0  0  0
 14 27  1  0  0  0  0
 14 28  1  0  0  0  0
 16 17  1  0  0  0  0
 16 18  2  0  0  0  0
 18 29  1  0  0  0  0
M  END
> <s_m_source_file>
AV-unprocessed.smi

> <i_m_source_file_index>
2479

> <i_lp_mmshare_version>
43012

> <i_f3d_flags>
0

> <s_epik_input>
TiNDYzFbY0hdbmMoYyhDbClbY0hdMSlOMltDSDJdW0NIMl1PW0NIMl1bQ0BIXTJDKD1PKVtOSDJd

> <s_epik_cmdline>
J2VwaWtfcHl0aG9uJywgJy1waCcsICc3LjAnLCAnLXRuJywgJzgnLCAnLW1hJywgJzIwMCcsICctbWV0YWxfYmluZGluZycsICctaW1hZScsICc8aW5maWxlLm1hZT4nLCAnLW9tYWUnLCAnPG91dGZpbGUubWFlPic=

> <r_lp_tautomer_probability>
1

> <r_epik_Ionization_Penalty>
1.61078e-07

> <r_epik_Ionization_Penalty_Charging>
0

> <r_epik_Ionization_Penalty_Neutral>
1.61078e-07

> <r_epik_State_Penalty>
-0

> <r_epik_Charging_Adjusted_Penalty>
0

> <i_epik_Tot_Q>
0

> <i_epik_Tot_abs_Q>
0

> <r_epik_Metal_State_Penalty>
-0

> <b_epik_Metal_Only>
0

> <s_lp_Force_Field>
OPLS_2005

> <r_lp_Energy>
19.0846

> <b_lp_Chiralities_Consistent>
1

> <s_lp_Variant>
AV-unprocessed.smi:2479-2

> <Gold.Version>
5.8.1

> <Gold.Id.Protein>
6NUR|6NUR_protein|mol2

> <Gold.PLP.Fitness>
30.0249

> <Gold.PLP.PLP>
-22.5537

> <Gold.PLP.part.hbond>
-3.9882

> <Gold.PLP.part.metal>
0.0000

> <Gold.PLP.part.buried>
-3.5413

> <Gold.PLP.part.nonpolar>
-17.0223

> <Gold.PLP.part.repulsive>
1.2351

> <Gold.PLP.ligand.clash>
0.0000

> <Gold.PLP.ligand.torsion>
0.7713

> <Gold.PLP.Chemscore.Hbond>
2.9500

> <Gold.PLP.Chemscore.CHOScore>
0.0000

> <Gold.PLP.Chemscore.Metal>
0.0000

> <Gold.Chemscore.Hbonds>
donor molecule, donor type, donor heavy atom, donor atom, acceptor molecule, acceptor atom, score
      L1  H    14    27       P1  7948  1.00
      P1  H  6896  6909       L1     1  0.79
      P1  H  7989  7998       L1    15  1.00

> <Gold.PLP.Chemscore.Internal.Correction>
0.1638

> <Gold.Rescore>
     Score         DG    S(hbond)    S(metal)    S(lipo)     H(rot)  DE(clash)    DE(int)     intcor
     11.45     -13.17       2.13        0.00      37.92       1.50       0.43       1.30       ----

> <Gold.Chemscore.Fitness>
11.4466

> <Gold.Chemscore.DG>
-13.1749

> <Gold.Chemscore.ZeroCoef>
-5.4800

> <Gold.Chemscore.Hbond>
2.1258

> <Gold.Chemscore.Metal>
0.0000

> <Gold.Chemscore.Lipo>
37.9185

> <Gold.Chemscore.Internal_Hbond>
0.0000

> <Gold.Chemscore.DEClash>
0.4303

> <Gold.Chemscore.DEInternal>
1.2980

> <Gold.Chemscore.Rot>
1.5006

> <Gold.Chemscore.Internal.Correction>
   9.000000E+99

> <Gold.Chemscore.Hbonds>
donor molecule, donor type, donor heavy atom, donor atom, acceptor molecule, acceptor atom, score
      L1  H    14    27       P1  7948  0.96
      P1  H  6896  6909       L1     1  0.17
      P1  H  7989  7998       L1    15  0.81

> <Gold.Chemscore.Hbond.Weighted>
-7.1000

> <Gold.Chemscore.Metal.Weighted>
-0.0000

> <Gold.Chemscore.Lipo.Weighted>
-4.4365

> <Gold.Chemscore.Internal_Hbond.Weighted>
0.0000

> <Gold.Chemscore.DEClash.Weighted>
0.4303

> <Gold.Chemscore.DEInternal.Weighted>
1.2980

> <Gold.Chemscore.Rot.Weighted>
3.8416

> <Gold.Chemscore.Internal.Correction.Weighted>
   9.000000E+99

> <Gold.Protein.RotatedTorsions>
[ 6907 6896 6895 6894 ] final  146.23 input  -60.11 | X-H torsion
[ 7974 7965 7964 7962 ] final -140.09 input  175.53 | X-H torsion
[ 8008 7997 7996 7995 ] final   -4.29 input   59.86 | X-H torsion
[ 10167 10162 10161 10158 ] final  106.30 input  -65.29 | X-H torsion
[ 10718 10713 10712 10709 ] final   23.60 input   66.30 | X-H torsion
[ 10763 10752 10751 10750 ] final  -34.11 input  -60.55 | X-H torsion
[ 11005 11000 10999 10996 ] final   14.39 input  -57.11 | X-H torsion

> <Gold.Protein.ActiveResidues>
 VAL166  LYS551  ARG553  GLY616  TRP617  ASP618  TYR619  PRO620  LYS621  CYS622 
 ASP623  PHE694  ASN695  SER759  ASP760  ASP761  ALA762  ILE779  LEU786  VAL792 
 PHE793  MET794  SER795  GLU796  ALA797  LYS798  CYS799  TRP800  GLU811  SER814 

> <Gold.Protein.RotatedAtoms>
  152.1706  133.4641  159.4907 H   0  0  0  0  0  0  0  0  0  0  0  0  # atno 6907 bound_to 6896
  150.6919  134.1957  159.4311 H   0  0  0  0  0  0  0  0  0  0  0  0  # atno 6908 bound_to 6896
  151.9864  135.0001  160.0610 H   0  0  0  0  0  0  0  0  0  0  0  0  # atno 6909 bound_to 6896
  144.8625  140.6241  143.5319 H   0  0  0  0  0  0  0  0  0  0  0  0  # atno 7974 bound_to 7965
  154.6159  140.2488  155.7610 H   0  0  0  0  0  0  0  0  0  0  0  0  # atno 8008 bound_to 7997
  156.2398  140.2937  156.0362 H   0  0  0  0  0  0  0  0  0  0  0  0  # atno 8009 bound_to 7997
  155.1976  140.0393  157.2902 H   0  0  0  0  0  0  0  0  0  0  0  0  # atno 8010 bound_to 7997
  139.7020  144.7092  151.1169 H   0  0  0  0  0  0  0  0  0  0  0  0  # atno 10167 bound_to 10162
  157.1684  130.6748  149.6069 H   0  0  0  0  0  0  0  0  0  0  0  0  # atno 10718 bound_to 10713
  153.8412  135.6857  153.4802 H   0  0  0  0  0  0  0  0  0  0  0  0  # atno 10763 bound_to 10752
  153.1452  135.4641  154.9554 H   0  0  0  0  0  0  0  0  0  0  0  0  # atno 10764 bound_to 10752
  154.7844  135.3279  154.7866 H   0  0  0  0  0  0  0  0  0  0  0  0  # atno 10765 bound_to 10752
  140.4701  134.1040  155.7731 H   0  0  0  0  0  0  0  0  0  0  0  0  # atno 11005 bound_to 11000
  145.4285  139.1552  143.4035 LP  0  0  0  0  0  0  0  0  0  0  0  0  # atno 17320 bound_to 7965
  146.2871  140.4400  142.8754 LP  0  0  0  0  0  0  0  0  0  0  0  0  # atno 17321 bound_to 7965
  140.7712  143.5410  150.9313 LP  0  0  0  0  0  0  0  0  0  0  0  0  # atno 17342 bound_to 10162
  139.9092  143.6741  152.3118 LP  0  0  0  0  0  0  0  0  0  0  0  0  # atno 17343 bound_to 10162
  155.9742  130.4687  150.6371 LP  0  0  0  0  0  0  0  0  0  0  0  0  # atno 17370 bound_to 10713
  157.4067  131.0817  151.1259 LP  0  0  0  0  0  0  0  0  0  0  0  0  # atno 17371 bound_to 10713
  141.1581  133.8845  157.1923 LP  0  0  0  0  0  0  0  0  0  0  0  0  # atno 17394 bound_to 11000
  139.9891  135.0071  156.9932 LP  0  0  0  0  0  0  0  0  0  0  0  0  # atno 17395 bound_to 11000

$$$$
