AV-unprocessed.smi:509|AV-procd|sdf|2761|dock9
  -GOLD-   2262023223D 1   1.00000     0.00000
 Structure written by MMmdl.
 45 47  0  0  0  0  0  0  0  0  1 V2000
  153.6751  137.0496  160.1287 C   0  0  0  0  0  0  0  0  0  0  0  0
  152.5927  136.7350  159.2719 O   0  0  0  0  0  0  0  0  0  0  0  0
  151.8427  137.8785  158.8960 C   0  0  0  0  0  0  0  0  0  0  0  0
  152.6759  138.7462  157.9427 C   0  0  0  0  0  0  0  0  0  0  0  0
  152.1580  140.1109  157.8551 N   0  0  0  0  0  0  0  0  0  0  0  0
  151.5292  140.7237  156.8135 C   0  0  0  0  0  0  0  0  0  0  0  0
  151.2386  140.0659  155.6179 N   0  0  0  0  0  0  0  0  0  0  0  0
  150.1785  140.3915  154.6663 C   0  0  0  0  0  0  0  0  0  0  0  0
  149.3989  139.1263  154.2568 C   0  0  0  0  0  0  0  0  0  0  0  0
  150.3065  138.1884  153.6051 N   0  0  0  0  0  0  0  0  0  0  0  0
  151.3713  137.8428  154.5410 C   0  0  0  0  0  0  0  0  0  0  0  0
  152.1327  139.1159  154.9624 C   0  0  0  0  0  0  0  0  0  0  0  0
  151.2553  142.0149  157.0151 N   0  0  0  0  0  0  0  0  0  0  0  0
  151.7211  142.2386  158.3007 C   0  0  0  0  0  0  0  0  0  0  0  0
  152.2690  141.1157  158.8207 C   0  0  0  0  0  0  0  0  0  0  0  0
  152.8731  141.0758  160.1594 C   0  0  0  0  0  0  0  0  0  0  0  0
  153.3943  140.0494  160.5970 O   0  0  0  0  0  0  0  0  0  0  0  0
  152.7972  142.2618  160.8414 N   0  0  0  0  0  0  0  0  0  0  0  0
  153.3580  142.3233  162.2042 C   0  0  0  0  0  0  0  0  0  0  0  0
  152.2339  143.4276  160.3531 C   0  0  0  0  0  0  0  0  0  0  0  0
  152.1957  144.4541  161.0378 O   0  0  0  0  0  0  0  0  0  0  0  0
  151.7150  143.4214  159.0833 N   0  0  0  0  0  0  0  0  0  0  0  0
  151.1218  144.6404  158.5259 C   0  0  0  0  0  0  0  0  0  0  0  0
  154.2136  136.1377  160.3864 H   0  0  0  0  0  0  0  0  0  0  0  0
  153.3247  137.5076  161.0545 H   0  0  0  0  0  0  0  0  0  0  0  0
  154.3766  137.7296  159.6438 H   0  0  0  0  0  0  0  0  0  0  0  0
  150.9186  137.5729  158.4036 H   0  0  0  0  0  0  0  0  0  0  0  0
  151.5662  138.4517  159.7821 H   0  0  0  0  0  0  0  0  0  0  0  0
  153.7087  138.7499  158.2744 H   0  0  0  0  0  0  0  0  0  0  0  0
  152.7029  138.3069  156.9467 H   0  0  0  0  0  0  0  0  0  0  0  0
  149.5080  141.1411  155.0846 H   0  0  0  0  0  0  0  0  0  0  0  0
  150.6223  140.8569  153.7850 H   0  0  0  0  0  0  0  0  0  0  0  0
  148.9336  138.6547  155.1235 H   0  0  0  0  0  0  0  0  0  0  0  0
  148.5997  139.3849  153.5622 H   0  0  0  0  0  0  0  0  0  0  0  0
  149.8020  137.3538  153.3424 H   0  0  0  0  0  0  0  0  0  0  0  0
  150.9514  137.3369  155.4114 H   0  0  0  0  0  0  0  0  0  0  0  0
  152.0514  137.1407  154.0589 H   0  0  0  0  0  0  0  0  0  0  0  0
  152.6027  139.5883  154.0987 H   0  0  0  0  0  0  0  0  0  0  0  0
  152.9377  138.8456  155.6468 H   0  0  0  0  0  0  0  0  0  0  0  0
  152.5864  142.6094  162.9207 H   0  0  0  0  0  0  0  0  0  0  0  0
  154.1543  143.0676  162.2540 H   0  0  0  0  0  0  0  0  0  0  0  0
  153.7840  141.3882  162.5690 H   0  0  0  0  0  0  0  0  0  0  0  0
  150.1884  144.8740  159.0389 H   0  0  0  0  0  0  0  0  0  0  0  0
  150.9005  144.5512  157.4627 H   0  0  0  0  0  0  0  0  0  0  0  0
  151.7954  145.4910  158.6390 H   0  0  0  0  0  0  0  0  0  0  0  0
  1  2  1  0  0  0  0
  1 24  1  0  0  0  0
  1 25  1  0  0  0  0
  1 26  1  0  0  0  0
  2  3  1  0  0  0  0
  3  4  1  0  0  0  0
  3 27  1  0  0  0  0
  3 28  1  0  0  0  0
  4  5  1  0  0  0  0
  4 29  1  0  0  0  0
  4 30  1  0  0  0  0
  5 15  1  0  0  0  0
  5  6  1  0  0  0  0
  6  7  1  0  0  0  0
  6 13  2  0  0  0  0
  7 12  1  0  0  0  0
  7  8  1  0  0  0  0
  8  9  1  0  0  0  0
  8 31  1  0  0  0  0
  8 32  1  0  0  0  0
  9 10  1  0  0  0  0
  9 33  1  0  0  0  0
  9 34  1  0  0  0  0
 10 11  1  0  0  0  0
 10 35  1  0  0  0  0
 11 12  1  0  0  0  0
 11 36  1  0  0  0  0
 11 37  1  0  0  0  0
 12 38  1  0  0  0  0
 12 39  1  0  0  0  0
 13 14  1  0  0  0  0
 14 22  1  0  0  0  0
 14 15  2  0  0  0  0
 15 16  1  0  0  0  0
 16 17  2  0  0  0  0
 16 18  1  0  0  0  0
 18 19  1  0  0  0  0
 18 20  1  0  0  0  0
 19 40  1  0  0  0  0
 19 41  1  0  0  0  0
 19 42  1  0  0  0  0
 20 21  2  0  0  0  0
 20 22  1  0  0  0  0
 22 23  1  0  0  0  0
 23 43  1  0  0  0  0
 23 44  1  0  0  0  0
 23 45  1  0  0  0  0
M  END
> <s_m_source_file>
AV-unprocessed.smi

> <i_m_source_file_index>
509

> <i_lp_mmshare_version>
43012

> <i_f3d_flags>
0

> <s_epik_input>
W0NIM11uMWMoPU8pbihbQ0gzXSljKD1PKWMoYzEyKW4oW0NIMl1bQ0gyXU9bQ0gzXSljKG4yKU4zW0NIMl1bQ0gyXVtOSF1bQ0gyXVtDSDJdMw==

> <s_epik_cmdline>
J2VwaWtfcHl0aG9uJywgJy1waCcsICc3LjAnLCAnLXRuJywgJzgnLCAnLW1hJywgJzIwMCcsICctbWV0YWxfYmluZGluZycsICctaW1hZScsICc8aW5maWxlLm1hZT4nLCAnLW9tYWUnLCAnPG91dGZpbGUubWFlPic=

> <r_epik_Ionization_Penalty>
2.51424

> <r_epik_Ionization_Penalty_Charging>
1.27827e-08

> <r_epik_Ionization_Penalty_Neutral>
2.51424

> <r_epik_State_Penalty>
2.67993

> <r_epik_Charging_Adjusted_Penalty>
2.67993

> <i_epik_Tot_Q>
0

> <i_epik_Tot_abs_Q>
0

> <r_epik_Metal_State_Penalty>
2.67967

> <b_epik_Metal_Only>
0

> <s_lp_Force_Field>
OPLS_2005

> <r_lp_Energy>
54.3442

> <b_lp_Chiralities_Consistent>
1

> <s_lp_Variant>
AV-unprocessed.smi:509-2

> <Gold.Version>
5.8.1

> <Gold.Id.Protein>
6NUR|6NUR_protein|mol2

> <Gold.PLP.Fitness>
54.2320

> <Gold.PLP.PLP>
-49.5306

> <Gold.PLP.part.hbond>
-3.2073

> <Gold.PLP.part.metal>
0.0000

> <Gold.PLP.part.buried>
-1.9556

> <Gold.PLP.part.nonpolar>
-43.5478

> <Gold.PLP.part.repulsive>
0.2010

> <Gold.PLP.ligand.clash>
0.0000

> <Gold.PLP.ligand.torsion>
0.7073

> <Gold.PLP.Chemscore.Hbond>
1.9280

> <Gold.PLP.Chemscore.CHOScore>
0.0000

> <Gold.PLP.Chemscore.Metal>
0.0000

> <Gold.Chemscore.Hbonds>
donor molecule, donor type, donor heavy atom, donor atom, acceptor molecule, acceptor atom, score
      L1  H    10    35       P1  7948  0.94
      P1  H  6896  6908       L1     2  1.00

> <Gold.PLP.Chemscore.Internal.Correction>
0.3319

> <Gold.Rescore>
     Score         DG    S(hbond)    S(metal)    S(lipo)     H(rot)  DE(clash)    DE(int)     intcor
     13.29     -14.91       1.50        0.00      70.53       1.49       0.01       1.62       ----

> <Gold.Chemscore.Fitness>
13.2867

> <Gold.Chemscore.DG>
-14.9132

> <Gold.Chemscore.ZeroCoef>
-5.4800

> <Gold.Chemscore.Hbond>
1.4968

> <Gold.Chemscore.Metal>
0.0000

> <Gold.Chemscore.Lipo>
70.5310

> <Gold.Chemscore.Internal_Hbond>
0.0000

> <Gold.Chemscore.DEClash>
0.0111

> <Gold.Chemscore.DEInternal>
1.6154

> <Gold.Chemscore.Rot>
1.4915

> <Gold.Chemscore.Internal.Correction>
   9.000000E+99

> <Gold.Chemscore.Hbonds>
donor molecule, donor type, donor heavy atom, donor atom, acceptor molecule, acceptor atom, score
      L1  H    10    35       P1  7948  0.48
      P1  H  6896  6908       L1     2  0.33

> <Gold.Chemscore.Hbond.Weighted>
-4.9994

> <Gold.Chemscore.Metal.Weighted>
-0.0000

> <Gold.Chemscore.Lipo.Weighted>
-8.2521

> <Gold.Chemscore.Internal_Hbond.Weighted>
0.0000

> <Gold.Chemscore.DEClash.Weighted>
0.0111

> <Gold.Chemscore.DEInternal.Weighted>
1.6154

> <Gold.Chemscore.Rot.Weighted>
3.8183

> <Gold.Chemscore.Internal.Correction.Weighted>
   9.000000E+99

> <Gold.Protein.RotatedTorsions>
[ 6907 6896 6895 6894 ] final  -97.60 input  -60.11 | X-H torsion
[ 7974 7965 7964 7962 ] final   77.75 input  175.53 | X-H torsion
[ 8008 7997 7996 7995 ] final  -73.70 input   59.86 | X-H torsion
[ 10167 10162 10161 10158 ] final   39.63 input  -65.29 | X-H torsion
[ 10718 10713 10712 10709 ] final   31.33 input   66.30 | X-H torsion
[ 10763 10752 10751 10750 ] final   72.30 input  -60.55 | X-H torsion
[ 11005 11000 10999 10996 ] final   57.43 input  -57.11 | X-H torsion

> <Gold.Protein.ActiveResidues>
 VAL166  LYS551  ARG553  GLY616  TRP617  ASP618  TYR619  PRO620  LYS621  CYS622 
 ASP623  PHE694  ASN695  SER759  ASP760  ASP761  ALA762  ILE779  LEU786  VAL792 
 PHE793  MET794  SER795  GLU796  ALA797  LYS798  CYS799  TRP800  GLU811  SER814 

> <Gold.Protein.RotatedAtoms>
  150.7021  134.1324  159.4074 H   0  0  0  0  0  0  0  0  0  0  0  0  # atno 6907 bound_to 6896
  151.9310  135.0254  160.0538 H   0  0  0  0  0  0  0  0  0  0  0  0  # atno 6908 bound_to 6896
  152.2176  133.4923  159.5181 H   0  0  0  0  0  0  0  0  0  0  0  0  # atno 6909 bound_to 6896
  145.6861  139.2538  143.1786 H   0  0  0  0  0  0  0  0  0  0  0  0  # atno 7974 bound_to 7965
  154.5269  140.0774  156.8275 H   0  0  0  0  0  0  0  0  0  0  0  0  # atno 8008 bound_to 7997
  155.3456  140.3410  155.4221 H   0  0  0  0  0  0  0  0  0  0  0  0  # atno 8009 bound_to 7997
  156.1741  140.1629  156.8381 H   0  0  0  0  0  0  0  0  0  0  0  0  # atno 8010 bound_to 7997
  140.3821  144.1965  150.6130 H   0  0  0  0  0  0  0  0  0  0  0  0  # atno 10167 bound_to 10162
  157.2711  130.7208  149.6505 H   0  0  0  0  0  0  0  0  0  0  0  0  # atno 10718 bound_to 10713
  153.0451  135.5105  154.7723 H   0  0  0  0  0  0  0  0  0  0  0  0  # atno 10763 bound_to 10752
  154.6630  135.2941  154.9844 H   0  0  0  0  0  0  0  0  0  0  0  0  # atno 10764 bound_to 10752
  154.0688  135.6680  153.4874 H   0  0  0  0  0  0  0  0  0  0  0  0  # atno 10765 bound_to 10752
  140.0453  134.5814  155.9330 H   0  0  0  0  0  0  0  0  0  0  0  0  # atno 11005 bound_to 11000
  146.0922  140.7642  142.9589 LP  0  0  0  0  0  0  0  0  0  0  0  0  # atno 17320 bound_to 7965
  144.7011  140.3656  143.7155 LP  0  0  0  0  0  0  0  0  0  0  0  0  # atno 17321 bound_to 7965
  140.4927  143.2342  151.8795 LP  0  0  0  0  0  0  0  0  0  0  0  0  # atno 17342 bound_to 10162
  139.4794  144.5148  151.8883 LP  0  0  0  0  0  0  0  0  0  0  0  0  # atno 17343 bound_to 10162
  155.9663  130.4367  150.5145 LP  0  0  0  0  0  0  0  0  0  0  0  0  # atno 17370 bound_to 10713
  157.3070  131.0656  151.2028 LP  0  0  0  0  0  0  0  0  0  0  0  0  # atno 17371 bound_to 10713
  141.1904  133.6568  156.5409 LP  0  0  0  0  0  0  0  0  0  0  0  0  # atno 17394 bound_to 11000
  140.4003  134.7362  157.4776 LP  0  0  0  0  0  0  0  0  0  0  0  0  # atno 17395 bound_to 11000

$$$$
