AV-unprocessed.smi:910|AV-procd|sdf|4123|dock2
  -GOLD-   22720 2 23D 1   1.00000     0.00000
 Structure written by MMmdl.
 46 47  0  0  0  0  0  0  0  0  1 V2000
  148.6455  131.7858  153.3645 C   0  0  0  0  0  0  0  0  0  0  0  0
  149.3719  132.7677  154.2576 C   0  0  0  0  0  0  0  0  0  0  0  0
  149.3446  134.1160  154.0259 N   0  0  0  0  0  0  0  0  0  0  0  0
  150.1038  134.7397  155.0039 C   0  0  0  0  0  0  0  0  0  0  0  0
  150.3305  136.0095  155.1404 N   0  0  0  0  0  0  0  0  0  0  0  0
  151.1337  136.4524  156.1810 C   0  0  0  0  0  0  0  0  0  0  0  0
  152.1141  135.8958  156.6857 O   0  0  0  0  0  0  0  0  0  0  0  0
  150.6890  137.6341  156.6334 N   0  0  0  0  0  0  0  0  0  0  0  0
  151.2567  138.3852  157.7487 C   0  0  0  0  0  0  0  0  0  0  0  0
  151.1205  139.9000  157.5372 C   0  0  0  0  0  0  0  0  0  0  0  0
  151.5331  140.5638  158.7228 O   0  0  0  0  0  0  0  0  0  0  0  0
  152.2150  141.7927  158.5080 C   0  0  1  0  0  0  0  0  0  0  0  0
  151.3272  142.7408  157.6750 C   0  0  0  0  0  0  0  0  0  0  0  0
  151.9617  144.1327  157.5381 C   0  0  0  0  0  0  0  0  0  0  0  0
  152.2671  144.7372  158.9156 C   0  0  0  0  0  0  0  0  0  0  0  0
  153.1603  143.8003  159.7431 C   0  0  0  0  0  0  0  0  0  0  0  0
  152.5357  142.3984  159.8930 C   0  0  2  0  0  0  0  0  0  0  0  0
  153.4542  141.4792  160.7159 C   0  0  0  0  0  0  0  0  0  0  0  0
  150.5776  133.7404  155.8229 O   0  0  0  0  0  0  0  0  0  0  0  0
  150.1152  132.5540  155.3407 C   0  0  0  0  0  0  0  0  0  0  0  0
  150.5000  131.2804  156.0592 C   0  0  0  0  0  0  0  0  0  0  0  0
  149.3520  131.0787  152.9292 H   0  0  0  0  0  0  0  0  0  0  0  0
  148.1300  132.3007  152.5533 H   0  0  0  0  0  0  0  0  0  0  0  0
  147.9084  131.2263  153.9407 H   0  0  0  0  0  0  0  0  0  0  0  0
  148.8461  134.5399  153.2571 H   0  0  0  0  0  0  0  0  0  0  0  0
  149.8780  138.0346  156.1844 H   0  0  0  0  0  0  0  0  0  0  0  0
  150.7746  138.0886  158.6815 H   0  0  0  0  0  0  0  0  0  0  0  0
  152.3091  138.1172  157.8445 H   0  0  0  0  0  0  0  0  0  0  0  0
  151.7269  140.2173  156.6875 H   0  0  0  0  0  0  0  0  0  0  0  0
  150.0843  140.1469  157.3069 H   0  0  0  0  0  0  0  0  0  0  0  0
  153.1569  141.6181  157.9841 H   0  0  0  0  0  0  0  0  0  0  0  0
  151.1523  142.3272  156.6823 H   0  0  0  0  0  0  0  0  0  0  0  0
  150.3483  142.8336  158.1472 H   0  0  0  0  0  0  0  0  0  0  0  0
  152.8819  144.0597  156.9568 H   0  0  0  0  0  0  0  0  0  0  0  0
  151.2952  144.7926  156.9819 H   0  0  0  0  0  0  0  0  0  0  0  0
  152.7529  145.7061  158.7972 H   0  0  0  0  0  0  0  0  0  0  0  0
  151.3345  144.9215  159.4502 H   0  0  0  0  0  0  0  0  0  0  0  0
  154.1383  143.7191  159.2662 H   0  0  0  0  0  0  0  0  0  0  0  0
  153.3336  144.2383  160.7267 H   0  0  0  0  0  0  0  0  0  0  0  0
  151.5983  142.5072  160.4408 H   0  0  0  0  0  0  0  0  0  0  0  0
  154.4077  141.3172  160.2124 H   0  0  0  0  0  0  0  0  0  0  0  0
  152.9971  140.5031  160.8807 H   0  0  0  0  0  0  0  0  0  0  0  0
  153.6642  141.9097  161.6953 H   0  0  0  0  0  0  0  0  0  0  0  0
  149.8452  130.4585  155.7687 H   0  0  0  0  0  0  0  0  0  0  0  0
  150.4236  131.4177  157.1379 H   0  0  0  0  0  0  0  0  0  0  0  0
  151.5270  131.0080  155.8164 H   0  0  0  0  0  0  0  0  0  0  0  0
  1 22  1  0  0  0  0
  1 23  1  0  0  0  0
  1 24  1  0  0  0  0
  1  2  1  0  0  0  0
  2  3  1  0  0  0  0
  2 20  2  0  0  0  0
  3 25  1  0  0  0  0
  3  4  1  0  0  0  0
  4 19  1  0  0  0  0
  4  5  2  0  0  0  0
  5  6  1  0  0  0  0
  6  8  1  0  0  0  0
  6  7  2  0  0  0  0
  8  9  1  0  0  0  0
  8 26  1  0  0  0  0
  9 10  1  0  0  0  0
  9 27  1  0  0  0  0
  9 28  1  0  0  0  0
 10 11  1  0  0  0  0
 10 29  1  0  0  0  0
 10 30  1  0  0  0  0
 11 12  1  0  0  0  0
 12 17  1  0  0  0  0
 12 13  1  0  0  0  0
 12 31  1  0  0  0  0
 13 14  1  0  0  0  0
 13 32  1  0  0  0  0
 13 33  1  0  0  0  0
 14 15  1  0  0  0  0
 14 34  1  0  0  0  0
 14 35  1  0  0  0  0
 15 16  1  0  0  0  0
 15 36  1  0  0  0  0
 15 37  1  0  0  0  0
 16 17  1  0  0  0  0
 16 38  1  0  0  0  0
 16 39  1  0  0  0  0
 17 18  1  0  0  0  0
 17 40  1  0  0  0  0
 18 41  1  0  0  0  0
 18 42  1  0  0  0  0
 18 43  1  0  0  0  0
 19 20  1  0  0  0  0
 20 21  1  0  0  0  0
 21 44  1  0  0  0  0
 21 45  1  0  0  0  0
 21 46  1  0  0  0  0
M  END
> <s_m_source_file>
AV-unprocessed.smi

> <i_m_source_file_index>
910

> <i_lp_mmshare_version>
43012

> <i_f3d_flags>
0

> <s_epik_input>
W0NIM11jMW5jKG9jMVtDSDNdKVtOSF1DKD1PKVtOSF1bQ0gyXVtDSDJdT1tDQEBIXTJbQ0gyXVtDSDJdW0NIMl1bQ0gyXVtDQEhdMltDSDNd

> <s_epik_cmdline>
J2VwaWtfcHl0aG9uJywgJy1waCcsICc3LjAnLCAnLXRuJywgJzgnLCAnLW1hJywgJzIwMCcsICctbWV0YWxfYmluZGluZycsICctaW1hZScsICc8aW5maWxlLm1hZT4nLCAnLW9tYWUnLCAnPG91dGZpbGUubWFlPic=

> <r_lp_tautomer_probability>
0.107061

> <r_epik_Ionization_Penalty>
0.727192

> <r_epik_Ionization_Penalty_Charging>
0.726719

> <r_epik_Ionization_Penalty_Neutral>
0.000473387

> <r_epik_State_Penalty>
2.53712

> <r_epik_Charging_Adjusted_Penalty>
3.26383

> <i_epik_Tot_Q>
0

> <i_epik_Tot_abs_Q>
0

> <r_epik_Metal_State_Penalty>
3.71015

> <b_epik_Metal_Only>
0

> <s_lp_Force_Field>
OPLS_2005

> <r_lp_Energy>
30.8064

> <b_lp_Chiralities_Consistent>
1

> <s_lp_Variant>
AV-unprocessed.smi:910-8

> <Gold.Version>
5.8.1

> <Gold.Id.Protein>
6NUR|6NUR_protein|mol2

> <Gold.PLP.Fitness>
45.3852

> <Gold.PLP.PLP>
-41.5501

> <Gold.PLP.part.hbond>
-2.0000

> <Gold.PLP.part.metal>
0.0000

> <Gold.PLP.part.buried>
-4.0103

> <Gold.PLP.part.nonpolar>
-35.4501

> <Gold.PLP.part.repulsive>
0.2096

> <Gold.PLP.ligand.clash>
0.0000

> <Gold.PLP.ligand.torsion>
0.6863

> <Gold.PLP.Chemscore.Hbond>
1.7040

> <Gold.PLP.Chemscore.CHOScore>
0.0000

> <Gold.PLP.Chemscore.Metal>
0.0000

> <Gold.Chemscore.Hbonds>
donor molecule, donor type, donor heavy atom, donor atom, acceptor molecule, acceptor atom, score
      L1  H     3    25       P1  7948  0.49
      P1  H 10752 10764       L1     7  1.00

> <Gold.PLP.Chemscore.Internal.Correction>
0.0957

> <Gold.Rescore>
     Score         DG    S(hbond)    S(metal)    S(lipo)     H(rot)  DE(clash)    DE(int)     intcor
     16.66     -18.86       1.42        0.00     110.25       1.66       0.11       2.09       ----

> <Gold.Chemscore.Fitness>
16.6640

> <Gold.Chemscore.DG>
-18.8627

> <Gold.Chemscore.ZeroCoef>
-5.4800

> <Gold.Chemscore.Hbond>
1.4152

> <Gold.Chemscore.Metal>
0.0000

> <Gold.Chemscore.Lipo>
110.2535

> <Gold.Chemscore.Internal_Hbond>
0.0000

> <Gold.Chemscore.DEClash>
0.1114

> <Gold.Chemscore.DEInternal>
2.0873

> <Gold.Chemscore.Rot>
1.6576

> <Gold.Chemscore.Internal.Correction>
   9.000000E+99

> <Gold.Chemscore.Hbonds>
donor molecule, donor type, donor heavy atom, donor atom, acceptor molecule, acceptor atom, score
      L1  H     3    25       P1  7948  0.08
      P1  H 10752 10764       L1     7  0.44

> <Gold.Chemscore.Hbond.Weighted>
-4.7266

> <Gold.Chemscore.Metal.Weighted>
-0.0000

> <Gold.Chemscore.Lipo.Weighted>
-12.8997

> <Gold.Chemscore.Internal_Hbond.Weighted>
0.0000

> <Gold.Chemscore.DEClash.Weighted>
0.1114

> <Gold.Chemscore.DEInternal.Weighted>
2.0873

> <Gold.Chemscore.Rot.Weighted>
4.2436

> <Gold.Chemscore.Internal.Correction.Weighted>
   9.000000E+99

> <Gold.Protein.RotatedTorsions>
[ 6907 6896 6895 6894 ] final -153.58 input  -60.11 | X-H torsion
[ 7974 7965 7964 7962 ] final  -79.43 input  175.53 | X-H torsion
[ 8008 7997 7996 7995 ] final    2.84 input   59.86 | X-H torsion
[ 10167 10162 10161 10158 ] final -135.30 input  -65.29 | X-H torsion
[ 10718 10713 10712 10709 ] final  -76.90 input   66.30 | X-H torsion
[ 10763 10752 10751 10750 ] final  -21.05 input  -60.55 | X-H torsion
[ 11005 11000 10999 10996 ] final   83.70 input  -57.11 | X-H torsion

> <Gold.Protein.ActiveResidues>
 VAL166  LYS551  ARG553  GLY616  TRP617  ASP618  TYR619  PRO620  LYS621  CYS622 
 ASP623  PHE694  ASN695  SER759  ASP760  ASP761  ALA762  ILE779  LEU786  VAL792 
 PHE793  MET794  SER795  GLU796  ALA797  LYS798  CYS799  TRP800  GLU811  SER814 

> <Gold.Protein.RotatedAtoms>
  151.2446  133.4381  159.2608 H   0  0  0  0  0  0  0  0  0  0  0  0  # atno 6907 bound_to 6896
  151.0673  134.9776  159.8301 H   0  0  0  0  0  0  0  0  0  0  0  0  # atno 6908 bound_to 6896
  152.5407  134.2393  159.8908 H   0  0  0  0  0  0  0  0  0  0  0  0  # atno 6909 bound_to 6896
  145.5734  140.9462  143.1383 H   0  0  0  0  0  0  0  0  0  0  0  0  # atno 7974 bound_to 7965
  154.6965  140.2664  155.6761 H   0  0  0  0  0  0  0  0  0  0  0  0  # atno 8008 bound_to 7997
  156.2750  140.2781  156.1484 H   0  0  0  0  0  0  0  0  0  0  0  0  # atno 8009 bound_to 7997
  155.0824  140.0372  157.2633 H   0  0  0  0  0  0  0  0  0  0  0  0  # atno 8010 bound_to 7997
  139.8793  143.6859  152.2629 H   0  0  0  0  0  0  0  0  0  0  0  0  # atno 10167 bound_to 10162
  156.0161  130.4477  150.3264 H   0  0  0  0  0  0  0  0  0  0  0  0  # atno 10718 bound_to 10713
  153.6300  135.6989  153.5279 H   0  0  0  0  0  0  0  0  0  0  0  0  # atno 10763 bound_to 10752
  153.2867  135.4169  155.1129 H   0  0  0  0  0  0  0  0  0  0  0  0  # atno 10764 bound_to 10752
  154.8524  135.3615  154.5842 H   0  0  0  0  0  0  0  0  0  0  0  0  # atno 10765 bound_to 10752
  139.9023  134.8164  156.2345 H   0  0  0  0  0  0  0  0  0  0  0  0  # atno 11005 bound_to 11000
  144.7427  139.7404  143.7304 LP  0  0  0  0  0  0  0  0  0  0  0  0  # atno 17320 bound_to 7965
  146.1768  139.4942  142.9892 LP  0  0  0  0  0  0  0  0  0  0  0  0  # atno 17321 bound_to 7965
  139.7211  144.7602  151.0954 LP  0  0  0  0  0  0  0  0  0  0  0  0  # atno 17342 bound_to 10162
  140.7747  143.5207  150.9540 LP  0  0  0  0  0  0  0  0  0  0  0  0  # atno 17343 bound_to 10162
  157.1363  131.0285  151.2947 LP  0  0  0  0  0  0  0  0  0  0  0  0  # atno 17370 bound_to 10713
  157.4509  130.7598  149.7150 LP  0  0  0  0  0  0  0  0  0  0  0  0  # atno 17371 bound_to 10713
  141.0324  133.6981  156.1453 LP  0  0  0  0  0  0  0  0  0  0  0  0  # atno 17394 bound_to 11000
  140.7077  134.4495  157.5583 LP  0  0  0  0  0  0  0  0  0  0  0  0  # atno 17395 bound_to 11000

$$$$
