AV-unprocessed.smi:2917|AV-procd|sdf|11190|dock2
  -GOLD-   2272016 83D 1   1.00000     0.00000
 Structure written by MMmdl.
 34 35  0  0  0  0  0  0  0  0  1 V2000
  144.0345  136.2433  152.0737 C   0  0  0  0  0  0  0  0  0  0  0  0
  145.2715  135.4322  152.5163 C   0  0  0  0  0  0  0  0  0  0  0  0
  146.4262  136.3298  152.6771 N   0  0  0  0  0  0  0  0  0  0  0  0
  146.4832  137.5157  153.3063 C   0  0  0  0  0  0  0  0  0  0  0  0
  145.5229  138.0484  153.8611 O   0  0  0  0  0  0  0  0  0  0  0  0
  147.7183  138.0397  153.2287 N   0  0  0  0  0  0  0  0  0  0  0  0
  148.1911  139.2712  153.7577 C   0  0  0  0  0  0  0  0  0  0  0  0
  147.3822  140.4167  153.9544 C   0  0  0  0  0  0  0  0  0  0  0  0
  147.9654  141.5740  154.5053 C   0  0  0  0  0  0  0  0  0  0  0  0
  149.3315  141.5424  154.8458 C   0  0  0  0  0  0  0  0  0  0  0  0
  150.1109  140.4535  154.6772 N   0  0  0  0  0  0  0  0  0  0  0  0
  149.5446  139.3472  154.1496 C   0  0  0  0  0  0  0  0  0  0  0  0
  144.9732  134.6395  153.8127 C   0  0  0  0  0  0  0  0  0  0  0  0
  146.1015  133.6502  154.1565 C   0  0  0  0  0  0  0  0  0  0  0  0
  146.3086  132.7559  153.0695 O   0  0  0  0  0  0  0  0  0  0  0  0
  146.7157  133.4180  151.8780 C   0  0  0  0  0  0  0  0  0  0  0  0
  145.6223  134.4020  151.4205 C   0  0  0  0  0  0  0  0  0  0  0  0
  143.1909  135.5885  151.8530 H   0  0  0  0  0  0  0  0  0  0  0  0
  144.2415  136.8233  151.1736 H   0  0  0  0  0  0  0  0  0  0  0  0
  143.7026  136.9378  152.8452 H   0  0  0  0  0  0  0  0  0  0  0  0
  147.2835  136.0043  152.2554 H   0  0  0  0  0  0  0  0  0  0  0  0
  148.3841  137.5252  152.6709 H   0  0  0  0  0  0  0  0  0  0  0  0
  146.3317  140.4275  153.7095 H   0  0  0  0  0  0  0  0  0  0  0  0
  147.3768  142.4645  154.6678 H   0  0  0  0  0  0  0  0  0  0  0  0
  149.8090  142.4129  155.2709 H   0  0  0  0  0  0  0  0  0  0  0  0
  150.1976  138.4945  154.0318 H   0  0  0  0  0  0  0  0  0  0  0  0
  144.7926  135.3052  154.6562 H   0  0  0  0  0  0  0  0  0  0  0  0
  144.0496  134.0735  153.6832 H   0  0  0  0  0  0  0  0  0  0  0  0
  147.0282  134.1744  154.3949 H   0  0  0  0  0  0  0  0  0  0  0  0
  145.8316  133.0703  155.0392 H   0  0  0  0  0  0  0  0  0  0  0  0
  147.6660  133.9291  152.0400 H   0  0  0  0  0  0  0  0  0  0  0  0
  146.8902  132.6697  151.1049 H   0  0  0  0  0  0  0  0  0  0  0  0
  144.7320  133.8278  151.1592 H   0  0  0  0  0  0  0  0  0  0  0  0
  145.9357  134.9074  150.5058 H   0  0  0  0  0  0  0  0  0  0  0  0
  1  2  1  0  0  0  0
  1 18  1  0  0  0  0
  1 19  1  0  0  0  0
  1 20  1  0  0  0  0
  2 17  1  0  0  0  0
  2  3  1  0  0  0  0
  2 13  1  0  0  0  0
  3  4  1  0  0  0  0
  3 21  1  0  0  0  0
  4  5  2  0  0  0  0
  4  6  1  0  0  0  0
  6  7  1  0  0  0  0
  6 22  1  0  0  0  0
  7 12  1  0  0  0  0
  7  8  2  0  0  0  0
  8  9  1  0  0  0  0
  8 23  1  0  0  0  0
  9 10  2  0  0  0  0
  9 24  1  0  0  0  0
 10 11  1  0  0  0  0
 10 25  1  0  0  0  0
 11 12  2  0  0  0  0
 12 26  1  0  0  0  0
 13 14  1  0  0  0  0
 13 27  1  0  0  0  0
 13 28  1  0  0  0  0
 14 15  1  0  0  0  0
 14 29  1  0  0  0  0
 14 30  1  0  0  0  0
 15 16  1  0  0  0  0
 16 17  1  0  0  0  0
 16 31  1  0  0  0  0
 16 32  1  0  0  0  0
 17 33  1  0  0  0  0
 17 34  1  0  0  0  0
M  END
> <s_m_source_file>
AV-unprocessed.smi

> <i_m_source_file_index>
2917

> <i_lp_mmshare_version>
43012

> <i_f3d_flags>
0

> <s_epik_input>
W0NIMl0xW0NIMl1PW0NIMl1bQ0gyXUMxKFtDSDNdKVtOSF1DKD1PKVtOSF1jMltjSF1bY0hdW2NIXW5bY0hdMg==

> <s_epik_cmdline>
J2VwaWtfcHl0aG9uJywgJy1waCcsICc3LjAnLCAnLXRuJywgJzgnLCAnLW1hJywgJzIwMCcsICctbWV0YWxfYmluZGluZycsICctaW1hZScsICc8aW5maWxlLm1hZT4nLCAnLW9tYWUnLCAnPG91dGZpbGUubWFlPic=

> <r_epik_Ionization_Penalty>
0.00491607

> <r_epik_Ionization_Penalty_Charging>
0

> <r_epik_Ionization_Penalty_Neutral>
0.00491607

> <r_epik_State_Penalty>
0.00354213

> <r_epik_Charging_Adjusted_Penalty>
0.00354213

> <i_epik_Tot_Q>
0

> <i_epik_Tot_abs_Q>
0

> <r_epik_Metal_State_Penalty>
-0

> <b_epik_Metal_Only>
0

> <s_lp_Force_Field>
OPLS_2005

> <r_lp_Energy>
13.2781

> <b_lp_Chiralities_Consistent>
1

> <s_lp_Variant>
AV-unprocessed.smi:2917-1

> <Gold.Version>
5.8.1

> <Gold.Id.Protein>
6NUR|6NUR_protein|mol2

> <Gold.PLP.Fitness>
34.2406

> <Gold.PLP.PLP>
-23.3417

> <Gold.PLP.part.hbond>
-3.0000

> <Gold.PLP.part.metal>
0.0000

> <Gold.PLP.part.buried>
-1.1511

> <Gold.PLP.part.nonpolar>
-19.6457

> <Gold.PLP.part.repulsive>
0.4282

> <Gold.PLP.ligand.clash>
0.0000

> <Gold.PLP.ligand.torsion>
0.4684

> <Gold.PLP.Chemscore.Hbond>
2.9440

> <Gold.PLP.Chemscore.CHOScore>
0.9990

> <Gold.PLP.Chemscore.Metal>
0.0000

> <Gold.Chemscore.Hbonds>
donor molecule, donor type, donor heavy atom, donor atom, acceptor molecule, acceptor atom, score
      L1  H     3    21       P1  7948  1.00
      L1  H     6    22       P1  7948  1.00
      P1  H  7989  7998       L1    11  0.94
      L1  C    10    25       P1  8028  0.99

> <Gold.PLP.Chemscore.Internal.Correction>
0.0068

> <Gold.Rescore>
     Score         DG    S(hbond)    S(metal)    S(lipo)     H(rot)  DE(clash)    DE(int)     intcor
     14.70     -17.25       2.35        0.00      55.30       1.00       0.19       2.36       ----

> <Gold.Chemscore.Fitness>
14.7010

> <Gold.Chemscore.DG>
-17.2550

> <Gold.Chemscore.ZeroCoef>
-5.4800

> <Gold.Chemscore.Hbond>
2.3547

> <Gold.Chemscore.Metal>
0.0000

> <Gold.Chemscore.Lipo>
55.3012

> <Gold.Chemscore.Internal_Hbond>
0.0000

> <Gold.Chemscore.DEClash>
0.1923

> <Gold.Chemscore.DEInternal>
2.3616

> <Gold.Chemscore.Rot>
1.0000

> <Gold.Chemscore.Internal.Correction>
   9.000000E+99

> <Gold.Chemscore.Hbonds>
donor molecule, donor type, donor heavy atom, donor atom, acceptor molecule, acceptor atom, score
      L1  H     3    21       P1  7948  0.96
      L1  H     6    22       P1  7948  0.98
      P1  H  7989  7998       L1    11  0.33

> <Gold.Chemscore.Hbond.Weighted>
-7.8647

> <Gold.Chemscore.Metal.Weighted>
-0.0000

> <Gold.Chemscore.Lipo.Weighted>
-6.4702

> <Gold.Chemscore.Internal_Hbond.Weighted>
0.0000

> <Gold.Chemscore.DEClash.Weighted>
0.1923

> <Gold.Chemscore.DEInternal.Weighted>
2.3616

> <Gold.Chemscore.Rot.Weighted>
2.5600

> <Gold.Chemscore.Internal.Correction.Weighted>
   9.000000E+99

> <Gold.Protein.RotatedTorsions>
[ 6907 6896 6895 6894 ] final -170.17 input  -60.11 | X-H torsion
[ 7974 7965 7964 7962 ] final  -52.28 input  175.53 | X-H torsion
[ 8008 7997 7996 7995 ] final  106.68 input   59.86 | X-H torsion
[ 10167 10162 10161 10158 ] final   85.34 input  -65.29 | X-H torsion
[ 10718 10713 10712 10709 ] final  111.68 input   66.30 | X-H torsion
[ 10763 10752 10751 10750 ] final   97.39 input  -60.55 | X-H torsion
[ 11005 11000 10999 10996 ] final  -48.57 input  -57.11 | X-H torsion

> <Gold.Protein.ActiveResidues>
 VAL166  LYS551  ARG553  GLY616  TRP617  ASP618  TYR619  PRO620  LYS621  CYS622 
 ASP623  PHE694  ASN695  SER759  ASP760  ASP761  ALA762  ILE779  LEU786  VAL792 
 PHE793  MET794  SER795  GLU796  ALA797  LYS798  CYS799  TRP800  GLU811  SER814 

> <Gold.Protein.RotatedAtoms>
  151.5034  133.3499  159.2872 H   0  0  0  0  0  0  0  0  0  0  0  0  # atno 6907 bound_to 6896
  150.8758  134.8143  159.7200 H   0  0  0  0  0  0  0  0  0  0  0  0  # atno 6908 bound_to 6896
  152.4730  134.4924  159.9751 H   0  0  0  0  0  0  0  0  0  0  0  0  # atno 6909 bound_to 6896
  145.9097  140.7926  142.9702 H   0  0  0  0  0  0  0  0  0  0  0  0  # atno 7974 bound_to 7965
  156.1763  140.3108  155.9065 H   0  0  0  0  0  0  0  0  0  0  0  0  # atno 8008 bound_to 7997
  155.3481  140.0469  157.3063 H   0  0  0  0  0  0  0  0  0  0  0  0  # atno 8009 bound_to 7997
  154.5294  140.2225  155.8842 H   0  0  0  0  0  0  0  0  0  0  0  0  # atno 8010 bound_to 7997
  139.8988  144.6342  150.8659 H   0  0  0  0  0  0  0  0  0  0  0  0  # atno 10167 bound_to 10162
  157.6432  131.0955  150.6784 H   0  0  0  0  0  0  0  0  0  0  0  0  # atno 10718 bound_to 10713
  153.2763  135.4185  155.1036 H   0  0  0  0  0  0  0  0  0  0  0  0  # atno 10763 bound_to 10752
  154.8474  135.3484  154.6173 H   0  0  0  0  0  0  0  0  0  0  0  0  # atno 10764 bound_to 10752
  153.6594  135.7049  153.5240 H   0  0  0  0  0  0  0  0  0  0  0  0  # atno 10765 bound_to 10752
  141.0708  133.6679  156.3460 H   0  0  0  0  0  0  0  0  0  0  0  0  # atno 11005 bound_to 11000
  144.6742  140.1805  143.7406 LP  0  0  0  0  0  0  0  0  0  0  0  0  # atno 17320 bound_to 7965
  145.8688  139.2261  143.1673 LP  0  0  0  0  0  0  0  0  0  0  0  0  # atno 17321 bound_to 7965
  140.7711  143.3453  151.2124 LP  0  0  0  0  0  0  0  0  0  0  0  0  # atno 17342 bound_to 10162
  139.7044  143.9480  152.2920 LP  0  0  0  0  0  0  0  0  0  0  0  0  # atno 17343 bound_to 10162
  156.7105  130.4650  149.5548 LP  0  0  0  0  0  0  0  0  0  0  0  0  # atno 17370 bound_to 10713
  156.1733  130.6451  151.0864 LP  0  0  0  0  0  0  0  0  0  0  0  0  # atno 17371 bound_to 10713
  140.5677  134.5871  157.5450 LP  0  0  0  0  0  0  0  0  0  0  0  0  # atno 17394 bound_to 11000
  139.9522  134.7597  156.0423 LP  0  0  0  0  0  0  0  0  0  0  0  0  # atno 17395 bound_to 11000

$$$$
