AV-unprocessed.smi:1120|AV-procd|sdf|4823|dock1
  -GOLD-   22720 3383D 1   1.00000     0.00000
 Structure written by MMmdl.
 47 48  0  0  0  0  0  0  0  0  2 V2000
  152.1686  144.9315  158.9357 C   0  0  0  0  0  0  0  0  0  0  0  0
  151.5710  143.5180  158.9433 C   0  0  2  0  0  0  0  0  0  0  0  0
  152.5964  142.4618  159.4152 C   0  0  0  0  0  0  0  0  0  0  0  0
  152.0338  141.0166  159.3891 C   0  0  0  0  0  0  0  0  0  0  0  0
  151.4534  140.5841  158.0198 C   0  0  2  0  0  0  0  0  0  0  0  0
  152.5345  140.3923  157.0618 N   0  5  0  0  0  0  0  0  0  0  0  0
  152.2616  139.5989  155.6729 S   0  0  0  0  0  0  0  0  0  0  0  0
  151.0134  140.0352  155.0266 O   0  0  0  0  0  0  0  0  0  0  0  0
  153.4576  139.5085  154.8183 O   0  0  0  0  0  0  0  0  0  0  0  0
  151.9203  137.8940  156.3075 C   0  0  0  0  0  0  0  0  0  0  0  0
  151.4506  136.9628  155.1883 C   0  0  0  0  0  0  0  0  0  0  0  0
  151.8649  137.1220  154.0400 O   0  0  0  0  0  0  0  0  0  0  0  0
  150.6047  135.9813  155.5382 N   0  0  0  0  0  0  0  0  0  0  0  0
  150.0516  134.9853  154.6292 C   0  0  0  0  0  0  0  0  0  0  0  0
  150.6490  133.5921  154.8874 C   0  0  0  0  0  0  0  0  0  0  0  0
  149.8668  132.4934  154.1932 C   0  0  0  0  0  0  0  0  0  0  0  0
  148.7910  132.8068  153.3353 C   0  0  0  0  0  0  0  0  0  0  0  0
  148.0941  131.7492  152.7192 C   0  0  0  0  0  0  0  0  0  0  0  0
  148.4959  130.4262  152.9853 C   0  0  0  0  0  0  0  0  0  0  0  0
  149.5815  130.2186  153.8592 C   0  0  0  0  0  0  0  0  0  0  0  0
  150.2572  131.2251  154.4540 N   0  0  0  0  0  0  0  0  0  0  0  0
  150.4644  141.6700  157.5226 C   0  0  0  0  0  0  0  0  0  0  0  0
  151.0353  143.1114  157.5517 C   0  0  0  0  0  0  0  0  0  0  0  0
  153.0140  145.0003  158.2506 H   0  0  0  0  0  0  0  0  0  0  0  0
  152.5208  145.2135  159.9282 H   0  0  0  0  0  0  0  0  0  0  0  0
  151.4277  145.6689  158.6264 H   0  0  0  0  0  0  0  0  0  0  0  0
  150.7339  143.5132  159.6430 H   0  0  0  0  0  0  0  0  0  0  0  0
  153.4959  142.5229  158.7988 H   0  0  0  0  0  0  0  0  0  0  0  0
  152.9192  142.6983  160.4296 H   0  0  0  0  0  0  0  0  0  0  0  0
  152.8046  140.3140  159.7088 H   0  0  0  0  0  0  0  0  0  0  0  0
  151.2428  140.9449  160.1365 H   0  0  0  0  0  0  0  0  0  0  0  0
  150.9015  139.6556  158.1704 H   0  0  0  0  0  0  0  0  0  0  0  0
  152.8203  137.5096  156.7877 H   0  0  0  0  0  0  0  0  0  0  0  0
  151.1453  137.9681  157.0703 H   0  0  0  0  0  0  0  0  0  0  0  0
  150.3073  135.9340  156.5020 H   0  0  0  0  0  0  0  0  0  0  0  0
  148.9717  134.9620  154.7763 H   0  0  0  0  0  0  0  0  0  0  0  0
  150.2180  135.2878  153.5940 H   0  0  0  0  0  0  0  0  0  0  0  0
  151.6858  133.5583  154.5499 H   0  0  0  0  0  0  0  0  0  0  0  0
  150.6702  133.3875  155.9588 H   0  0  0  0  0  0  0  0  0  0  0  0
  148.5043  133.8324  153.1543 H   0  0  0  0  0  0  0  0  0  0  0  0
  147.2662  131.9494  152.0551 H   0  0  0  0  0  0  0  0  0  0  0  0
  147.9845  129.5904  152.5310 H   0  0  0  0  0  0  0  0  0  0  0  0
  149.9167  129.2173  154.0856 H   0  0  0  0  0  0  0  0  0  0  0  0
  150.1103  141.4351  156.5189 H   0  0  0  0  0  0  0  0  0  0  0  0
  149.5781  141.6422  158.1571 H   0  0  0  0  0  0  0  0  0  0  0  0
  150.2536  143.8078  157.2465 H   0  0  0  0  0  0  0  0  0  0  0  0
  151.8282  143.2137  156.8074 H   0  0  0  0  0  0  0  0  0  0  0  0
  1  2  1  0  0  0  0
  1 24  1  0  0  0  0
  1 25  1  0  0  0  0
  1 26  1  0  0  0  0
  2 23  1  0  0  0  0
  2  3  1  0  0  0  0
  2 27  1  0  0  0  0
  3  4  1  0  0  0  0
  3 28  1  0  0  0  0
  3 29  1  0  0  0  0
  4  5  1  0  0  0  0
  4 30  1  0  0  0  0
  4 31  1  0  0  0  0
  5  6  1  0  0  0  0
  5 22  1  0  0  0  0
  5 32  1  0  0  0  0
  6  7  1  0  0  0  0
  7  8  2  0  0  0  0
  7  9  2  0  0  0  0
  7 10  1  0  0  0  0
 10 11  1  0  0  0  0
 10 33  1  0  0  0  0
 10 34  1  0  0  0  0
 11 12  2  0  0  0  0
 11 13  1  0  0  0  0
 13 14  1  0  0  0  0
 13 35  1  0  0  0  0
 14 15  1  0  0  0  0
 14 36  1  0  0  0  0
 14 37  1  0  0  0  0
 15 16  1  0  0  0  0
 15 38  1  0  0  0  0
 15 39  1  0  0  0  0
 16 21  1  0  0  0  0
 16 17  2  0  0  0  0
 17 18  1  0  0  0  0
 17 40  1  0  0  0  0
 18 19  2  0  0  0  0
 18 41  1  0  0  0  0
 19 20  1  0  0  0  0
 19 42  1  0  0  0  0
 20 21  2  0  0  0  0
 20 43  1  0  0  0  0
 22 23  1  0  0  0  0
 22 44  1  0  0  0  0
 22 45  1  0  0  0  0
 23 46  1  0  0  0  0
 23 47  1  0  0  0  0
M  CHG  1   6  -1
M  END
> <s_m_source_file>
AV-unprocessed.smi

> <i_m_source_file_index>
1120

> <i_lp_mmshare_version>
43012

> <i_f3d_flags>
0

> <s_epik_input>
W0NIM11bQ0BASF0xW0NIMl1bQ0gyXVtDQEhdKFtDSDJdW0NIMl0xKVtOSF1TKD1PKSg9TylbQ0gyXUMoPU8pW05IXVtDSDJdW0NIMl1jMltjSF1bY0hdW2NIXVtjSF1uMg==

> <s_epik_cmdline>
J2VwaWtfcHl0aG9uJywgJy1waCcsICc3LjAnLCAnLXRuJywgJzgnLCAnLW1hJywgJzIwMCcsICctbWV0YWxfYmluZGluZycsICctaW1hZScsICc8aW5maWxlLm1hZT4nLCAnLW9tYWUnLCAnPG91dGZpbGUubWFlPic=

> <r_epik_Ionization_Penalty>
5.68623

> <r_epik_Ionization_Penalty_Charging>
5.66033

> <r_epik_Ionization_Penalty_Neutral>
0.0259005

> <r_epik_State_Penalty>
5.67764

> <r_epik_Charging_Adjusted_Penalty>
11.338

> <i_epik_Tot_Q>
-1

> <i_epik_Tot_abs_Q>
1

> <r_epik_Metal_State_Penalty>
1.68319

> <b_epik_Metal_Only>
1

> <s_lp_Force_Field>
OPLS_2005

> <r_lp_Energy>
10.049

> <b_lp_Chiralities_Consistent>
1

> <s_lp_Variant>
AV-unprocessed.smi:1120-6

> <Gold.Version>
5.8.1

> <Gold.Id.Protein>
6NUR|6NUR_protein|mol2

> <Gold.PLP.Fitness>
52.2228

> <Gold.PLP.PLP>
-44.3511

> <Gold.PLP.part.hbond>
-4.1138

> <Gold.PLP.part.metal>
0.0000

> <Gold.PLP.part.buried>
-3.2128

> <Gold.PLP.part.nonpolar>
-37.2070

> <Gold.PLP.part.repulsive>
1.6885

> <Gold.PLP.ligand.clash>
0.0000

> <Gold.PLP.ligand.torsion>
1.2519

> <Gold.PLP.Chemscore.Hbond>
3.0000

> <Gold.PLP.Chemscore.CHOScore>
0.0000

> <Gold.PLP.Chemscore.Metal>
0.0000

> <Gold.Chemscore.Hbonds>
donor molecule, donor type, donor heavy atom, donor atom, acceptor molecule, acceptor atom, score
      P1  H  7989  7998       L1     8  1.00
      P1  H  7997  8010       L1     9  1.00
      P1  H 10752 10764       L1    12  0.55

> <Gold.PLP.Chemscore.Internal.Correction>
1.3755

> <Gold.Rescore>
     Score         DG    S(hbond)    S(metal)    S(lipo)     H(rot)  DE(clash)    DE(int)     intcor
     19.40     -21.81       2.62        0.00     105.49       1.86       0.18       2.24       ----

> <Gold.Chemscore.Fitness>
19.3975

> <Gold.Chemscore.DG>
-21.8144

> <Gold.Chemscore.ZeroCoef>
-5.4800

> <Gold.Chemscore.Hbond>
2.6210

> <Gold.Chemscore.Metal>
0.0000

> <Gold.Chemscore.Lipo>
105.4918

> <Gold.Chemscore.Internal_Hbond>
0.0000

> <Gold.Chemscore.DEClash>
0.1803

> <Gold.Chemscore.DEInternal>
2.2366

> <Gold.Chemscore.Rot>
1.8602

> <Gold.Chemscore.Internal.Correction>
   9.000000E+99

> <Gold.Chemscore.Hbonds>
donor molecule, donor type, donor heavy atom, donor atom, acceptor molecule, acceptor atom, score
      P1  H  7989  7998       L1     8  0.35
      P1  H  7997  8010       L1     9  0.39
      P1  H 10752 10764       L1    12  0.03

> <Gold.Chemscore.Hbond.Weighted>
-8.7541

> <Gold.Chemscore.Metal.Weighted>
-0.0000

> <Gold.Chemscore.Lipo.Weighted>
-12.3425

> <Gold.Chemscore.Internal_Hbond.Weighted>
0.0000

> <Gold.Chemscore.DEClash.Weighted>
0.1803

> <Gold.Chemscore.DEInternal.Weighted>
2.2366

> <Gold.Chemscore.Rot.Weighted>
4.7622

> <Gold.Chemscore.Internal.Correction.Weighted>
   9.000000E+99

> <Gold.Protein.RotatedTorsions>
[ 6907 6896 6895 6894 ] final   95.62 input  -60.11 | X-H torsion
[ 7974 7965 7964 7962 ] final -133.74 input  175.53 | X-H torsion
[ 8008 7997 7996 7995 ] final  117.80 input   59.86 | X-H torsion
[ 10167 10162 10161 10158 ] final  -27.20 input  -65.29 | X-H torsion
[ 10718 10713 10712 10709 ] final   12.88 input   66.30 | X-H torsion
[ 10763 10752 10751 10750 ] final  -81.76 input  -60.55 | X-H torsion
[ 11005 11000 10999 10996 ] final  174.69 input  -57.11 | X-H torsion

> <Gold.Protein.ActiveResidues>
 VAL166  LYS551  ARG553  GLY616  TRP617  ASP618  TYR619  PRO620  LYS621  CYS622 
 ASP623  PHE694  ASN695  SER759  ASP760  ASP761  ALA762  ILE779  LEU786  VAL792 
 PHE793  MET794  SER795  GLU796  ALA797  LYS798  CYS799  TRP800  GLU811  SER814 

> <Gold.Protein.RotatedAtoms>
  152.5442  134.1012  159.8318 H   0  0  0  0  0  0  0  0  0  0  0  0  # atno 6907 bound_to 6896
  151.1089  133.5180  159.2614 H   0  0  0  0  0  0  0  0  0  0  0  0  # atno 6908 bound_to 6896
  151.1906  135.0410  159.8885 H   0  0  0  0  0  0  0  0  0  0  0  0  # atno 6909 bound_to 6896
  144.9166  140.6962  143.4991 H   0  0  0  0  0  0  0  0  0  0  0  0  # atno 7974 bound_to 7965
  156.2513  140.2888  156.0735 H   0  0  0  0  0  0  0  0  0  0  0  0  # atno 8008 bound_to 7997
  155.1645  140.0400  157.2867 H   0  0  0  0  0  0  0  0  0  0  0  0  # atno 8009 bound_to 7997
  154.6369  140.2513  155.7374 H   0  0  0  0  0  0  0  0  0  0  0  0  # atno 8010 bound_to 7997
  140.7278  143.4113  151.1101 H   0  0  0  0  0  0  0  0  0  0  0  0  # atno 10167 bound_to 10162
  157.0166  130.6138  149.5715 H   0  0  0  0  0  0  0  0  0  0  0  0  # atno 10718 bound_to 10713
  154.5675  135.5615  153.7064 H   0  0  0  0  0  0  0  0  0  0  0  0  # atno 10763 bound_to 10752
  153.0037  135.6289  154.2160 H   0  0  0  0  0  0  0  0  0  0  0  0  # atno 10764 bound_to 10752
  154.2099  135.2874  155.2942 H   0  0  0  0  0  0  0  0  0  0  0  0  # atno 10765 bound_to 10752
  140.3540  134.7170  157.4287 H   0  0  0  0  0  0  0  0  0  0  0  0  # atno 11005 bound_to 11000
  145.3365  139.1744  143.4508 LP  0  0  0  0  0  0  0  0  0  0  0  0  # atno 17320 bound_to 7965
  146.3185  140.3401  142.8647 LP  0  0  0  0  0  0  0  0  0  0  0  0  # atno 17321 bound_to 7965
  139.7747  143.8443  152.3127 LP  0  0  0  0  0  0  0  0  0  0  0  0  # atno 17342 bound_to 10162
  139.8374  144.7226  150.9374 LP  0  0  0  0  0  0  0  0  0  0  0  0  # atno 17343 bound_to 10162
  156.0117  130.5209  150.8009 LP  0  0  0  0  0  0  0  0  0  0  0  0  # atno 17370 bound_to 10713
  157.5281  131.0935  150.9991 LP  0  0  0  0  0  0  0  0  0  0  0  0  # atno 17371 bound_to 10713
  140.0680  134.5903  155.8674 LP  0  0  0  0  0  0  0  0  0  0  0  0  # atno 17394 bound_to 11000
  141.2004  133.6612  156.5893 LP  0  0  0  0  0  0  0  0  0  0  0  0  # atno 17395 bound_to 11000

$$$$
