AV-unprocessed.smi:1099|AV-procd|sdf|4755|dock8
  -GOLD-   22720 3293D 1   1.00000     0.00000
 Structure written by MMmdl.
 41 43  0  0  0  0  0  0  0  0  1 V2000
  154.4538  133.1844  162.9287 C   0  0  0  0  0  0  0  0  0  0  0  0
  154.8623  134.3473  162.0184 C   0  0  0  0  0  0  0  0  0  0  0  0
  154.7142  135.6746  162.6839 C   0  0  0  0  0  0  0  0  0  0  0  0
  155.0869  136.8275  162.1214 N   0  0  0  0  0  0  0  0  0  0  0  0
  154.8115  137.9351  162.9298 C   0  0  0  0  0  0  0  0  0  0  0  0
  155.1745  139.3125  162.4648 C   0  0  0  0  0  0  0  0  0  0  0  0
  154.7166  139.5786  161.0211 C   0  0  0  0  0  0  0  0  0  0  0  0
  154.3307  140.9719  160.8287 N   0  0  0  0  0  0  0  0  0  0  0  0
  153.5621  141.4267  159.8268 C   0  0  0  0  0  0  0  0  0  0  0  0
  153.0898  140.6907  158.9600 O   0  0  0  0  0  0  0  0  0  0  0  0
  153.2955  142.9425  159.8084 C   0  0  2  0  0  0  0  0  0  0  0  0
  152.4671  143.4376  161.0200 C   0  0  0  0  0  0  0  0  0  0  0  0
  151.2750  144.1597  160.3617 C   0  0  1  0  0  0  0  0  0  0  0  0
  151.7693  145.4503  159.6807 C   0  0  0  0  0  0  0  0  0  0  0  0
  152.5329  144.9156  158.4535 C   0  0  0  0  0  0  0  0  0  0  0  0
  152.4075  143.3887  158.6189 C   0  0  2  0  0  0  0  0  0  0  0  0
  150.9848  143.2666  159.1635 C   0  0  0  0  0  0  0  0  0  0  0  0
  154.2111  137.6015  164.1182 C   0  0  0  0  0  0  0  0  0  0  0  0
  153.9655  135.8831  164.2631 S   0  0  0  0  0  0  0  0  0  0  0  0
  154.5749  132.2295  162.4168 H   0  0  0  0  0  0  0  0  0  0  0  0
  153.4099  133.2701  163.2324 H   0  0  0  0  0  0  0  0  0  0  0  0
  155.0648  133.1586  163.8313 H   0  0  0  0  0  0  0  0  0  0  0  0
  155.9000  134.2277  161.7061 H   0  0  0  0  0  0  0  0  0  0  0  0
  154.2598  134.3387  161.1093 H   0  0  0  0  0  0  0  0  0  0  0  0
  154.7326  140.0565  163.1288 H   0  0  0  0  0  0  0  0  0  0  0  0
  156.2538  139.4512  162.5393 H   0  0  0  0  0  0  0  0  0  0  0  0
  155.5035  139.3079  160.3149 H   0  0  0  0  0  0  0  0  0  0  0  0
  153.8562  138.9530  160.7813 H   0  0  0  0  0  0  0  0  0  0  0  0
  154.6770  141.6394  161.5027 H   0  0  0  0  0  0  0  0  0  0  0  0
  154.2540  143.4636  159.7732 H   0  0  0  0  0  0  0  0  0  0  0  0
  152.1130  142.6151  161.6436 H   0  0  0  0  0  0  0  0  0  0  0  0
  153.0423  144.1053  161.6625 H   0  0  0  0  0  0  0  0  0  0  0  0
  150.4322  144.3160  161.0357 H   0  0  0  0  0  0  0  0  0  0  0  0
  150.9302  146.0728  159.3677 H   0  0  0  0  0  0  0  0  0  0  0  0
  152.4025  146.0474  160.3379 H   0  0  0  0  0  0  0  0  0  0  0  0
  152.0527  145.2450  157.5311 H   0  0  0  0  0  0  0  0  0  0  0  0
  153.5700  145.2516  158.4266 H   0  0  0  0  0  0  0  0  0  0  0  0
  152.5885  142.8372  157.6951 H   0  0  0  0  0  0  0  0  0  0  0  0
  150.6937  142.2530  159.4399 H   0  0  0  0  0  0  0  0  0  0  0  0
  150.2283  143.6773  158.4923 H   0  0  0  0  0  0  0  0  0  0  0  0
  153.8973  138.2612  164.9137 H   0  0  0  0  0  0  0  0  0  0  0  0
  1  2  1  0  0  0  0
  1 20  1  0  0  0  0
  1 21  1  0  0  0  0
  1 22  1  0  0  0  0
  2  3  1  0  0  0  0
  2 23  1  0  0  0  0
  2 24  1  0  0  0  0
  3 19  1  0  0  0  0
  3  4  2  0  0  0  0
  4  5  1  0  0  0  0
  5  6  1  0  0  0  0
  5 18  2  0  0  0  0
  6  7  1  0  0  0  0
  6 25  1  0  0  0  0
  6 26  1  0  0  0  0
  7  8  1  0  0  0  0
  7 27  1  0  0  0  0
  7 28  1  0  0  0  0
  8  9  1  0  0  0  0
  8 29  1  0  0  0  0
  9 10  2  0  0  0  0
  9 11  1  0  0  0  0
 11 16  1  0  0  0  0
 11 12  1  0  0  0  0
 11 30  1  0  0  0  0
 12 13  1  0  0  0  0
 12 31  1  0  0  0  0
 12 32  1  0  0  0  0
 13 17  1  0  0  0  0
 13 14  1  0  0  0  0
 13 33  1  0  0  0  0
 14 15  1  0  0  0  0
 14 34  1  0  0  0  0
 14 35  1  0  0  0  0
 15 16  1  0  0  0  0
 15 36  1  0  0  0  0
 15 37  1  0  0  0  0
 16 17  1  0  0  0  0
 16 38  1  0  0  0  0
 17 39  1  0  0  0  0
 17 40  1  0  0  0  0
 18 19  1  0  0  0  0
 18 41  1  0  0  0  0
M  END
> <s_m_source_file>
AV-unprocessed.smi

> <i_m_source_file_index>
1099

> <i_lp_mmshare_version>
43012

> <i_f3d_flags>
0

> <s_epik_input>
W0NIM11bQ0gyXWMxbmMoW2NIXXMxKVtDSDJdW0NIMl1bTkhdQyg9TylbQ0BIXShbQ0gyXVtDQEBIXTIzKVtDQEBIXShbQ0gyXTMpW0NIMl1bQ0gyXTI=

> <s_epik_cmdline>
J2VwaWtfcHl0aG9uJywgJy1waCcsICc3LjAnLCAnLXRuJywgJzgnLCAnLW1hJywgJzIwMCcsICctbWV0YWxfYmluZGluZycsICctaW1hZScsICc8aW5maWxlLm1hZT4nLCAnLW9tYWUnLCAnPG91dGZpbGUubWFlPic=

> <r_epik_Ionization_Penalty>
0.00110131

> <r_epik_Ionization_Penalty_Charging>
0

> <r_epik_Ionization_Penalty_Neutral>
0.00110131

> <r_epik_State_Penalty>
0.00072257

> <r_epik_Charging_Adjusted_Penalty>
0.00072257

> <i_epik_Tot_Q>
0

> <i_epik_Tot_abs_Q>
0

> <r_epik_Metal_State_Penalty>
-0

> <b_epik_Metal_Only>
0

> <s_lp_Force_Field>
OPLS_2005

> <r_lp_Energy>
37.6271

> <b_lp_Chiralities_Consistent>
1

> <s_lp_Variant>
AV-unprocessed.smi:1099-1

> <Gold.Version>
5.8.1

> <Gold.Id.Protein>
6NUR|6NUR_protein|mol2

> <Gold.PLP.Fitness>
45.3464

> <Gold.PLP.PLP>
-46.4003

> <Gold.PLP.part.hbond>
0.0000

> <Gold.PLP.part.metal>
0.0000

> <Gold.PLP.part.buried>
-5.8288

> <Gold.PLP.part.nonpolar>
-40.8193

> <Gold.PLP.part.repulsive>
0.0256

> <Gold.PLP.ligand.clash>
0.0000

> <Gold.PLP.ligand.torsion>
0.5505

> <Gold.PLP.Chemscore.Hbond>
0.0000

> <Gold.PLP.Chemscore.CHOScore>
0.0000

> <Gold.PLP.Chemscore.Metal>
0.0000

> <Gold.PLP.Chemscore.Internal.Correction>
0.0471

> <Gold.Rescore>
     Score         DG    S(hbond)    S(metal)    S(lipo)     H(rot)  DE(clash)    DE(int)     intcor
     18.44     -19.45       0.34        0.00     140.67       1.42       0.36       0.65       ----

> <Gold.Chemscore.Fitness>
18.4388

> <Gold.Chemscore.DG>
-19.4532

> <Gold.Chemscore.ZeroCoef>
-5.4800

> <Gold.Chemscore.Hbond>
0.3416

> <Gold.Chemscore.Metal>
0.0000

> <Gold.Chemscore.Lipo>
140.6693

> <Gold.Chemscore.Internal_Hbond>
0.0000

> <Gold.Chemscore.DEClash>
0.3597

> <Gold.Chemscore.DEInternal>
0.6547

> <Gold.Chemscore.Rot>
1.4165

> <Gold.Chemscore.Internal.Correction>
   9.000000E+99

> <Gold.Chemscore.Hbonds>
donor molecule, donor type, donor heavy atom, donor atom, acceptor molecule, acceptor atom, score
      P1  H  7997  8009       L1    10  0.01

> <Gold.Chemscore.Hbond.Weighted>
-1.1410

> <Gold.Chemscore.Metal.Weighted>
-0.0000

> <Gold.Chemscore.Lipo.Weighted>
-16.4583

> <Gold.Chemscore.Internal_Hbond.Weighted>
0.0000

> <Gold.Chemscore.DEClash.Weighted>
0.3597

> <Gold.Chemscore.DEInternal.Weighted>
0.6547

> <Gold.Chemscore.Rot.Weighted>
3.6262

> <Gold.Chemscore.Internal.Correction.Weighted>
   9.000000E+99

> <Gold.Protein.RotatedTorsions>
[ 6907 6896 6895 6894 ] final   80.05 input  -60.11 | X-H torsion
[ 7974 7965 7964 7962 ] final   97.75 input  175.53 | X-H torsion
[ 8008 7997 7996 7995 ] final  156.34 input   59.86 | X-H torsion
[ 10167 10162 10161 10158 ] final  -13.30 input  -65.29 | X-H torsion
[ 10718 10713 10712 10709 ] final -120.54 input   66.30 | X-H torsion
[ 10763 10752 10751 10750 ] final -148.99 input  -60.55 | X-H torsion
[ 11005 11000 10999 10996 ] final   -0.66 input  -57.11 | X-H torsion

> <Gold.Protein.ActiveResidues>
 VAL166  LYS551  ARG553  GLY616  TRP617  ASP618  TYR619  PRO620  LYS621  CYS622 
 ASP623  PHE694  ASN695  SER759  ASP760  ASP761  ALA762  ILE779  LEU786  VAL792 
 PHE793  MET794  SER795  GLU796  ALA797  LYS798  CYS799  TRP800  GLU811  SER814 

> <Gold.Protein.RotatedAtoms>
  152.5221  134.3417  159.9219 H   0  0  0  0  0  0  0  0  0  0  0  0  # atno 6907 bound_to 6896
  151.3366  133.3972  159.2675 H   0  0  0  0  0  0  0  0  0  0  0  0  # atno 6908 bound_to 6896
  150.9837  134.9205  159.7917 H   0  0  0  0  0  0  0  0  0  0  0  0  # atno 6909 bound_to 6896
  145.4214  139.2321  143.3194 H   0  0  0  0  0  0  0  0  0  0  0  0  # atno 7974 bound_to 7965
  156.2428  140.1915  156.6940 H   0  0  0  0  0  0  0  0  0  0  0  0  # atno 8008 bound_to 7997
  154.6231  140.0606  156.9666 H   0  0  0  0  0  0  0  0  0  0  0  0  # atno 8009 bound_to 7997
  155.1830  140.3278  155.4374 H   0  0  0  0  0  0  0  0  0  0  0  0  # atno 8010 bound_to 7997
  140.7179  143.5441  150.9376 H   0  0  0  0  0  0  0  0  0  0  0  0  # atno 10167 bound_to 10162
  156.1266  130.6363  150.9552 H   0  0  0  0  0  0  0  0  0  0  0  0  # atno 10718 bound_to 10713
  154.8202  135.3320  154.7060 H   0  0  0  0  0  0  0  0  0  0  0  0  # atno 10763 bound_to 10752
  153.7694  135.6926  153.4914 H   0  0  0  0  0  0  0  0  0  0  0  0  # atno 10764 bound_to 10752
  153.2055  135.4501  155.0266 H   0  0  0  0  0  0  0  0  0  0  0  0  # atno 10765 bound_to 10752
  140.6387  133.9509  155.8314 H   0  0  0  0  0  0  0  0  0  0  0  0  # atno 11005 bound_to 11000
  146.2655  140.4938  142.8836 LP  0  0  0  0  0  0  0  0  0  0  0  0  # atno 17320 bound_to 7965
  144.8243  140.6602  143.6332 LP  0  0  0  0  0  0  0  0  0  0  0  0  # atno 17321 bound_to 7965
  139.9164  143.6659  152.3105 LP  0  0  0  0  0  0  0  0  0  0  0  0  # atno 17342 bound_to 10162
  139.7060  144.7628  151.1193 LP  0  0  0  0  0  0  0  0  0  0  0  0  # atno 17343 bound_to 10162
  157.6447  131.0905  150.8178 LP  0  0  0  0  0  0  0  0  0  0  0  0  # atno 17370 bound_to 10713
  156.8268  130.5002  149.5336 LP  0  0  0  0  0  0  0  0  0  0  0  0  # atno 17371 bound_to 10713
  141.0623  134.0329  157.3642 LP  0  0  0  0  0  0  0  0  0  0  0  0  # atno 17394 bound_to 11000
  139.9088  135.0186  156.7604 LP  0  0  0  0  0  0  0  0  0  0  0  0  # atno 17395 bound_to 11000

$$$$
