AV-unprocessed.smi:1978|AV-procd|sdf|7993|dock9
  -GOLD-   2272010173D 1   1.00000     0.00000
 Structure written by MMmdl.
 45 46  0  0  0  0  0  0  0  0  2 V2000
  153.1626  143.1101  160.0099 C   0  0  0  0  0  0  0  0  0  0  0  0
  152.2424  142.5915  158.9585 C   0  0  0  0  0  0  0  0  0  0  0  0
  151.3803  143.2032  158.0922 C   0  0  0  0  0  0  0  0  0  0  0  0
  150.8202  142.1128  157.3749 C   0  0  0  0  0  0  0  0  0  0  0  0
  149.8499  142.3276  156.3629 N   0  0  0  0  0  0  0  0  0  0  0  0
  149.1782  141.3966  155.6644 C   0  0  0  0  0  0  0  0  0  0  0  0
  149.3295  140.1794  155.7738 O   0  0  0  0  0  0  0  0  0  0  0  0
  148.3025  141.9557  154.8164 N   0  0  0  0  0  0  0  0  0  0  0  0
  147.4203  141.2105  153.9217 C   0  0  0  0  0  0  0  0  0  0  0  0
  146.5656  140.1347  154.6540 C   0  0  1  0  0  0  0  0  0  0  0  0
  145.5293  140.8448  155.5638 C   0  0  0  0  0  0  0  0  0  0  0  0
  145.9305  139.1767  153.6827 N   0  3  1  0  0  0  0  0  0  0  0  0
  146.8320  138.7616  152.5640 C   0  0  0  0  0  0  0  0  0  0  0  0
  146.0685  137.9920  151.4735 C   0  0  0  0  0  0  0  0  0  0  0  0
  145.3503  136.7704  152.0495 C   0  0  0  0  0  0  0  0  0  0  0  0
  144.4543  137.2051  153.2146 C   0  0  0  0  0  0  0  0  0  0  0  0
  145.2352  137.9911  154.2890 C   0  0  1  0  0  0  0  0  0  0  0  0
  146.1761  137.0738  155.1041 C   0  0  0  0  0  0  0  0  0  0  0  0
  151.2983  140.9416  157.7668 N   0  0  0  0  0  0  0  0  0  0  0  0
  152.2122  141.2424  158.7836 O   0  0  0  0  0  0  0  0  0  0  0  0
  153.1818  144.2000  160.0082 H   0  0  0  0  0  0  0  0  0  0  0  0
  154.1795  142.7541  159.8440 H   0  0  0  0  0  0  0  0  0  0  0  0
  152.8447  142.7789  160.9985 H   0  0  0  0  0  0  0  0  0  0  0  0
  151.1835  144.2603  157.9925 H   0  0  0  0  0  0  0  0  0  0  0  0
  149.6363  143.2928  156.1598 H   0  0  0  0  0  0  0  0  0  0  0  0
  148.2409  142.9631  154.7865 H   0  0  0  0  0  0  0  0  0  0  0  0
  146.7658  141.9255  153.4224 H   0  0  0  0  0  0  0  0  0  0  0  0
  148.0559  140.7885  153.1462 H   0  0  0  0  0  0  0  0  0  0  0  0
  147.2244  139.5507  155.2980 H   0  0  0  0  0  0  0  0  0  0  0  0
  145.9980  141.5685  156.2300 H   0  0  0  0  0  0  0  0  0  0  0  0
  145.0036  140.1554  156.2224 H   0  0  0  0  0  0  0  0  0  0  0  0
  144.7860  141.3808  154.9728 H   0  0  0  0  0  0  0  0  0  0  0  0
  147.2871  139.6163  152.0723 H   0  0  0  0  0  0  0  0  0  0  0  0
  147.6575  138.1623  152.9490 H   0  0  0  0  0  0  0  0  0  0  0  0
  145.3411  138.6545  151.0026 H   0  0  0  0  0  0  0  0  0  0  0  0
  146.7562  137.6801  150.6867 H   0  0  0  0  0  0  0  0  0  0  0  0
  144.7530  136.2861  151.2764 H   0  0  0  0  0  0  0  0  0  0  0  0
  146.0793  136.0322  152.3848 H   0  0  0  0  0  0  0  0  0  0  0  0
  143.6480  137.8306  152.8287 H   0  0  0  0  0  0  0  0  0  0  0  0
  143.9722  136.3334  153.6586 H   0  0  0  0  0  0  0  0  0  0  0  0
  144.4651  138.3534  154.9681 H   0  0  0  0  0  0  0  0  0  0  0  0
  145.6145  136.2561  155.5567 H   0  0  0  0  0  0  0  0  0  0  0  0
  146.6696  137.6054  155.9164 H   0  0  0  0  0  0  0  0  0  0  0  0
  146.9557  136.6247  154.4904 H   0  0  0  0  0  0  0  0  0  0  0  0
  145.1913  139.7080  153.2451 H   0  0  0  0  0  0  0  0  0  0  0  0
  1  2  1  0  0  0  0
  1 21  1  0  0  0  0
  1 22  1  0  0  0  0
  1 23  1  0  0  0  0
  2 20  1  0  0  0  0
  2  3  2  0  0  0  0
  3  4  1  0  0  0  0
  3 24  1  0  0  0  0
  4  5  1  0  0  0  0
  4 19  2  0  0  0  0
  5  6  1  0  0  0  0
  5 25  1  0  0  0  0
  6  7  2  0  0  0  0
  6  8  1  0  0  0  0
  8  9  1  0  0  0  0
  8 26  1  0  0  0  0
  9 10  1  0  0  0  0
  9 27  1  0  0  0  0
  9 28  1  0  0  0  0
 10 11  1  0  0  0  0
 10 12  1  0  0  0  0
 10 29  1  0  0  0  0
 11 30  1  0  0  0  0
 11 31  1  0  0  0  0
 11 32  1  0  0  0  0
 12 17  1  0  0  0  0
 12 13  1  0  0  0  0
 12 45  1  0  0  0  0
 13 14  1  0  0  0  0
 13 33  1  0  0  0  0
 13 34  1  0  0  0  0
 14 15  1  0  0  0  0
 14 35  1  0  0  0  0
 14 36  1  0  0  0  0
 15 16  1  0  0  0  0
 15 37  1  0  0  0  0
 15 38  1  0  0  0  0
 16 17  1  0  0  0  0
 16 39  1  0  0  0  0
 16 40  1  0  0  0  0
 17 18  1  0  0  0  0
 17 41  1  0  0  0  0
 18 42  1  0  0  0  0
 18 43  1  0  0  0  0
 18 44  1  0  0  0  0
 19 20  1  0  0  0  0
M  CHG  1  12   1
M  END
> <s_m_source_file>
AV-unprocessed.smi

> <i_m_source_file_index>
1978

> <i_lp_mmshare_version>
43012

> <i_f3d_flags>
0

> <s_epik_input>
W0NIM11jMVtjSF1jKG5vMSlbTkhdQyg9TylbTkhdW0NIMl1bQ0BIXShbQ0gzXSlOMltDSDJdW0NIMl1bQ0gyXVtDSDJdW0NASF0yW0NIM10=

> <s_epik_cmdline>
J2VwaWtfcHl0aG9uJywgJy1waCcsICc3LjAnLCAnLXRuJywgJzgnLCAnLW1hJywgJzIwMCcsICctbWV0YWxfYmluZGluZycsICctaW1hZScsICc8aW5maWxlLm1hZT4nLCAnLW9tYWUnLCAnPG91dGZpbGUubWFlPic=

> <r_epik_Ionization_Penalty>
0.00265971

> <r_epik_Ionization_Penalty_Charging>
0.00262393

> <r_epik_Ionization_Penalty_Neutral>
3.57846e-05

> <r_epik_State_Penalty>
0.00182566

> <r_epik_Charging_Adjusted_Penalty>
0.00444959

> <i_epik_Tot_Q>
1

> <i_epik_Tot_abs_Q>
1

> <r_epik_Metal_State_Penalty>
0.0216344

> <b_epik_Metal_Only>
0

> <s_lp_Force_Field>
OPLS_2005

> <r_lp_Energy>
22.9601

> <b_lp_Chiralities_Consistent>
1

> <s_lp_Variant>
AV-unprocessed.smi:1978-2

> <Gold.Version>
5.8.1

> <Gold.Id.Protein>
6NUR|6NUR_protein|mol2

> <Gold.PLP.Fitness>
42.6874

> <Gold.PLP.PLP>
-31.2917

> <Gold.PLP.part.hbond>
-3.0000

> <Gold.PLP.part.metal>
0.0000

> <Gold.PLP.part.buried>
-0.5344

> <Gold.PLP.part.nonpolar>
-29.1019

> <Gold.PLP.part.repulsive>
0.3421

> <Gold.PLP.ligand.clash>
0.0000

> <Gold.PLP.ligand.torsion>
0.2587

> <Gold.PLP.Chemscore.Hbond>
3.9440

> <Gold.PLP.Chemscore.CHOScore>
0.0000

> <Gold.PLP.Chemscore.Metal>
0.0000

> <Gold.Chemscore.Hbonds>
donor molecule, donor type, donor heavy atom, donor atom, acceptor molecule, acceptor atom, score
      L1  H     5    25       P1  8028  1.00
      L1  H     8    26       P1  8028  0.92
      L1  H    12    45       P1 10175  2.00

> <Gold.PLP.Chemscore.Internal.Correction>
0.0811

> <Gold.Rescore>
     Score         DG    S(hbond)    S(metal)    S(lipo)     H(rot)  DE(clash)    DE(int)     intcor
     18.26     -20.24       2.89        0.00      77.56       1.55       0.61       1.38       ----

> <Gold.Chemscore.Fitness>
18.2622

> <Gold.Chemscore.DG>
-20.2443

> <Gold.Chemscore.ZeroCoef>
-5.4800

> <Gold.Chemscore.Hbond>
2.8896

> <Gold.Chemscore.Metal>
0.0000

> <Gold.Chemscore.Lipo>
77.5588

> <Gold.Chemscore.Internal_Hbond>
0.0000

> <Gold.Chemscore.DEClash>
0.6071

> <Gold.Chemscore.DEInternal>
1.3750

> <Gold.Chemscore.Rot>
1.5474

> <Gold.Chemscore.Internal.Correction>
   9.000000E+99

> <Gold.Chemscore.Hbonds>
donor molecule, donor type, donor heavy atom, donor atom, acceptor molecule, acceptor atom, score
      L1  H     5    25       P1  8028  1.00
      L1  H     8    26       P1  8028  0.82
      L1  H    12    45       P1 10175  1.00

> <Gold.Chemscore.Hbond.Weighted>
-9.6512

> <Gold.Chemscore.Metal.Weighted>
-0.0000

> <Gold.Chemscore.Lipo.Weighted>
-9.0744

> <Gold.Chemscore.Internal_Hbond.Weighted>
0.0000

> <Gold.Chemscore.DEClash.Weighted>
0.6071

> <Gold.Chemscore.DEInternal.Weighted>
1.3750

> <Gold.Chemscore.Rot.Weighted>
3.9612

> <Gold.Chemscore.Internal.Correction.Weighted>
   9.000000E+99

> <Gold.Protein.RotatedTorsions>
[ 6907 6896 6895 6894 ] final  -51.30 input  -60.11 | X-H torsion
[ 7974 7965 7964 7962 ] final -118.91 input  175.53 | X-H torsion
[ 8008 7997 7996 7995 ] final -168.18 input   59.86 | X-H torsion
[ 10167 10162 10161 10158 ] final  -49.49 input  -65.29 | X-H torsion
[ 10718 10713 10712 10709 ] final  -93.19 input   66.30 | X-H torsion
[ 10763 10752 10751 10750 ] final    8.19 input  -60.55 | X-H torsion
[ 11005 11000 10999 10996 ] final   43.09 input  -57.11 | X-H torsion

> <Gold.Protein.ActiveResidues>
 VAL166  LYS551  ARG553  GLY616  TRP617  ASP618  TYR619  PRO620  LYS621  CYS622 
 ASP623  PHE694  ASN695  SER759  ASP760  ASP761  ALA762  ILE779  LEU786  VAL792 
 PHE793  MET794  SER795  GLU796  ALA797  LYS798  CYS799  TRP800  GLU811  SER814 

> <Gold.Protein.RotatedAtoms>
  150.8624  134.7979  159.7092 H   0  0  0  0  0  0  0  0  0  0  0  0  # atno 6907 bound_to 6896
  152.4657  134.5078  159.9754 H   0  0  0  0  0  0  0  0  0  0  0  0  # atno 6908 bound_to 6896
  151.5180  133.3434  159.2932 H   0  0  0  0  0  0  0  0  0  0  0  0  # atno 6909 bound_to 6896
  145.0685  140.8342  143.4110 H   0  0  0  0  0  0  0  0  0  0  0  0  # atno 7974 bound_to 7965
  155.8878  140.1020  157.1440 H   0  0  0  0  0  0  0  0  0  0  0  0  # atno 8008 bound_to 7997
  154.4012  140.1316  156.4342 H   0  0  0  0  0  0  0  0  0  0  0  0  # atno 8009 bound_to 7997
  155.7568  140.3464  155.5180 H   0  0  0  0  0  0  0  0  0  0  0  0  # atno 8010 bound_to 7997
  140.6682  143.2695  151.4223 H   0  0  0  0  0  0  0  0  0  0  0  0  # atno 10167 bound_to 10162
  156.0010  130.5017  150.5738 H   0  0  0  0  0  0  0  0  0  0  0  0  # atno 10718 bound_to 10713
  153.2278  135.6889  153.7925 H   0  0  0  0  0  0  0  0  0  0  0  0  # atno 10763 bound_to 10752
  153.7101  135.3283  155.3245 H   0  0  0  0  0  0  0  0  0  0  0  0  # atno 10764 bound_to 10752
  154.8300  135.4588  154.1151 H   0  0  0  0  0  0  0  0  0  0  0  0  # atno 10765 bound_to 10752
  140.1677  134.4261  155.8276 H   0  0  0  0  0  0  0  0  0  0  0  0  # atno 11005 bound_to 11000
  145.1322  139.2625  143.5534 LP  0  0  0  0  0  0  0  0  0  0  0  0  # atno 17320 bound_to 7965
  146.3528  140.0976  142.8609 LP  0  0  0  0  0  0  0  0  0  0  0  0  # atno 17321 bound_to 7965
  139.5940  144.1438  152.2121 LP  0  0  0  0  0  0  0  0  0  0  0  0  # atno 17342 bound_to 10162
  140.0802  144.5707  150.7128 LP  0  0  0  0  0  0  0  0  0  0  0  0  # atno 17343 bound_to 10162
  157.3629  131.0753  151.1621 LP  0  0  0  0  0  0  0  0  0  0  0  0  # atno 17370 bound_to 10713
  157.2400  130.6565  149.5886 LP  0  0  0  0  0  0  0  0  0  0  0  0  # atno 17371 bound_to 10713
  141.2215  133.6942  156.7708 LP  0  0  0  0  0  0  0  0  0  0  0  0  # atno 17394 bound_to 11000
  140.2414  134.8611  157.3577 LP  0  0  0  0  0  0  0  0  0  0  0  0  # atno 17395 bound_to 11000

$$$$
