AV-unprocessed.smi:333|AV-procd|sdf|2360|dock6
  -GOLD-   2262022273D 1   1.00000     0.00000
 Structure written by MMmdl.
 25 25  0  0  0  0  0  0  0  0  2 V2000
  148.2732  136.2712  155.9621 N   0  0  0  0  0  0  0  0  0  0  0  0
  149.0728  136.5424  157.0014 C   0  0  0  0  0  0  0  0  0  0  0  0
  150.2511  136.8261  156.7840 O   0  0  0  0  0  0  0  0  0  0  0  0
  148.4007  136.4570  158.3185 C   0  0  0  0  0  0  0  0  0  0  0  0
  147.0784  136.1877  158.4632 C   0  0  0  0  0  0  0  0  0  0  0  0
  146.4308  136.1067  159.7645 C   0  0  0  0  0  0  0  0  0  0  0  0
  144.9384  135.8117  159.8552 C   0  0  0  0  0  0  0  0  0  0  0  0
  144.3054  135.4953  158.4903 C   0  0  0  0  0  0  0  0  0  0  0  0
  142.9239  135.2362  158.6234 O   0  0  0  0  0  0  0  0  0  0  0  0
  147.2699  136.3464  160.8579 C   0  0  0  0  0  0  0  0  0  0  0  0
  146.7302  136.3181  162.2983 C   0  0  0  0  0  0  0  0  0  0  0  0
  145.7048  137.1608  162.4297 F   0  0  0  0  0  0  0  0  0  0  0  0
  146.3168  135.0945  162.6285 F   0  0  0  0  0  0  0  0  0  0  0  0
  147.6564  136.6778  163.1915 F   0  0  0  0  0  0  0  0  0  0  0  0
  148.6000  136.6133  160.7368 N   0  5  0  0  0  0  0  0  0  0  0  0
  149.2244  136.6841  159.5288 C   0  0  0  0  0  0  0  0  0  0  0  0
  150.4302  136.9287  159.4718 O   0  0  0  0  0  0  0  0  0  0  0  0
  148.6438  136.3012  155.0239 H   0  0  0  0  0  0  0  0  0  0  0  0
  147.3052  136.0352  156.1229 H   0  0  0  0  0  0  0  0  0  0  0  0
  146.4480  136.0234  157.6024 H   0  0  0  0  0  0  0  0  0  0  0  0
  144.7243  135.0068  160.5553 H   0  0  0  0  0  0  0  0  0  0  0  0
  144.4555  136.6955  160.2731 H   0  0  0  0  0  0  0  0  0  0  0  0
  144.4365  136.3392  157.8129 H   0  0  0  0  0  0  0  0  0  0  0  0
  144.7886  134.6354  158.0256 H   0  0  0  0  0  0  0  0  0  0  0  0
  142.4448  135.9423  158.2181 H   0  0  0  0  0  0  0  0  0  0  0  0
  1  2  1  0  0  0  0
  1 18  1  0  0  0  0
  1 19  1  0  0  0  0
  2  3  2  0  0  0  0
  2  4  1  0  0  0  0
  4 16  1  0  0  0  0
  4  5  2  0  0  0  0
  5  6  1  0  0  0  0
  5 20  1  0  0  0  0
  6  7  1  0  0  0  0
  6 10  2  0  0  0  0
  7  8  1  0  0  0  0
  7 21  1  0  0  0  0
  7 22  1  0  0  0  0
  8  9  1  0  0  0  0
  8 23  1  0  0  0  0
  8 24  1  0  0  0  0
  9 25  1  0  0  0  0
 10 11  1  0  0  0  0
 10 15  1  0  0  0  0
 11 12  1  0  0  0  0
 11 13  1  0  0  0  0
 11 14  1  0  0  0  0
 15 16  1  0  0  0  0
 16 17  2  0  0  0  0
M  CHG  1  15  -1
M  END
> <s_m_source_file>
AV-unprocessed.smi

> <i_m_source_file_index>
333

> <i_lp_mmshare_version>
43012

> <i_f3d_flags>
0

> <s_epik_input>
W05IMl1DKD1PKWMxW2NIXWMoW0NIMl1bQ0gyXVtPSF0pYyhDKEYpKEYpRilbbkhdYzE9Tw==

> <s_epik_cmdline>
J2VwaWtfcHl0aG9uJywgJy1waCcsICc3LjAnLCAnLXRuJywgJzgnLCAnLW1hJywgJzIwMCcsICctbWV0YWxfYmluZGluZycsICctaW1hZScsICc8aW5maWxlLm1hZT4nLCAnLW9tYWUnLCAnPG91dGZpbGUubWFlPic=

> <r_epik_Ionization_Penalty>
0.0673264

> <r_epik_Ionization_Penalty_Charging>
0.00196754

> <r_epik_Ionization_Penalty_Neutral>
0.0653589

> <r_epik_State_Penalty>
0.0569931

> <r_epik_Charging_Adjusted_Penalty>
0.0589607

> <i_epik_Tot_Q>
-1

> <i_epik_Tot_abs_Q>
1

> <r_epik_Metal_State_Penalty>
0.0511714

> <b_epik_Metal_Only>
0

> <s_lp_Force_Field>
OPLS_2005

> <r_lp_Energy>
33.2875

> <b_lp_Chiralities_Consistent>
1

> <s_lp_Variant>
AV-unprocessed.smi:333-1

> <Gold.Version>
5.8.1

> <Gold.Id.Protein>
6NUR|6NUR_protein|mol2

> <Gold.PLP.Fitness>
30.3998

> <Gold.PLP.PLP>
-21.5153

> <Gold.PLP.part.hbond>
-2.0000

> <Gold.PLP.part.metal>
0.0000

> <Gold.PLP.part.buried>
-3.9631

> <Gold.PLP.part.nonpolar>
-16.6651

> <Gold.PLP.part.repulsive>
0.0000

> <Gold.PLP.ligand.clash>
4.2475

> <Gold.PLP.ligand.torsion>
0.1049

> <Gold.PLP.Chemscore.Hbond>
3.0000

> <Gold.PLP.Chemscore.CHOScore>
0.0000

> <Gold.PLP.Chemscore.Metal>
0.0000

> <Gold.Chemscore.Hbonds>
donor molecule, donor type, donor heavy atom, donor atom, acceptor molecule, acceptor atom, score
      P1  H  6896  6907       L1    17  1.00
      P1  H  6931  6943       L1    15  1.92

> <Gold.PLP.Chemscore.Internal.Correction>
4.3417

> <Gold.Rescore>
     Score         DG    S(hbond)    S(metal)    S(lipo)     H(rot)  DE(clash)    DE(int)     intcor
      5.24      -7.96       1.61        0.00      21.45       2.11       0.11       2.61       ----

> <Gold.Chemscore.Fitness>
5.2427

> <Gold.Chemscore.DG>
-7.9560

> <Gold.Chemscore.ZeroCoef>
-5.4800

> <Gold.Chemscore.Hbond>
1.6060

> <Gold.Chemscore.Metal>
0.0000

> <Gold.Chemscore.Lipo>
21.4496

> <Gold.Chemscore.Internal_Hbond>
0.0000

> <Gold.Chemscore.DEClash>
0.1066

> <Gold.Chemscore.DEInternal>
2.6067

> <Gold.Chemscore.Rot>
2.1084

> <Gold.Chemscore.Internal.Correction>
   9.000000E+99

> <Gold.Chemscore.Hbonds>
donor molecule, donor type, donor heavy atom, donor atom, acceptor molecule, acceptor atom, score
      P1  H  6896  6907       L1    17  0.37
      P1  H  6931  6943       L1    15  0.47

> <Gold.Chemscore.Hbond.Weighted>
-5.3640

> <Gold.Chemscore.Metal.Weighted>
-0.0000

> <Gold.Chemscore.Lipo.Weighted>
-2.5096

> <Gold.Chemscore.Internal_Hbond.Weighted>
0.0000

> <Gold.Chemscore.DEClash.Weighted>
0.1066

> <Gold.Chemscore.DEInternal.Weighted>
2.6067

> <Gold.Chemscore.Rot.Weighted>
5.3976

> <Gold.Chemscore.Internal.Correction.Weighted>
   9.000000E+99

> <Gold.Protein.RotatedTorsions>
[ 6907 6896 6895 6894 ] final  -17.22 input  -60.11 | X-H torsion
[ 7974 7965 7964 7962 ] final  154.88 input  175.53 | X-H torsion
[ 8008 7997 7996 7995 ] final  -48.66 input   59.86 | X-H torsion
[ 10167 10162 10161 10158 ] final  -81.62 input  -65.29 | X-H torsion
[ 10718 10713 10712 10709 ] final  110.12 input   66.30 | X-H torsion
[ 10763 10752 10751 10750 ] final   83.71 input  -60.55 | X-H torsion
[ 11005 11000 10999 10996 ] final  -12.85 input  -57.11 | X-H torsion

> <Gold.Protein.ActiveResidues>
 VAL166  LYS551  ARG553  GLY616  TRP617  ASP618  TYR619  PRO620  LYS621  CYS622 
 ASP623  PHE694  ASN695  SER759  ASP760  ASP761  ALA762  ILE779  LEU786  VAL792 
 PHE793  MET794  SER795  GLU796  ALA797  LYS798  CYS799  TRP800  GLU811  SER814 

> <Gold.Protein.RotatedAtoms>
  151.2967  135.0757  159.9223 H   0  0  0  0  0  0  0  0  0  0  0  0  # atno 6907 bound_to 6896
  152.5306  133.9876  159.7846 H   0  0  0  0  0  0  0  0  0  0  0  0  # atno 6908 bound_to 6896
  151.0155  133.5874  159.2708 H   0  0  0  0  0  0  0  0  0  0  0  0  # atno 6909 bound_to 6896
  144.8060  139.6993  143.6162 H   0  0  0  0  0  0  0  0  0  0  0  0  # atno 7974 bound_to 7965
  154.4032  140.1316  156.4375 H   0  0  0  0  0  0  0  0  0  0  0  0  # atno 8008 bound_to 7997
  155.7491  140.3488  155.5121 H   0  0  0  0  0  0  0  0  0  0  0  0  # atno 8009 bound_to 7997
  155.8966  140.1012  157.1370 H   0  0  0  0  0  0  0  0  0  0  0  0  # atno 8010 bound_to 7997
  140.4395  143.2520  151.8646 H   0  0  0  0  0  0  0  0  0  0  0  0  # atno 10167 bound_to 10162
  157.6509  131.0926  150.6554 H   0  0  0  0  0  0  0  0  0  0  0  0  # atno 10718 bound_to 10713
  153.1316  135.4681  154.9357 H   0  0  0  0  0  0  0  0  0  0  0  0  # atno 10763 bound_to 10752
  154.7669  135.3147  154.8271 H   0  0  0  0  0  0  0  0  0  0  0  0  # atno 10764 bound_to 10752
  153.8812  135.6894  153.4821 H   0  0  0  0  0  0  0  0  0  0  0  0  # atno 10765 bound_to 10752
  140.7700  133.8446  155.9199 H   0  0  0  0  0  0  0  0  0  0  0  0  # atno 11005 bound_to 11000
  146.2352  139.5890  142.9529 LP  0  0  0  0  0  0  0  0  0  0  0  0  # atno 17320 bound_to 7965
  145.5437  141.0419  143.2317 LP  0  0  0  0  0  0  0  0  0  0  0  0  # atno 17321 bound_to 7965
  139.4789  144.5245  151.8754 LP  0  0  0  0  0  0  0  0  0  0  0  0  # atno 17342 bound_to 10162
  140.4335  144.2083  150.5888 LP  0  0  0  0  0  0  0  0  0  0  0  0  # atno 17343 bound_to 10162
  156.6866  130.4582  149.5612 LP  0  0  0  0  0  0  0  0  0  0  0  0  # atno 17370 bound_to 10713
  156.1891  130.6548  151.1041 LP  0  0  0  0  0  0  0  0  0  0  0  0  # atno 17371 bound_to 10713
  140.9583  134.1689  157.4674 LP  0  0  0  0  0  0  0  0  0  0  0  0  # atno 17394 bound_to 11000
  139.8757  134.9935  156.5648 LP  0  0  0  0  0  0  0  0  0  0  0  0  # atno 17395 bound_to 11000

$$$$
