AV-unprocessed.smi:1667|AV-procd|sdf|6675|dock10
  -GOLD-   22720 7393D 1   1.00000     0.00000
 Structure written by MMmdl.
 45 47  0  0  0  0  0  0  0  0  1 V2000
  154.7118  137.2351  162.1790 C   0  0  0  0  0  0  0  0  0  0  0  0
  153.8897  137.2090  160.8948 C   0  0  0  0  0  0  0  0  0  0  0  0
  153.6917  136.1414  160.3161 O   0  0  0  0  0  0  0  0  0  0  0  0
  153.4230  138.3879  160.4568 N   0  0  0  0  0  0  0  0  0  0  0  0
  152.6540  138.5926  159.2305 C   0  0  1  0  0  0  0  0  0  0  0  0
  151.3083  137.8538  159.2938 C   0  0  0  0  0  0  0  0  0  0  0  0
  152.4694  140.0767  159.0344 C   0  0  0  0  0  0  0  0  0  0  0  0
  153.0615  140.9725  159.8300 N   0  0  0  0  0  0  0  0  0  0  0  0
  152.5941  142.1760  159.3451 C   0  0  0  0  0  0  0  0  0  0  0  0
  152.8567  143.4986  159.7681 C   0  0  0  0  0  0  0  0  0  0  0  0
  152.2457  144.5906  159.1177 C   0  0  0  0  0  0  0  0  0  0  0  0
  151.3637  144.3749  158.0397 C   0  0  0  0  0  0  0  0  0  0  0  0
  151.0893  143.0646  157.6034 C   0  0  0  0  0  0  0  0  0  0  0  0
  151.7064  141.9771  158.2515 C   0  0  0  0  0  0  0  0  0  0  0  0
  151.6582  140.5961  158.0732 N   0  0  0  0  0  0  0  0  0  0  0  0
  150.8678  139.8922  157.0655 C   0  0  0  0  0  0  0  0  0  0  0  0
  150.8579  140.5766  155.6774 C   0  0  1  0  0  0  0  0  0  0  0  0
  151.8993  140.0658  154.8687 O   0  0  0  0  0  0  0  0  0  0  0  0
  149.5014  140.5219  154.9857 C   0  0  0  0  0  0  0  0  0  0  0  0
  149.0264  139.3212  154.4105 C   0  0  0  0  0  0  0  0  0  0  0  0
  147.7719  139.2861  153.7718 C   0  0  0  0  0  0  0  0  0  0  0  0
  146.9840  140.4506  153.7024 C   0  0  0  0  0  0  0  0  0  0  0  0
  147.4484  141.6485  154.2781 C   0  0  0  0  0  0  0  0  0  0  0  0
  146.6880  142.7671  154.2184 F   0  0  0  0  0  0  0  0  0  0  0  0
  148.7027  141.6837  154.9179 C   0  0  0  0  0  0  0  0  0  0  0  0
  153.2372  138.1875  158.4058 H   0  0  0  0  0  0  0  0  0  0  0  0
  155.0235  138.2489  162.4330 H   0  0  0  0  0  0  0  0  0  0  0  0
  155.6072  136.6236  162.0646 H   0  0  0  0  0  0  0  0  0  0  0  0
  154.1271  136.8364  163.0080 H   0  0  0  0  0  0  0  0  0  0  0  0
  153.6330  139.2147  160.9976 H   0  0  0  0  0  0  0  0  0  0  0  0
  150.7389  138.0049  158.3764 H   0  0  0  0  0  0  0  0  0  0  0  0
  150.6988  138.2083  160.1255 H   0  0  0  0  0  0  0  0  0  0  0  0
  151.4506  136.7800  159.4184 H   0  0  0  0  0  0  0  0  0  0  0  0
  153.5275  143.6735  160.5960 H   0  0  0  0  0  0  0  0  0  0  0  0
  152.4530  145.5977  159.4489 H   0  0  0  0  0  0  0  0  0  0  0  0
  150.8978  145.2158  157.5473 H   0  0  0  0  0  0  0  0  0  0  0  0
  150.4143  142.8983  156.7774 H   0  0  0  0  0  0  0  0  0  0  0  0
  151.2108  138.8617  156.9830 H   0  0  0  0  0  0  0  0  0  0  0  0
  149.8451  139.8200  157.4377 H   0  0  0  0  0  0  0  0  0  0  0  0
  151.0993  141.6293  155.8300 H   0  0  0  0  0  0  0  0  0  0  0  0
  152.1933  139.2485  155.2410 H   0  0  0  0  0  0  0  0  0  0  0  0
  149.6189  138.4194  154.4632 H   0  0  0  0  0  0  0  0  0  0  0  0
  147.4126  138.3649  153.3374 H   0  0  0  0  0  0  0  0  0  0  0  0
  146.0204  140.4233  153.2150 H   0  0  0  0  0  0  0  0  0  0  0  0
  149.0493  142.6072  155.3580 H   0  0  0  0  0  0  0  0  0  0  0  0
  1  2  1  0  0  0  0
  1 27  1  0  0  0  0
  1 28  1  0  0  0  0
  1 29  1  0  0  0  0
  2  3  2  0  0  0  0
  2  4  1  0  0  0  0
  4  5  1  0  0  0  0
  4 30  1  0  0  0  0
  5 26  1  0  0  0  0
  5  6  1  0  0  0  0
  5  7  1  0  0  0  0
  6 31  1  0  0  0  0
  6 32  1  0  0  0  0
  6 33  1  0  0  0  0
  7 15  1  0  0  0  0
  7  8  2  0  0  0  0
  8  9  1  0  0  0  0
  9 14  2  0  0  0  0
  9 10  1  0  0  0  0
 10 11  2  0  0  0  0
 10 34  1  0  0  0  0
 11 12  1  0  0  0  0
 11 35  1  0  0  0  0
 12 13  2  0  0  0  0
 12 36  1  0  0  0  0
 13 14  1  0  0  0  0
 13 37  1  0  0  0  0
 14 15  1  0  0  0  0
 15 16  1  0  0  0  0
 16 17  1  0  0  0  0
 16 38  1  0  0  0  0
 16 39  1  0  0  0  0
 17 18  1  0  0  0  0
 17 19  1  0  0  0  0
 17 40  1  0  0  0  0
 18 41  1  0  0  0  0
 19 25  1  0  0  0  0
 19 20  2  0  0  0  0
 20 21  1  0  0  0  0
 20 42  1  0  0  0  0
 21 22  2  0  0  0  0
 21 43  1  0  0  0  0
 22 23  1  0  0  0  0
 22 44  1  0  0  0  0
 23 24  1  0  0  0  0
 23 25  2  0  0  0  0
 25 45  1  0  0  0  0
M  END
> <s_m_source_file>
AV-unprocessed.smi

> <i_m_source_file_index>
1667

> <i_lp_mmshare_version>
43012

> <i_f3d_flags>
0

> <s_epik_input>
W0NIM11DKD1PKVtOSF1bQ0BASF0oW0NIM10pYyhuMSluKGMoYzEyKVtjSF1bY0hdW2NIXVtjSF0yKVtDSDJdW0NASF0oW09IXSljM1tjSF1bY0hdW2NIXWMoRilbY0hdMw==

> <s_epik_cmdline>
J2VwaWtfcHl0aG9uJywgJy1waCcsICc3LjAnLCAnLXRuJywgJzgnLCAnLW1hJywgJzIwMCcsICctbWV0YWxfYmluZGluZycsICctaW1hZScsICc8aW5maWxlLm1hZT4nLCAnLW9tYWUnLCAnPG91dGZpbGUubWFlPic=

> <r_epik_Ionization_Penalty>
0.133011

> <r_epik_Ionization_Penalty_Charging>
0

> <r_epik_Ionization_Penalty_Neutral>
0.133011

> <r_epik_State_Penalty>
0.122384

> <r_epik_Charging_Adjusted_Penalty>
0.122384

> <i_epik_Tot_Q>
0

> <i_epik_Tot_abs_Q>
0

> <r_epik_Metal_State_Penalty>
0.0997374

> <b_epik_Metal_Only>
0

> <s_lp_Force_Field>
OPLS_2005

> <r_lp_Energy>
5.5788

> <b_lp_Chiralities_Consistent>
1

> <s_lp_Variant>
AV-unprocessed.smi:1667-3

> <Gold.Version>
5.8.1

> <Gold.Id.Protein>
6NUR|6NUR_protein|mol2

> <Gold.PLP.Fitness>
58.7058

> <Gold.PLP.PLP>
-55.8197

> <Gold.PLP.part.hbond>
-1.9787

> <Gold.PLP.part.metal>
0.0000

> <Gold.PLP.part.buried>
-5.9333

> <Gold.PLP.part.nonpolar>
-49.5890

> <Gold.PLP.part.repulsive>
0.0527

> <Gold.PLP.ligand.clash>
0.0000

> <Gold.PLP.ligand.torsion>
1.1650

> <Gold.PLP.Chemscore.Hbond>
1.7072

> <Gold.PLP.Chemscore.CHOScore>
0.0000

> <Gold.PLP.Chemscore.Metal>
0.0000

> <Gold.Chemscore.Hbonds>
donor molecule, donor type, donor heavy atom, donor atom, acceptor molecule, acceptor atom, score
      P1  H  6896  6909       L1     3  1.00
      P1  H  7989  7998       L1    18  0.88

> <Gold.PLP.Chemscore.Internal.Correction>
0.0945

> <Gold.Rescore>
     Score         DG    S(hbond)    S(metal)    S(lipo)     H(rot)  DE(clash)    DE(int)     intcor
     18.46     -19.41       1.84        0.00     120.80       2.48       0.01       0.93       ----

> <Gold.Chemscore.Fitness>
18.4626

> <Gold.Chemscore.DG>
-19.4103

> <Gold.Chemscore.ZeroCoef>
-5.4800

> <Gold.Chemscore.Hbond>
1.8370

> <Gold.Chemscore.Metal>
0.0000

> <Gold.Chemscore.Lipo>
120.7959

> <Gold.Chemscore.Internal_Hbond>
0.0000

> <Gold.Chemscore.DEClash>
0.0149

> <Gold.Chemscore.DEInternal>
0.9329

> <Gold.Chemscore.Rot>
2.4760

> <Gold.Chemscore.Internal.Correction>
   9.000000E+99

> <Gold.Chemscore.Hbonds>
donor molecule, donor type, donor heavy atom, donor atom, acceptor molecule, acceptor atom, score
      P1  H  6896  6909       L1     3  1.00
      P1  H  7989  7998       L1    18  0.30

> <Gold.Chemscore.Hbond.Weighted>
-6.1357

> <Gold.Chemscore.Metal.Weighted>
-0.0000

> <Gold.Chemscore.Lipo.Weighted>
-14.1331

> <Gold.Chemscore.Internal_Hbond.Weighted>
0.0000

> <Gold.Chemscore.DEClash.Weighted>
0.0149

> <Gold.Chemscore.DEInternal.Weighted>
0.9329

> <Gold.Chemscore.Rot.Weighted>
6.3385

> <Gold.Chemscore.Internal.Correction.Weighted>
   9.000000E+99

> <Gold.Protein.RotatedTorsions>
[ 6907 6896 6895 6894 ] final  166.55 input  -60.11 | X-H torsion
[ 7974 7965 7964 7962 ] final  136.93 input  175.53 | X-H torsion
[ 8008 7997 7996 7995 ] final   80.47 input   59.86 | X-H torsion
[ 10167 10162 10161 10158 ] final -104.60 input  -65.29 | X-H torsion
[ 10718 10713 10712 10709 ] final  -57.98 input   66.30 | X-H torsion
[ 10763 10752 10751 10750 ] final -150.19 input  -60.55 | X-H torsion
[ 11005 11000 10999 10996 ] final  -26.46 input  -57.11 | X-H torsion

> <Gold.Protein.ActiveResidues>
 VAL166  LYS551  ARG553  GLY616  TRP617  ASP618  TYR619  PRO620  LYS621  CYS622 
 ASP623  PHE694  ASN695  SER759  ASP760  ASP761  ALA762  ILE779  LEU786  VAL792 
 PHE793  MET794  SER795  GLU796  ALA797  LYS798  CYS799  TRP800  GLU811  SER814 

> <Gold.Protein.RotatedAtoms>
  151.8772  133.3487  159.3754 H   0  0  0  0  0  0  0  0  0  0  0  0  # atno 6907 bound_to 6896
  150.7137  134.5054  159.5591 H   0  0  0  0  0  0  0  0  0  0  0  0  # atno 6908 bound_to 6896
  152.2599  134.8045  160.0483 H   0  0  0  0  0  0  0  0  0  0  0  0  # atno 6909 bound_to 6896
  144.9517  139.4811  143.5523 H   0  0  0  0  0  0  0  0  0  0  0  0  # atno 7974 bound_to 7965
  155.8840  140.3442  155.5908 H   0  0  0  0  0  0  0  0  0  0  0  0  # atno 8008 bound_to 7997
  155.7688  140.0842  157.2138 H   0  0  0  0  0  0  0  0  0  0  0  0  # atno 8009 bound_to 7997
  154.4027  140.1522  156.2905 H   0  0  0  0  0  0  0  0  0  0  0  0  # atno 8010 bound_to 7997
  140.2075  143.3771  152.1078 H   0  0  0  0  0  0  0  0  0  0  0  0  # atno 10167 bound_to 10162
  156.1169  130.4169  150.0515 H   0  0  0  0  0  0  0  0  0  0  0  0  # atno 10718 bound_to 10713
  154.8134  135.3290  154.7244 H   0  0  0  0  0  0  0  0  0  0  0  0  # atno 10763 bound_to 10752
  153.7889  135.6912  153.4879 H   0  0  0  0  0  0  0  0  0  0  0  0  # atno 10764 bound_to 10752
  153.1930  135.4544  155.0119 H   0  0  0  0  0  0  0  0  0  0  0  0  # atno 10765 bound_to 10752
  140.9031  133.7511  156.0570 H   0  0  0  0  0  0  0  0  0  0  0  0  # atno 11005 bound_to 11000
  146.3323  139.8606  142.8857 LP  0  0  0  0  0  0  0  0  0  0  0  0  # atno 17320 bound_to 7965
  145.2834  141.0145  143.3704 LP  0  0  0  0  0  0  0  0  0  0  0  0  # atno 17321 bound_to 7965
  139.5193  144.7017  151.5474 LP  0  0  0  0  0  0  0  0  0  0  0  0  # atno 17342 bound_to 10162
  140.6347  143.9008  150.6636 LP  0  0  0  0  0  0  0  0  0  0  0  0  # atno 17343 bound_to 10162
  156.8464  130.9443  151.3628 LP  0  0  0  0  0  0  0  0  0  0  0  0  # atno 17370 bound_to 10713
  157.6352  130.8761  149.9347 LP  0  0  0  0  0  0  0  0  0  0  0  0  # atno 17371 bound_to 10713
  140.8205  134.3294  157.5383 LP  0  0  0  0  0  0  0  0  0  0  0  0  # atno 17394 bound_to 11000
  139.8745  134.9306  156.3508 LP  0  0  0  0  0  0  0  0  0  0  0  0  # atno 17395 bound_to 11000

$$$$
