AV-unprocessed.smi:1372|AV-procd|sdf|5583|dock2
  -GOLD-   22720 5183D 1   1.00000     0.00000
 Structure written by MMmdl.
 41 43  0  0  0  0  0  0  0  0  1 V2000
  151.2190  137.1834  155.9638 C   0  0  0  0  0  0  0  0  0  0  0  0
  152.7466  137.6362  156.8822 S   0  0  0  0  0  0  0  0  0  0  0  0
  153.5354  136.4122  157.0908 O   0  0  0  0  0  0  0  0  0  0  0  0
  153.3632  138.7929  156.2151 O   0  0  0  0  0  0  0  0  0  0  0  0
  152.0585  138.1852  158.5067 C   0  0  0  0  0  0  0  0  0  0  0  0
  152.0948  139.6833  158.6270 C   0  0  0  0  0  0  0  0  0  0  0  0
  152.9504  140.2994  159.4450 N   0  0  0  0  0  0  0  0  0  0  0  0
  152.6663  141.6346  159.2438 C   0  0  0  0  0  0  0  0  0  0  0  0
  153.2420  142.7928  159.8134 C   0  0  0  0  0  0  0  0  0  0  0  0
  152.7782  144.0737  159.4482 C   0  0  0  0  0  0  0  0  0  0  0  0
  151.7343  144.2139  158.5108 C   0  0  0  0  0  0  0  0  0  0  0  0
  151.1461  143.0722  157.9332 C   0  0  0  0  0  0  0  0  0  0  0  0
  151.6131  141.7960  158.3014 C   0  0  0  0  0  0  0  0  0  0  0  0
  151.2582  140.5016  157.9337 N   0  0  0  0  0  0  0  0  0  0  0  0
  150.1962  140.1567  156.9962 C   0  0  0  0  0  0  0  0  0  0  0  0
  150.4380  140.7230  155.5828 C   0  0  1  0  0  0  0  0  0  0  0  0
  151.6146  140.1686  155.0287 O   0  0  0  0  0  0  0  0  0  0  0  0
  149.2271  140.5056  154.6897 C   0  0  0  0  0  0  0  0  0  0  0  0
  148.8430  139.1959  154.3297 C   0  0  0  0  0  0  0  0  0  0  0  0
  147.7285  138.9872  153.4942 C   0  0  0  0  0  0  0  0  0  0  0  0
  146.9929  140.0868  153.0120 C   0  0  0  0  0  0  0  0  0  0  0  0
  147.3729  141.3959  153.3651 C   0  0  0  0  0  0  0  0  0  0  0  0
  148.4876  141.6052  154.2003 C   0  0  0  0  0  0  0  0  0  0  0  0
  151.4868  136.8362  154.9661 H   0  0  0  0  0  0  0  0  0  0  0  0
  150.5712  138.0561  155.8810 H   0  0  0  0  0  0  0  0  0  0  0  0
  150.6953  136.3890  156.4951 H   0  0  0  0  0  0  0  0  0  0  0  0
  151.0452  137.7970  158.5774 H   0  0  0  0  0  0  0  0  0  0  0  0
  152.6482  137.7377  159.3065 H   0  0  0  0  0  0  0  0  0  0  0  0
  154.0421  142.6947  160.5320 H   0  0  0  0  0  0  0  0  0  0  0  0
  153.2256  144.9524  159.8893 H   0  0  0  0  0  0  0  0  0  0  0  0
  151.3851  145.1984  158.2361 H   0  0  0  0  0  0  0  0  0  0  0  0
  150.3461  143.1767  157.2153 H   0  0  0  0  0  0  0  0  0  0  0  0
  150.0547  139.0768  156.9748 H   0  0  0  0  0  0  0  0  0  0  0  0
  149.2631  140.5609  157.3912 H   0  0  0  0  0  0  0  0  0  0  0  0
  150.6116  141.7970  155.6643 H   0  0  0  0  0  0  0  0  0  0  0  0
  151.5576  139.2270  155.0854 H   0  0  0  0  0  0  0  0  0  0  0  0
  149.4031  138.3458  154.6914 H   0  0  0  0  0  0  0  0  0  0  0  0
  147.4386  137.9830  153.2220 H   0  0  0  0  0  0  0  0  0  0  0  0
  146.1386  139.9266  152.3709 H   0  0  0  0  0  0  0  0  0  0  0  0
  146.8099  142.2395  152.9942 H   0  0  0  0  0  0  0  0  0  0  0  0
  148.7747  142.6131  154.4628 H   0  0  0  0  0  0  0  0  0  0  0  0
  1  2  1  0  0  0  0
  1 24  1  0  0  0  0
  1 25  1  0  0  0  0
  1 26  1  0  0  0  0
  2  3  2  0  0  0  0
  2  4  2  0  0  0  0
  2  5  1  0  0  0  0
  5  6  1  0  0  0  0
  5 27  1  0  0  0  0
  5 28  1  0  0  0  0
  6 14  1  0  0  0  0
  6  7  2  0  0  0  0
  7  8  1  0  0  0  0
  8 13  2  0  0  0  0
  8  9  1  0  0  0  0
  9 10  2  0  0  0  0
  9 29  1  0  0  0  0
 10 11  1  0  0  0  0
 10 30  1  0  0  0  0
 11 12  2  0  0  0  0
 11 31  1  0  0  0  0
 12 13  1  0  0  0  0
 12 32  1  0  0  0  0
 13 14  1  0  0  0  0
 14 15  1  0  0  0  0
 15 16  1  0  0  0  0
 15 33  1  0  0  0  0
 15 34  1  0  0  0  0
 16 17  1  0  0  0  0
 16 18  1  0  0  0  0
 16 35  1  0  0  0  0
 17 36  1  0  0  0  0
 18 23  1  0  0  0  0
 18 19  2  0  0  0  0
 19 20  1  0  0  0  0
 19 37  1  0  0  0  0
 20 21  2  0  0  0  0
 20 38  1  0  0  0  0
 21 22  1  0  0  0  0
 21 39  1  0  0  0  0
 22 23  2  0  0  0  0
 22 40  1  0  0  0  0
 23 41  1  0  0  0  0
M  END
> <s_m_source_file>
AV-unprocessed.smi

> <i_m_source_file_index>
1372

> <i_lp_mmshare_version>
43012

> <i_f3d_flags>
0

> <s_epik_input>
W2NIXTFbY0hdW2NIXVtjSF1jKGMxMiluKGMobjIpW0NIMl1TKD1PKSg9TylbQ0gzXSlbQ0gyXVtDQEhdKFtPSF0pYzNbY0hdW2NIXVtjSF1bY0hdW2NIXTM=

> <s_epik_cmdline>
J2VwaWtfcHl0aG9uJywgJy1waCcsICc3LjAnLCAnLXRuJywgJzgnLCAnLW1hJywgJzIwMCcsICctbWV0YWxfYmluZGluZycsICctaW1hZScsICc8aW5maWxlLm1hZT4nLCAnLW9tYWUnLCAnPG91dGZpbGUubWFlPic=

> <r_epik_Ionization_Penalty>
0.0151431

> <r_epik_Ionization_Penalty_Charging>
0

> <r_epik_Ionization_Penalty_Neutral>
0.0151431

> <r_epik_State_Penalty>
0.0118835

> <r_epik_Charging_Adjusted_Penalty>
0.0118835

> <i_epik_Tot_Q>
0

> <i_epik_Tot_abs_Q>
0

> <r_epik_Metal_State_Penalty>
1.20034e-05

> <b_epik_Metal_Only>
0

> <s_lp_Force_Field>
OPLS_2005

> <r_lp_Energy>
10.2865

> <b_lp_Chiralities_Consistent>
1

> <s_lp_Variant>
AV-unprocessed.smi:1372-2

> <Gold.Version>
5.8.1

> <Gold.Id.Protein>
6NUR|6NUR_protein|mol2

> <Gold.PLP.Fitness>
55.0072

> <Gold.PLP.PLP>
-46.7981

> <Gold.PLP.part.hbond>
-3.0000

> <Gold.PLP.part.metal>
0.0000

> <Gold.PLP.part.buried>
-5.4241

> <Gold.PLP.part.nonpolar>
-38.4934

> <Gold.PLP.part.repulsive>
0.0000

> <Gold.PLP.ligand.clash>
0.0000

> <Gold.PLP.ligand.torsion>
0.4752

> <Gold.PLP.Chemscore.Hbond>
2.9920

> <Gold.PLP.Chemscore.CHOScore>
0.0000

> <Gold.PLP.Chemscore.Metal>
0.0000

> <Gold.Chemscore.Hbonds>
donor molecule, donor type, donor heavy atom, donor atom, acceptor molecule, acceptor atom, score
      P1  H  7989  7998       L1    17  0.99
      P1  H  7997  8009       L1     4  0.99
      P1  H 10752 10763       L1     3  1.00

> <Gold.PLP.Chemscore.Internal.Correction>
0.1834

> <Gold.Rescore>
     Score         DG    S(hbond)    S(metal)    S(lipo)     H(rot)  DE(clash)    DE(int)     intcor
     22.29     -22.69       2.68        0.00     121.51       2.33       0.00       0.40       ----

> <Gold.Chemscore.Fitness>
22.2940

> <Gold.Chemscore.DG>
-22.6942

> <Gold.Chemscore.ZeroCoef>
-5.4800

> <Gold.Chemscore.Hbond>
2.6838

> <Gold.Chemscore.Metal>
0.0000

> <Gold.Chemscore.Lipo>
121.5102

> <Gold.Chemscore.Internal_Hbond>
0.0000

> <Gold.Chemscore.DEClash>
0.0000

> <Gold.Chemscore.DEInternal>
0.4002

> <Gold.Chemscore.Rot>
2.3306

> <Gold.Chemscore.Internal.Correction>
   9.000000E+99

> <Gold.Chemscore.Hbonds>
donor molecule, donor type, donor heavy atom, donor atom, acceptor molecule, acceptor atom, score
      P1  H  7989  7998       L1    17  0.31
      P1  H  7997  8009       L1     4  0.94
      P1  H 10752 10763       L1     3  0.81

> <Gold.Chemscore.Hbond.Weighted>
-8.9639

> <Gold.Chemscore.Metal.Weighted>
-0.0000

> <Gold.Chemscore.Lipo.Weighted>
-14.2167

> <Gold.Chemscore.Internal_Hbond.Weighted>
0.0000

> <Gold.Chemscore.DEClash.Weighted>
0.0000

> <Gold.Chemscore.DEInternal.Weighted>
0.4002

> <Gold.Chemscore.Rot.Weighted>
5.9664

> <Gold.Chemscore.Internal.Correction.Weighted>
   9.000000E+99

> <Gold.Protein.RotatedTorsions>
[ 6907 6896 6895 6894 ] final  -93.63 input  -60.11 | X-H torsion
[ 7974 7965 7964 7962 ] final  104.18 input  175.53 | X-H torsion
[ 8008 7997 7996 7995 ] final -163.11 input   59.86 | X-H torsion
[ 10167 10162 10161 10158 ] final  -41.39 input  -65.29 | X-H torsion
[ 10718 10713 10712 10709 ] final  108.65 input   66.30 | X-H torsion
[ 10763 10752 10751 10750 ] final  136.84 input  -60.55 | X-H torsion
[ 11005 11000 10999 10996 ] final  140.43 input  -57.11 | X-H torsion

> <Gold.Protein.ActiveResidues>
 VAL166  LYS551  ARG553  GLY616  TRP617  ASP618  TYR619  PRO620  LYS621  CYS622 
 ASP623  PHE694  ASN695  SER759  ASP760  ASP761  ALA762  ILE779  LEU786  VAL792 
 PHE793  MET794  SER795  GLU796  ALA797  LYS798  CYS799  TRP800  GLU811  SER814 

> <Gold.Protein.RotatedAtoms>
  150.6926  134.1937  159.4294 H   0  0  0  0  0  0  0  0  0  0  0  0  # atno 6907 bound_to 6896
  151.9907  134.9978  160.0570 H   0  0  0  0  0  0  0  0  0  0  0  0  # atno 6908 bound_to 6896
  152.1670  133.4584  159.4927 H   0  0  0  0  0  0  0  0  0  0  0  0  # atno 6909 bound_to 6896
  145.3362  139.2474  143.3634 H   0  0  0  0  0  0  0  0  0  0  0  0  # atno 7974 bound_to 7965
  155.8166  140.0913  157.1873 H   0  0  0  0  0  0  0  0  0  0  0  0  # atno 8008 bound_to 7997
  154.3979  140.1444  156.3510 H   0  0  0  0  0  0  0  0  0  0  0  0  # atno 8009 bound_to 7997
  155.8310  140.3442  155.5575 H   0  0  0  0  0  0  0  0  0  0  0  0  # atno 8010 bound_to 7997
  140.7004  143.3097  151.3060 H   0  0  0  0  0  0  0  0  0  0  0  0  # atno 10167 bound_to 10162
  157.6577  131.0898  150.6337 H   0  0  0  0  0  0  0  0  0  0  0  0  # atno 10718 bound_to 10713
  153.8631  135.3065  155.3439 H   0  0  0  0  0  0  0  0  0  0  0  0  # atno 10763 bound_to 10752
  154.7840  135.4820  153.9908 H   0  0  0  0  0  0  0  0  0  0  0  0  # atno 10764 bound_to 10752
  153.1450  135.6832  153.9064 H   0  0  0  0  0  0  0  0  0  0  0  0  # atno 10765 bound_to 10752
  140.0327  134.9344  157.0693 H   0  0  0  0  0  0  0  0  0  0  0  0  # atno 11005 bound_to 11000
  146.3026  140.3950  142.8698 LP  0  0  0  0  0  0  0  0  0  0  0  0  # atno 17320 bound_to 7965
  144.8826  140.7420  143.5977 LP  0  0  0  0  0  0  0  0  0  0  0  0  # atno 17321 bound_to 7965
  139.6515  144.0353  152.2630 LP  0  0  0  0  0  0  0  0  0  0  0  0  # atno 17342 bound_to 10162
  139.9891  144.6374  150.7831 LP  0  0  0  0  0  0  0  0  0  0  0  0  # atno 17343 bound_to 10162
  156.6642  130.4521  149.5677 LP  0  0  0  0  0  0  0  0  0  0  0  0  # atno 17370 bound_to 10713
  156.2044  130.6640  151.1203 LP  0  0  0  0  0  0  0  0  0  0  0  0  # atno 17371 bound_to 10713
  140.4199  134.1892  155.7164 LP  0  0  0  0  0  0  0  0  0  0  0  0  # atno 17394 bound_to 11000
  141.1840  133.8353  157.1155 LP  0  0  0  0  0  0  0  0  0  0  0  0  # atno 17395 bound_to 11000

$$$$
