AV-unprocessed.smi:2788|AV-procd|sdf|10760|dock9
  -GOLD-   2272015193D 1   1.00000     0.00000
 Structure written by MMmdl.
 47 48  0  0  0  0  0  0  0  0  1 V2000
  151.4625  130.8952  154.9924 C   0  0  0  0  0  0  0  0  0  0  0  0
  151.3414  132.3654  155.2757 C   0  0  0  0  0  0  0  0  0  0  0  0
  151.8709  132.8561  156.3833 N   0  0  0  0  0  0  0  0  0  0  0  0
  151.6119  134.2297  156.3566 O   0  0  0  0  0  0  0  0  0  0  0  0
  150.9304  134.5162  155.2186 C   0  0  0  0  0  0  0  0  0  0  0  0
  150.5684  135.9458  154.9979 C   0  0  0  0  0  0  0  0  0  0  0  0
  150.7249  133.3796  154.4861 C   0  0  0  0  0  0  0  0  0  0  0  0
  150.0250  133.2350  153.1583 C   0  0  0  0  0  0  0  0  0  0  0  0
  148.5270  133.0269  153.3802 C   0  0  0  0  0  0  0  0  0  0  0  0
  148.1397  132.0574  154.0300 O   0  0  0  0  0  0  0  0  0  0  0  0
  147.7207  133.9484  152.8212 N   0  0  0  0  0  0  0  0  0  0  0  0
  146.2551  134.0900  152.8292 C   0  0  1  0  0  0  0  0  0  0  0  0
  145.6548  133.8484  154.2412 C   0  0  0  0  0  0  0  0  0  0  0  0
  146.0117  135.5899  152.5002 C   0  0  0  0  0  0  0  0  0  0  0  0
  146.8096  136.4624  153.2755 O   0  0  0  0  0  0  0  0  0  0  0  0
  145.6064  133.1513  151.7464 C   0  0  0  0  0  0  0  0  0  0  0  0
  146.3137  133.1683  150.3653 C   0  0  0  0  0  0  0  0  0  0  0  0
  145.6929  132.1618  149.3839 C   0  0  0  0  0  0  0  0  0  0  0  0
  144.1949  132.4280  149.1924 C   0  0  0  0  0  0  0  0  0  0  0  0
  143.4654  132.4100  150.5413 C   0  0  0  0  0  0  0  0  0  0  0  0
  144.0899  133.4068  151.5314 C   0  0  0  0  0  0  0  0  0  0  0  0
  150.6406  130.5412  154.3705 H   0  0  0  0  0  0  0  0  0  0  0  0
  151.4530  130.3097  155.9123 H   0  0  0  0  0  0  0  0  0  0  0  0
  152.3933  130.6772  154.4683 H   0  0  0  0  0  0  0  0  0  0  0  0
  151.3074  136.4354  154.3638 H   0  0  0  0  0  0  0  0  0  0  0  0
  150.5192  136.4875  155.9427 H   0  0  0  0  0  0  0  0  0  0  0  0
  149.5966  136.0306  154.5117 H   0  0  0  0  0  0  0  0  0  0  0  0
  150.1700  134.1126  152.5280 H   0  0  0  0  0  0  0  0  0  0  0  0
  150.4223  132.3923  152.5917 H   0  0  0  0  0  0  0  0  0  0  0  0
  148.2000  134.6782  152.3145 H   0  0  0  0  0  0  0  0  0  0  0  0
  144.5805  134.0343  154.2490 H   0  0  0  0  0  0  0  0  0  0  0  0
  146.1024  134.5144  154.9798 H   0  0  0  0  0  0  0  0  0  0  0  0
  145.7909  132.8339  154.6089 H   0  0  0  0  0  0  0  0  0  0  0  0
  146.2226  135.7858  151.4478 H   0  0  0  0  0  0  0  0  0  0  0  0
  144.9673  135.8671  152.6433 H   0  0  0  0  0  0  0  0  0  0  0  0
  147.7111  136.3614  153.0102 H   0  0  0  0  0  0  0  0  0  0  0  0
  145.7044  132.1296  152.1155 H   0  0  0  0  0  0  0  0  0  0  0  0
  146.2551  134.1611  149.9210 H   0  0  0  0  0  0  0  0  0  0  0  0
  147.3719  132.9329  150.4646 H   0  0  0  0  0  0  0  0  0  0  0  0
  146.2046  132.2176  148.4226 H   0  0  0  0  0  0  0  0  0  0  0  0
  145.8418  131.1470  149.7549 H   0  0  0  0  0  0  0  0  0  0  0  0
  144.0524  133.3960  148.7100 H   0  0  0  0  0  0  0  0  0  0  0  0
  143.7647  131.6810  148.5248 H   0  0  0  0  0  0  0  0  0  0  0  0
  142.4105  132.6438  150.3950 H   0  0  0  0  0  0  0  0  0  0  0  0
  143.5026  131.4051  150.9635 H   0  0  0  0  0  0  0  0  0  0  0  0
  143.5436  133.3250  152.4696 H   0  0  0  0  0  0  0  0  0  0  0  0
  143.9282  134.4222  151.1677 H   0  0  0  0  0  0  0  0  0  0  0  0
  1  2  1  0  0  0  0
  1 22  1  0  0  0  0
  1 23  1  0  0  0  0
  1 24  1  0  0  0  0
  2  7  1  0  0  0  0
  2  3  2  0  0  0  0
  3  4  1  0  0  0  0
  4  5  1  0  0  0  0
  5  6  1  0  0  0  0
  5  7  2  0  0  0  0
  6 25  1  0  0  0  0
  6 26  1  0  0  0  0
  6 27  1  0  0  0  0
  7  8  1  0  0  0  0
  8  9  1  0  0  0  0
  8 28  1  0  0  0  0
  8 29  1  0  0  0  0
  9 10  2  0  0  0  0
  9 11  1  0  0  0  0
 11 12  1  0  0  0  0
 11 30  1  0  0  0  0
 12 13  1  0  0  0  0
 12 14  1  0  0  0  0
 12 16  1  0  0  0  0
 13 31  1  0  0  0  0
 13 32  1  0  0  0  0
 13 33  1  0  0  0  0
 14 15  1  0  0  0  0
 14 34  1  0  0  0  0
 14 35  1  0  0  0  0
 15 36  1  0  0  0  0
 16 21  1  0  0  0  0
 16 17  1  0  0  0  0
 16 37  1  0  0  0  0
 17 18  1  0  0  0  0
 17 38  1  0  0  0  0
 17 39  1  0  0  0  0
 18 19  1  0  0  0  0
 18 40  1  0  0  0  0
 18 41  1  0  0  0  0
 19 20  1  0  0  0  0
 19 42  1  0  0  0  0
 19 43  1  0  0  0  0
 20 21  1  0  0  0  0
 20 44  1  0  0  0  0
 20 45  1  0  0  0  0
 21 46  1  0  0  0  0
 21 47  1  0  0  0  0
M  END
> <s_m_source_file>
AV-unprocessed.smi

> <i_m_source_file_index>
2788

> <i_lp_mmshare_version>
43012

> <i_f3d_flags>
0

> <s_epik_input>
W0NIM11jMW5vYyhbQ0gzXSljMVtDSDJdQyg9TylbTkhdW0NAQF0oW0NIM10pKFtDSDJdW09IXSlbQ0hdMltDSDJdW0NIMl1bQ0gyXVtDSDJdW0NIMl0y

> <s_epik_cmdline>
J2VwaWtfcHl0aG9uJywgJy1waCcsICc3LjAnLCAnLXRuJywgJzgnLCAnLW1hJywgJzIwMCcsICctbWV0YWxfYmluZGluZycsICctaW1hZScsICc8aW5maWxlLm1hZT4nLCAnLW9tYWUnLCAnPG91dGZpbGUubWFlPic=

> <r_lp_tautomer_probability>
1

> <r_epik_Ionization_Penalty>
1.3408e-07

> <r_epik_Ionization_Penalty_Charging>
0

> <r_epik_Ionization_Penalty_Neutral>
1.3408e-07

> <r_epik_State_Penalty>
-0

> <r_epik_Charging_Adjusted_Penalty>
0

> <i_epik_Tot_Q>
0

> <i_epik_Tot_abs_Q>
0

> <r_epik_Metal_State_Penalty>
-0

> <b_epik_Metal_Only>
0

> <s_lp_Force_Field>
OPLS_2005

> <r_lp_Energy>
15.0378

> <b_lp_Chiralities_Consistent>
1

> <s_lp_Variant>
AV-unprocessed.smi:2788-1

> <Gold.Version>
5.8.1

> <Gold.Id.Protein>
6NUR|6NUR_protein|mol2

> <Gold.PLP.Fitness>
44.3441

> <Gold.PLP.PLP>
-38.1246

> <Gold.PLP.part.hbond>
-4.0000

> <Gold.PLP.part.metal>
0.0000

> <Gold.PLP.part.buried>
-5.3322

> <Gold.PLP.part.nonpolar>
-29.1913

> <Gold.PLP.part.repulsive>
0.0211

> <Gold.PLP.ligand.clash>
0.0000

> <Gold.PLP.ligand.torsion>
1.0127

> <Gold.PLP.Chemscore.Hbond>
2.7200

> <Gold.PLP.Chemscore.CHOScore>
0.0000

> <Gold.PLP.Chemscore.Metal>
0.0000

> <Gold.Chemscore.Hbonds>
donor molecule, donor type, donor heavy atom, donor atom, acceptor molecule, acceptor atom, score
      L1  H    11    30       P1  7948  1.00
      L1  H    15    36       P1  7948  1.00
      P1  H 10752 10763       L1     4  0.02

> <Gold.PLP.Chemscore.Internal.Correction>
0.0848

> <Gold.Rescore>
     Score         DG    S(hbond)    S(metal)    S(lipo)     H(rot)  DE(clash)    DE(int)     intcor
     16.79     -18.74       2.51        0.00      90.48       2.24       0.06       1.89       ----

> <Gold.Chemscore.Fitness>
16.7912

> <Gold.Chemscore.DG>
-18.7418

> <Gold.Chemscore.ZeroCoef>
-5.4800

> <Gold.Chemscore.Hbond>
2.5147

> <Gold.Chemscore.Metal>
0.0000

> <Gold.Chemscore.Lipo>
90.4790

> <Gold.Chemscore.Internal_Hbond>
0.0000

> <Gold.Chemscore.DEClash>
0.0628

> <Gold.Chemscore.DEInternal>
1.8878

> <Gold.Chemscore.Rot>
2.2357

> <Gold.Chemscore.Internal.Correction>
   9.000000E+99

> <Gold.Chemscore.Hbonds>
donor molecule, donor type, donor heavy atom, donor atom, acceptor molecule, acceptor atom, score
      L1  H    11    30       P1  7948  0.26
      L1  H    15    36       P1  7948  0.97

> <Gold.Chemscore.Hbond.Weighted>
-8.3992

> <Gold.Chemscore.Metal.Weighted>
-0.0000

> <Gold.Chemscore.Lipo.Weighted>
-10.5860

> <Gold.Chemscore.Internal_Hbond.Weighted>
0.0000

> <Gold.Chemscore.DEClash.Weighted>
0.0628

> <Gold.Chemscore.DEInternal.Weighted>
1.8878

> <Gold.Chemscore.Rot.Weighted>
5.7235

> <Gold.Chemscore.Internal.Correction.Weighted>
   9.000000E+99

> <Gold.Protein.RotatedTorsions>
[ 6907 6896 6895 6894 ] final   88.04 input  -60.11 | X-H torsion
[ 7974 7965 7964 7962 ] final   39.18 input  175.53 | X-H torsion
[ 8008 7997 7996 7995 ] final  -98.76 input   59.86 | X-H torsion
[ 10167 10162 10161 10158 ] final  -49.41 input  -65.29 | X-H torsion
[ 10718 10713 10712 10709 ] final -173.42 input   66.30 | X-H torsion
[ 10763 10752 10751 10750 ] final  108.33 input  -60.55 | X-H torsion
[ 11005 11000 10999 10996 ] final  -28.68 input  -57.11 | X-H torsion

> <Gold.Protein.ActiveResidues>
 VAL166  LYS551  ARG553  GLY616  TRP617  ASP618  TYR619  PRO620  LYS621  CYS622 
 ASP623  PHE694  ASN695  SER759  ASP760  ASP761  ALA762  ILE779  LEU786  VAL792 
 PHE793  MET794  SER795  GLU796  ALA797  LYS798  CYS799  TRP800  GLU811  SER814 

> <Gold.Protein.RotatedAtoms>
  152.5420  134.2183  159.8777 H   0  0  0  0  0  0  0  0  0  0  0  0  # atno 6907 bound_to 6896
  151.2162  133.4521  159.2607 H   0  0  0  0  0  0  0  0  0  0  0  0  # atno 6908 bound_to 6896
  151.0849  134.9894  159.8430 H   0  0  0  0  0  0  0  0  0  0  0  0  # atno 6909 bound_to 6896
  146.1005  139.5683  142.9417 H   0  0  0  0  0  0  0  0  0  0  0  0  # atno 7974 bound_to 7965
  154.8056  140.0453  157.1305 H   0  0  0  0  0  0  0  0  0  0  0  0  # atno 8008 bound_to 7997
  154.9428  140.3055  155.5092 H   0  0  0  0  0  0  0  0  0  0  0  0  # atno 8009 bound_to 7997
  156.2966  140.2302  156.4499 H   0  0  0  0  0  0  0  0  0  0  0  0  # atno 8010 bound_to 7997
  140.6686  143.2699  151.4212 H   0  0  0  0  0  0  0  0  0  0  0  0  # atno 10167 bound_to 10162
  156.7700  130.9445  151.3120 H   0  0  0  0  0  0  0  0  0  0  0  0  # atno 10718 bound_to 10713
  153.4192  135.3815  155.2100 H   0  0  0  0  0  0  0  0  0  0  0  0  # atno 10763 bound_to 10752
  154.8743  135.3813  154.4405 H   0  0  0  0  0  0  0  0  0  0  0  0  # atno 10764 bound_to 10752
  153.4923  135.7088  153.5940 H   0  0  0  0  0  0  0  0  0  0  0  0  # atno 10765 bound_to 10752
  140.9230  133.7387  156.0828 H   0  0  0  0  0  0  0  0  0  0  0  0  # atno 11005 bound_to 11000
  145.5864  141.0375  143.2094 LP  0  0  0  0  0  0  0  0  0  0  0  0  # atno 17320 bound_to 7965
  144.7429  139.7400  143.7304 LP  0  0  0  0  0  0  0  0  0  0  0  0  # atno 17321 bound_to 7965
  139.5945  144.1428  152.2127 LP  0  0  0  0  0  0  0  0  0  0  0  0  # atno 17342 bound_to 10162
  140.0793  144.5714  150.7134 LP  0  0  0  0  0  0  0  0  0  0  0  0  # atno 17343 bound_to 10162
  157.6695  130.9038  150.0008 LP  0  0  0  0  0  0  0  0  0  0  0  0  # atno 17370 bound_to 10713
  156.1284  130.3644  149.9772 LP  0  0  0  0  0  0  0  0  0  0  0  0  # atno 17371 bound_to 10713
  140.7963  134.3560  157.5451 LP  0  0  0  0  0  0  0  0  0  0  0  0  # atno 17394 bound_to 11000
  139.8779  134.9171  156.3170 LP  0  0  0  0  0  0  0  0  0  0  0  0  # atno 17395 bound_to 11000

$$$$
