AV-unprocessed.smi:3325|AV-procd|sdf|12784|dock4
  -GOLD-   2272019133D 1   1.00000     0.00000
 Structure written by MMmdl.
 44 45  0  0  0  0  0  0  0  0  2 V2000
  144.9539  144.9744  152.9088 C   0  0  0  0  0  0  0  0  0  0  0  0
  144.4038  144.2192  154.1280 C   0  0  0  0  0  0  0  0  0  0  0  0
  144.1538  145.1334  155.3364 C   0  0  0  0  0  0  0  0  0  0  0  0
  145.2627  143.0466  154.4908 C   0  0  0  0  0  0  0  0  0  0  0  0
  144.9510  142.2527  155.5088 N   0  0  0  0  0  0  0  0  0  0  0  0
  145.9949  141.3171  155.5251 O   0  0  0  0  0  0  0  0  0  0  0  0
  146.8076  141.6536  154.4958 C   0  0  0  0  0  0  0  0  0  0  0  0
  148.0636  140.8745  154.2827 C   0  0  0  0  0  0  0  0  0  0  0  0
  149.3325  141.6947  154.5596 C   0  0  0  0  0  0  0  0  0  0  0  0
  149.4495  142.0524  155.9882 N   0  3  0  0  0  0  0  0  0  0  0  0
  150.6999  141.5941  156.6252 C   0  0  0  0  0  0  0  0  0  0  0  0
  151.0159  142.4002  157.8986 C   0  0  0  0  0  0  0  0  0  0  0  0
  151.5568  143.8102  157.5733 C   0  0  0  0  0  0  0  0  0  0  0  0
  151.8858  144.6017  158.8495 C   0  0  0  0  0  0  0  0  0  0  0  0
  152.8760  143.8371  159.7404 C   0  0  0  0  0  0  0  0  0  0  0  0
  152.3497  142.4330  160.0716 C   0  0  0  0  0  0  0  0  0  0  0  0
  152.0213  141.6454  158.7925 C   0  0  0  0  0  0  0  0  0  0  0  0
  146.4153  142.7376  153.8319 N   0  0  0  0  0  0  0  0  0  0  0  0
  145.0522  144.3120  152.0481 H   0  0  0  0  0  0  0  0  0  0  0  0
  145.9356  145.4016  153.1150 H   0  0  0  0  0  0  0  0  0  0  0  0
  144.2911  145.7911  152.6223 H   0  0  0  0  0  0  0  0  0  0  0  0
  143.4291  143.8279  153.8312 H   0  0  0  0  0  0  0  0  0  0  0  0
  143.6917  144.5819  156.1558 H   0  0  0  0  0  0  0  0  0  0  0  0
  143.4868  145.9554  155.0753 H   0  0  0  0  0  0  0  0  0  0  0  0
  145.0835  145.5658  155.7075 H   0  0  0  0  0  0  0  0  0  0  0  0
  148.0412  140.0004  154.9345 H   0  0  0  0  0  0  0  0  0  0  0  0
  148.0740  140.4962  153.2597 H   0  0  0  0  0  0  0  0  0  0  0  0
  150.2143  141.1310  154.2514 H   0  0  0  0  0  0  0  0  0  0  0  0
  149.3133  142.6098  153.9667 H   0  0  0  0  0  0  0  0  0  0  0  0
  149.3967  143.0577  156.0735 H   0  0  0  0  0  0  0  0  0  0  0  0
  150.5891  140.5377  156.8745 H   0  0  0  0  0  0  0  0  0  0  0  0
  151.5243  141.6690  155.9147 H   0  0  0  0  0  0  0  0  0  0  0  0
  150.0902  142.5112  158.4663 H   0  0  0  0  0  0  0  0  0  0  0  0
  152.4539  143.7285  156.9575 H   0  0  0  0  0  0  0  0  0  0  0  0
  150.8300  144.3700  156.9843 H   0  0  0  0  0  0  0  0  0  0  0  0
  152.3000  145.5755  158.5863 H   0  0  0  0  0  0  0  0  0  0  0  0
  150.9682  144.7969  159.4060 H   0  0  0  0  0  0  0  0  0  0  0  0
  153.8384  143.7565  159.2330 H   0  0  0  0  0  0  0  0  0  0  0  0
  153.0566  144.3939  160.6603 H   0  0  0  0  0  0  0  0  0  0  0  0
  153.0873  141.8904  160.6639 H   0  0  0  0  0  0  0  0  0  0  0  0
  151.4559  142.5143  160.6914 H   0  0  0  0  0  0  0  0  0  0  0  0
  151.6209  140.6680  159.0634 H   0  0  0  0  0  0  0  0  0  0  0  0
  152.9409  141.4575  158.2367 H   0  0  0  0  0  0  0  0  0  0  0  0
  148.6696  141.6468  156.4864 H   0  0  0  0  0  0  0  0  0  0  0  0
  1  2  1  0  0  0  0
  1 19  1  0  0  0  0
  1 20  1  0  0  0  0
  1 21  1  0  0  0  0
  2  3  1  0  0  0  0
  2  4  1  0  0  0  0
  2 22  1  0  0  0  0
  3 23  1  0  0  0  0
  3 24  1  0  0  0  0
  3 25  1  0  0  0  0
  4 18  1  0  0  0  0
  4  5  2  0  0  0  0
  5  6  1  0  0  0  0
  6  7  1  0  0  0  0
  7  8  1  0  0  0  0
  7 18  2  0  0  0  0
  8  9  1  0  0  0  0
  8 26  1  0  0  0  0
  8 27  1  0  0  0  0
  9 10  1  0  0  0  0
  9 28  1  0  0  0  0
  9 29  1  0  0  0  0
 10 11  1  0  0  0  0
 10 30  1  0  0  0  0
 10 44  1  0  0  0  0
 11 12  1  0  0  0  0
 11 31  1  0  0  0  0
 11 32  1  0  0  0  0
 12 17  1  0  0  0  0
 12 13  1  0  0  0  0
 12 33  1  0  0  0  0
 13 14  1  0  0  0  0
 13 34  1  0  0  0  0
 13 35  1  0  0  0  0
 14 15  1  0  0  0  0
 14 36  1  0  0  0  0
 14 37  1  0  0  0  0
 15 16  1  0  0  0  0
 15 38  1  0  0  0  0
 15 39  1  0  0  0  0
 16 17  1  0  0  0  0
 16 40  1  0  0  0  0
 16 41  1  0  0  0  0
 17 42  1  0  0  0  0
 17 43  1  0  0  0  0
M  CHG  1  10   1
M  END
> <s_m_source_file>
AV-unprocessed.smi

> <i_m_source_file_index>
3325

> <i_lp_mmshare_version>
43012

> <i_f3d_flags>
0

> <s_epik_input>
W0NIM11bQ0hdKFtDSDNdKWMxbm9jKG4xKVtDSDJdW0NIMl1bTkhdW0NIMl1bQ0hdMltDSDJdW0NIMl1bQ0gyXVtDSDJdW0NIMl0y

> <s_epik_cmdline>
J2VwaWtfcHl0aG9uJywgJy1waCcsICc3LjAnLCAnLXRuJywgJzgnLCAnLW1hJywgJzIwMCcsICctbWV0YWxfYmluZGluZycsICctaW1hZScsICc8aW5maWxlLm1hZT4nLCAnLW9tYWUnLCAnPG91dGZpbGUubWFlPic=

> <r_lp_tautomer_probability>
1

> <r_epik_Ionization_Penalty>
0.00142412

> <r_epik_Ionization_Penalty_Charging>
0.00142412

> <r_epik_Ionization_Penalty_Neutral>
2.66011e-13

> <r_epik_State_Penalty>
0.000950746

> <r_epik_Charging_Adjusted_Penalty>
0.00237487

> <i_epik_Tot_Q>
1

> <i_epik_Tot_abs_Q>
1

> <r_epik_Metal_State_Penalty>
-0

> <b_epik_Metal_Only>
0

> <s_lp_Force_Field>
OPLS_2005

> <r_lp_Energy>
7.21373

> <b_lp_Chiralities_Consistent>
1

> <s_lp_Variant>
AV-unprocessed.smi:3325-1

> <Gold.Version>
5.8.1

> <Gold.Id.Protein>
6NUR|6NUR_protein|mol2

> <Gold.PLP.Fitness>
46.1068

> <Gold.PLP.PLP>
-41.3640

> <Gold.PLP.part.hbond>
-1.0000

> <Gold.PLP.part.metal>
0.0000

> <Gold.PLP.part.buried>
-3.2763

> <Gold.PLP.part.nonpolar>
-37.0052

> <Gold.PLP.part.repulsive>
0.5176

> <Gold.PLP.ligand.clash>
0.0000

> <Gold.PLP.ligand.torsion>
0.7041

> <Gold.PLP.Chemscore.Hbond>
2.0000

> <Gold.PLP.Chemscore.CHOScore>
0.0000

> <Gold.PLP.Chemscore.Metal>
0.0000

> <Gold.Chemscore.Hbonds>
donor molecule, donor type, donor heavy atom, donor atom, acceptor molecule, acceptor atom, score
      L1  H    10    30       P1  8028  2.00

> <Gold.PLP.Chemscore.Internal.Correction>
0.1509

> <Gold.Rescore>
     Score         DG    S(hbond)    S(metal)    S(lipo)     H(rot)  DE(clash)    DE(int)     intcor
     16.12     -16.82       1.00        0.00     109.19       1.86       0.01       0.69       ----

> <Gold.Chemscore.Fitness>
16.1176

> <Gold.Chemscore.DG>
-16.8236

> <Gold.Chemscore.ZeroCoef>
-5.4800

> <Gold.Chemscore.Hbond>
0.9968

> <Gold.Chemscore.Metal>
0.0000

> <Gold.Chemscore.Lipo>
109.1900

> <Gold.Chemscore.Internal_Hbond>
0.0000

> <Gold.Chemscore.DEClash>
0.0119

> <Gold.Chemscore.DEInternal>
0.6941

> <Gold.Chemscore.Rot>
1.8597

> <Gold.Chemscore.Internal.Correction>
   9.000000E+99

> <Gold.Chemscore.Hbonds>
donor molecule, donor type, donor heavy atom, donor atom, acceptor molecule, acceptor atom, score
      L1  H    10    30       P1  8028  0.99

> <Gold.Chemscore.Hbond.Weighted>
-3.3294

> <Gold.Chemscore.Metal.Weighted>
-0.0000

> <Gold.Chemscore.Lipo.Weighted>
-12.7752

> <Gold.Chemscore.Internal_Hbond.Weighted>
0.0000

> <Gold.Chemscore.DEClash.Weighted>
0.0119

> <Gold.Chemscore.DEInternal.Weighted>
0.6941

> <Gold.Chemscore.Rot.Weighted>
4.7610

> <Gold.Chemscore.Internal.Correction.Weighted>
   9.000000E+99

> <Gold.Protein.RotatedTorsions>
[ 6907 6896 6895 6894 ] final   73.38 input  -60.11 | X-H torsion
[ 7974 7965 7964 7962 ] final   22.84 input  175.53 | X-H torsion
[ 8008 7997 7996 7995 ] final  155.25 input   59.86 | X-H torsion
[ 10167 10162 10161 10158 ] final  -58.48 input  -65.29 | X-H torsion
[ 10718 10713 10712 10709 ] final -104.84 input   66.30 | X-H torsion
[ 10763 10752 10751 10750 ] final -172.78 input  -60.55 | X-H torsion
[ 11005 11000 10999 10996 ] final -131.27 input  -57.11 | X-H torsion

> <Gold.Protein.ActiveResidues>
 VAL166  LYS551  ARG553  GLY616  TRP617  ASP618  TYR619  PRO620  LYS621  CYS622 
 ASP623  PHE694  ASN695  SER759  ASP760  ASP761  ALA762  ILE779  LEU786  VAL792 
 PHE793  MET794  SER795  GLU796  ALA797  LYS798  CYS799  TRP800  GLU811  SER814 

> <Gold.Protein.RotatedAtoms>
  152.4920  134.4430  159.9549 H   0  0  0  0  0  0  0  0  0  0  0  0  # atno 6907 bound_to 6896
  151.4415  133.3636  159.2790 H   0  0  0  0  0  0  0  0  0  0  0  0  # atno 6908 bound_to 6896
  150.9084  134.8524  159.7468 H   0  0  0  0  0  0  0  0  0  0  0  0  # atno 6909 bound_to 6896
  146.2011  139.7829  142.8761 H   0  0  0  0  0  0  0  0  0  0  0  0  # atno 7974 bound_to 7965
  156.2488  140.1944  156.6773 H   0  0  0  0  0  0  0  0  0  0  0  0  # atno 8008 bound_to 7997
  154.6348  140.0591  156.9801 H   0  0  0  0  0  0  0  0  0  0  0  0  # atno 8009 bound_to 7997
  155.1654  140.3263  155.4406 H   0  0  0  0  0  0  0  0  0  0  0  0  # atno 8010 bound_to 7997
  140.6194  143.2414  151.5517 H   0  0  0  0  0  0  0  0  0  0  0  0  # atno 10167 bound_to 10162
  156.0321  130.5534  150.7454 H   0  0  0  0  0  0  0  0  0  0  0  0  # atno 10718 bound_to 10713
  154.6154  135.2869  155.0386 H   0  0  0  0  0  0  0  0  0  0  0  0  # atno 10763 bound_to 10752
  154.1600  135.6489  153.4987 H   0  0  0  0  0  0  0  0  0  0  0  0  # atno 10764 bound_to 10752
  153.0213  135.5376  154.6924 H   0  0  0  0  0  0  0  0  0  0  0  0  # atno 10765 bound_to 10752
  140.9274  134.1365  157.4264 H   0  0  0  0  0  0  0  0  0  0  0  0  # atno 11005 bound_to 11000
  145.3480  141.0301  143.3355 LP  0  0  0  0  0  0  0  0  0  0  0  0  # atno 17320 bound_to 7965
  144.8686  139.5071  143.6778 LP  0  0  0  0  0  0  0  0  0  0  0  0  # atno 17321 bound_to 7965
  139.5426  144.2607  152.1380 LP  0  0  0  0  0  0  0  0  0  0  0  0  # atno 17342 bound_to 10162
  140.1823  144.4832  150.6521 LP  0  0  0  0  0  0  0  0  0  0  0  0  # atno 17343 bound_to 10162
  157.5012  131.0918  151.0312 LP  0  0  0  0  0  0  0  0  0  0  0  0  # atno 17370 bound_to 10713
  157.0692  130.5857  149.5399 LP  0  0  0  0  0  0  0  0  0  0  0  0  # atno 17371 bound_to 10713
  139.8788  134.9993  156.5946 LP  0  0  0  0  0  0  0  0  0  0  0  0  # atno 17394 bound_to 11000
  140.7908  133.8583  155.8645 LP  0  0  0  0  0  0  0  0  0  0  0  0  # atno 17395 bound_to 11000

$$$$
