AV-unprocessed.smi:3197|AV-procd|sdf|12226|dock3
  -GOLD-   2272018 53D 1   1.00000     0.00000
 Structure written by MMmdl.
 33 34  0  0  0  0  0  0  0  0  1 V2000
  144.5256  131.8311  150.5666 C   0  0  0  0  0  0  0  0  0  0  0  0
  143.7797  133.0073  150.7811 C   0  0  0  0  0  0  0  0  0  0  0  0
  144.3756  134.1837  151.0750 N   0  0  0  0  0  0  0  0  0  0  0  0
  145.7087  134.1858  151.1546 C   0  0  0  0  0  0  0  0  0  0  0  0
  146.2844  135.4038  151.4606 N   0  0  0  0  0  0  0  0  0  0  0  0
  145.5931  136.6809  151.3701 C   0  0  0  0  0  0  0  0  0  0  0  0
  145.6367  137.4381  152.7010 C   0  0  0  0  0  0  0  0  0  0  0  0
  146.6983  138.3770  152.6598 O   0  0  0  0  0  0  0  0  0  0  0  0
  146.7735  139.1761  153.8280 C   0  0  0  0  0  0  0  0  0  0  0  0
  148.0335  140.0493  153.7507 C   0  0  1  0  0  0  0  0  0  0  0  0
  147.9939  141.2835  154.6289 C   0  0  0  0  0  0  0  0  0  0  0  0
  149.4720  141.6492  154.7198 C   0  0  0  0  0  0  0  0  0  0  0  0
  150.1812  140.4151  154.6507 O   0  0  0  0  0  0  0  0  0  0  0  0
  149.2992  139.3645  154.2650 C   0  0  0  0  0  0  0  0  0  0  0  0
  146.5144  133.1330  150.9694 N   0  0  0  0  0  0  0  0  0  0  0  0
  145.9253  131.9535  150.6754 C   0  0  0  0  0  0  0  0  0  0  0  0
  144.0514  130.8896  150.3320 H   0  0  0  0  0  0  0  0  0  0  0  0
  142.7017  133.0042  150.7175 H   0  0  0  0  0  0  0  0  0  0  0  0
  147.2665  135.4066  151.6948 H   0  0  0  0  0  0  0  0  0  0  0  0
  146.0324  137.2866  150.5765 H   0  0  0  0  0  0  0  0  0  0  0  0
  144.5558  136.4909  151.0929 H   0  0  0  0  0  0  0  0  0  0  0  0
  144.6939  137.9657  152.8518 H   0  0  0  0  0  0  0  0  0  0  0  0
  145.7601  136.7437  153.5339 H   0  0  0  0  0  0  0  0  0  0  0  0
  145.8804  139.7958  153.9232 H   0  0  0  0  0  0  0  0  0  0  0  0
  146.8237  138.5348  154.7091 H   0  0  0  0  0  0  0  0  0  0  0  0
  148.2001  140.3564  152.7167 H   0  0  0  0  0  0  0  0  0  0  0  0
  147.3829  142.0859  154.2143 H   0  0  0  0  0  0  0  0  0  0  0  0
  147.6083  141.0367  155.6192 H   0  0  0  0  0  0  0  0  0  0  0  0
  149.7638  142.2648  153.8680 H   0  0  0  0  0  0  0  0  0  0  0  0
  149.7111  142.1970  155.6315 H   0  0  0  0  0  0  0  0  0  0  0  0
  149.0815  138.7593  155.1462 H   0  0  0  0  0  0  0  0  0  0  0  0
  149.7555  138.7174  153.5156 H   0  0  0  0  0  0  0  0  0  0  0  0
  146.5742  131.1032  150.5268 H   0  0  0  0  0  0  0  0  0  0  0  0
  1 16  1  0  0  0  0
  1  2  2  0  0  0  0
  1 17  1  0  0  0  0
  2  3  1  0  0  0  0
  2 18  1  0  0  0  0
  3  4  2  0  0  0  0
  4  5  1  0  0  0  0
  4 15  1  0  0  0  0
  5  6  1  0  0  0  0
  5 19  1  0  0  0  0
  6  7  1  0  0  0  0
  6 20  1  0  0  0  0
  6 21  1  0  0  0  0
  7  8  1  0  0  0  0
  7 22  1  0  0  0  0
  7 23  1  0  0  0  0
  8  9  1  0  0  0  0
  9 10  1  0  0  0  0
  9 24  1  0  0  0  0
  9 25  1  0  0  0  0
 10 14  1  0  0  0  0
 10 11  1  0  0  0  0
 10 26  1  0  0  0  0
 11 12  1  0  0  0  0
 11 27  1  0  0  0  0
 11 28  1  0  0  0  0
 12 13  1  0  0  0  0
 12 29  1  0  0  0  0
 12 30  1  0  0  0  0
 13 14  1  0  0  0  0
 14 31  1  0  0  0  0
 14 32  1  0  0  0  0
 15 16  2  0  0  0  0
 16 33  1  0  0  0  0
M  END
> <s_m_source_file>
AV-unprocessed.smi

> <i_m_source_file_index>
3197

> <i_lp_mmshare_version>
43012

> <i_f3d_flags>
0

> <s_epik_input>
bjFbY0hdW2NIXVtjSF1uYzFbTkhdW0NIMl1bQ0gyXU9bQ0gyXVtDQEBIXTJbQ0gyXVtDSDJdT1tDSDJdMg==

> <s_epik_cmdline>
J2VwaWtfcHl0aG9uJywgJy1waCcsICc3LjAnLCAnLXRuJywgJzgnLCAnLW1hJywgJzIwMCcsICctbWV0YWxfYmluZGluZycsICctaW1hZScsICc8aW5maWxlLm1hZT4nLCAnLW9tYWUnLCAnPG91dGZpbGUubWFlPic=

> <r_lp_tautomer_probability>
1

> <r_epik_Ionization_Penalty>
0.000570263

> <r_epik_Ionization_Penalty_Charging>
0

> <r_epik_Ionization_Penalty_Neutral>
0.000570263

> <r_epik_State_Penalty>
0.000357543

> <r_epik_Charging_Adjusted_Penalty>
0.000357543

> <i_epik_Tot_Q>
0

> <i_epik_Tot_abs_Q>
0

> <r_epik_Metal_State_Penalty>
-0

> <b_epik_Metal_Only>
0

> <s_lp_Force_Field>
OPLS_2005

> <r_lp_Energy>
10.4311

> <b_lp_Chiralities_Consistent>
1

> <s_lp_Variant>
AV-unprocessed.smi:3197-2

> <Gold.Version>
5.8.1

> <Gold.Id.Protein>
6NUR|6NUR_protein|mol2

> <Gold.PLP.Fitness>
38.2376

> <Gold.PLP.PLP>
-27.3234

> <Gold.PLP.part.hbond>
-2.0000

> <Gold.PLP.part.metal>
0.0000

> <Gold.PLP.part.buried>
-1.0758

> <Gold.PLP.part.nonpolar>
-24.0997

> <Gold.PLP.part.repulsive>
0.8151

> <Gold.PLP.ligand.clash>
0.0000

> <Gold.PLP.ligand.torsion>
0.5854

> <Gold.PLP.Chemscore.Hbond>
2.0000

> <Gold.PLP.Chemscore.CHOScore>
2.0000

> <Gold.PLP.Chemscore.Metal>
0.0000

> <Gold.Chemscore.Hbonds>
donor molecule, donor type, donor heavy atom, donor atom, acceptor molecule, acceptor atom, score
      L1  H     5    19       P1  7948  1.00
      P1  H  7989  7998       L1    13  0.98
      L1  C     2    18       P1 10186  1.00
      L1  C    16    33       P1 10747  1.00

> <Gold.PLP.Chemscore.Internal.Correction>
0.0850

> <Gold.Rescore>
     Score         DG    S(hbond)    S(metal)    S(lipo)     H(rot)  DE(clash)    DE(int)     intcor
     13.93     -14.76       1.68        0.00      72.45       1.88       0.35       0.48       ----

> <Gold.Chemscore.Fitness>
13.9260

> <Gold.Chemscore.DG>
-14.7580

> <Gold.Chemscore.ZeroCoef>
-5.4800

> <Gold.Chemscore.Hbond>
1.6797

> <Gold.Chemscore.Metal>
0.0000

> <Gold.Chemscore.Lipo>
72.4491

> <Gold.Chemscore.Internal_Hbond>
0.0000

> <Gold.Chemscore.DEClash>
0.3493

> <Gold.Chemscore.DEInternal>
0.4827

> <Gold.Chemscore.Rot>
1.8784

> <Gold.Chemscore.Internal.Correction>
   9.000000E+99

> <Gold.Chemscore.Hbonds>
donor molecule, donor type, donor heavy atom, donor atom, acceptor molecule, acceptor atom, score
      L1  H     5    19       P1  7948  0.95
      P1  H  7989  7998       L1    13  0.27

> <Gold.Chemscore.Hbond.Weighted>
-5.6102

> <Gold.Chemscore.Metal.Weighted>
-0.0000

> <Gold.Chemscore.Lipo.Weighted>
-8.4765

> <Gold.Chemscore.Internal_Hbond.Weighted>
0.0000

> <Gold.Chemscore.DEClash.Weighted>
0.3493

> <Gold.Chemscore.DEInternal.Weighted>
0.4827

> <Gold.Chemscore.Rot.Weighted>
4.8087

> <Gold.Chemscore.Internal.Correction.Weighted>
   9.000000E+99

> <Gold.Protein.RotatedTorsions>
[ 6907 6896 6895 6894 ] final -171.92 input  -60.11 | X-H torsion
[ 7974 7965 7964 7962 ] final  111.43 input  175.53 | X-H torsion
[ 8008 7997 7996 7995 ] final  145.72 input   59.86 | X-H torsion
[ 10167 10162 10161 10158 ] final  -34.25 input  -65.29 | X-H torsion
[ 10718 10713 10712 10709 ] final  -71.41 input   66.30 | X-H torsion
[ 10763 10752 10751 10750 ] final  -97.66 input  -60.55 | X-H torsion
[ 11005 11000 10999 10996 ] final -136.56 input  -57.11 | X-H torsion

> <Gold.Protein.ActiveResidues>
 VAL166  LYS551  ARG553  GLY616  TRP617  ASP618  TYR619  PRO620  LYS621  CYS622 
 ASP623  PHE694  ASN695  SER759  ASP760  ASP761  ALA762  ILE779  LEU786  VAL792 
 PHE793  MET794  SER795  GLU796  ALA797  LYS798  CYS799  TRP800  GLU811  SER814 

> <Gold.Protein.RotatedAtoms>
  151.5316  133.3448  159.2918 H   0  0  0  0  0  0  0  0  0  0  0  0  # atno 6907 bound_to 6896
  150.8590  134.7939  159.7079 H   0  0  0  0  0  0  0  0  0  0  0  0  # atno 6908 bound_to 6896
  152.4615  134.5181  159.9826 H   0  0  0  0  0  0  0  0  0  0  0  0  # atno 6909 bound_to 6896
  145.2423  139.2773  143.4111 H   0  0  0  0  0  0  0  0  0  0  0  0  # atno 7974 bound_to 7965
  156.2875  140.2201  156.5261 H   0  0  0  0  0  0  0  0  0  0  0  0  # atno 8008 bound_to 7997
  154.7488  140.0482  157.0897 H   0  0  0  0  0  0  0  0  0  0  0  0  # atno 8009 bound_to 7997
  155.0136  140.3116  155.4823 H   0  0  0  0  0  0  0  0  0  0  0  0  # atno 8010 bound_to 7997
  140.7189  143.3561  151.2056 H   0  0  0  0  0  0  0  0  0  0  0  0  # atno 10167 bound_to 10162
  156.0364  130.4351  150.2440 H   0  0  0  0  0  0  0  0  0  0  0  0  # atno 10718 bound_to 10713
  154.7348  135.5038  153.9023 H   0  0  0  0  0  0  0  0  0  0  0  0  # atno 10763 bound_to 10752
  153.0984  135.6678  153.9728 H   0  0  0  0  0  0  0  0  0  0  0  0  # atno 10764 bound_to 10752
  153.9520  135.3056  155.3417 H   0  0  0  0  0  0  0  0  0  0  0  0  # atno 10765 bound_to 10752
  140.8794  134.1951  157.4601 H   0  0  0  0  0  0  0  0  0  0  0  0  # atno 11005 bound_to 11000
  146.3325  140.2790  142.8609 LP  0  0  0  0  0  0  0  0  0  0  0  0  # atno 17320 bound_to 7965
  144.9578  140.8244  143.5532 LP  0  0  0  0  0  0  0  0  0  0  0  0  # atno 17321 bound_to 7965
  139.7103  143.9388  152.2944 LP  0  0  0  0  0  0  0  0  0  0  0  0  # atno 17342 bound_to 10162
  139.9110  144.6856  150.8562 LP  0  0  0  0  0  0  0  0  0  0  0  0  # atno 17343 bound_to 10162
  157.0539  131.0070  151.3245 LP  0  0  0  0  0  0  0  0  0  0  0  0  # atno 17370 bound_to 10713
  157.5120  130.7945  149.7716 LP  0  0  0  0  0  0  0  0  0  0  0  0  # atno 17371 bound_to 10713
  139.8718  134.9810  156.5099 LP  0  0  0  0  0  0  0  0  0  0  0  0  # atno 17394 bound_to 11000
  140.8479  133.8154  155.9140 LP  0  0  0  0  0  0  0  0  0  0  0  0  # atno 17395 bound_to 11000

$$$$
