AV-unprocessed.smi:101|AV-procd|sdf|915|dock10
  -GOLD-   2262017413D 1   1.00000     0.00000
 Structure written by MMmdl.
 44 46  0  0  0  0  0  0  0  0  1 V2000
  145.0345  143.9230  153.9449 C   0  0  0  0  0  0  0  0  0  0  0  0
  145.4172  143.3109  155.2824 C   0  0  0  0  0  0  0  0  0  0  0  0
  146.3633  142.3436  155.3972 C   0  0  0  0  0  0  0  0  0  0  0  0
  146.7444  141.7764  156.6079 N   0  0  0  0  0  0  0  0  0  0  0  0
  147.8180  140.7109  156.7068 C   0  0  2  0  0  0  0  0  0  0  0  0
  149.0056  141.2864  157.1727 O   0  0  0  0  0  0  0  0  0  0  0  0
  150.0728  141.0292  156.2665 C   0  0  2  0  0  0  0  0  0  0  0  0
  151.1000  142.1721  156.3063 C   0  0  0  0  0  0  0  0  0  0  0  0
  151.5039  142.4123  157.6451 O   0  0  0  0  0  0  0  0  0  0  0  0
  152.2232  141.5027  158.3252 C   0  0  0  0  0  0  0  0  0  0  0  0
  152.6099  140.4356  157.8449 O   0  0  0  0  0  0  0  0  0  0  0  0
  152.4944  141.9243  159.7296 C   0  0  0  0  0  0  0  0  0  0  0  0
  151.8700  143.0868  160.2383 C   0  0  0  0  0  0  0  0  0  0  0  0
  152.1135  143.5115  161.5589 C   0  0  0  0  0  0  0  0  0  0  0  0
  152.9810  142.7768  162.3880 C   0  0  0  0  0  0  0  0  0  0  0  0
  153.6034  141.6153  161.8958 C   0  0  0  0  0  0  0  0  0  0  0  0
  153.3637  141.1904  160.5747 C   0  0  0  0  0  0  0  0  0  0  0  0
  149.3930  140.7902  154.9178 C   0  0  1  0  0  0  0  0  0  0  0  0
  150.1859  140.0340  154.0221 O   0  0  0  0  0  0  0  0  0  0  0  0
  148.1021  140.0916  155.3227 C   0  0  1  0  0  0  0  0  0  0  0  0
  148.2387  138.6851  155.4158 O   0  0  0  0  0  0  0  0  0  0  0  0
  146.1270  142.2162  157.7972 C   0  0  0  0  0  0  0  0  0  0  0  0
  146.4166  141.7618  158.9036 O   0  0  0  0  0  0  0  0  0  0  0  0
  145.1498  143.2023  157.6795 N   0  0  0  0  0  0  0  0  0  0  0  0
  144.7354  143.7962  156.4852 C   0  0  0  0  0  0  0  0  0  0  0  0
  143.8581  144.6579  156.5084 O   0  0  0  0  0  0  0  0  0  0  0  0
  144.7041  143.5160  158.5295 H   0  0  0  0  0  0  0  0  0  0  0  0
  145.6330  143.5204  153.1273 H   0  0  0  0  0  0  0  0  0  0  0  0
  145.1832  145.0032  153.9624 H   0  0  0  0  0  0  0  0  0  0  0  0
  143.9857  143.7254  153.7216 H   0  0  0  0  0  0  0  0  0  0  0  0
  146.8392  142.0141  154.4871 H   0  0  0  0  0  0  0  0  0  0  0  0
  147.4468  139.9999  157.4484 H   0  0  0  0  0  0  0  0  0  0  0  0
  150.5497  140.1058  156.5995 H   0  0  0  0  0  0  0  0  0  0  0  0
  151.9568  141.9142  155.6821 H   0  0  0  0  0  0  0  0  0  0  0  0
  150.6631  143.0851  155.9009 H   0  0  0  0  0  0  0  0  0  0  0  0
  151.2003  143.6670  159.6198 H   0  0  0  0  0  0  0  0  0  0  0  0
  151.6333  144.4025  161.9357 H   0  0  0  0  0  0  0  0  0  0  0  0
  153.1673  143.1033  163.4005 H   0  0  0  0  0  0  0  0  0  0  0  0
  154.2692  141.0500  162.5310 H   0  0  0  0  0  0  0  0  0  0  0  0
  153.8617  140.2966  160.2282 H   0  0  0  0  0  0  0  0  0  0  0  0
  149.1332  141.7375  154.4444 H   0  0  0  0  0  0  0  0  0  0  0  0
  149.7252  139.9628  153.2000 H   0  0  0  0  0  0  0  0  0  0  0  0
  147.2996  140.3043  154.6153 H   0  0  0  0  0  0  0  0  0  0  0  0
  147.4545  138.3339  155.8095 H   0  0  0  0  0  0  0  0  0  0  0  0
  1  2  1  0  0  0  0
  1 28  1  0  0  0  0
  1 29  1  0  0  0  0
  1 30  1  0  0  0  0
  2 25  1  0  0  0  0
  2  3  2  0  0  0  0
  3  4  1  0  0  0  0
  3 31  1  0  0  0  0
  4  5  1  0  0  0  0
  4 22  1  0  0  0  0
  5 20  1  0  0  0  0
  5  6  1  0  0  0  0
  5 32  1  0  0  0  0
  6  7  1  0  0  0  0
  7  8  1  0  0  0  0
  7 18  1  0  0  0  0
  7 33  1  0  0  0  0
  8  9  1  0  0  0  0
  8 34  1  0  0  0  0
  8 35  1  0  0  0  0
  9 10  1  0  0  0  0
 10 11  2  0  0  0  0
 10 12  1  0  0  0  0
 12 17  1  0  0  0  0
 12 13  2  0  0  0  0
 13 14  1  0  0  0  0
 13 36  1  0  0  0  0
 14 15  2  0  0  0  0
 14 37  1  0  0  0  0
 15 16  1  0  0  0  0
 15 38  1  0  0  0  0
 16 17  2  0  0  0  0
 16 39  1  0  0  0  0
 17 40  1  0  0  0  0
 18 19  1  0  0  0  0
 18 20  1  0  0  0  0
 18 41  1  0  0  0  0
 19 42  1  0  0  0  0
 20 21  1  0  0  0  0
 20 43  1  0  0  0  0
 21 44  1  0  0  0  0
 22 23  2  0  0  0  0
 22 24  1  0  0  0  0
 24 27  1  0  0  0  0
 24 25  1  0  0  0  0
 25 26  2  0  0  0  0
M  END
> <s_m_source_file>
AV-unprocessed.smi

> <i_m_source_file_index>
101

> <i_lp_mmshare_version>
43012

> <i_f3d_flags>
0

> <s_epik_input>
Tz1jMVtuSF1jKD1PKW4oW2NIXWMxW0NIM10pW0NAQEhdMk9bQ0BIXShbQ0BASF0oW09IXSlbQ0BIXTJbT0hdKVtDSDJdT0MoPU8pYzNbY0hdW2NIXVtjSF1bY0hdW2NIXTM=

> <s_epik_cmdline>
J2VwaWtfcHl0aG9uJywgJy1waCcsICc3LjAnLCAnLXRuJywgJzgnLCAnLW1hJywgJzIwMCcsICctbWV0YWxfYmluZGluZycsICctaW1hZScsICc8aW5maWxlLm1hZT4nLCAnLW9tYWUnLCAnPG91dGZpbGUubWFlPic=

> <r_lp_tautomer_probability>
0.999537

> <r_epik_Ionization_Penalty>
0.00263537

> <r_epik_Ionization_Penalty_Charging>
0.00263428

> <r_epik_Ionization_Penalty_Neutral>
1.09111e-06

> <r_epik_State_Penalty>
0.00183335

> <r_epik_Charging_Adjusted_Penalty>
0.00446763

> <i_epik_Tot_Q>
0

> <i_epik_Tot_abs_Q>
0

> <r_epik_Metal_State_Penalty>
1.00528

> <b_epik_Metal_Only>
0

> <s_epik_Chemistry_Notes>
This compound has an ester and may undergo hydrolysis at high or low pH. This compound contains an acetal/aminal-like group ( X-CH(R)-Y where X, Y are N, S, or O) that may be acid/base labile, releasing an aldehyde.

> <s_lp_Force_Field>
OPLS_2005

> <r_lp_Energy>
35.2309

> <b_lp_Chiralities_Consistent>
1

> <s_lp_Variant>
AV-unprocessed.smi:101-3

> <Gold.Version>
5.8.1

> <Gold.Id.Protein>
6NUR|6NUR_protein|mol2

> <Gold.PLP.Fitness>
54.7340

> <Gold.PLP.PLP>
-45.3344

> <Gold.PLP.part.hbond>
-4.0000

> <Gold.PLP.part.metal>
0.0000

> <Gold.PLP.part.buried>
-6.2308

> <Gold.PLP.part.nonpolar>
-34.1706

> <Gold.PLP.part.repulsive>
0.1841

> <Gold.PLP.ligand.clash>
0.0000

> <Gold.PLP.ligand.torsion>
0.5004

> <Gold.PLP.Chemscore.Hbond>
3.4538

> <Gold.PLP.Chemscore.CHOScore>
0.0000

> <Gold.PLP.Chemscore.Metal>
0.0000

> <Gold.Chemscore.Hbonds>
donor molecule, donor type, donor heavy atom, donor atom, acceptor molecule, acceptor atom, score
      L1  H    19    42       P1  7957  0.98
      P1  H  6934  6946       L1    23  0.71
      P1  H  7989  7998       L1    19  0.91
      P1  H  7997  8010       L1    11  0.66

> <Gold.PLP.Chemscore.Internal.Correction>
0.0390

> <Gold.Rescore>
     Score         DG    S(hbond)    S(metal)    S(lipo)     H(rot)  DE(clash)    DE(int)     intcor
     17.67     -18.99       2.97        0.00     103.38       3.32       0.07       1.25       ----

> <Gold.Chemscore.Fitness>
17.6661

> <Gold.Chemscore.DG>
-18.9926

> <Gold.Chemscore.ZeroCoef>
-5.4800

> <Gold.Chemscore.Hbond>
2.9667

> <Gold.Chemscore.Metal>
0.0000

> <Gold.Chemscore.Lipo>
103.3830

> <Gold.Chemscore.Internal_Hbond>
0.0000

> <Gold.Chemscore.DEClash>
0.0734

> <Gold.Chemscore.DEInternal>
1.2531

> <Gold.Chemscore.Rot>
3.3172

> <Gold.Chemscore.Internal.Correction>
   9.000000E+99

> <Gold.Chemscore.Hbonds>
donor molecule, donor type, donor heavy atom, donor atom, acceptor molecule, acceptor atom, score
      L1  H    19    42       P1  7957  0.88
      P1  H  6934  6946       L1    23  0.68
      P1  H  7989  7998       L1    19  0.18
      P1  H  7997  8010       L1    11  0.65

> <Gold.Chemscore.Hbond.Weighted>
-9.9088

> <Gold.Chemscore.Metal.Weighted>
-0.0000

> <Gold.Chemscore.Lipo.Weighted>
-12.0958

> <Gold.Chemscore.Internal_Hbond.Weighted>
0.0000

> <Gold.Chemscore.DEClash.Weighted>
0.0734

> <Gold.Chemscore.DEInternal.Weighted>
1.2531

> <Gold.Chemscore.Rot.Weighted>
8.4920

> <Gold.Chemscore.Internal.Correction.Weighted>
   9.000000E+99

> <Gold.Protein.RotatedTorsions>
[ 6907 6896 6895 6894 ] final  124.04 input  -60.11 | X-H torsion
[ 7974 7965 7964 7962 ] final -164.21 input  175.53 | X-H torsion
[ 8008 7997 7996 7995 ] final   50.92 input   59.86 | X-H torsion
[ 10167 10162 10161 10158 ] final -129.36 input  -65.29 | X-H torsion
[ 10718 10713 10712 10709 ] final  109.19 input   66.30 | X-H torsion
[ 10763 10752 10751 10750 ] final -178.39 input  -60.55 | X-H torsion
[ 11005 11000 10999 10996 ] final -162.72 input  -57.11 | X-H torsion

> <Gold.Protein.ActiveResidues>
 VAL166  LYS551  ARG553  GLY616  TRP617  ASP618  TYR619  PRO620  LYS621  CYS622 
 ASP623  PHE694  ASN695  SER759  ASP760  ASP761  ALA762  ILE779  LEU786  VAL792 
 PHE793  MET794  SER795  GLU796  ALA797  LYS798  CYS799  TRP800  GLU811  SER814 

> <Gold.Protein.RotatedAtoms>
  152.4111  133.6965  159.6398 H   0  0  0  0  0  0  0  0  0  0  0  0  # atno 6907 bound_to 6896
  150.7992  133.8622  159.3244 H   0  0  0  0  0  0  0  0  0  0  0  0  # atno 6908 bound_to 6896
  151.6364  135.1019  160.0184 H   0  0  0  0  0  0  0  0  0  0  0  0  # atno 6909 bound_to 6896
  144.7303  140.2994  143.6207 H   0  0  0  0  0  0  0  0  0  0  0  0  # atno 7974 bound_to 7965
  155.4268  140.3449  155.4276 H   0  0  0  0  0  0  0  0  0  0  0  0  # atno 8008 bound_to 7997
  156.1360  140.1528  156.9024 H   0  0  0  0  0  0  0  0  0  0  0  0  # atno 8009 bound_to 7997
  154.4932  140.0835  156.7621 H   0  0  0  0  0  0  0  0  0  0  0  0  # atno 8010 bound_to 7997
  139.9406  143.6168  152.2504 H   0  0  0  0  0  0  0  0  0  0  0  0  # atno 10167 bound_to 10162
  157.6553  131.0909  150.6417 H   0  0  0  0  0  0  0  0  0  0  0  0  # atno 10718 bound_to 10713
  154.5483  135.2811  155.1032 H   0  0  0  0  0  0  0  0  0  0  0  0  # atno 10763 bound_to 10752
  154.2488  135.6343  153.5236 H   0  0  0  0  0  0  0  0  0  0  0  0  # atno 10764 bound_to 10752
  152.9996  135.5577  154.6042 H   0  0  0  0  0  0  0  0  0  0  0  0  # atno 10765 bound_to 10752
  140.6061  134.4897  157.5210 H   0  0  0  0  0  0  0  0  0  0  0  0  # atno 11005 bound_to 11000
  145.7776  139.1879  143.2176 LP  0  0  0  0  0  0  0  0  0  0  0  0  # atno 17320 bound_to 7965
  146.0860  140.7710  142.9618 LP  0  0  0  0  0  0  0  0  0  0  0  0  # atno 17321 bound_to 7965
  139.6708  144.7661  151.1787 LP  0  0  0  0  0  0  0  0  0  0  0  0  # atno 17342 bound_to 10162
  140.7612  143.5868  150.8837 LP  0  0  0  0  0  0  0  0  0  0  0  0  # atno 17343 bound_to 10162
  156.6724  130.4543  149.5653 LP  0  0  0  0  0  0  0  0  0  0  0  0  # atno 17370 bound_to 10713
  156.1988  130.6606  151.1144 LP  0  0  0  0  0  0  0  0  0  0  0  0  # atno 17371 bound_to 10713
  139.9211  134.8146  156.1208 LP  0  0  0  0  0  0  0  0  0  0  0  0  # atno 17394 bound_to 11000
  141.0839  133.6742  156.2395 LP  0  0  0  0  0  0  0  0  0  0  0  0  # atno 17395 bound_to 11000

$$$$
