AV-unprocessed.smi:2871|AV-procd|sdf|11032|dock8
  -GOLD-   2272015493D 1   1.00000     0.00000
 Structure written by MMmdl.
 38 40  0  0  0  0  0  0  0  0  1 V2000
  151.8224  144.0107  160.0161 C   0  0  0  0  0  0  0  0  0  0  0  0
  152.5422  142.9837  160.7580 N   0  0  0  0  0  0  0  0  0  0  0  0
  152.7413  143.1223  162.1967 C   0  0  0  0  0  0  0  0  0  0  0  0
  153.0350  141.8410  160.0904 C   0  0  0  0  0  0  0  0  0  0  0  0
  154.1349  141.0970  160.5831 C   0  0  0  0  0  0  0  0  0  0  0  0
  154.5412  139.9748  159.8262 C   0  0  0  0  0  0  0  0  0  0  0  0
  155.7098  139.0962  160.2465 C   0  0  0  0  0  0  0  0  0  0  0  0
  156.8440  139.7927  160.3300 F   0  0  0  0  0  0  0  0  0  0  0  0
  155.4581  138.5539  161.4380 F   0  0  0  0  0  0  0  0  0  0  0  0
  155.8802  138.1186  159.3560 F   0  0  0  0  0  0  0  0  0  0  0  0
  153.9073  139.6257  158.6841 N   0  0  0  0  0  0  0  0  0  0  0  0
  152.8835  140.3879  158.3021 C   0  0  0  0  0  0  0  0  0  0  0  0
  152.2631  140.0071  157.1267 N   0  0  0  0  0  0  0  0  0  0  0  0
  152.5886  138.8014  156.3729 C   0  0  2  0  0  0  0  0  0  0  0  0
  153.0843  139.0919  154.9545 C   0  0  0  0  0  0  0  0  0  0  0  0
  152.1481  138.2163  154.1090 C   0  0  2  0  0  0  0  0  0  0  0  0
  150.7427  138.8234  154.0129 C   0  0  0  0  0  0  0  0  0  0  0  0
  150.2012  138.5769  155.4196 C   0  0  0  0  0  0  0  0  0  0  0  0
  151.3884  137.8732  156.0990 C   0  0  1  0  0  0  0  0  0  0  0  0
  151.9029  137.1407  154.9998 O   0  0  0  0  0  0  0  0  0  0  0  0
  152.4208  141.4653  158.9431 N   0  0  0  0  0  0  0  0  0  0  0  0
  152.4596  144.4402  159.2425 H   0  0  0  0  0  0  0  0  0  0  0  0
  151.5015  144.8213  160.6706 H   0  0  0  0  0  0  0  0  0  0  0  0
  150.9330  143.5928  159.5440 H   0  0  0  0  0  0  0  0  0  0  0  0
  153.8041  143.1208  162.4399 H   0  0  0  0  0  0  0  0  0  0  0  0
  152.2640  142.2987  162.7285 H   0  0  0  0  0  0  0  0  0  0  0  0
  152.3151  144.0533  162.5702 H   0  0  0  0  0  0  0  0  0  0  0  0
  154.6504  141.3641  161.4930 H   0  0  0  0  0  0  0  0  0  0  0  0
  151.4677  140.5533  156.8295 H   0  0  0  0  0  0  0  0  0  0  0  0
  153.3606  138.2467  156.9081 H   0  0  0  0  0  0  0  0  0  0  0  0
  153.0231  140.1441  154.6729 H   0  0  0  0  0  0  0  0  0  0  0  0
  154.1214  138.7726  154.8450 H   0  0  0  0  0  0  0  0  0  0  0  0
  152.5678  137.9192  153.1475 H   0  0  0  0  0  0  0  0  0  0  0  0
  150.7628  139.8802  153.7448 H   0  0  0  0  0  0  0  0  0  0  0  0
  150.1404  138.2940  153.2738 H   0  0  0  0  0  0  0  0  0  0  0  0
  149.8992  139.4932  155.9270 H   0  0  0  0  0  0  0  0  0  0  0  0
  149.3356  137.9148  155.3810 H   0  0  0  0  0  0  0  0  0  0  0  0
  151.1042  137.2530  156.9496 H   0  0  0  0  0  0  0  0  0  0  0  0
  1  2  1  0  0  0  0
  1 22  1  0  0  0  0
  1 23  1  0  0  0  0
  1 24  1  0  0  0  0
  2  3  1  0  0  0  0
  2  4  1  0  0  0  0
  3 25  1  0  0  0  0
  3 26  1  0  0  0  0
  3 27  1  0  0  0  0
  4 21  1  0  0  0  0
  4  5  2  0  0  0  0
  5  6  1  0  0  0  0
  5 28  1  0  0  0  0
  6  7  1  0  0  0  0
  6 11  2  0  0  0  0
  7  8  1  0  0  0  0
  7  9  1  0  0  0  0
  7 10  1  0  0  0  0
 11 12  1  0  0  0  0
 12 13  1  0  0  0  0
 12 21  2  0  0  0  0
 13 14  1  0  0  0  0
 13 29  1  0  0  0  0
 14 19  1  0  0  0  0
 14 15  1  0  0  0  0
 14 30  1  0  0  0  0
 15 16  1  0  0  0  0
 15 31  1  0  0  0  0
 15 32  1  0  0  0  0
 16 20  1  0  0  0  0
 16 17  1  0  0  0  0
 16 33  1  0  0  0  0
 17 18  1  0  0  0  0
 17 34  1  0  0  0  0
 17 35  1  0  0  0  0
 18 19  1  0  0  0  0
 18 36  1  0  0  0  0
 18 37  1  0  0  0  0
 19 20  1  0  0  0  0
 19 38  1  0  0  0  0
M  END
> <s_m_source_file>
AV-unprocessed.smi

> <i_m_source_file_index>
2871

> <i_lp_mmshare_version>
43012

> <i_f3d_flags>
0

> <s_epik_input>
W0NIM11OKFtDSDNdKWMxW2NIXWMoQyhGKShGKUYpbmMobjEpW05IXVtDQEhdKFtDSDJdW0NAQEhdMjMpW0NAQEhdKE8zKVtDSDJdW0NIMl0y

> <s_epik_cmdline>
J2VwaWtfcHl0aG9uJywgJy1waCcsICc3LjAnLCAnLXRuJywgJzgnLCAnLW1hJywgJzIwMCcsICctbWV0YWxfYmluZGluZycsICctaW1hZScsICc8aW5maWxlLm1hZT4nLCAnLW9tYWUnLCAnPG91dGZpbGUubWFlPic=

> <r_lp_tautomer_probability>
1

> <r_epik_Ionization_Penalty>
0.00695968

> <r_epik_Ionization_Penalty_Charging>
0

> <r_epik_Ionization_Penalty_Neutral>
0.00695968

> <r_epik_State_Penalty>
0.0050343

> <r_epik_Charging_Adjusted_Penalty>
0.0050343

> <i_epik_Tot_Q>
0

> <i_epik_Tot_abs_Q>
0

> <r_epik_Metal_State_Penalty>
-0

> <b_epik_Metal_Only>
0

> <s_lp_Force_Field>
OPLS_2005

> <r_lp_Energy>
33.2945

> <b_lp_Chiralities_Consistent>
1

> <s_lp_Variant>
AV-unprocessed.smi:2871-3

> <Gold.Version>
5.8.1

> <Gold.Id.Protein>
6NUR|6NUR_protein|mol2

> <Gold.PLP.Fitness>
45.4370

> <Gold.PLP.PLP>
-39.9939

> <Gold.PLP.part.hbond>
-2.0000

> <Gold.PLP.part.metal>
0.0000

> <Gold.PLP.part.buried>
-4.7448

> <Gold.PLP.part.nonpolar>
-32.5168

> <Gold.PLP.part.repulsive>
0.2055

> <Gold.PLP.ligand.clash>
0.0000

> <Gold.PLP.ligand.torsion>
0.2923

> <Gold.PLP.Chemscore.Hbond>
2.0000

> <Gold.PLP.Chemscore.CHOScore>
0.0000

> <Gold.PLP.Chemscore.Metal>
0.0000

> <Gold.Chemscore.Hbonds>
donor molecule, donor type, donor heavy atom, donor atom, acceptor molecule, acceptor atom, score
      P1  H  7997  8010       L1    11  0.85
      P1  H 10752 10765       L1    20  0.99

> <Gold.PLP.Chemscore.Internal.Correction>
0.0277

> <Gold.Rescore>
     Score         DG    S(hbond)    S(metal)    S(lipo)     H(rot)  DE(clash)    DE(int)     intcor
     16.65     -17.15       1.22        0.00      86.83       1.00       0.18       0.33       ----

> <Gold.Chemscore.Fitness>
16.6454

> <Gold.Chemscore.DG>
-17.1498

> <Gold.Chemscore.ZeroCoef>
-5.4800

> <Gold.Chemscore.Hbond>
1.2189

> <Gold.Chemscore.Metal>
0.0000

> <Gold.Chemscore.Lipo>
86.8273

> <Gold.Chemscore.Internal_Hbond>
0.0000

> <Gold.Chemscore.DEClash>
0.1792

> <Gold.Chemscore.DEInternal>
0.3252

> <Gold.Chemscore.Rot>
1.0000

> <Gold.Chemscore.Internal.Correction>
   9.000000E+99

> <Gold.Chemscore.Hbonds>
donor molecule, donor type, donor heavy atom, donor atom, acceptor molecule, acceptor atom, score
      P1  H  7997  8010       L1    11  0.09
      P1  H 10752 10765       L1    20  0.69

> <Gold.Chemscore.Hbond.Weighted>
-4.0710

> <Gold.Chemscore.Metal.Weighted>
-0.0000

> <Gold.Chemscore.Lipo.Weighted>
-10.1588

> <Gold.Chemscore.Internal_Hbond.Weighted>
0.0000

> <Gold.Chemscore.DEClash.Weighted>
0.1792

> <Gold.Chemscore.DEInternal.Weighted>
0.3252

> <Gold.Chemscore.Rot.Weighted>
2.5600

> <Gold.Chemscore.Internal.Correction.Weighted>
   9.000000E+99

> <Gold.Protein.RotatedTorsions>
[ 6907 6896 6895 6894 ] final  -46.07 input  -60.11 | X-H torsion
[ 7974 7965 7964 7962 ] final  -82.12 input  175.53 | X-H torsion
[ 8008 7997 7996 7995 ] final    6.41 input   59.86 | X-H torsion
[ 10167 10162 10161 10158 ] final   45.71 input  -65.29 | X-H torsion
[ 10718 10713 10712 10709 ] final   19.85 input   66.30 | X-H torsion
[ 10763 10752 10751 10750 ] final  174.50 input  -60.55 | X-H torsion
[ 11005 11000 10999 10996 ] final -168.68 input  -57.11 | X-H torsion

> <Gold.Protein.ActiveResidues>
 VAL166  LYS551  ARG553  GLY616  TRP617  ASP618  TYR619  PRO620  LYS621  CYS622 
 ASP623  PHE694  ASN695  SER759  ASP760  ASP761  ALA762  ILE779  LEU786  VAL792 
 PHE793  MET794  SER795  GLU796  ALA797  LYS798  CYS799  TRP800  GLU811  SER814 

> <Gold.Protein.RotatedAtoms>
  150.9151  134.8569  159.7451 H   0  0  0  0  0  0  0  0  0  0  0  0  # atno 6907 bound_to 6896
  152.4964  134.4301  159.9519 H   0  0  0  0  0  0  0  0  0  0  0  0  # atno 6908 bound_to 6896
  151.4340  133.3623  159.2808 H   0  0  0  0  0  0  0  0  0  0  0  0  # atno 6909 bound_to 6896
  145.5376  140.9514  143.1569 H   0  0  0  0  0  0  0  0  0  0  0  0  # atno 7974 bound_to 7965
  154.7406  140.2748  155.6376 H   0  0  0  0  0  0  0  0  0  0  0  0  # atno 8008 bound_to 7997
  156.2873  140.2698  156.2059 H   0  0  0  0  0  0  0  0  0  0  0  0  # atno 8009 bound_to 7997
  155.0263  140.0371  157.2446 H   0  0  0  0  0  0  0  0  0  0  0  0  # atno 8010 bound_to 7997
  140.3214  144.2701  150.6182 H   0  0  0  0  0  0  0  0  0  0  0  0  # atno 10167 bound_to 10162
  157.1162  130.6530  149.5911 H   0  0  0  0  0  0  0  0  0  0  0  0  # atno 10718 bound_to 10713
  154.4547  135.2766  155.1756 H   0  0  0  0  0  0  0  0  0  0  0  0  # atno 10763 bound_to 10752
  154.3568  135.6138  153.5674 H   0  0  0  0  0  0  0  0  0  0  0  0  # atno 10764 bound_to 10752
  152.9850  135.5825  154.4898 H   0  0  0  0  0  0  0  0  0  0  0  0  # atno 10765 bound_to 10752
  140.5392  134.5539  157.5095 H   0  0  0  0  0  0  0  0  0  0  0  0  # atno 11005 bound_to 11000
  144.7593  139.6995  143.7241 LP  0  0  0  0  0  0  0  0  0  0  0  0  # atno 17320 bound_to 7965
  146.2003  139.5293  142.9748 LP  0  0  0  0  0  0  0  0  0  0  0  0  # atno 17321 bound_to 7965
  140.5480  143.2211  151.7975 LP  0  0  0  0  0  0  0  0  0  0  0  0  # atno 17342 bound_to 10162
  139.4873  144.4514  151.9650 LP  0  0  0  0  0  0  0  0  0  0  0  0  # atno 17343 bound_to 10162
  155.9839  130.4861  150.6955 LP  0  0  0  0  0  0  0  0  0  0  0  0  # atno 17370 bound_to 10713
  157.4516  131.0873  151.0840 LP  0  0  0  0  0  0  0  0  0  0  0  0  # atno 17371 bound_to 10713
  139.9513  134.7612  156.0442 LP  0  0  0  0  0  0  0  0  0  0  0  0  # atno 17394 bound_to 11000
  141.1237  133.6605  156.3280 LP  0  0  0  0  0  0  0  0  0  0  0  0  # atno 17395 bound_to 11000

$$$$
