AV-unprocessed.smi:2362|AV-procd|sdf|9414|dock1
  -GOLD-   2272013 53D 1   1.00000     0.00000
 Structure written by MMmdl.
 45 46  0  0  0  0  0  0  0  0  2 V2000
  151.4313  142.2302  158.2458 C   0  0  0  0  0  0  0  0  0  0  0  0
  150.7207  141.5585  157.0894 C   0  0  0  0  0  0  0  0  0  0  0  0
  149.3152  141.5319  157.0118 C   0  0  0  0  0  0  0  0  0  0  0  0
  148.7084  140.8945  155.9125 C   0  0  0  0  0  0  0  0  0  0  0  0
  149.5183  140.2989  154.9196 C   0  0  0  0  0  0  0  0  0  0  0  0
  148.8093  139.6859  153.8518 N   0  0  0  0  0  0  0  0  0  0  0  0
  147.6678  138.9783  153.9136 C   0  0  0  0  0  0  0  0  0  0  0  0
  147.0120  138.7727  154.9352 O   0  0  0  0  0  0  0  0  0  0  0  0
  147.3226  138.5000  152.7081 N   0  0  0  0  0  0  0  0  0  0  0  0
  146.1279  137.7079  152.4099 C   0  0  1  0  0  0  0  0  0  0  0  0
  146.2071  137.2088  150.9608 C   0  0  0  0  0  0  0  0  0  0  0  0
  145.9668  136.5293  153.3985 C   0  0  0  0  0  0  0  0  0  0  0  0
  146.9122  135.4129  153.1397 N   0  3  0  0  0  0  0  0  0  0  0  0
  146.3511  134.3821  152.2290 C   0  0  0  0  0  0  0  0  0  0  0  0
  147.4150  133.3340  151.8598 C   0  0  0  0  0  0  0  0  0  0  0  0
  148.0144  132.6895  153.1166 C   0  0  0  0  0  0  0  0  0  0  0  0
  148.5501  133.7757  154.0585 C   0  0  0  0  0  0  0  0  0  0  0  0
  147.4576  134.8076  154.3835 C   0  0  0  0  0  0  0  0  0  0  0  0
  150.8718  140.3315  155.0022 N   0  0  0  0  0  0  0  0  0  0  0  0
  151.4528  140.9422  156.0563 C   0  0  0  0  0  0  0  0  0  0  0  0
  150.7213  142.6172  158.9774 H   0  0  0  0  0  0  0  0  0  0  0  0
  152.0370  143.0615  157.8845 H   0  0  0  0  0  0  0  0  0  0  0  0
  152.0876  141.5206  158.7504 H   0  0  0  0  0  0  0  0  0  0  0  0
  148.7086  141.9911  157.7785 H   0  0  0  0  0  0  0  0  0  0  0  0
  147.6310  140.8657  155.8380 H   0  0  0  0  0  0  0  0  0  0  0  0
  149.2281  139.7887  152.9391 H   0  0  0  0  0  0  0  0  0  0  0  0
  147.9227  138.7204  151.9262 H   0  0  0  0  0  0  0  0  0  0  0  0
  145.2497  138.3520  152.4705 H   0  0  0  0  0  0  0  0  0  0  0  0
  145.3087  136.6540  150.6885 H   0  0  0  0  0  0  0  0  0  0  0  0
  147.0625  136.5489  150.8118 H   0  0  0  0  0  0  0  0  0  0  0  0
  146.3017  138.0410  150.2621 H   0  0  0  0  0  0  0  0  0  0  0  0
  146.0803  136.8707  154.4287 H   0  0  0  0  0  0  0  0  0  0  0  0
  144.9433  136.1600  153.3154 H   0  0  0  0  0  0  0  0  0  0  0  0
  145.4937  133.9020  152.7035 H   0  0  0  0  0  0  0  0  0  0  0  0
  145.9869  134.8543  151.3159 H   0  0  0  0  0  0  0  0  0  0  0  0
  146.9777  132.5670  151.2199 H   0  0  0  0  0  0  0  0  0  0  0  0
  148.2075  133.8074  151.2784 H   0  0  0  0  0  0  0  0  0  0  0  0
  147.2525  132.1002  153.6283 H   0  0  0  0  0  0  0  0  0  0  0  0
  148.8132  131.9995  152.8432 H   0  0  0  0  0  0  0  0  0  0  0  0
  148.9214  133.3222  154.9780 H   0  0  0  0  0  0  0  0  0  0  0  0
  149.4007  134.2777  153.5952 H   0  0  0  0  0  0  0  0  0  0  0  0
  147.8791  135.5794  155.0268 H   0  0  0  0  0  0  0  0  0  0  0  0
  146.6504  134.3355  154.9458 H   0  0  0  0  0  0  0  0  0  0  0  0
  152.5329  140.9389  156.0737 H   0  0  0  0  0  0  0  0  0  0  0  0
  147.6963  135.8197  152.6495 H   0  0  0  0  0  0  0  0  0  0  0  0
  1  2  1  0  0  0  0
  1 21  1  0  0  0  0
  1 22  1  0  0  0  0
  1 23  1  0  0  0  0
  2 20  1  0  0  0  0
  2  3  2  0  0  0  0
  3  4  1  0  0  0  0
  3 24  1  0  0  0  0
  4  5  2  0  0  0  0
  4 25  1  0  0  0  0
  5  6  1  0  0  0  0
  5 19  1  0  0  0  0
  6  7  1  0  0  0  0
  6 26  1  0  0  0  0
  7  8  2  0  0  0  0
  7  9  1  0  0  0  0
  9 10  1  0  0  0  0
  9 27  1  0  0  0  0
 10 11  1  0  0  0  0
 10 12  1  0  0  0  0
 10 28  1  0  0  0  0
 11 29  1  0  0  0  0
 11 30  1  0  0  0  0
 11 31  1  0  0  0  0
 12 13  1  0  0  0  0
 12 32  1  0  0  0  0
 12 33  1  0  0  0  0
 13 18  1  0  0  0  0
 13 14  1  0  0  0  0
 13 45  1  0  0  0  0
 14 15  1  0  0  0  0
 14 34  1  0  0  0  0
 14 35  1  0  0  0  0
 15 16  1  0  0  0  0
 15 36  1  0  0  0  0
 15 37  1  0  0  0  0
 16 17  1  0  0  0  0
 16 38  1  0  0  0  0
 16 39  1  0  0  0  0
 17 18  1  0  0  0  0
 17 40  1  0  0  0  0
 17 41  1  0  0  0  0
 18 42  1  0  0  0  0
 18 43  1  0  0  0  0
 19 20  2  0  0  0  0
 20 44  1  0  0  0  0
M  CHG  1  13   1
M  END
> <s_m_source_file>
AV-unprocessed.smi

> <i_m_source_file_index>
2362

> <i_lp_mmshare_version>
43012

> <i_f3d_flags>
0

> <s_epik_input>
W0NIM11jMVtjSF1bY0hdYyhuW2NIXTEpW05IXUMoPU8pW05IXVtDQEhdKFtDSDNdKVtDSDJdTjJbQ0gyXVtDSDJdW0NIMl1bQ0gyXVtDSDJdMg==

> <s_epik_cmdline>
J2VwaWtfcHl0aG9uJywgJy1waCcsICc3LjAnLCAnLXRuJywgJzgnLCAnLW1hJywgJzIwMCcsICctbWV0YWxfYmluZGluZycsICctaW1hZScsICc8aW5maWxlLm1hZT4nLCAnLW9tYWUnLCAnPG91dGZpbGUubWFlPic=

> <r_epik_Ionization_Penalty>
0.00215987

> <r_epik_Ionization_Penalty_Charging>
0.00211816

> <r_epik_Ionization_Penalty_Neutral>
4.17101e-05

> <r_epik_State_Penalty>
0.00145254

> <r_epik_Charging_Adjusted_Penalty>
0.0035707

> <i_epik_Tot_Q>
1

> <i_epik_Tot_abs_Q>
1

> <r_epik_Metal_State_Penalty>
-0

> <b_epik_Metal_Only>
0

> <s_lp_Force_Field>
OPLS_2005

> <r_lp_Energy>
24.6446

> <b_lp_Chiralities_Consistent>
1

> <s_lp_Variant>
AV-unprocessed.smi:2362-2

> <Gold.Version>
5.8.1

> <Gold.Id.Protein>
6NUR|6NUR_protein|mol2

> <Gold.PLP.Fitness>
43.6180

> <Gold.PLP.PLP>
-31.7804

> <Gold.PLP.part.hbond>
-4.9355

> <Gold.PLP.part.metal>
0.0000

> <Gold.PLP.part.buried>
0.8802

> <Gold.PLP.part.nonpolar>
-27.8559

> <Gold.PLP.part.repulsive>
0.3279

> <Gold.PLP.ligand.clash>
0.0000

> <Gold.PLP.ligand.torsion>
0.9453

> <Gold.PLP.Chemscore.Hbond>
4.5236

> <Gold.PLP.Chemscore.CHOScore>
0.0000

> <Gold.PLP.Chemscore.Metal>
0.0000

> <Gold.Chemscore.Hbonds>
donor molecule, donor type, donor heavy atom, donor atom, acceptor molecule, acceptor atom, score
      L1  H     6    26       P1  7957  1.00
      L1  H     9    27       P1  7957  0.44
      L1  H    13    45       P1  7948  1.98
      P1  H  7989  7998       L1    19  1.00

> <Gold.PLP.Chemscore.Internal.Correction>
0.1573

> <Gold.Rescore>
     Score         DG    S(hbond)    S(metal)    S(lipo)     H(rot)  DE(clash)    DE(int)     intcor
     15.10     -20.13       2.99        0.00      71.30       1.44       1.48       3.55       ----

> <Gold.Chemscore.Fitness>
15.0998

> <Gold.Chemscore.DG>
-20.1319

> <Gold.Chemscore.ZeroCoef>
-5.4800

> <Gold.Chemscore.Hbond>
2.9931

> <Gold.Chemscore.Metal>
0.0000

> <Gold.Chemscore.Lipo>
71.3030

> <Gold.Chemscore.Internal_Hbond>
0.0000

> <Gold.Chemscore.DEClash>
1.4832

> <Gold.Chemscore.DEInternal>
3.5489

> <Gold.Chemscore.Rot>
1.4404

> <Gold.Chemscore.Internal.Correction>
   9.000000E+99

> <Gold.Chemscore.Hbonds>
donor molecule, donor type, donor heavy atom, donor atom, acceptor molecule, acceptor atom, score
      L1  H     6    26       P1  7957  1.00
      L1  H     9    27       P1  7957  0.39
      L1  H    13    45       P1  7948  0.92
      P1  H  7989  7998       L1    19  0.63

> <Gold.Chemscore.Hbond.Weighted>
-9.9970

> <Gold.Chemscore.Metal.Weighted>
-0.0000

> <Gold.Chemscore.Lipo.Weighted>
-8.3424

> <Gold.Chemscore.Internal_Hbond.Weighted>
0.0000

> <Gold.Chemscore.DEClash.Weighted>
1.4832

> <Gold.Chemscore.DEInternal.Weighted>
3.5489

> <Gold.Chemscore.Rot.Weighted>
3.6875

> <Gold.Chemscore.Internal.Correction.Weighted>
   9.000000E+99

> <Gold.Protein.RotatedTorsions>
[ 6907 6896 6895 6894 ] final  148.48 input  -60.11 | X-H torsion
[ 7974 7965 7964 7962 ] final -168.24 input  175.53 | X-H torsion
[ 8008 7997 7996 7995 ] final  178.69 input   59.86 | X-H torsion
[ 10167 10162 10161 10158 ] final  176.01 input  -65.29 | X-H torsion
[ 10718 10713 10712 10709 ] final  -78.08 input   66.30 | X-H torsion
[ 10763 10752 10751 10750 ] final   41.29 input  -60.55 | X-H torsion
[ 11005 11000 10999 10996 ] final  -96.11 input  -57.11 | X-H torsion

> <Gold.Protein.ActiveResidues>
 VAL166  LYS551  ARG553  GLY616  TRP617  ASP618  TYR619  PRO620  LYS621  CYS622 
 ASP623  PHE694  ASN695  SER759  ASP760  ASP761  ALA762  ILE779  LEU786  VAL792 
 PHE793  MET794  SER795  GLU796  ALA797  LYS798  CYS799  TRP800  GLU811  SER814 

> <Gold.Protein.RotatedAtoms>
  152.1409  133.4463  159.4766 H   0  0  0  0  0  0  0  0  0  0  0  0  # atno 6907 bound_to 6896
  150.6886  134.2306  159.4442 H   0  0  0  0  0  0  0  0  0  0  0  0  # atno 6908 bound_to 6896
  152.0197  134.9829  160.0621 H   0  0  0  0  0  0  0  0  0  0  0  0  # atno 6909 bound_to 6896
  144.7207  140.2400  143.6293 H   0  0  0  0  0  0  0  0  0  0  0  0  # atno 7974 bound_to 7965
  156.0519  140.1327  157.0041 H   0  0  0  0  0  0  0  0  0  0  0  0  # atno 8008 bound_to 7997
  154.4439  140.1009  156.6459 H   0  0  0  0  0  0  0  0  0  0  0  0  # atno 8009 bound_to 7997
  155.5511  140.3463  155.4471 H   0  0  0  0  0  0  0  0  0  0  0  0  # atno 8010 bound_to 7997
  139.5198  144.2964  152.0417 H   0  0  0  0  0  0  0  0  0  0  0  0  # atno 10167 bound_to 10162
  156.0127  130.4508  150.3442 H   0  0  0  0  0  0  0  0  0  0  0  0  # atno 10718 bound_to 10713
  152.9912  135.6166  154.2764 H   0  0  0  0  0  0  0  0  0  0  0  0  # atno 10763 bound_to 10752
  154.2495  135.2786  155.2824 H   0  0  0  0  0  0  0  0  0  0  0  0  # atno 10764 bound_to 10752
  154.5300  135.5791  153.6808 H   0  0  0  0  0  0  0  0  0  0  0  0  # atno 10765 bound_to 10752
  141.1421  133.8074  157.0527 H   0  0  0  0  0  0  0  0  0  0  0  0  # atno 11005 bound_to 11000
  145.8329  139.2094  143.1872 LP  0  0  0  0  0  0  0  0  0  0  0  0  # atno 17320 bound_to 7965
  146.0415  140.8160  142.9826 LP  0  0  0  0  0  0  0  0  0  0  0  0  # atno 17321 bound_to 7965
  140.2414  144.4266  150.6258 LP  0  0  0  0  0  0  0  0  0  0  0  0  # atno 17342 bound_to 10162
  140.6288  143.2185  151.6539 LP  0  0  0  0  0  0  0  0  0  0  0  0  # atno 17343 bound_to 10162
  157.1536  131.0327  151.2873 LP  0  0  0  0  0  0  0  0  0  0  0  0  # atno 17370 bound_to 10713
  157.4371  130.7523  149.7038 LP  0  0  0  0  0  0  0  0  0  0  0  0  # atno 17371 bound_to 10713
  140.0621  134.9749  157.1323 LP  0  0  0  0  0  0  0  0  0  0  0  0  # atno 17394 bound_to 11000
  140.3833  134.2264  155.7170 LP  0  0  0  0  0  0  0  0  0  0  0  0  # atno 17395 bound_to 11000

$$$$
