AV-unprocessed.smi:1703|AV-procd|sdf|6855|dock2
  -GOLD-   22720 8 33D 1   1.00000     0.00000
 Structure written by MMmdl.
 48 50  0  0  0  0  0  0  0  0  1 V2000
  147.2962  138.3093  155.1642 C   0  0  0  0  0  0  0  0  0  0  0  0
  148.0889  139.0095  154.0470 C   0  0  2  0  0  0  0  0  0  0  0  0
  149.6143  138.9793  154.2681 C   0  0  0  0  0  0  0  0  0  0  0  0
  150.0527  139.8864  155.3237 N   0  0  0  0  0  0  0  0  0  0  0  0
  151.5055  139.8225  155.4898 C   0  0  0  0  0  0  0  0  0  0  0  0
  152.0454  138.5228  156.1264 C   0  0  1  0  0  0  0  0  0  0  0  0
  153.4560  138.5907  156.1484 O   0  0  0  0  0  0  0  0  0  0  0  0
  151.5703  138.3014  157.5773 C   0  0  0  0  0  0  0  0  0  0  0  0
  152.5256  138.7753  158.5701 N   0  0  0  0  0  0  0  0  0  0  0  0
  153.4752  138.0618  159.2266 C   0  0  0  0  0  0  0  0  0  0  0  0
  153.6876  136.5984  158.9867 C   0  0  0  0  0  0  0  0  0  0  0  0
  153.4043  135.8141  160.1254 O   0  0  0  0  0  0  0  0  0  0  0  0
  154.2193  138.7473  160.0953 N   0  0  0  0  0  0  0  0  0  0  0  0
  153.7135  140.0276  159.9851 C   0  0  0  0  0  0  0  0  0  0  0  0
  154.0818  141.2202  160.6480 C   0  0  0  0  0  0  0  0  0  0  0  0
  153.4115  142.4290  160.3676 C   0  0  0  0  0  0  0  0  0  0  0  0
  152.3662  142.4628  159.4220 C   0  0  0  0  0  0  0  0  0  0  0  0
  151.9835  141.2859  158.7504 C   0  0  0  0  0  0  0  0  0  0  0  0
  152.6548  140.0812  159.0347 C   0  0  0  0  0  0  0  0  0  0  0  0
  149.5796  141.2328  155.0131 C   0  0  0  0  0  0  0  0  0  0  0  0
  148.0495  141.2821  154.8484 C   0  0  1  0  0  0  0  0  0  0  0  0
  147.5597  142.6733  154.4329 C   0  0  0  0  0  0  0  0  0  0  0  0
  147.6473  140.3526  153.8441 O   0  0  0  0  0  0  0  0  0  0  0  0
  147.5666  137.2551  155.2285 H   0  0  0  0  0  0  0  0  0  0  0  0
  146.2244  138.3639  154.9725 H   0  0  0  0  0  0  0  0  0  0  0  0
  147.4840  138.7530  156.1417 H   0  0  0  0  0  0  0  0  0  0  0  0
  147.8743  138.4743  153.1216 H   0  0  0  0  0  0  0  0  0  0  0  0
  149.9275  137.9599  154.4971 H   0  0  0  0  0  0  0  0  0  0  0  0
  150.1092  139.2479  153.3334 H   0  0  0  0  0  0  0  0  0  0  0  0
  151.9854  139.9421  154.5172 H   0  0  0  0  0  0  0  0  0  0  0  0
  151.8223  140.6812  156.0819 H   0  0  0  0  0  0  0  0  0  0  0  0
  151.7592  137.6572  155.5323 H   0  0  0  0  0  0  0  0  0  0  0  0
  153.7795  138.2969  155.3102 H   0  0  0  0  0  0  0  0  0  0  0  0
  150.6149  138.7999  157.7443 H   0  0  0  0  0  0  0  0  0  0  0  0
  151.3882  137.2407  157.7549 H   0  0  0  0  0  0  0  0  0  0  0  0
  153.0437  136.2708  158.1698 H   0  0  0  0  0  0  0  0  0  0  0  0
  154.7129  136.4160  158.6675 H   0  0  0  0  0  0  0  0  0  0  0  0
  154.0878  135.9521  160.7629 H   0  0  0  0  0  0  0  0  0  0  0  0
  154.8819  141.2048  161.3731 H   0  0  0  0  0  0  0  0  0  0  0  0
  153.7009  143.3348  160.8801 H   0  0  0  0  0  0  0  0  0  0  0  0
  151.8580  143.3929  159.2128 H   0  0  0  0  0  0  0  0  0  0  0  0
  151.1816  141.3091  158.0276 H   0  0  0  0  0  0  0  0  0  0  0  0
  149.8610  141.9275  155.8032 H   0  0  0  0  0  0  0  0  0  0  0  0
  150.0572  141.5899  154.0992 H   0  0  0  0  0  0  0  0  0  0  0  0
  147.5737  141.0206  155.7941 H   0  0  0  0  0  0  0  0  0  0  0  0
  147.8273  143.4224  155.1785 H   0  0  0  0  0  0  0  0  0  0  0  0
  146.4751  142.6874  154.3224 H   0  0  0  0  0  0  0  0  0  0  0  0
  147.9957  142.9772  153.4809 H   0  0  0  0  0  0  0  0  0  0  0  0
  1  2  1  0  0  0  0
  1 24  1  0  0  0  0
  1 25  1  0  0  0  0
  1 26  1  0  0  0  0
  2 23  1  0  0  0  0
  2  3  1  0  0  0  0
  2 27  1  0  0  0  0
  3  4  1  0  0  0  0
  3 28  1  0  0  0  0
  3 29  1  0  0  0  0
  4  5  1  0  0  0  0
  4 20  1  0  0  0  0
  5  6  1  0  0  0  0
  5 30  1  0  0  0  0
  5 31  1  0  0  0  0
  6  7  1  0  0  0  0
  6  8  1  0  0  0  0
  6 32  1  0  0  0  0
  7 33  1  0  0  0  0
  8  9  1  0  0  0  0
  8 34  1  0  0  0  0
  8 35  1  0  0  0  0
  9 19  1  0  0  0  0
  9 10  1  0  0  0  0
 10 11  1  0  0  0  0
 10 13  2  0  0  0  0
 11 12  1  0  0  0  0
 11 36  1  0  0  0  0
 11 37  1  0  0  0  0
 12 38  1  0  0  0  0
 13 14  1  0  0  0  0
 14 19  2  0  0  0  0
 14 15  1  0  0  0  0
 15 16  2  0  0  0  0
 15 39  1  0  0  0  0
 16 17  1  0  0  0  0
 16 40  1  0  0  0  0
 17 18  2  0  0  0  0
 17 41  1  0  0  0  0
 18 19  1  0  0  0  0
 18 42  1  0  0  0  0
 20 21  1  0  0  0  0
 20 43  1  0  0  0  0
 20 44  1  0  0  0  0
 21 22  1  0  0  0  0
 21 23  1  0  0  0  0
 21 45  1  0  0  0  0
 22 46  1  0  0  0  0
 22 47  1  0  0  0  0
 22 48  1  0  0  0  0
M  END
> <s_m_source_file>
AV-unprocessed.smi

> <i_m_source_file_index>
1703

> <i_lp_mmshare_version>
43012

> <i_f3d_flags>
0

> <s_epik_input>
W0NIM11bQ0BASF0xW0NIMl1OKFtDSDJdW0NASF0oTzEpW0NIM10pW0NIMl1bQ0BIXShbT0hdKVtDSDJdbihjKG4yKVtDSDJdW09IXSljKGMyMylbY0hdW2NIXVtjSF1bY0hdMw==

> <s_epik_cmdline>
J2VwaWtfcHl0aG9uJywgJy1waCcsICc3LjAnLCAnLXRuJywgJzgnLCAnLW1hJywgJzIwMCcsICctbWV0YWxfYmluZGluZycsICctaW1hZScsICc8aW5maWxlLm1hZT4nLCAnLW9tYWUnLCAnPG91dGZpbGUubWFlPic=

> <r_epik_Ionization_Penalty>
0.307685

> <r_epik_Ionization_Penalty_Charging>
0

> <r_epik_Ionization_Penalty_Neutral>
0.307685

> <r_epik_State_Penalty>
0.277856

> <r_epik_Charging_Adjusted_Penalty>
0.277856

> <i_epik_Tot_Q>
0

> <i_epik_Tot_abs_Q>
0

> <r_epik_Metal_State_Penalty>
0.238959

> <b_epik_Metal_Only>
0

> <s_lp_Force_Field>
OPLS_2005

> <r_lp_Energy>
33.3157

> <b_lp_Chiralities_Consistent>
1

> <s_lp_Variant>
AV-unprocessed.smi:1703-3

> <Gold.Version>
5.8.1

> <Gold.Id.Protein>
6NUR|6NUR_protein|mol2

> <Gold.PLP.Fitness>
45.1887

> <Gold.PLP.PLP>
-40.9760

> <Gold.PLP.part.hbond>
-1.7821

> <Gold.PLP.part.metal>
0.0000

> <Gold.PLP.part.buried>
-3.9195

> <Gold.PLP.part.nonpolar>
-35.5005

> <Gold.PLP.part.repulsive>
0.2283

> <Gold.PLP.ligand.clash>
0.0000

> <Gold.PLP.ligand.torsion>
0.9234

> <Gold.PLP.Chemscore.Hbond>
2.0000

> <Gold.PLP.Chemscore.CHOScore>
0.0000

> <Gold.PLP.Chemscore.Metal>
0.0000

> <Gold.Chemscore.Hbonds>
donor molecule, donor type, donor heavy atom, donor atom, acceptor molecule, acceptor atom, score
      P1  H  6896  6907       L1    12  0.91
      P1  H  7997  8009       L1     7  0.85

> <Gold.PLP.Chemscore.Internal.Correction>
0.0595

> <Gold.Rescore>
     Score         DG    S(hbond)    S(metal)    S(lipo)     H(rot)  DE(clash)    DE(int)     intcor
     13.29     -14.53       1.01        0.00     111.57       2.88       0.21       1.03       ----

> <Gold.Chemscore.Fitness>
13.2872

> <Gold.Chemscore.DG>
-14.5271

> <Gold.Chemscore.ZeroCoef>
-5.4800

> <Gold.Chemscore.Hbond>
1.0063

> <Gold.Chemscore.Metal>
0.0000

> <Gold.Chemscore.Lipo>
111.5654

> <Gold.Chemscore.Internal_Hbond>
0.0000

> <Gold.Chemscore.DEClash>
0.2057

> <Gold.Chemscore.DEInternal>
1.0341

> <Gold.Chemscore.Rot>
2.8778

> <Gold.Chemscore.Internal.Correction>
   9.000000E+99

> <Gold.Chemscore.Hbonds>
donor molecule, donor type, donor heavy atom, donor atom, acceptor molecule, acceptor atom, score
      P1  H  6896  6907       L1    12  0.79
      P1  H  7997  8009       L1     7  0.37

> <Gold.Chemscore.Hbond.Weighted>
-3.3610

> <Gold.Chemscore.Metal.Weighted>
-0.0000

> <Gold.Chemscore.Lipo.Weighted>
-13.0531

> <Gold.Chemscore.Internal_Hbond.Weighted>
0.0000

> <Gold.Chemscore.DEClash.Weighted>
0.2057

> <Gold.Chemscore.DEInternal.Weighted>
1.0341

> <Gold.Chemscore.Rot.Weighted>
7.3671

> <Gold.Chemscore.Internal.Correction.Weighted>
   9.000000E+99

> <Gold.Protein.RotatedTorsions>
[ 6907 6896 6895 6894 ] final   26.31 input  -60.11 | X-H torsion
[ 7974 7965 7964 7962 ] final  103.69 input  175.53 | X-H torsion
[ 8008 7997 7996 7995 ] final -171.60 input   59.86 | X-H torsion
[ 10167 10162 10161 10158 ] final  146.67 input  -65.29 | X-H torsion
[ 10718 10713 10712 10709 ] final  -42.98 input   66.30 | X-H torsion
[ 10763 10752 10751 10750 ] final  110.33 input  -60.55 | X-H torsion
[ 11005 11000 10999 10996 ] final   72.85 input  -57.11 | X-H torsion

> <Gold.Protein.ActiveResidues>
 VAL166  LYS551  ARG553  GLY616  TRP617  ASP618  TYR619  PRO620  LYS621  CYS622 
 ASP623  PHE694  ASN695  SER759  ASP760  ASP761  ALA762  ILE779  LEU786  VAL792 
 PHE793  MET794  SER795  GLU796  ALA797  LYS798  CYS799  TRP800  GLU811  SER814 

> <Gold.Protein.RotatedAtoms>
  151.9855  135.0006  160.0559 H   0  0  0  0  0  0  0  0  0  0  0  0  # atno 6907 bound_to 6896
  152.1657  133.4606  159.4891 H   0  0  0  0  0  0  0  0  0  0  0  0  # atno 6908 bound_to 6896
  150.6894  134.1934  159.4337 H   0  0  0  0  0  0  0  0  0  0  0  0  # atno 6909 bound_to 6896
  145.3426  139.2458  143.3601 H   0  0  0  0  0  0  0  0  0  0  0  0  # atno 7974 bound_to 7965
  155.9337  140.1096  157.1112 H   0  0  0  0  0  0  0  0  0  0  0  0  # atno 8008 bound_to 7997
  154.4075  140.1232  156.4902 H   0  0  0  0  0  0  0  0  0  0  0  0  # atno 8009 bound_to 7997
  155.7048  140.3471  155.4951 H   0  0  0  0  0  0  0  0  0  0  0  0  # atno 8010 bound_to 7997
  139.4903  144.5812  151.6868 H   0  0  0  0  0  0  0  0  0  0  0  0  # atno 10167 bound_to 10162
  156.2538  130.4190  149.8619 H   0  0  0  0  0  0  0  0  0  0  0  0  # atno 10718 bound_to 10713
  153.4475  135.3751  155.2264 H   0  0  0  0  0  0  0  0  0  0  0  0  # atno 10763 bound_to 10752
  154.8755  135.3877  154.4078 H   0  0  0  0  0  0  0  0  0  0  0  0  # atno 10764 bound_to 10752
  153.4633  135.7087  153.6101 H   0  0  0  0  0  0  0  0  0  0  0  0  # atno 10765 bound_to 10752
  139.9470  134.7295  156.0955 H   0  0  0  0  0  0  0  0  0  0  0  0  # atno 11005 bound_to 11000
  146.3001  140.4026  142.8707 LP  0  0  0  0  0  0  0  0  0  0  0  0  # atno 17320 bound_to 7965
  144.8778  140.7360  143.6005 LP  0  0  0  0  0  0  0  0  0  0  0  0  # atno 17321 bound_to 7965
  140.5418  144.0566  150.6091 LP  0  0  0  0  0  0  0  0  0  0  0  0  # atno 17342 bound_to 10162
  140.3591  143.2918  152.0403 LP  0  0  0  0  0  0  0  0  0  0  0  0  # atno 17343 bound_to 10162
  156.6158  130.8605  151.3464 LP  0  0  0  0  0  0  0  0  0  0  0  0  # atno 17370 bound_to 10713
  157.7225  130.9577  150.1496 LP  0  0  0  0  0  0  0  0  0  0  0  0  # atno 17371 bound_to 10713
  141.1123  133.6639  156.3008 LP  0  0  0  0  0  0  0  0  0  0  0  0  # atno 17394 bound_to 11000
  140.5811  134.5745  157.5479 LP  0  0  0  0  0  0  0  0  0  0  0  0  # atno 17395 bound_to 11000

$$$$
