AV-unprocessed.smi:3032|AV-procd|sdf|11572|dock3
  -GOLD-   2272016533D 1   1.00000     0.00000
 Structure written by MMmdl.
 36 37  0  0  0  0  0  0  0  0  2 V2000
  153.0862  142.7378  162.1667 C   0  0  0  0  0  0  0  0  0  0  0  0
  152.2816  143.1719  160.9332 C   0  0  1  0  0  0  0  0  0  0  0  0
  152.0539  144.6946  160.9196 C   0  0  0  0  0  0  0  0  0  0  0  0
  151.2471  145.1343  159.6888 C   0  0  0  0  0  0  0  0  0  0  0  0
  151.9250  144.6816  158.3825 C   0  0  0  0  0  0  0  0  0  0  0  0
  152.2385  143.1675  158.3403 C   0  0  2  0  0  0  0  0  0  0  0  0
  150.9984  142.3059  158.0335 C   0  0  0  0  0  0  0  0  0  0  0  0
  150.5579  141.5114  158.8638 O   0  0  0  0  0  0  0  0  0  0  0  0
  150.4436  142.4760  156.8232 N   0  0  0  0  0  0  0  0  0  0  0  0
  149.2820  141.7517  156.3200 C   0  0  0  0  0  0  0  0  0  0  0  0
  149.5622  141.1180  154.9487 C   0  0  0  0  0  0  0  0  0  0  0  0
  150.5064  139.9403  155.0515 C   0  0  0  0  0  0  0  0  0  0  0  0
  150.2338  138.7614  155.6478 N   0  5  0  0  0  0  0  0  0  0  0  0
  151.2616  137.9438  155.5273 N   0  0  0  0  0  0  0  0  0  0  0  0
  152.1625  138.6505  154.8351 C   0  0  0  0  0  0  0  0  0  0  0  0
  151.7260  139.8754  154.5229 N   0  0  0  0  0  0  0  0  0  0  0  0
  152.9703  142.7179  159.6273 C   0  0  0  0  0  0  0  0  0  0  0  0
  154.0791  143.1884  162.1721 H   0  0  0  0  0  0  0  0  0  0  0  0
  153.2112  141.6550  162.1915 H   0  0  0  0  0  0  0  0  0  0  0  0
  152.5820  143.0316  163.0881 H   0  0  0  0  0  0  0  0  0  0  0  0
  151.3082  142.6857  161.0021 H   0  0  0  0  0  0  0  0  0  0  0  0
  151.5311  145.0022  161.8259 H   0  0  0  0  0  0  0  0  0  0  0  0
  153.0146  145.2116  160.9273 H   0  0  0  0  0  0  0  0  0  0  0  0
  150.2355  144.7337  159.7500 H   0  0  0  0  0  0  0  0  0  0  0  0
  151.1405  146.2193  159.6884 H   0  0  0  0  0  0  0  0  0  0  0  0
  151.3037  144.9627  157.5310 H   0  0  0  0  0  0  0  0  0  0  0  0
  152.8576  145.2344  158.2629 H   0  0  0  0  0  0  0  0  0  0  0  0
  152.9325  143.0138  157.5120 H   0  0  0  0  0  0  0  0  0  0  0  0
  150.8639  143.1486  156.1986 H   0  0  0  0  0  0  0  0  0  0  0  0
  148.9689  140.9904  157.0365 H   0  0  0  0  0  0  0  0  0  0  0  0
  148.4554  142.4581  156.2374 H   0  0  0  0  0  0  0  0  0  0  0  0
  148.6311  140.7791  154.4927 H   0  0  0  0  0  0  0  0  0  0  0  0
  149.9956  141.8539  154.2701 H   0  0  0  0  0  0  0  0  0  0  0  0
  153.1373  138.2707  154.5554 H   0  0  0  0  0  0  0  0  0  0  0  0
  153.9853  143.1173  159.6046 H   0  0  0  0  0  0  0  0  0  0  0  0
  153.0816  141.6324  159.6294 H   0  0  0  0  0  0  0  0  0  0  0  0
  1  2  1  0  0  0  0
  1 18  1  0  0  0  0
  1 19  1  0  0  0  0
  1 20  1  0  0  0  0
  2 17  1  0  0  0  0
  2  3  1  0  0  0  0
  2 21  1  0  0  0  0
  3  4  1  0  0  0  0
  3 22  1  0  0  0  0
  3 23  1  0  0  0  0
  4  5  1  0  0  0  0
  4 24  1  0  0  0  0
  4 25  1  0  0  0  0
  5  6  1  0  0  0  0
  5 26  1  0  0  0  0
  5 27  1  0  0  0  0
  6  7  1  0  0  0  0
  6 17  1  0  0  0  0
  6 28  1  0  0  0  0
  7  8  2  0  0  0  0
  7  9  1  0  0  0  0
  9 10  1  0  0  0  0
  9 29  1  0  0  0  0
 10 11  1  0  0  0  0
 10 30  1  0  0  0  0
 10 31  1  0  0  0  0
 11 32  1  0  0  0  0
 11 33  1  0  0  0  0
 11 12  1  0  0  0  0
 12 16  2  0  0  0  0
 12 13  1  0  0  0  0
 13 14  1  0  0  0  0
 14 15  2  0  0  0  0
 15 16  1  0  0  0  0
 15 34  1  0  0  0  0
 17 35  1  0  0  0  0
 17 36  1  0  0  0  0
M  CHG  1  13  -1
M  END
> <s_m_source_file>
AV-unprocessed.smi

> <i_m_source_file_index>
3032

> <i_lp_mmshare_version>
43012

> <i_f3d_flags>
0

> <s_epik_input>
W0NIM11bQ0BASF0xW0NIMl1bQ0gyXVtDSDJdW0NASF0oW0NIMl0xKUMoPU8pW05IXVtDSDJdW0NIMl1jMm5uW2NIXVtuSF0y

> <s_epik_cmdline>
J2VwaWtfcHl0aG9uJywgJy1waCcsICc3LjAnLCAnLXRuJywgJzgnLCAnLW1hJywgJzIwMCcsICctbWV0YWxfYmluZGluZycsICctaW1hZScsICc8aW5maWxlLm1hZT4nLCAnLW9tYWUnLCAnPG91dGZpbGUubWFlPic=

> <r_lp_tautomer_probability>
0.948284

> <r_epik_Ionization_Penalty>
12.042

> <r_epik_Ionization_Penalty_Charging>
12.042

> <r_epik_Ionization_Penalty_Neutral>
4.36781e-08

> <r_epik_State_Penalty>
4.67286

> <r_epik_Charging_Adjusted_Penalty>
16.7149

> <i_epik_Tot_Q>
-1

> <i_epik_Tot_abs_Q>
1

> <r_epik_Metal_State_Penalty>
0.981637

> <b_epik_Metal_Only>
1

> <s_lp_Force_Field>
OPLS_2005

> <r_lp_Energy>
8.14017

> <b_lp_Chiralities_Consistent>
1

> <s_lp_Variant>
AV-unprocessed.smi:3032-16

> <Gold.Version>
5.8.1

> <Gold.Id.Protein>
6NUR|6NUR_protein|mol2

> <Gold.PLP.Fitness>
45.1107

> <Gold.PLP.PLP>
-42.5261

> <Gold.PLP.part.hbond>
-2.6603

> <Gold.PLP.part.metal>
0.0000

> <Gold.PLP.part.buried>
-4.3436

> <Gold.PLP.part.nonpolar>
-35.5900

> <Gold.PLP.part.repulsive>
0.1508

> <Gold.PLP.ligand.clash>
0.0000

> <Gold.PLP.ligand.torsion>
0.2339

> <Gold.PLP.Chemscore.Hbond>
1.0000

> <Gold.PLP.Chemscore.CHOScore>
0.0000

> <Gold.PLP.Chemscore.Metal>
0.0000

> <Gold.Chemscore.Hbonds>
donor molecule, donor type, donor heavy atom, donor atom, acceptor molecule, acceptor atom, score
      P1  H  7989  7998       L1    16  0.73

> <Gold.PLP.Chemscore.Internal.Correction>
0.0524

> <Gold.Rescore>
     Score         DG    S(hbond)    S(metal)    S(lipo)     H(rot)  DE(clash)    DE(int)     intcor
     14.10     -14.32       1.03        0.00      94.76       2.21       0.01       0.21       ----

> <Gold.Chemscore.Fitness>
14.1000

> <Gold.Chemscore.DG>
-14.3214

> <Gold.Chemscore.ZeroCoef>
-5.4800

> <Gold.Chemscore.Hbond>
1.0255

> <Gold.Chemscore.Metal>
0.0000

> <Gold.Chemscore.Lipo>
94.7576

> <Gold.Chemscore.Internal_Hbond>
0.0000

> <Gold.Chemscore.DEClash>
0.0126

> <Gold.Chemscore.DEInternal>
0.2089

> <Gold.Chemscore.Rot>
2.2149

> <Gold.Chemscore.Internal.Correction>
   9.000000E+99

> <Gold.Chemscore.Hbonds>
donor molecule, donor type, donor heavy atom, donor atom, acceptor molecule, acceptor atom, score
      P1  H  7989  7998       L1    16  0.24

> <Gold.Chemscore.Hbond.Weighted>
-3.4250

> <Gold.Chemscore.Metal.Weighted>
-0.0000

> <Gold.Chemscore.Lipo.Weighted>
-11.0866

> <Gold.Chemscore.Internal_Hbond.Weighted>
0.0000

> <Gold.Chemscore.DEClash.Weighted>
0.0126

> <Gold.Chemscore.DEInternal.Weighted>
0.2089

> <Gold.Chemscore.Rot.Weighted>
5.6702

> <Gold.Chemscore.Internal.Correction.Weighted>
   9.000000E+99

> <Gold.Protein.RotatedTorsions>
[ 6907 6896 6895 6894 ] final   70.72 input  -60.11 | X-H torsion
[ 7974 7965 7964 7962 ] final   59.74 input  175.53 | X-H torsion
[ 8008 7997 7996 7995 ] final   41.39 input   59.86 | X-H torsion
[ 10167 10162 10161 10158 ] final  -40.91 input  -65.29 | X-H torsion
[ 10718 10713 10712 10709 ] final   47.88 input   66.30 | X-H torsion
[ 10763 10752 10751 10750 ] final -133.03 input  -60.55 | X-H torsion
[ 11005 11000 10999 10996 ] final  158.88 input  -57.11 | X-H torsion

> <Gold.Protein.ActiveResidues>
 VAL166  LYS551  ARG553  GLY616  TRP617  ASP618  TYR619  PRO620  LYS621  CYS622 
 ASP623  PHE694  ASN695  SER759  ASP760  ASP761  ALA762  ILE779  LEU786  VAL792 
 PHE793  MET794  SER795  GLU796  ALA797  LYS798  CYS799  TRP800  GLU811  SER814 

> <Gold.Protein.RotatedAtoms>
  152.4767  134.4826  159.9670 H   0  0  0  0  0  0  0  0  0  0  0  0  # atno 6907 bound_to 6896
  151.4841  133.3534  159.2850 H   0  0  0  0  0  0  0  0  0  0  0  0  # atno 6908 bound_to 6896
  150.8810  134.8228  159.7286 H   0  0  0  0  0  0  0  0  0  0  0  0  # atno 6909 bound_to 6896
  145.9038  139.3601  143.0576 H   0  0  0  0  0  0  0  0  0  0  0  0  # atno 7974 bound_to 7965
  155.2689  140.3364  155.4267 H   0  0  0  0  0  0  0  0  0  0  0  0  # atno 8008 bound_to 7997
  156.2141  140.1782  156.7670 H   0  0  0  0  0  0  0  0  0  0  0  0  # atno 8009 bound_to 7997
  154.5729  140.0667  156.8975 H   0  0  0  0  0  0  0  0  0  0  0  0  # atno 8010 bound_to 7997
  140.7019  143.3125  151.2992 H   0  0  0  0  0  0  0  0  0  0  0  0  # atno 10167 bound_to 10162
  157.4630  130.8208  149.7907 H   0  0  0  0  0  0  0  0  0  0  0  0  # atno 10718 bound_to 10713
  154.8737  135.3779  154.4507 H   0  0  0  0  0  0  0  0  0  0  0  0  # atno 10763 bound_to 10752
  153.5183  135.7029  153.5750 H   0  0  0  0  0  0  0  0  0  0  0  0  # atno 10764 bound_to 10752
  153.4008  135.3949  155.1952 H   0  0  0  0  0  0  0  0  0  0  0  0  # atno 10765 bound_to 10752
  140.1908  134.8408  157.2910 H   0  0  0  0  0  0  0  0  0  0  0  0  # atno 11005 bound_to 11000
  145.8757  140.9393  143.0627 LP  0  0  0  0  0  0  0  0  0  0  0  0  # atno 17320 bound_to 7965
  144.6738  140.0714  143.7473 LP  0  0  0  0  0  0  0  0  0  0  0  0  # atno 17321 bound_to 7965
  139.6553  144.0288  152.2655 LP  0  0  0  0  0  0  0  0  0  0  0  0  # atno 17342 bound_to 10162
  139.9838  144.6410  150.7877 LP  0  0  0  0  0  0  0  0  0  0  0  0  # atno 17343 bound_to 10162
  156.0037  130.3866  150.2508 LP  0  0  0  0  0  0  0  0  0  0  0  0  # atno 17370 bound_to 10713
  157.0687  131.0110  151.3198 LP  0  0  0  0  0  0  0  0  0  0  0  0  # atno 17371 bound_to 10713
  140.2162  134.4079  155.7588 LP  0  0  0  0  0  0  0  0  0  0  0  0  # atno 17394 bound_to 11000
  141.2226  133.7143  156.8417 LP  0  0  0  0  0  0  0  0  0  0  0  0  # atno 17395 bound_to 11000

$$$$
