AV-unprocessed.smi:1388|AV-procd|sdf|5643|dock7
  -GOLD-   22720 5263D 1   1.00000     0.00000
 Structure written by MMmdl.
 46 47  0  0  0  0  0  0  0  0  2 V2000
  146.2111  134.7909  152.9026 C   0  0  0  0  0  0  0  0  0  0  0  0
  147.3963  135.1860  153.6488 N   0  0  0  0  0  0  0  0  0  0  0  0
  147.6694  134.7835  154.8976 C   0  0  0  0  0  0  0  0  0  0  0  0
  146.9317  134.0374  155.5426 O   0  0  0  0  0  0  0  0  0  0  0  0
  148.9646  135.3219  155.5143 C   0  0  0  0  0  0  0  0  0  0  0  0
  149.4952  136.5156  154.8063 N   0  3  2  0  0  0  0  0  0  0  0  0
  150.9631  136.6660  154.9737 C   0  0  0  0  0  0  0  0  0  0  0  0
  151.5081  137.8223  154.1153 C   0  0  0  0  0  0  0  0  0  0  0  0
  150.7860  139.1494  154.4051 C   0  0  2  0  0  0  0  0  0  0  0  0
  151.1693  139.6652  155.7190 N   0  0  0  0  0  0  0  0  0  0  0  0
  150.9637  140.9193  156.1481 C   0  0  0  0  0  0  0  0  0  0  0  0
  150.4137  141.7856  155.4679 O   0  0  0  0  0  0  0  0  0  0  0  0
  151.4243  141.0855  157.4006 N   0  0  0  0  0  0  0  0  0  0  0  0
  151.4116  142.2639  158.1991 C   0  0  0  0  0  0  0  0  0  0  0  0
  150.5380  143.2804  157.9889 N   0  0  0  0  0  0  0  0  0  0  0  0
  150.5846  144.3720  158.7795 C   0  0  0  0  0  0  0  0  0  0  0  0
  151.5054  144.5193  159.8309 C   0  0  0  0  0  0  0  0  0  0  0  0
  152.4171  143.4753  160.0628 C   0  0  0  0  0  0  0  0  0  0  0  0
  152.3765  142.3296  159.2400 C   0  0  0  0  0  0  0  0  0  0  0  0
  153.3620  141.1995  159.4901 C   0  0  0  0  0  0  0  0  0  0  0  0
  149.2620  138.9469  154.2925 C   0  0  0  0  0  0  0  0  0  0  0  0
  148.7729  137.7689  155.1533 C   0  0  0  0  0  0  0  0  0  0  0  0
  146.2358  135.2301  151.9055 H   0  0  0  0  0  0  0  0  0  0  0  0
  145.3046  135.1334  153.4036 H   0  0  0  0  0  0  0  0  0  0  0  0
  146.1616  133.7067  152.7954 H   0  0  0  0  0  0  0  0  0  0  0  0
  148.0454  135.8064  153.1862 H   0  0  0  0  0  0  0  0  0  0  0  0
  148.8212  135.5472  156.5724 H   0  0  0  0  0  0  0  0  0  0  0  0
  149.6919  134.5107  155.4626 H   0  0  0  0  0  0  0  0  0  0  0  0
  151.1955  136.8302  156.0271 H   0  0  0  0  0  0  0  0  0  0  0  0
  151.4631  135.7419  154.6808 H   0  0  0  0  0  0  0  0  0  0  0  0
  152.5818  137.9329  154.2729 H   0  0  0  0  0  0  0  0  0  0  0  0
  151.3818  137.5708  153.0614 H   0  0  0  0  0  0  0  0  0  0  0  0
  151.1013  139.8751  153.6530 H   0  0  0  0  0  0  0  0  0  0  0  0
  151.6347  139.0229  156.3433 H   0  0  0  0  0  0  0  0  0  0  0  0
  151.8336  140.2742  157.8391 H   0  0  0  0  0  0  0  0  0  0  0  0
  149.8665  145.1501  158.5672 H   0  0  0  0  0  0  0  0  0  0  0  0
  151.5117  145.4092  160.4425 H   0  0  0  0  0  0  0  0  0  0  0  0
  153.1378  143.5566  160.8632 H   0  0  0  0  0  0  0  0  0  0  0  0
  154.0059  141.4157  160.3429 H   0  0  0  0  0  0  0  0  0  0  0  0
  153.9991  141.0493  158.6184 H   0  0  0  0  0  0  0  0  0  0  0  0
  152.8326  140.2696  159.6984 H   0  0  0  0  0  0  0  0  0  0  0  0
  148.7306  139.8584  154.5686 H   0  0  0  0  0  0  0  0  0  0  0  0
  149.0041  138.7547  153.2501 H   0  0  0  0  0  0  0  0  0  0  0  0
  147.7012  137.6396  155.0004 H   0  0  0  0  0  0  0  0  0  0  0  0
  148.9122  137.9917  156.2122 H   0  0  0  0  0  0  0  0  0  0  0  0
  149.3374  136.3491  153.8222 H   0  0  0  0  0  0  0  0  0  0  0  0
  1  2  1  0  0  0  0
  1 23  1  0  0  0  0
  1 24  1  0  0  0  0
  1 25  1  0  0  0  0
  2  3  1  0  0  0  0
  2 26  1  0  0  0  0
  3  4  2  0  0  0  0
  3  5  1  0  0  0  0
  5  6  1  0  0  0  0
  5 27  1  0  0  0  0
  5 28  1  0  0  0  0
  6 22  1  0  0  0  0
  6  7  1  0  0  0  0
  6 46  1  0  0  0  0
  7  8  1  0  0  0  0
  7 29  1  0  0  0  0
  7 30  1  0  0  0  0
  8  9  1  0  0  0  0
  8 31  1  0  0  0  0
  8 32  1  0  0  0  0
  9 10  1  0  0  0  0
  9 21  1  0  0  0  0
  9 33  1  0  0  0  0
 10 11  1  0  0  0  0
 10 34  1  0  0  0  0
 11 12  2  0  0  0  0
 11 13  1  0  0  0  0
 13 14  1  0  0  0  0
 13 35  1  0  0  0  0
 14 19  1  0  0  0  0
 14 15  2  0  0  0  0
 15 16  1  0  0  0  0
 16 17  2  0  0  0  0
 16 36  1  0  0  0  0
 17 18  1  0  0  0  0
 17 37  1  0  0  0  0
 18 19  2  0  0  0  0
 18 38  1  0  0  0  0
 19 20  1  0  0  0  0
 20 39  1  0  0  0  0
 20 40  1  0  0  0  0
 20 41  1  0  0  0  0
 21 22  1  0  0  0  0
 21 42  1  0  0  0  0
 21 43  1  0  0  0  0
 22 44  1  0  0  0  0
 22 45  1  0  0  0  0
M  CHG  1   6   1
M  END
> <s_m_source_file>
AV-unprocessed.smi

> <i_m_source_file_index>
1388

> <i_lp_mmshare_version>
43012

> <i_f3d_flags>
0

> <s_epik_input>
W0NIM11bTkhdQyg9TylbQ0gyXU4xW0NIMl1bQ0gyXVtDSF0oW0NIMl1bQ0gyXTEpW05IXUMoPU8pW05IXWMybltjSF1bY0hdW2NIXWMyW0NIM10=

> <s_epik_cmdline>
J2VwaWtfcHl0aG9uJywgJy1waCcsICc3LjAnLCAnLXRuJywgJzgnLCAnLW1hJywgJzIwMCcsICctbWV0YWxfYmluZGluZycsICctaW1hZScsICc8aW5maWxlLm1hZT4nLCAnLW9tYWUnLCAnPG91dGZpbGUubWFlPic=

> <r_epik_Ionization_Penalty>
0.83891

> <r_epik_Ionization_Penalty_Charging>
0.838844

> <r_epik_Ionization_Penalty_Neutral>
6.58477e-05

> <r_epik_State_Penalty>
0.8734

> <r_epik_Charging_Adjusted_Penalty>
1.71224

> <i_epik_Tot_Q>
1

> <i_epik_Tot_abs_Q>
1

> <r_epik_Metal_State_Penalty>
0.877924

> <b_epik_Metal_Only>
0

> <s_lp_Force_Field>
OPLS_2005

> <r_lp_Energy>
16.2558

> <b_lp_Chiralities_Consistent>
1

> <s_lp_Variant>
AV-unprocessed.smi:1388-3

> <Gold.Version>
5.8.1

> <Gold.Id.Protein>
6NUR|6NUR_protein|mol2

> <Gold.PLP.Fitness>
46.3483

> <Gold.PLP.PLP>
-35.8312

> <Gold.PLP.part.hbond>
-3.0000

> <Gold.PLP.part.metal>
0.0000

> <Gold.PLP.part.buried>
-2.0381

> <Gold.PLP.part.nonpolar>
-31.2125

> <Gold.PLP.part.repulsive>
0.5066

> <Gold.PLP.ligand.clash>
0.0000

> <Gold.PLP.ligand.torsion>
0.7654

> <Gold.PLP.Chemscore.Hbond>
3.0092

> <Gold.PLP.Chemscore.CHOScore>
0.9990

> <Gold.PLP.Chemscore.Metal>
0.0000

> <Gold.Chemscore.Hbonds>
donor molecule, donor type, donor heavy atom, donor atom, acceptor molecule, acceptor atom, score
      L1  H     2    26       P1  7948  1.00
      L1  H     6    46       P1  7948  2.00
      L1  C    16    36       P1  8029  1.00

> <Gold.PLP.Chemscore.Internal.Correction>
0.0234

> <Gold.Rescore>
     Score         DG    S(hbond)    S(metal)    S(lipo)     H(rot)  DE(clash)    DE(int)     intcor
     16.30     -18.44       1.96        0.00      91.58       1.69       0.22       1.92       ----

> <Gold.Chemscore.Fitness>
16.3001

> <Gold.Chemscore.DG>
-18.4378

> <Gold.Chemscore.ZeroCoef>
-5.4800

> <Gold.Chemscore.Hbond>
1.9633

> <Gold.Chemscore.Metal>
0.0000

> <Gold.Chemscore.Lipo>
91.5774

> <Gold.Chemscore.Internal_Hbond>
0.0000

> <Gold.Chemscore.DEClash>
0.2159

> <Gold.Chemscore.DEInternal>
1.9218

> <Gold.Chemscore.Rot>
1.6853

> <Gold.Chemscore.Internal.Correction>
   9.000000E+99

> <Gold.Chemscore.Hbonds>
donor molecule, donor type, donor heavy atom, donor atom, acceptor molecule, acceptor atom, score
      L1  H     2    26       P1  7948  0.94
      L1  H     6    46       P1  7948  0.86

> <Gold.Chemscore.Hbond.Weighted>
-6.5575

> <Gold.Chemscore.Metal.Weighted>
-0.0000

> <Gold.Chemscore.Lipo.Weighted>
-10.7146

> <Gold.Chemscore.Internal_Hbond.Weighted>
0.0000

> <Gold.Chemscore.DEClash.Weighted>
0.2159

> <Gold.Chemscore.DEInternal.Weighted>
1.9218

> <Gold.Chemscore.Rot.Weighted>
4.3143

> <Gold.Chemscore.Internal.Correction.Weighted>
   9.000000E+99

> <Gold.Protein.RotatedTorsions>
[ 6907 6896 6895 6894 ] final  174.22 input  -60.11 | X-H torsion
[ 7974 7965 7964 7962 ] final   81.47 input  175.53 | X-H torsion
[ 8008 7997 7996 7995 ] final  148.85 input   59.86 | X-H torsion
[ 10167 10162 10161 10158 ] final  -98.14 input  -65.29 | X-H torsion
[ 10718 10713 10712 10709 ] final  128.06 input   66.30 | X-H torsion
[ 10763 10752 10751 10750 ] final   98.73 input  -60.55 | X-H torsion
[ 11005 11000 10999 10996 ] final  -38.68 input  -57.11 | X-H torsion

> <Gold.Protein.ActiveResidues>
 VAL166  LYS551  ARG553  GLY616  TRP617  ASP618  TYR619  PRO620  LYS621  CYS622 
 ASP623  PHE694  ASN695  SER759  ASP760  ASP761  ALA762  ILE779  LEU786  VAL792 
 PHE793  MET794  SER795  GLU796  ALA797  LYS798  CYS799  TRP800  GLU811  SER814 

> <Gold.Protein.RotatedAtoms>
  151.7557  133.3330  159.3403 H   0  0  0  0  0  0  0  0  0  0  0  0  # atno 6907 bound_to 6896
  150.7517  134.6151  159.6116 H   0  0  0  0  0  0  0  0  0  0  0  0  # atno 6908 bound_to 6896
  152.3438  134.7100  160.0307 H   0  0  0  0  0  0  0  0  0  0  0  0  # atno 6909 bound_to 6896
  145.6377  139.2418  143.2048 H   0  0  0  0  0  0  0  0  0  0  0  0  # atno 7974 bound_to 7965
  156.2776  140.2117  156.5765 H   0  0  0  0  0  0  0  0  0  0  0  0  # atno 8008 bound_to 7997
  154.7093  140.0513  157.0558 H   0  0  0  0  0  0  0  0  0  0  0  0  # atno 8009 bound_to 7997
  155.0627  140.3168  155.4658 H   0  0  0  0  0  0  0  0  0  0  0  0  # atno 8010 bound_to 7997
  140.2761  143.3312  152.0487 H   0  0  0  0  0  0  0  0  0  0  0  0  # atno 10167 bound_to 10162
  157.5278  131.1098  150.9056 H   0  0  0  0  0  0  0  0  0  0  0  0  # atno 10718 bound_to 10713
  153.2927  135.4138  155.1181 H   0  0  0  0  0  0  0  0  0  0  0  0  # atno 10763 bound_to 10752
  154.8525  135.3522  154.5959 H   0  0  0  0  0  0  0  0  0  0  0  0  # atno 10764 bound_to 10752
  153.6382  135.7058  153.5309 H   0  0  0  0  0  0  0  0  0  0  0  0  # atno 10765 bound_to 10752
  141.0045  133.6938  156.2085 H   0  0  0  0  0  0  0  0  0  0  0  0  # atno 11005 bound_to 11000
  146.1306  140.7190  142.9414 LP  0  0  0  0  0  0  0  0  0  0  0  0  # atno 17320 bound_to 7965
  144.7169  140.4241  143.7037 LP  0  0  0  0  0  0  0  0  0  0  0  0  # atno 17321 bound_to 7965
  139.4975  144.6624  151.6435 LP  0  0  0  0  0  0  0  0  0  0  0  0  # atno 17342 bound_to 10162
  140.5850  143.9879  150.6290 LP  0  0  0  0  0  0  0  0  0  0  0  0  # atno 17343 bound_to 10162
  156.9647  130.5468  149.5287 LP  0  0  0  0  0  0  0  0  0  0  0  0  # atno 17370 bound_to 10713
  156.0399  130.5483  150.8746 LP  0  0  0  0  0  0  0  0  0  0  0  0  # atno 17371 bound_to 10713
  140.6835  134.4742  157.5589 LP  0  0  0  0  0  0  0  0  0  0  0  0  # atno 17394 bound_to 11000
  139.9056  134.8456  156.1719 LP  0  0  0  0  0  0  0  0  0  0  0  0  # atno 17395 bound_to 11000

$$$$
