AV-unprocessed.smi:2280|AV-procd|sdf|9191|dock10
  -GOLD-   2272012403D 1   1.00000     0.00000
 Structure written by MMmdl.
 41 42  0  0  0  0  0  0  0  0  1 V2000
  152.4356  143.3223  161.2849 C   0  0  0  0  0  0  0  0  0  0  0  0
  152.1053  142.7295  159.9265 C   0  0  0  0  0  0  0  0  0  0  0  0
  151.2289  143.4796  159.1368 N   0  0  0  0  0  0  0  0  0  0  0  0
  150.8836  143.0474  157.9681 C   0  0  0  0  0  0  0  0  0  0  0  0
  151.3646  141.8297  157.4604 N   0  0  0  0  0  0  0  0  0  0  0  0
  150.8878  141.4491  156.1209 C   0  0  0  0  0  0  0  0  0  0  0  0
  149.3509  141.2955  156.0722 C   0  0  2  0  0  0  0  0  0  0  0  0
  148.9002  140.5168  157.1621 O   0  0  0  0  0  0  0  0  0  0  0  0
  148.8525  140.6222  154.7827 C   0  0  0  0  0  0  0  0  0  0  0  0
  147.4719  140.3077  154.9139 O   0  0  0  0  0  0  0  0  0  0  0  0
  146.5516  141.3348  154.9010 C   0  0  0  0  0  0  0  0  0  0  0  0
  146.7433  142.5485  154.1926 C   0  0  0  0  0  0  0  0  0  0  0  0
  145.7628  143.5572  154.2227 C   0  0  0  0  0  0  0  0  0  0  0  0
  144.5807  143.3680  154.9588 C   0  0  0  0  0  0  0  0  0  0  0  0
  144.3799  142.1687  155.6658 C   0  0  0  0  0  0  0  0  0  0  0  0
  145.3585  141.1492  155.6423 C   0  0  0  0  0  0  0  0  0  0  0  0
  145.1352  139.8495  156.4095 C   0  0  0  0  0  0  0  0  0  0  0  0
  143.9582  139.8353  157.0361 F   0  0  0  0  0  0  0  0  0  0  0  0
  145.1702  138.8161  155.5678 F   0  0  0  0  0  0  0  0  0  0  0  0
  146.0941  139.6938  157.3228 F   0  0  0  0  0  0  0  0  0  0  0  0
  152.2397  141.0468  158.1556 C   0  0  0  0  0  0  0  0  0  0  0  0
  152.6778  139.9937  157.6880 O   0  0  0  0  0  0  0  0  0  0  0  0
  152.6175  141.5475  159.4871 C   0  0  0  0  0  0  0  0  0  0  0  0
  153.5740  140.6871  160.3038 C   0  0  0  0  0  0  0  0  0  0  0  0
  152.1282  142.6452  162.0822 H   0  0  0  0  0  0  0  0  0  0  0  0
  151.9246  144.2734  161.4385 H   0  0  0  0  0  0  0  0  0  0  0  0
  153.5073  143.5015  161.3728 H   0  0  0  0  0  0  0  0  0  0  0  0
  150.2081  143.5967  157.3101 H   0  0  0  0  0  0  0  0  0  0  0  0
  151.1957  142.2216  155.4134 H   0  0  0  0  0  0  0  0  0  0  0  0
  151.3769  140.5440  155.7538 H   0  0  0  0  0  0  0  0  0  0  0  0
  148.8690  142.2711  156.1466 H   0  0  0  0  0  0  0  0  0  0  0  0
  148.0655  140.1370  156.9328 H   0  0  0  0  0  0  0  0  0  0  0  0
  149.0322  141.2664  153.9201 H   0  0  0  0  0  0  0  0  0  0  0  0
  149.4151  139.6994  154.6313 H   0  0  0  0  0  0  0  0  0  0  0  0
  147.6373  142.7323  153.6169 H   0  0  0  0  0  0  0  0  0  0  0  0
  145.9190  144.4779  153.6799 H   0  0  0  0  0  0  0  0  0  0  0  0
  143.8279  144.1421  154.9817 H   0  0  0  0  0  0  0  0  0  0  0  0
  143.4652  142.0416  156.2254 H   0  0  0  0  0  0  0  0  0  0  0  0
  154.5047  140.5347  159.7561 H   0  0  0  0  0  0  0  0  0  0  0  0
  153.1295  139.7098  160.4947 H   0  0  0  0  0  0  0  0  0  0  0  0
  153.8299  141.1248  161.2672 H   0  0  0  0  0  0  0  0  0  0  0  0
  1  2  1  0  0  0  0
  1 25  1  0  0  0  0
  1 26  1  0  0  0  0
  1 27  1  0  0  0  0
  2 23  2  0  0  0  0
  2  3  1  0  0  0  0
  3  4  2  0  0  0  0
  4  5  1  0  0  0  0
  4 28  1  0  0  0  0
  5  6  1  0  0  0  0
  5 21  1  0  0  0  0
  6  7  1  0  0  0  0
  6 29  1  0  0  0  0
  6 30  1  0  0  0  0
  7  8  1  0  0  0  0
  7  9  1  0  0  0  0
  7 31  1  0  0  0  0
  8 32  1  0  0  0  0
  9 10  1  0  0  0  0
  9 33  1  0  0  0  0
  9 34  1  0  0  0  0
 10 11  1  0  0  0  0
 11 16  1  0  0  0  0
 11 12  2  0  0  0  0
 12 13  1  0  0  0  0
 12 35  1  0  0  0  0
 13 14  2  0  0  0  0
 13 36  1  0  0  0  0
 14 15  1  0  0  0  0
 14 37  1  0  0  0  0
 15 16  2  0  0  0  0
 15 38  1  0  0  0  0
 16 17  1  0  0  0  0
 17 18  1  0  0  0  0
 17 19  1  0  0  0  0
 17 20  1  0  0  0  0
 21 22  2  0  0  0  0
 21 23  1  0  0  0  0
 23 24  1  0  0  0  0
 24 39  1  0  0  0  0
 24 40  1  0  0  0  0
 24 41  1  0  0  0  0
M  END
> <s_m_source_file>
AV-unprocessed.smi

> <i_m_source_file_index>
2280

> <i_lp_mmshare_version>
43012

> <i_f3d_flags>
0

> <s_epik_input>
W0NIM11jMW5bY0hdbihjKD1PKWMxW0NIM10pW0NIMl1bQ0BIXShbT0hdKVtDSDJdT2MyW2NIXVtjSF1bY0hdW2NIXWMyQyhGKShGKUY=

> <s_epik_cmdline>
J2VwaWtfcHl0aG9uJywgJy1waCcsICc3LjAnLCAnLXRuJywgJzgnLCAnLW1hJywgJzIwMCcsICctbWV0YWxfYmluZGluZycsICctaW1hZScsICc8aW5maWxlLm1hZT4nLCAnLW9tYWUnLCAnPG91dGZpbGUubWFlPic=

> <r_lp_tautomer_probability>
1

> <r_epik_Ionization_Penalty>
3.7476e-05

> <r_epik_Ionization_Penalty_Charging>
8.44705e-08

> <r_epik_Ionization_Penalty_Neutral>
3.73915e-05

> <r_epik_State_Penalty>
-0

> <r_epik_Charging_Adjusted_Penalty>
8.44705e-08

> <i_epik_Tot_Q>
0

> <i_epik_Tot_abs_Q>
0

> <r_epik_Metal_State_Penalty>
-0

> <b_epik_Metal_Only>
0

> <s_lp_Force_Field>
OPLS_2005

> <r_lp_Energy>
25.7706

> <b_lp_Chiralities_Consistent>
1

> <s_lp_Variant>
AV-unprocessed.smi:2280-1

> <Gold.Version>
5.8.1

> <Gold.Id.Protein>
6NUR|6NUR_protein|mol2

> <Gold.PLP.Fitness>
45.6936

> <Gold.PLP.PLP>
-40.6811

> <Gold.PLP.part.hbond>
-1.0000

> <Gold.PLP.part.metal>
0.0000

> <Gold.PLP.part.buried>
-6.9691

> <Gold.PLP.part.nonpolar>
-33.1155

> <Gold.PLP.part.repulsive>
0.1394

> <Gold.PLP.ligand.clash>
0.4102

> <Gold.PLP.ligand.torsion>
0.5461

> <Gold.PLP.Chemscore.Hbond>
1.0000

> <Gold.PLP.Chemscore.CHOScore>
1.0000

> <Gold.PLP.Chemscore.Metal>
0.0000

> <Gold.Chemscore.Hbonds>
donor molecule, donor type, donor heavy atom, donor atom, acceptor molecule, acceptor atom, score
      P1  H  7997  8008       L1    22  1.00
      L1  C     4    28       P1  8028  1.00

> <Gold.PLP.Chemscore.Internal.Correction>
0.5150

> <Gold.Rescore>
     Score         DG    S(hbond)    S(metal)    S(lipo)     H(rot)  DE(clash)    DE(int)     intcor
      9.40     -12.60       0.92        0.00      94.29       2.73       0.04       3.16       ----

> <Gold.Chemscore.Fitness>
9.3996

> <Gold.Chemscore.DG>
-12.5979

> <Gold.Chemscore.ZeroCoef>
-5.4800

> <Gold.Chemscore.Hbond>
0.9206

> <Gold.Chemscore.Metal>
0.0000

> <Gold.Chemscore.Lipo>
94.2900

> <Gold.Chemscore.Internal_Hbond>
0.0000

> <Gold.Chemscore.DEClash>
0.0353

> <Gold.Chemscore.DEInternal>
3.1631

> <Gold.Chemscore.Rot>
2.7300

> <Gold.Chemscore.Internal.Correction>
   9.000000E+99

> <Gold.Chemscore.Hbonds>
donor molecule, donor type, donor heavy atom, donor atom, acceptor molecule, acceptor atom, score
      P1  H  7997  8008       L1    22  0.91

> <Gold.Chemscore.Hbond.Weighted>
-3.0747

> <Gold.Chemscore.Metal.Weighted>
-0.0000

> <Gold.Chemscore.Lipo.Weighted>
-11.0319

> <Gold.Chemscore.Internal_Hbond.Weighted>
0.0000

> <Gold.Chemscore.DEClash.Weighted>
0.0353

> <Gold.Chemscore.DEInternal.Weighted>
3.1631

> <Gold.Chemscore.Rot.Weighted>
6.9888

> <Gold.Chemscore.Internal.Correction.Weighted>
   9.000000E+99

> <Gold.Protein.RotatedTorsions>
[ 6907 6896 6895 6894 ] final -122.15 input  -60.11 | X-H torsion
[ 7974 7965 7964 7962 ] final  -12.40 input  175.53 | X-H torsion
[ 8008 7997 7996 7995 ] final  -69.94 input   59.86 | X-H torsion
[ 10167 10162 10161 10158 ] final  138.89 input  -65.29 | X-H torsion
[ 10718 10713 10712 10709 ] final  -55.43 input   66.30 | X-H torsion
[ 10763 10752 10751 10750 ] final  138.31 input  -60.55 | X-H torsion
[ 11005 11000 10999 10996 ] final    6.54 input  -57.11 | X-H torsion

> <Gold.Protein.ActiveResidues>
 VAL166  LYS551  ARG553  GLY616  TRP617  ASP618  TYR619  PRO620  LYS621  CYS622 
 ASP623  PHE694  ASN695  SER759  ASP760  ASP761  ALA762  ILE779  LEU786  VAL792 
 PHE793  MET794  SER795  GLU796  ALA797  LYS798  CYS799  TRP800  GLU811  SER814 

> <Gold.Protein.RotatedAtoms>
  150.8549  133.7731  159.3012 H   0  0  0  0  0  0  0  0  0  0  0  0  # atno 6907 bound_to 6896
  151.5391  135.1067  159.9931 H   0  0  0  0  0  0  0  0  0  0  0  0  # atno 6908 bound_to 6896
  152.4582  133.7723  159.6861 H   0  0  0  0  0  0  0  0  0  0  0  0  # atno 6909 bound_to 6896
  146.2153  140.3052  142.8378 H   0  0  0  0  0  0  0  0  0  0  0  0  # atno 7974 bound_to 7965
  154.4975  140.0844  156.7728 H   0  0  0  0  0  0  0  0  0  0  0  0  # atno 8008 bound_to 7997
  155.4081  140.3440  155.4243 H   0  0  0  0  0  0  0  0  0  0  0  0  # atno 8009 bound_to 7997
  156.1413  140.1530  156.8904 H   0  0  0  0  0  0  0  0  0  0  0  0  # atno 8010 bound_to 7997
  139.5096  144.6327  151.5776 H   0  0  0  0  0  0  0  0  0  0  0  0  # atno 10167 bound_to 10162
  156.1369  130.4156  150.0170 H   0  0  0  0  0  0  0  0  0  0  0  0  # atno 10718 bound_to 10713
  153.8875  135.3037  155.3447 H   0  0  0  0  0  0  0  0  0  0  0  0  # atno 10763 bound_to 10752
  154.7732  135.4875  153.9694 H   0  0  0  0  0  0  0  0  0  0  0  0  # atno 10764 bound_to 10752
  153.1316  135.6805  153.9267 H   0  0  0  0  0  0  0  0  0  0  0  0  # atno 10765 bound_to 10752
  140.5583  134.0217  155.7962 H   0  0  0  0  0  0  0  0  0  0  0  0  # atno 11005 bound_to 11000
  144.9028  140.7663  143.5856 LP  0  0  0  0  0  0  0  0  0  0  0  0  # atno 17320 bound_to 7965
  145.2979  139.1860  143.4705 LP  0  0  0  0  0  0  0  0  0  0  0  0  # atno 17321 bound_to 7965
  140.6065  143.9515  150.6422 LP  0  0  0  0  0  0  0  0  0  0  0  0  # atno 17342 bound_to 10162
  140.2743  143.3434  152.1209 LP  0  0  0  0  0  0  0  0  0  0  0  0  # atno 17343 bound_to 10162
  156.8066  130.9310  151.3645 LP  0  0  0  0  0  0  0  0  0  0  0  0  # atno 17370 bound_to 10713
  157.6540  130.8909  149.9692 LP  0  0  0  0  0  0  0  0  0  0  0  0  # atno 17371 bound_to 10713
  141.1130  133.9586  157.2875 LP  0  0  0  0  0  0  0  0  0  0  0  0  # atno 17394 bound_to 11000
  139.9420  135.0189  156.8739 LP  0  0  0  0  0  0  0  0  0  0  0  0  # atno 17395 bound_to 11000

$$$$
