AV-unprocessed.smi:1576|AV-procd|sdf|6345|dock3
  -GOLD-   22720 6563D 1   1.00000     0.00000
 Structure written by MMmdl.
 46 48  0  0  0  0  0  0  0  0  2 V2000
  140.9930  137.0249  154.1265 O   0  0  0  0  0  0  0  0  0  0  0  0
  141.6620  137.8972  153.5732 C   0  0  0  0  0  0  0  0  0  0  0  0
  142.8027  137.6872  152.8935 N   0  0  0  0  0  0  0  0  0  0  0  0
  143.4997  136.4653  152.6918 C   0  0  0  0  0  0  0  0  0  0  0  0
  144.6855  136.3439  151.9273 C   0  0  0  0  0  0  0  0  0  0  0  0
  145.2903  135.0790  151.7756 C   0  0  0  0  0  0  0  0  0  0  0  0
  144.7085  133.9363  152.3809 C   0  0  0  0  0  0  0  0  0  0  0  0
  145.2411  132.6308  152.2781 N   0  0  0  0  0  0  0  0  0  0  0  0
  144.4800  131.6818  151.4586 C   0  0  0  0  0  0  0  0  0  0  0  0
  145.3314  130.4609  151.0709 C   0  0  0  0  0  0  0  0  0  0  0  0
  145.9576  129.8069  152.3097 C   0  0  0  0  0  0  0  0  0  0  0  0
  146.7675  130.8486  153.0928 C   0  0  0  0  0  0  0  0  0  0  0  0
  145.9032  132.0679  153.4572 C   0  0  0  0  0  0  0  0  0  0  0  0
  143.5652  134.1065  153.0888 N   0  3  0  0  0  0  0  0  0  0  0  0
  142.9522  135.2973  153.2587 C   0  0  0  0  0  0  0  0  0  0  0  0
  141.3215  139.1936  153.5630 N   0  0  0  0  0  0  0  0  0  0  0  0
  140.1325  139.7516  154.2005 C   0  0  2  0  0  0  0  0  0  0  0  0
  138.9423  139.7853  153.2239 C   0  0  0  0  0  0  0  0  0  0  0  0
  137.8508  140.6879  153.8116 C   0  0  0  0  0  0  0  0  0  0  0  0
  138.7246  141.9757  154.7799 S   0  0  0  0  0  0  0  0  0  0  0  0
  138.7590  143.2300  154.0130 O   0  0  0  0  0  0  0  0  0  0  0  0
  138.2313  141.9480  156.1650 O   0  0  0  0  0  0  0  0  0  0  0  0
  140.3754  141.1842  154.7023 C   0  0  0  0  0  0  0  0  0  0  0  0
  143.1923  138.4910  152.4230 H   0  0  0  0  0  0  0  0  0  0  0  0
  145.1405  137.1930  151.4415 H   0  0  0  0  0  0  0  0  0  0  0  0
  146.1996  135.0151  151.1975 H   0  0  0  0  0  0  0  0  0  0  0  0
  143.6051  131.3594  152.0247 H   0  0  0  0  0  0  0  0  0  0  0  0
  144.1091  132.1440  150.5442 H   0  0  0  0  0  0  0  0  0  0  0  0
  144.7189  129.7356  150.5346 H   0  0  0  0  0  0  0  0  0  0  0  0
  146.1197  130.7691  150.3827 H   0  0  0  0  0  0  0  0  0  0  0  0
  145.1751  129.3911  152.9456 H   0  0  0  0  0  0  0  0  0  0  0  0
  146.5982  128.9754  152.0145 H   0  0  0  0  0  0  0  0  0  0  0  0
  147.1792  130.4004  153.9974 H   0  0  0  0  0  0  0  0  0  0  0  0
  147.6196  131.1719  152.4933 H   0  0  0  0  0  0  0  0  0  0  0  0
  146.5474  132.8145  153.9222 H   0  0  0  0  0  0  0  0  0  0  0  0
  145.1468  131.7862  154.1907 H   0  0  0  0  0  0  0  0  0  0  0  0
  142.0463  135.2771  153.8477 H   0  0  0  0  0  0  0  0  0  0  0  0
  141.9248  139.8428  153.0794 H   0  0  0  0  0  0  0  0  0  0  0  0
  139.8462  139.1287  155.0503 H   0  0  0  0  0  0  0  0  0  0  0  0
  139.2690  140.2097  152.2735 H   0  0  0  0  0  0  0  0  0  0  0  0
  138.5623  138.7853  153.0120 H   0  0  0  0  0  0  0  0  0  0  0  0
  137.2219  141.1490  153.0500 H   0  0  0  0  0  0  0  0  0  0  0  0
  137.2140  140.1277  154.4966 H   0  0  0  0  0  0  0  0  0  0  0  0
  140.8539  141.2176  155.6813 H   0  0  0  0  0  0  0  0  0  0  0  0
  140.9831  141.7539  153.9984 H   0  0  0  0  0  0  0  0  0  0  0  0
  143.1397  133.2842  153.5171 H   0  0  0  0  0  0  0  0  0  0  0  0
  1  2  2  0  0  0  0
  2  3  1  0  0  0  0
  2 16  1  0  0  0  0
  3  4  1  0  0  0  0
  3 24  1  0  0  0  0
  4 15  1  0  0  0  0
  4  5  2  0  0  0  0
  5  6  1  0  0  0  0
  5 25  1  0  0  0  0
  6  7  2  0  0  0  0
  6 26  1  0  0  0  0
  7  8  1  0  0  0  0
  7 14  1  0  0  0  0
  8 13  1  0  0  0  0
  8  9  1  0  0  0  0
  9 10  1  0  0  0  0
  9 27  1  0  0  0  0
  9 28  1  0  0  0  0
 10 11  1  0  0  0  0
 10 29  1  0  0  0  0
 10 30  1  0  0  0  0
 11 12  1  0  0  0  0
 11 31  1  0  0  0  0
 11 32  1  0  0  0  0
 12 13  1  0  0  0  0
 12 33  1  0  0  0  0
 12 34  1  0  0  0  0
 13 35  1  0  0  0  0
 13 36  1  0  0  0  0
 14 15  2  0  0  0  0
 14 46  1  0  0  0  0
 15 37  1  0  0  0  0
 16 17  1  0  0  0  0
 16 38  1  0  0  0  0
 17 23  1  0  0  0  0
 17 18  1  0  0  0  0
 17 39  1  0  0  0  0
 18 19  1  0  0  0  0
 18 40  1  0  0  0  0
 18 41  1  0  0  0  0
 19 20  1  0  0  0  0
 19 42  1  0  0  0  0
 19 43  1  0  0  0  0
 20 21  2  0  0  0  0
 20 22  2  0  0  0  0
 20 23  1  0  0  0  0
 23 44  1  0  0  0  0
 23 45  1  0  0  0  0
M  CHG  1  14   1
M  END
> <s_m_source_file>
AV-unprocessed.smi

> <i_m_source_file_index>
1576

> <i_lp_mmshare_version>
43012

> <i_f3d_flags>
0

> <s_epik_input>
Tz1TMSg9TylbQ0gyXVtDSDJdW0NASF0oW0NIMl0xKVtOSF1DKD1PKVtOSF1jMltjSF1bY0hdYyhuW2NIXTIpTjNbQ0gyXVtDSDJdW0NIMl1bQ0gyXVtDSDJdMw==

> <s_epik_cmdline>
J2VwaWtfcHl0aG9uJywgJy1waCcsICc3LjAnLCAnLXRuJywgJzgnLCAnLW1hJywgJzIwMCcsICctbWV0YWxfYmluZGluZycsICctaW1hZScsICc8aW5maWxlLm1hZT4nLCAnLW9tYWUnLCAnPG91dGZpbGUubWFlPic=

> <r_lp_tautomer_probability>
0.999994

> <r_epik_Ionization_Penalty>
1.19724

> <r_epik_Ionization_Penalty_Charging>
1.19722

> <r_epik_Ionization_Penalty_Neutral>
2.11505e-05

> <r_epik_State_Penalty>
1.26251

> <r_epik_Charging_Adjusted_Penalty>
2.45973

> <i_epik_Tot_Q>
1

> <i_epik_Tot_abs_Q>
1

> <r_epik_Metal_State_Penalty>
1.33857

> <b_epik_Metal_Only>
0

> <s_lp_Force_Field>
OPLS_2005

> <r_lp_Energy>
26.9885

> <b_lp_Chiralities_Consistent>
1

> <s_lp_Variant>
AV-unprocessed.smi:1576-3

> <Gold.Version>
5.8.1

> <Gold.Id.Protein>
6NUR|6NUR_protein|mol2

> <Gold.PLP.Fitness>
47.3107

> <Gold.PLP.PLP>
-33.1828

> <Gold.PLP.part.hbond>
-4.7333

> <Gold.PLP.part.metal>
0.0000

> <Gold.PLP.part.buried>
-4.3581

> <Gold.PLP.part.nonpolar>
-25.2494

> <Gold.PLP.part.repulsive>
0.2852

> <Gold.PLP.ligand.clash>
0.0000

> <Gold.PLP.ligand.torsion>
0.6357

> <Gold.PLP.Chemscore.Hbond>
4.9585

> <Gold.PLP.Chemscore.CHOScore>
0.0000

> <Gold.PLP.Chemscore.Metal>
0.0000

> <Gold.Chemscore.Hbonds>
donor molecule, donor type, donor heavy atom, donor atom, acceptor molecule, acceptor atom, score
      L1  H     3    24       P1 10175  0.98
      L1  H    14    46       P1 10957  2.00
      L1  H    16    38       P1 10175  1.00
      P1  H 10162 10167       L1    21  0.98

> <Gold.PLP.Chemscore.Internal.Correction>
0.5238

> <Gold.Rescore>
     Score         DG    S(hbond)    S(metal)    S(lipo)     H(rot)  DE(clash)    DE(int)     intcor
     20.49     -22.53       3.81        0.00      64.21       1.25       0.02       2.02       ----

> <Gold.Chemscore.Fitness>
20.4920

> <Gold.Chemscore.DG>
-22.5318

> <Gold.Chemscore.ZeroCoef>
-5.4800

> <Gold.Chemscore.Hbond>
3.8122

> <Gold.Chemscore.Metal>
0.0000

> <Gold.Chemscore.Lipo>
64.2063

> <Gold.Chemscore.Internal_Hbond>
0.0000

> <Gold.Chemscore.DEClash>
0.0197

> <Gold.Chemscore.DEInternal>
2.0201

> <Gold.Chemscore.Rot>
1.2473

> <Gold.Chemscore.Internal.Correction>
   9.000000E+99

> <Gold.Chemscore.Hbonds>
donor molecule, donor type, donor heavy atom, donor atom, acceptor molecule, acceptor atom, score
      L1  H     3    24       P1 10175  0.91
      L1  H    14    46       P1 10957  0.91
      L1  H    16    38       P1 10175  0.44
      P1  H 10162 10167       L1    21  0.88

> <Gold.Chemscore.Hbond.Weighted>
-12.7328

> <Gold.Chemscore.Metal.Weighted>
-0.0000

> <Gold.Chemscore.Lipo.Weighted>
-7.5121

> <Gold.Chemscore.Internal_Hbond.Weighted>
0.0000

> <Gold.Chemscore.DEClash.Weighted>
0.0197

> <Gold.Chemscore.DEInternal.Weighted>
2.0201

> <Gold.Chemscore.Rot.Weighted>
3.1931

> <Gold.Chemscore.Internal.Correction.Weighted>
   9.000000E+99

> <Gold.Protein.RotatedTorsions>
[ 6907 6896 6895 6894 ] final  -50.36 input  -60.11 | X-H torsion
[ 7974 7965 7964 7962 ] final -126.39 input  175.53 | X-H torsion
[ 8008 7997 7996 7995 ] final -112.61 input   59.86 | X-H torsion
[ 10167 10162 10161 10158 ] final -148.19 input  -65.29 | X-H torsion
[ 10718 10713 10712 10709 ] final  135.93 input   66.30 | X-H torsion
[ 10763 10752 10751 10750 ] final  -28.72 input  -60.55 | X-H torsion
[ 11005 11000 10999 10996 ] final -102.56 input  -57.11 | X-H torsion

> <Gold.Protein.ActiveResidues>
 VAL166  LYS551  ARG553  GLY616  TRP617  ASP618  TYR619  PRO620  LYS621  CYS622 
 ASP623  PHE694  ASN695  SER759  ASP760  ASP761  ALA762  ILE779  LEU786  VAL792 
 PHE793  MET794  SER795  GLU796  ALA797  LYS798  CYS799  TRP800  GLU811  SER814 

> <Gold.Protein.RotatedAtoms>
  150.8715  134.8090  159.7158 H   0  0  0  0  0  0  0  0  0  0  0  0  # atno 6907 bound_to 6896
  152.4718  134.4939  159.9713 H   0  0  0  0  0  0  0  0  0  0  0  0  # atno 6908 bound_to 6896
  151.5027  133.3462  159.2907 H   0  0  0  0  0  0  0  0  0  0  0  0  # atno 6909 bound_to 6896
  144.9877  140.7702  143.4573 H   0  0  0  0  0  0  0  0  0  0  0  0  # atno 7974 bound_to 7965
  155.0079  140.0394  157.2387 H   0  0  0  0  0  0  0  0  0  0  0  0  # atno 8008 bound_to 7997
  154.7486  140.2762  155.6288 H   0  0  0  0  0  0  0  0  0  0  0  0  # atno 8009 bound_to 7997
  156.2880  140.2651  156.2234 H   0  0  0  0  0  0  0  0  0  0  0  0  # atno 8010 bound_to 7997
  139.7554  143.8456  152.2596 H   0  0  0  0  0  0  0  0  0  0  0  0  # atno 10167 bound_to 10162
  157.4520  131.1066  151.0022 H   0  0  0  0  0  0  0  0  0  0  0  0  # atno 10718 bound_to 10713
  153.7529  135.6924  153.4942 H   0  0  0  0  0  0  0  0  0  0  0  0  # atno 10763 bound_to 10752
  153.1991  135.4443  155.0243 H   0  0  0  0  0  0  0  0  0  0  0  0  # atno 10764 bound_to 10752
  154.8181  135.3408  154.7049 H   0  0  0  0  0  0  0  0  0  0  0  0  # atno 10765 bound_to 10752
  141.1184  133.8568  157.1375 H   0  0  0  0  0  0  0  0  0  0  0  0  # atno 11005 bound_to 11000
  145.2330  139.2106  143.5033 LP  0  0  0  0  0  0  0  0  0  0  0  0  # atno 17320 bound_to 7965
  146.3424  140.2210  142.8591 LP  0  0  0  0  0  0  0  0  0  0  0  0  # atno 17321 bound_to 7965
  139.8446  144.7193  150.9288 LP  0  0  0  0  0  0  0  0  0  0  0  0  # atno 17342 bound_to 10162
  140.7802  143.3952  151.1241 LP  0  0  0  0  0  0  0  0  0  0  0  0  # atno 17343 bound_to 10162
  157.0849  130.5918  149.5428 LP  0  0  0  0  0  0  0  0  0  0  0  0  # atno 17370 bound_to 10713
  155.9991  130.5066  150.7595 LP  0  0  0  0  0  0  0  0  0  0  0  0  # atno 17371 bound_to 10713
  140.0122  134.9983  157.0419 LP  0  0  0  0  0  0  0  0  0  0  0  0  # atno 17394 bound_to 11000
  140.4580  134.1514  155.7188 LP  0  0  0  0  0  0  0  0  0  0  0  0  # atno 17395 bound_to 11000

$$$$
