AV-unprocessed.smi:2923|AV-procd|sdf|11202|dock6
  -GOLD-   2272016 93D 1   1.00000     0.00000
 Structure written by MMmdl.
 47 49  0  0  0  0  0  0  0  0  2 V2000
  149.7947  133.4733  154.6178 C   0  0  0  0  0  0  0  0  0  0  0  0
  148.8665  134.5891  154.5131 N   0  0  0  0  0  0  0  0  0  0  0  0
  147.4550  134.2603  154.6428 C   0  0  0  0  0  0  0  0  0  0  0  0
  149.2470  135.6879  155.2953 C   0  0  0  0  0  0  0  0  0  0  0  0
  149.1559  135.6522  156.7020 C   0  0  0  0  0  0  0  0  0  0  0  0
  149.5444  136.7829  157.4493 C   0  0  0  0  0  0  0  0  0  0  0  0
  150.0266  137.9311  156.7844 C   0  0  0  0  0  0  0  0  0  0  0  0
  150.3884  139.0527  157.5782 N   0  0  0  0  0  0  0  0  0  0  0  0
  151.2661  140.0304  157.2944 C   0  0  0  0  0  0  0  0  0  0  0  0
  151.9508  140.0994  156.2741 O   0  0  0  0  0  0  0  0  0  0  0  0
  151.3193  140.9338  158.2817 N   0  0  0  0  0  0  0  0  0  0  0  0
  152.1971  142.1089  158.2909 C   0  0  2  0  0  0  0  0  0  0  0  0
  153.1478  142.1199  159.4909 C   0  0  2  0  0  0  0  0  0  0  0  0
  153.6372  141.1155  160.4705 C   0  0  0  0  0  0  0  0  0  0  0  0
  153.5499  142.0174  161.7317 C   0  0  0  0  0  0  0  0  0  0  0  0
  152.8315  143.2096  161.3217 O   0  0  0  0  0  0  0  0  0  0  0  0
  152.0122  142.7645  160.2591 C   0  0  1  0  0  0  0  0  0  0  0  0
  151.5823  143.4193  158.9272 C   0  0  0  0  0  0  0  0  0  0  0  0
  152.2445  144.7595  158.5589 C   0  0  0  0  0  0  0  0  0  0  0  0
  150.0747  143.6402  158.7597 C   0  0  0  0  0  0  0  0  0  0  0  0
  150.0876  137.9136  155.3691 C   0  0  0  0  0  0  0  0  0  0  0  0
  149.7040  136.8101  154.6910 N   0  3  0  0  0  0  0  0  0  0  0  0
  150.8234  133.8090  154.4805 H   0  0  0  0  0  0  0  0  0  0  0  0
  149.5788  132.7303  153.8497 H   0  0  0  0  0  0  0  0  0  0  0  0
  149.7166  132.9893  155.5921 H   0  0  0  0  0  0  0  0  0  0  0  0
  146.8368  135.1528  154.5385 H   0  0  0  0  0  0  0  0  0  0  0  0
  147.2456  133.8061  155.6119 H   0  0  0  0  0  0  0  0  0  0  0  0
  147.1601  133.5553  153.8651 H   0  0  0  0  0  0  0  0  0  0  0  0
  148.7908  134.7688  157.2058 H   0  0  0  0  0  0  0  0  0  0  0  0
  149.4747  136.7632  158.5272 H   0  0  0  0  0  0  0  0  0  0  0  0
  149.9600  139.0947  158.4914 H   0  0  0  0  0  0  0  0  0  0  0  0
  150.7250  140.8019  159.0869 H   0  0  0  0  0  0  0  0  0  0  0  0
  152.7101  142.2858  157.3440 H   0  0  0  0  0  0  0  0  0  0  0  0
  153.9618  142.8162  159.2754 H   0  0  0  0  0  0  0  0  0  0  0  0
  152.9780  140.2493  160.5399 H   0  0  0  0  0  0  0  0  0  0  0  0
  154.6534  140.7790  160.2637 H   0  0  0  0  0  0  0  0  0  0  0  0
  153.0154  141.5091  162.5351 H   0  0  0  0  0  0  0  0  0  0  0  0
  154.5364  142.2947  162.1042 H   0  0  0  0  0  0  0  0  0  0  0  0
  151.2631  142.0564  160.6282 H   0  0  0  0  0  0  0  0  0  0  0  0
  151.9649  145.5435  159.2633 H   0  0  0  0  0  0  0  0  0  0  0  0
  151.9403  145.0913  157.5657 H   0  0  0  0  0  0  0  0  0  0  0  0
  153.3323  144.7206  158.5500 H   0  0  0  0  0  0  0  0  0  0  0  0
  149.7310  144.5078  159.3237 H   0  0  0  0  0  0  0  0  0  0  0  0
  149.4939  142.7880  159.1123 H   0  0  0  0  0  0  0  0  0  0  0  0
  149.8103  143.8015  157.7142 H   0  0  0  0  0  0  0  0  0  0  0  0
  150.4120  138.7354  154.7492 H   0  0  0  0  0  0  0  0  0  0  0  0
  149.7583  136.8263  153.6724 H   0  0  0  0  0  0  0  0  0  0  0  0
  1  2  1  0  0  0  0
  1 23  1  0  0  0  0
  1 24  1  0  0  0  0
  1 25  1  0  0  0  0
  2  3  1  0  0  0  0
  2  4  1  0  0  0  0
  3 26  1  0  0  0  0
  3 27  1  0  0  0  0
  3 28  1  0  0  0  0
  4 22  1  0  0  0  0
  4  5  2  0  0  0  0
  5  6  1  0  0  0  0
  5 29  1  0  0  0  0
  6  7  2  0  0  0  0
  6 30  1  0  0  0  0
  7  8  1  0  0  0  0
  7 21  1  0  0  0  0
  8  9  1  0  0  0  0
  8 31  1  0  0  0  0
  9 10  2  0  0  0  0
  9 11  1  0  0  0  0
 11 12  1  0  0  0  0
 11 32  1  0  0  0  0
 12 18  1  0  0  0  0
 12 13  1  0  0  0  0
 12 33  1  0  0  0  0
 13 17  1  0  0  0  0
 13 14  1  0  0  0  0
 13 34  1  0  0  0  0
 14 15  1  0  0  0  0
 14 35  1  0  0  0  0
 14 36  1  0  0  0  0
 15 16  1  0  0  0  0
 15 37  1  0  0  0  0
 15 38  1  0  0  0  0
 16 17  1  0  0  0  0
 17 18  1  0  0  0  0
 17 39  1  0  0  0  0
 18 19  1  0  0  0  0
 18 20  1  0  0  0  0
 19 40  1  0  0  0  0
 19 41  1  0  0  0  0
 19 42  1  0  0  0  0
 20 43  1  0  0  0  0
 20 44  1  0  0  0  0
 20 45  1  0  0  0  0
 21 22  2  0  0  0  0
 21 46  1  0  0  0  0
 22 47  1  0  0  0  0
M  CHG  1  22   1
M  END
> <s_m_source_file>
AV-unprocessed.smi

> <i_m_source_file_index>
2923

> <i_lp_mmshare_version>
43012

> <i_f3d_flags>
0

> <s_epik_input>
W0NIM11OKFtDSDNdKWMxW2NIXVtjSF1jKFtjSF1uMSlbTkhdQyg9TylbTkhdW0NASF0yQyhbQ0gzXSkoW0NIM10pW0NAQEhdKFtDQEhdMjMpT1tDSDJdW0NIMl0z

> <s_epik_cmdline>
J2VwaWtfcHl0aG9uJywgJy1waCcsICc3LjAnLCAnLXRuJywgJzgnLCAnLW1hJywgJzIwMCcsICctbWV0YWxfYmluZGluZycsICctaW1hZScsICc8aW5maWxlLm1hZT4nLCAnLW9tYWUnLCAnPG91dGZpbGUubWFlPic=

> <r_lp_tautomer_probability>
0.999994

> <r_epik_Ionization_Penalty>
0.252205

> <r_epik_Ionization_Penalty_Charging>
0.252185

> <r_epik_Ionization_Penalty_Neutral>
1.99479e-05

> <r_epik_State_Penalty>
0.243573

> <r_epik_Charging_Adjusted_Penalty>
0.495758

> <i_epik_Tot_Q>
1

> <i_epik_Tot_abs_Q>
1

> <r_epik_Metal_State_Penalty>
0.534372

> <b_epik_Metal_Only>
0

> <s_lp_Force_Field>
OPLS_2005

> <r_lp_Energy>
76.1272

> <b_lp_Chiralities_Consistent>
1

> <s_lp_Variant>
AV-unprocessed.smi:2923-1

> <Gold.Version>
5.8.1

> <Gold.Id.Protein>
6NUR|6NUR_protein|mol2

> <Gold.PLP.Fitness>
40.0486

> <Gold.PLP.PLP>
-34.5143

> <Gold.PLP.part.hbond>
-1.0000

> <Gold.PLP.part.metal>
0.0000

> <Gold.PLP.part.buried>
-6.3125

> <Gold.PLP.part.nonpolar>
-27.8926

> <Gold.PLP.part.repulsive>
0.6833

> <Gold.PLP.ligand.clash>
0.0000

> <Gold.PLP.ligand.torsion>
0.4374

> <Gold.PLP.Chemscore.Hbond>
1.9840

> <Gold.PLP.Chemscore.CHOScore>
0.0000

> <Gold.PLP.Chemscore.Metal>
0.0000

> <Gold.Chemscore.Hbonds>
donor molecule, donor type, donor heavy atom, donor atom, acceptor molecule, acceptor atom, score
      L1  H    22    47       P1  7948  1.97

> <Gold.PLP.Chemscore.Internal.Correction>
0.4571

> <Gold.Rescore>
     Score         DG    S(hbond)    S(metal)    S(lipo)     H(rot)  DE(clash)    DE(int)     intcor
     15.82     -17.32       0.99        0.00      99.26       1.20       0.01       1.50       ----

> <Gold.Chemscore.Fitness>
15.8159

> <Gold.Chemscore.DG>
-17.3238

> <Gold.Chemscore.ZeroCoef>
-5.4800

> <Gold.Chemscore.Hbond>
0.9924

> <Gold.Chemscore.Metal>
0.0000

> <Gold.Chemscore.Lipo>
99.2618

> <Gold.Chemscore.Internal_Hbond>
0.0000

> <Gold.Chemscore.DEClash>
0.0092

> <Gold.Chemscore.DEInternal>
1.4987

> <Gold.Chemscore.Rot>
1.2049

> <Gold.Chemscore.Internal.Correction>
   9.000000E+99

> <Gold.Chemscore.Hbonds>
donor molecule, donor type, donor heavy atom, donor atom, acceptor molecule, acceptor atom, score
      L1  H    22    47       P1  7948  0.52

> <Gold.Chemscore.Hbond.Weighted>
-3.3148

> <Gold.Chemscore.Metal.Weighted>
-0.0000

> <Gold.Chemscore.Lipo.Weighted>
-11.6136

> <Gold.Chemscore.Internal_Hbond.Weighted>
0.0000

> <Gold.Chemscore.DEClash.Weighted>
0.0092

> <Gold.Chemscore.DEInternal.Weighted>
1.4987

> <Gold.Chemscore.Rot.Weighted>
3.0846

> <Gold.Chemscore.Internal.Correction.Weighted>
   9.000000E+99

> <Gold.Protein.RotatedTorsions>
[ 6907 6896 6895 6894 ] final  104.43 input  -60.11 | X-H torsion
[ 7974 7965 7964 7962 ] final  -85.13 input  175.53 | X-H torsion
[ 8008 7997 7996 7995 ] final  109.58 input   59.86 | X-H torsion
[ 10167 10162 10161 10158 ] final  -24.73 input  -65.29 | X-H torsion
[ 10718 10713 10712 10709 ] final -158.87 input   66.30 | X-H torsion
[ 10763 10752 10751 10750 ] final  -54.65 input  -60.55 | X-H torsion
[ 11005 11000 10999 10996 ] final   40.25 input  -57.11 | X-H torsion

> <Gold.Protein.ActiveResidues>
 VAL166  LYS551  ARG553  GLY616  TRP617  ASP618  TYR619  PRO620  LYS621  CYS622 
 ASP623  PHE694  ASN695  SER759  ASP760  ASP761  ALA762  ILE779  LEU786  VAL792 
 PHE793  MET794  SER795  GLU796  ALA797  LYS798  CYS799  TRP800  GLU811  SER814 

> <Gold.Protein.RotatedAtoms>
  152.5264  133.9678  159.7747 H   0  0  0  0  0  0  0  0  0  0  0  0  # atno 6907 bound_to 6896
  150.9956  133.6098  159.2709 H   0  0  0  0  0  0  0  0  0  0  0  0  # atno 6908 bound_to 6896
  151.3226  135.0828  159.9364 H   0  0  0  0  0  0  0  0  0  0  0  0  # atno 6909 bound_to 6896
  145.4973  140.9549  143.1779 H   0  0  0  0  0  0  0  0  0  0  0  0  # atno 7974 bound_to 7965
  156.1990  140.3055  155.9487 H   0  0  0  0  0  0  0  0  0  0  0  0  # atno 8008 bound_to 7997
  155.2999  140.0446  157.3046 H   0  0  0  0  0  0  0  0  0  0  0  0  # atno 8009 bound_to 7997
  154.5546  140.2302  155.8439 H   0  0  0  0  0  0  0  0  0  0  0  0  # atno 8010 bound_to 7997
  140.7288  143.4328  151.0776 H   0  0  0  0  0  0  0  0  0  0  0  0  # atno 10167 bound_to 10162
  156.5602  130.8644  151.2807 H   0  0  0  0  0  0  0  0  0  0  0  0  # atno 10718 bound_to 10713
  154.1783  135.6447  153.5027 H   0  0  0  0  0  0  0  0  0  0  0  0  # atno 10763 bound_to 10752
  153.0066  135.5400  154.6541 H   0  0  0  0  0  0  0  0  0  0  0  0  # atno 10764 bound_to 10752
  154.5898  135.2933  155.0619 H   0  0  0  0  0  0  0  0  0  0  0  0  # atno 10765 bound_to 10752
  140.1948  134.3942  155.8127 H   0  0  0  0  0  0  0  0  0  0  0  0  # atno 11005 bound_to 11000
  144.7800  139.6547  143.7158 LP  0  0  0  0  0  0  0  0  0  0  0  0  # atno 17320 bound_to 7965
  146.2247  139.5701  142.9595 LP  0  0  0  0  0  0  0  0  0  0  0  0  # atno 17321 bound_to 7965
  139.7986  143.8116  152.3160 LP  0  0  0  0  0  0  0  0  0  0  0  0  # atno 17342 bound_to 10162
  139.8124  144.7330  150.9679 LP  0  0  0  0  0  0  0  0  0  0  0  0  # atno 17343 bound_to 10162
  157.7370  130.9788  150.2168 LP  0  0  0  0  0  0  0  0  0  0  0  0  # atno 17370 bound_to 10713
  156.2806  130.3733  149.7939 LP  0  0  0  0  0  0  0  0  0  0  0  0  # atno 17371 bound_to 10713
  141.2227  133.7064  156.8158 LP  0  0  0  0  0  0  0  0  0  0  0  0  # atno 17394 bound_to 11000
  140.2119  134.8821  157.3284 LP  0  0  0  0  0  0  0  0  0  0  0  0  # atno 17395 bound_to 11000

$$$$
