AV-unprocessed.smi:265|AV-procd|sdf|2027|dock4
  -GOLD-   2262021233D 1   1.00000     0.00000
 Structure written by MMmdl.
 52 56  0  0  0  0  0  0  0  0  1 V2000
  149.1170  133.2086  153.4610 C   0  0  0  0  0  0  0  0  0  0  0  0
  148.9784  133.1343  154.9890 C   0  0  2  0  0  0  0  0  0  0  0  0
  147.6064  133.1330  155.3743 O   0  0  0  0  0  0  0  0  0  0  0  0
  147.4444  133.8100  156.6180 C   0  0  0  0  0  0  0  0  0  0  0  0
  148.8556  134.1292  157.1038 C   0  0  0  0  0  0  0  0  0  0  0  0
  149.6321  134.2693  155.7997 C   0  0  1  0  0  0  0  0  0  0  0  0
  150.9960  133.9777  156.0413 O   0  0  0  0  0  0  0  0  0  0  0  0
  149.5091  135.6707  155.1417 C   0  0  0  0  0  0  0  0  0  0  0  0
  150.0614  136.7485  155.9470 N   0  0  0  0  0  0  0  0  0  0  0  0
  149.5832  137.2040  157.1546 C   0  0  0  0  0  0  0  0  0  0  0  0
  150.2560  138.1889  157.6838 N   0  0  0  0  0  0  0  0  0  0  0  0
  151.2845  138.4238  156.7786 C   0  0  0  0  0  0  0  0  0  0  0  0
  152.3675  139.3463  156.7256 C   0  0  0  0  0  0  0  0  0  0  0  0
  152.6066  140.2546  157.7054 N   0  0  0  0  0  0  0  0  0  0  0  0
  153.0435  139.7481  159.0113 C   0  0  0  0  0  0  0  0  0  0  0  0
  153.6014  140.8806  159.8944 C   0  0  0  0  0  0  0  0  0  0  0  0
  152.5778  142.0188  159.9946 C   0  0  1  0  0  0  0  0  0  0  0  0
  153.0864  143.1316  160.7146 O   0  0  0  0  0  0  0  0  0  0  0  0
  152.1046  144.1440  160.9627 C   0  0  0  0  0  0  0  0  0  0  0  0
  151.2783  144.4974  159.7074 C   0  0  0  0  0  0  0  0  0  0  0  0
  150.5701  145.5015  159.7040 O   0  0  0  0  0  0  0  0  0  0  0  0
  151.3289  143.6607  158.6578 N   0  0  0  0  0  0  0  0  0  0  0  0
  152.2388  142.5254  158.5842 C   0  0  2  0  0  0  0  0  0  0  0  0
  151.6659  141.3772  157.7392 C   0  0  0  0  0  0  0  0  0  0  0  0
  153.1825  139.2906  155.6379 N   0  0  0  0  0  0  0  0  0  0  0  0
  152.9642  138.3898  154.6751 C   0  0  0  0  0  0  0  0  0  0  0  0
  152.0034  137.4676  154.5978 N   0  0  0  0  0  0  0  0  0  0  0  0
  151.1753  137.5251  155.6797 C   0  0  0  0  0  0  0  0  0  0  0  0
  151.6826  141.6429  160.4950 H   0  0  0  0  0  0  0  0  0  0  0  0
  153.1511  142.8858  158.1053 H   0  0  0  0  0  0  0  0  0  0  0  0
  150.1653  133.2431  153.1638 H   0  0  0  0  0  0  0  0  0  0  0  0
  148.6194  134.0874  153.0510 H   0  0  0  0  0  0  0  0  0  0  0  0
  148.6692  132.3326  152.9915 H   0  0  0  0  0  0  0  0  0  0  0  0
  149.3876  132.1800  155.3270 H   0  0  0  0  0  0  0  0  0  0  0  0
  146.8799  134.7270  156.4458 H   0  0  0  0  0  0  0  0  0  0  0  0
  146.8895  133.2011  157.3320 H   0  0  0  0  0  0  0  0  0  0  0  0
  148.8982  134.9983  157.7592 H   0  0  0  0  0  0  0  0  0  0  0  0
  149.2301  133.2781  157.6755 H   0  0  0  0  0  0  0  0  0  0  0  0
  151.4550  134.7905  156.1875 H   0  0  0  0  0  0  0  0  0  0  0  0
  150.0173  135.6839  154.1767 H   0  0  0  0  0  0  0  0  0  0  0  0
  148.4637  135.9028  154.9353 H   0  0  0  0  0  0  0  0  0  0  0  0
  148.7100  136.7829  157.6315 H   0  0  0  0  0  0  0  0  0  0  0  0
  152.1985  139.2723  159.5111 H   0  0  0  0  0  0  0  0  0  0  0  0
  153.8105  138.9841  158.8774 H   0  0  0  0  0  0  0  0  0  0  0  0
  153.8418  140.5001  160.8874 H   0  0  0  0  0  0  0  0  0  0  0  0
  154.5326  141.2557  159.4680 H   0  0  0  0  0  0  0  0  0  0  0  0
  151.4241  143.8006  161.7429 H   0  0  0  0  0  0  0  0  0  0  0  0
  152.6030  145.0373  161.3397 H   0  0  0  0  0  0  0  0  0  0  0  0
  150.7684  143.8678  157.8439 H   0  0  0  0  0  0  0  0  0  0  0  0
  151.4434  141.7419  156.7371 H   0  0  0  0  0  0  0  0  0  0  0  0
  150.7220  141.0317  158.1635 H   0  0  0  0  0  0  0  0  0  0  0  0
  153.6598  138.4099  153.8491 H   0  0  0  0  0  0  0  0  0  0  0  0
  1  2  1  0  0  0  0
  1 31  1  0  0  0  0
  1 32  1  0  0  0  0
  1 33  1  0  0  0  0
  2  6  1  0  0  0  0
  2  3  1  0  0  0  0
  2 34  1  0  0  0  0
  3  4  1  0  0  0  0
  4  5  1  0  0  0  0
  4 35  1  0  0  0  0
  4 36  1  0  0  0  0
  5  6  1  0  0  0  0
  5 37  1  0  0  0  0
  5 38  1  0  0  0  0
  6  7  1  0  0  0  0
  6  8  1  0  0  0  0
  7 39  1  0  0  0  0
  8  9  1  0  0  0  0
  8 40  1  0  0  0  0
  8 41  1  0  0  0  0
  9 28  1  0  0  0  0
  9 10  1  0  0  0  0
 10 11  2  0  0  0  0
 10 42  1  0  0  0  0
 11 12  1  0  0  0  0
 12 28  2  0  0  0  0
 12 13  1  0  0  0  0
 13 14  1  0  0  0  0
 13 25  2  0  0  0  0
 14 24  1  0  0  0  0
 14 15  1  0  0  0  0
 15 16  1  0  0  0  0
 15 43  1  0  0  0  0
 15 44  1  0  0  0  0
 16 17  1  0  0  0  0
 16 45  1  0  0  0  0
 16 46  1  0  0  0  0
 17 29  1  0  0  0  0
 17 23  1  0  0  0  0
 17 18  1  0  0  0  0
 18 19  1  0  0  0  0
 19 20  1  0  0  0  0
 19 47  1  0  0  0  0
 19 48  1  0  0  0  0
 20 21  2  0  0  0  0
 20 22  1  0  0  0  0
 22 23  1  0  0  0  0
 22 49  1  0  0  0  0
 23 30  1  0  0  0  0
 23 24  1  0  0  0  0
 24 50  1  0  0  0  0
 24 51  1  0  0  0  0
 25 26  1  0  0  0  0
 26 27  2  0  0  0  0
 26 52  1  0  0  0  0
 27 28  1  0  0  0  0
M  END
> <s_m_source_file>
AV-unprocessed.smi

> <i_m_source_file_index>
265

> <i_lp_mmshare_version>
43012

> <i_f3d_flags>
0

> <s_epik_input>
W0NIMl0xW0NIMl1PW0NAQEhdKFtDSDNdKVtDQEBdMShbT0hdKVtDSDJdbihbY0hdbjIpYyhjMjMpbltjSF1uYzNOKFtDSDJdW0NIMl00KVtDSDJdW0NAQEhdKFtDQEhdNDUpW05IXUMoPU8pW0NIMl1PNQ==

> <s_epik_cmdline>
J2VwaWtfcHl0aG9uJywgJy1waCcsICc3LjAnLCAnLXRuJywgJzgnLCAnLW1hJywgJzIwMCcsICctbWV0YWxfYmluZGluZycsICctaW1hZScsICc8aW5maWxlLm1hZT4nLCAnLW9tYWUnLCAnPG91dGZpbGUubWFlPic=

> <r_lp_tautomer_probability>
1

> <r_epik_Ionization_Penalty>
0.00221504

> <r_epik_Ionization_Penalty_Charging>
0

> <r_epik_Ionization_Penalty_Neutral>
0.00221504

> <r_epik_State_Penalty>
-0

> <r_epik_Charging_Adjusted_Penalty>
0

> <i_epik_Tot_Q>
0

> <i_epik_Tot_abs_Q>
0

> <r_epik_Metal_State_Penalty>
-0

> <b_epik_Metal_Only>
0

> <s_lp_Force_Field>
OPLS_2005

> <r_lp_Energy>
44.3077

> <b_lp_Chiralities_Consistent>
1

> <s_lp_Variant>
AV-unprocessed.smi:265-13

> <Gold.Version>
5.8.1

> <Gold.Id.Protein>
6NUR|6NUR_protein|mol2

> <Gold.PLP.Fitness>
45.7532

> <Gold.PLP.PLP>
-40.3310

> <Gold.PLP.part.hbond>
-3.8100

> <Gold.PLP.part.metal>
0.0000

> <Gold.PLP.part.buried>
-6.3071

> <Gold.PLP.part.nonpolar>
-31.5262

> <Gold.PLP.part.repulsive>
0.3862

> <Gold.PLP.ligand.clash>
0.0000

> <Gold.PLP.ligand.torsion>
0.2722

> <Gold.PLP.Chemscore.Hbond>
1.8437

> <Gold.PLP.Chemscore.CHOScore>
0.0000

> <Gold.PLP.Chemscore.Metal>
0.0000

> <Gold.Chemscore.Hbonds>
donor molecule, donor type, donor heavy atom, donor atom, acceptor molecule, acceptor atom, score
      P1  H  7997  8009       L1    25  1.00
      P1  H 10752 10765       L1    27  0.84

> <Gold.PLP.Chemscore.Internal.Correction>
0.4356

> <Gold.Rescore>
     Score         DG    S(hbond)    S(metal)    S(lipo)     H(rot)  DE(clash)    DE(int)     intcor
     13.42     -15.94       2.17        0.00      76.64       2.25       2.25       0.26       ----

> <Gold.Chemscore.Fitness>
13.4229

> <Gold.Chemscore.DG>
-15.9394

> <Gold.Chemscore.ZeroCoef>
-5.4800

> <Gold.Chemscore.Hbond>
2.1678

> <Gold.Chemscore.Metal>
0.0000

> <Gold.Chemscore.Lipo>
76.6411

> <Gold.Chemscore.Internal_Hbond>
0.0000

> <Gold.Chemscore.DEClash>
2.2537

> <Gold.Chemscore.DEInternal>
0.2628

> <Gold.Chemscore.Rot>
2.2453

> <Gold.Chemscore.Internal.Correction>
   9.000000E+99

> <Gold.Chemscore.Hbonds>
donor molecule, donor type, donor heavy atom, donor atom, acceptor molecule, acceptor atom, score
      P1  H  7997  8009       L1    25  0.67
      P1  H 10752 10765       L1    27  0.38

> <Gold.Chemscore.Hbond.Weighted>
-7.2404

> <Gold.Chemscore.Metal.Weighted>
-0.0000

> <Gold.Chemscore.Lipo.Weighted>
-8.9670

> <Gold.Chemscore.Internal_Hbond.Weighted>
0.0000

> <Gold.Chemscore.DEClash.Weighted>
2.2537

> <Gold.Chemscore.DEInternal.Weighted>
0.2628

> <Gold.Chemscore.Rot.Weighted>
5.7479

> <Gold.Chemscore.Internal.Correction.Weighted>
   9.000000E+99

> <Gold.Protein.RotatedTorsions>
[ 6907 6896 6895 6894 ] final   51.74 input  -60.11 | X-H torsion
[ 7974 7965 7964 7962 ] final    9.00 input  175.53 | X-H torsion
[ 8008 7997 7996 7995 ] final -135.27 input   59.86 | X-H torsion
[ 10167 10162 10161 10158 ] final -135.98 input  -65.29 | X-H torsion
[ 10718 10713 10712 10709 ] final   41.02 input   66.30 | X-H torsion
[ 10763 10752 10751 10750 ] final  165.60 input  -60.55 | X-H torsion
[ 11005 11000 10999 10996 ] final  -53.57 input  -57.11 | X-H torsion

> <Gold.Protein.ActiveResidues>
 VAL166  LYS551  ARG553  GLY616  TRP617  ASP618  TYR619  PRO620  LYS621  CYS622 
 ASP623  PHE694  ASN695  SER759  ASP760  ASP761  ALA762  ILE779  LEU786  VAL792 
 PHE793  MET794  SER795  GLU796  ALA797  LYS798  CYS799  TRP800  GLU811  SER814 

> <Gold.Protein.RotatedAtoms>
  152.3159  134.7440  160.0325 H   0  0  0  0  0  0  0  0  0  0  0  0  # atno 6907 bound_to 6896
  151.7905  133.3353  159.3505 H   0  0  0  0  0  0  0  0  0  0  0  0  # atno 6908 bound_to 6896
  150.7344  134.5778  159.5967 H   0  0  0  0  0  0  0  0  0  0  0  0  # atno 6909 bound_to 6896
  146.2409  139.9849  142.8432 H   0  0  0  0  0  0  0  0  0  0  0  0  # atno 7974 bound_to 7965
  155.3759  140.0491  157.3044 H   0  0  0  0  0  0  0  0  0  0  0  0  # atno 8008 bound_to 7997
  154.5106  140.2190  155.9125 H   0  0  0  0  0  0  0  0  0  0  0  0  # atno 8009 bound_to 7997
  156.1578  140.3122  155.8762 H   0  0  0  0  0  0  0  0  0  0  0  0  # atno 8010 bound_to 7997
  139.8724  143.6941  152.2638 H   0  0  0  0  0  0  0  0  0  0  0  0  # atno 10167 bound_to 10162
  157.3888  130.7794  149.7252 H   0  0  0  0  0  0  0  0  0  0  0  0  # atno 10718 bound_to 10713
  154.3265  135.2755  155.2493 H   0  0  0  0  0  0  0  0  0  0  0  0  # atno 10763 bound_to 10752
  154.4824  135.5855  153.6402 H   0  0  0  0  0  0  0  0  0  0  0  0  # atno 10764 bound_to 10752
  152.9871  135.6114  154.3454 H   0  0  0  0  0  0  0  0  0  0  0  0  # atno 10765 bound_to 10752
  141.0982  133.6621  156.4191 H   0  0  0  0  0  0  0  0  0  0  0  0  # atno 11005 bound_to 11000
  145.1557  140.9646  143.4407 LP  0  0  0  0  0  0  0  0  0  0  0  0  # atno 17320 bound_to 7965
  145.0163  139.3464  143.6095 LP  0  0  0  0  0  0  0  0  0  0  0  0  # atno 17321 bound_to 7965
  139.7272  144.7590  151.0860 LP  0  0  0  0  0  0  0  0  0  0  0  0  # atno 17342 bound_to 10162
  140.7758  143.5134  150.9625 LP  0  0  0  0  0  0  0  0  0  0  0  0  # atno 17343 bound_to 10162
  155.9793  130.4041  150.3595 LP  0  0  0  0  0  0  0  0  0  0  0  0  # atno 17370 bound_to 10713
  157.1709  131.0368  151.2796 LP  0  0  0  0  0  0  0  0  0  0  0  0  # atno 17371 bound_to 10713
  140.5087  134.6416  157.5276 LP  0  0  0  0  0  0  0  0  0  0  0  0  # atno 17394 bound_to 11000
  139.9825  134.7114  155.9833 LP  0  0  0  0  0  0  0  0  0  0  0  0  # atno 17395 bound_to 11000

$$$$
