AV-unprocessed.smi:1235|AV-procd|sdf|5175|dock6
  -GOLD-   22720 4253D 1   1.00000     0.00000
 Structure written by MMmdl.
 50 51  0  0  0  0  0  0  0  0  2 V2000
  144.1758  132.6524  161.1597 C   0  0  0  0  0  0  0  0  0  0  0  0
  145.4053  132.7834  161.8519 O   0  0  0  0  0  0  0  0  0  0  0  0
  145.5506  134.0535  162.4642 C   0  0  0  0  0  0  0  0  0  0  0  0
  146.9848  134.5543  162.2364 C   0  0  0  0  0  0  0  0  0  0  0  0
  147.1676  135.0632  160.8733 N   0  0  0  0  0  0  0  0  0  0  0  0
  147.0270  134.1002  159.8880 N   0  0  0  0  0  0  0  0  0  0  0  0
  147.1658  134.4199  158.6419 C   0  0  0  0  0  0  0  0  0  0  0  0
  147.0187  133.4141  157.5529 C   0  0  0  0  0  0  0  0  0  0  0  0
  147.2915  132.2246  157.7226 O   0  0  0  0  0  0  0  0  0  0  0  0
  146.5716  133.8957  156.3789 N   0  0  0  0  0  0  0  0  0  0  0  0
  146.3460  133.0997  155.1783 C   0  0  0  0  0  0  0  0  0  0  0  0
  145.5256  133.8809  154.1309 C   0  0  0  0  0  0  0  0  0  0  0  0
  144.9890  133.0082  153.0474 N   0  3  2  0  0  0  0  0  0  0  0  0
  146.0277  132.0542  152.5591 C   0  0  0  0  0  0  0  0  0  0  0  0
  145.4638  131.0568  151.5385 C   0  0  0  0  0  0  0  0  0  0  0  0
  144.8543  131.7988  150.3502 C   0  0  0  0  0  0  0  0  0  0  0  0
  143.7893  132.7737  150.8572 C   0  0  0  0  0  0  0  0  0  0  0  0
  144.3476  133.7541  151.9137 C   0  0  1  0  0  0  0  0  0  0  0  0
  143.2004  134.6834  152.3650 C   0  0  0  0  0  0  0  0  0  0  0  0
  147.4721  135.7862  158.2536 C   0  0  0  0  0  0  0  0  0  0  0  0
  147.6125  136.7132  159.2264 C   0  0  0  0  0  0  0  0  0  0  0  0
  147.4632  136.3781  160.6436 C   0  0  0  0  0  0  0  0  0  0  0  0
  147.5944  137.2025  161.5478 O   0  0  0  0  0  0  0  0  0  0  0  0
  144.1086  131.6583  160.7177 H   0  0  0  0  0  0  0  0  0  0  0  0
  144.0962  133.3847  160.3550 H   0  0  0  0  0  0  0  0  0  0  0  0
  143.3274  132.7788  161.8338 H   0  0  0  0  0  0  0  0  0  0  0  0
  144.8308  134.7556  162.0400 H   0  0  0  0  0  0  0  0  0  0  0  0
  145.3453  133.9758  163.5333 H   0  0  0  0  0  0  0  0  0  0  0  0
  147.2125  135.3402  162.9589 H   0  0  0  0  0  0  0  0  0  0  0  0
  147.6979  133.7546  162.4446 H   0  0  0  0  0  0  0  0  0  0  0  0
  146.3665  134.8833  156.3211 H   0  0  0  0  0  0  0  0  0  0  0  0
  147.3112  132.7770  154.7893 H   0  0  0  0  0  0  0  0  0  0  0  0
  145.8106  132.1953  155.4684 H   0  0  0  0  0  0  0  0  0  0  0  0
  144.7229  134.3662  154.6796 H   0  0  0  0  0  0  0  0  0  0  0  0
  146.1159  134.6847  153.6886 H   0  0  0  0  0  0  0  0  0  0  0  0
  146.8527  132.6128  152.1136 H   0  0  0  0  0  0  0  0  0  0  0  0
  146.4502  131.4844  153.3843 H   0  0  0  0  0  0  0  0  0  0  0  0
  146.2537  130.3887  151.1938 H   0  0  0  0  0  0  0  0  0  0  0  0
  144.7090  130.4277  152.0126 H   0  0  0  0  0  0  0  0  0  0  0  0
  145.6308  132.3413  149.8091 H   0  0  0  0  0  0  0  0  0  0  0  0
  144.4155  131.0907  149.6462 H   0  0  0  0  0  0  0  0  0  0  0  0
  143.3822  133.3277  150.0105 H   0  0  0  0  0  0  0  0  0  0  0  0
  142.9572  132.2093  151.2815 H   0  0  0  0  0  0  0  0  0  0  0  0
  145.1151  134.3676  151.4388 H   0  0  0  0  0  0  0  0  0  0  0  0
  142.6427  135.0575  151.5057 H   0  0  0  0  0  0  0  0  0  0  0  0
  143.5577  135.5670  152.8923 H   0  0  0  0  0  0  0  0  0  0  0  0
  142.4934  134.1603  153.0098 H   0  0  0  0  0  0  0  0  0  0  0  0
  147.5883  136.0620  157.2154 H   0  0  0  0  0  0  0  0  0  0  0  0
  147.8417  137.7325  158.9525 H   0  0  0  0  0  0  0  0  0  0  0  0
  144.2550  132.4537  153.4642 H   0  0  0  0  0  0  0  0  0  0  0  0
  1  2  1  0  0  0  0
  1 24  1  0  0  0  0
  1 25  1  0  0  0  0
  1 26  1  0  0  0  0
  2  3  1  0  0  0  0
  3  4  1  0  0  0  0
  3 27  1  0  0  0  0
  3 28  1  0  0  0  0
  4  5  1  0  0  0  0
  4 29  1  0  0  0  0
  4 30  1  0  0  0  0
  5 22  1  0  0  0  0
  5  6  1  0  0  0  0
  6  7  2  0  0  0  0
  7  8  1  0  0  0  0
  7 20  1  0  0  0  0
  8  9  2  0  0  0  0
  8 10  1  0  0  0  0
 10 11  1  0  0  0  0
 10 31  1  0  0  0  0
 11 12  1  0  0  0  0
 11 32  1  0  0  0  0
 11 33  1  0  0  0  0
 12 13  1  0  0  0  0
 12 34  1  0  0  0  0
 12 35  1  0  0  0  0
 13 18  1  0  0  0  0
 13 14  1  0  0  0  0
 13 50  1  0  0  0  0
 14 15  1  0  0  0  0
 14 36  1  0  0  0  0
 14 37  1  0  0  0  0
 15 16  1  0  0  0  0
 15 38  1  0  0  0  0
 15 39  1  0  0  0  0
 16 17  1  0  0  0  0
 16 40  1  0  0  0  0
 16 41  1  0  0  0  0
 17 18  1  0  0  0  0
 17 42  1  0  0  0  0
 17 43  1  0  0  0  0
 18 19  1  0  0  0  0
 18 44  1  0  0  0  0
 19 45  1  0  0  0  0
 19 46  1  0  0  0  0
 19 47  1  0  0  0  0
 20 21  2  0  0  0  0
 20 48  1  0  0  0  0
 21 22  1  0  0  0  0
 21 49  1  0  0  0  0
 22 23  2  0  0  0  0
M  CHG  1  13   1
M  END
> <s_m_source_file>
AV-unprocessed.smi

> <i_m_source_file_index>
1235

> <i_lp_mmshare_version>
43012

> <i_f3d_flags>
0

> <s_epik_input>
W0NIM11PW0NIMl1bQ0gyXW4xbmMoW2NIXVtjSF1jMT1PKUMoPU8pW05IXVtDSDJdW0NIMl1OMltDSDJdW0NIMl1bQ0gyXVtDSDJdW0NASF0yW0NIM10=

> <s_epik_cmdline>
J2VwaWtfcHl0aG9uJywgJy1waCcsICc3LjAnLCAnLXRuJywgJzgnLCAnLW1hJywgJzIwMCcsICctbWV0YWxfYmluZGluZycsICctaW1hZScsICc8aW5maWxlLm1hZT4nLCAnLW9tYWUnLCAnPG91dGZpbGUubWFlPic=

> <r_lp_tautomer_probability>
1

> <r_epik_Ionization_Penalty>
0.00271975

> <r_epik_Ionization_Penalty_Charging>
0.00271407

> <r_epik_Ionization_Penalty_Neutral>
5.6803e-06

> <r_epik_State_Penalty>
0.00189271

> <r_epik_Charging_Adjusted_Penalty>
0.00460678

> <i_epik_Tot_Q>
1

> <i_epik_Tot_abs_Q>
1

> <r_epik_Metal_State_Penalty>
-0

> <b_epik_Metal_Only>
0

> <s_lp_Force_Field>
OPLS_2005

> <r_lp_Energy>
40.0899

> <b_lp_Chiralities_Consistent>
1

> <s_lp_Variant>
AV-unprocessed.smi:1235-1

> <Gold.Version>
5.8.1

> <Gold.Id.Protein>
6NUR|6NUR_protein|mol2

> <Gold.PLP.Fitness>
42.8973

> <Gold.PLP.PLP>
-33.3678

> <Gold.PLP.part.hbond>
-3.0000

> <Gold.PLP.part.metal>
0.0000

> <Gold.PLP.part.buried>
-5.2915

> <Gold.PLP.part.nonpolar>
-24.8221

> <Gold.PLP.part.repulsive>
0.0638

> <Gold.PLP.ligand.clash>
0.0000

> <Gold.PLP.ligand.torsion>
0.9592

> <Gold.PLP.Chemscore.Hbond>
3.7680

> <Gold.PLP.Chemscore.CHOScore>
0.0000

> <Gold.PLP.Chemscore.Metal>
0.0000

> <Gold.Chemscore.Hbonds>
donor molecule, donor type, donor heavy atom, donor atom, acceptor molecule, acceptor atom, score
      L1  H    13    50       P1 10957  1.27
      P1  H  6931  6943       L1    23  0.98
      P1  H  6934  6947       L1    23  0.80

> <Gold.PLP.Chemscore.Internal.Correction>
0.1440

> <Gold.Rescore>
     Score         DG    S(hbond)    S(metal)    S(lipo)     H(rot)  DE(clash)    DE(int)     intcor
     14.99     -16.35       2.25        0.00      72.58       2.00       0.07       1.29       ----

> <Gold.Chemscore.Fitness>
14.9877

> <Gold.Chemscore.DG>
-16.3491

> <Gold.Chemscore.ZeroCoef>
-5.4800

> <Gold.Chemscore.Hbond>
2.2461

> <Gold.Chemscore.Metal>
0.0000

> <Gold.Chemscore.Lipo>
72.5835

> <Gold.Chemscore.Internal_Hbond>
0.0000

> <Gold.Chemscore.DEClash>
0.0678

> <Gold.Chemscore.DEInternal>
1.2936

> <Gold.Chemscore.Rot>
2.0020

> <Gold.Chemscore.Internal.Correction>
   9.000000E+99

> <Gold.Chemscore.Hbonds>
donor molecule, donor type, donor heavy atom, donor atom, acceptor molecule, acceptor atom, score
      L1  H    13    50       P1 10957  0.14
      P1  H  6931  6943       L1    23  0.93
      P1  H  6934  6947       L1    23  0.64

> <Gold.Chemscore.Hbond.Weighted>
-7.5020

> <Gold.Chemscore.Metal.Weighted>
-0.0000

> <Gold.Chemscore.Lipo.Weighted>
-8.4923

> <Gold.Chemscore.Internal_Hbond.Weighted>
0.0000

> <Gold.Chemscore.DEClash.Weighted>
0.0678

> <Gold.Chemscore.DEInternal.Weighted>
1.2936

> <Gold.Chemscore.Rot.Weighted>
5.1252

> <Gold.Chemscore.Internal.Correction.Weighted>
   9.000000E+99

> <Gold.Protein.RotatedTorsions>
[ 6907 6896 6895 6894 ] final   -0.49 input  -60.11 | X-H torsion
[ 7974 7965 7964 7962 ] final  -44.61 input  175.53 | X-H torsion
[ 8008 7997 7996 7995 ] final  -32.22 input   59.86 | X-H torsion
[ 10167 10162 10161 10158 ] final  -89.21 input  -65.29 | X-H torsion
[ 10718 10713 10712 10709 ] final -142.84 input   66.30 | X-H torsion
[ 10763 10752 10751 10750 ] final  -59.28 input  -60.55 | X-H torsion
[ 11005 11000 10999 10996 ] final   66.68 input  -57.11 | X-H torsion

> <Gold.Protein.ActiveResidues>
 VAL166  LYS551  ARG553  GLY616  TRP617  ASP618  TYR619  PRO620  LYS621  CYS622 
 ASP623  PHE694  ASN695  SER759  ASP760  ASP761  ALA762  ILE779  LEU786  VAL792 
 PHE793  MET794  SER795  GLU796  ALA797  LYS798  CYS799  TRP800  GLU811  SER814 

> <Gold.Protein.RotatedAtoms>
  151.5615  135.1065  159.9973 H   0  0  0  0  0  0  0  0  0  0  0  0  # atno 6907 bound_to 6896
  152.4444  133.7505  159.6702 H   0  0  0  0  0  0  0  0  0  0  0  0  # atno 6908 bound_to 6896
  150.8357  133.7950  159.3104 H   0  0  0  0  0  0  0  0  0  0  0  0  # atno 6909 bound_to 6896
  145.9904  140.7187  142.9320 H   0  0  0  0  0  0  0  0  0  0  0  0  # atno 7974 bound_to 7965
  154.4187  140.1743  156.1693 H   0  0  0  0  0  0  0  0  0  0  0  0  # atno 8008 bound_to 7997
  155.9774  140.3380  155.6607 H   0  0  0  0  0  0  0  0  0  0  0  0  # atno 8009 bound_to 7997
  155.6545  140.0694  157.2566 H   0  0  0  0  0  0  0  0  0  0  0  0  # atno 8010 bound_to 7997
  140.3671  143.2813  151.9545 H   0  0  0  0  0  0  0  0  0  0  0  0  # atno 10167 bound_to 10162
  156.3507  130.7687  151.1839 H   0  0  0  0  0  0  0  0  0  0  0  0  # atno 10718 bound_to 10713
  154.2513  135.6325  153.5241 H   0  0  0  0  0  0  0  0  0  0  0  0  # atno 10763 bound_to 10752
  152.9912  135.5565  154.5805 H   0  0  0  0  0  0  0  0  0  0  0  0  # atno 10764 bound_to 10752
  154.5333  135.2890  155.1136 H   0  0  0  0  0  0  0  0  0  0  0  0  # atno 10765 bound_to 10752
  139.9817  134.6733  156.0251 H   0  0  0  0  0  0  0  0  0  0  0  0  # atno 11005 bound_to 11000
  144.6887  140.3059  143.7256 LP  0  0  0  0  0  0  0  0  0  0  0  0  # atno 17320 bound_to 7965
  145.7639  139.1834  143.2251 LP  0  0  0  0  0  0  0  0  0  0  0  0  # atno 17321 bound_to 7965
  139.4807  144.5941  151.7721 LP  0  0  0  0  0  0  0  0  0  0  0  0  # atno 17342 bound_to 10162
  140.5070  144.1083  150.5985 LP  0  0  0  0  0  0  0  0  0  0  0  0  # atno 17343 bound_to 10162
  157.7461  131.0428  150.4713 LP  0  0  0  0  0  0  0  0  0  0  0  0  # atno 17370 bound_to 10713
  156.4908  130.4095  149.6408 LP  0  0  0  0  0  0  0  0  0  0  0  0  # atno 17371 bound_to 10713
  141.1488  133.6551  156.3949 LP  0  0  0  0  0  0  0  0  0  0  0  0  # atno 17394 bound_to 11000
  140.5084  134.6419  157.5275 LP  0  0  0  0  0  0  0  0  0  0  0  0  # atno 17395 bound_to 11000

$$$$
