AV-unprocessed.smi:1744|AV-procd|sdf|7027|dock1
  -GOLD-   22720 8243D 1   1.00000     0.00000
 Structure written by MMmdl.
 43 44  0  0  0  0  0  0  0  0  3 V2000
  150.8865  145.2515  158.7720 C   0  0  0  0  0  0  0  0  0  0  0  0
  151.9769  144.2323  158.4197 C   0  0  0  0  0  0  0  0  0  0  0  0
  151.4374  143.0905  157.7068 N   0  0  0  0  0  0  0  0  0  0  0  0
  150.8273  143.0680  156.4685 C   0  0  0  0  0  0  0  0  0  0  0  0
  150.5029  141.7653  156.2375 C   0  0  0  0  0  0  0  0  0  0  0  0
  149.8529  141.2880  155.0722 N   0  0  0  0  0  0  0  0  0  0  0  0
  148.7406  140.5385  155.0119 C   0  0  0  0  0  0  0  0  0  0  0  0
  148.1074  140.1306  155.9854 O   0  0  0  0  0  0  0  0  0  0  0  0
  148.4008  140.2734  153.7424 N   0  0  0  0  0  0  0  0  0  0  0  0
  147.2559  139.4673  153.3287 C   0  0  2  0  0  0  0  0  0  0  0  0
  147.2358  138.1241  154.0809 C   0  0  0  0  0  0  0  0  0  0  0  0
  146.1036  137.2166  153.5729 C   0  0  0  0  0  0  0  0  0  0  0  0
  146.2097  136.9965  152.1088 N   0  3  1  0  0  0  0  0  0  0  0  0
  145.2232  136.0034  151.6124 C   0  0  0  0  0  0  0  0  0  0  0  0
  145.6011  134.5895  152.0668 C   0  0  0  0  0  0  0  0  0  0  0  0
  146.8681  134.2646  151.7389 N   0  5  0  0  0  0  0  0  0  0  0  0
  144.7726  133.8993  152.6559 O   0  0  0  0  0  0  0  0  0  0  0  0
  146.1827  138.2809  151.3589 C   0  0  0  0  0  0  0  0  0  0  0  0
  147.3199  139.2099  151.8145 C   0  0  0  0  0  0  0  0  0  0  0  0
  150.9408  141.0459  157.3853 C   0  0  0  0  0  0  0  0  0  0  0  0
  151.5038  141.8576  158.2679 N   0  0  0  0  0  0  0  0  0  0  0  0
  151.3043  146.0889  159.3313 H   0  0  0  0  0  0  0  0  0  0  0  0
  150.1070  144.7974  159.3841 H   0  0  0  0  0  0  0  0  0  0  0  0
  150.4166  145.6541  157.8742 H   0  0  0  0  0  0  0  0  0  0  0  0
  152.7486  144.6978  157.8051 H   0  0  0  0  0  0  0  0  0  0  0  0
  152.4656  143.8772  159.3275 H   0  0  0  0  0  0  0  0  0  0  0  0
  150.6850  143.9587  155.8746 H   0  0  0  0  0  0  0  0  0  0  0  0
  150.2859  141.5346  154.1943 H   0  0  0  0  0  0  0  0  0  0  0  0
  148.9817  140.6502  153.0075 H   0  0  0  0  0  0  0  0  0  0  0  0
  146.3341  140.0114  153.5449 H   0  0  0  0  0  0  0  0  0  0  0  0
  148.1914  137.6132  153.9535 H   0  0  0  0  0  0  0  0  0  0  0  0
  147.1167  138.2926  155.1520 H   0  0  0  0  0  0  0  0  0  0  0  0
  146.1533  136.2597  154.0936 H   0  0  0  0  0  0  0  0  0  0  0  0
  145.1327  137.6563  153.8066 H   0  0  0  0  0  0  0  0  0  0  0  0
  144.2281  136.2274  152.0008 H   0  0  0  0  0  0  0  0  0  0  0  0
  145.1504  136.0515  150.5248 H   0  0  0  0  0  0  0  0  0  0  0  0
  147.6308  134.8995  152.0025 H   0  0  0  0  0  0  0  0  0  0  0  0
  146.2830  138.0969  150.2889 H   0  0  0  0  0  0  0  0  0  0  0  0
  145.2177  138.7688  151.5048 H   0  0  0  0  0  0  0  0  0  0  0  0
  147.2636  140.1543  151.2717 H   0  0  0  0  0  0  0  0  0  0  0  0
  148.2786  138.7593  151.5529 H   0  0  0  0  0  0  0  0  0  0  0  0
  150.8739  139.9925  157.6129 H   0  0  0  0  0  0  0  0  0  0  0  0
  147.1150  136.5781  151.9455 H   0  0  0  0  0  0  0  0  0  0  0  0
  1  2  1  0  0  0  0
  1 22  1  0  0  0  0
  1 23  1  0  0  0  0
  1 24  1  0  0  0  0
  2  3  1  0  0  0  0
  2 25  1  0  0  0  0
  2 26  1  0  0  0  0
  3 21  1  0  0  0  0
  3  4  1  0  0  0  0
  4  5  2  0  0  0  0
  4 27  1  0  0  0  0
  5  6  1  0  0  0  0
  5 20  1  0  0  0  0
  6  7  1  0  0  0  0
  6 28  1  0  0  0  0
  7  8  2  0  0  0  0
  7  9  1  0  0  0  0
  9 10  1  0  0  0  0
  9 29  1  0  0  0  0
 10 19  1  0  0  0  0
 10 11  1  0  0  0  0
 10 30  1  0  0  0  0
 11 12  1  0  0  0  0
 11 31  1  0  0  0  0
 11 32  1  0  0  0  0
 12 13  1  0  0  0  0
 12 33  1  0  0  0  0
 12 34  1  0  0  0  0
 13 14  1  0  0  0  0
 13 18  1  0  0  0  0
 13 43  1  0  0  0  0
 14 15  1  0  0  0  0
 14 35  1  0  0  0  0
 14 36  1  0  0  0  0
 15 16  1  0  0  0  0
 15 17  2  0  0  0  0
 16 37  1  0  0  0  0
 18 19  1  0  0  0  0
 18 38  1  0  0  0  0
 18 39  1  0  0  0  0
 19 40  1  0  0  0  0
 19 41  1  0  0  0  0
 20 21  2  0  0  0  0
 20 42  1  0  0  0  0
M  CHG  1  13   1
M  CHG  1  16  -1
M  END
> <s_m_source_file>
AV-unprocessed.smi

> <i_m_source_file_index>
1744

> <i_lp_mmshare_version>
43012

> <i_f3d_flags>
0

> <s_epik_input>
W0NIM11bQ0gyXW4xW2NIXWMoW2NIXW4xKVtOSF1DKD1PKVtOSF1bQ0hdMltDSDJdW0NIMl1OKFtDSDJdW0NIMl0yKVtDSDJdQyg9TylbTkgyXQ==

> <s_epik_cmdline>
J2VwaWtfcHl0aG9uJywgJy1waCcsICc3LjAnLCAnLXRuJywgJzgnLCAnLW1hJywgJzIwMCcsICctbWV0YWxfYmluZGluZycsICctaW1hZScsICc8aW5maWxlLm1hZT4nLCAnLW9tYWUnLCAnPG91dGZpbGUubWFlPic=

> <r_lp_tautomer_probability>
1

> <r_epik_Ionization_Penalty>
5.72895

> <r_epik_Ionization_Penalty_Charging>
5.7288

> <r_epik_Ionization_Penalty_Neutral>
0.000148676

> <r_epik_State_Penalty>
6.54882

> <r_epik_Charging_Adjusted_Penalty>
12.2776

> <i_epik_Tot_Q>
0

> <i_epik_Tot_abs_Q>
2

> <r_epik_Metal_State_Penalty>
2.51309

> <b_epik_Metal_Only>
1

> <s_lp_Force_Field>
OPLS_2005

> <r_lp_Energy>
12.1226

> <b_lp_Chiralities_Consistent>
1

> <s_lp_Variant>
AV-unprocessed.smi:1744-4

> <Gold.Version>
5.8.1

> <Gold.Id.Protein>
6NUR|6NUR_protein|mol2

> <Gold.PLP.Fitness>
44.0687

> <Gold.PLP.PLP>
-31.6339

> <Gold.PLP.part.hbond>
-3.0000

> <Gold.PLP.part.metal>
0.0000

> <Gold.PLP.part.buried>
2.9311

> <Gold.PLP.part.nonpolar>
-32.6155

> <Gold.PLP.part.repulsive>
0.7091

> <Gold.PLP.ligand.clash>
0.0000

> <Gold.PLP.ligand.torsion>
0.7400

> <Gold.PLP.Chemscore.Hbond>
3.7454

> <Gold.PLP.Chemscore.CHOScore>
0.8712

> <Gold.PLP.Chemscore.Metal>
0.0000

> <Gold.Chemscore.Hbonds>
donor molecule, donor type, donor heavy atom, donor atom, acceptor molecule, acceptor atom, score
      L1  H     9    29       P1  7957  0.72
      L1  H    13    43       P1  7948  2.00
      L1  H    16    37       P1  7948  1.00
      L1  C     4    27       P1  8028  0.65

> <Gold.PLP.Chemscore.Internal.Correction>
0.0651

> <Gold.Rescore>
     Score         DG    S(hbond)    S(metal)    S(lipo)     H(rot)  DE(clash)    DE(int)     intcor
     13.67     -18.20       2.44        0.00      86.93       2.18       2.69       1.84       ----

> <Gold.Chemscore.Fitness>
13.6726

> <Gold.Chemscore.DG>
-18.2009

> <Gold.Chemscore.ZeroCoef>
-5.4800

> <Gold.Chemscore.Hbond>
2.4368

> <Gold.Chemscore.Metal>
0.0000

> <Gold.Chemscore.Lipo>
86.9315

> <Gold.Chemscore.Internal_Hbond>
0.0000

> <Gold.Chemscore.DEClash>
2.6867

> <Gold.Chemscore.DEInternal>
1.8417

> <Gold.Chemscore.Rot>
2.1833

> <Gold.Chemscore.Internal.Correction>
   9.000000E+99

> <Gold.Chemscore.Hbonds>
donor molecule, donor type, donor heavy atom, donor atom, acceptor molecule, acceptor atom, score
      L1  H     9    29       P1  7957  0.67
      L1  H    13    43       P1  7948  1.00
      L1  H    16    37       P1  7948  0.78

> <Gold.Chemscore.Hbond.Weighted>
-8.1391

> <Gold.Chemscore.Metal.Weighted>
-0.0000

> <Gold.Chemscore.Lipo.Weighted>
-10.1710

> <Gold.Chemscore.Internal_Hbond.Weighted>
0.0000

> <Gold.Chemscore.DEClash.Weighted>
2.6867

> <Gold.Chemscore.DEInternal.Weighted>
1.8417

> <Gold.Chemscore.Rot.Weighted>
5.5892

> <Gold.Chemscore.Internal.Correction.Weighted>
   9.000000E+99

> <Gold.Protein.RotatedTorsions>
[ 6907 6896 6895 6894 ] final  -74.87 input  -60.11 | X-H torsion
[ 7974 7965 7964 7962 ] final -130.96 input  175.53 | X-H torsion
[ 8008 7997 7996 7995 ] final  -39.62 input   59.86 | X-H torsion
[ 10167 10162 10161 10158 ] final -148.19 input  -65.29 | X-H torsion
[ 10718 10713 10712 10709 ] final  108.06 input   66.30 | X-H torsion
[ 10763 10752 10751 10750 ] final  175.71 input  -60.55 | X-H torsion
[ 11005 11000 10999 10996 ] final   55.61 input  -57.11 | X-H torsion

> <Gold.Protein.ActiveResidues>
 VAL166  LYS551  ARG553  GLY616  TRP617  ASP618  TYR619  PRO620  LYS621  CYS622 
 ASP623  PHE694  ASN695  SER759  ASP760  ASP761  ALA762  ILE779  LEU786  VAL792 
 PHE793  MET794  SER795  GLU796  ALA797  LYS798  CYS799  TRP800  GLU811  SER814 

> <Gold.Protein.RotatedAtoms>
  150.7078  134.4805  159.5467 H   0  0  0  0  0  0  0  0  0  0  0  0  # atno 6907 bound_to 6896
  152.2443  134.8194  160.0465 H   0  0  0  0  0  0  0  0  0  0  0  0  # atno 6908 bound_to 6896
  151.8965  133.3493  159.3853 H   0  0  0  0  0  0  0  0  0  0  0  0  # atno 6909 bound_to 6896
  144.9425  140.7254  143.4838 H   0  0  0  0  0  0  0  0  0  0  0  0  # atno 7974 bound_to 7965
  154.4021  140.1547  156.2894 H   0  0  0  0  0  0  0  0  0  0  0  0  # atno 8008 bound_to 7997
  155.8799  140.3444  155.5858 H   0  0  0  0  0  0  0  0  0  0  0  0  # atno 8009 bound_to 7997
  155.7679  140.0826  157.2113 H   0  0  0  0  0  0  0  0  0  0  0  0  # atno 8010 bound_to 7997
  139.7554  143.8456  152.2596 H   0  0  0  0  0  0  0  0  0  0  0  0  # atno 10167 bound_to 10162
  157.6602  131.0886  150.6249 H   0  0  0  0  0  0  0  0  0  0  0  0  # atno 10718 bound_to 10713
  154.4713  135.2771  155.1641 H   0  0  0  0  0  0  0  0  0  0  0  0  # atno 10763 bound_to 10752
  154.3389  135.6174  153.5590 H   0  0  0  0  0  0  0  0  0  0  0  0  # atno 10764 bound_to 10752
  152.9864  135.5783  154.5094 H   0  0  0  0  0  0  0  0  0  0  0  0  # atno 10765 bound_to 10752
  140.0593  134.5625  155.9170 H   0  0  0  0  0  0  0  0  0  0  0  0  # atno 11005 bound_to 11000
  145.2970  139.1864  143.4710 LP  0  0  0  0  0  0  0  0  0  0  0  0  # atno 17320 bound_to 7965
  146.3291  140.2955  142.8617 LP  0  0  0  0  0  0  0  0  0  0  0  0  # atno 17321 bound_to 7965
  139.8447  144.7193  150.9288 LP  0  0  0  0  0  0  0  0  0  0  0  0  # atno 17342 bound_to 10162
  140.7802  143.3952  151.1242 LP  0  0  0  0  0  0  0  0  0  0  0  0  # atno 17343 bound_to 10162
  156.6552  130.4496  149.5706 LP  0  0  0  0  0  0  0  0  0  0  0  0  # atno 17370 bound_to 10713
  156.2108  130.6677  151.1267 LP  0  0  0  0  0  0  0  0  0  0  0  0  # atno 17371 bound_to 10713
  141.1966  133.6592  156.5700 LP  0  0  0  0  0  0  0  0  0  0  0  0  # atno 17394 bound_to 11000
  140.3795  134.7536  157.4651 LP  0  0  0  0  0  0  0  0  0  0  0  0  # atno 17395 bound_to 11000

$$$$
