AV-unprocessed.smi:3330|AV-procd|sdf|12815|dock3
  -GOLD-   2272019183D 1   1.00000     0.00000
 Structure written by MMmdl.
 37 38  0  0  0  0  0  0  0  0  2 V2000
  153.6592  139.0808  160.0850 C   0  0  0  0  0  0  0  0  0  0  0  0
  152.5567  139.9806  159.4971 C   0  0  2  0  0  0  0  0  0  0  0  0
  152.8515  140.1370  158.0770 N   0  0  0  0  0  0  0  0  0  0  0  0
  152.4066  138.9830  157.3118 C   0  0  0  0  0  0  0  0  0  0  0  0
  152.1090  139.4055  155.8660 C   0  0  0  0  0  0  0  0  0  0  0  0
  150.9727  138.6536  155.3269 N   0  0  0  0  0  0  0  0  0  0  0  0
  149.9253  139.2135  154.7141 C   0  0  0  0  0  0  0  0  0  0  0  0
  149.7330  140.4077  154.4831 O   0  0  0  0  0  0  0  0  0  0  0  0
  148.9673  138.1046  154.3460 C   0  0  0  0  0  0  0  0  0  0  0  0
  149.6444  136.9316  154.8506 N   0  5  0  0  0  0  0  0  0  0  0  0
  150.8106  137.3198  155.4179 C   0  0  0  0  0  0  0  0  0  0  0  0
  151.6413  136.5930  155.9622 O   0  0  0  0  0  0  0  0  0  0  0  0
  152.4728  141.3769  160.1713 C   0  0  1  0  0  0  0  0  0  0  0  0
  153.7762  141.7868  160.8813 C   0  0  0  0  0  0  0  0  0  0  0  0
  152.0939  142.4108  159.2165 N   0  0  0  0  0  0  0  0  0  0  0  0
  152.7258  143.6086  158.9464 C   0  0  0  0  0  0  0  0  0  0  0  0
  152.0013  144.2443  157.9794 C   0  0  0  0  0  0  0  0  0  0  0  0
  150.9281  143.3479  157.7183 C   0  0  0  0  0  0  0  0  0  0  0  0
  150.9848  142.2540  158.4602 N   0  0  0  0  0  0  0  0  0  0  0  0
  153.4690  138.8390  161.1305 H   0  0  0  0  0  0  0  0  0  0  0  0
  154.6367  139.5612  160.0279 H   0  0  0  0  0  0  0  0  0  0  0  0
  153.7218  138.1344  159.5463 H   0  0  0  0  0  0  0  0  0  0  0  0
  151.6064  139.4608  159.6312 H   0  0  0  0  0  0  0  0  0  0  0  0
  152.4054  140.9732  157.7278 H   0  0  0  0  0  0  0  0  0  0  0  0
  153.1788  138.2129  157.3307 H   0  0  0  0  0  0  0  0  0  0  0  0
  151.5107  138.5580  157.7652 H   0  0  0  0  0  0  0  0  0  0  0  0
  151.8969  140.4755  155.8242 H   0  0  0  0  0  0  0  0  0  0  0  0
  152.9901  139.2540  155.2399 H   0  0  0  0  0  0  0  0  0  0  0  0
  147.9995  138.2798  154.8170 H   0  0  0  0  0  0  0  0  0  0  0  0
  148.8182  138.0853  153.2660 H   0  0  0  0  0  0  0  0  0  0  0  0
  151.6886  141.3361  160.9304 H   0  0  0  0  0  0  0  0  0  0  0  0
  154.0143  141.1098  161.7017 H   0  0  0  0  0  0  0  0  0  0  0  0
  153.6915  142.7872  161.3065 H   0  0  0  0  0  0  0  0  0  0  0  0
  154.6227  141.7876  160.1940 H   0  0  0  0  0  0  0  0  0  0  0  0
  153.6297  143.9038  159.4587 H   0  0  0  0  0  0  0  0  0  0  0  0
  152.2058  145.2034  157.5274 H   0  0  0  0  0  0  0  0  0  0  0  0
  150.1144  143.4588  157.0169 H   0  0  0  0  0  0  0  0  0  0  0  0
  1  2  1  0  0  0  0
  1 20  1  0  0  0  0
  1 21  1  0  0  0  0
  1 22  1  0  0  0  0
  2  3  1  0  0  0  0
  2 13  1  0  0  0  0
  2 23  1  0  0  0  0
  3  4  1  0  0  0  0
  3 24  1  0  0  0  0
  4  5  1  0  0  0  0
  4 25  1  0  0  0  0
  4 26  1  0  0  0  0
  5  6  1  0  0  0  0
  5 27  1  0  0  0  0
  5 28  1  0  0  0  0
  6 11  1  0  0  0  0
  6  7  1  0  0  0  0
  7  8  2  0  0  0  0
  7  9  1  0  0  0  0
  9 10  1  0  0  0  0
  9 29  1  0  0  0  0
  9 30  1  0  0  0  0
 10 11  1  0  0  0  0
 11 12  2  0  0  0  0
 13 14  1  0  0  0  0
 13 15  1  0  0  0  0
 13 31  1  0  0  0  0
 14 32  1  0  0  0  0
 14 33  1  0  0  0  0
 14 34  1  0  0  0  0
 15 19  1  0  0  0  0
 15 16  1  0  0  0  0
 16 17  2  0  0  0  0
 16 35  1  0  0  0  0
 17 18  1  0  0  0  0
 17 36  1  0  0  0  0
 18 19  2  0  0  0  0
 18 37  1  0  0  0  0
M  CHG  1  10  -1
M  END
> <s_m_source_file>
AV-unprocessed.smi

> <i_m_source_file_index>
3330

> <i_lp_mmshare_version>
43012

> <i_f3d_flags>
0

> <s_epik_input>
bjFbY0hdW2NIXVtjSF1uMVtDQEBIXShbQ0gzXSlbQ0BIXShbQ0gzXSlbTkhdW0NIMl1bQ0gyXU4yQyg9TylbQ0gyXVtOSF1DMj1P

> <s_epik_cmdline>
J2VwaWtfcHl0aG9uJywgJy1waCcsICc3LjAnLCAnLXRuJywgJzgnLCAnLW1hJywgJzIwMCcsICctbWV0YWxfYmluZGluZycsICctaW1hZScsICc8aW5maWxlLm1hZT4nLCAnLW9tYWUnLCAnPG91dGZpbGUubWFlPic=

> <r_lp_tautomer_probability>
1

> <r_epik_Ionization_Penalty>
8.77477

> <r_epik_Ionization_Penalty_Charging>
6.28461

> <r_epik_Ionization_Penalty_Neutral>
2.49016

> <r_epik_State_Penalty>
8.73376

> <r_epik_Charging_Adjusted_Penalty>
15.0184

> <i_epik_Tot_Q>
-1

> <i_epik_Tot_abs_Q>
1

> <r_epik_Metal_State_Penalty>
4.73175

> <b_epik_Metal_Only>
1

> <s_lp_Force_Field>
OPLS_2005

> <r_lp_Energy>
21.2445

> <b_lp_Chiralities_Consistent>
1

> <s_lp_Variant>
AV-unprocessed.smi:3330-15

> <Gold.Version>
5.8.1

> <Gold.Id.Protein>
6NUR|6NUR_protein|mol2

> <Gold.PLP.Fitness>
44.3554

> <Gold.PLP.PLP>
-38.0312

> <Gold.PLP.part.hbond>
-3.0000

> <Gold.PLP.part.metal>
0.0000

> <Gold.PLP.part.buried>
-0.9561

> <Gold.PLP.part.nonpolar>
-34.7797

> <Gold.PLP.part.repulsive>
0.6340

> <Gold.PLP.ligand.clash>
0.0000

> <Gold.PLP.ligand.torsion>
1.7713

> <Gold.PLP.Chemscore.Hbond>
2.2400

> <Gold.PLP.Chemscore.CHOScore>
1.0000

> <Gold.PLP.Chemscore.Metal>
0.0000

> <Gold.Chemscore.Hbonds>
donor molecule, donor type, donor heavy atom, donor atom, acceptor molecule, acceptor atom, score
      P1  H  7989  7998       L1     8  0.53
      P1  H  7997  8009       L1     3  0.33
      P1  H 10752 10765       L1    12  0.93
      L1  C    18    37       P1  8028  1.00

> <Gold.PLP.Chemscore.Internal.Correction>
0.1468

> <Gold.Rescore>
     Score         DG    S(hbond)    S(metal)    S(lipo)     H(rot)  DE(clash)    DE(int)     intcor
     12.75     -15.39       1.76        0.00      89.42       2.52       0.25       2.38       ----

> <Gold.Chemscore.Fitness>
12.7544

> <Gold.Chemscore.DG>
-15.3900

> <Gold.Chemscore.ZeroCoef>
-5.4800

> <Gold.Chemscore.Hbond>
1.7630

> <Gold.Chemscore.Metal>
0.0000

> <Gold.Chemscore.Lipo>
89.4247

> <Gold.Chemscore.Internal_Hbond>
0.0000

> <Gold.Chemscore.DEClash>
0.2538

> <Gold.Chemscore.DEInternal>
2.3817

> <Gold.Chemscore.Rot>
2.5160

> <Gold.Chemscore.Internal.Correction>
   9.000000E+99

> <Gold.Chemscore.Hbonds>
donor molecule, donor type, donor heavy atom, donor atom, acceptor molecule, acceptor atom, score
      P1  H  7989  7998       L1     8  0.13
      P1  H  7997  8009       L1     3  0.01
      P1  H 10752 10765       L1    12  0.88

> <Gold.Chemscore.Hbond.Weighted>
-5.8883

> <Gold.Chemscore.Metal.Weighted>
-0.0000

> <Gold.Chemscore.Lipo.Weighted>
-10.4627

> <Gold.Chemscore.Internal_Hbond.Weighted>
0.0000

> <Gold.Chemscore.DEClash.Weighted>
0.2538

> <Gold.Chemscore.DEInternal.Weighted>
2.3817

> <Gold.Chemscore.Rot.Weighted>
6.4410

> <Gold.Chemscore.Internal.Correction.Weighted>
   9.000000E+99

> <Gold.Protein.RotatedTorsions>
[ 6907 6896 6895 6894 ] final  -57.36 input  -60.11 | X-H torsion
[ 7974 7965 7964 7962 ] final   95.12 input  175.53 | X-H torsion
[ 8008 7997 7996 7995 ] final  140.22 input   59.86 | X-H torsion
[ 10167 10162 10161 10158 ] final   12.08 input  -65.29 | X-H torsion
[ 10718 10713 10712 10709 ] final -138.45 input   66.30 | X-H torsion
[ 10763 10752 10751 10750 ] final -155.02 input  -60.55 | X-H torsion
[ 11005 11000 10999 10996 ] final   57.53 input  -57.11 | X-H torsion

> <Gold.Protein.ActiveResidues>
 VAL166  LYS551  ARG553  GLY616  TRP617  ASP618  TYR619  PRO620  LYS621  CYS622 
 ASP623  PHE694  ASN695  SER759  ASP760  ASP761  ALA762  ILE779  LEU786  VAL792 
 PHE793  MET794  SER795  GLU796  ALA797  LYS798  CYS799  TRP800  GLU811  SER814 

> <Gold.Protein.RotatedAtoms>
  150.8092  134.7236  159.6671 H   0  0  0  0  0  0  0  0  0  0  0  0  # atno 6907 bound_to 6896
  152.4212  134.5949  159.9994 H   0  0  0  0  0  0  0  0  0  0  0  0  # atno 6908 bound_to 6896
  151.6163  133.3305  159.3114 H   0  0  0  0  0  0  0  0  0  0  0  0  # atno 6909 bound_to 6896
  145.4564  139.2290  143.3011 H   0  0  0  0  0  0  0  0  0  0  0  0  # atno 7974 bound_to 7965
  156.2981  140.2347  156.4366 H   0  0  0  0  0  0  0  0  0  0  0  0  # atno 8008 bound_to 7997
  154.8223  140.0437  157.1440 H   0  0  0  0  0  0  0  0  0  0  0  0  # atno 8009 bound_to 7997
  154.9301  140.3015  155.5176 H   0  0  0  0  0  0  0  0  0  0  0  0  # atno 8010 bound_to 7997
  140.6091  143.8445  150.7046 H   0  0  0  0  0  0  0  0  0  0  0  0  # atno 10167 bound_to 10162
  156.2995  130.7420  151.1468 H   0  0  0  0  0  0  0  0  0  0  0  0  # atno 10718 bound_to 10713
  154.7817  135.3177  154.7974 H   0  0  0  0  0  0  0  0  0  0  0  0  # atno 10763 bound_to 10752
  153.8684  135.6846  153.4781 H   0  0  0  0  0  0  0  0  0  0  0  0  # atno 10764 bound_to 10752
  153.1456  135.4721  154.9499 H   0  0  0  0  0  0  0  0  0  0  0  0  # atno 10765 bound_to 10752
  140.0445  134.5825  155.9339 H   0  0  0  0  0  0  0  0  0  0  0  0  # atno 11005 bound_to 11000
  146.2476  140.5328  142.8907 LP  0  0  0  0  0  0  0  0  0  0  0  0  # atno 17320 bound_to 7965
  144.8030  140.6247  143.6466 LP  0  0  0  0  0  0  0  0  0  0  0  0  # atno 17321 bound_to 7965
  140.2010  143.3959  152.1792 LP  0  0  0  0  0  0  0  0  0  0  0  0  # atno 17342 bound_to 10162
  139.5347  144.7197  151.4933 LP  0  0  0  0  0  0  0  0  0  0  0  0  # atno 17343 bound_to 10162
  157.7364  131.0562  150.5415 LP  0  0  0  0  0  0  0  0  0  0  0  0  # atno 17370 bound_to 10713
  156.5541  130.4239  149.6094 LP  0  0  0  0  0  0  0  0  0  0  0  0  # atno 17371 bound_to 10713
  141.1900  133.6567  156.5393 LP  0  0  0  0  0  0  0  0  0  0  0  0  # atno 17394 bound_to 11000
  140.4015  134.7352  157.4782 LP  0  0  0  0  0  0  0  0  0  0  0  0  # atno 17395 bound_to 11000

$$$$
