AV-unprocessed.smi:853|AV-procd|sdf|3954|dock3
  -GOLD-   22720 1423D 1   1.00000     0.00000
 Structure written by MMmdl.
 50 52  0  0  0  0  0  0  0  0  2 V2000
  143.3997  133.1044  151.5367 C   0  0  0  0  0  0  0  0  0  0  0  0
  143.0501  134.4190  152.2379 C   0  0  0  0  0  0  0  0  0  0  0  0
  142.3378  134.3671  153.2410 O   0  0  0  0  0  0  0  0  0  0  0  0
  143.5267  135.5844  151.7377 N   0  0  0  0  0  0  0  0  0  0  0  0
  143.3331  136.9099  152.3391 C   0  0  0  0  0  0  0  0  0  0  0  0
  144.6776  137.4024  152.9036 C   0  0  0  0  0  0  0  0  0  0  0  0
  145.7733  137.4143  151.8122 C   0  0  0  0  0  0  0  0  0  0  0  0
  147.0814  137.7020  152.3928 N   0  0  0  0  0  0  0  0  0  0  0  0
  147.3530  138.7296  153.2098 C   0  0  0  0  0  0  0  0  0  0  0  0
  146.5107  139.5518  153.5689 O   0  0  0  0  0  0  0  0  0  0  0  0
  148.6426  138.7228  153.5890 N   0  0  0  0  0  0  0  0  0  0  0  0
  149.3134  139.6285  154.4547 C   0  0  0  0  0  0  0  0  0  0  0  0
  150.5134  139.3257  155.1457 C   0  0  0  0  0  0  0  0  0  0  0  0
  151.0917  140.2946  155.9910 C   0  0  0  0  0  0  0  0  0  0  0  0
  150.4592  141.5501  156.1465 C   0  0  0  0  0  0  0  0  0  0  0  0
  150.9581  142.5830  156.9529 N   0  0  0  0  0  0  0  0  0  0  0  0
  150.0260  143.1409  157.9198 C   0  0  0  0  0  0  0  0  0  0  0  0
  150.8884  143.8907  158.9390 C   0  0  0  0  0  0  0  0  0  0  0  0
  152.2919  143.2925  158.7874 C   0  0  0  0  0  0  0  0  0  0  0  0
  152.1498  142.2232  157.7017 C   0  0  0  0  0  0  0  0  0  0  0  0
  149.3114  141.7938  155.4771 N   0  3  0  0  0  0  0  0  0  0  0  0
  148.7247  140.8939  154.6586 C   0  0  0  0  0  0  0  0  0  0  0  0
  145.8260  136.0692  151.0571 C   0  0  0  0  0  0  0  0  0  0  0  0
  144.4267  135.6421  150.5796 C   0  0  0  0  0  0  0  0  0  0  0  0
  143.0471  133.1106  150.5050 H   0  0  0  0  0  0  0  0  0  0  0  0
  142.9296  132.2613  152.0441 H   0  0  0  0  0  0  0  0  0  0  0  0
  144.4769  132.9367  151.5441 H   0  0  0  0  0  0  0  0  0  0  0  0
  142.9772  137.6007  151.5734 H   0  0  0  0  0  0  0  0  0  0  0  0
  142.5751  136.9299  153.1206 H   0  0  0  0  0  0  0  0  0  0  0  0
  144.5555  138.3996  153.3274 H   0  0  0  0  0  0  0  0  0  0  0  0
  144.9802  136.7525  153.7263 H   0  0  0  0  0  0  0  0  0  0  0  0
  145.5284  138.1919  151.0856 H   0  0  0  0  0  0  0  0  0  0  0  0
  147.8323  137.0719  152.1519 H   0  0  0  0  0  0  0  0  0  0  0  0
  149.1930  137.9386  153.2706 H   0  0  0  0  0  0  0  0  0  0  0  0
  150.9990  138.3667  155.0549 H   0  0  0  0  0  0  0  0  0  0  0  0
  152.0123  140.0679  156.5082 H   0  0  0  0  0  0  0  0  0  0  0  0
  149.3132  143.8079  157.4337 H   0  0  0  0  0  0  0  0  0  0  0  0
  149.4603  142.3545  158.4199 H   0  0  0  0  0  0  0  0  0  0  0  0
  150.9115  144.9564  158.7085 H   0  0  0  0  0  0  0  0  0  0  0  0
  150.4985  143.7792  159.9512 H   0  0  0  0  0  0  0  0  0  0  0  0
  152.9917  144.0659  158.4683 H   0  0  0  0  0  0  0  0  0  0  0  0
  152.6670  142.8703  159.7202 H   0  0  0  0  0  0  0  0  0  0  0  0
  152.0293  141.2382  158.1554 H   0  0  0  0  0  0  0  0  0  0  0  0
  153.0263  142.1910  157.0537 H   0  0  0  0  0  0  0  0  0  0  0  0
  147.8080  141.2179  154.1869 H   0  0  0  0  0  0  0  0  0  0  0  0
  146.5031  136.1428  150.2055 H   0  0  0  0  0  0  0  0  0  0  0  0
  146.2318  135.2933  151.7085 H   0  0  0  0  0  0  0  0  0  0  0  0
  144.4915  134.6930  150.0460 H   0  0  0  0  0  0  0  0  0  0  0  0
  144.0408  136.3627  149.8570 H   0  0  0  0  0  0  0  0  0  0  0  0
  148.8645  142.7033  155.5971 H   0  0  0  0  0  0  0  0  0  0  0  0
  1  2  1  0  0  0  0
  1 25  1  0  0  0  0
  1 26  1  0  0  0  0
  1 27  1  0  0  0  0
  2  3  2  0  0  0  0
  2  4  1  0  0  0  0
  4 24  1  0  0  0  0
  4  5  1  0  0  0  0
  5  6  1  0  0  0  0
  5 28  1  0  0  0  0
  5 29  1  0  0  0  0
  6  7  1  0  0  0  0
  6 30  1  0  0  0  0
  6 31  1  0  0  0  0
  7  8  1  0  0  0  0
  7 23  1  0  0  0  0
  7 32  1  0  0  0  0
  8  9  1  0  0  0  0
  8 33  1  0  0  0  0
  9 10  2  0  0  0  0
  9 11  1  0  0  0  0
 11 12  1  0  0  0  0
 11 34  1  0  0  0  0
 12 22  1  0  0  0  0
 12 13  2  0  0  0  0
 13 14  1  0  0  0  0
 13 35  1  0  0  0  0
 14 15  2  0  0  0  0
 14 36  1  0  0  0  0
 15 16  1  0  0  0  0
 15 21  1  0  0  0  0
 16 20  1  0  0  0  0
 16 17  1  0  0  0  0
 17 18  1  0  0  0  0
 17 37  1  0  0  0  0
 17 38  1  0  0  0  0
 18 19  1  0  0  0  0
 18 39  1  0  0  0  0
 18 40  1  0  0  0  0
 19 20  1  0  0  0  0
 19 41  1  0  0  0  0
 19 42  1  0  0  0  0
 20 43  1  0  0  0  0
 20 44  1  0  0  0  0
 21 22  2  0  0  0  0
 21 50  1  0  0  0  0
 22 45  1  0  0  0  0
 23 24  1  0  0  0  0
 23 46  1  0  0  0  0
 23 47  1  0  0  0  0
 24 48  1  0  0  0  0
 24 49  1  0  0  0  0
M  CHG  1  21   1
M  END
> <s_m_source_file>
AV-unprocessed.smi

> <i_m_source_file_index>
853

> <i_lp_mmshare_version>
43012

> <i_f3d_flags>
0

> <s_epik_input>
W0NIM11DKD1PKU4xW0NIMl1bQ0gyXVtDSF0oW0NIMl1bQ0gyXTEpW05IXUMoPU8pW05IXWMyW2NIXVtjSF1jKG5bY0hdMilOM1tDSDJdW0NIMl1bQ0gyXVtDSDJdMw==

> <s_epik_cmdline>
J2VwaWtfcHl0aG9uJywgJy1waCcsICc3LjAnLCAnLXRuJywgJzgnLCAnLW1hJywgJzIwMCcsICctbWV0YWxfYmluZGluZycsICctaW1hZScsICc8aW5maWxlLm1hZT4nLCAnLW9tYWUnLCAnPG91dGZpbGUubWFlPic=

> <r_lp_tautomer_probability>
0.999994

> <r_epik_Ionization_Penalty>
1.09439

> <r_epik_Ionization_Penalty_Charging>
1.09437

> <r_epik_Ionization_Penalty_Neutral>
2.1425e-05

> <r_epik_State_Penalty>
1.15094

> <r_epik_Charging_Adjusted_Penalty>
2.24531

> <i_epik_Tot_Q>
1

> <i_epik_Tot_abs_Q>
1

> <r_epik_Metal_State_Penalty>
1.2392

> <b_epik_Metal_Only>
0

> <s_lp_Force_Field>
OPLS_2005

> <r_lp_Energy>
58.2519

> <b_lp_Chiralities_Consistent>
1

> <s_lp_Variant>
AV-unprocessed.smi:853-2

> <Gold.Version>
5.8.1

> <Gold.Id.Protein>
6NUR|6NUR_protein|mol2

> <Gold.PLP.Fitness>
46.3554

> <Gold.PLP.PLP>
-37.1217

> <Gold.PLP.part.hbond>
-3.7032

> <Gold.PLP.part.metal>
0.0000

> <Gold.PLP.part.buried>
-2.1927

> <Gold.PLP.part.nonpolar>
-35.3626

> <Gold.PLP.part.repulsive>
1.7462

> <Gold.PLP.ligand.clash>
0.0000

> <Gold.PLP.ligand.torsion>
0.2321

> <Gold.PLP.Chemscore.Hbond>
3.2224

> <Gold.PLP.Chemscore.CHOScore>
0.0000

> <Gold.PLP.Chemscore.Metal>
0.0000

> <Gold.Chemscore.Hbonds>
donor molecule, donor type, donor heavy atom, donor atom, acceptor molecule, acceptor atom, score
      L1  H     8    33       P1  7948  0.71
      L1  H    11    34       P1  7948  0.45
      L1  H    21    50       P1  8028  2.00

> <Gold.PLP.Chemscore.Internal.Correction>
0.0308

> <Gold.Rescore>
     Score         DG    S(hbond)    S(metal)    S(lipo)     H(rot)  DE(clash)    DE(int)     intcor
     15.91     -21.11       2.19        0.00      97.85       1.22       2.42       2.79       ----

> <Gold.Chemscore.Fitness>
15.9061

> <Gold.Chemscore.DG>
-21.1102

> <Gold.Chemscore.ZeroCoef>
-5.4800

> <Gold.Chemscore.Hbond>
2.1888

> <Gold.Chemscore.Metal>
0.0000

> <Gold.Chemscore.Lipo>
97.8509

> <Gold.Chemscore.Internal_Hbond>
0.0000

> <Gold.Chemscore.DEClash>
2.4187

> <Gold.Chemscore.DEInternal>
2.7854

> <Gold.Chemscore.Rot>
1.2222

> <Gold.Chemscore.Internal.Correction>
   9.000000E+99

> <Gold.Chemscore.Hbonds>
donor molecule, donor type, donor heavy atom, donor atom, acceptor molecule, acceptor atom, score
      L1  H     8    33       P1  7948  0.71
      L1  H    11    34       P1  7948  0.44
      L1  H    21    50       P1  8028  0.92

> <Gold.Chemscore.Hbond.Weighted>
-7.3106

> <Gold.Chemscore.Metal.Weighted>
-0.0000

> <Gold.Chemscore.Lipo.Weighted>
-11.4486

> <Gold.Chemscore.Internal_Hbond.Weighted>
0.0000

> <Gold.Chemscore.DEClash.Weighted>
2.4187

> <Gold.Chemscore.DEInternal.Weighted>
2.7854

> <Gold.Chemscore.Rot.Weighted>
3.1289

> <Gold.Chemscore.Internal.Correction.Weighted>
   9.000000E+99

> <Gold.Protein.RotatedTorsions>
[ 6907 6896 6895 6894 ] final  -54.35 input  -60.11 | X-H torsion
[ 7974 7965 7964 7962 ] final  136.01 input  175.53 | X-H torsion
[ 8008 7997 7996 7995 ] final   83.58 input   59.86 | X-H torsion
[ 10167 10162 10161 10158 ] final -131.80 input  -65.29 | X-H torsion
[ 10718 10713 10712 10709 ] final   42.30 input   66.30 | X-H torsion
[ 10763 10752 10751 10750 ] final  -10.94 input  -60.55 | X-H torsion
[ 11005 11000 10999 10996 ] final   68.72 input  -57.11 | X-H torsion

> <Gold.Protein.ActiveResidues>
 VAL166  LYS551  ARG553  GLY616  TRP617  ASP618  TYR619  PRO620  LYS621  CYS622 
 ASP623  PHE694  ASN695  SER759  ASP760  ASP761  ALA762  ILE779  LEU786  VAL792 
 PHE793  MET794  SER795  GLU796  ALA797  LYS798  CYS799  TRP800  GLU811  SER814 

> <Gold.Protein.RotatedAtoms>
  150.8346  134.7613  159.6881 H   0  0  0  0  0  0  0  0  0  0  0  0  # atno 6907 bound_to 6896
  152.4445  134.5520  159.9879 H   0  0  0  0  0  0  0  0  0  0  0  0  # atno 6908 bound_to 6896
  151.5674  133.3357  159.3018 H   0  0  0  0  0  0  0  0  0  0  0  0  # atno 6909 bound_to 6896
  144.9606  139.4714  143.5481 H   0  0  0  0  0  0  0  0  0  0  0  0  # atno 7974 bound_to 7965
  155.9258  140.3418  155.6209 H   0  0  0  0  0  0  0  0  0  0  0  0  # atno 8008 bound_to 7997
  155.7217  140.0784  157.2346 H   0  0  0  0  0  0  0  0  0  0  0  0  # atno 8009 bound_to 7997
  154.4077  140.1604  156.2397 H   0  0  0  0  0  0  0  0  0  0  0  0  # atno 8010 bound_to 7997
  139.9151  143.6448  152.2566 H   0  0  0  0  0  0  0  0  0  0  0  0  # atno 10167 bound_to 10162
  157.4032  130.7872  149.7366 H   0  0  0  0  0  0  0  0  0  0  0  0  # atno 10718 bound_to 10713
  153.4765  135.7017  153.5963 H   0  0  0  0  0  0  0  0  0  0  0  0  # atno 10763 bound_to 10752
  153.4194  135.3829  155.2102 H   0  0  0  0  0  0  0  0  0  0  0  0  # atno 10764 bound_to 10752
  154.8723  135.3924  154.4210 H   0  0  0  0  0  0  0  0  0  0  0  0  # atno 10765 bound_to 10752
  139.9695  134.6924  156.0476 H   0  0  0  0  0  0  0  0  0  0  0  0  # atno 11005 bound_to 11000
  146.3352  139.8754  142.8833 LP  0  0  0  0  0  0  0  0  0  0  0  0  # atno 17320 bound_to 7965
  145.2705  141.0107  143.3774 LP  0  0  0  0  0  0  0  0  0  0  0  0  # atno 17321 bound_to 7965
  139.6909  144.7647  151.1440 LP  0  0  0  0  0  0  0  0  0  0  0  0  # atno 17342 bound_to 10162
  140.7676  143.5591  150.9119 LP  0  0  0  0  0  0  0  0  0  0  0  0  # atno 17343 bound_to 10162
  155.9829  130.4005  150.3391 LP  0  0  0  0  0  0  0  0  0  0  0  0  # atno 17370 bound_to 10713
  157.1521  131.0323  151.2880 LP  0  0  0  0  0  0  0  0  0  0  0  0  # atno 17371 bound_to 10713
  141.1375  133.6572  156.3634 LP  0  0  0  0  0  0  0  0  0  0  0  0  # atno 17394 bound_to 11000
  140.5324  134.6199  157.5354 LP  0  0  0  0  0  0  0  0  0  0  0  0  # atno 17395 bound_to 11000

$$$$
