AV-unprocessed.smi:862|AV-procd|sdf|3981|dock10
  -GOLD-   22720 1463D 1   1.00000     0.00000
 Structure written by MMmdl.
 45 47  0  0  0  0  0  0  0  0  3 V2000
  149.5668  130.9971  157.4883 N   0  0  0  0  0  0  0  0  0  0  0  0
  149.8075  132.2505  157.0915 C   0  0  0  0  0  0  0  0  0  0  0  0
  149.7978  133.1819  157.8942 O   0  0  0  0  0  0  0  0  0  0  0  0
  150.1030  132.3940  155.7750 N   0  0  0  0  0  0  0  0  0  0  0  0
  149.8659  131.3953  154.7199 C   0  0  0  0  0  0  0  0  0  0  0  0
  148.6422  131.8319  153.8939 C   0  0  0  0  0  0  0  0  0  0  0  0
  148.8402  133.2426  153.2994 C   0  0  0  0  0  0  0  0  0  0  0  0
  147.5973  133.6786  152.6225 N   0  3  0  0  0  0  0  0  0  0  0  0
  147.0047  132.7223  151.6557 C   0  0  1  0  0  0  0  0  0  0  0  0
  146.1000  131.6675  152.3024 C   0  0  0  0  0  0  0  0  0  0  0  0
  145.1902  131.1743  151.1688 C   0  0  0  0  0  0  0  0  0  0  0  0
  145.2776  132.2202  150.0433 C   0  0  0  0  0  0  0  0  0  0  0  0
  146.1160  133.3892  150.5881 C   0  0  1  0  0  0  0  0  0  0  0  0
  145.2685  134.4838  151.1086 N   0  0  0  0  0  0  0  0  0  0  0  0
  144.4291  134.4769  152.1975 C   0  0  0  0  0  0  0  0  0  0  0  0
  143.8789  135.7297  152.2810 C   0  0  0  0  0  0  0  0  0  0  0  0
  144.4056  136.4532  151.2463 N   0  3  0  0  0  0  0  0  0  0  0  0
  145.2505  135.6973  150.5379 C   0  0  0  0  0  0  0  0  0  0  0  0
  149.2788  134.2426  154.3949 C   0  0  0  0  0  0  0  0  0  0  0  0
  150.4696  133.6944  155.2021 C   0  0  0  0  0  0  0  0  0  0  0  0
  149.3521  130.8137  158.4578 H   0  0  0  0  0  0  0  0  0  0  0  0
  149.6115  130.2381  156.8244 H   0  0  0  0  0  0  0  0  0  0  0  0
  150.7469  131.3349  154.0791 H   0  0  0  0  0  0  0  0  0  0  0  0
  149.7131  130.3839  155.0966 H   0  0  0  0  0  0  0  0  0  0  0  0
  148.4604  131.1120  153.0950 H   0  0  0  0  0  0  0  0  0  0  0  0
  147.7565  131.8169  154.5312 H   0  0  0  0  0  0  0  0  0  0  0  0
  149.6364  133.1699  152.5576 H   0  0  0  0  0  0  0  0  0  0  0  0
  146.9043  133.8614  153.3340 H   0  0  0  0  0  0  0  0  0  0  0  0
  147.8078  132.2083  151.1269 H   0  0  0  0  0  0  0  0  0  0  0  0
  146.6668  130.8514  152.7520 H   0  0  0  0  0  0  0  0  0  0  0  0
  145.4960  132.1167  153.0916 H   0  0  0  0  0  0  0  0  0  0  0  0
  145.5258  130.2034  150.8017 H   0  0  0  0  0  0  0  0  0  0  0  0
  144.1655  131.0482  151.5204 H   0  0  0  0  0  0  0  0  0  0  0  0
  145.7902  131.7781  149.1878 H   0  0  0  0  0  0  0  0  0  0  0  0
  144.2935  132.5320  149.6906 H   0  0  0  0  0  0  0  0  0  0  0  0
  146.7316  133.8089  149.7903 H   0  0  0  0  0  0  0  0  0  0  0  0
  144.2778  133.6048  152.8167 H   0  0  0  0  0  0  0  0  0  0  0  0
  143.1696  136.1489  152.9801 H   0  0  0  0  0  0  0  0  0  0  0  0
  145.8052  136.0088  149.6704 H   0  0  0  0  0  0  0  0  0  0  0  0
  149.5586  135.1997  153.9553 H   0  0  0  0  0  0  0  0  0  0  0  0
  148.4463  134.4427  155.0712 H   0  0  0  0  0  0  0  0  0  0  0  0
  150.7703  134.4167  155.9626 H   0  0  0  0  0  0  0  0  0  0  0  0
  151.3386  133.5717  154.5542 H   0  0  0  0  0  0  0  0  0  0  0  0
  147.7975  134.5438  152.1415 H   0  0  0  0  0  0  0  0  0  0  0  0
  144.1827  137.4195  151.0403 H   0  0  0  0  0  0  0  0  0  0  0  0
  1  2  1  0  0  0  0
  1 21  1  0  0  0  0
  1 22  1  0  0  0  0
  2  3  2  0  0  0  0
  2  4  1  0  0  0  0
  4 20  1  0  0  0  0
  4  5  1  0  0  0  0
  5  6  1  0  0  0  0
  5 23  1  0  0  0  0
  5 24  1  0  0  0  0
  6  7  1  0  0  0  0
  6 25  1  0  0  0  0
  6 26  1  0  0  0  0
  7  8  1  0  0  0  0
  7 19  1  0  0  0  0
  7 27  1  0  0  0  0
  8  9  1  0  0  0  0
  8 28  1  0  0  0  0
  8 44  1  0  0  0  0
  9 13  1  0  0  0  0
  9 10  1  0  0  0  0
  9 29  1  0  0  0  0
 10 11  1  0  0  0  0
 10 30  1  0  0  0  0
 10 31  1  0  0  0  0
 11 12  1  0  0  0  0
 11 32  1  0  0  0  0
 11 33  1  0  0  0  0
 12 13  1  0  0  0  0
 12 34  1  0  0  0  0
 12 35  1  0  0  0  0
 13 14  1  0  0  0  0
 13 36  1  0  0  0  0
 14 18  1  0  0  0  0
 14 15  1  0  0  0  0
 15 16  2  0  0  0  0
 15 37  1  0  0  0  0
 16 17  1  0  0  0  0
 16 38  1  0  0  0  0
 17 18  2  0  0  0  0
 17 45  1  0  0  0  0
 18 39  1  0  0  0  0
 19 20  1  0  0  0  0
 19 40  1  0  0  0  0
 19 41  1  0  0  0  0
 20 42  1  0  0  0  0
 20 43  1  0  0  0  0
M  CHG  1   8   1
M  CHG  1  17   1
M  END
> <s_m_source_file>
AV-unprocessed.smi

> <i_m_source_file_index>
862

> <i_lp_mmshare_version>
43012

> <i_f3d_flags>
0

> <s_epik_input>
W05IMl1DKD1PKU4xW0NIMl1bQ0gyXVtDSF0oW0NIMl1bQ0gyXTEpW05IXVtDQEBIXTJbQ0gyXVtDSDJdW0NIMl1bQ0BIXTJuM1tjSF1bY0hdbltjSF0z

> <s_epik_cmdline>
J2VwaWtfcHl0aG9uJywgJy1waCcsICc3LjAnLCAnLXRuJywgJzgnLCAnLW1hJywgJzIwMCcsICctbWV0YWxfYmluZGluZycsICctaW1hZScsICc8aW5maWxlLm1hZT4nLCAnLW9tYWUnLCAnPG91dGZpbGUubWFlPic=

> <r_lp_tautomer_probability>
1

> <r_epik_Ionization_Penalty>
1.30217

> <r_epik_Ionization_Penalty_Charging>
0.00439521

> <r_epik_Ionization_Penalty_Neutral>
1.29777

> <r_epik_State_Penalty>
0.977606

> <r_epik_Charging_Adjusted_Penalty>
0.982001

> <i_epik_Tot_Q>
2

> <i_epik_Tot_abs_Q>
2

> <r_epik_Metal_State_Penalty>
1.03289

> <b_epik_Metal_Only>
0

> <s_lp_Force_Field>
OPLS_2005

> <r_lp_Energy>
67.0187

> <b_lp_Chiralities_Consistent>
1

> <s_lp_Variant>
AV-unprocessed.smi:862-6

> <Gold.Version>
5.8.1

> <Gold.Id.Protein>
6NUR|6NUR_protein|mol2

> <Gold.PLP.Fitness>
52.1139

> <Gold.PLP.PLP>
-38.2061

> <Gold.PLP.part.hbond>
-3.0000

> <Gold.PLP.part.metal>
0.0000

> <Gold.PLP.part.buried>
-1.8168

> <Gold.PLP.part.nonpolar>
-32.6243

> <Gold.PLP.part.repulsive>
0.0812

> <Gold.PLP.ligand.clash>
0.0000

> <Gold.PLP.ligand.torsion>
0.4544

> <Gold.PLP.Chemscore.Hbond>
3.9600

> <Gold.PLP.Chemscore.CHOScore>
0.9574

> <Gold.PLP.Chemscore.Metal>
0.0000

> <Gold.Chemscore.Hbonds>
donor molecule, donor type, donor heavy atom, donor atom, acceptor molecule, acceptor atom, score
      L1  H     8    44       P1  7948  2.00
      L1  H    17    45       P1 10171  0.93
      P1  H  6896  6909       L1     3  1.00
      L1  C    18    39       P1  7921  0.98

> <Gold.PLP.Chemscore.Internal.Correction>
0.0644

> <Gold.Rescore>
     Score         DG    S(hbond)    S(metal)    S(lipo)     H(rot)  DE(clash)    DE(int)     intcor
     17.20     -18.49       2.53        0.00      75.75       1.68       0.05       1.24       ----

> <Gold.Chemscore.Fitness>
17.1999

> <Gold.Chemscore.DG>
-18.4924

> <Gold.Chemscore.ZeroCoef>
-5.4800

> <Gold.Chemscore.Hbond>
2.5312

> <Gold.Chemscore.Metal>
0.0000

> <Gold.Chemscore.Lipo>
75.7479

> <Gold.Chemscore.Internal_Hbond>
0.0000

> <Gold.Chemscore.DEClash>
0.0521

> <Gold.Chemscore.DEInternal>
1.2404

> <Gold.Chemscore.Rot>
1.6814

> <Gold.Chemscore.Internal.Correction>
   9.000000E+99

> <Gold.Chemscore.Hbonds>
donor molecule, donor type, donor heavy atom, donor atom, acceptor molecule, acceptor atom, score
      L1  H     8    44       P1  7948  0.40
      L1  H    17    45       P1 10171  0.90
      P1  H  6896  6909       L1     3  0.97

> <Gold.Chemscore.Hbond.Weighted>
-8.4542

> <Gold.Chemscore.Metal.Weighted>
-0.0000

> <Gold.Chemscore.Lipo.Weighted>
-8.8625

> <Gold.Chemscore.Internal_Hbond.Weighted>
0.0000

> <Gold.Chemscore.DEClash.Weighted>
0.0521

> <Gold.Chemscore.DEInternal.Weighted>
1.2404

> <Gold.Chemscore.Rot.Weighted>
4.3043

> <Gold.Chemscore.Internal.Correction.Weighted>
   9.000000E+99

> <Gold.Protein.RotatedTorsions>
[ 6907 6896 6895 6894 ] final  -22.98 input  -60.11 | X-H torsion
[ 7974 7965 7964 7962 ] final   89.84 input  175.53 | X-H torsion
[ 8008 7997 7996 7995 ] final -160.73 input   59.86 | X-H torsion
[ 10167 10162 10161 10158 ] final   58.83 input  -65.29 | X-H torsion
[ 10718 10713 10712 10709 ] final   41.66 input   66.30 | X-H torsion
[ 10763 10752 10751 10750 ] final  -68.04 input  -60.55 | X-H torsion
[ 11005 11000 10999 10996 ] final  126.24 input  -57.11 | X-H torsion

> <Gold.Protein.ActiveResidues>
 VAL166  LYS551  ARG553  GLY616  TRP617  ASP618  TYR619  PRO620  LYS621  CYS622 
 ASP623  PHE694  ASN695  SER759  ASP760  ASP761  ALA762  ILE779  LEU786  VAL792 
 PHE793  MET794  SER795  GLU796  ALA797  LYS798  CYS799  TRP800  GLU811  SER814 

> <Gold.Protein.RotatedAtoms>
  151.2107  135.0480  159.8909 H   0  0  0  0  0  0  0  0  0  0  0  0  # atno 6907 bound_to 6896
  152.5425  134.0748  159.8220 H   0  0  0  0  0  0  0  0  0  0  0  0  # atno 6908 bound_to 6896
  151.0901  133.5275  159.2647 H   0  0  0  0  0  0  0  0  0  0  0  0  # atno 6909 bound_to 6896
  145.5270  139.2281  143.2640 H   0  0  0  0  0  0  0  0  0  0  0  0  # atno 7974 bound_to 7965
  155.7817  140.0866  157.2055 H   0  0  0  0  0  0  0  0  0  0  0  0  # atno 8008 bound_to 7997
  154.3990  140.1506  156.3118 H   0  0  0  0  0  0  0  0  0  0  0  0  # atno 8009 bound_to 7997
  155.8646  140.3428  155.5782 H   0  0  0  0  0  0  0  0  0  0  0  0  # atno 8010 bound_to 7997
  140.1829  144.4163  150.6606 H   0  0  0  0  0  0  0  0  0  0  0  0  # atno 10167 bound_to 10162
  157.3960  130.7833  149.7309 H   0  0  0  0  0  0  0  0  0  0  0  0  # atno 10718 bound_to 10713
  154.3833  135.6069  153.5803 H   0  0  0  0  0  0  0  0  0  0  0  0  # atno 10763 bound_to 10752
  152.9788  135.5866  154.4384 H   0  0  0  0  0  0  0  0  0  0  0  0  # atno 10764 bound_to 10752
  154.4157  135.2845  155.1986 H   0  0  0  0  0  0  0  0  0  0  0  0  # atno 10765 bound_to 10752
  139.9446  134.9631  156.8678 H   0  0  0  0  0  0  0  0  0  0  0  0  # atno 11005 bound_to 11000
  146.2069  140.6085  142.9077 LP  0  0  0  0  0  0  0  0  0  0  0  0  # atno 17320 bound_to 7965
  144.7646  140.5500  143.6712 LP  0  0  0  0  0  0  0  0  0  0  0  0  # atno 17321 bound_to 7965
  140.6507  143.2224  151.6083 LP  0  0  0  0  0  0  0  0  0  0  0  0  # atno 17342 bound_to 10162
  139.5288  144.2977  152.1099 LP  0  0  0  0  0  0  0  0  0  0  0  0  # atno 17343 bound_to 10162
  155.9810  130.4023  150.3493 LP  0  0  0  0  0  0  0  0  0  0  0  0  # atno 17370 bound_to 10713
  157.1615  131.0346  151.2838 LP  0  0  0  0  0  0  0  0  0  0  0  0  # atno 17371 bound_to 10713
  140.5866  134.0302  155.7483 LP  0  0  0  0  0  0  0  0  0  0  0  0  # atno 17394 bound_to 11000
  141.1093  133.9643  157.2940 LP  0  0  0  0  0  0  0  0  0  0  0  0  # atno 17395 bound_to 11000

$$$$
