AV-unprocessed.smi:1208|AV-procd|sdf|5066|dock10
  -GOLD-   22720 4103D 1   1.00000     0.00000
 Structure written by MMmdl.
 36 37  0  0  0  0  0  0  0  0  1 V2000
  153.5289  141.8132  160.7247 C   0  0  0  0  0  0  0  0  0  0  0  0
  153.0096  141.9668  159.2879 C   0  0  1  0  0  0  0  0  0  0  0  0
  152.3343  140.7313  158.8954 N   0  0  0  0  0  0  0  0  0  0  0  0
  152.9299  139.5577  158.6315 C   0  0  0  0  0  0  0  0  0  0  0  0
  154.1443  139.3757  158.7272 O   0  0  0  0  0  0  0  0  0  0  0  0
  152.0022  138.4126  158.2026 C   0  0  0  0  0  0  0  0  0  0  0  0
  151.5928  138.5050  156.7941 N   0  0  0  0  0  0  0  0  0  0  0  0
  151.0571  139.7334  156.4377 N   0  0  0  0  0  0  0  0  0  0  0  0
  150.6484  139.9322  155.2303 C   0  0  0  0  0  0  0  0  0  0  0  0
  150.1203  141.1614  154.9215 O   0  0  0  0  0  0  0  0  0  0  0  0
  150.7421  138.8941  154.2274 C   0  0  0  0  0  0  0  0  0  0  0  0
  151.2690  137.7020  154.5832 C   0  0  0  0  0  0  0  0  0  0  0  0
  151.7395  137.4416  155.9448 C   0  0  0  0  0  0  0  0  0  0  0  0
  152.2217  136.3651  156.2972 O   0  0  0  0  0  0  0  0  0  0  0  0
  152.0524  143.1688  159.1508 C   0  0  2  0  0  0  0  0  0  0  0  0
  152.7183  144.4941  158.7777 C   0  0  0  0  0  0  0  0  0  0  0  0
  151.7278  145.5339  159.2725 C   0  0  0  0  0  0  0  0  0  0  0  0
  150.8742  144.7764  160.2942 C   0  0  0  0  0  0  0  0  0  0  0  0
  151.4607  143.4856  160.4011 O   0  0  0  0  0  0  0  0  0  0  0  0
  150.1996  141.2393  153.9832 H   0  0  0  0  0  0  0  0  0  0  0  0
  154.0677  142.7049  161.0459 H   0  0  0  0  0  0  0  0  0  0  0  0
  154.2153  140.9698  160.8062 H   0  0  0  0  0  0  0  0  0  0  0  0
  152.7116  141.6477  161.4277 H   0  0  0  0  0  0  0  0  0  0  0  0
  153.8738  142.1370  158.6432 H   0  0  0  0  0  0  0  0  0  0  0  0
  151.3309  140.7804  158.7937 H   0  0  0  0  0  0  0  0  0  0  0  0
  152.5223  137.4710  158.3870 H   0  0  0  0  0  0  0  0  0  0  0  0
  151.1182  138.3896  158.8431 H   0  0  0  0  0  0  0  0  0  0  0  0
  150.3965  139.0775  153.2208 H   0  0  0  0  0  0  0  0  0  0  0  0
  151.3451  136.9179  153.8443 H   0  0  0  0  0  0  0  0  0  0  0  0
  151.2603  142.9424  158.4342 H   0  0  0  0  0  0  0  0  0  0  0  0
  153.6615  144.6049  159.3143 H   0  0  0  0  0  0  0  0  0  0  0  0
  152.9255  144.5799  157.7105 H   0  0  0  0  0  0  0  0  0  0  0  0
  152.2385  146.3889  159.7166 H   0  0  0  0  0  0  0  0  0  0  0  0
  151.1049  145.9011  158.4561 H   0  0  0  0  0  0  0  0  0  0  0  0
  150.8510  145.2705  161.2659 H   0  0  0  0  0  0  0  0  0  0  0  0
  149.8478  144.6782  159.9382 H   0  0  0  0  0  0  0  0  0  0  0  0
  1  2  1  0  0  0  0
  1 21  1  0  0  0  0
  1 22  1  0  0  0  0
  1 23  1  0  0  0  0
  2  3  1  0  0  0  0
  2 15  1  0  0  0  0
  2 24  1  0  0  0  0
  3  4  1  0  0  0  0
  3 25  1  0  0  0  0
  4  5  2  0  0  0  0
  4  6  1  0  0  0  0
  6 26  1  0  0  0  0
  6 27  1  0  0  0  0
  6  7  1  0  0  0  0
  7  8  1  0  0  0  0
  7 13  1  0  0  0  0
  8  9  2  0  0  0  0
  9 10  1  0  0  0  0
  9 11  1  0  0  0  0
 10 20  1  0  0  0  0
 11 28  1  0  0  0  0
 11 12  2  0  0  0  0
 12 29  1  0  0  0  0
 12 13  1  0  0  0  0
 13 14  2  0  0  0  0
 15 19  1  0  0  0  0
 15 16  1  0  0  0  0
 15 30  1  0  0  0  0
 16 17  1  0  0  0  0
 16 31  1  0  0  0  0
 16 32  1  0  0  0  0
 17 18  1  0  0  0  0
 17 33  1  0  0  0  0
 17 34  1  0  0  0  0
 18 19  1  0  0  0  0
 18 35  1  0  0  0  0
 18 36  1  0  0  0  0
M  END
> <s_m_source_file>
AV-unprocessed.smi

> <i_m_source_file_index>
1208

> <i_lp_mmshare_version>
43012

> <i_f3d_flags>
0

> <s_epik_input>
TzFbQ0gyXVtDSDJdW0NIMl1bQ0BIXTFbQ0BIXShbQ0gzXSlbTkhdQyg9TylbQ0gyXW4yW25IXWMoPU8pW2NIXVtjSF1jMj1P

> <s_epik_cmdline>
J2VwaWtfcHl0aG9uJywgJy1waCcsICc3LjAnLCAnLXRuJywgJzgnLCAnLW1hJywgJzIwMCcsICctbWV0YWxfYmluZGluZycsICctaW1hZScsICc8aW5maWxlLm1hZT4nLCAnLW9tYWUnLCAnPG91dGZpbGUubWFlPic=

> <r_lp_tautomer_probability>
0.9996

> <r_epik_Ionization_Penalty>
2.12735

> <r_epik_Ionization_Penalty_Charging>
3.86665e-08

> <r_epik_Ionization_Penalty_Neutral>
2.12735

> <r_epik_State_Penalty>
1.70441

> <r_epik_Charging_Adjusted_Penalty>
1.70441

> <i_epik_Tot_Q>
0

> <i_epik_Tot_abs_Q>
0

> <r_epik_Metal_State_Penalty>
1.70441

> <b_epik_Metal_Only>
0

> <s_lp_Force_Field>
OPLS_2005

> <r_lp_Energy>
29.1408

> <b_lp_Chiralities_Consistent>
1

> <s_lp_Variant>
AV-unprocessed.smi:1208-6

> <Gold.Version>
5.8.1

> <Gold.Id.Protein>
6NUR|6NUR_protein|mol2

> <Gold.PLP.Fitness>
43.2504

> <Gold.PLP.PLP>
-39.9347

> <Gold.PLP.part.hbond>
-3.1866

> <Gold.PLP.part.metal>
0.0000

> <Gold.PLP.part.buried>
-3.1751

> <Gold.PLP.part.nonpolar>
-31.8885

> <Gold.PLP.part.repulsive>
0.1966

> <Gold.PLP.ligand.clash>
0.0000

> <Gold.PLP.ligand.torsion>
1.3600

> <Gold.PLP.Chemscore.Hbond>
2.0000

> <Gold.PLP.Chemscore.CHOScore>
0.0000

> <Gold.PLP.Chemscore.Metal>
0.0000

> <Gold.Chemscore.Hbonds>
donor molecule, donor type, donor heavy atom, donor atom, acceptor molecule, acceptor atom, score
      P1  H  7997  8009       L1     5  0.96
      P1  H 10752 10764       L1    14  1.00

> <Gold.PLP.Chemscore.Internal.Correction>
0.0358

> <Gold.Rescore>
     Score         DG    S(hbond)    S(metal)    S(lipo)     H(rot)  DE(clash)    DE(int)     intcor
     13.36     -15.96       1.96        0.00      91.12       2.63       0.01       2.59       ----

> <Gold.Chemscore.Fitness>
13.3614

> <Gold.Chemscore.DG>
-15.9609

> <Gold.Chemscore.ZeroCoef>
-5.4800

> <Gold.Chemscore.Hbond>
1.9593

> <Gold.Chemscore.Metal>
0.0000

> <Gold.Chemscore.Lipo>
91.1152

> <Gold.Chemscore.Internal_Hbond>
0.0000

> <Gold.Chemscore.DEClash>
0.0126

> <Gold.Chemscore.DEInternal>
2.5869

> <Gold.Chemscore.Rot>
2.6264

> <Gold.Chemscore.Internal.Correction>
   9.000000E+99

> <Gold.Chemscore.Hbonds>
donor molecule, donor type, donor heavy atom, donor atom, acceptor molecule, acceptor atom, score
      P1  H  7997  8009       L1     5  0.88
      P1  H 10752 10764       L1    14  0.94

> <Gold.Chemscore.Hbond.Weighted>
-6.5441

> <Gold.Chemscore.Metal.Weighted>
-0.0000

> <Gold.Chemscore.Lipo.Weighted>
-10.6605

> <Gold.Chemscore.Internal_Hbond.Weighted>
0.0000

> <Gold.Chemscore.DEClash.Weighted>
0.0126

> <Gold.Chemscore.DEInternal.Weighted>
2.5869

> <Gold.Chemscore.Rot.Weighted>
6.7237

> <Gold.Chemscore.Internal.Correction.Weighted>
   9.000000E+99

> <Gold.Protein.RotatedTorsions>
[ 6907 6896 6895 6894 ] final    3.92 input  -60.11 | X-H torsion
[ 7974 7965 7964 7962 ] final  -10.35 input  175.53 | X-H torsion
[ 8008 7997 7996 7995 ] final  111.29 input   59.86 | X-H torsion
[ 10167 10162 10161 10158 ] final  -75.20 input  -65.29 | X-H torsion
[ 10718 10713 10712 10709 ] final   88.40 input   66.30 | X-H torsion
[ 10763 10752 10751 10750 ] final  -26.18 input  -60.55 | X-H torsion
[ 11005 11000 10999 10996 ] final -155.97 input  -57.11 | X-H torsion

> <Gold.Protein.ActiveResidues>
 VAL166  LYS551  ARG553  GLY616  TRP617  ASP618  TYR619  PRO620  LYS621  CYS622 
 ASP623  PHE694  ASN695  SER759  ASP760  ASP761  ALA762  ILE779  LEU786  VAL792 
 PHE793  MET794  SER795  GLU796  ALA797  LYS798  CYS799  TRP800  GLU811  SER814 

> <Gold.Protein.RotatedAtoms>
  151.6329  135.1021  160.0125 H   0  0  0  0  0  0  0  0  0  0  0  0  # atno 6907 bound_to 6896
  152.4096  133.6939  159.6395 H   0  0  0  0  0  0  0  0  0  0  0  0  # atno 6908 bound_to 6896
  150.7988  133.8564  159.3260 H   0  0  0  0  0  0  0  0  0  0  0  0  # atno 6909 bound_to 6896
  146.2223  140.2750  142.8359 H   0  0  0  0  0  0  0  0  0  0  0  0  # atno 7974 bound_to 7965
  156.2113  140.3022  155.9739 H   0  0  0  0  0  0  0  0  0  0  0  0  # atno 8008 bound_to 7997
  155.2716  140.0434  157.3024 H   0  0  0  0  0  0  0  0  0  0  0  0  # atno 8009 bound_to 7997
  154.5704  140.2346  155.8209 H   0  0  0  0  0  0  0  0  0  0  0  0  # atno 8010 bound_to 7997
  140.4963  143.2370  151.7825 H   0  0  0  0  0  0  0  0  0  0  0  0  # atno 10167 bound_to 10162
  157.6948  131.0293  150.3269 H   0  0  0  0  0  0  0  0  0  0  0  0  # atno 10718 bound_to 10713
  153.7118  135.6950  153.5035 H   0  0  0  0  0  0  0  0  0  0  0  0  # atno 10763 bound_to 10752
  153.2267  135.4351  155.0548 H   0  0  0  0  0  0  0  0  0  0  0  0  # atno 10764 bound_to 10752
  154.8312  135.3474  154.6655 H   0  0  0  0  0  0  0  0  0  0  0  0  # atno 10765 bound_to 10752
  140.6807  134.4148  157.5226 H   0  0  0  0  0  0  0  0  0  0  0  0  # atno 11005 bound_to 11000
  144.9239  140.7899  143.5731 LP  0  0  0  0  0  0  0  0  0  0  0  0  # atno 17320 bound_to 7965
  145.2689  139.1962  143.4852 LP  0  0  0  0  0  0  0  0  0  0  0  0  # atno 17321 bound_to 7965
  139.4862  144.4582  151.9573 LP  0  0  0  0  0  0  0  0  0  0  0  0  # atno 17342 bound_to 10162
  140.3670  144.2903  150.5925 LP  0  0  0  0  0  0  0  0  0  0  0  0  # atno 17343 bound_to 10162
  156.3748  130.3870  149.7147 LP  0  0  0  0  0  0  0  0  0  0  0  0  # atno 17370 bound_to 10713
  156.4549  130.7924  151.2945 LP  0  0  0  0  0  0  0  0  0  0  0  0  # atno 17371 bound_to 10713
  139.8953  134.8687  156.2139 LP  0  0  0  0  0  0  0  0  0  0  0  0  # atno 17394 bound_to 11000
  141.0320  133.6983  156.1446 LP  0  0  0  0  0  0  0  0  0  0  0  0  # atno 17395 bound_to 11000

$$$$
