AV-unprocessed.smi:1971|AV-procd|sdf|7969|dock10
  -GOLD-   2272010143D 1   1.00000     0.00000
 Structure written by MMmdl.
 43 44  0  0  0  0  0  0  0  0  3 V2000
  146.5299  142.7120  153.9716 C   0  0  0  0  0  0  0  0  0  0  0  0
  146.6736  142.0483  155.3488 C   0  0  0  0  0  0  0  0  0  0  0  0
  148.0910  141.8586  155.7447 N   0  3  0  0  0  0  0  0  0  0  0  0
  148.8467  141.0391  154.7651 C   0  0  0  0  0  0  0  0  0  0  0  0
  150.3218  140.8805  155.1997 C   0  0  0  0  0  0  0  0  0  0  0  0
  150.4453  140.2700  156.5322 N   0  0  0  0  0  0  0  0  0  0  0  0
  150.0315  138.8501  156.5977 C   0  0  1  0  0  0  0  0  0  0  0  0
  150.5471  138.0882  155.3538 C   0  0  0  0  0  0  0  0  0  0  0  0
  150.5238  138.1538  157.8967 C   0  0  0  0  0  0  0  0  0  0  0  0
  149.4969  138.1177  158.9338 N   0  0  0  0  0  0  0  0  0  0  0  0
  149.0460  137.0136  159.5472 C   0  0  0  0  0  0  0  0  0  0  0  0
  149.4954  135.9083  159.2328 O   0  0  0  0  0  0  0  0  0  0  0  0
  148.1070  137.2588  160.4881 N   0  5  0  0  0  0  0  0  0  0  0  0
  147.6569  136.2605  161.2657 C   0  0  0  0  0  0  0  0  0  0  0  0
  147.1861  135.1087  160.7741 N   0  0  0  0  0  0  0  0  0  0  0  0
  146.7810  134.2083  161.7609 C   0  0  0  0  0  0  0  0  0  0  0  0
  146.9534  134.6831  163.0340 C   0  0  0  0  0  0  0  0  0  0  0  0
  147.6347  136.2847  163.0311 S   0  0  0  0  0  0  0  0  0  0  0  0
  149.7569  141.1814  157.4569 C   0  0  0  0  0  0  0  0  0  0  0  0
  148.2584  141.3150  157.1161 C   0  0  0  0  0  0  0  0  0  0  0  0
  145.4831  142.7444  153.6689 H   0  0  0  0  0  0  0  0  0  0  0  0
  147.0766  142.1582  153.2078 H   0  0  0  0  0  0  0  0  0  0  0  0
  146.8961  143.7384  153.9723 H   0  0  0  0  0  0  0  0  0  0  0  0
  146.1455  142.6238  156.1105 H   0  0  0  0  0  0  0  0  0  0  0  0
  146.1852  141.0739  155.3033 H   0  0  0  0  0  0  0  0  0  0  0  0
  148.3644  140.0705  154.6311 H   0  0  0  0  0  0  0  0  0  0  0  0
  148.8170  141.5318  153.7927 H   0  0  0  0  0  0  0  0  0  0  0  0
  150.8800  140.3204  154.4522 H   0  0  0  0  0  0  0  0  0  0  0  0
  150.7955  141.8630  155.2242 H   0  0  0  0  0  0  0  0  0  0  0  0
  148.9445  138.7941  156.5932 H   0  0  0  0  0  0  0  0  0  0  0  0
  150.3293  137.0220  155.4133 H   0  0  0  0  0  0  0  0  0  0  0  0
  151.6270  138.1930  155.2442 H   0  0  0  0  0  0  0  0  0  0  0  0
  150.0774  138.4280  154.4323 H   0  0  0  0  0  0  0  0  0  0  0  0
  150.8343  137.1307  157.6829 H   0  0  0  0  0  0  0  0  0  0  0  0
  151.3855  138.6562  158.3341 H   0  0  0  0  0  0  0  0  0  0  0  0
  149.1012  139.0020  159.2181 H   0  0  0  0  0  0  0  0  0  0  0  0
  146.3820  133.2492  161.4664 H   0  0  0  0  0  0  0  0  0  0  0  0
  146.7245  134.1918  163.9675 H   0  0  0  0  0  0  0  0  0  0  0  0
  149.8970  140.8805  158.4932 H   0  0  0  0  0  0  0  0  0  0  0  0
  150.2276  142.1635  157.3926 H   0  0  0  0  0  0  0  0  0  0  0  0
  147.7985  141.9878  157.8385 H   0  0  0  0  0  0  0  0  0  0  0  0
  147.7437  140.3580  157.2125 H   0  0  0  0  0  0  0  0  0  0  0  0
  148.5217  142.7720  155.7381 H   0  0  0  0  0  0  0  0  0  0  0  0
  1  2  1  0  0  0  0
  1 21  1  0  0  0  0
  1 22  1  0  0  0  0
  1 23  1  0  0  0  0
  2  3  1  0  0  0  0
  2 24  1  0  0  0  0
  2 25  1  0  0  0  0
  3 20  1  0  0  0  0
  3  4  1  0  0  0  0
  3 43  1  0  0  0  0
  4  5  1  0  0  0  0
  4 26  1  0  0  0  0
  4 27  1  0  0  0  0
  5  6  1  0  0  0  0
  5 28  1  0  0  0  0
  5 29  1  0  0  0  0
  6  7  1  0  0  0  0
  6 19  1  0  0  0  0
  7  8  1  0  0  0  0
  7  9  1  0  0  0  0
  7 30  1  0  0  0  0
  8 31  1  0  0  0  0
  8 32  1  0  0  0  0
  8 33  1  0  0  0  0
  9 10  1  0  0  0  0
  9 34  1  0  0  0  0
  9 35  1  0  0  0  0
 10 11  1  0  0  0  0
 10 36  1  0  0  0  0
 11 12  2  0  0  0  0
 11 13  1  0  0  0  0
 13 14  1  0  0  0  0
 14 18  1  0  0  0  0
 14 15  2  0  0  0  0
 15 16  1  0  0  0  0
 16 17  2  0  0  0  0
 16 37  1  0  0  0  0
 17 18  1  0  0  0  0
 17 38  1  0  0  0  0
 19 20  1  0  0  0  0
 19 39  1  0  0  0  0
 19 40  1  0  0  0  0
 20 41  1  0  0  0  0
 20 42  1  0  0  0  0
M  CHG  1   3   1
M  CHG  1  13  -1
M  END
> <s_m_source_file>
AV-unprocessed.smi

> <i_m_source_file_index>
1971

> <i_lp_mmshare_version>
43012

> <i_f3d_flags>
0

> <s_epik_input>
W0NIM11bQ0gyXU4xW0NIMl1bQ0gyXU4oW0NIMl1bQ0gyXTEpW0NASF0oW0NIM10pW0NIMl1bTkhdQyg9TylbTkhdYzJuW2NIXVtjSF1zMg==

> <s_epik_cmdline>
J2VwaWtfcHl0aG9uJywgJy1waCcsICc3LjAnLCAnLXRuJywgJzgnLCAnLW1hJywgJzIwMCcsICctbWV0YWxfYmluZGluZycsICctaW1hZScsICc8aW5maWxlLm1hZT4nLCAnLW9tYWUnLCAnPG91dGZpbGUubWFlPic=

> <r_lp_tautomer_probability>
0.999

> <r_epik_Ionization_Penalty>
7.06996

> <r_epik_Ionization_Penalty_Charging>
5.92347

> <r_epik_Ionization_Penalty_Neutral>
1.14649

> <r_epik_State_Penalty>
6.04391

> <r_epik_Charging_Adjusted_Penalty>
11.9674

> <i_epik_Tot_Q>
0

> <i_epik_Tot_abs_Q>
2

> <r_epik_Metal_State_Penalty>
2.01291

> <b_epik_Metal_Only>
1

> <s_lp_Force_Field>
OPLS_2005

> <r_lp_Energy>
11.7698

> <b_lp_Chiralities_Consistent>
1

> <s_lp_Variant>
AV-unprocessed.smi:1971-8

> <Gold.Version>
5.8.1

> <Gold.Id.Protein>
6NUR|6NUR_protein|mol2

> <Gold.PLP.Fitness>
49.3389

> <Gold.PLP.PLP>
-34.6881

> <Gold.PLP.part.hbond>
-4.0000

> <Gold.PLP.part.metal>
0.0000

> <Gold.PLP.part.buried>
-3.7506

> <Gold.PLP.part.nonpolar>
-28.6010

> <Gold.PLP.part.repulsive>
0.2700

> <Gold.PLP.ligand.clash>
0.0000

> <Gold.PLP.ligand.torsion>
1.2619

> <Gold.PLP.Chemscore.Hbond>
5.6924

> <Gold.PLP.Chemscore.CHOScore>
0.0000

> <Gold.PLP.Chemscore.Metal>
0.0000

> <Gold.Chemscore.Hbonds>
donor molecule, donor type, donor heavy atom, donor atom, acceptor molecule, acceptor atom, score
      L1  H     3    43       P1  8028  2.00
      P1  H  6896  6908       L1    12  1.00
      P1  H  6931  6943       L1    13  1.30
      P1  H  6934  6947       L1    13  1.36

> <Gold.PLP.Chemscore.Internal.Correction>
0.0973

> <Gold.Rescore>
     Score         DG    S(hbond)    S(metal)    S(lipo)     H(rot)  DE(clash)    DE(int)     intcor
     15.49     -18.18       2.69        0.00      70.07       1.75       0.15       2.53       ----

> <Gold.Chemscore.Fitness>
15.4934

> <Gold.Chemscore.DG>
-18.1796

> <Gold.Chemscore.ZeroCoef>
-5.4800

> <Gold.Chemscore.Hbond>
2.6894

> <Gold.Chemscore.Metal>
0.0000

> <Gold.Chemscore.Lipo>
70.0708

> <Gold.Chemscore.Internal_Hbond>
0.0000

> <Gold.Chemscore.DEClash>
0.1519

> <Gold.Chemscore.DEInternal>
2.5343

> <Gold.Chemscore.Rot>
1.7505

> <Gold.Chemscore.Internal.Correction>
   9.000000E+99

> <Gold.Chemscore.Hbonds>
donor molecule, donor type, donor heavy atom, donor atom, acceptor molecule, acceptor atom, score
      L1  H     3    43       P1  8028  0.97
      P1  H  6896  6908       L1    12  0.94
      P1  H  6931  6943       L1    13  0.06
      P1  H  6934  6947       L1    13  0.54

> <Gold.Chemscore.Hbond.Weighted>
-8.9827

> <Gold.Chemscore.Metal.Weighted>
-0.0000

> <Gold.Chemscore.Lipo.Weighted>
-8.1983

> <Gold.Chemscore.Internal_Hbond.Weighted>
0.0000

> <Gold.Chemscore.DEClash.Weighted>
0.1519

> <Gold.Chemscore.DEInternal.Weighted>
2.5343

> <Gold.Chemscore.Rot.Weighted>
4.4813

> <Gold.Chemscore.Internal.Correction.Weighted>
   9.000000E+99

> <Gold.Protein.RotatedTorsions>
[ 6907 6896 6895 6894 ] final  163.59 input  -60.11 | X-H torsion
[ 7974 7965 7964 7962 ] final  -59.11 input  175.53 | X-H torsion
[ 8008 7997 7996 7995 ] final -103.69 input   59.86 | X-H torsion
[ 10167 10162 10161 10158 ] final  -92.59 input  -65.29 | X-H torsion
[ 10718 10713 10712 10709 ] final   69.64 input   66.30 | X-H torsion
[ 10763 10752 10751 10750 ] final  -26.42 input  -60.55 | X-H torsion
[ 11005 11000 10999 10996 ] final -126.80 input  -57.11 | X-H torsion

> <Gold.Protein.ActiveResidues>
 VAL166  LYS551  ARG553  GLY616  TRP617  ASP618  TYR619  PRO620  LYS621  CYS622 
 ASP623  PHE694  ASN695  SER759  ASP760  ASP761  ALA762  ILE779  LEU786  VAL792 
 PHE793  MET794  SER795  GLU796  ALA797  LYS798  CYS799  TRP800  GLU811  SER814 

> <Gold.Protein.RotatedAtoms>
  151.9229  133.3590  159.3902 H   0  0  0  0  0  0  0  0  0  0  0  0  # atno 6907 bound_to 6896
  150.7033  134.4617  159.5393 H   0  0  0  0  0  0  0  0  0  0  0  0  # atno 6908 bound_to 6896
  152.2244  134.8383  160.0532 H   0  0  0  0  0  0  0  0  0  0  0  0  # atno 6909 bound_to 6896
  145.8313  140.8477  143.0082 H   0  0  0  0  0  0  0  0  0  0  0  0  # atno 7974 bound_to 7965
  154.8745  140.0421  157.1745 H   0  0  0  0  0  0  0  0  0  0  0  0  # atno 8008 bound_to 7997
  154.8704  140.2957  155.5464 H   0  0  0  0  0  0  0  0  0  0  0  0  # atno 8009 bound_to 7997
  156.2999  140.2430  156.3692 H   0  0  0  0  0  0  0  0  0  0  0  0  # atno 8010 bound_to 7997
  140.3332  143.2983  151.9918 H   0  0  0  0  0  0  0  0  0  0  0  0  # atno 10167 bound_to 10162
  157.6357  130.9436  150.0541 H   0  0  0  0  0  0  0  0  0  0  0  0  # atno 10718 bound_to 10713
  153.7157  135.6948  153.5025 H   0  0  0  0  0  0  0  0  0  0  0  0  # atno 10763 bound_to 10752
  153.2240  135.4360  155.0520 H   0  0  0  0  0  0  0  0  0  0  0  0  # atno 10764 bound_to 10752
  154.8300  135.3467  154.6692 H   0  0  0  0  0  0  0  0  0  0  0  0  # atno 10765 bound_to 10752
  140.9652  134.0882  157.3928 H   0  0  0  0  0  0  0  0  0  0  0  0  # atno 11005 bound_to 11000
  144.6739  140.0677  143.7474 LP  0  0  0  0  0  0  0  0  0  0  0  0  # atno 17320 bound_to 7965
  145.9567  139.2772  143.1180 LP  0  0  0  0  0  0  0  0  0  0  0  0  # atno 17321 bound_to 7965
  139.4853  144.6218  151.7241 LP  0  0  0  0  0  0  0  0  0  0  0  0  # atno 17342 bound_to 10162
  140.5378  144.0628  150.6077 LP  0  0  0  0  0  0  0  0  0  0  0  0  # atno 17343 bound_to 10162
  156.1594  130.3643  149.9321 LP  0  0  0  0  0  0  0  0  0  0  0  0  # atno 17370 bound_to 10713
  156.7323  130.9048  151.3626 LP  0  0  0  0  0  0  0  0  0  0  0  0  # atno 17371 bound_to 10713
  139.8892  135.0103  156.6664 LP  0  0  0  0  0  0  0  0  0  0  0  0  # atno 17394 bound_to 11000
  140.7410  133.8978  155.8278 LP  0  0  0  0  0  0  0  0  0  0  0  0  # atno 17395 bound_to 11000

$$$$
