AV-unprocessed.smi:2032|AV-procd|sdf|8241|dock10
  -GOLD-   2272010513D 1   1.00000     0.00000
 Structure written by MMmdl.
 43 44  0  0  0  0  0  0  0  0  2 V2000
  147.5020  132.5762  154.1174 C   0  0  0  0  0  0  0  0  0  0  0  0
  147.3056  133.4077  152.8448 C   0  0  2  0  0  0  0  0  0  0  0  0
  146.4268  134.6473  153.0914 C   0  0  0  0  0  0  0  0  0  0  0  0
  146.2019  135.4085  151.8318 N   0  3  2  0  0  0  0  0  0  0  0  0
  145.4233  136.6717  152.0517 C   0  0  2  0  0  0  0  0  0  0  0  0
  146.0735  137.6212  153.0880 C   0  0  0  0  0  0  0  0  0  0  0  0
  143.9623  136.3463  152.4693 C   0  0  0  0  0  0  0  0  0  0  0  0
  143.1124  137.5290  152.5770 N   0  0  0  0  0  0  0  0  0  0  0  0
  141.8502  137.5278  153.0296 C   0  0  0  0  0  0  0  0  0  0  0  0
  141.2696  136.5107  153.4100 O   0  0  0  0  0  0  0  0  0  0  0  0
  141.3238  138.7646  153.0123 N   0  0  0  0  0  0  0  0  0  0  0  0
  140.0017  139.1590  153.3464 C   0  0  0  0  0  0  0  0  0  0  0  0
  139.6452  140.4089  153.6650 N   0  0  0  0  0  0  0  0  0  0  0  0
  138.2833  140.5057  153.9621 C   0  0  0  0  0  0  0  0  0  0  0  0
  137.6137  139.3111  153.8644 C   0  0  0  0  0  0  0  0  0  0  0  0
  138.6736  138.0088  153.3951 S   0  0  0  0  0  0  0  0  0  0  0  0
  145.6500  134.4922  150.7959 C   0  0  0  0  0  0  0  0  0  0  0  0
  146.5376  133.2449  150.6209 C   0  0  2  0  0  0  0  0  0  0  0  0
  145.9395  132.2489  149.6211 C   0  0  0  0  0  0  0  0  0  0  0  0
  146.6767  132.5851  151.8718 O   0  0  0  0  0  0  0  0  0  0  0  0
  147.9921  133.1606  154.8967 H   0  0  0  0  0  0  0  0  0  0  0  0
  148.1220  131.7013  153.9194 H   0  0  0  0  0  0  0  0  0  0  0  0
  146.5479  132.2252  154.5122 H   0  0  0  0  0  0  0  0  0  0  0  0
  148.2866  133.7174  152.4793 H   0  0  0  0  0  0  0  0  0  0  0  0
  145.4644  134.3444  153.5073 H   0  0  0  0  0  0  0  0  0  0  0  0
  146.9127  135.2654  153.8435 H   0  0  0  0  0  0  0  0  0  0  0  0
  145.4085  137.2089  151.1023 H   0  0  0  0  0  0  0  0  0  0  0  0
  145.4704  138.5131  153.2554 H   0  0  0  0  0  0  0  0  0  0  0  0
  147.0449  137.9869  152.7553 H   0  0  0  0  0  0  0  0  0  0  0  0
  146.2041  137.1300  154.0529 H   0  0  0  0  0  0  0  0  0  0  0  0
  143.4784  135.6601  151.7759 H   0  0  0  0  0  0  0  0  0  0  0  0
  143.9605  135.8460  153.4382 H   0  0  0  0  0  0  0  0  0  0  0  0
  143.5148  138.4090  152.2883 H   0  0  0  0  0  0  0  0  0  0  0  0
  141.9338  139.5099  152.7105 H   0  0  0  0  0  0  0  0  0  0  0  0
  137.8724  141.4664  154.2353 H   0  0  0  0  0  0  0  0  0  0  0  0
  136.5657  139.1194  154.0407 H   0  0  0  0  0  0  0  0  0  0  0  0
  144.6348  134.2008  151.0714 H   0  0  0  0  0  0  0  0  0  0  0  0
  145.5974  134.9901  149.8283 H   0  0  0  0  0  0  0  0  0  0  0  0
  147.5237  133.5442  150.2610 H   0  0  0  0  0  0  0  0  0  0  0  0
  145.8188  132.7039  148.6378 H   0  0  0  0  0  0  0  0  0  0  0  0
  144.9609  131.8980  149.9499 H   0  0  0  0  0  0  0  0  0  0  0  0
  146.5842  131.3773  149.5061 H   0  0  0  0  0  0  0  0  0  0  0  0
  147.1102  135.6915  151.4926 H   0  0  0  0  0  0  0  0  0  0  0  0
  1  2  1  0  0  0  0
  1 21  1  0  0  0  0
  1 22  1  0  0  0  0
  1 23  1  0  0  0  0
  2 20  1  0  0  0  0
  2  3  1  0  0  0  0
  2 24  1  0  0  0  0
  3  4  1  0  0  0  0
  3 25  1  0  0  0  0
  3 26  1  0  0  0  0
  4  5  1  0  0  0  0
  4 17  1  0  0  0  0
  4 43  1  0  0  0  0
  5  6  1  0  0  0  0
  5  7  1  0  0  0  0
  5 27  1  0  0  0  0
  6 28  1  0  0  0  0
  6 29  1  0  0  0  0
  6 30  1  0  0  0  0
  7  8  1  0  0  0  0
  7 31  1  0  0  0  0
  7 32  1  0  0  0  0
  8  9  1  0  0  0  0
  8 33  1  0  0  0  0
  9 10  2  0  0  0  0
  9 11  1  0  0  0  0
 11 12  1  0  0  0  0
 11 34  1  0  0  0  0
 12 16  1  0  0  0  0
 12 13  2  0  0  0  0
 13 14  1  0  0  0  0
 14 15  2  0  0  0  0
 14 35  1  0  0  0  0
 15 16  1  0  0  0  0
 15 36  1  0  0  0  0
 17 18  1  0  0  0  0
 17 37  1  0  0  0  0
 17 38  1  0  0  0  0
 18 19  1  0  0  0  0
 18 20  1  0  0  0  0
 18 39  1  0  0  0  0
 19 40  1  0  0  0  0
 19 41  1  0  0  0  0
 19 42  1  0  0  0  0
M  CHG  1   4   1
M  END
> <s_m_source_file>
AV-unprocessed.smi

> <i_m_source_file_index>
2032

> <i_lp_mmshare_version>
43012

> <i_f3d_flags>
0

> <s_epik_input>
W0NIM11bQ0BASF0xW0NIMl1OKFtDSDJdW0NASF0oTzEpW0NIM10pW0NASF0oW0NIM10pW0NIMl1bTkhdQyg9TylbTkhdYzJuW2NIXVtjSF1zMg==

> <s_epik_cmdline>
J2VwaWtfcHl0aG9uJywgJy1waCcsICc3LjAnLCAnLXRuJywgJzgnLCAnLW1hJywgJzIwMCcsICctbWV0YWxfYmluZGluZycsICctaW1hZScsICc8aW5maWxlLm1hZT4nLCAnLW9tYWUnLCAnPG91dGZpbGUubWFlPic=

> <r_lp_tautomer_probability>
0.999

> <r_epik_Ionization_Penalty>
0.695838

> <r_epik_Ionization_Penalty_Charging>
0.695697

> <r_epik_Ionization_Penalty_Neutral>
0.000141198

> <r_epik_State_Penalty>
0.717972

> <r_epik_Charging_Adjusted_Penalty>
1.41367

> <i_epik_Tot_Q>
1

> <i_epik_Tot_abs_Q>
1

> <r_epik_Metal_State_Penalty>
0.756405

> <b_epik_Metal_Only>
0

> <s_lp_Force_Field>
OPLS_2005

> <r_lp_Energy>
16.7575

> <b_lp_Chiralities_Consistent>
1

> <s_lp_Variant>
AV-unprocessed.smi:2032-11

> <Gold.Version>
5.8.1

> <Gold.Id.Protein>
6NUR|6NUR_protein|mol2

> <Gold.PLP.Fitness>
44.6171

> <Gold.PLP.PLP>
-32.8658

> <Gold.PLP.part.hbond>
-4.7745

> <Gold.PLP.part.metal>
0.0000

> <Gold.PLP.part.buried>
-4.1205

> <Gold.PLP.part.nonpolar>
-25.5461

> <Gold.PLP.part.repulsive>
1.1870

> <Gold.PLP.ligand.clash>
0.0000

> <Gold.PLP.ligand.torsion>
0.1260

> <Gold.PLP.Chemscore.Hbond>
3.9840

> <Gold.PLP.Chemscore.CHOScore>
0.0000

> <Gold.PLP.Chemscore.Metal>
0.0000

> <Gold.Chemscore.Hbonds>
donor molecule, donor type, donor heavy atom, donor atom, acceptor molecule, acceptor atom, score
      L1  H     4    43       P1  7948  2.00
      L1  H     8    33       P1 10175  0.99
      L1  H    11    34       P1 10175  1.00

> <Gold.PLP.Chemscore.Internal.Correction>
0.0512

> <Gold.Rescore>
     Score         DG    S(hbond)    S(metal)    S(lipo)     H(rot)  DE(clash)    DE(int)     intcor
     17.50     -18.76       2.80        0.00      68.70       1.61       0.01       1.25       ----

> <Gold.Chemscore.Fitness>
17.5043

> <Gold.Chemscore.DG>
-18.7621

> <Gold.Chemscore.ZeroCoef>
-5.4800

> <Gold.Chemscore.Hbond>
2.8048

> <Gold.Chemscore.Metal>
0.0000

> <Gold.Chemscore.Lipo>
68.7016

> <Gold.Chemscore.Internal_Hbond>
0.0000

> <Gold.Chemscore.DEClash>
0.0074

> <Gold.Chemscore.DEInternal>
1.2504

> <Gold.Chemscore.Rot>
1.6110

> <Gold.Chemscore.Internal.Correction>
   9.000000E+99

> <Gold.Chemscore.Hbonds>
donor molecule, donor type, donor heavy atom, donor atom, acceptor molecule, acceptor atom, score
      L1  H     4    43       P1  7948  0.95
      L1  H     8    33       P1 10175  0.88
      L1  H    11    34       P1 10175  0.49

> <Gold.Chemscore.Hbond.Weighted>
-9.3681

> <Gold.Chemscore.Metal.Weighted>
-0.0000

> <Gold.Chemscore.Lipo.Weighted>
-8.0381

> <Gold.Chemscore.Internal_Hbond.Weighted>
0.0000

> <Gold.Chemscore.DEClash.Weighted>
0.0074

> <Gold.Chemscore.DEInternal.Weighted>
1.2504

> <Gold.Chemscore.Rot.Weighted>
4.1242

> <Gold.Chemscore.Internal.Correction.Weighted>
   9.000000E+99

> <Gold.Protein.RotatedTorsions>
[ 6907 6896 6895 6894 ] final  -69.51 input  -60.11 | X-H torsion
[ 7974 7965 7964 7962 ] final  -29.23 input  175.53 | X-H torsion
[ 8008 7997 7996 7995 ] final  -40.99 input   59.86 | X-H torsion
[ 10167 10162 10161 10158 ] final -153.89 input  -65.29 | X-H torsion
[ 10718 10713 10712 10709 ] final  128.67 input   66.30 | X-H torsion
[ 10763 10752 10751 10750 ] final -112.18 input  -60.55 | X-H torsion
[ 11005 11000 10999 10996 ] final   93.94 input  -57.11 | X-H torsion

> <Gold.Protein.ActiveResidues>
 VAL166  LYS551  ARG553  GLY616  TRP617  ASP618  TYR619  PRO620  LYS621  CYS622 
 ASP623  PHE694  ASN695  SER759  ASP760  ASP761  ALA762  ILE779  LEU786  VAL792 
 PHE793  MET794  SER795  GLU796  ALA797  LYS798  CYS799  TRP800  GLU811  SER814 

> <Gold.Protein.RotatedAtoms>
  150.7302  134.5587  159.5830 H   0  0  0  0  0  0  0  0  0  0  0  0  # atno 6907 bound_to 6896
  152.3056  134.7556  160.0357 H   0  0  0  0  0  0  0  0  0  0  0  0  # atno 6908 bound_to 6896
  151.8122  133.3347  159.3595 H   0  0  0  0  0  0  0  0  0  0  0  0  # atno 6909 bound_to 6896
  146.1231  140.5385  142.8726 H   0  0  0  0  0  0  0  0  0  0  0  0  # atno 7974 bound_to 7965
  154.4007  140.1511  156.3117 H   0  0  0  0  0  0  0  0  0  0  0  0  # atno 8008 bound_to 7997
  155.8609  140.3453  155.5734 H   0  0  0  0  0  0  0  0  0  0  0  0  # atno 8009 bound_to 7997
  155.7881  140.0853  157.2014 H   0  0  0  0  0  0  0  0  0  0  0  0  # atno 8010 bound_to 7997
  139.7059  143.9187  152.2448 H   0  0  0  0  0  0  0  0  0  0  0  0  # atno 10167 bound_to 10162
  157.5223  131.1098  150.9135 H   0  0  0  0  0  0  0  0  0  0  0  0  # atno 10718 bound_to 10713
  154.8337  135.4500  154.1154 H   0  0  0  0  0  0  0  0  0  0  0  0  # atno 10763 bound_to 10752
  153.2405  135.6916  153.7795 H   0  0  0  0  0  0  0  0  0  0  0  0  # atno 10764 bound_to 10752
  153.7144  135.3351  155.3229 H   0  0  0  0  0  0  0  0  0  0  0  0  # atno 10765 bound_to 10752
  139.8804  134.8818  156.3791 H   0  0  0  0  0  0  0  0  0  0  0  0  # atno 11005 bound_to 11000
  144.7616  140.5436  143.6731 LP  0  0  0  0  0  0  0  0  0  0  0  0  # atno 17320 bound_to 7965
  145.5423  139.1475  143.3440 LP  0  0  0  0  0  0  0  0  0  0  0  0  # atno 17321 bound_to 7965
  139.9043  144.6894  150.8631 LP  0  0  0  0  0  0  0  0  0  0  0  0  # atno 17342 bound_to 10162
  140.7721  143.3490  151.2051 LP  0  0  0  0  0  0  0  0  0  0  0  0  # atno 17343 bound_to 10162
  156.9741  130.5502  149.5292 LP  0  0  0  0  0  0  0  0  0  0  0  0  # atno 17370 bound_to 10713
  156.0362  130.5449  150.8659 LP  0  0  0  0  0  0  0  0  0  0  0  0  # atno 17371 bound_to 10713
  140.9411  133.7514  156.0147 LP  0  0  0  0  0  0  0  0  0  0  0  0  # atno 17394 bound_to 11000
  140.8218  134.3280  157.5379 LP  0  0  0  0  0  0  0  0  0  0  0  0  # atno 17395 bound_to 11000

$$$$
