AV-unprocessed.smi:1813|AV-procd|sdf|7342|dock5
  -GOLD-   22720 9 03D 1   1.00000     0.00000
 Structure written by MMmdl.
 40 41  0  0  0  0  0  0  0  0  2 V2000
  142.1931  138.1631  154.8913 C   0  0  0  0  0  0  0  0  0  0  0  0
  142.8932  139.4364  154.8132 N   0  0  0  0  0  0  0  0  0  0  0  0
  143.4861  140.0356  155.8554 C   0  0  0  0  0  0  0  0  0  0  0  0
  143.4905  139.5634  156.9929 O   0  0  0  0  0  0  0  0  0  0  0  0
  144.1609  141.3812  155.5702 C   0  0  0  0  0  0  0  0  0  0  0  0
  145.3756  141.2538  154.7244 N   0  3  2  0  0  0  0  0  0  0  0  0
  146.4309  140.4300  155.3671 C   0  0  0  0  0  0  0  0  0  0  0  0
  147.6124  140.1901  154.4092 C   0  0  0  0  0  0  0  0  0  0  0  0
  148.1985  141.5066  153.8693 C   0  0  2  0  0  0  0  0  0  0  0  0
  148.9345  142.2102  154.9198 N   0  0  0  0  0  0  0  0  0  0  0  0
  149.8349  141.6495  155.7409 C   0  0  0  0  0  0  0  0  0  0  0  0
  150.1517  140.4610  155.6872 O   0  0  0  0  0  0  0  0  0  0  0  0
  150.3320  142.5490  156.6079 N   0  0  0  0  0  0  0  0  0  0  0  0
  151.3120  142.3465  157.6152 C   0  0  0  0  0  0  0  0  0  0  0  0
  151.7261  141.1448  158.0340 N   0  0  0  0  0  0  0  0  0  0  0  0
  152.6992  141.2440  159.0316 C   0  0  0  0  0  0  0  0  0  0  0  0
  153.0168  142.5380  159.3618 C   0  0  0  0  0  0  0  0  0  0  0  0
  152.0996  143.6905  158.4290 S   0  0  0  0  0  0  0  0  0  0  0  0
  147.0695  142.3739  153.2764 C   0  0  0  0  0  0  0  0  0  0  0  0
  145.9088  142.5649  154.2675 C   0  0  0  0  0  0  0  0  0  0  0  0
  141.8823  137.8479  153.8954 H   0  0  0  0  0  0  0  0  0  0  0  0
  141.3026  138.2495  155.5151 H   0  0  0  0  0  0  0  0  0  0  0  0
  142.8362  137.3867  155.3077 H   0  0  0  0  0  0  0  0  0  0  0  0
  142.9243  139.8900  153.9112 H   0  0  0  0  0  0  0  0  0  0  0  0
  143.4555  142.0759  155.1110 H   0  0  0  0  0  0  0  0  0  0  0  0
  144.4307  141.8035  156.5390 H   0  0  0  0  0  0  0  0  0  0  0  0
  146.7725  140.9213  156.2794 H   0  0  0  0  0  0  0  0  0  0  0  0
  146.0151  139.4665  155.6642 H   0  0  0  0  0  0  0  0  0  0  0  0
  148.3874  139.6061  154.9074 H   0  0  0  0  0  0  0  0  0  0  0  0
  147.2698  139.5829  153.5702 H   0  0  0  0  0  0  0  0  0  0  0  0
  148.9062  141.2596  153.0756 H   0  0  0  0  0  0  0  0  0  0  0  0
  148.7311  143.1913  155.0416 H   0  0  0  0  0  0  0  0  0  0  0  0
  149.9732  143.4895  156.5377 H   0  0  0  0  0  0  0  0  0  0  0  0
  153.1137  140.3396  159.4517 H   0  0  0  0  0  0  0  0  0  0  0  0
  153.7319  142.8811  160.0947 H   0  0  0  0  0  0  0  0  0  0  0  0
  147.4531  143.3439  152.9583 H   0  0  0  0  0  0  0  0  0  0  0  0
  146.6879  141.8939  152.3743 H   0  0  0  0  0  0  0  0  0  0  0  0
  145.1213  143.1427  153.7833 H   0  0  0  0  0  0  0  0  0  0  0  0
  146.2386  143.1474  155.1292 H   0  0  0  0  0  0  0  0  0  0  0  0
  145.0875  140.7499  153.8972 H   0  0  0  0  0  0  0  0  0  0  0  0
  1  2  1  0  0  0  0
  1 21  1  0  0  0  0
  1 22  1  0  0  0  0
  1 23  1  0  0  0  0
  2  3  1  0  0  0  0
  2 24  1  0  0  0  0
  3  4  2  0  0  0  0
  3  5  1  0  0  0  0
  5  6  1  0  0  0  0
  5 25  1  0  0  0  0
  5 26  1  0  0  0  0
  6 20  1  0  0  0  0
  6  7  1  0  0  0  0
  6 40  1  0  0  0  0
  7  8  1  0  0  0  0
  7 27  1  0  0  0  0
  7 28  1  0  0  0  0
  8  9  1  0  0  0  0
  8 29  1  0  0  0  0
  8 30  1  0  0  0  0
  9 10  1  0  0  0  0
  9 19  1  0  0  0  0
  9 31  1  0  0  0  0
 10 11  1  0  0  0  0
 10 32  1  0  0  0  0
 11 12  2  0  0  0  0
 11 13  1  0  0  0  0
 13 14  1  0  0  0  0
 13 33  1  0  0  0  0
 14 18  1  0  0  0  0
 14 15  2  0  0  0  0
 15 16  1  0  0  0  0
 16 17  2  0  0  0  0
 16 34  1  0  0  0  0
 17 18  1  0  0  0  0
 17 35  1  0  0  0  0
 19 20  1  0  0  0  0
 19 36  1  0  0  0  0
 19 37  1  0  0  0  0
 20 38  1  0  0  0  0
 20 39  1  0  0  0  0
M  CHG  1   6   1
M  END
> <s_m_source_file>
AV-unprocessed.smi

> <i_m_source_file_index>
1813

> <i_lp_mmshare_version>
43012

> <i_f3d_flags>
0

> <s_epik_input>
W0NIM11bTkhdQyg9TylbQ0gyXU4xW0NIMl1bQ0gyXVtDSF0oW0NIMl1bQ0gyXTEpW05IXUMoPU8pW05IXWMybltjSF1bY0hdczI=

> <s_epik_cmdline>
J2VwaWtfcHl0aG9uJywgJy1waCcsICc3LjAnLCAnLXRuJywgJzgnLCAnLW1hJywgJzIwMCcsICctbWV0YWxfYmluZGluZycsICctaW1hZScsICc8aW5maWxlLm1hZT4nLCAnLW9tYWUnLCAnPG91dGZpbGUubWFlPic=

> <r_lp_tautomer_probability>
0.999

> <r_epik_Ionization_Penalty>
0.862509

> <r_epik_Ionization_Penalty_Charging>
0.862349

> <r_epik_Ionization_Penalty_Neutral>
0.000159522

> <r_epik_State_Penalty>
0.898939

> <r_epik_Charging_Adjusted_Penalty>
1.76129

> <i_epik_Tot_Q>
1

> <i_epik_Tot_abs_Q>
1

> <r_epik_Metal_State_Penalty>
0.936827

> <b_epik_Metal_Only>
0

> <s_lp_Force_Field>
OPLS_2005

> <r_lp_Energy>
11.766

> <b_lp_Chiralities_Consistent>
1

> <s_lp_Variant>
AV-unprocessed.smi:1813-3

> <Gold.Version>
5.8.1

> <Gold.Id.Protein>
6NUR|6NUR_protein|mol2

> <Gold.PLP.Fitness>
43.9829

> <Gold.PLP.PLP>
-29.7943

> <Gold.PLP.part.hbond>
-4.0000

> <Gold.PLP.part.metal>
0.0000

> <Gold.PLP.part.buried>
-4.4479

> <Gold.PLP.part.nonpolar>
-20.1097

> <Gold.PLP.part.repulsive>
0.3558

> <Gold.PLP.ligand.clash>
0.0000

> <Gold.PLP.ligand.torsion>
0.2552

> <Gold.PLP.Chemscore.Hbond>
4.8880

> <Gold.PLP.Chemscore.CHOScore>
0.0000

> <Gold.PLP.Chemscore.Metal>
0.0000

> <Gold.Chemscore.Hbonds>
donor molecule, donor type, donor heavy atom, donor atom, acceptor molecule, acceptor atom, score
      L1  H     2    24       P1 10175  1.00
      L1  H     6    40       P1 10175  1.86
      L1  H    10    32       P1  8028  1.00
      L1  H    13    33       P1  8028  0.99

> <Gold.PLP.Chemscore.Internal.Correction>
0.0351

> <Gold.Rescore>
     Score         DG    S(hbond)    S(metal)    S(lipo)     H(rot)  DE(clash)    DE(int)     intcor
     17.16     -21.28       3.80        0.00      65.58       1.79       1.40       2.71       ----

> <Gold.Chemscore.Fitness>
17.1609

> <Gold.Chemscore.DG>
-21.2766

> <Gold.Chemscore.ZeroCoef>
-5.4800

> <Gold.Chemscore.Hbond>
3.8012

> <Gold.Chemscore.Metal>
0.0000

> <Gold.Chemscore.Lipo>
65.5841

> <Gold.Chemscore.Internal_Hbond>
0.0000

> <Gold.Chemscore.DEClash>
1.4046

> <Gold.Chemscore.DEInternal>
2.7111

> <Gold.Chemscore.Rot>
1.7862

> <Gold.Chemscore.Internal.Correction>
   9.000000E+99

> <Gold.Chemscore.Hbonds>
donor molecule, donor type, donor heavy atom, donor atom, acceptor molecule, acceptor atom, score
      L1  H     2    24       P1 10175  0.99
      L1  H     6    40       P1 10175  0.83
      L1  H    10    32       P1  8028  0.99
      L1  H    13    33       P1  8028  0.94

> <Gold.Chemscore.Hbond.Weighted>
-12.6959

> <Gold.Chemscore.Metal.Weighted>
-0.0000

> <Gold.Chemscore.Lipo.Weighted>
-7.6733

> <Gold.Chemscore.Internal_Hbond.Weighted>
0.0000

> <Gold.Chemscore.DEClash.Weighted>
1.4046

> <Gold.Chemscore.DEInternal.Weighted>
2.7111

> <Gold.Chemscore.Rot.Weighted>
4.5726

> <Gold.Chemscore.Internal.Correction.Weighted>
   9.000000E+99

> <Gold.Protein.RotatedTorsions>
[ 6907 6896 6895 6894 ] final -156.57 input  -60.11 | X-H torsion
[ 7974 7965 7964 7962 ] final   61.12 input  175.53 | X-H torsion
[ 8008 7997 7996 7995 ] final   21.06 input   59.86 | X-H torsion
[ 10167 10162 10161 10158 ] final -102.32 input  -65.29 | X-H torsion
[ 10718 10713 10712 10709 ] final  170.67 input   66.30 | X-H torsion
[ 10763 10752 10751 10750 ] final  -84.68 input  -60.55 | X-H torsion
[ 11005 11000 10999 10996 ] final   -3.58 input  -57.11 | X-H torsion

> <Gold.Protein.ActiveResidues>
 VAL166  LYS551  ARG553  GLY616  TRP617  ASP618  TYR619  PRO620  LYS621  CYS622 
 ASP623  PHE694  ASN695  SER759  ASP760  ASP761  ALA762  ILE779  LEU786  VAL792 
 PHE793  MET794  SER795  GLU796  ALA797  LYS798  CYS799  TRP800  GLU811  SER814 

> <Gold.Protein.RotatedAtoms>
  151.2897  133.4171  159.2631 H   0  0  0  0  0  0  0  0  0  0  0  0  # atno 6907 bound_to 6896
  151.0288  134.9524  159.8110 H   0  0  0  0  0  0  0  0  0  0  0  0  # atno 6908 bound_to 6896
  152.5341  134.2858  159.9077 H   0  0  0  0  0  0  0  0  0  0  0  0  # atno 6909 bound_to 6896
  145.8883  139.3492  143.0665 H   0  0  0  0  0  0  0  0  0  0  0  0  # atno 7974 bound_to 7965
  154.9449  140.3058  155.5103 H   0  0  0  0  0  0  0  0  0  0  0  0  # atno 8008 bound_to 7997
  156.2992  140.2329  156.4459 H   0  0  0  0  0  0  0  0  0  0  0  0  # atno 8009 bound_to 7997
  154.8110  140.0428  157.1331 H   0  0  0  0  0  0  0  0  0  0  0  0  # atno 8010 bound_to 7997
  140.2319  143.3600  152.0879 H   0  0  0  0  0  0  0  0  0  0  0  0  # atno 10167 bound_to 10162
  157.0047  131.0186  151.2820 H   0  0  0  0  0  0  0  0  0  0  0  0  # atno 10718 bound_to 10713
  154.6023  135.5512  153.7387 H   0  0  0  0  0  0  0  0  0  0  0  0  # atno 10763 bound_to 10752
  153.0160  135.6369  154.1696 H   0  0  0  0  0  0  0  0  0  0  0  0  # atno 10764 bound_to 10752
  154.1636  135.2896  155.3081 H   0  0  0  0  0  0  0  0  0  0  0  0  # atno 10765 bound_to 10752
  140.6708  133.9238  155.8493 H   0  0  0  0  0  0  0  0  0  0  0  0  # atno 11005 bound_to 11000
  145.8940  140.9286  143.0537 LP  0  0  0  0  0  0  0  0  0  0  0  0  # atno 17320 bound_to 7965
  144.6729  140.0943  143.7463 LP  0  0  0  0  0  0  0  0  0  0  0  0  # atno 17321 bound_to 7965
  139.5107  144.6888  151.5815 LP  0  0  0  0  0  0  0  0  0  0  0  0  # atno 17342 bound_to 10162
  140.6178  143.9315  150.6502 LP  0  0  0  0  0  0  0  0  0  0  0  0  # atno 17343 bound_to 10162
  157.5364  130.8091  149.7977 LP  0  0  0  0  0  0  0  0  0  0  0  0  # atno 17370 bound_to 10713
  156.0158  130.3814  150.2116 LP  0  0  0  0  0  0  0  0  0  0  0  0  # atno 17371 bound_to 10713
  141.0393  134.0644  157.3921 LP  0  0  0  0  0  0  0  0  0  0  0  0  # atno 17394 bound_to 11000
  139.8982  135.0153  156.7137 LP  0  0  0  0  0  0  0  0  0  0  0  0  # atno 17395 bound_to 11000

$$$$
