AV-unprocessed.smi:1285|AV-procd|sdf|5369|dock1
  -GOLD-   22720 4513D 1   1.00000     0.00000
 Structure written by MMmdl.
 46 47  0  0  0  0  0  0  0  0  1 V2000
  152.5409  138.2545  158.4148 C   0  0  0  0  0  0  0  0  0  0  0  0
  151.0877  138.1718  158.9168 C   0  0  0  0  0  0  0  0  0  0  0  0
  150.0676  137.5125  157.9345 C   0  0  1  0  0  0  0  0  0  0  0  0
  150.5547  136.0547  157.7136 C   0  0  0  0  0  0  0  0  0  0  0  0
  148.6667  137.4579  158.6266 C   0  0  0  0  0  0  0  0  0  0  0  0
  148.6589  136.7167  159.8881 N   0  0  0  0  0  0  0  0  0  0  0  0
  147.6657  136.7135  160.7921 C   0  0  0  0  0  0  0  0  0  0  0  0
  146.6201  137.3478  160.6477 O   0  0  0  0  0  0  0  0  0  0  0  0
  147.8998  135.8712  162.0552 C   0  0  1  0  0  0  0  0  0  0  0  0
  147.7718  136.7033  163.3475 C   0  0  0  0  0  0  0  0  0  0  0  0
  147.0219  134.7074  162.0533 N   0  0  0  0  0  0  0  0  0  0  0  0
  146.9342  133.7024  161.1789 C   0  0  0  0  0  0  0  0  0  0  0  0
  145.9823  132.8239  161.4605 N   0  0  0  0  0  0  0  0  0  0  0  0
  145.4750  133.3933  162.5938 C   0  0  0  0  0  0  0  0  0  0  0  0
  146.0536  134.5281  162.9864 N   0  0  0  0  0  0  0  0  0  0  0  0
  150.0233  138.2510  156.6405 N   0  0  0  0  0  0  0  0  0  0  0  0
  149.8085  139.6987  156.7494 C   0  0  0  0  0  0  0  0  0  0  0  0
  149.6256  140.3584  155.3717 C   0  0  0  0  0  0  0  0  0  0  0  0
  150.7545  140.0795  154.5520 O   0  0  0  0  0  0  0  0  0  0  0  0
  150.9665  138.6839  154.3760 C   0  0  0  0  0  0  0  0  0  0  0  0
  151.1636  138.0146  155.7465 C   0  0  0  0  0  0  0  0  0  0  0  0
  153.1725  138.7388  159.1597 H   0  0  0  0  0  0  0  0  0  0  0  0
  152.6223  138.8345  157.4958 H   0  0  0  0  0  0  0  0  0  0  0  0
  152.9612  137.2669  158.2276 H   0  0  0  0  0  0  0  0  0  0  0  0
  151.1061  137.6230  159.8584 H   0  0  0  0  0  0  0  0  0  0  0  0
  150.7533  139.1718  159.1928 H   0  0  0  0  0  0  0  0  0  0  0  0
  150.8180  135.5637  158.6512 H   0  0  0  0  0  0  0  0  0  0  0  0
  151.4371  136.0174  157.0742 H   0  0  0  0  0  0  0  0  0  0  0  0
  149.7893  135.4341  157.2474 H   0  0  0  0  0  0  0  0  0  0  0  0
  148.2715  138.4610  158.7874 H   0  0  0  0  0  0  0  0  0  0  0  0
  147.9436  136.9580  157.9833 H   0  0  0  0  0  0  0  0  0  0  0  0
  149.4830  136.1709  160.0932 H   0  0  0  0  0  0  0  0  0  0  0  0
  148.9244  135.4969  162.0169 H   0  0  0  0  0  0  0  0  0  0  0  0
  148.4749  137.5370  163.3472 H   0  0  0  0  0  0  0  0  0  0  0  0
  147.9888  136.0941  164.2253 H   0  0  0  0  0  0  0  0  0  0  0  0
  146.7708  137.1183  163.4729 H   0  0  0  0  0  0  0  0  0  0  0  0
  147.5781  133.6129  160.3163 H   0  0  0  0  0  0  0  0  0  0  0  0
  144.6513  132.9617  163.1429 H   0  0  0  0  0  0  0  0  0  0  0  0
  148.9221  139.9187  157.3419 H   0  0  0  0  0  0  0  0  0  0  0  0
  150.6525  140.1703  157.2524 H   0  0  0  0  0  0  0  0  0  0  0  0
  148.7171  139.9960  154.8879 H   0  0  0  0  0  0  0  0  0  0  0  0
  149.5222  141.4382  155.4792 H   0  0  0  0  0  0  0  0  0  0  0  0
  150.1194  138.2419  153.8489 H   0  0  0  0  0  0  0  0  0  0  0  0
  151.8467  138.5334  153.7508 H   0  0  0  0  0  0  0  0  0  0  0  0
  152.0803  138.4000  156.1924 H   0  0  0  0  0  0  0  0  0  0  0  0
  151.3169  136.9504  155.5785 H   0  0  0  0  0  0  0  0  0  0  0  0
  1  2  1  0  0  0  0
  1 22  1  0  0  0  0
  1 23  1  0  0  0  0
  1 24  1  0  0  0  0
  2  3  1  0  0  0  0
  2 25  1  0  0  0  0
  2 26  1  0  0  0  0
  3  4  1  0  0  0  0
  3  5  1  0  0  0  0
  3 16  1  0  0  0  0
  4 27  1  0  0  0  0
  4 28  1  0  0  0  0
  4 29  1  0  0  0  0
  5  6  1  0  0  0  0
  5 30  1  0  0  0  0
  5 31  1  0  0  0  0
  6  7  1  0  0  0  0
  6 32  1  0  0  0  0
  7  8  2  0  0  0  0
  7  9  1  0  0  0  0
  9 10  1  0  0  0  0
  9 11  1  0  0  0  0
  9 33  1  0  0  0  0
 10 34  1  0  0  0  0
 10 35  1  0  0  0  0
 10 36  1  0  0  0  0
 11 15  1  0  0  0  0
 11 12  1  0  0  0  0
 12 13  2  0  0  0  0
 12 37  1  0  0  0  0
 13 14  1  0  0  0  0
 14 15  2  0  0  0  0
 14 38  1  0  0  0  0
 16 21  1  0  0  0  0
 16 17  1  0  0  0  0
 17 18  1  0  0  0  0
 17 39  1  0  0  0  0
 17 40  1  0  0  0  0
 18 19  1  0  0  0  0
 18 41  1  0  0  0  0
 18 42  1  0  0  0  0
 19 20  1  0  0  0  0
 20 21  1  0  0  0  0
 20 43  1  0  0  0  0
 20 44  1  0  0  0  0
 21 45  1  0  0  0  0
 21 46  1  0  0  0  0
M  END
> <s_m_source_file>
AV-unprocessed.smi

> <i_m_source_file_index>
1285

> <i_lp_mmshare_version>
43012

> <i_f3d_flags>
0

> <s_epik_input>
W0NIMl0xW0NIMl1PW0NIMl1bQ0gyXU4xW0NAQF0oW0NIM10pKFtDSDJdW0NIM10pW0NIMl1bTkhdQyg9TylbQ0BIXShbQ0gzXSluMltjSF1uW2NIXW4y

> <s_epik_cmdline>
J2VwaWtfcHl0aG9uJywgJy1waCcsICc3LjAnLCAnLXRuJywgJzgnLCAnLW1hJywgJzIwMCcsICctbWV0YWxfYmluZGluZycsICctaW1hZScsICc8aW5maWxlLm1hZT4nLCAnLW9tYWUnLCAnPG91dGZpbGUubWFlPic=

> <r_lp_tautomer_probability>
1

> <r_epik_Ionization_Penalty>
0.285697

> <r_epik_Ionization_Penalty_Charging>
0

> <r_epik_Ionization_Penalty_Neutral>
0.285697

> <r_epik_State_Penalty>
0.278478

> <r_epik_Charging_Adjusted_Penalty>
0.278478

> <i_epik_Tot_Q>
0

> <i_epik_Tot_abs_Q>
0

> <r_epik_Metal_State_Penalty>
0.278477

> <b_epik_Metal_Only>
0

> <s_lp_Force_Field>
OPLS_2005

> <r_lp_Energy>
48.702

> <b_lp_Chiralities_Consistent>
1

> <s_lp_Variant>
AV-unprocessed.smi:1285-3

> <Gold.Version>
5.8.1

> <Gold.Id.Protein>
6NUR|6NUR_protein|mol2

> <Gold.PLP.Fitness>
36.8843

> <Gold.PLP.PLP>
-31.7080

> <Gold.PLP.part.hbond>
-2.5924

> <Gold.PLP.part.metal>
0.0000

> <Gold.PLP.part.buried>
-5.4881

> <Gold.PLP.part.nonpolar>
-25.2651

> <Gold.PLP.part.repulsive>
0.3491

> <Gold.PLP.ligand.clash>
0.0000

> <Gold.PLP.ligand.torsion>
0.5361

> <Gold.PLP.Chemscore.Hbond>
2.0000

> <Gold.PLP.Chemscore.CHOScore>
0.0000

> <Gold.PLP.Chemscore.Metal>
0.0000

> <Gold.Chemscore.Hbonds>
donor molecule, donor type, donor heavy atom, donor atom, acceptor molecule, acceptor atom, score
      P1  H  6934  6947       L1     8  1.00
      P1  H  7989  7998       L1    19  1.00

> <Gold.PLP.Chemscore.Internal.Correction>
0.2486

> <Gold.Rescore>
     Score         DG    S(hbond)    S(metal)    S(lipo)     H(rot)  DE(clash)    DE(int)     intcor
     10.98     -12.12       1.89        0.00      61.46       2.68       0.24       0.90       ----

> <Gold.Chemscore.Fitness>
10.9807

> <Gold.Chemscore.DG>
-12.1202

> <Gold.Chemscore.ZeroCoef>
-5.4800

> <Gold.Chemscore.Hbond>
1.8910

> <Gold.Chemscore.Metal>
0.0000

> <Gold.Chemscore.Lipo>
61.4581

> <Gold.Chemscore.Internal_Hbond>
0.0000

> <Gold.Chemscore.DEClash>
0.2417

> <Gold.Chemscore.DEInternal>
0.8979

> <Gold.Chemscore.Rot>
2.6821

> <Gold.Chemscore.Internal.Correction>
   9.000000E+99

> <Gold.Chemscore.Hbonds>
donor molecule, donor type, donor heavy atom, donor atom, acceptor molecule, acceptor atom, score
      P1  H  6934  6947       L1     8  0.35
      P1  H  7989  7998       L1    19  0.68

> <Gold.Chemscore.Hbond.Weighted>
-6.3158

> <Gold.Chemscore.Metal.Weighted>
-0.0000

> <Gold.Chemscore.Lipo.Weighted>
-7.1906

> <Gold.Chemscore.Internal_Hbond.Weighted>
0.0000

> <Gold.Chemscore.DEClash.Weighted>
0.2417

> <Gold.Chemscore.DEInternal.Weighted>
0.8979

> <Gold.Chemscore.Rot.Weighted>
6.8661

> <Gold.Chemscore.Internal.Correction.Weighted>
   9.000000E+99

> <Gold.Protein.RotatedTorsions>
[ 6907 6896 6895 6894 ] final  -55.13 input  -60.11 | X-H torsion
[ 7974 7965 7964 7962 ] final   77.83 input  175.53 | X-H torsion
[ 8008 7997 7996 7995 ] final -168.27 input   59.86 | X-H torsion
[ 10167 10162 10161 10158 ] final  -27.78 input  -65.29 | X-H torsion
[ 10718 10713 10712 10709 ] final  -47.55 input   66.30 | X-H torsion
[ 10763 10752 10751 10750 ] final  -74.27 input  -60.55 | X-H torsion
[ 11005 11000 10999 10996 ] final   -3.61 input  -57.11 | X-H torsion

> <Gold.Protein.ActiveResidues>
 VAL166  LYS551  ARG553  GLY616  TRP617  ASP618  TYR619  PRO620  LYS621  CYS622 
 ASP623  PHE694  ASN695  SER759  ASP760  ASP761  ALA762  ILE779  LEU786  VAL792 
 PHE793  MET794  SER795  GLU796  ALA797  LYS798  CYS799  TRP800  GLU811  SER814 

> <Gold.Protein.RotatedAtoms>
  150.8277  134.7516  159.6827 H   0  0  0  0  0  0  0  0  0  0  0  0  # atno 6907 bound_to 6896
  152.4386  134.5633  159.9910 H   0  0  0  0  0  0  0  0  0  0  0  0  # atno 6908 bound_to 6896
  151.5801  133.3341  159.3042 H   0  0  0  0  0  0  0  0  0  0  0  0  # atno 6909 bound_to 6896
  145.6850  139.2535  143.1792 H   0  0  0  0  0  0  0  0  0  0  0  0  # atno 7974 bound_to 7965
  155.8892  140.1022  157.1431 H   0  0  0  0  0  0  0  0  0  0  0  0  # atno 8008 bound_to 7997
  154.4013  140.1314  156.4358 H   0  0  0  0  0  0  0  0  0  0  0  0  # atno 8009 bound_to 7997
  155.7554  140.3464  155.5173 H   0  0  0  0  0  0  0  0  0  0  0  0  # atno 8010 bound_to 7997
  140.7275  143.4064  151.1177 H   0  0  0  0  0  0  0  0  0  0  0  0  # atno 10167 bound_to 10162
  156.2073  130.4159  149.9161 H   0  0  0  0  0  0  0  0  0  0  0  0  # atno 10718 bound_to 10713
  154.4708  135.5870  153.6320 H   0  0  0  0  0  0  0  0  0  0  0  0  # atno 10763 bound_to 10752
  152.9834  135.6066  154.3369 H   0  0  0  0  0  0  0  0  0  0  0  0  # atno 10764 bound_to 10752
  154.3251  135.2843  155.2479 H   0  0  0  0  0  0  0  0  0  0  0  0  # atno 10765 bound_to 10752
  140.6712  133.9235  155.8496 H   0  0  0  0  0  0  0  0  0  0  0  0  # atno 11005 bound_to 11000
  146.0932  140.7632  142.9585 LP  0  0  0  0  0  0  0  0  0  0  0  0  # atno 17320 bound_to 7965
  144.7014  140.3669  143.7153 LP  0  0  0  0  0  0  0  0  0  0  0  0  # atno 17321 bound_to 7965
  139.7692  143.8520  152.3117 LP  0  0  0  0  0  0  0  0  0  0  0  0  # atno 17342 bound_to 10162
  139.8432  144.7200  150.9305 LP  0  0  0  0  0  0  0  0  0  0  0  0  # atno 17343 bound_to 10162
  156.6851  130.8873  151.3581 LP  0  0  0  0  0  0  0  0  0  0  0  0  # atno 17370 bound_to 10713
  157.7019  130.9343  150.0812 LP  0  0  0  0  0  0  0  0  0  0  0  0  # atno 17371 bound_to 10713
  141.0391  134.0648  157.3924 LP  0  0  0  0  0  0  0  0  0  0  0  0  # atno 17394 bound_to 11000
  139.8981  135.0153  156.7132 LP  0  0  0  0  0  0  0  0  0  0  0  0  # atno 17395 bound_to 11000

$$$$
