AV-unprocessed.smi:887|AV-procd|sdf|4052|dock7
  -GOLD-   22720 1543D 1   1.00000     0.00000
 Structure written by MMmdl.
 31 32  0  0  0  0  0  0  0  0  1 V2000
  149.2815  136.2795  154.9907 C   0  0  0  0  0  0  0  0  0  0  0  0
  150.2808  137.3298  154.8676 N   0  0  0  0  0  0  0  0  0  0  0  0
  151.5084  137.2706  155.4047 C   0  0  0  0  0  0  0  0  0  0  0  0
  151.9123  136.3112  156.0621 O   0  0  0  0  0  0  0  0  0  0  0  0
  152.4220  138.4746  155.1633 C   0  0  0  0  0  0  0  0  0  0  0  0
  151.8258  139.7184  155.7410 C   0  0  0  0  0  0  0  0  0  0  0  0
  150.8784  140.3929  155.0995 N   0  0  0  0  0  0  0  0  0  0  0  0
  150.6168  141.4741  155.9528 O   0  0  0  0  0  0  0  0  0  0  0  0
  151.4230  141.3037  157.0289 C   0  0  0  0  0  0  0  0  0  0  0  0
  151.4397  142.3604  158.0891 C   0  0  2  0  0  0  0  0  0  0  0  0
  151.7104  143.7612  157.4984 C   0  0  0  0  0  0  0  0  0  0  0  0
  152.0276  144.7957  158.5644 C   0  0  0  0  0  0  0  0  0  0  0  0
  152.3052  144.4866  159.8425 C   0  0  0  0  0  0  0  0  0  0  0  0
  152.3452  143.0638  160.3685 C   0  0  0  0  0  0  0  0  0  0  0  0
  152.4172  142.0266  159.2329 C   0  0  0  0  0  0  0  0  0  0  0  0
  152.2294  140.2483  156.9286 N   0  0  0  0  0  0  0  0  0  0  0  0
  148.3621  136.5809  154.4887 H   0  0  0  0  0  0  0  0  0  0  0  0
  149.0494  136.0834  156.0383 H   0  0  0  0  0  0  0  0  0  0  0  0
  149.6330  135.3543  154.5325 H   0  0  0  0  0  0  0  0  0  0  0  0
  150.0239  138.1530  154.3418 H   0  0  0  0  0  0  0  0  0  0  0  0
  153.3929  138.2855  155.6227 H   0  0  0  0  0  0  0  0  0  0  0  0
  152.5997  138.6146  154.0959 H   0  0  0  0  0  0  0  0  0  0  0  0
  150.4406  142.3804  158.5272 H   0  0  0  0  0  0  0  0  0  0  0  0
  152.5645  143.7268  156.8213 H   0  0  0  0  0  0  0  0  0  0  0  0
  150.8536  144.0924  156.9112 H   0  0  0  0  0  0  0  0  0  0  0  0
  152.0290  145.8296  158.2515 H   0  0  0  0  0  0  0  0  0  0  0  0
  152.5027  145.2745  160.5544 H   0  0  0  0  0  0  0  0  0  0  0  0
  153.2038  142.9483  161.0306 H   0  0  0  0  0  0  0  0  0  0  0  0
  151.4526  142.9013  160.9735 H   0  0  0  0  0  0  0  0  0  0  0  0
  152.2096  141.0337  159.6336 H   0  0  0  0  0  0  0  0  0  0  0  0
  153.4346  141.9935  158.8402 H   0  0  0  0  0  0  0  0  0  0  0  0
  1  2  1  0  0  0  0
  1 17  1  0  0  0  0
  1 18  1  0  0  0  0
  1 19  1  0  0  0  0
  2  3  1  0  0  0  0
  2 20  1  0  0  0  0
  3  4  2  0  0  0  0
  3  5  1  0  0  0  0
  5  6  1  0  0  0  0
  5 21  1  0  0  0  0
  5 22  1  0  0  0  0
  6 16  1  0  0  0  0
  6  7  2  0  0  0  0
  7  8  1  0  0  0  0
  8  9  1  0  0  0  0
  9 10  1  0  0  0  0
  9 16  2  0  0  0  0
 10 15  1  0  0  0  0
 10 11  1  0  0  0  0
 10 23  1  0  0  0  0
 11 12  1  0  0  0  0
 11 24  1  0  0  0  0
 11 25  1  0  0  0  0
 12 13  2  0  0  0  0
 12 26  1  0  0  0  0
 13 14  1  0  0  0  0
 13 27  1  0  0  0  0
 14 15  1  0  0  0  0
 14 28  1  0  0  0  0
 14 29  1  0  0  0  0
 15 30  1  0  0  0  0
 15 31  1  0  0  0  0
M  END
> <s_m_source_file>
AV-unprocessed.smi

> <i_m_source_file_index>
887

> <i_lp_mmshare_version>
43012

> <i_f3d_flags>
0

> <s_epik_input>
W0NIM11bTkhdQyg9TylbQ0gyXWMxbm9jKG4xKVtDQEBIXTJbQ0gyXVtDSF09W0NIXVtDSDJdW0NIMl0y

> <s_epik_cmdline>
J2VwaWtfcHl0aG9uJywgJy1waCcsICc3LjAnLCAnLXRuJywgJzgnLCAnLW1hJywgJzIwMCcsICctbWV0YWxfYmluZGluZycsICctaW1hZScsICc8aW5maWxlLm1hZT4nLCAnLW9tYWUnLCAnPG91dGZpbGUubWFlPic=

> <r_lp_tautomer_probability>
1

> <r_epik_Ionization_Penalty>
1.02915e-07

> <r_epik_Ionization_Penalty_Charging>
0

> <r_epik_Ionization_Penalty_Neutral>
1.02915e-07

> <r_epik_State_Penalty>
-0

> <r_epik_Charging_Adjusted_Penalty>
0

> <i_epik_Tot_Q>
0

> <i_epik_Tot_abs_Q>
0

> <r_epik_Metal_State_Penalty>
-0

> <b_epik_Metal_Only>
0

> <s_lp_Force_Field>
OPLS_2005

> <r_lp_Energy>
6.3781

> <b_lp_Chiralities_Consistent>
1

> <s_lp_Variant>
AV-unprocessed.smi:887-1

> <Gold.Version>
5.8.1

> <Gold.Id.Protein>
6NUR|6NUR_protein|mol2

> <Gold.PLP.Fitness>
43.1620

> <Gold.PLP.PLP>
-34.9996

> <Gold.PLP.part.hbond>
-3.0000

> <Gold.PLP.part.metal>
0.0000

> <Gold.PLP.part.buried>
-2.6472

> <Gold.PLP.part.nonpolar>
-29.2700

> <Gold.PLP.part.repulsive>
0.1897

> <Gold.PLP.ligand.clash>
0.0000

> <Gold.PLP.ligand.torsion>
0.3261

> <Gold.PLP.Chemscore.Hbond>
2.9027

> <Gold.PLP.Chemscore.CHOScore>
0.0000

> <Gold.PLP.Chemscore.Metal>
0.0000

> <Gold.Chemscore.Hbonds>
donor molecule, donor type, donor heavy atom, donor atom, acceptor molecule, acceptor atom, score
      P1  H  7989  7998       L1     7  1.00
      P1  H  7997  8009       L1    16  0.61
      P1  H 10752 10765       L1     4  1.00

> <Gold.PLP.Chemscore.Internal.Correction>
0.1064

> <Gold.Rescore>
     Score         DG    S(hbond)    S(metal)    S(lipo)     H(rot)  DE(clash)    DE(int)     intcor
     16.11     -16.48       1.63        0.00      83.22       1.63       0.02       0.35       ----

> <Gold.Chemscore.Fitness>
16.1146

> <Gold.Chemscore.DG>
-16.4769

> <Gold.Chemscore.ZeroCoef>
-5.4800

> <Gold.Chemscore.Hbond>
1.6275

> <Gold.Chemscore.Metal>
0.0000

> <Gold.Chemscore.Lipo>
83.2203

> <Gold.Chemscore.Internal_Hbond>
0.0000

> <Gold.Chemscore.DEClash>
0.0164

> <Gold.Chemscore.DEInternal>
0.3460

> <Gold.Chemscore.Rot>
1.6312

> <Gold.Chemscore.Internal.Correction>
   9.000000E+99

> <Gold.Chemscore.Hbonds>
donor molecule, donor type, donor heavy atom, donor atom, acceptor molecule, acceptor atom, score
      P1  H  7989  7998       L1     7  0.43
      P1  H  7997  8009       L1    16  0.11
      P1  H 10752 10765       L1     4  0.75

> <Gold.Chemscore.Hbond.Weighted>
-5.4359

> <Gold.Chemscore.Metal.Weighted>
-0.0000

> <Gold.Chemscore.Lipo.Weighted>
-9.7368

> <Gold.Chemscore.Internal_Hbond.Weighted>
0.0000

> <Gold.Chemscore.DEClash.Weighted>
0.0164

> <Gold.Chemscore.DEInternal.Weighted>
0.3460

> <Gold.Chemscore.Rot.Weighted>
4.1758

> <Gold.Chemscore.Internal.Correction.Weighted>
   9.000000E+99

> <Gold.Protein.RotatedTorsions>
[ 6907 6896 6895 6894 ] final  163.92 input  -60.11 | X-H torsion
[ 7974 7965 7964 7962 ] final   68.07 input  175.53 | X-H torsion
[ 8008 7997 7996 7995 ] final -178.42 input   59.86 | X-H torsion
[ 10167 10162 10161 10158 ] final -135.82 input  -65.29 | X-H torsion
[ 10718 10713 10712 10709 ] final  143.59 input   66.30 | X-H torsion
[ 10763 10752 10751 10750 ] final -136.07 input  -60.55 | X-H torsion
[ 11005 11000 10999 10996 ] final  -50.43 input  -57.11 | X-H torsion

> <Gold.Protein.ActiveResidues>
 VAL166  LYS551  ARG553  GLY616  TRP617  ASP618  TYR619  PRO620  LYS621  CYS622 
 ASP623  PHE694  ASN695  SER759  ASP760  ASP761  ALA762  ILE779  LEU786  VAL792 
 PHE793  MET794  SER795  GLU796  ALA797  LYS798  CYS799  TRP800  GLU811  SER814 

> <Gold.Protein.RotatedAtoms>
  151.9179  133.3578  159.3886 H   0  0  0  0  0  0  0  0  0  0  0  0  # atno 6907 bound_to 6896
  150.7043  134.4665  159.5414 H   0  0  0  0  0  0  0  0  0  0  0  0  # atno 6908 bound_to 6896
  152.2283  134.8346  160.0528 H   0  0  0  0  0  0  0  0  0  0  0  0  # atno 6909 bound_to 6896
  145.8070  139.3012  143.1121 H   0  0  0  0  0  0  0  0  0  0  0  0  # atno 7974 bound_to 7965
  156.0186  140.1256  157.0381 H   0  0  0  0  0  0  0  0  0  0  0  0  # atno 8008 bound_to 7997
  154.4303  140.1073  156.6001 H   0  0  0  0  0  0  0  0  0  0  0  0  # atno 8009 bound_to 7997
  155.5977  140.3470  155.4587 H   0  0  0  0  0  0  0  0  0  0  0  0  # atno 8010 bound_to 7997
  139.8740  143.6922  152.2636 H   0  0  0  0  0  0  0  0  0  0  0  0  # atno 10167 bound_to 10162
  157.3671  131.0973  151.0862 H   0  0  0  0  0  0  0  0  0  0  0  0  # atno 10718 bound_to 10713
  154.8691  135.3684  154.5001 H   0  0  0  0  0  0  0  0  0  0  0  0  # atno 10763 bound_to 10752
  153.5642  135.7022  153.5538 H   0  0  0  0  0  0  0  0  0  0  0  0  # atno 10764 bound_to 10752
  153.3600  135.4049  155.1675 H   0  0  0  0  0  0  0  0  0  0  0  0  # atno 10765 bound_to 10752
  141.0815  133.6652  156.3729 H   0  0  0  0  0  0  0  0  0  0  0  0  # atno 11005 bound_to 11000
  145.9818  140.8676  143.0111 LP  0  0  0  0  0  0  0  0  0  0  0  0  # atno 17320 bound_to 7965
  144.6762  140.2090  143.7379 LP  0  0  0  0  0  0  0  0  0  0  0  0  # atno 17321 bound_to 7965
  139.7257  144.7593  151.0882 LP  0  0  0  0  0  0  0  0  0  0  0  0  # atno 17342 bound_to 10162
  140.7756  143.5150  150.9605 LP  0  0  0  0  0  0  0  0  0  0  0  0  # atno 17343 bound_to 10162
  157.1980  130.6382  149.5728 LP  0  0  0  0  0  0  0  0  0  0  0  0  # atno 17370 bound_to 10713
  155.9748  130.4700  150.6415 LP  0  0  0  0  0  0  0  0  0  0  0  0  # atno 17371 bound_to 10713
  140.5457  134.6076  157.5393 LP  0  0  0  0  0  0  0  0  0  0  0  0  # atno 17394 bound_to 11000
  139.9629  134.7421  156.0198 LP  0  0  0  0  0  0  0  0  0  0  0  0  # atno 17395 bound_to 11000

$$$$
