AV-unprocessed.smi:511|AV-procd|sdf|2766|dock6
  -GOLD-   2262023233D 1   1.00000     0.00000
 Structure written by MMmdl.
 45 47  0  0  0  0  0  0  0  0  3 V2000
  149.0206  141.2013  158.0393 C   0  0  0  0  0  0  0  0  0  0  0  0
  149.0381  140.6194  156.7478 O   0  0  0  0  0  0  0  0  0  0  0  0
  149.6930  141.4383  155.7941 C   0  0  0  0  0  0  0  0  0  0  0  0
  149.3543  140.9305  154.3870 C   0  0  0  0  0  0  0  0  0  0  0  0
  149.4476  139.4743  154.3076 N   0  0  0  0  0  0  0  0  0  0  0  0
  148.4964  138.5866  153.9115 C   0  0  0  0  0  0  0  0  0  0  0  0
  147.2486  138.9963  153.4416 N   0  0  0  0  0  0  0  0  0  0  0  0
  146.9458  139.3024  152.0450 C   0  0  0  0  0  0  0  0  0  0  0  0
  146.1992  138.1392  151.3655 C   0  0  0  0  0  0  0  0  0  0  0  0
  144.9632  137.7928  152.1074 N   0  3  0  0  0  0  0  0  0  0  0  0
  144.2144  136.6830  151.4803 C   0  0  0  0  0  0  0  0  0  0  0  0
  145.2313  137.5604  153.5465 C   0  0  0  0  0  0  0  0  0  0  0  0
  145.9986  138.7480  154.1531 C   0  0  0  0  0  0  0  0  0  0  0  0
  148.8461  137.3041  154.0260 N   0  0  0  0  0  0  0  0  0  0  0  0
  150.1446  137.3794  154.5069 C   0  0  0  0  0  0  0  0  0  0  0  0
  150.5292  138.6718  154.6844 C   0  0  0  0  0  0  0  0  0  0  0  0
  151.8545  139.0714  155.2065 C   0  0  0  0  0  0  0  0  0  0  0  0
  152.1437  140.2559  155.3624 O   0  0  0  0  0  0  0  0  0  0  0  0
  152.6532  137.9894  155.4713 N   0  5  0  0  0  0  0  0  0  0  0  0
  152.3077  136.6659  155.3014 C   0  0  0  0  0  0  0  0  0  0  0  0
  153.0897  135.7508  155.5620 O   0  0  0  0  0  0  0  0  0  0  0  0
  151.0623  136.3428  154.8292 N   0  0  0  0  0  0  0  0  0  0  0  0
  150.6651  134.9442  154.6434 C   0  0  0  0  0  0  0  0  0  0  0  0
  148.5047  140.5375  158.7329 H   0  0  0  0  0  0  0  0  0  0  0  0
  148.4951  142.1574  158.0350 H   0  0  0  0  0  0  0  0  0  0  0  0
  150.0327  141.3596  158.4138 H   0  0  0  0  0  0  0  0  0  0  0  0
  149.3761  142.4755  155.9115 H   0  0  0  0  0  0  0  0  0  0  0  0
  150.7721  141.4041  155.9539 H   0  0  0  0  0  0  0  0  0  0  0  0
  148.3546  141.2636  154.1219 H   0  0  0  0  0  0  0  0  0  0  0  0
  150.0153  141.3735  153.6429 H   0  0  0  0  0  0  0  0  0  0  0  0
  146.3568  140.2190  151.9944 H   0  0  0  0  0  0  0  0  0  0  0  0
  147.8685  139.4882  151.4953 H   0  0  0  0  0  0  0  0  0  0  0  0
  145.9477  138.4103  150.3396 H   0  0  0  0  0  0  0  0  0  0  0  0
  146.8493  137.2638  151.3151 H   0  0  0  0  0  0  0  0  0  0  0  0
  144.7980  135.7616  151.4896 H   0  0  0  0  0  0  0  0  0  0  0  0
  143.9683  136.9223  150.4453 H   0  0  0  0  0  0  0  0  0  0  0  0
  143.2798  136.5013  152.0116 H   0  0  0  0  0  0  0  0  0  0  0  0
  144.2893  137.4188  154.0771 H   0  0  0  0  0  0  0  0  0  0  0  0
  145.8092  136.6425  153.6679 H   0  0  0  0  0  0  0  0  0  0  0  0
  146.2118  138.5544  155.2051 H   0  0  0  0  0  0  0  0  0  0  0  0
  145.3852  139.6497  154.1244 H   0  0  0  0  0  0  0  0  0  0  0  0
  150.7609  134.3904  155.5784 H   0  0  0  0  0  0  0  0  0  0  0  0
  151.2992  134.4647  153.8966 H   0  0  0  0  0  0  0  0  0  0  0  0
  149.6323  134.8402  154.3113 H   0  0  0  0  0  0  0  0  0  0  0  0
  144.3674  138.6070  152.0592 H   0  0  0  0  0  0  0  0  0  0  0  0
  1  2  1  0  0  0  0
  1 24  1  0  0  0  0
  1 25  1  0  0  0  0
  1 26  1  0  0  0  0
  2  3  1  0  0  0  0
  3  4  1  0  0  0  0
  3 27  1  0  0  0  0
  3 28  1  0  0  0  0
  4  5  1  0  0  0  0
  4 29  1  0  0  0  0
  4 30  1  0  0  0  0
  5 16  1  0  0  0  0
  5  6  1  0  0  0  0
  6  7  1  0  0  0  0
  6 14  2  0  0  0  0
  7 13  1  0  0  0  0
  7  8  1  0  0  0  0
  8  9  1  0  0  0  0
  8 31  1  0  0  0  0
  8 32  1  0  0  0  0
  9 10  1  0  0  0  0
  9 33  1  0  0  0  0
  9 34  1  0  0  0  0
 10 11  1  0  0  0  0
 10 12  1  0  0  0  0
 10 45  1  0  0  0  0
 11 35  1  0  0  0  0
 11 36  1  0  0  0  0
 11 37  1  0  0  0  0
 12 13  1  0  0  0  0
 12 38  1  0  0  0  0
 12 39  1  0  0  0  0
 13 40  1  0  0  0  0
 13 41  1  0  0  0  0
 14 15  1  0  0  0  0
 15 22  1  0  0  0  0
 15 16  2  0  0  0  0
 16 17  1  0  0  0  0
 17 18  2  0  0  0  0
 17 19  1  0  0  0  0
 19 20  1  0  0  0  0
 20 21  2  0  0  0  0
 20 22  1  0  0  0  0
 22 23  1  0  0  0  0
 23 42  1  0  0  0  0
 23 43  1  0  0  0  0
 23 44  1  0  0  0  0
M  CHG  1  10   1
M  CHG  1  19  -1
M  END
> <s_m_source_file>
AV-unprocessed.smi

> <i_m_source_file_index>
511

> <i_lp_mmshare_version>
43012

> <i_f3d_flags>
0

> <s_epik_input>
W0NIM11uMWMoPU8pW25IXWMoPU8pYyhjMTIpbihbQ0gyXVtDSDJdT1tDSDNdKWMobjIpTjNbQ0gyXVtDSDJdTihbQ0gzXSlbQ0gyXVtDSDJdMw==

> <s_epik_cmdline>
J2VwaWtfcHl0aG9uJywgJy1waCcsICc3LjAnLCAnLXRuJywgJzgnLCAnLW1hJywgJzIwMCcsICctbWV0YWxfYmluZGluZycsICctaW1hZScsICc8aW5maWxlLm1hZT4nLCAnLW9tYWUnLCAnPG91dGZpbGUubWFlPic=

> <r_epik_Ionization_Penalty>
5.9833

> <r_epik_Ionization_Penalty_Charging>
0.125752

> <r_epik_Ionization_Penalty_Neutral>
5.85754

> <r_epik_State_Penalty>
5.9139

> <r_epik_Charging_Adjusted_Penalty>
6.03966

> <i_epik_Tot_Q>
0

> <i_epik_Tot_abs_Q>
2

> <r_epik_Metal_State_Penalty>
1.87741

> <b_epik_Metal_Only>
1

> <s_lp_Force_Field>
OPLS_2005

> <r_lp_Energy>
51.0512

> <b_lp_Chiralities_Consistent>
1

> <s_lp_Variant>
AV-unprocessed.smi:511-3

> <Gold.Version>
5.8.1

> <Gold.Id.Protein>
6NUR|6NUR_protein|mol2

> <Gold.PLP.Fitness>
39.3495

> <Gold.PLP.PLP>
-30.1989

> <Gold.PLP.part.hbond>
-3.7633

> <Gold.PLP.part.metal>
0.0000

> <Gold.PLP.part.buried>
2.5769

> <Gold.PLP.part.nonpolar>
-29.0644

> <Gold.PLP.part.repulsive>
0.5944

> <Gold.PLP.ligand.clash>
0.0000

> <Gold.PLP.ligand.torsion>
1.5285

> <Gold.PLP.Chemscore.Hbond>
3.8825

> <Gold.PLP.Chemscore.CHOScore>
0.0000

> <Gold.PLP.Chemscore.Metal>
0.0000

> <Gold.Chemscore.Hbonds>
donor molecule, donor type, donor heavy atom, donor atom, acceptor molecule, acceptor atom, score
      L1  H    10    45       P1 10175  2.00
      P1  H  7989  7998       L1    18  0.57
      P1  H  7997  8009       L1    18  0.23

> <Gold.PLP.Chemscore.Internal.Correction>
0.5601

> <Gold.Rescore>
     Score         DG    S(hbond)    S(metal)    S(lipo)     H(rot)  DE(clash)    DE(int)     intcor
     11.02     -14.40       2.07        0.00      49.77       1.49       0.77       2.61       ----

> <Gold.Chemscore.Fitness>
11.0234

> <Gold.Chemscore.DG>
-14.4015

> <Gold.Chemscore.ZeroCoef>
-5.4800

> <Gold.Chemscore.Hbond>
2.0710

> <Gold.Chemscore.Metal>
0.0000

> <Gold.Chemscore.Lipo>
49.7673

> <Gold.Chemscore.Internal_Hbond>
0.0000

> <Gold.Chemscore.DEClash>
0.7650

> <Gold.Chemscore.DEInternal>
2.6131

> <Gold.Chemscore.Rot>
1.4915

> <Gold.Chemscore.Internal.Correction>
   9.000000E+99

> <Gold.Chemscore.Hbonds>
donor molecule, donor type, donor heavy atom, donor atom, acceptor molecule, acceptor atom, score
      L1  H    10    45       P1 10175  0.96
      P1  H  7989  7998       L1    18  0.09
      P1  H  7997  8009       L1    18  0.10

> <Gold.Chemscore.Hbond.Weighted>
-6.9171

> <Gold.Chemscore.Metal.Weighted>
-0.0000

> <Gold.Chemscore.Lipo.Weighted>
-5.8228

> <Gold.Chemscore.Internal_Hbond.Weighted>
0.0000

> <Gold.Chemscore.DEClash.Weighted>
0.7650

> <Gold.Chemscore.DEInternal.Weighted>
2.6131

> <Gold.Chemscore.Rot.Weighted>
3.8183

> <Gold.Chemscore.Internal.Correction.Weighted>
   9.000000E+99

> <Gold.Protein.RotatedTorsions>
[ 6907 6896 6895 6894 ] final   22.62 input  -60.11 | X-H torsion
[ 7974 7965 7964 7962 ] final  -82.62 input  175.53 | X-H torsion
[ 8008 7997 7996 7995 ] final -143.39 input   59.86 | X-H torsion
[ 10167 10162 10161 10158 ] final   76.19 input  -65.29 | X-H torsion
[ 10718 10713 10712 10709 ] final  107.22 input   66.30 | X-H torsion
[ 10763 10752 10751 10750 ] final -114.42 input  -60.55 | X-H torsion
[ 11005 11000 10999 10996 ] final  -44.34 input  -57.11 | X-H torsion

> <Gold.Protein.ActiveResidues>
 VAL166  LYS551  ARG553  GLY616  TRP617  ASP618  TYR619  PRO620  LYS621  CYS622 
 ASP623  PHE694  ASN695  SER759  ASP760  ASP761  ALA762  ILE779  LEU786  VAL792 
 PHE793  MET794  SER795  GLU796  ALA797  LYS798  CYS799  TRP800  GLU811  SER814 

> <Gold.Protein.RotatedAtoms>
  151.9299  135.0261  160.0528 H   0  0  0  0  0  0  0  0  0  0  0  0  # atno 6907 bound_to 6896
  152.2128  133.4919  159.5127 H   0  0  0  0  0  0  0  0  0  0  0  0  # atno 6908 bound_to 6896
  150.6980  134.1362  159.4131 H   0  0  0  0  0  0  0  0  0  0  0  0  # atno 6909 bound_to 6896
  145.5309  140.9521  143.1604 H   0  0  0  0  0  0  0  0  0  0  0  0  # atno 7974 bound_to 7965
  155.5098  140.0582  157.2925 H   0  0  0  0  0  0  0  0  0  0  0  0  # atno 8008 bound_to 7997
  154.4556  140.1971  156.0338 H   0  0  0  0  0  0  0  0  0  0  0  0  # atno 8009 bound_to 7997
  156.0792  140.3249  155.7677 H   0  0  0  0  0  0  0  0  0  0  0  0  # atno 8010 bound_to 7997
  139.9949  144.5729  150.7786 H   0  0  0  0  0  0  0  0  0  0  0  0  # atno 10167 bound_to 10162
  157.6637  131.0868  150.6123 H   0  0  0  0  0  0  0  0  0  0  0  0  # atno 10718 bound_to 10713
  154.8439  135.4418  154.1503 H   0  0  0  0  0  0  0  0  0  0  0  0  # atno 10763 bound_to 10752
  153.2665  135.6941  153.7530 H   0  0  0  0  0  0  0  0  0  0  0  0  # atno 10764 bound_to 10752
  153.6787  135.3406  155.3148 H   0  0  0  0  0  0  0  0  0  0  0  0  # atno 10765 bound_to 10752
  141.0444  133.6767  156.2858 H   0  0  0  0  0  0  0  0  0  0  0  0  # atno 11005 bound_to 11000
  144.7626  139.6920  143.7228 LP  0  0  0  0  0  0  0  0  0  0  0  0  # atno 17320 bound_to 7965
  146.2045  139.5360  142.9722 LP  0  0  0  0  0  0  0  0  0  0  0  0  # atno 17321 bound_to 7965
  140.7441  143.2855  151.3475 LP  0  0  0  0  0  0  0  0  0  0  0  0  # atno 17342 bound_to 10162
  139.6313  144.0716  152.2478 LP  0  0  0  0  0  0  0  0  0  0  0  0  # atno 17343 bound_to 10162
  156.6425  130.4462  149.5747 LP  0  0  0  0  0  0  0  0  0  0  0  0  # atno 17370 bound_to 10713
  156.2198  130.6730  151.1357 LP  0  0  0  0  0  0  0  0  0  0  0  0  # atno 17371 bound_to 10713
  140.6175  134.5396  157.5543 LP  0  0  0  0  0  0  0  0  0  0  0  0  # atno 17394 bound_to 11000
  139.9300  134.7982  156.0958 LP  0  0  0  0  0  0  0  0  0  0  0  0  # atno 17395 bound_to 11000

$$$$
