AV-unprocessed.smi:2881|AV-procd|sdf|11067|dock10
  -GOLD-   2272015543D 1   1.00000     0.00000
 Structure written by MMmdl.
 40 42  0  0  0  0  0  0  0  0  1 V2000
  151.4248  145.4507  160.3072 C   0  0  0  0  0  0  0  0  0  0  0  0
  151.8210  144.0876  159.8217 C   0  0  0  0  0  0  0  0  0  0  0  0
  152.5048  143.0624  160.5386 C   0  0  0  0  0  0  0  0  0  0  0  0
  152.6143  142.0370  159.6415 C   0  0  0  0  0  0  0  0  0  0  0  0
  153.2227  140.6778  159.7680 C   0  0  0  0  0  0  0  0  0  0  0  0
  152.3970  139.6362  159.0133 C   0  0  0  0  0  0  0  0  0  0  0  0
  152.1186  138.5647  159.5506 O   0  0  0  0  0  0  0  0  0  0  0  0
  152.0066  139.9670  157.7723 N   0  0  0  0  0  0  0  0  0  0  0  0
  151.2193  139.1203  156.8748 C   0  0  2  0  0  0  0  0  0  0  0  0
  152.1554  138.2735  155.9857 C   0  0  1  0  0  0  0  0  0  0  0  0
  151.3431  137.1378  155.3367 C   0  0  0  0  0  0  0  0  0  0  0  0
  150.4888  137.8896  154.2981 C   0  0  0  0  0  0  0  0  0  0  0  0
  150.9236  139.3560  154.4923 C   0  0  2  0  0  0  0  0  0  0  0  0
  152.4073  139.1928  154.7966 C   0  0  0  0  0  0  0  0  0  0  0  0
  150.3530  139.8882  155.8301 C   0  0  2  0  0  0  0  0  0  0  0  0
  150.3682  141.4306  155.9310 C   0  0  0  0  0  0  0  0  0  0  0  0
  149.5304  141.9975  154.9456 O   0  0  0  0  0  0  0  0  0  0  0  0
  152.0152  142.4774  158.4825 N   0  0  0  0  0  0  0  0  0  0  0  0
  151.5286  143.7283  158.5806 N   0  0  0  0  0  0  0  0  0  0  0  0
  151.9333  141.9437  157.6288 H   0  0  0  0  0  0  0  0  0  0  0  0
  151.7012  145.5920  161.3523 H   0  0  0  0  0  0  0  0  0  0  0  0
  150.3478  145.5993  160.2266 H   0  0  0  0  0  0  0  0  0  0  0  0
  151.9147  146.2323  159.7263 H   0  0  0  0  0  0  0  0  0  0  0  0
  152.8620  143.0782  161.5578 H   0  0  0  0  0  0  0  0  0  0  0  0
  153.3103  140.3970  160.8187 H   0  0  0  0  0  0  0  0  0  0  0  0
  154.2360  140.6857  159.3651 H   0  0  0  0  0  0  0  0  0  0  0  0
  152.2799  140.8712  157.4163 H   0  0  0  0  0  0  0  0  0  0  0  0
  150.5912  138.4583  157.4743 H   0  0  0  0  0  0  0  0  0  0  0  0
  153.0533  137.9208  156.4951 H   0  0  0  0  0  0  0  0  0  0  0  0
  152.0014  136.4209  154.8442 H   0  0  0  0  0  0  0  0  0  0  0  0
  150.7365  136.5913  156.0597 H   0  0  0  0  0  0  0  0  0  0  0  0
  150.7245  137.5465  153.2899 H   0  0  0  0  0  0  0  0  0  0  0  0
  149.4190  137.7472  154.4552 H   0  0  0  0  0  0  0  0  0  0  0  0
  150.7010  139.9840  153.6293 H   0  0  0  0  0  0  0  0  0  0  0  0
  152.9048  140.1256  155.0648 H   0  0  0  0  0  0  0  0  0  0  0  0
  152.9642  138.7133  153.9895 H   0  0  0  0  0  0  0  0  0  0  0  0
  149.3147  139.5689  155.9349 H   0  0  0  0  0  0  0  0  0  0  0  0
  149.9972  141.7535  156.9040 H   0  0  0  0  0  0  0  0  0  0  0  0
  151.3758  141.8306  155.8166 H   0  0  0  0  0  0  0  0  0  0  0  0
  149.0839  142.7411  155.3208 H   0  0  0  0  0  0  0  0  0  0  0  0
  1 21  1  0  0  0  0
  1 22  1  0  0  0  0
  1 23  1  0  0  0  0
  1  2  1  0  0  0  0
  2 19  2  0  0  0  0
  2  3  1  0  0  0  0
  3  4  2  0  0  0  0
  3 24  1  0  0  0  0
  4 18  1  0  0  0  0
  4  5  1  0  0  0  0
  5  6  1  0  0  0  0
  5 25  1  0  0  0  0
  5 26  1  0  0  0  0
  6  7  2  0  0  0  0
  6  8  1  0  0  0  0
  8  9  1  0  0  0  0
  8 27  1  0  0  0  0
  9 15  1  0  0  0  0
  9 10  1  0  0  0  0
  9 28  1  0  0  0  0
 10 14  1  0  0  0  0
 10 11  1  0  0  0  0
 10 29  1  0  0  0  0
 11 12  1  0  0  0  0
 11 30  1  0  0  0  0
 11 31  1  0  0  0  0
 12 13  1  0  0  0  0
 12 32  1  0  0  0  0
 12 33  1  0  0  0  0
 13 14  1  0  0  0  0
 13 15  1  0  0  0  0
 13 34  1  0  0  0  0
 14 35  1  0  0  0  0
 14 36  1  0  0  0  0
 15 16  1  0  0  0  0
 15 37  1  0  0  0  0
 16 17  1  0  0  0  0
 16 38  1  0  0  0  0
 16 39  1  0  0  0  0
 17 40  1  0  0  0  0
 18 19  1  0  0  0  0
 18 20  1  0  0  0  0
M  END
> <s_m_source_file>
AV-unprocessed.smi

> <i_m_source_file_index>
2881

> <i_lp_mmshare_version>
43012

> <i_f3d_flags>
0

> <s_epik_input>
W0NIM11jMVtjSF1jKG5bbkhdMSlbQ0gyXUMoPU8pW05IXVtDQEhdKFtDQEBIXTIzKVtDQEhdKFtDSDJdW09IXSlbQ0BASF0oW0NIMl0zKVtDSDJdW0NIMl0y

> <s_epik_cmdline>
J2VwaWtfcHl0aG9uJywgJy1waCcsICc3LjAnLCAnLXRuJywgJzgnLCAnLW1hJywgJzIwMCcsICctbWV0YWxfYmluZGluZycsICctaW1hZScsICc8aW5maWxlLm1hZT4nLCAnLW9tYWUnLCAnPG91dGZpbGUubWFlPic=

> <r_lp_tautomer_probability>
0.5

> <r_epik_Ionization_Penalty>
0.00013396

> <r_epik_Ionization_Penalty_Charging>
0

> <r_epik_Ionization_Penalty_Neutral>
0.00013396

> <r_epik_State_Penalty>
0.41068

> <r_epik_Charging_Adjusted_Penalty>
0.41068

> <i_epik_Tot_Q>
0

> <i_epik_Tot_abs_Q>
0

> <r_epik_Metal_State_Penalty>
0.41066

> <b_epik_Metal_Only>
0

> <s_lp_Force_Field>
OPLS_2005

> <r_lp_Energy>
49.1739

> <b_lp_Chiralities_Consistent>
1

> <s_lp_Variant>
AV-unprocessed.smi:2881-13

> <Gold.Version>
5.8.1

> <Gold.Id.Protein>
6NUR|6NUR_protein|mol2

> <Gold.PLP.Fitness>
40.1974

> <Gold.PLP.PLP>
-38.8885

> <Gold.PLP.part.hbond>
-1.9637

> <Gold.PLP.part.metal>
0.0000

> <Gold.PLP.part.buried>
-2.4592

> <Gold.PLP.part.nonpolar>
-35.1096

> <Gold.PLP.part.repulsive>
0.2113

> <Gold.PLP.ligand.clash>
0.0000

> <Gold.PLP.ligand.torsion>
0.8573

> <Gold.PLP.Chemscore.Hbond>
1.0000

> <Gold.PLP.Chemscore.CHOScore>
0.0000

> <Gold.PLP.Chemscore.Metal>
0.0000

> <Gold.Chemscore.Hbonds>
donor molecule, donor type, donor heavy atom, donor atom, acceptor molecule, acceptor atom, score
      L1  H    17    40       P1  8028  1.00

> <Gold.PLP.Chemscore.Internal.Correction>
0.0235

> <Gold.Rescore>
     Score         DG    S(hbond)    S(metal)    S(lipo)     H(rot)  DE(clash)    DE(int)     intcor
     13.41     -15.36       1.00        0.00     105.82       2.28       0.11       1.84       ----

> <Gold.Chemscore.Fitness>
13.4148

> <Gold.Chemscore.DG>
-15.3643

> <Gold.Chemscore.ZeroCoef>
-5.4800

> <Gold.Chemscore.Hbond>
0.9966

> <Gold.Chemscore.Metal>
0.0000

> <Gold.Chemscore.Lipo>
105.8198

> <Gold.Chemscore.Internal_Hbond>
0.0000

> <Gold.Chemscore.DEClash>
0.1144

> <Gold.Chemscore.DEInternal>
1.8350

> <Gold.Chemscore.Rot>
2.2755

> <Gold.Chemscore.Internal.Correction>
   9.000000E+99

> <Gold.Chemscore.Hbonds>
donor molecule, donor type, donor heavy atom, donor atom, acceptor molecule, acceptor atom, score
      L1  H    17    40       P1  8028  0.92

> <Gold.Chemscore.Hbond.Weighted>
-3.3286

> <Gold.Chemscore.Metal.Weighted>
-0.0000

> <Gold.Chemscore.Lipo.Weighted>
-12.3809

> <Gold.Chemscore.Internal_Hbond.Weighted>
0.0000

> <Gold.Chemscore.DEClash.Weighted>
0.1144

> <Gold.Chemscore.DEInternal.Weighted>
1.8350

> <Gold.Chemscore.Rot.Weighted>
5.8252

> <Gold.Chemscore.Internal.Correction.Weighted>
   9.000000E+99

> <Gold.Protein.RotatedTorsions>
[ 6907 6896 6895 6894 ] final -103.89 input  -60.11 | X-H torsion
[ 7974 7965 7964 7962 ] final  -39.27 input  175.53 | X-H torsion
[ 8008 7997 7996 7995 ] final  132.97 input   59.86 | X-H torsion
[ 10167 10162 10161 10158 ] final  -38.04 input  -65.29 | X-H torsion
[ 10718 10713 10712 10709 ] final   72.94 input   66.30 | X-H torsion
[ 10763 10752 10751 10750 ] final  -70.53 input  -60.55 | X-H torsion
[ 11005 11000 10999 10996 ] final    1.28 input  -57.11 | X-H torsion

> <Gold.Protein.ActiveResidues>
 VAL166  LYS551  ARG553  GLY616  TRP617  ASP618  TYR619  PRO620  LYS621  CYS622 
 ASP623  PHE694  ASN695  SER759  ASP760  ASP761  ALA762  ILE779  LEU786  VAL792 
 PHE793  MET794  SER795  GLU796  ALA797  LYS798  CYS799  TRP800  GLU811  SER814 

> <Gold.Protein.RotatedAtoms>
  150.7261  134.0360  159.3749 H   0  0  0  0  0  0  0  0  0  0  0  0  # atno 6907 bound_to 6896
  151.8331  135.0612  160.0448 H   0  0  0  0  0  0  0  0  0  0  0  0  # atno 6908 bound_to 6896
  152.2918  133.5533  159.5599 H   0  0  0  0  0  0  0  0  0  0  0  0  # atno 6909 bound_to 6896
  146.0412  140.6606  142.9086 H   0  0  0  0  0  0  0  0  0  0  0  0  # atno 7974 bound_to 7965
  156.2988  140.2533  156.3177 H   0  0  0  0  0  0  0  0  0  0  0  0  # atno 8008 bound_to 7997
  154.9265  140.0399  157.2044 H   0  0  0  0  0  0  0  0  0  0  0  0  # atno 8009 bound_to 7997
  154.8259  140.2868  155.5759 H   0  0  0  0  0  0  0  0  0  0  0  0  # atno 8010 bound_to 7997
  140.7103  143.3303  151.2584 H   0  0  0  0  0  0  0  0  0  0  0  0  # atno 10167 bound_to 10162
  157.6524  130.9604  150.0999 H   0  0  0  0  0  0  0  0  0  0  0  0  # atno 10718 bound_to 10713
  154.4190  135.5991  153.5998 H   0  0  0  0  0  0  0  0  0  0  0  0  # atno 10763 bound_to 10752
  152.9793  135.5947  154.3978 H   0  0  0  0  0  0  0  0  0  0  0  0  # atno 10764 bound_to 10752
  154.3801  135.2841  155.2195 H   0  0  0  0  0  0  0  0  0  0  0  0  # atno 10765 bound_to 10752
  140.6172  133.9694  155.8207 H   0  0  0  0  0  0  0  0  0  0  0  0  # atno 11005 bound_to 11000
  144.7075  140.3911  143.7106 LP  0  0  0  0  0  0  0  0  0  0  0  0  # atno 17320 bound_to 7965
  145.6882  139.1633  143.2662 LP  0  0  0  0  0  0  0  0  0  0  0  0  # atno 17321 bound_to 7965
  139.6783  143.9899  152.2794 LP  0  0  0  0  0  0  0  0  0  0  0  0  # atno 17342 bound_to 10162
  139.9520  144.6614  150.8162 LP  0  0  0  0  0  0  0  0  0  0  0  0  # atno 17343 bound_to 10162
  156.1924  130.3655  149.8892 LP  0  0  0  0  0  0  0  0  0  0  0  0  # atno 17370 bound_to 10713
  156.6817  130.8860  151.3576 LP  0  0  0  0  0  0  0  0  0  0  0  0  # atno 17371 bound_to 10713
  141.0767  134.0124  157.3447 LP  0  0  0  0  0  0  0  0  0  0  0  0  # atno 17394 bound_to 11000
  139.9168  135.0197  156.7911 LP  0  0  0  0  0  0  0  0  0  0  0  0  # atno 17395 bound_to 11000

$$$$
