AV-unprocessed.smi:3338|AV-procd|sdf|12871|dock6
  -GOLD-   2272019273D 1   1.00000     0.00000
 Structure written by MMmdl.
 44 45  0  0  0  0  0  0  0  0  2 V2000
  147.7321  141.3573  155.6738 C   0  0  0  0  0  0  0  0  0  0  0  0
  149.1708  141.3181  155.1290 C   0  0  2  0  0  0  0  0  0  0  0  0
  149.3232  140.3891  153.9105 C   0  0  0  0  0  0  0  0  0  0  0  0
  149.2863  138.9123  154.3283 C   0  0  0  0  0  0  0  0  0  0  0  0
  150.3159  138.6247  155.4323 C   0  0  0  0  0  0  0  0  0  0  0  0
  150.1085  139.5158  156.6029 N   0  3  1  0  0  0  0  0  0  0  0  0
  150.9862  139.1594  157.7457 C   0  0  0  0  0  0  0  0  0  0  0  0
  150.7903  137.6995  158.1982 C   0  0  0  0  0  0  0  0  0  0  0  0
  149.4578  137.4815  158.7479 N   0  0  0  0  0  0  0  0  0  0  0  0
  148.8769  136.2809  158.9026 C   0  0  0  0  0  0  0  0  0  0  0  0
  149.4403  135.2246  158.6130 O   0  0  0  0  0  0  0  0  0  0  0  0
  147.4489  136.2831  159.4739 C   0  0  2  0  0  0  0  0  0  0  0  0
  146.6303  137.5162  159.0418 C   0  0  0  0  0  0  0  0  0  0  0  0
  147.4777  136.1331  160.9243 N   0  0  0  0  0  0  0  0  0  0  0  0
  147.1756  135.0106  161.6683 C   0  0  0  0  0  0  0  0  0  0  0  0
  147.3687  135.3250  162.9829 C   0  0  0  0  0  0  0  0  0  0  0  0
  147.8014  136.6796  162.9464 C   0  0  0  0  0  0  0  0  0  0  0  0
  147.8714  137.1584  161.7154 N   0  0  0  0  0  0  0  0  0  0  0  0
  150.1977  140.9513  156.2203 C   0  0  0  0  0  0  0  0  0  0  0  0
  147.4150  140.3891  156.0614 H   0  0  0  0  0  0  0  0  0  0  0  0
  147.0268  141.6498  154.8954 H   0  0  0  0  0  0  0  0  0  0  0  0
  147.6418  142.0805  156.4848 H   0  0  0  0  0  0  0  0  0  0  0  0
  149.3983  142.3310  154.7940 H   0  0  0  0  0  0  0  0  0  0  0  0
  148.5477  140.5937  153.1714 H   0  0  0  0  0  0  0  0  0  0  0  0
  150.2747  140.5956  153.4188 H   0  0  0  0  0  0  0  0  0  0  0  0
  148.2878  138.6482  154.6780 H   0  0  0  0  0  0  0  0  0  0  0  0
  149.4832  138.2779  153.4636 H   0  0  0  0  0  0  0  0  0  0  0  0
  150.2232  137.5820  155.7389 H   0  0  0  0  0  0  0  0  0  0  0  0
  151.3291  138.7539  155.0484 H   0  0  0  0  0  0  0  0  0  0  0  0
  152.0270  139.2881  157.4458 H   0  0  0  0  0  0  0  0  0  0  0  0
  150.8187  139.8500  158.5738 H   0  0  0  0  0  0  0  0  0  0  0  0
  150.9108  137.0123  157.3617 H   0  0  0  0  0  0  0  0  0  0  0  0
  151.5449  137.4236  158.9370 H   0  0  0  0  0  0  0  0  0  0  0  0
  148.9279  138.3013  159.0067 H   0  0  0  0  0  0  0  0  0  0  0  0
  146.9435  135.4043  159.0696 H   0  0  0  0  0  0  0  0  0  0  0  0
  146.5573  137.5794  157.9555 H   0  0  0  0  0  0  0  0  0  0  0  0
  147.0728  138.4471  159.3989 H   0  0  0  0  0  0  0  0  0  0  0  0
  145.6143  137.4641  159.4338 H   0  0  0  0  0  0  0  0  0  0  0  0
  146.8515  134.0903  161.2054 H   0  0  0  0  0  0  0  0  0  0  0  0
  147.2249  134.6845  163.8403 H   0  0  0  0  0  0  0  0  0  0  0  0
  148.0680  137.3238  163.7713 H   0  0  0  0  0  0  0  0  0  0  0  0
  151.2066  141.1590  155.8598 H   0  0  0  0  0  0  0  0  0  0  0  0
  150.0436  141.5916  157.0882 H   0  0  0  0  0  0  0  0  0  0  0  0
  149.1610  139.3514  156.9118 H   0  0  0  0  0  0  0  0  0  0  0  0
  1  2  1  0  0  0  0
  1 20  1  0  0  0  0
  1 21  1  0  0  0  0
  1 22  1  0  0  0  0
  2 19  1  0  0  0  0
  2  3  1  0  0  0  0
  2 23  1  0  0  0  0
  3  4  1  0  0  0  0
  3 24  1  0  0  0  0
  3 25  1  0  0  0  0
  4  5  1  0  0  0  0
  4 26  1  0  0  0  0
  4 27  1  0  0  0  0
  5  6  1  0  0  0  0
  5 28  1  0  0  0  0
  5 29  1  0  0  0  0
  6  7  1  0  0  0  0
  6 19  1  0  0  0  0
  6 44  1  0  0  0  0
  7  8  1  0  0  0  0
  7 30  1  0  0  0  0
  7 31  1  0  0  0  0
  8  9  1  0  0  0  0
  8 32  1  0  0  0  0
  8 33  1  0  0  0  0
  9 10  1  0  0  0  0
  9 34  1  0  0  0  0
 10 11  2  0  0  0  0
 10 12  1  0  0  0  0
 12 13  1  0  0  0  0
 12 14  1  0  0  0  0
 12 35  1  0  0  0  0
 13 36  1  0  0  0  0
 13 37  1  0  0  0  0
 13 38  1  0  0  0  0
 14 18  1  0  0  0  0
 14 15  1  0  0  0  0
 15 16  2  0  0  0  0
 15 39  1  0  0  0  0
 16 17  1  0  0  0  0
 16 40  1  0  0  0  0
 17 18  2  0  0  0  0
 17 41  1  0  0  0  0
 19 42  1  0  0  0  0
 19 43  1  0  0  0  0
M  CHG  1   6   1
M  END
> <s_m_source_file>
AV-unprocessed.smi

> <i_m_source_file_index>
3338

> <i_lp_mmshare_version>
43012

> <i_f3d_flags>
0

> <s_epik_input>
W0NIM11bQ0BASF0xW0NIMl1bQ0gyXVtDSDJdTihbQ0gyXTEpW0NIMl1bQ0gyXVtOSF1DKD1PKVtDQEhdKFtDSDNdKW4yW2NIXVtjSF1bY0hdbjI=

> <s_epik_cmdline>
J2VwaWtfcHl0aG9uJywgJy1waCcsICc3LjAnLCAnLXRuJywgJzgnLCAnLW1hJywgJzIwMCcsICctbWV0YWxfYmluZGluZycsICctaW1hZScsICc8aW5maWxlLm1hZT4nLCAnLW9tYWUnLCAnPG91dGZpbGUubWFlPic=

> <r_lp_tautomer_probability>
1

> <r_epik_Ionization_Penalty>
0.00225707

> <r_epik_Ionization_Penalty_Charging>
0.00223709

> <r_epik_Ionization_Penalty_Neutral>
1.99775e-05

> <r_epik_State_Penalty>
0.00153978

> <r_epik_Charging_Adjusted_Penalty>
0.00377687

> <i_epik_Tot_Q>
1

> <i_epik_Tot_abs_Q>
1

> <r_epik_Metal_State_Penalty>
-0

> <b_epik_Metal_Only>
0

> <s_lp_Force_Field>
OPLS_2005

> <r_lp_Energy>
22.4515

> <b_lp_Chiralities_Consistent>
1

> <s_lp_Variant>
AV-unprocessed.smi:3338-3

> <Gold.Version>
5.8.1

> <Gold.Id.Protein>
6NUR|6NUR_protein|mol2

> <Gold.PLP.Fitness>
38.2664

> <Gold.PLP.PLP>
-32.5480

> <Gold.PLP.part.hbond>
-3.0000

> <Gold.PLP.part.metal>
0.0000

> <Gold.PLP.part.buried>
-1.2296

> <Gold.PLP.part.nonpolar>
-28.2142

> <Gold.PLP.part.repulsive>
0.2144

> <Gold.PLP.ligand.clash>
0.0000

> <Gold.PLP.ligand.torsion>
1.1006

> <Gold.PLP.Chemscore.Hbond>
2.5897

> <Gold.PLP.Chemscore.CHOScore>
0.0000

> <Gold.PLP.Chemscore.Metal>
0.0000

> <Gold.Chemscore.Hbonds>
donor molecule, donor type, donor heavy atom, donor atom, acceptor molecule, acceptor atom, score
      P1  H  6896  6909       L1    11  1.00
      P1  H  6931  6943       L1    18  1.00
      P1  H  6934  6947       L1    18  0.50

> <Gold.PLP.Chemscore.Internal.Correction>
0.1506

> <Gold.Rescore>
     Score         DG    S(hbond)    S(metal)    S(lipo)     H(rot)  DE(clash)    DE(int)     intcor
     15.60     -17.00       2.15        0.00      75.53       1.76       0.37       1.02       ----

> <Gold.Chemscore.Fitness>
15.6044

> <Gold.Chemscore.DG>
-16.9956

> <Gold.Chemscore.ZeroCoef>
-5.4800

> <Gold.Chemscore.Hbond>
2.1488

> <Gold.Chemscore.Metal>
0.0000

> <Gold.Chemscore.Lipo>
75.5251

> <Gold.Chemscore.Internal_Hbond>
0.0000

> <Gold.Chemscore.DEClash>
0.3665

> <Gold.Chemscore.DEInternal>
1.0248

> <Gold.Chemscore.Rot>
1.7570

> <Gold.Chemscore.Internal.Correction>
   9.000000E+99

> <Gold.Chemscore.Hbonds>
donor molecule, donor type, donor heavy atom, donor atom, acceptor molecule, acceptor atom, score
      P1  H  6896  6909       L1    11  0.99
      P1  H  6931  6943       L1    18  0.25
      P1  H  6934  6947       L1    18  0.39

> <Gold.Chemscore.Hbond.Weighted>
-7.1771

> <Gold.Chemscore.Metal.Weighted>
-0.0000

> <Gold.Chemscore.Lipo.Weighted>
-8.8364

> <Gold.Chemscore.Internal_Hbond.Weighted>
0.0000

> <Gold.Chemscore.DEClash.Weighted>
0.3665

> <Gold.Chemscore.DEInternal.Weighted>
1.0248

> <Gold.Chemscore.Rot.Weighted>
4.4979

> <Gold.Chemscore.Internal.Correction.Weighted>
   9.000000E+99

> <Gold.Protein.RotatedTorsions>
[ 6907 6896 6895 6894 ] final   49.34 input  -60.11 | X-H torsion
[ 7974 7965 7964 7962 ] final  -52.01 input  175.53 | X-H torsion
[ 8008 7997 7996 7995 ] final -135.54 input   59.86 | X-H torsion
[ 10167 10162 10161 10158 ] final  125.34 input  -65.29 | X-H torsion
[ 10718 10713 10712 10709 ] final    2.01 input   66.30 | X-H torsion
[ 10763 10752 10751 10750 ] final    6.86 input  -60.55 | X-H torsion
[ 11005 11000 10999 10996 ] final  169.66 input  -57.11 | X-H torsion

> <Gold.Protein.ActiveResidues>
 VAL166  LYS551  ARG553  GLY616  TRP617  ASP618  TYR619  PRO620  LYS621  CYS622 
 ASP623  PHE694  ASN695  SER759  ASP760  ASP761  ALA762  ILE779  LEU786  VAL792 
 PHE793  MET794  SER795  GLU796  ALA797  LYS798  CYS799  TRP800  GLU811  SER814 

> <Gold.Protein.RotatedAtoms>
  152.2897  134.7735  160.0380 H   0  0  0  0  0  0  0  0  0  0  0  0  # atno 6907 bound_to 6896
  151.8286  133.3400  159.3614 H   0  0  0  0  0  0  0  0  0  0  0  0  # atno 6908 bound_to 6896
  150.7225  134.5434  159.5803 H   0  0  0  0  0  0  0  0  0  0  0  0  # atno 6909 bound_to 6896
  145.9126  140.7902  142.9687 H   0  0  0  0  0  0  0  0  0  0  0  0  # atno 7974 bound_to 7965
  155.3804  140.0493  157.3043 H   0  0  0  0  0  0  0  0  0  0  0  0  # atno 8008 bound_to 7997
  154.5085  140.2183  155.9165 H   0  0  0  0  0  0  0  0  0  0  0  0  # atno 8009 bound_to 7997
  156.1555  140.3127  155.8724 H   0  0  0  0  0  0  0  0  0  0  0  0  # atno 8010 bound_to 7997
  139.5691  144.6928  151.3829 H   0  0  0  0  0  0  0  0  0  0  0  0  # atno 10167 bound_to 10162
  156.8566  130.5572  149.5666 H   0  0  0  0  0  0  0  0  0  0  0  0  # atno 10718 bound_to 10713
  153.2429  135.6905  153.7763 H   0  0  0  0  0  0  0  0  0  0  0  0  # atno 10763 bound_to 10752
  153.6887  135.3316  155.3197 H   0  0  0  0  0  0  0  0  0  0  0  0  # atno 10764 bound_to 10752
  154.8363  135.4540  154.1357 H   0  0  0  0  0  0  0  0  0  0  0  0  # atno 10765 bound_to 10752
  140.3001  134.7602  157.3909 H   0  0  0  0  0  0  0  0  0  0  0  0  # atno 11005 bound_to 11000
  144.6745  140.1850  143.7402 LP  0  0  0  0  0  0  0  0  0  0  0  0  # atno 17320 bound_to 7965
  145.8652  139.2243  143.1693 LP  0  0  0  0  0  0  0  0  0  0  0  0  # atno 17321 bound_to 7965
  140.6975  143.7713  150.7349 LP  0  0  0  0  0  0  0  0  0  0  0  0  # atno 17342 bound_to 10162
  140.1214  143.4608  152.2311 LP  0  0  0  0  0  0  0  0  0  0  0  0  # atno 17343 bound_to 10162
  156.0799  130.5812  150.9543 LP  0  0  0  0  0  0  0  0  0  0  0  0  # atno 17370 bound_to 10713
  157.6273  131.0924  150.8509 LP  0  0  0  0  0  0  0  0  0  0  0  0  # atno 17371 bound_to 10713
  140.1117  134.5337  155.8260 LP  0  0  0  0  0  0  0  0  0  0  0  0  # atno 17394 bound_to 11000
  141.2130  133.6727  156.6701 LP  0  0  0  0  0  0  0  0  0  0  0  0  # atno 17395 bound_to 11000

$$$$
