AV-unprocessed.smi:315|AV-procd|sdf|2322|dock3
  -GOLD-   2262022223D 1   1.00000     0.00000
 Structure written by MMmdl.
 47 49  0  0  0  0  0  0  0  0  2 V2000
  152.2167  138.8337  154.6600 C   0  0  0  0  0  0  0  0  0  0  0  0
  151.0429  137.8559  154.7589 C   0  0  0  0  0  0  0  0  0  0  0  0
  150.0866  138.2026  153.7638 O   0  0  0  0  0  0  0  0  0  0  0  0
  149.3664  139.3730  153.9074 C   0  0  0  0  0  0  0  0  0  0  0  0
  149.9379  140.4109  154.5667 N   0  0  0  0  0  0  0  0  0  0  0  0
  149.2285  141.5509  154.7027 C   0  0  0  0  0  0  0  0  0  0  0  0
  147.9282  141.7171  154.1893 C   0  0  0  0  0  0  0  0  0  0  0  0
  147.3335  140.6401  153.5060 C   0  0  0  0  0  0  0  0  0  0  0  0
  148.0612  139.4348  153.3689 C   0  0  0  0  0  0  0  0  0  0  0  0
  147.5677  138.2943  152.6848 N   0  0  0  0  0  0  0  0  0  0  0  0
  146.2882  137.9739  152.4181 C   0  0  0  0  0  0  0  0  0  0  0  0
  145.3331  138.7343  152.5558 O   0  0  0  0  0  0  0  0  0  0  0  0
  146.1211  136.7087  151.9909 N   0  0  0  0  0  0  0  0  0  0  0  0
  144.8720  136.0370  151.6155 C   0  0  2  0  0  0  0  0  0  0  0  0
  144.1169  135.4599  152.8220 C   0  0  0  0  0  0  0  0  0  0  0  0
  143.4061  134.2007  152.2935 C   0  0  0  0  0  0  0  0  0  0  0  0
  143.7614  134.1005  150.8613 N   0  3  2  0  0  0  0  0  0  0  0  0
  143.6885  132.7487  150.2504 C   0  0  0  0  0  0  0  0  0  0  0  0
  144.9044  131.8733  150.5970 C   0  0  0  0  0  0  0  0  0  0  0  0
  146.2099  132.5978  150.2539 C   0  0  0  0  0  0  0  0  0  0  0  0
  146.2678  133.9345  151.0003 C   0  0  0  0  0  0  0  0  0  0  0  0
  145.0390  134.8230  150.6808 C   0  0  2  0  0  0  0  0  0  0  0  0
  152.9749  138.6091  155.4104 H   0  0  0  0  0  0  0  0  0  0  0  0
  151.8846  139.8603  154.8166 H   0  0  0  0  0  0  0  0  0  0  0  0
  152.6898  138.7800  153.6795 H   0  0  0  0  0  0  0  0  0  0  0  0
  151.3998  136.8362  154.6063 H   0  0  0  0  0  0  0  0  0  0  0  0
  150.5981  137.9151  155.7535 H   0  0  0  0  0  0  0  0  0  0  0  0
  149.7144  142.3569  155.2320 H   0  0  0  0  0  0  0  0  0  0  0  0
  147.4007  142.6512  154.3129 H   0  0  0  0  0  0  0  0  0  0  0  0
  146.3443  140.7586  153.0906 H   0  0  0  0  0  0  0  0  0  0  0  0
  148.2397  137.5532  152.5528 H   0  0  0  0  0  0  0  0  0  0  0  0
  146.9569  136.1444  151.9331 H   0  0  0  0  0  0  0  0  0  0  0  0
  144.2153  136.7620  151.1303 H   0  0  0  0  0  0  0  0  0  0  0  0
  144.8078  135.1808  153.6191 H   0  0  0  0  0  0  0  0  0  0  0  0
  143.4142  136.1831  153.2374 H   0  0  0  0  0  0  0  0  0  0  0  0
  143.7503  133.3230  152.8416 H   0  0  0  0  0  0  0  0  0  0  0  0
  142.3240  134.2620  152.4086 H   0  0  0  0  0  0  0  0  0  0  0  0
  142.7614  132.2577  150.5484 H   0  0  0  0  0  0  0  0  0  0  0  0
  143.6370  132.8753  149.1683 H   0  0  0  0  0  0  0  0  0  0  0  0
  144.8933  131.6144  151.6563 H   0  0  0  0  0  0  0  0  0  0  0  0
  144.8482  130.9309  150.0514 H   0  0  0  0  0  0  0  0  0  0  0  0
  147.0661  131.9790  150.5250 H   0  0  0  0  0  0  0  0  0  0  0  0
  146.2735  132.7680  149.1785 H   0  0  0  0  0  0  0  0  0  0  0  0
  146.3254  133.7405  152.0722 H   0  0  0  0  0  0  0  0  0  0  0  0
  147.1880  134.4551  150.7343 H   0  0  0  0  0  0  0  0  0  0  0  0
  145.1018  135.1444  149.6413 H   0  0  0  0  0  0  0  0  0  0  0  0
  143.0677  134.6603  150.3864 H   0  0  0  0  0  0  0  0  0  0  0  0
  1  2  1  0  0  0  0
  1 23  1  0  0  0  0
  1 24  1  0  0  0  0
  1 25  1  0  0  0  0
  2  3  1  0  0  0  0
  2 26  1  0  0  0  0
  2 27  1  0  0  0  0
  3  4  1  0  0  0  0
  4  9  1  0  0  0  0
  4  5  2  0  0  0  0
  5  6  1  0  0  0  0
  6  7  2  0  0  0  0
  6 28  1  0  0  0  0
  7  8  1  0  0  0  0
  7 29  1  0  0  0  0
  8  9  2  0  0  0  0
  8 30  1  0  0  0  0
  9 10  1  0  0  0  0
 10 11  1  0  0  0  0
 10 31  1  0  0  0  0
 11 12  2  0  0  0  0
 11 13  1  0  0  0  0
 13 14  1  0  0  0  0
 13 32  1  0  0  0  0
 14 22  1  0  0  0  0
 14 15  1  0  0  0  0
 14 33  1  0  0  0  0
 15 16  1  0  0  0  0
 15 34  1  0  0  0  0
 15 35  1  0  0  0  0
 16 17  1  0  0  0  0
 16 36  1  0  0  0  0
 16 37  1  0  0  0  0
 17 22  1  0  0  0  0
 17 18  1  0  0  0  0
 17 47  1  0  0  0  0
 18 19  1  0  0  0  0
 18 38  1  0  0  0  0
 18 39  1  0  0  0  0
 19 20  1  0  0  0  0
 19 40  1  0  0  0  0
 19 41  1  0  0  0  0
 20 21  1  0  0  0  0
 20 42  1  0  0  0  0
 20 43  1  0  0  0  0
 21 22  1  0  0  0  0
 21 44  1  0  0  0  0
 21 45  1  0  0  0  0
 22 46  1  0  0  0  0
M  CHG  1  17   1
M  END
> <s_m_source_file>
AV-unprocessed.smi

> <i_m_source_file_index>
315

> <i_lp_mmshare_version>
43012

> <i_f3d_flags>
0

> <s_epik_input>
W0NIM11bQ0gyXU9jMW5bY0hdW2NIXVtjSF1jMVtOSF1DKD1PKVtOSF1bQ0BIXShbQ0gyXVtDSDJdMilbQ0BASF0oTjIzKVtDSDJdW0NIMl1bQ0gyXVtDSDJdMw==

> <s_epik_cmdline>
J2VwaWtfcHl0aG9uJywgJy1waCcsICc3LjAnLCAnLXRuJywgJzgnLCAnLW1hJywgJzIwMCcsICctbWV0YWxfYmluZGluZycsICctaW1hZScsICc8aW5maWxlLm1hZT4nLCAnLW9tYWUnLCAnPG91dGZpbGUubWFlPic=

> <r_lp_tautomer_probability>
1

> <r_epik_Ionization_Penalty>
0.00106455

> <r_epik_Ionization_Penalty_Charging>
0.000974069

> <r_epik_Ionization_Penalty_Neutral>
9.04821e-05

> <r_epik_State_Penalty>
0.000633842

> <r_epik_Charging_Adjusted_Penalty>
0.00160791

> <i_epik_Tot_Q>
1

> <i_epik_Tot_abs_Q>
1

> <r_epik_Metal_State_Penalty>
-0

> <b_epik_Metal_Only>
0

> <s_lp_Force_Field>
OPLS_2005

> <r_lp_Energy>
48.3447

> <b_lp_Chiralities_Consistent>
1

> <s_lp_Variant>
AV-unprocessed.smi:315-7

> <Gold.Version>
5.8.1

> <Gold.Id.Protein>
6NUR|6NUR_protein|mol2

> <Gold.PLP.Fitness>
50.5387

> <Gold.PLP.PLP>
-38.6514

> <Gold.PLP.part.hbond>
-4.7809

> <Gold.PLP.part.metal>
0.0000

> <Gold.PLP.part.buried>
-1.3008

> <Gold.PLP.part.nonpolar>
-40.6342

> <Gold.PLP.part.repulsive>
6.8519

> <Gold.PLP.ligand.clash>
0.0000

> <Gold.PLP.ligand.torsion>
0.8233

> <Gold.PLP.Chemscore.Hbond>
3.5401

> <Gold.PLP.Chemscore.CHOScore>
0.9702

> <Gold.PLP.Chemscore.Metal>
0.0000

> <Gold.Chemscore.Hbonds>
donor molecule, donor type, donor heavy atom, donor atom, acceptor molecule, acceptor atom, score
      L1  H    10    31       P1  7948  1.00
      L1  H    13    32       P1  7948  0.88
      L1  H    17    47       P1 10186  0.79
      P1  H  7989  7998       L1     5  0.86
      L1  C     6    28       P1  8028  0.96

> <Gold.PLP.Chemscore.Internal.Correction>
0.0030

> <Gold.Rescore>
     Score         DG    S(hbond)    S(metal)    S(lipo)     H(rot)  DE(clash)    DE(int)     intcor
     14.92     -19.86       1.96        0.00      97.18       1.38       1.84       3.11       ----

> <Gold.Chemscore.Fitness>
14.9150

> <Gold.Chemscore.DG>
-19.8601

> <Gold.Chemscore.ZeroCoef>
-5.4800

> <Gold.Chemscore.Hbond>
1.9567

> <Gold.Chemscore.Metal>
0.0000

> <Gold.Chemscore.Lipo>
97.1776

> <Gold.Chemscore.Internal_Hbond>
0.0000

> <Gold.Chemscore.DEClash>
1.8384

> <Gold.Chemscore.DEInternal>
3.1066

> <Gold.Chemscore.Rot>
1.3770

> <Gold.Chemscore.Internal.Correction>
   9.000000E+99

> <Gold.Chemscore.Hbonds>
donor molecule, donor type, donor heavy atom, donor atom, acceptor molecule, acceptor atom, score
      L1  H    10    31       P1  7948  0.99
      L1  H    13    32       P1  7948  0.85
      L1  H    17    47       P1 10186  0.20
      P1  H  7989  7998       L1     5  0.24

> <Gold.Chemscore.Hbond.Weighted>
-6.5355

> <Gold.Chemscore.Metal.Weighted>
-0.0000

> <Gold.Chemscore.Lipo.Weighted>
-11.3698

> <Gold.Chemscore.Internal_Hbond.Weighted>
0.0000

> <Gold.Chemscore.DEClash.Weighted>
1.8384

> <Gold.Chemscore.DEInternal.Weighted>
3.1066

> <Gold.Chemscore.Rot.Weighted>
3.5252

> <Gold.Chemscore.Internal.Correction.Weighted>
   9.000000E+99

> <Gold.Protein.RotatedTorsions>
[ 6907 6896 6895 6894 ] final  -44.39 input  -60.11 | X-H torsion
[ 7974 7965 7964 7962 ] final -133.82 input  175.53 | X-H torsion
[ 8008 7997 7996 7995 ] final  177.49 input   59.86 | X-H torsion
[ 10167 10162 10161 10158 ] final  -35.74 input  -65.29 | X-H torsion
[ 10718 10713 10712 10709 ] final   71.22 input   66.30 | X-H torsion
[ 10763 10752 10751 10750 ] final -132.85 input  -60.55 | X-H torsion
[ 11005 11000 10999 10996 ] final -142.49 input  -57.11 | X-H torsion

> <Gold.Protein.ActiveResidues>
 VAL166  LYS551  ARG553  GLY616  TRP617  ASP618  TYR619  PRO620  LYS621  CYS622 
 ASP623  PHE694  ASN695  SER759  ASP760  ASP761  ALA762  ILE779  LEU786  VAL792 
 PHE793  MET794  SER795  GLU796  ALA797  LYS798  CYS799  TRP800  GLU811  SER814 

> <Gold.Protein.RotatedAtoms>
  150.9334  134.8748  159.7565 H   0  0  0  0  0  0  0  0  0  0  0  0  # atno 6907 bound_to 6896
  152.5048  134.4046  159.9438 H   0  0  0  0  0  0  0  0  0  0  0  0  # atno 6908 bound_to 6896
  151.4072  133.3699  159.2774 H   0  0  0  0  0  0  0  0  0  0  0  0  # atno 6909 bound_to 6896
  144.9159  140.6953  143.4996 H   0  0  0  0  0  0  0  0  0  0  0  0  # atno 7974 bound_to 7965
  156.0650  140.1357  156.9896 H   0  0  0  0  0  0  0  0  0  0  0  0  # atno 8008 bound_to 7997
  154.4501  140.0983  156.6645 H   0  0  0  0  0  0  0  0  0  0  0  0  # atno 8009 bound_to 7997
  155.5317  140.3459  155.4430 H   0  0  0  0  0  0  0  0  0  0  0  0  # atno 8010 bound_to 7997
  140.7158  143.3456  151.2263 H   0  0  0  0  0  0  0  0  0  0  0  0  # atno 10167 bound_to 10162
  157.6440  130.9517  150.0759 H   0  0  0  0  0  0  0  0  0  0  0  0  # atno 10718 bound_to 10713
  154.8739  135.3785  154.4477 H   0  0  0  0  0  0  0  0  0  0  0  0  # atno 10763 bound_to 10752
  153.5156  135.7029  153.5763 H   0  0  0  0  0  0  0  0  0  0  0  0  # atno 10764 bound_to 10752
  153.4033  135.3943  155.1968 H   0  0  0  0  0  0  0  0  0  0  0  0  # atno 10765 bound_to 10752
  140.8220  134.2620  157.4896 H   0  0  0  0  0  0  0  0  0  0  0  0  # atno 11005 bound_to 11000
  145.3377  139.1741  143.4503 LP  0  0  0  0  0  0  0  0  0  0  0  0  # atno 17320 bound_to 7965
  146.3181  140.3414  142.8648 LP  0  0  0  0  0  0  0  0  0  0  0  0  # atno 17321 bound_to 7965
  139.6975  143.9589  152.2889 LP  0  0  0  0  0  0  0  0  0  0  0  0  # atno 17342 bound_to 10162
  139.9271  144.6764  150.8401 LP  0  0  0  0  0  0  0  0  0  0  0  0  # atno 17343 bound_to 10162
  156.1749  130.3648  149.9114 LP  0  0  0  0  0  0  0  0  0  0  0  0  # atno 17370 bound_to 10713
  156.7080  130.8959  151.3606 LP  0  0  0  0  0  0  0  0  0  0  0  0  # atno 17371 bound_to 10713
  139.8708  134.9540  156.4163 LP  0  0  0  0  0  0  0  0  0  0  0  0  # atno 17394 bound_to 11000
  140.9089  133.7726  155.9768 LP  0  0  0  0  0  0  0  0  0  0  0  0  # atno 17395 bound_to 11000

$$$$
