AV-unprocessed.smi:567|AV-procd|sdf|2956|dock7
  -GOLD-   2262023463D 1   1.00000     0.00000
 Structure written by MMmdl.
 53 54  0  0  0  0  0  0  0  0  2 V2000
  151.9343  136.8389  158.2450 C   0  0  0  0  0  0  0  0  0  0  0  0
  152.3516  138.1663  157.9807 O   0  0  0  0  0  0  0  0  0  0  0  0
  153.2028  138.6820  158.9929 C   0  0  0  0  0  0  0  0  0  0  0  0
  152.4496  139.7515  159.7998 C   0  0  0  0  0  0  0  0  0  0  0  0
  152.0226  140.8700  158.9515 N   0  0  0  0  0  0  0  0  0  0  0  0
  151.3566  140.4741  157.8062 N   0  0  0  0  0  0  0  0  0  0  0  0
  150.9221  141.3557  156.9657 C   0  0  0  0  0  0  0  0  0  0  0  0
  150.2206  140.9544  155.7171 C   0  0  0  0  0  0  0  0  0  0  0  0
  150.5750  139.9829  155.0480 O   0  0  0  0  0  0  0  0  0  0  0  0
  149.1865  141.7437  155.3785 N   0  0  0  0  0  0  0  0  0  0  0  0
  148.3771  141.6470  154.1703 C   0  0  0  0  0  0  0  0  0  0  0  0
  147.3077  142.7498  154.0874 C   0  0  0  0  0  0  0  0  0  0  0  0
  146.0917  142.5574  155.0309 C   0  0  0  0  0  0  0  0  0  0  0  0
  146.3969  142.9802  156.4860 C   0  0  0  0  0  0  0  0  0  0  0  0
  144.9602  143.4798  154.5369 C   0  0  0  0  0  0  0  0  0  0  0  0
  145.5697  141.1626  154.9633 N   0  3  0  0  0  0  0  0  0  0  0  0
  146.5148  140.0094  154.9730 C   0  0  0  0  0  0  0  0  0  0  0  0
  146.9463  139.6377  156.4106 C   0  0  0  0  0  0  0  0  0  0  0  0
  145.7379  138.7970  154.4238 C   0  0  0  0  0  0  0  0  0  0  0  0
  147.7238  140.2627  154.0347 C   0  0  0  0  0  0  0  0  0  0  0  0
  151.1045  142.7747  157.2139 C   0  0  0  0  0  0  0  0  0  0  0  0
  151.7762  143.1468  158.3262 C   0  0  0  0  0  0  0  0  0  0  0  0
  152.3067  142.1672  159.2774 C   0  0  0  0  0  0  0  0  0  0  0  0
  152.9512  142.4816  160.2773 O   0  0  0  0  0  0  0  0  0  0  0  0
  151.2806  136.4947  157.4437 H   0  0  0  0  0  0  0  0  0  0  0  0
  151.3794  136.7784  159.1822 H   0  0  0  0  0  0  0  0  0  0  0  0
  152.7877  136.1618  158.2982 H   0  0  0  0  0  0  0  0  0  0  0  0
  153.5032  137.8706  159.6573 H   0  0  0  0  0  0  0  0  0  0  0  0
  154.1122  139.1004  158.5585 H   0  0  0  0  0  0  0  0  0  0  0  0
  151.5828  139.3034  160.2889 H   0  0  0  0  0  0  0  0  0  0  0  0
  153.0834  140.1057  160.6142 H   0  0  0  0  0  0  0  0  0  0  0  0
  148.9666  142.5035  156.0067 H   0  0  0  0  0  0  0  0  0  0  0  0
  149.0522  141.7673  153.3210 H   0  0  0  0  0  0  0  0  0  0  0  0
  147.7604  143.7298  154.2472 H   0  0  0  0  0  0  0  0  0  0  0  0
  146.9488  142.7650  153.0570 H   0  0  0  0  0  0  0  0  0  0  0  0
  146.6385  144.0425  156.5377 H   0  0  0  0  0  0  0  0  0  0  0  0
  147.2384  142.4601  156.9307 H   0  0  0  0  0  0  0  0  0  0  0  0
  145.5360  142.8137  157.1343 H   0  0  0  0  0  0  0  0  0  0  0  0
  145.2706  144.5256  154.5355 H   0  0  0  0  0  0  0  0  0  0  0  0
  144.0751  143.4025  155.1698 H   0  0  0  0  0  0  0  0  0  0  0  0
  144.6538  143.2305  153.5201 H   0  0  0  0  0  0  0  0  0  0  0  0
  144.8830  141.0318  155.6922 H   0  0  0  0  0  0  0  0  0  0  0  0
  147.5106  138.7044  156.4170 H   0  0  0  0  0  0  0  0  0  0  0  0
  146.0802  139.4930  157.0572 H   0  0  0  0  0  0  0  0  0  0  0  0
  147.5830  140.3749  156.8879 H   0  0  0  0  0  0  0  0  0  0  0  0
  146.3685  137.9082  154.3742 H   0  0  0  0  0  0  0  0  0  0  0  0
  145.3599  138.9843  153.4178 H   0  0  0  0  0  0  0  0  0  0  0  0
  144.8795  138.5538  155.0516 H   0  0  0  0  0  0  0  0  0  0  0  0
  147.3862  140.1728  153.0007 H   0  0  0  0  0  0  0  0  0  0  0  0
  148.4730  139.4794  154.1606 H   0  0  0  0  0  0  0  0  0  0  0  0
  150.7230  143.5171  156.5281 H   0  0  0  0  0  0  0  0  0  0  0  0
  151.9247  144.1984  158.5237 H   0  0  0  0  0  0  0  0  0  0  0  0
  145.0882  141.1030  154.0774 H   0  0  0  0  0  0  0  0  0  0  0  0
  1  2  1  0  0  0  0
  1 25  1  0  0  0  0
  1 26  1  0  0  0  0
  1 27  1  0  0  0  0
  2  3  1  0  0  0  0
  3  4  1  0  0  0  0
  3 28  1  0  0  0  0
  3 29  1  0  0  0  0
  4  5  1  0  0  0  0
  4 30  1  0  0  0  0
  4 31  1  0  0  0  0
  5 23  1  0  0  0  0
  5  6  1  0  0  0  0
  6  7  2  0  0  0  0
  7  8  1  0  0  0  0
  7 21  1  0  0  0  0
  8  9  2  0  0  0  0
  8 10  1  0  0  0  0
 10 11  1  0  0  0  0
 10 32  1  0  0  0  0
 11 20  1  0  0  0  0
 11 12  1  0  0  0  0
 11 33  1  0  0  0  0
 12 13  1  0  0  0  0
 12 34  1  0  0  0  0
 12 35  1  0  0  0  0
 13 14  1  0  0  0  0
 13 15  1  0  0  0  0
 13 16  1  0  0  0  0
 14 36  1  0  0  0  0
 14 37  1  0  0  0  0
 14 38  1  0  0  0  0
 15 39  1  0  0  0  0
 15 40  1  0  0  0  0
 15 41  1  0  0  0  0
 16 17  1  0  0  0  0
 16 42  1  0  0  0  0
 16 53  1  0  0  0  0
 17 18  1  0  0  0  0
 17 19  1  0  0  0  0
 17 20  1  0  0  0  0
 18 43  1  0  0  0  0
 18 44  1  0  0  0  0
 18 45  1  0  0  0  0
 19 46  1  0  0  0  0
 19 47  1  0  0  0  0
 19 48  1  0  0  0  0
 20 49  1  0  0  0  0
 20 50  1  0  0  0  0
 21 22  2  0  0  0  0
 21 51  1  0  0  0  0
 22 23  1  0  0  0  0
 22 52  1  0  0  0  0
 23 24  2  0  0  0  0
M  CHG  1  16   1
M  END
> <s_m_source_file>
AV-unprocessed.smi

> <i_m_source_file_index>
567

> <i_lp_mmshare_version>
43012

> <i_f3d_flags>
0

> <s_epik_input>
W0NIM11PW0NIMl1bQ0gyXW4xbmMoW2NIXVtjSF1jMT1PKUMoPU8pW05IXVtDSF0oW0NIMl1DMihbQ0gzXSlbQ0gzXSlbQ0gyXUMoW05IXTIpKFtDSDNdKVtDSDNd

> <s_epik_cmdline>
J2VwaWtfcHl0aG9uJywgJy1waCcsICc3LjAnLCAnLXRuJywgJzgnLCAnLW1hJywgJzIwMCcsICctbWV0YWxfYmluZGluZycsICctaW1hZScsICc8aW5maWxlLm1hZT4nLCAnLW9tYWUnLCAnPG91dGZpbGUubWFlPic=

> <r_lp_tautomer_probability>
1

> <r_epik_Ionization_Penalty>
0.000138804

> <r_epik_Ionization_Penalty_Charging>
0.000136152

> <r_epik_Ionization_Penalty_Neutral>
2.65225e-06

> <r_epik_State_Penalty>
-0

> <r_epik_Charging_Adjusted_Penalty>
0.000136152

> <i_epik_Tot_Q>
1

> <i_epik_Tot_abs_Q>
1

> <r_epik_Metal_State_Penalty>
-0

> <b_epik_Metal_Only>
0

> <s_lp_Force_Field>
OPLS_2005

> <r_lp_Energy>
46.3617

> <b_lp_Chiralities_Consistent>
1

> <s_lp_Variant>
AV-unprocessed.smi:567-1

> <Gold.Version>
5.8.1

> <Gold.Id.Protein>
6NUR|6NUR_protein|mol2

> <Gold.PLP.Fitness>
43.7393

> <Gold.PLP.PLP>
-36.2492

> <Gold.PLP.part.hbond>
-3.0000

> <Gold.PLP.part.metal>
0.0000

> <Gold.PLP.part.buried>
-3.6724

> <Gold.PLP.part.nonpolar>
-30.3469

> <Gold.PLP.part.repulsive>
0.2243

> <Gold.PLP.ligand.clash>
0.0000

> <Gold.PLP.ligand.torsion>
1.0216

> <Gold.PLP.Chemscore.Hbond>
3.1679

> <Gold.PLP.Chemscore.CHOScore>
0.0000

> <Gold.PLP.Chemscore.Metal>
0.0000

> <Gold.Chemscore.Hbonds>
donor molecule, donor type, donor heavy atom, donor atom, acceptor molecule, acceptor atom, score
      L1  H    10    32       P1  8028  0.29
      L1  H    16    53       P1 10175  1.14
      P1  H  7989  7998       L1     9  0.89

> <Gold.PLP.Chemscore.Internal.Correction>
0.0297

> <Gold.Rescore>
     Score         DG    S(hbond)    S(metal)    S(lipo)     H(rot)  DE(clash)    DE(int)     intcor
     14.46     -16.96       1.92        0.00      78.41       1.61       0.08       2.42       ----

> <Gold.Chemscore.Fitness>
14.4606

> <Gold.Chemscore.DG>
-16.9561

> <Gold.Chemscore.ZeroCoef>
-5.4800

> <Gold.Chemscore.Hbond>
1.9241

> <Gold.Chemscore.Metal>
0.0000

> <Gold.Chemscore.Lipo>
78.4137

> <Gold.Chemscore.Internal_Hbond>
0.0000

> <Gold.Chemscore.DEClash>
0.0765

> <Gold.Chemscore.DEInternal>
2.4190

> <Gold.Chemscore.Rot>
1.6112

> <Gold.Chemscore.Internal.Correction>
   9.000000E+99

> <Gold.Chemscore.Hbonds>
donor molecule, donor type, donor heavy atom, donor atom, acceptor molecule, acceptor atom, score
      L1  H    10    32       P1  8028  0.30
      L1  H    16    53       P1 10175  0.44
      P1  H  7989  7998       L1     9  0.30

> <Gold.Chemscore.Hbond.Weighted>
-6.4264

> <Gold.Chemscore.Metal.Weighted>
-0.0000

> <Gold.Chemscore.Lipo.Weighted>
-9.1744

> <Gold.Chemscore.Internal_Hbond.Weighted>
0.0000

> <Gold.Chemscore.DEClash.Weighted>
0.0765

> <Gold.Chemscore.DEInternal.Weighted>
2.4190

> <Gold.Chemscore.Rot.Weighted>
4.1247

> <Gold.Chemscore.Internal.Correction.Weighted>
   9.000000E+99

> <Gold.Protein.RotatedTorsions>
[ 6907 6896 6895 6894 ] final  105.29 input  -60.11 | X-H torsion
[ 7974 7965 7964 7962 ] final -113.21 input  175.53 | X-H torsion
[ 8008 7997 7996 7995 ] final   29.93 input   59.86 | X-H torsion
[ 10167 10162 10161 10158 ] final -139.54 input  -65.29 | X-H torsion
[ 10718 10713 10712 10709 ] final  -88.40 input   66.30 | X-H torsion
[ 10763 10752 10751 10750 ] final   92.61 input  -60.55 | X-H torsion
[ 11005 11000 10999 10996 ] final   41.65 input  -57.11 | X-H torsion

> <Gold.Protein.ActiveResidues>
 VAL166  LYS551  ARG553  GLY616  TRP617  ASP618  TYR619  PRO620  LYS621  CYS622 
 ASP623  PHE694  ASN695  SER759  ASP760  ASP761  ALA762  ILE779  LEU786  VAL792 
 PHE793  MET794  SER795  GLU796  ALA797  LYS798  CYS799  TRP800  GLU811  SER814 

> <Gold.Protein.RotatedAtoms>
  152.5235  133.9550  159.7689 H   0  0  0  0  0  0  0  0  0  0  0  0  # atno 6907 bound_to 6896
  150.9852  133.6197  159.2723 H   0  0  0  0  0  0  0  0  0  0  0  0  # atno 6908 bound_to 6896
  151.3360  135.0858  159.9408 H   0  0  0  0  0  0  0  0  0  0  0  0  # atno 6909 bound_to 6896
  145.1347  140.8744  143.3737 H   0  0  0  0  0  0  0  0  0  0  0  0  # atno 7974 bound_to 7965
  155.0824  140.3211  155.4597 H   0  0  0  0  0  0  0  0  0  0  0  0  # atno 8008 bound_to 7997
  156.2764  140.2092  156.5897 H   0  0  0  0  0  0  0  0  0  0  0  0  # atno 8009 bound_to 7997
  154.6968  140.0511  157.0406 H   0  0  0  0  0  0  0  0  0  0  0  0  # atno 8010 bound_to 7997
  139.8369  143.7373  152.2664 H   0  0  0  0  0  0  0  0  0  0  0  0  # atno 10167 bound_to 10162
  155.9984  130.4834  150.5013 H   0  0  0  0  0  0  0  0  0  0  0  0  # atno 10718 bound_to 10713
  153.2211  135.4355  155.0490 H   0  0  0  0  0  0  0  0  0  0  0  0  # atno 10763 bound_to 10752
  154.8250  135.3356  154.6926 H   0  0  0  0  0  0  0  0  0  0  0  0  # atno 10764 bound_to 10752
  153.7358  135.7008  153.5034 H   0  0  0  0  0  0  0  0  0  0  0  0  # atno 10765 bound_to 10752
  140.1814  134.4099  155.8198 H   0  0  0  0  0  0  0  0  0  0  0  0  # atno 11005 bound_to 11000
  145.0597  139.3115  143.5887 LP  0  0  0  0  0  0  0  0  0  0  0  0  # atno 17320 bound_to 7965
  146.3511  140.0034  142.8674 LP  0  0  0  0  0  0  0  0  0  0  0  0  # atno 17321 bound_to 7965
  139.7598  144.7510  151.0381 LP  0  0  0  0  0  0  0  0  0  0  0  0  # atno 17342 bound_to 10162
  140.7802  143.4764  151.0077 LP  0  0  0  0  0  0  0  0  0  0  0  0  # atno 17343 bound_to 10162
  157.2997  131.0643  151.2077 LP  0  0  0  0  0  0  0  0  0  0  0  0  # atno 17370 bound_to 10713
  157.3060  130.6866  149.6190 LP  0  0  0  0  0  0  0  0  0  0  0  0  # atno 17371 bound_to 10713
  141.2223  133.7002  156.7937 LP  0  0  0  0  0  0  0  0  0  0  0  0  # atno 17394 bound_to 11000
  140.2263  134.8719  157.3430 LP  0  0  0  0  0  0  0  0  0  0  0  0  # atno 17395 bound_to 11000

$$$$
