AV-unprocessed.smi:1130|AV-procd|sdf|4849|dock5
  -GOLD-   22720 3413D 1   1.00000     0.00000
 Structure written by MMmdl.
 36 37  0  0  0  0  0  0  0  0  1 V2000
  144.4143  145.8221  154.0602 C   0  0  0  0  0  0  0  0  0  0  0  0
  144.9584  144.4918  154.4556 C   0  0  0  0  0  0  0  0  0  0  0  0
  144.6236  143.9211  155.6064 N   0  0  0  0  0  0  0  0  0  0  0  0
  145.3277  142.7086  155.5828 O   0  0  0  0  0  0  0  0  0  0  0  0
  146.0217  142.7070  154.4192 C   0  0  0  0  0  0  0  0  0  0  0  0
  146.8424  141.5114  154.0702 C   0  0  0  0  0  0  0  0  0  0  0  0
  148.3160  141.8686  153.8160 C   0  0  0  0  0  0  0  0  0  0  0  0
  148.9724  142.3553  155.0241 N   0  0  0  0  0  0  0  0  0  0  0  0
  149.9988  141.7481  155.6358 C   0  0  0  0  0  0  0  0  0  0  0  0
  150.5162  140.7036  155.2395 O   0  0  0  0  0  0  0  0  0  0  0  0
  150.3937  142.4169  156.7280 N   0  0  0  0  0  0  0  0  0  0  0  0
  151.5034  142.0279  157.5910 C   0  0  0  0  0  0  0  0  0  0  0  0
  151.4366  142.7458  158.9486 C   0  0  1  0  0  0  0  0  0  0  0  0
  152.5659  142.3593  159.9007 C   0  0  0  0  0  0  0  0  0  0  0  0
  152.5985  143.5506  160.8306 C   0  0  0  0  0  0  0  0  0  0  0  0
  152.3201  144.7069  159.8735 C   0  0  0  0  0  0  0  0  0  0  0  0
  151.5695  144.1565  158.7937 O   0  0  0  0  0  0  0  0  0  0  0  0
  145.8164  143.7866  153.6687 N   0  0  0  0  0  0  0  0  0  0  0  0
  143.6999  146.1873  154.7987 H   0  0  0  0  0  0  0  0  0  0  0  0
  143.9074  145.7506  153.0977 H   0  0  0  0  0  0  0  0  0  0  0  0
  145.2229  146.5482  153.9738 H   0  0  0  0  0  0  0  0  0  0  0  0
  146.7593  140.7880  154.8822 H   0  0  0  0  0  0  0  0  0  0  0  0
  146.4112  141.0399  153.1861 H   0  0  0  0  0  0  0  0  0  0  0  0
  148.8565  140.9874  153.4695 H   0  0  0  0  0  0  0  0  0  0  0  0
  148.3963  142.6143  153.0230 H   0  0  0  0  0  0  0  0  0  0  0  0
  148.6159  143.2105  155.4252 H   0  0  0  0  0  0  0  0  0  0  0  0
  149.9033  143.2650  156.9715 H   0  0  0  0  0  0  0  0  0  0  0  0
  151.4391  140.9506  157.7448 H   0  0  0  0  0  0  0  0  0  0  0  0
  152.4624  142.2123  157.1038 H   0  0  0  0  0  0  0  0  0  0  0  0
  150.4795  142.5483  159.4345 H   0  0  0  0  0  0  0  0  0  0  0  0
  152.3838  141.4168  160.4176 H   0  0  0  0  0  0  0  0  0  0  0  0
  153.5126  142.2788  159.3644 H   0  0  0  0  0  0  0  0  0  0  0  0
  151.7976  143.4701  161.5668 H   0  0  0  0  0  0  0  0  0  0  0  0
  153.5440  143.6561  161.3631 H   0  0  0  0  0  0  0  0  0  0  0  0
  151.7803  145.5211  160.3575 H   0  0  0  0  0  0  0  0  0  0  0  0
  153.2523  145.1091  159.4758 H   0  0  0  0  0  0  0  0  0  0  0  0
  1  2  1  0  0  0  0
  1 19  1  0  0  0  0
  1 20  1  0  0  0  0
  1 21  1  0  0  0  0
  2 18  1  0  0  0  0
  2  3  2  0  0  0  0
  3  4  1  0  0  0  0
  4  5  1  0  0  0  0
  5  6  1  0  0  0  0
  5 18  2  0  0  0  0
  6  7  1  0  0  0  0
  6 22  1  0  0  0  0
  6 23  1  0  0  0  0
  7  8  1  0  0  0  0
  7 24  1  0  0  0  0
  7 25  1  0  0  0  0
  8  9  1  0  0  0  0
  8 26  1  0  0  0  0
  9 10  2  0  0  0  0
  9 11  1  0  0  0  0
 11 12  1  0  0  0  0
 11 27  1  0  0  0  0
 12 13  1  0  0  0  0
 12 28  1  0  0  0  0
 12 29  1  0  0  0  0
 13 17  1  0  0  0  0
 13 14  1  0  0  0  0
 13 30  1  0  0  0  0
 14 15  1  0  0  0  0
 14 31  1  0  0  0  0
 14 32  1  0  0  0  0
 15 16  1  0  0  0  0
 15 33  1  0  0  0  0
 15 34  1  0  0  0  0
 16 17  1  0  0  0  0
 16 35  1  0  0  0  0
 16 36  1  0  0  0  0
M  END
> <s_m_source_file>
AV-unprocessed.smi

> <i_m_source_file_index>
1130

> <i_lp_mmshare_version>
43012

> <i_f3d_flags>
0

> <s_epik_input>
W0NIM11jMW5vYyhuMSlbQ0gyXVtDSDJdW05IXUMoPU8pW05IXVtDSDJdW0NAQEhdMltDSDJdW0NIMl1bQ0gyXU8y

> <s_epik_cmdline>
J2VwaWtfcHl0aG9uJywgJy1waCcsICc3LjAnLCAnLXRuJywgJzgnLCAnLW1hJywgJzIwMCcsICctbWV0YWxfYmluZGluZycsICctaW1hZScsICc8aW5maWxlLm1hZT4nLCAnLW9tYWUnLCAnPG91dGZpbGUubWFlPic=

> <r_lp_tautomer_probability>
1

> <r_epik_Ionization_Penalty>
4.67036e-05

> <r_epik_Ionization_Penalty_Charging>
0

> <r_epik_Ionization_Penalty_Neutral>
4.67036e-05

> <r_epik_State_Penalty>
-0

> <r_epik_Charging_Adjusted_Penalty>
0

> <i_epik_Tot_Q>
0

> <i_epik_Tot_abs_Q>
0

> <r_epik_Metal_State_Penalty>
-0

> <b_epik_Metal_Only>
0

> <s_lp_Force_Field>
OPLS_2005

> <r_lp_Energy>
9.65739

> <b_lp_Chiralities_Consistent>
1

> <s_lp_Variant>
AV-unprocessed.smi:1130-2

> <Gold.Version>
5.8.1

> <Gold.Id.Protein>
6NUR|6NUR_protein|mol2

> <Gold.PLP.Fitness>
43.5597

> <Gold.PLP.PLP>
-36.3462

> <Gold.PLP.part.hbond>
-3.0000

> <Gold.PLP.part.metal>
0.0000

> <Gold.PLP.part.buried>
-6.2995

> <Gold.PLP.part.nonpolar>
-27.6216

> <Gold.PLP.part.repulsive>
0.9878

> <Gold.PLP.ligand.clash>
0.0000

> <Gold.PLP.ligand.torsion>
0.1340

> <Gold.PLP.Chemscore.Hbond>
2.4744

> <Gold.PLP.Chemscore.CHOScore>
0.0000

> <Gold.PLP.Chemscore.Metal>
0.0000

> <Gold.Chemscore.Hbonds>
donor molecule, donor type, donor heavy atom, donor atom, acceptor molecule, acceptor atom, score
      L1  H     8    26       P1  8028  0.91
      L1  H    11    27       P1  8028  0.35
      P1  H  7989  7998       L1    10  0.80

> <Gold.PLP.Chemscore.Internal.Correction>
0.0584

> <Gold.Rescore>
     Score         DG    S(hbond)    S(metal)    S(lipo)     H(rot)  DE(clash)    DE(int)     intcor
     16.38     -16.66       2.33        0.00      80.01       2.33       0.18       0.11       ----

> <Gold.Chemscore.Fitness>
16.3780

> <Gold.Chemscore.DG>
-16.6611

> <Gold.Chemscore.ZeroCoef>
-5.4800

> <Gold.Chemscore.Hbond>
2.3299

> <Gold.Chemscore.Metal>
0.0000

> <Gold.Chemscore.Lipo>
80.0083

> <Gold.Chemscore.Internal_Hbond>
0.0000

> <Gold.Chemscore.DEClash>
0.1763

> <Gold.Chemscore.DEInternal>
0.1067

> <Gold.Chemscore.Rot>
2.3288

> <Gold.Chemscore.Internal.Correction>
   9.000000E+99

> <Gold.Chemscore.Hbonds>
donor molecule, donor type, donor heavy atom, donor atom, acceptor molecule, acceptor atom, score
      L1  H     8    26       P1  8028  0.84
      L1  H    11    27       P1  8028  0.35
      P1  H  7989  7998       L1    10  0.68

> <Gold.Chemscore.Hbond.Weighted>
-7.7818

> <Gold.Chemscore.Metal.Weighted>
-0.0000

> <Gold.Chemscore.Lipo.Weighted>
-9.3610

> <Gold.Chemscore.Internal_Hbond.Weighted>
0.0000

> <Gold.Chemscore.DEClash.Weighted>
0.1763

> <Gold.Chemscore.DEInternal.Weighted>
0.1067

> <Gold.Chemscore.Rot.Weighted>
5.9617

> <Gold.Chemscore.Internal.Correction.Weighted>
   9.000000E+99

> <Gold.Protein.RotatedTorsions>
[ 6907 6896 6895 6894 ] final -168.94 input  -60.11 | X-H torsion
[ 7974 7965 7964 7962 ] final  172.43 input  175.53 | X-H torsion
[ 8008 7997 7996 7995 ] final  146.66 input   59.86 | X-H torsion
[ 10167 10162 10161 10158 ] final  -90.21 input  -65.29 | X-H torsion
[ 10718 10713 10712 10709 ] final -140.99 input   66.30 | X-H torsion
[ 10763 10752 10751 10750 ] final    7.44 input  -60.55 | X-H torsion
[ 11005 11000 10999 10996 ] final   46.72 input  -57.11 | X-H torsion

> <Gold.Protein.ActiveResidues>
 VAL166  LYS551  ARG553  GLY616  TRP617  ASP618  TYR619  PRO620  LYS621  CYS622 
 ASP623  PHE694  ASN695  SER759  ASP760  ASP761  ALA762  ILE779  LEU786  VAL792 
 PHE793  MET794  SER795  GLU796  ALA797  LYS798  CYS799  TRP800  GLU811  SER814 

> <Gold.Protein.RotatedAtoms>
  151.4836  133.3541  159.2841 H   0  0  0  0  0  0  0  0  0  0  0  0  # atno 6907 bound_to 6896
  150.8881  134.8283  159.7284 H   0  0  0  0  0  0  0  0  0  0  0  0  # atno 6908 bound_to 6896
  152.4806  134.4742  159.9697 H   0  0  0  0  0  0  0  0  0  0  0  0  # atno 6909 bound_to 6896
  144.7268  139.9497  143.6431 H   0  0  0  0  0  0  0  0  0  0  0  0  # atno 7974 bound_to 7965
  156.2848  140.2176  156.5413 H   0  0  0  0  0  0  0  0  0  0  0  0  # atno 8008 bound_to 7997
  154.7367  140.0491  157.0797 H   0  0  0  0  0  0  0  0  0  0  0  0  # atno 8009 bound_to 7997
  155.0283  140.3132  155.4771 H   0  0  0  0  0  0  0  0  0  0  0  0  # atno 8010 bound_to 7997
  140.3571  143.2861  151.9658 H   0  0  0  0  0  0  0  0  0  0  0  0  # atno 10167 bound_to 10162
  156.3287  130.7574  151.1688 H   0  0  0  0  0  0  0  0  0  0  0  0  # atno 10718 bound_to 10713
  153.2363  135.6898  153.7833 H   0  0  0  0  0  0  0  0  0  0  0  0  # atno 10763 bound_to 10752
  153.6979  135.3302  155.3219 H   0  0  0  0  0  0  0  0  0  0  0  0  # atno 10764 bound_to 10752
  154.8336  135.4561  154.1267 H   0  0  0  0  0  0  0  0  0  0  0  0  # atno 10765 bound_to 10752
  140.1343  134.4665  155.8497 H   0  0  0  0  0  0  0  0  0  0  0  0  # atno 11005 bound_to 11000
  146.0721  139.3709  143.0517 LP  0  0  0  0  0  0  0  0  0  0  0  0  # atno 17320 bound_to 7965
  145.7955  140.9795  143.1026 LP  0  0  0  0  0  0  0  0  0  0  0  0  # atno 17321 bound_to 7965
  139.4818  144.6025  151.7580 LP  0  0  0  0  0  0  0  0  0  0  0  0  # atno 17342 bound_to 10162
  140.5163  144.0948  150.6009 LP  0  0  0  0  0  0  0  0  0  0  0  0  # atno 17343 bound_to 10162
  157.7426  131.0487  150.5010 LP  0  0  0  0  0  0  0  0  0  0  0  0  # atno 17370 bound_to 10713
  156.5172  130.4153  149.6269 LP  0  0  0  0  0  0  0  0  0  0  0  0  # atno 17371 bound_to 10713
  141.2175  133.6808  156.7128 LP  0  0  0  0  0  0  0  0  0  0  0  0  # atno 17394 bound_to 11000
  140.2802  134.8323  157.3926 LP  0  0  0  0  0  0  0  0  0  0  0  0  # atno 17395 bound_to 11000

$$$$
