AV-unprocessed.smi:240|AV-procd|sdf|1835|dock1
  -GOLD-   2262020443D 1   1.00000     0.00000
 Structure written by MMmdl.
 55 59  0  0  0  0  0  0  0  0  1 V2000
  149.7182  143.7392  158.1413 O   0  0  0  0  0  0  0  0  0  0  0  0
  150.9835  143.2350  157.7628 C   0  0  1  0  0  0  0  0  0  0  0  0
  152.0661  143.7351  158.7368 C   0  0  0  0  0  0  0  0  0  0  0  0
  152.5862  142.4961  159.4687 C   0  0  0  0  0  0  0  0  0  0  0  0
  152.3634  141.3546  158.4809 C   0  0  0  0  0  0  0  0  0  0  0  0
  151.0099  141.6890  157.8384 C   0  0  2  0  0  0  0  0  0  0  0  0
  150.6931  140.9144  156.5197 C   0  0  2  0  0  0  0  0  0  0  0  0
  150.2101  141.8352  155.3672 C   0  0  0  0  0  0  0  0  0  0  0  0
  149.9182  141.0727  154.2028 O   0  0  0  0  0  0  0  0  0  0  0  0
  148.8696  140.1433  154.4330 C   0  0  0  0  0  0  0  0  0  0  0  0
  149.3322  139.1384  155.4940 C   0  0  0  0  0  0  0  0  0  0  0  0
  149.7213  139.8273  156.7202 N   0  0  0  0  0  0  0  0  0  0  0  0
  149.9963  138.9161  157.6835 C   0  0  0  0  0  0  0  0  0  0  0  0
  151.2354  138.8539  158.2397 N   0  0  0  0  0  0  0  0  0  0  0  0
  151.4974  137.9461  159.1847 C   0  0  0  0  0  0  0  0  0  0  0  0
  150.6835  137.0253  159.7065 N   0  0  0  0  0  0  0  0  0  0  0  0
  149.4405  137.0840  159.1465 C   0  0  0  0  0  0  0  0  0  0  0  0
  149.0232  137.9823  158.1255 C   0  0  0  0  0  0  0  0  0  0  0  0
  147.7011  137.7374  157.7822 N   0  0  0  0  0  0  0  0  0  0  0  0
  147.3536  136.7488  158.5597 C   0  0  0  0  0  0  0  0  0  0  0  0
  148.3266  136.3113  159.4321 N   0  0  0  0  0  0  0  0  0  0  0  0
  148.2048  135.2336  160.4046 C   0  0  0  0  0  0  0  0  0  0  0  0
  147.2375  135.5165  161.5847 C   0  0  2  0  0  0  0  0  0  0  0  0
  147.8654  136.4895  162.3995 O   0  0  0  0  0  0  0  0  0  0  0  0
  146.9113  134.3072  162.4655 C   0  0  0  0  0  0  0  0  0  0  0  0
  145.4775  134.5707  162.9054 C   0  0  0  0  0  0  0  0  0  0  0  0
  144.9030  135.1294  161.7383 O   0  0  0  0  0  0  0  0  0  0  0  0
  145.8407  136.0475  161.1913 C   0  0  0  0  0  0  0  0  0  0  0  0
  149.1859  143.8285  157.3653 H   0  0  0  0  0  0  0  0  0  0  0  0
  151.2047  143.6025  156.7625 H   0  0  0  0  0  0  0  0  0  0  0  0
  152.8806  144.1834  158.1663 H   0  0  0  0  0  0  0  0  0  0  0  0
  151.7057  144.4954  159.4313 H   0  0  0  0  0  0  0  0  0  0  0  0
  153.6292  142.5952  159.7710 H   0  0  0  0  0  0  0  0  0  0  0  0
  151.9930  142.3238  160.3679 H   0  0  0  0  0  0  0  0  0  0  0  0
  153.1712  141.3637  157.7508 H   0  0  0  0  0  0  0  0  0  0  0  0
  152.3647  140.3784  158.9667 H   0  0  0  0  0  0  0  0  0  0  0  0
  150.2820  141.3910  158.5944 H   0  0  0  0  0  0  0  0  0  0  0  0
  151.6220  140.4525  156.1812 H   0  0  0  0  0  0  0  0  0  0  0  0
  149.3265  142.4100  155.6431 H   0  0  0  0  0  0  0  0  0  0  0  0
  150.9803  142.5540  155.0927 H   0  0  0  0  0  0  0  0  0  0  0  0
  147.9616  140.6603  154.7486 H   0  0  0  0  0  0  0  0  0  0  0  0
  148.6385  139.6279  153.5008 H   0  0  0  0  0  0  0  0  0  0  0  0
  148.5287  138.4294  155.6997 H   0  0  0  0  0  0  0  0  0  0  0  0
  150.1787  138.5639  155.1141 H   0  0  0  0  0  0  0  0  0  0  0  0
  152.5021  137.9613  159.5812 H   0  0  0  0  0  0  0  0  0  0  0  0
  146.3658  136.3131  158.5217 H   0  0  0  0  0  0  0  0  0  0  0  0
  147.8855  134.3369  159.8716 H   0  0  0  0  0  0  0  0  0  0  0  0
  149.2021  135.0156  160.7889 H   0  0  0  0  0  0  0  0  0  0  0  0
  147.9913  136.1228  163.2614 H   0  0  0  0  0  0  0  0  0  0  0  0
  146.9188  133.3827  161.8928 H   0  0  0  0  0  0  0  0  0  0  0  0
  147.5964  134.1742  163.3041 H   0  0  0  0  0  0  0  0  0  0  0  0
  144.9573  133.6651  163.2182 H   0  0  0  0  0  0  0  0  0  0  0  0
  145.4397  135.2940  163.7214 H   0  0  0  0  0  0  0  0  0  0  0  0
  145.6493  137.0348  161.6151 H   0  0  0  0  0  0  0  0  0  0  0  0
  145.6900  136.1313  160.1181 H   0  0  0  0  0  0  0  0  0  0  0  0
  1  2  1  0  0  0  0
  1 29  1  0  0  0  0
  2  6  1  0  0  0  0
  2  3  1  0  0  0  0
  2 30  1  0  0  0  0
  3  4  1  0  0  0  0
  3 31  1  0  0  0  0
  3 32  1  0  0  0  0
  4  5  1  0  0  0  0
  4 33  1  0  0  0  0
  4 34  1  0  0  0  0
  5  6  1  0  0  0  0
  5 35  1  0  0  0  0
  5 36  1  0  0  0  0
  6  7  1  0  0  0  0
  6 37  1  0  0  0  0
  7 12  1  0  0  0  0
  7  8  1  0  0  0  0
  7 38  1  0  0  0  0
  8  9  1  0  0  0  0
  8 39  1  0  0  0  0
  8 40  1  0  0  0  0
  9 10  1  0  0  0  0
 10 11  1  0  0  0  0
 10 41  1  0  0  0  0
 10 42  1  0  0  0  0
 11 12  1  0  0  0  0
 11 43  1  0  0  0  0
 11 44  1  0  0  0  0
 12 13  1  0  0  0  0
 13 18  1  0  0  0  0
 13 14  2  0  0  0  0
 14 15  1  0  0  0  0
 15 16  2  0  0  0  0
 15 45  1  0  0  0  0
 16 17  1  0  0  0  0
 17 21  1  0  0  0  0
 17 18  2  0  0  0  0
 18 19  1  0  0  0  0
 19 20  2  0  0  0  0
 20 21  1  0  0  0  0
 20 46  1  0  0  0  0
 21 22  1  0  0  0  0
 22 23  1  0  0  0  0
 22 47  1  0  0  0  0
 22 48  1  0  0  0  0
 23 28  1  0  0  0  0
 23 24  1  0  0  0  0
 23 25  1  0  0  0  0
 24 49  1  0  0  0  0
 25 26  1  0  0  0  0
 25 50  1  0  0  0  0
 25 51  1  0  0  0  0
 26 27  1  0  0  0  0
 26 52  1  0  0  0  0
 26 53  1  0  0  0  0
 27 28  1  0  0  0  0
 28 54  1  0  0  0  0
 28 55  1  0  0  0  0
M  END
> <s_m_source_file>
AV-unprocessed.smi

> <i_m_source_file_index>
240

> <i_lp_mmshare_version>
43012

> <i_f3d_flags>
0

> <s_epik_input>
W09IXVtDQEBIXTFbQ0gyXVtDSDJdW0NIMl1bQ0BIXTFbQ0BASF0yW0NIMl1PW0NIMl1bQ0gyXU4yYyhuW2NIXW4zKWMoYzM0KW5bY0hdbjRbQ0gyXVtDQEBdNShbT0hdKVtDSDJdW0NIMl1PW0NIMl01

> <s_epik_cmdline>
J2VwaWtfcHl0aG9uJywgJy1waCcsICc3LjAnLCAnLXRuJywgJzgnLCAnLW1hJywgJzIwMCcsICctbWV0YWxfYmluZGluZycsICctaW1hZScsICc8aW5maWxlLm1hZT4nLCAnLW9tYWUnLCAnPG91dGZpbGUubWFlPic=

> <r_lp_tautomer_probability>
1

> <r_epik_Ionization_Penalty>
0.000130618

> <r_epik_Ionization_Penalty_Charging>
0

> <r_epik_Ionization_Penalty_Neutral>
0.000130618

> <r_epik_State_Penalty>
-0

> <r_epik_Charging_Adjusted_Penalty>
0

> <i_epik_Tot_Q>
0

> <i_epik_Tot_abs_Q>
0

> <r_epik_Metal_State_Penalty>
-0

> <b_epik_Metal_Only>
0

> <s_lp_Force_Field>
OPLS_2005

> <r_lp_Energy>
63.043

> <b_lp_Chiralities_Consistent>
1

> <s_lp_Variant>
AV-unprocessed.smi:240-12

> <Gold.Version>
5.8.1

> <Gold.Id.Protein>
6NUR|6NUR_protein|mol2

> <Gold.PLP.Fitness>
51.6612

> <Gold.PLP.PLP>
-43.2107

> <Gold.PLP.part.hbond>
-5.8193

> <Gold.PLP.part.metal>
0.0000

> <Gold.PLP.part.buried>
-3.6498

> <Gold.PLP.part.nonpolar>
-34.4009

> <Gold.PLP.part.repulsive>
0.1881

> <Gold.PLP.ligand.clash>
0.0000

> <Gold.PLP.ligand.torsion>
1.6264

> <Gold.PLP.Chemscore.Hbond>
3.7995

> <Gold.PLP.Chemscore.CHOScore>
0.0000

> <Gold.PLP.Chemscore.Metal>
0.0000

> <Gold.Chemscore.Hbonds>
donor molecule, donor type, donor heavy atom, donor atom, acceptor molecule, acceptor atom, score
      L1  H     1    29       P1  8028  0.96
      P1  H  6896  6908       L1    16  1.00
      P1  H  6931  6943       L1    24  0.68
      P1  H  7989  7998       L1     9  0.50
      P1  H  8011  8017       L1     9  0.24

> <Gold.PLP.Chemscore.Internal.Correction>
0.3051

> <Gold.Rescore>
     Score         DG    S(hbond)    S(metal)    S(lipo)     H(rot)  DE(clash)    DE(int)     intcor
     12.24     -17.56       2.19        0.00     106.44       3.00       0.99       4.33       ----

> <Gold.Chemscore.Fitness>
12.2382

> <Gold.Chemscore.DG>
-17.5616

> <Gold.Chemscore.ZeroCoef>
-5.4800

> <Gold.Chemscore.Hbond>
2.1910

> <Gold.Chemscore.Metal>
0.0000

> <Gold.Chemscore.Lipo>
106.4402

> <Gold.Chemscore.Internal_Hbond>
0.0000

> <Gold.Chemscore.DEClash>
0.9918

> <Gold.Chemscore.DEInternal>
4.3316

> <Gold.Chemscore.Rot>
3.0039

> <Gold.Chemscore.Internal.Correction>
   9.000000E+99

> <Gold.Chemscore.Hbonds>
donor molecule, donor type, donor heavy atom, donor atom, acceptor molecule, acceptor atom, score
      L1  H     1    29       P1  8028  0.23
      P1  H  6896  6908       L1    16  0.48
      P1  H  6931  6943       L1    24  0.63
      P1  H  7989  7998       L1     9  0.14
      P1  H  8011  8017       L1     9  0.19

> <Gold.Chemscore.Hbond.Weighted>
-7.3180

> <Gold.Chemscore.Metal.Weighted>
-0.0000

> <Gold.Chemscore.Lipo.Weighted>
-12.4535

> <Gold.Chemscore.Internal_Hbond.Weighted>
0.0000

> <Gold.Chemscore.DEClash.Weighted>
0.9918

> <Gold.Chemscore.DEInternal.Weighted>
4.3316

> <Gold.Chemscore.Rot.Weighted>
7.6899

> <Gold.Chemscore.Internal.Correction.Weighted>
   9.000000E+99

> <Gold.Protein.RotatedTorsions>
[ 6907 6896 6895 6894 ] final -149.97 input  -60.11 | X-H torsion
[ 7974 7965 7964 7962 ] final   63.75 input  175.53 | X-H torsion
[ 8008 7997 7996 7995 ] final  156.34 input   59.86 | X-H torsion
[ 10167 10162 10161 10158 ] final  -64.91 input  -65.29 | X-H torsion
[ 10718 10713 10712 10709 ] final  -21.10 input   66.30 | X-H torsion
[ 10763 10752 10751 10750 ] final  -27.87 input  -60.55 | X-H torsion
[ 11005 11000 10999 10996 ] final  167.95 input  -57.11 | X-H torsion

> <Gold.Protein.ActiveResidues>
 VAL166  LYS551  ARG553  GLY616  TRP617  ASP618  TYR619  PRO620  LYS621  CYS622 
 ASP623  PHE694  ASN695  SER759  ASP760  ASP761  ALA762  ILE779  LEU786  VAL792 
 PHE793  MET794  SER795  GLU796  ALA797  LYS798  CYS799  TRP800  GLU811  SER814 

> <Gold.Protein.RotatedAtoms>
  151.1918  133.4662  159.2594 H   0  0  0  0  0  0  0  0  0  0  0  0  # atno 6907 bound_to 6896
  151.1156  135.0051  159.8524 H   0  0  0  0  0  0  0  0  0  0  0  0  # atno 6908 bound_to 6896
  152.5453  134.1834  159.8698 H   0  0  0  0  0  0  0  0  0  0  0  0  # atno 6909 bound_to 6896
  145.8582  139.3297  143.0835 H   0  0  0  0  0  0  0  0  0  0  0  0  # atno 7974 bound_to 7965
  156.2428  140.1915  156.6941 H   0  0  0  0  0  0  0  0  0  0  0  0  # atno 8008 bound_to 7997
  154.6230  140.0606  156.9665 H   0  0  0  0  0  0  0  0  0  0  0  0  # atno 8009 bound_to 7997
  155.1831  140.3278  155.4374 H   0  0  0  0  0  0  0  0  0  0  0  0  # atno 8010 bound_to 7997
  140.5767  143.2322  151.6427 H   0  0  0  0  0  0  0  0  0  0  0  0  # atno 10167 bound_to 10162
  156.5227  130.4636  149.6588 H   0  0  0  0  0  0  0  0  0  0  0  0  # atno 10718 bound_to 10713
  153.7391  135.6933  153.4971 H   0  0  0  0  0  0  0  0  0  0  0  0  # atno 10763 bound_to 10752
  153.2082  135.4412  155.0347 H   0  0  0  0  0  0  0  0  0  0  0  0  # atno 10764 bound_to 10752
  154.8227  135.3430  154.6917 H   0  0  0  0  0  0  0  0  0  0  0  0  # atno 10765 bound_to 10752
  140.2821  134.7742  157.3767 H   0  0  0  0  0  0  0  0  0  0  0  0  # atno 11005 bound_to 11000
  145.9279  140.9069  143.0371 LP  0  0  0  0  0  0  0  0  0  0  0  0  # atno 17320 bound_to 7965
  144.6727  140.1378  143.7439 LP  0  0  0  0  0  0  0  0  0  0  0  0  # atno 17321 bound_to 7965
  139.5147  144.3403  152.0746 LP  0  0  0  0  0  0  0  0  0  0  0  0  # atno 17342 bound_to 10162
  140.2548  144.4131  150.6208 LP  0  0  0  0  0  0  0  0  0  0  0  0  # atno 17343 bound_to 10162
  156.3134  130.7241  151.2138 LP  0  0  0  0  0  0  0  0  0  0  0  0  # atno 17370 bound_to 10713
  157.7434  131.0475  150.4948 LP  0  0  0  0  0  0  0  0  0  0  0  0  # atno 17371 bound_to 10713
  140.1274  134.5140  155.8134 LP  0  0  0  0  0  0  0  0  0  0  0  0  # atno 17394 bound_to 11000
  141.2161  133.6777  156.6976 LP  0  0  0  0  0  0  0  0  0  0  0  0  # atno 17395 bound_to 11000

$$$$
