AV-unprocessed.smi:1773|AV-procd|sdf|7163|dock3
  -GOLD-   22720 8403D 1   1.00000     0.00000
 Structure written by MMmdl.
 40 41  0  0  0  0  0  0  0  0  1 V2000
  147.7621  132.9899  152.2770 C   0  0  0  0  0  0  0  0  0  0  0  0
  146.4456  132.9996  151.5167 C   0  0  0  0  0  0  0  0  0  0  0  0
  145.9463  131.7913  150.9858 C   0  0  0  0  0  0  0  0  0  0  0  0
  144.7293  131.8019  150.2831 C   0  0  0  0  0  0  0  0  0  0  0  0
  144.0591  133.0288  150.1397 C   0  0  0  0  0  0  0  0  0  0  0  0
  144.5288  134.1881  150.6440 N   0  0  0  0  0  0  0  0  0  0  0  0
  145.7021  134.1953  151.3255 C   0  0  0  0  0  0  0  0  0  0  0  0
  146.2574  135.3798  151.8869 N   0  0  0  0  0  0  0  0  0  0  0  0
  145.6410  136.3378  152.6014 C   0  0  0  0  0  0  0  0  0  0  0  0
  144.4432  136.3561  152.8865 O   0  0  0  0  0  0  0  0  0  0  0  0
  146.5048  137.2964  152.9667 N   0  0  0  0  0  0  0  0  0  0  0  0
  146.1789  138.4897  153.7466 C   0  0  0  0  0  0  0  0  0  0  0  0
  147.3009  139.5577  153.7268 C   0  0  0  0  0  0  0  0  0  0  0  0
  147.4804  139.9352  152.3730 O   0  0  0  0  0  0  0  0  0  0  0  0
  146.9648  140.8155  154.5686 C   0  0  0  0  0  0  0  0  0  0  0  0
  148.1355  141.8109  154.6609 C   0  0  0  0  0  0  0  0  0  0  0  0
  149.4121  141.1330  155.1767 C   0  0  0  0  0  0  0  0  0  0  0  0
  149.7863  139.9307  154.2996 C   0  0  0  0  0  0  0  0  0  0  0  0
  148.6267  138.9223  154.2110 C   0  0  0  0  0  0  0  0  0  0  0  0
  148.1798  131.9843  152.3354 H   0  0  0  0  0  0  0  0  0  0  0  0
  147.6181  133.3520  153.2954 H   0  0  0  0  0  0  0  0  0  0  0  0
  148.4935  133.6286  151.7812 H   0  0  0  0  0  0  0  0  0  0  0  0
  146.4872  130.8651  151.1138 H   0  0  0  0  0  0  0  0  0  0  0  0
  144.3203  130.8941  149.8650 H   0  0  0  0  0  0  0  0  0  0  0  0
  143.1211  133.0821  149.6072 H   0  0  0  0  0  0  0  0  0  0  0  0
  147.2454  135.5096  151.7281 H   0  0  0  0  0  0  0  0  0  0  0  0
  147.4674  137.2017  152.6782 H   0  0  0  0  0  0  0  0  0  0  0  0
  145.2479  138.9274  153.3824 H   0  0  0  0  0  0  0  0  0  0  0  0
  145.9727  138.1785  154.7715 H   0  0  0  0  0  0  0  0  0  0  0  0
  148.4072  140.0121  152.2057 H   0  0  0  0  0  0  0  0  0  0  0  0
  146.0950  141.3319  154.1614 H   0  0  0  0  0  0  0  0  0  0  0  0
  146.6884  140.5056  155.5775 H   0  0  0  0  0  0  0  0  0  0  0  0
  148.3250  142.2503  153.6808 H   0  0  0  0  0  0  0  0  0  0  0  0
  147.8649  142.6372  155.3188 H   0  0  0  0  0  0  0  0  0  0  0  0
  150.2333  141.8502  155.1957 H   0  0  0  0  0  0  0  0  0  0  0  0
  149.2631  140.8046  156.2061 H   0  0  0  0  0  0  0  0  0  0  0  0
  150.0581  140.2743  153.3008 H   0  0  0  0  0  0  0  0  0  0  0  0
  150.6713  139.4394  154.7048 H   0  0  0  0  0  0  0  0  0  0  0  0
  148.4747  138.4862  155.1995 H   0  0  0  0  0  0  0  0  0  0  0  0
  148.9101  138.0945  153.5593 H   0  0  0  0  0  0  0  0  0  0  0  0
  1  2  1  0  0  0  0
  1 20  1  0  0  0  0
  1 21  1  0  0  0  0
  1 22  1  0  0  0  0
  2  7  1  0  0  0  0
  2  3  2  0  0  0  0
  3  4  1  0  0  0  0
  3 23  1  0  0  0  0
  4  5  2  0  0  0  0
  4 24  1  0  0  0  0
  5  6  1  0  0  0  0
  5 25  1  0  0  0  0
  6  7  2  0  0  0  0
  7  8  1  0  0  0  0
  8  9  1  0  0  0  0
  8 26  1  0  0  0  0
  9 10  2  0  0  0  0
  9 11  1  0  0  0  0
 11 12  1  0  0  0  0
 11 27  1  0  0  0  0
 12 13  1  0  0  0  0
 12 28  1  0  0  0  0
 12 29  1  0  0  0  0
 13 19  1  0  0  0  0
 13 14  1  0  0  0  0
 13 15  1  0  0  0  0
 14 30  1  0  0  0  0
 15 16  1  0  0  0  0
 15 31  1  0  0  0  0
 15 32  1  0  0  0  0
 16 17  1  0  0  0  0
 16 33  1  0  0  0  0
 16 34  1  0  0  0  0
 17 18  1  0  0  0  0
 17 35  1  0  0  0  0
 17 36  1  0  0  0  0
 18 19  1  0  0  0  0
 18 37  1  0  0  0  0
 18 38  1  0  0  0  0
 19 39  1  0  0  0  0
 19 40  1  0  0  0  0
M  END
> <s_m_source_file>
AV-unprocessed.smi

> <i_m_source_file_index>
1773

> <i_lp_mmshare_version>
43012

> <i_f3d_flags>
0

> <s_epik_input>
W0NIM11jMVtjSF1bY0hdW2NIXW5jMVtOSF1DKD1PKVtOSF1bQ0gyXUMyKFtPSF0pW0NIMl1bQ0gyXVtDSDJdW0NIMl1bQ0gyXTI=

> <s_epik_cmdline>
J2VwaWtfcHl0aG9uJywgJy1waCcsICc3LjAnLCAnLXRuJywgJzgnLCAnLW1hJywgJzIwMCcsICctbWV0YWxfYmluZGluZycsICctaW1hZScsICc8aW5maWxlLm1hZT4nLCAnLW9tYWUnLCAnPG91dGZpbGUubWFlPic=

> <r_lp_tautomer_probability>
1

> <r_epik_Ionization_Penalty>
6.74357e-05

> <r_epik_Ionization_Penalty_Charging>
0

> <r_epik_Ionization_Penalty_Neutral>
6.74357e-05

> <r_epik_State_Penalty>
-0

> <r_epik_Charging_Adjusted_Penalty>
0

> <i_epik_Tot_Q>
0

> <i_epik_Tot_abs_Q>
0

> <r_epik_Metal_State_Penalty>
-0

> <b_epik_Metal_Only>
0

> <s_lp_Force_Field>
OPLS_2005

> <r_lp_Energy>
17.1315

> <b_lp_Chiralities_Consistent>
1

> <s_lp_Variant>
AV-unprocessed.smi:1773-1

> <Gold.Version>
5.8.1

> <Gold.Id.Protein>
6NUR|6NUR_protein|mol2

> <Gold.PLP.Fitness>
44.8042

> <Gold.PLP.PLP>
-34.2417

> <Gold.PLP.part.hbond>
-2.3456

> <Gold.PLP.part.metal>
0.0000

> <Gold.PLP.part.buried>
-5.3066

> <Gold.PLP.part.nonpolar>
-27.9374

> <Gold.PLP.part.repulsive>
0.3945

> <Gold.PLP.ligand.clash>
0.0000

> <Gold.PLP.ligand.torsion>
0.4655

> <Gold.PLP.Chemscore.Hbond>
2.8268

> <Gold.PLP.Chemscore.CHOScore>
1.0000

> <Gold.PLP.Chemscore.Metal>
0.0000

> <Gold.Chemscore.Hbonds>
donor molecule, donor type, donor heavy atom, donor atom, acceptor molecule, acceptor atom, score
      L1  H     8    26       P1  7948  1.00
      L1  H    11    27       P1  7948  1.00
      L1  H    14    30       P1  7957  0.94
      L1  C     5    25       P1 10186  1.00

> <Gold.PLP.Chemscore.Internal.Correction>
0.0131

> <Gold.Rescore>
     Score         DG    S(hbond)    S(metal)    S(lipo)     H(rot)  DE(clash)    DE(int)     intcor
     19.90     -20.33       2.87        0.00      82.86       1.73       0.01       0.42       ----

> <Gold.Chemscore.Fitness>
19.9032

> <Gold.Chemscore.DG>
-20.3350

> <Gold.Chemscore.ZeroCoef>
-5.4800

> <Gold.Chemscore.Hbond>
2.8740

> <Gold.Chemscore.Metal>
0.0000

> <Gold.Chemscore.Lipo>
82.8576

> <Gold.Chemscore.Internal_Hbond>
0.0000

> <Gold.Chemscore.DEClash>
0.0086

> <Gold.Chemscore.DEInternal>
0.4232

> <Gold.Chemscore.Rot>
1.7339

> <Gold.Chemscore.Internal.Correction>
   9.000000E+99

> <Gold.Chemscore.Hbonds>
donor molecule, donor type, donor heavy atom, donor atom, acceptor molecule, acceptor atom, score
      L1  H     8    26       P1  7948  0.99
      L1  H    11    27       P1  7948  0.96
      L1  H    14    30       P1  7957  0.90

> <Gold.Chemscore.Hbond.Weighted>
-9.5993

> <Gold.Chemscore.Metal.Weighted>
-0.0000

> <Gold.Chemscore.Lipo.Weighted>
-9.6943

> <Gold.Chemscore.Internal_Hbond.Weighted>
0.0000

> <Gold.Chemscore.DEClash.Weighted>
0.0086

> <Gold.Chemscore.DEInternal.Weighted>
0.4232

> <Gold.Chemscore.Rot.Weighted>
4.4387

> <Gold.Chemscore.Internal.Correction.Weighted>
   9.000000E+99

> <Gold.Protein.RotatedTorsions>
[ 6907 6896 6895 6894 ] final  100.17 input  -60.11 | X-H torsion
[ 7974 7965 7964 7962 ] final  -58.61 input  175.53 | X-H torsion
[ 8008 7997 7996 7995 ] final   12.22 input   59.86 | X-H torsion
[ 10167 10162 10161 10158 ] final  148.38 input  -65.29 | X-H torsion
[ 10718 10713 10712 10709 ] final -111.66 input   66.30 | X-H torsion
[ 10763 10752 10751 10750 ] final   67.47 input  -60.55 | X-H torsion
[ 11005 11000 10999 10996 ] final -134.77 input  -57.11 | X-H torsion

> <Gold.Protein.ActiveResidues>
 VAL166  LYS551  ARG553  GLY616  TRP617  ASP618  TYR619  PRO620  LYS621  CYS622 
 ASP623  PHE694  ASN695  SER759  ASP760  ASP761  ALA762  ILE779  LEU786  VAL792 
 PHE793  MET794  SER795  GLU796  ALA797  LYS798  CYS799  TRP800  GLU811  SER814 

> <Gold.Protein.RotatedAtoms>
  152.5377  134.0317  159.8027 H   0  0  0  0  0  0  0  0  0  0  0  0  # atno 6907 bound_to 6896
  151.0487  133.5635  159.2651 H   0  0  0  0  0  0  0  0  0  0  0  0  # atno 6908 bound_to 6896
  151.2578  135.0651  159.9140 H   0  0  0  0  0  0  0  0  0  0  0  0  # atno 6909 bound_to 6896
  145.8373  140.8440  143.0052 H   0  0  0  0  0  0  0  0  0  0  0  0  # atno 7974 bound_to 7965
  154.8176  140.2878  155.5809 H   0  0  0  0  0  0  0  0  0  0  0  0  # atno 8008 bound_to 7997
  156.2994  140.2556  156.3007 H   0  0  0  0  0  0  0  0  0  0  0  0  # atno 8009 bound_to 7997
  154.9376  140.0382  157.2069 H   0  0  0  0  0  0  0  0  0  0  0  0  # atno 8010 bound_to 7997
  139.4876  144.5684  151.7102 H   0  0  0  0  0  0  0  0  0  0  0  0  # atno 10167 bound_to 10162
  156.0660  130.5879  150.8404 H   0  0  0  0  0  0  0  0  0  0  0  0  # atno 10718 bound_to 10713
  153.0188  135.5283  154.6984 H   0  0  0  0  0  0  0  0  0  0  0  0  # atno 10763 bound_to 10752
  154.6099  135.2877  155.0445 H   0  0  0  0  0  0  0  0  0  0  0  0  # atno 10764 bound_to 10752
  154.1471  135.6569  153.5007 H   0  0  0  0  0  0  0  0  0  0  0  0  # atno 10765 bound_to 10752
  140.8960  134.1751  157.4494 H   0  0  0  0  0  0  0  0  0  0  0  0  # atno 11005 bound_to 11000
  144.6735  140.0760  143.7471 LP  0  0  0  0  0  0  0  0  0  0  0  0  # atno 17320 bound_to 7965
  145.9504  139.2730  143.1215 LP  0  0  0  0  0  0  0  0  0  0  0  0  # atno 17321 bound_to 7965
  140.5266  144.0796  150.6039 LP  0  0  0  0  0  0  0  0  0  0  0  0  # atno 17342 bound_to 10162
  140.3772  143.2822  152.0212 LP  0  0  0  0  0  0  0  0  0  0  0  0  # atno 17343 bound_to 10162
  157.5702  131.0946  150.9429 LP  0  0  0  0  0  0  0  0  0  0  0  0  # atno 17370 bound_to 10713
  156.9647  130.5468  149.5287 LP  0  0  0  0  0  0  0  0  0  0  0  0  # atno 17371 bound_to 10713
  139.8735  134.9878  156.5385 LP  0  0  0  0  0  0  0  0  0  0  0  0  # atno 17394 bound_to 11000
  140.8289  133.8295  155.8965 LP  0  0  0  0  0  0  0  0  0  0  0  0  # atno 17395 bound_to 11000

$$$$
