AV-unprocessed.smi:2411|AV-procd|sdf|9530|dock8
  -GOLD-   2272013163D 1   1.00000     0.00000
 Structure written by MMmdl.
 41 43  0  0  0  0  0  0  0  0  1 V2000
  146.2506  142.3577  153.7310 C   0  0  0  0  0  0  0  0  0  0  0  0
  147.1596  142.1346  154.8472 N   0  0  0  0  0  0  0  0  0  0  0  0
  146.5892  142.2942  156.1792 C   0  0  0  0  0  0  0  0  0  0  0  0
  148.0168  141.0308  154.6608 C   0  0  0  0  0  0  0  0  0  0  0  0
  147.5224  139.9431  154.0205 N   0  0  0  0  0  0  0  0  0  0  0  0
  148.3455  138.9111  153.8288 C   0  0  0  0  0  0  0  0  0  0  0  0
  149.6202  138.8274  154.2089 N   0  0  0  0  0  0  0  0  0  0  0  0
  150.1337  139.8974  154.8504 C   0  0  0  0  0  0  0  0  0  0  0  0
  149.3651  141.0598  155.1046 C   0  0  0  0  0  0  0  0  0  0  0  0
  149.8656  142.1796  155.8239 N   0  0  0  0  0  0  0  0  0  0  0  0
  150.9583  142.2318  156.6018 C   0  0  0  0  0  0  0  0  0  0  0  0
  151.6911  141.2767  156.8588 O   0  0  0  0  0  0  0  0  0  0  0  0
  151.1751  143.4776  157.0452 N   0  0  0  0  0  0  0  0  0  0  0  0
  152.3103  143.9020  157.8613 C   0  0  0  0  0  0  0  0  0  0  0  0
  152.3473  143.4345  159.3161 C   0  0  0  0  0  0  0  0  0  0  0  0
  151.7278  144.4364  160.2848 C   0  0  0  0  0  0  0  0  0  0  0  0
  150.5593  145.2862  159.8454 C   0  0  0  0  0  0  0  0  0  0  0  0
  151.8792  145.9404  160.1813 C   0  0  0  0  0  0  0  0  0  0  0  0
  152.1347  141.9663  159.6422 C   0  0  0  0  0  0  0  0  0  0  0  0
  153.5148  142.5577  159.7515 C   0  0  0  0  0  0  0  0  0  0  0  0
  146.7839  142.4635  152.7867 H   0  0  0  0  0  0  0  0  0  0  0  0
  145.6719  143.2683  153.8885 H   0  0  0  0  0  0  0  0  0  0  0  0
  145.5528  141.5249  153.6364 H   0  0  0  0  0  0  0  0  0  0  0  0
  147.3511  142.1609  156.9482 H   0  0  0  0  0  0  0  0  0  0  0  0
  145.7914  141.5704  156.3505 H   0  0  0  0  0  0  0  0  0  0  0  0
  146.1710  143.2944  156.2931 H   0  0  0  0  0  0  0  0  0  0  0  0
  147.9355  138.0537  153.3164 H   0  0  0  0  0  0  0  0  0  0  0  0
  151.1565  139.7984  155.1801 H   0  0  0  0  0  0  0  0  0  0  0  0
  149.4124  143.0600  155.6267 H   0  0  0  0  0  0  0  0  0  0  0  0
  150.5180  144.1958  156.7779 H   0  0  0  0  0  0  0  0  0  0  0  0
  153.2094  143.5299  157.3698 H   0  0  0  0  0  0  0  0  0  0  0  0
  152.3973  144.9897  157.8451 H   0  0  0  0  0  0  0  0  0  0  0  0
  151.6707  144.0694  161.3079 H   0  0  0  0  0  0  0  0  0  0  0  0
  150.2723  145.2489  158.7962 H   0  0  0  0  0  0  0  0  0  0  0  0
  149.7392  145.4127  160.5493 H   0  0  0  0  0  0  0  0  0  0  0  0
  151.9339  146.4995  161.1131 H   0  0  0  0  0  0  0  0  0  0  0  0
  152.4507  146.3667  159.3615 H   0  0  0  0  0  0  0  0  0  0  0  0
  151.6242  141.7239  160.5722 H   0  0  0  0  0  0  0  0  0  0  0  0
  151.9513  141.2699  158.8275 H   0  0  0  0  0  0  0  0  0  0  0  0
  154.2424  142.2529  159.0024 H   0  0  0  0  0  0  0  0  0  0  0  0
  153.9289  142.6802  160.7483 H   0  0  0  0  0  0  0  0  0  0  0  0
  1  2  1  0  0  0  0
  1 21  1  0  0  0  0
  1 22  1  0  0  0  0
  1 23  1  0  0  0  0
  2  3  1  0  0  0  0
  2  4  1  0  0  0  0
  3 24  1  0  0  0  0
  3 25  1  0  0  0  0
  3 26  1  0  0  0  0
  4  9  1  0  0  0  0
  4  5  2  0  0  0  0
  5  6  1  0  0  0  0
  6  7  2  0  0  0  0
  6 27  1  0  0  0  0
  7  8  1  0  0  0  0
  8  9  2  0  0  0  0
  8 28  1  0  0  0  0
  9 10  1  0  0  0  0
 10 11  1  0  0  0  0
 10 29  1  0  0  0  0
 11 12  2  0  0  0  0
 11 13  1  0  0  0  0
 13 14  1  0  0  0  0
 13 30  1  0  0  0  0
 14 15  1  0  0  0  0
 14 31  1  0  0  0  0
 14 32  1  0  0  0  0
 15 20  1  0  0  0  0
 15 16  1  0  0  0  0
 15 19  1  0  0  0  0
 16 18  1  0  0  0  0
 16 17  1  0  0  0  0
 16 33  1  0  0  0  0
 17 18  1  0  0  0  0
 17 34  1  0  0  0  0
 17 35  1  0  0  0  0
 18 36  1  0  0  0  0
 18 37  1  0  0  0  0
 19 20  1  0  0  0  0
 19 38  1  0  0  0  0
 19 39  1  0  0  0  0
 20 40  1  0  0  0  0
 20 41  1  0  0  0  0
M  END
> <s_m_source_file>
AV-unprocessed.smi

> <i_m_source_file_index>
2411

> <i_lp_mmshare_version>
43012

> <i_f3d_flags>
0

> <s_epik_input>
W0NIM11OKFtDSDNdKWMxbltjSF1uW2NIXWMxW05IXUMoPU8pW05IXVtDSDJdQzIoW0NIMl1bQ0gyXTIpW0NIXTNbQ0gyXVtDSDJdMw==

> <s_epik_cmdline>
J2VwaWtfcHl0aG9uJywgJy1waCcsICc3LjAnLCAnLXRuJywgJzgnLCAnLW1hJywgJzIwMCcsICctbWV0YWxfYmluZGluZycsICctaW1hZScsICc8aW5maWxlLm1hZT4nLCAnLW9tYWUnLCAnPG91dGZpbGUubWFlPic=

> <r_lp_tautomer_probability>
1

> <r_epik_Ionization_Penalty>
0.0183431

> <r_epik_Ionization_Penalty_Charging>
0

> <r_epik_Ionization_Penalty_Neutral>
0.0183431

> <r_epik_State_Penalty>
0.013978

> <r_epik_Charging_Adjusted_Penalty>
0.013978

> <i_epik_Tot_Q>
0

> <i_epik_Tot_abs_Q>
0

> <r_epik_Metal_State_Penalty>
0.0135734

> <b_epik_Metal_Only>
0

> <s_lp_Force_Field>
OPLS_2005

> <r_lp_Energy>
29.7017

> <b_lp_Chiralities_Consistent>
1

> <s_lp_Variant>
AV-unprocessed.smi:2411-1

> <Gold.Version>
5.8.1

> <Gold.Id.Protein>
6NUR|6NUR_protein|mol2

> <Gold.PLP.Fitness>
49.5373

> <Gold.PLP.PLP>
-42.3961

> <Gold.PLP.part.hbond>
-2.0000

> <Gold.PLP.part.metal>
0.0000

> <Gold.PLP.part.buried>
-4.1283

> <Gold.PLP.part.nonpolar>
-36.7055

> <Gold.PLP.part.repulsive>
0.6794

> <Gold.PLP.ligand.clash>
0.0000

> <Gold.PLP.ligand.torsion>
2.2824

> <Gold.PLP.Chemscore.Hbond>
1.9675

> <Gold.PLP.Chemscore.CHOScore>
0.9828

> <Gold.PLP.Chemscore.Metal>
0.0000

> <Gold.Chemscore.Hbonds>
donor molecule, donor type, donor heavy atom, donor atom, acceptor molecule, acceptor atom, score
      L1  H    10    29       P1  8028  1.00
      L1  H    13    30       P1  8028  0.99
      L1  C     6    27       P1  7948  0.99

> <Gold.PLP.Chemscore.Internal.Correction>
2.8553

> <Gold.Rescore>
     Score         DG    S(hbond)    S(metal)    S(lipo)     H(rot)  DE(clash)    DE(int)     intcor
     14.43     -19.65       1.96        0.00     101.85       1.68       0.65       4.57       ----

> <Gold.Chemscore.Fitness>
14.4296

> <Gold.Chemscore.DG>
-19.6547

> <Gold.Chemscore.ZeroCoef>
-5.4800

> <Gold.Chemscore.Hbond>
1.9604

> <Gold.Chemscore.Metal>
0.0000

> <Gold.Chemscore.Lipo>
101.8502

> <Gold.Chemscore.Internal_Hbond>
0.0000

> <Gold.Chemscore.DEClash>
0.6514

> <Gold.Chemscore.DEInternal>
4.5737

> <Gold.Chemscore.Rot>
1.6757

> <Gold.Chemscore.Internal.Correction>
   9.000000E+99

> <Gold.Chemscore.Hbonds>
donor molecule, donor type, donor heavy atom, donor atom, acceptor molecule, acceptor atom, score
      L1  H    10    29       P1  8028  1.00
      L1  H    13    30       P1  8028  0.88

> <Gold.Chemscore.Hbond.Weighted>
-6.5479

> <Gold.Chemscore.Metal.Weighted>
-0.0000

> <Gold.Chemscore.Lipo.Weighted>
-11.9165

> <Gold.Chemscore.Internal_Hbond.Weighted>
0.0000

> <Gold.Chemscore.DEClash.Weighted>
0.6514

> <Gold.Chemscore.DEInternal.Weighted>
4.5737

> <Gold.Chemscore.Rot.Weighted>
4.2897

> <Gold.Chemscore.Internal.Correction.Weighted>
   9.000000E+99

> <Gold.Protein.RotatedTorsions>
[ 6907 6896 6895 6894 ] final   65.12 input  -60.11 | X-H torsion
[ 7974 7965 7964 7962 ] final  132.10 input  175.53 | X-H torsion
[ 8008 7997 7996 7995 ] final   66.74 input   59.86 | X-H torsion
[ 10167 10162 10161 10158 ] final   44.61 input  -65.29 | X-H torsion
[ 10718 10713 10712 10709 ] final  148.39 input   66.30 | X-H torsion
[ 10763 10752 10751 10750 ] final  172.14 input  -60.55 | X-H torsion
[ 11005 11000 10999 10996 ] final -124.07 input  -57.11 | X-H torsion

> <Gold.Protein.ActiveResidues>
 VAL166  LYS551  ARG553  GLY616  TRP617  ASP618  TYR619  PRO620  LYS621  CYS622 
 ASP623  PHE694  ASN695  SER759  ASP760  ASP761  ALA762  ILE779  LEU786  VAL792 
 PHE793  MET794  SER795  GLU796  ALA797  LYS798  CYS799  TRP800  GLU811  SER814 

> <Gold.Protein.RotatedAtoms>
  152.4383  134.5641  159.9902 H   0  0  0  0  0  0  0  0  0  0  0  0  # atno 6907 bound_to 6896
  151.5746  133.3380  159.3004 H   0  0  0  0  0  0  0  0  0  0  0  0  # atno 6908 bound_to 6896
  150.8285  134.7562  159.6898 H   0  0  0  0  0  0  0  0  0  0  0  0  # atno 6909 bound_to 6896
  145.0004  139.4317  143.5295 H   0  0  0  0  0  0  0  0  0  0  0  0  # atno 7974 bound_to 7965
  155.6821  140.3496  155.4859 H   0  0  0  0  0  0  0  0  0  0  0  0  # atno 8008 bound_to 7997
  155.9597  140.1135  157.0928 H   0  0  0  0  0  0  0  0  0  0  0  0  # atno 8009 bound_to 7997
  154.4140  140.1178  156.5149 H   0  0  0  0  0  0  0  0  0  0  0  0  # atno 8010 bound_to 7997
  140.3326  144.2570  150.6166 H   0  0  0  0  0  0  0  0  0  0  0  0  # atno 10167 bound_to 10162
  157.3091  131.0884  151.1330 H   0  0  0  0  0  0  0  0  0  0  0  0  # atno 10718 bound_to 10713
  154.4219  135.2758  155.1970 H   0  0  0  0  0  0  0  0  0  0  0  0  # atno 10763 bound_to 10752
  154.3912  135.6066  153.5848 H   0  0  0  0  0  0  0  0  0  0  0  0  # atno 10764 bound_to 10752
  152.9833  135.5904  154.4516 H   0  0  0  0  0  0  0  0  0  0  0  0  # atno 10765 bound_to 10752
  140.9870  134.0593  157.3700 H   0  0  0  0  0  0  0  0  0  0  0  0  # atno 11005 bound_to 11000
  146.3451  139.9389  142.8743 LP  0  0  0  0  0  0  0  0  0  0  0  0  # atno 17320 bound_to 7965
  145.2161  140.9916  143.4072 LP  0  0  0  0  0  0  0  0  0  0  0  0  # atno 17321 bound_to 7965
  140.5383  143.2228  151.8126 LP  0  0  0  0  0  0  0  0  0  0  0  0  # atno 17342 bound_to 10162
  139.4854  144.4633  151.9515 LP  0  0  0  0  0  0  0  0  0  0  0  0  # atno 17343 bound_to 10162
  157.2659  130.6681  149.5996 LP  0  0  0  0  0  0  0  0  0  0  0  0  # atno 17370 bound_to 10713
  155.9676  130.4494  150.5657 LP  0  0  0  0  0  0  0  0  0  0  0  0  # atno 17371 bound_to 10713
  139.8975  135.0150  156.7102 LP  0  0  0  0  0  0  0  0  0  0  0  0  # atno 17394 bound_to 11000
  140.7100  133.9232  155.8078 LP  0  0  0  0  0  0  0  0  0  0  0  0  # atno 17395 bound_to 11000

$$$$
