AV-unprocessed.smi:161|AV-procd|sdf|1375|dock10
  -GOLD-   2262019 93D 1   1.00000     0.00000
 Structure written by MMmdl.
 52 55  0  0  0  0  0  0  0  0  1 V2000
  146.5976  134.0364  162.4796 C   0  0  0  0  0  0  0  0  0  0  0  0
  147.4117  135.2900  162.1523 C   0  0  0  0  0  0  0  0  0  0  0  0
  147.9238  135.1772  160.8347 O   0  0  0  0  0  0  0  0  0  0  0  0
  148.1508  136.2778  160.0971 C   0  0  0  0  0  0  0  0  0  0  0  0
  148.1559  137.4184  160.5623 O   0  0  0  0  0  0  0  0  0  0  0  0
  148.4043  135.9168  158.6522 C   0  0  2  0  0  0  0  0  0  0  0  0
  147.2125  135.4397  157.8148 C   0  0  0  0  0  0  0  0  0  0  0  0
  148.4198  134.9270  157.0084 C   0  0  2  0  0  0  0  0  0  0  0  0
  148.2721  133.9417  155.8601 C   0  0  0  0  0  0  0  0  0  0  0  0
  148.9501  134.5061  158.3850 C   0  0  0  0  0  0  0  0  0  0  0  0
  149.1881  136.0896  156.6548 O   0  0  0  0  0  0  0  0  0  0  0  0
  149.2178  136.9102  157.8248 C   0  0  0  0  0  0  0  0  0  0  0  0
  150.6835  137.1138  158.3064 C   0  0  0  0  0  0  0  0  0  0  0  0
  151.4500  138.1134  157.4229 C   0  0  0  0  0  0  0  0  0  0  0  0
  150.6926  139.3690  157.3751 N   0  0  0  0  0  0  0  0  0  0  0  0
  150.9138  140.4668  158.1414 C   0  0  0  0  0  0  0  0  0  0  0  0
  150.1085  141.3960  158.2088 O   0  0  0  0  0  0  0  0  0  0  0  0
  152.1387  140.5254  158.9719 C   0  0  0  0  0  0  0  0  0  0  0  0
  152.9286  139.5872  159.5770 C   0  0  0  0  0  0  0  0  0  0  0  0
  153.9848  140.2283  160.2175 N   0  0  0  0  0  0  0  0  0  0  0  0
  153.8869  141.5047  160.0246 N   0  0  0  0  0  0  0  0  0  0  0  0
  152.7843  141.7201  159.2656 N   0  0  0  0  0  0  0  0  0  0  0  0
  152.4426  143.0911  158.9080 C   0  0  0  0  0  0  0  0  0  0  0  0
  152.2122  143.9701  160.1444 C   0  0  0  0  0  0  0  0  0  0  0  0
  149.4347  139.1779  156.6490 C   0  0  0  0  0  0  0  0  0  0  0  0
  148.5296  138.2704  157.5003 C   0  0  0  0  0  0  0  0  0  0  0  0
  146.2010  134.0852  163.4936 H   0  0  0  0  0  0  0  0  0  0  0  0
  147.2113  133.1387  162.4029 H   0  0  0  0  0  0  0  0  0  0  0  0
  145.7553  133.9278  161.7958 H   0  0  0  0  0  0  0  0  0  0  0  0
  146.7768  136.1727  162.2415 H   0  0  0  0  0  0  0  0  0  0  0  0
  148.2363  135.4042  162.8564 H   0  0  0  0  0  0  0  0  0  0  0  0
  146.5702  134.6755  158.2626 H   0  0  0  0  0  0  0  0  0  0  0  0
  146.6221  136.2111  157.3234 H   0  0  0  0  0  0  0  0  0  0  0  0
  147.6870  133.0716  156.1585 H   0  0  0  0  0  0  0  0  0  0  0  0
  149.2443  133.5854  155.5193 H   0  0  0  0  0  0  0  0  0  0  0  0
  147.7704  134.4014  155.0086 H   0  0  0  0  0  0  0  0  0  0  0  0
  150.0296  134.3775  158.4423 H   0  0  0  0  0  0  0  0  0  0  0  0
  148.4283  133.6750  158.8689 H   0  0  0  0  0  0  0  0  0  0  0  0
  150.6836  137.4834  159.3319 H   0  0  0  0  0  0  0  0  0  0  0  0
  151.2332  136.1747  158.3270 H   0  0  0  0  0  0  0  0  0  0  0  0
  152.4669  138.2239  157.7906 H   0  0  0  0  0  0  0  0  0  0  0  0
  151.5551  137.7122  156.4139 H   0  0  0  0  0  0  0  0  0  0  0  0
  152.8235  138.5127  159.6044 H   0  0  0  0  0  0  0  0  0  0  0  0
  153.2481  143.5128  158.3051 H   0  0  0  0  0  0  0  0  0  0  0  0
  151.5588  143.0859  158.2707 H   0  0  0  0  0  0  0  0  0  0  0  0
  152.0226  145.0029  159.8526 H   0  0  0  0  0  0  0  0  0  0  0  0
  153.0817  143.9646  160.8020 H   0  0  0  0  0  0  0  0  0  0  0  0
  151.3522  143.6308  160.7211 H   0  0  0  0  0  0  0  0  0  0  0  0
  148.9298  140.1201  156.4307 H   0  0  0  0  0  0  0  0  0  0  0  0
  149.6281  138.7176  155.6791 H   0  0  0  0  0  0  0  0  0  0  0  0
  147.5834  138.1294  156.9812 H   0  0  0  0  0  0  0  0  0  0  0  0
  148.2960  138.8043  158.4205 H   0  0  0  0  0  0  0  0  0  0  0  0
  1  2  1  0  0  0  0
  1 27  1  0  0  0  0
  1 28  1  0  0  0  0
  1 29  1  0  0  0  0
  2  3  1  0  0  0  0
  2 30  1  0  0  0  0
  2 31  1  0  0  0  0
  3  4  1  0  0  0  0
  4  5  2  0  0  0  0
  4  6  1  0  0  0  0
  6 10  1  0  0  0  0
  6 12  1  0  0  0  0
  6  7  1  0  0  0  0
  7  8  1  0  0  0  0
  7 32  1  0  0  0  0
  7 33  1  0  0  0  0
  8  9  1  0  0  0  0
  8 10  1  0  0  0  0
  8 11  1  0  0  0  0
  9 34  1  0  0  0  0
  9 35  1  0  0  0  0
  9 36  1  0  0  0  0
 10 37  1  0  0  0  0
 10 38  1  0  0  0  0
 11 12  1  0  0  0  0
 12 26  1  0  0  0  0
 12 13  1  0  0  0  0
 13 14  1  0  0  0  0
 13 39  1  0  0  0  0
 13 40  1  0  0  0  0
 14 15  1  0  0  0  0
 14 41  1  0  0  0  0
 14 42  1  0  0  0  0
 15 16  1  0  0  0  0
 15 25  1  0  0  0  0
 16 17  2  0  0  0  0
 16 18  1  0  0  0  0
 18 22  1  0  0  0  0
 18 19  2  0  0  0  0
 19 20  1  0  0  0  0
 19 43  1  0  0  0  0
 20 21  2  0  0  0  0
 21 22  1  0  0  0  0
 22 23  1  0  0  0  0
 23 24  1  0  0  0  0
 23 44  1  0  0  0  0
 23 45  1  0  0  0  0
 24 46  1  0  0  0  0
 24 47  1  0  0  0  0
 24 48  1  0  0  0  0
 25 26  1  0  0  0  0
 25 49  1  0  0  0  0
 25 50  1  0  0  0  0
 26 51  1  0  0  0  0
 26 52  1  0  0  0  0
M  END
> <s_m_source_file>
AV-unprocessed.smi

> <i_m_source_file_index>
161

> <i_lp_mmshare_version>
43012

> <i_f3d_flags>
2

> <s_epik_input>
W0NIM11bQ0gyXU9DKD1PKVtDQEBdMShbQ0gyXVtDQF0oTzIpKFtDSDNdKVtDSDJdMSlDMjNbQ0gyXVtDSDJdTihbQ0gyXVtDSDJdMylDKD1PKWM0W2NIXW5ubjRbQ0gyXVtDSDNd

> <s_epik_cmdline>
J2VwaWtfcHl0aG9uJywgJy1waCcsICc3LjAnLCAnLXRuJywgJzgnLCAnLW1hJywgJzIwMCcsICctbWV0YWxfYmluZGluZycsICctaW1hZScsICc8aW5maWxlLm1hZT4nLCAnLW9tYWUnLCAnPG91dGZpbGUubWFlPic=

> <r_lp_tautomer_probability>
1

> <r_epik_Ionization_Penalty>
1.75517e-07

> <r_epik_Ionization_Penalty_Charging>
0

> <r_epik_Ionization_Penalty_Neutral>
1.75517e-07

> <r_epik_State_Penalty>
-0

> <r_epik_Charging_Adjusted_Penalty>
0

> <i_epik_Tot_Q>
0

> <i_epik_Tot_abs_Q>
0

> <r_epik_Metal_State_Penalty>
-0

> <b_epik_Metal_Only>
0

> <s_epik_Chemistry_Notes>
This compound has an ester and may undergo hydrolysis at high or low pH.

> <s_lp_Force_Field>
OPLS_2005

> <r_lp_Energy>
59.4881

> <b_lp_Chiralities_Consistent>
0

> <s_lp_Variant>
AV-unprocessed.smi:161-1

> <Gold.Version>
5.8.1

> <Gold.Id.Protein>
6NUR|6NUR_protein|mol2

> <Gold.PLP.Fitness>
36.4079

> <Gold.PLP.PLP>
-34.5406

> <Gold.PLP.part.hbond>
-2.4073

> <Gold.PLP.part.metal>
0.0000

> <Gold.PLP.part.buried>
-5.0300

> <Gold.PLP.part.nonpolar>
-27.4600

> <Gold.PLP.part.repulsive>
0.0369

> <Gold.PLP.ligand.clash>
0.0078

> <Gold.PLP.ligand.torsion>
1.5855

> <Gold.PLP.Chemscore.Hbond>
1.4080

> <Gold.PLP.Chemscore.CHOScore>
0.0000

> <Gold.PLP.Chemscore.Metal>
0.0000

> <Gold.Chemscore.Hbonds>
donor molecule, donor type, donor heavy atom, donor atom, acceptor molecule, acceptor atom, score
      P1  H  6931  6943       L1     5  0.67
      P1  H  6934  6947       L1     5  0.62

> <Gold.PLP.Chemscore.Internal.Correction>
0.8222

> <Gold.Rescore>
     Score         DG    S(hbond)    S(metal)    S(lipo)     H(rot)  DE(clash)    DE(int)     intcor
     13.84     -16.10       1.64        0.00      75.92       1.47       0.19       2.07       ----

> <Gold.Chemscore.Fitness>
13.8445

> <Gold.Chemscore.DG>
-16.1025

> <Gold.Chemscore.ZeroCoef>
-5.4800

> <Gold.Chemscore.Hbond>
1.6441

> <Gold.Chemscore.Metal>
0.0000

> <Gold.Chemscore.Lipo>
75.9171

> <Gold.Chemscore.Internal_Hbond>
0.0000

> <Gold.Chemscore.DEClash>
0.1887

> <Gold.Chemscore.DEInternal>
2.0693

> <Gold.Chemscore.Rot>
1.4652

> <Gold.Chemscore.Internal.Correction>
   9.000000E+99

> <Gold.Chemscore.Hbonds>
donor molecule, donor type, donor heavy atom, donor atom, acceptor molecule, acceptor atom, score
      P1  H  6931  6943       L1     5  0.68
      P1  H  6934  6947       L1     5  0.62

> <Gold.Chemscore.Hbond.Weighted>
-5.4913

> <Gold.Chemscore.Metal.Weighted>
-0.0000

> <Gold.Chemscore.Lipo.Weighted>
-8.8823

> <Gold.Chemscore.Internal_Hbond.Weighted>
0.0000

> <Gold.Chemscore.DEClash.Weighted>
0.1887

> <Gold.Chemscore.DEInternal.Weighted>
2.0693

> <Gold.Chemscore.Rot.Weighted>
3.7510

> <Gold.Chemscore.Internal.Correction.Weighted>
   9.000000E+99

> <Gold.Protein.RotatedTorsions>
[ 6907 6896 6895 6894 ] final  -27.85 input  -60.11 | X-H torsion
[ 7974 7965 7964 7962 ] final  -75.46 input  175.53 | X-H torsion
[ 8008 7997 7996 7995 ] final  -57.06 input   59.86 | X-H torsion
[ 10167 10162 10161 10158 ] final  -81.02 input  -65.29 | X-H torsion
[ 10718 10713 10712 10709 ] final   59.14 input   66.30 | X-H torsion
[ 10763 10752 10751 10750 ] final   96.99 input  -60.55 | X-H torsion
[ 11005 11000 10999 10996 ] final   35.76 input  -57.11 | X-H torsion

> <Gold.Protein.ActiveResidues>
 VAL166  LYS551  ARG553  GLY616  TRP617  ASP618  TYR619  PRO620  LYS621  CYS622 
 ASP623  PHE694  ASN695  SER759  ASP760  ASP761  ALA762  ILE779  LEU786  VAL792 
 PHE793  MET794  SER795  GLU796  ALA797  LYS798  CYS799  TRP800  GLU811  SER814 

> <Gold.Protein.RotatedAtoms>
  151.1411  135.0180  159.8625 H   0  0  0  0  0  0  0  0  0  0  0  0  # atno 6907 bound_to 6896
  152.5452  134.1498  159.8524 H   0  0  0  0  0  0  0  0  0  0  0  0  # atno 6908 bound_to 6896
  151.1574  133.4822  159.2627 H   0  0  0  0  0  0  0  0  0  0  0  0  # atno 6909 bound_to 6896
  145.6257  140.9351  143.1114 H   0  0  0  0  0  0  0  0  0  0  0  0  # atno 7974 bound_to 7965
  154.4253  140.1115  156.5737 H   0  0  0  0  0  0  0  0  0  0  0  0  # atno 8008 bound_to 7997
  155.6185  140.3495  155.4625 H   0  0  0  0  0  0  0  0  0  0  0  0  # atno 8009 bound_to 7997
  156.0043  140.1205  157.0507 H   0  0  0  0  0  0  0  0  0  0  0  0  # atno 8010 bound_to 7997
  140.4450  143.2502  151.8571 H   0  0  0  0  0  0  0  0  0  0  0  0  # atno 10167 bound_to 10162
  157.5652  130.8866  149.9176 H   0  0  0  0  0  0  0  0  0  0  0  0  # atno 10718 bound_to 10713
  153.2716  135.4199  155.0993 H   0  0  0  0  0  0  0  0  0  0  0  0  # atno 10763 bound_to 10752
  154.8458  135.3473  154.6236 H   0  0  0  0  0  0  0  0  0  0  0  0  # atno 10764 bound_to 10752
  153.6656  135.7046  153.5220 H   0  0  0  0  0  0  0  0  0  0  0  0  # atno 10765 bound_to 10752
  140.2394  134.3433  155.7932 H   0  0  0  0  0  0  0  0  0  0  0  0  # atno 11005 bound_to 11000
  144.7213  139.8020  143.7381 LP  0  0  0  0  0  0  0  0  0  0  0  0  # atno 17320 bound_to 7965
  146.1396  139.4450  143.0117 LP  0  0  0  0  0  0  0  0  0  0  0  0  # atno 17321 bound_to 7965
  139.4792  144.5186  151.8833 LP  0  0  0  0  0  0  0  0  0  0  0  0  # atno 17342 bound_to 10162
  140.4274  144.2161  150.5887 LP  0  0  0  0  0  0  0  0  0  0  0  0  # atno 17343 bound_to 10162
  156.0701  130.3686  150.0794 LP  0  0  0  0  0  0  0  0  0  0  0  0  # atno 17370 bound_to 10713
  156.8953  130.9602  151.3583 LP  0  0  0  0  0  0  0  0  0  0  0  0  # atno 17371 bound_to 10713
  141.2212  133.7290  156.8861 LP  0  0  0  0  0  0  0  0  0  0  0  0  # atno 17394 bound_to 11000
  140.1669  134.9127  157.2785 LP  0  0  0  0  0  0  0  0  0  0  0  0  # atno 17395 bound_to 11000

$$$$
