AV-unprocessed.smi:2551|AV-procd|sdf|10014|dock3
  -GOLD-   2272014 63D 1   1.00000     0.00000
 Structure written by MMmdl.
 25 26  0  0  0  0  0  0  0  0  2 V2000
  150.6511  140.5960  157.6333 O   0  0  0  0  0  0  0  0  0  0  0  0
  151.8794  140.6647  157.6501 C   0  0  0  0  0  0  0  0  0  0  0  0
  152.6820  139.8116  156.9603 N   0  5  0  0  0  0  0  0  0  0  0  0
  152.2319  139.0539  155.9430 C   0  0  0  0  0  0  0  0  0  0  0  0
  152.7942  137.8790  155.6167 N   0  0  0  0  0  0  0  0  0  0  0  0
  152.1793  137.2607  154.5368 N   0  0  0  0  0  0  0  0  0  0  0  0
  151.1568  137.9836  154.0805 C   0  0  0  0  0  0  0  0  0  0  0  0
  150.8540  139.4860  154.9269 S   0  0  0  0  0  0  0  0  0  0  0  0
  152.4679  141.6277  158.3863 N   0  0  0  0  0  0  0  0  0  0  0  0
  151.7846  142.6374  159.1909 C   0  0  0  0  0  0  0  0  0  0  0  0
  150.8085  143.4548  158.3233 C   0  0  0  0  0  0  0  0  0  0  0  0
  151.0821  144.9242  158.6475 C   0  0  0  0  0  0  0  0  0  0  0  0
  152.5599  144.9577  159.0228 C   0  0  0  0  0  0  0  0  0  0  0  0
  152.7806  143.6521  159.7870 C   0  0  0  0  0  0  0  0  0  0  0  0
  150.5767  137.6295  153.2413 H   0  0  0  0  0  0  0  0  0  0  0  0
  153.4770  141.6557  158.3889 H   0  0  0  0  0  0  0  0  0  0  0  0
  151.2311  142.1525  159.9971 H   0  0  0  0  0  0  0  0  0  0  0  0
  151.0018  143.2847  157.2627 H   0  0  0  0  0  0  0  0  0  0  0  0
  149.7685  143.1834  158.5071 H   0  0  0  0  0  0  0  0  0  0  0  0
  150.8437  145.5890  157.8168 H   0  0  0  0  0  0  0  0  0  0  0  0
  150.4799  145.2304  159.5039 H   0  0  0  0  0  0  0  0  0  0  0  0
  153.1688  144.9614  158.1177 H   0  0  0  0  0  0  0  0  0  0  0  0
  152.8263  145.8378  159.6089 H   0  0  0  0  0  0  0  0  0  0  0  0
  152.5449  143.8073  160.8405 H   0  0  0  0  0  0  0  0  0  0  0  0
  153.8195  143.3221  159.7383 H   0  0  0  0  0  0  0  0  0  0  0  0
  1  2  2  0  0  0  0
  2  3  1  0  0  0  0
  2  9  1  0  0  0  0
  3  4  1  0  0  0  0
  4  8  1  0  0  0  0
  4  5  2  0  0  0  0
  5  6  1  0  0  0  0
  6  7  2  0  0  0  0
  7  8  1  0  0  0  0
  7 15  1  0  0  0  0
  9 10  1  0  0  0  0
  9 16  1  0  0  0  0
 10 14  1  0  0  0  0
 10 11  1  0  0  0  0
 10 17  1  0  0  0  0
 11 12  1  0  0  0  0
 11 18  1  0  0  0  0
 11 19  1  0  0  0  0
 12 13  1  0  0  0  0
 12 20  1  0  0  0  0
 12 21  1  0  0  0  0
 13 14  1  0  0  0  0
 13 22  1  0  0  0  0
 13 23  1  0  0  0  0
 14 24  1  0  0  0  0
 14 25  1  0  0  0  0
M  CHG  1   3  -1
M  END
> <s_m_source_file>
AV-unprocessed.smi

> <i_m_source_file_index>
2551

> <i_lp_mmshare_version>
43012

> <i_f3d_flags>
0

> <s_epik_input>
W0NIMl0xW0NIMl1bQ0gyXVtDSDJdW0NIXTFbTkhdQyg9TylbTkhdYzJubltjSF1zMg==

> <s_epik_cmdline>
J2VwaWtfcHl0aG9uJywgJy1waCcsICc3LjAnLCAnLXRuJywgJzgnLCAnLW1hJywgJzIwMCcsICctbWV0YWxfYmluZGluZycsICctaW1hZScsICc8aW5maWxlLm1hZT4nLCAnLW9tYWUnLCAnPG91dGZpbGUubWFlPic=

> <r_lp_tautomer_probability>
1

> <r_epik_Ionization_Penalty>
4.51495

> <r_epik_Ionization_Penalty_Charging>
4.46823

> <r_epik_Ionization_Penalty_Neutral>
0.0467187

> <r_epik_State_Penalty>
4.46792

> <r_epik_Charging_Adjusted_Penalty>
8.93614

> <i_epik_Tot_Q>
-1

> <i_epik_Tot_abs_Q>
1

> <r_epik_Metal_State_Penalty>
0.803637

> <b_epik_Metal_Only>
1

> <s_lp_Force_Field>
OPLS_2005

> <r_lp_Energy>
17.7165

> <b_lp_Chiralities_Consistent>
1

> <s_lp_Variant>
AV-unprocessed.smi:2551-2

> <Gold.Version>
5.8.1

> <Gold.Id.Protein>
6NUR|6NUR_protein|mol2

> <Gold.PLP.Fitness>
41.3859

> <Gold.PLP.PLP>
-30.0153

> <Gold.PLP.part.hbond>
-2.7368

> <Gold.PLP.part.metal>
0.0000

> <Gold.PLP.part.buried>
-2.5197

> <Gold.PLP.part.nonpolar>
-23.7897

> <Gold.PLP.part.repulsive>
0.2153

> <Gold.PLP.ligand.clash>
0.0000

> <Gold.PLP.ligand.torsion>
0.2450

> <Gold.PLP.Chemscore.Hbond>
2.8480

> <Gold.PLP.Chemscore.CHOScore>
1.1027

> <Gold.PLP.Chemscore.Metal>
0.0000

> <Gold.Chemscore.Hbonds>
donor molecule, donor type, donor heavy atom, donor atom, acceptor molecule, acceptor atom, score
      P1  H  7997  8008       L1     3  2.00
      P1  H 10752 10764       L1     6  0.83
      L1  C     7    15       P1  7948  0.54
      L1  C     7    15       P1  7949  0.59

> <Gold.PLP.Chemscore.Internal.Correction>
0.0083

> <Gold.Rescore>
     Score         DG    S(hbond)    S(metal)    S(lipo)     H(rot)  DE(clash)    DE(int)     intcor
     16.39     -17.00       1.66        0.00      72.94       1.00       0.14       0.47       ----

> <Gold.Chemscore.Fitness>
16.3908

> <Gold.Chemscore.DG>
-16.9981

> <Gold.Chemscore.ZeroCoef>
-5.4800

> <Gold.Chemscore.Hbond>
1.6600

> <Gold.Chemscore.Metal>
0.0000

> <Gold.Chemscore.Lipo>
72.9377

> <Gold.Chemscore.Internal_Hbond>
0.0000

> <Gold.Chemscore.DEClash>
0.1374

> <Gold.Chemscore.DEInternal>
0.4699

> <Gold.Chemscore.Rot>
1.0000

> <Gold.Chemscore.Internal.Correction>
   9.000000E+99

> <Gold.Chemscore.Hbonds>
donor molecule, donor type, donor heavy atom, donor atom, acceptor molecule, acceptor atom, score
      P1  H  7997  8008       L1     3  0.30
      P1  H 10752 10764       L1     6  0.53

> <Gold.Chemscore.Hbond.Weighted>
-5.5444

> <Gold.Chemscore.Metal.Weighted>
-0.0000

> <Gold.Chemscore.Lipo.Weighted>
-8.5337

> <Gold.Chemscore.Internal_Hbond.Weighted>
0.0000

> <Gold.Chemscore.DEClash.Weighted>
0.1374

> <Gold.Chemscore.DEInternal.Weighted>
0.4699

> <Gold.Chemscore.Rot.Weighted>
2.5600

> <Gold.Chemscore.Internal.Correction.Weighted>
   9.000000E+99

> <Gold.Protein.RotatedTorsions>
[ 6907 6896 6895 6894 ] final -143.42 input  -60.11 | X-H torsion
[ 7974 7965 7964 7962 ] final  -73.69 input  175.53 | X-H torsion
[ 8008 7997 7996 7995 ] final  -46.80 input   59.86 | X-H torsion
[ 10167 10162 10161 10158 ] final -141.61 input  -65.29 | X-H torsion
[ 10718 10713 10712 10709 ] final  130.50 input   66.30 | X-H torsion
[ 10763 10752 10751 10750 ] final  -76.96 input  -60.55 | X-H torsion
[ 11005 11000 10999 10996 ] final  -65.94 input  -57.11 | X-H torsion

> <Gold.Protein.ActiveResidues>
 VAL166  LYS551  ARG553  GLY616  TRP617  ASP618  TYR619  PRO620  LYS621  CYS622 
 ASP623  PHE694  ASN695  SER759  ASP760  ASP761  ALA762  ILE779  LEU786  VAL792 
 PHE793  MET794  SER795  GLU796  ALA797  LYS798  CYS799  TRP800  GLU811  SER814 

> <Gold.Protein.RotatedAtoms>
  151.1002  133.5249  159.2610 H   0  0  0  0  0  0  0  0  0  0  0  0  # atno 6907 bound_to 6896
  151.2083  135.0470  159.8911 H   0  0  0  0  0  0  0  0  0  0  0  0  # atno 6908 bound_to 6896
  152.5442  134.0821  159.8293 H   0  0  0  0  0  0  0  0  0  0  0  0  # atno 6909 bound_to 6896
  145.6489  140.9288  143.0995 H   0  0  0  0  0  0  0  0  0  0  0  0  # atno 7974 bound_to 7965
  154.4010  140.1362  156.4071 H   0  0  0  0  0  0  0  0  0  0  0  0  # atno 8008 bound_to 7997
  155.7769  140.3482  155.5256 H   0  0  0  0  0  0  0  0  0  0  0  0  # atno 8009 bound_to 7997
  155.8712  140.0972  157.1539 H   0  0  0  0  0  0  0  0  0  0  0  0  # atno 8010 bound_to 7997
  139.8168  143.7628  152.2665 H   0  0  0  0  0  0  0  0  0  0  0  0  # atno 10167 bound_to 10162
  157.5055  131.1095  150.9366 H   0  0  0  0  0  0  0  0  0  0  0  0  # atno 10718 bound_to 10713
  154.5067  135.5780  153.6573 H   0  0  0  0  0  0  0  0  0  0  0  0  # atno 10763 bound_to 10752
  152.9889  135.6149  154.2932 H   0  0  0  0  0  0  0  0  0  0  0  0  # atno 10764 bound_to 10752
  154.2844  135.2850  155.2662 H   0  0  0  0  0  0  0  0  0  0  0  0  # atno 10765 bound_to 10752
  141.1468  133.6690  156.6063 H   0  0  0  0  0  0  0  0  0  0  0  0  # atno 11005 bound_to 11000
  144.7130  139.8301  143.7408 LP  0  0  0  0  0  0  0  0  0  0  0  0  # atno 17320 bound_to 7965
  146.1220  139.4240  143.0222 LP  0  0  0  0  0  0  0  0  0  0  0  0  # atno 17321 bound_to 7965
  139.7794  144.7450  151.0110 LP  0  0  0  0  0  0  0  0  0  0  0  0  # atno 17342 bound_to 10162
  140.7815  143.4558  151.0347 LP  0  0  0  0  0  0  0  0  0  0  0  0  # atno 17343 bound_to 10162
  157.0023  130.5605  149.5312 LP  0  0  0  0  0  0  0  0  0  0  0  0  # atno 17370 bound_to 10713
  156.0256  130.5350  150.8397 LP  0  0  0  0  0  0  0  0  0  0  0  0  # atno 17371 bound_to 10713
  140.3649  134.7656  157.4559 LP  0  0  0  0  0  0  0  0  0  0  0  0  # atno 17394 bound_to 11000
  140.0756  134.5802  155.8595 LP  0  0  0  0  0  0  0  0  0  0  0  0  # atno 17395 bound_to 11000

$$$$
