AV-unprocessed.smi:3134|AV-procd|sdf|11944|dock7
  -GOLD-   2272017333D 1   1.00000     0.00000
 Structure written by MMmdl.
 36 36  0  0  0  0  0  0  0  0  1 V2000
  152.9296  143.1524  159.8932 C   0  0  0  0  0  0  0  0  0  0  0  0
  152.3973  144.1997  158.9020 C   0  0  0  0  0  0  0  0  0  0  0  0
  151.2571  145.0272  159.5096 C   0  0  0  0  0  0  0  0  0  0  0  0
  151.9301  143.5517  157.6805 N   0  0  0  0  0  0  0  0  0  0  0  0
  151.1369  142.4700  157.6275 C   0  0  0  0  0  0  0  0  0  0  0  0
  150.7124  141.8929  158.6294 O   0  0  0  0  0  0  0  0  0  0  0  0
  150.7290  141.9870  156.2252 C   0  0  1  0  0  0  0  0  0  0  0  0
  151.2432  140.5615  155.9682 C   0  0  0  0  0  0  0  0  0  0  0  0
  149.2747  142.0406  155.9888 N   0  0  0  0  0  0  0  0  0  0  0  0
  148.8450  141.4402  154.7306 C   0  0  0  0  0  0  0  0  0  0  0  0
  147.3753  141.0129  154.8462 C   0  0  0  0  0  0  0  0  0  0  0  0
  146.4806  142.1415  154.6802 N   0  0  0  0  0  0  0  0  0  0  0  0
  146.2715  142.9101  153.5547 C   0  0  0  0  0  0  0  0  0  0  0  0
  145.3349  143.8509  153.8744 C   0  0  0  0  0  0  0  0  0  0  0  0
  145.0269  143.5723  155.2356 C   0  0  0  0  0  0  0  0  0  0  0  0
  145.7131  142.5472  155.7146 N   0  0  0  0  0  0  0  0  0  0  0  0
  153.2863  143.6259  160.8081 H   0  0  0  0  0  0  0  0  0  0  0  0
  153.7634  142.5920  159.4688 H   0  0  0  0  0  0  0  0  0  0  0  0
  152.1545  142.4366  160.1689 H   0  0  0  0  0  0  0  0  0  0  0  0
  153.2084  144.8860  158.6518 H   0  0  0  0  0  0  0  0  0  0  0  0
  151.5869  145.5451  160.4106 H   0  0  0  0  0  0  0  0  0  0  0  0
  150.4082  144.3981  159.7796 H   0  0  0  0  0  0  0  0  0  0  0  0
  150.9026  145.7830  158.8078 H   0  0  0  0  0  0  0  0  0  0  0  0
  152.2213  143.9651  156.8064 H   0  0  0  0  0  0  0  0  0  0  0  0
  151.2081  142.6391  155.4924 H   0  0  0  0  0  0  0  0  0  0  0  0
  152.3226  140.4978  156.1113 H   0  0  0  0  0  0  0  0  0  0  0  0
  151.0324  140.2502  154.9445 H   0  0  0  0  0  0  0  0  0  0  0  0
  150.7749  139.8363  156.6355 H   0  0  0  0  0  0  0  0  0  0  0  0
  148.9215  142.9845  156.0571 H   0  0  0  0  0  0  0  0  0  0  0  0
  148.9506  142.1500  153.9095 H   0  0  0  0  0  0  0  0  0  0  0  0
  149.4699  140.5755  154.5022 H   0  0  0  0  0  0  0  0  0  0  0  0
  147.1318  140.2596  154.0951 H   0  0  0  0  0  0  0  0  0  0  0  0
  147.1835  140.5626  155.8212 H   0  0  0  0  0  0  0  0  0  0  0  0
  146.7995  142.7245  152.6309 H   0  0  0  0  0  0  0  0  0  0  0  0
  144.9308  144.6207  153.2340 H   0  0  0  0  0  0  0  0  0  0  0  0
  144.3295  144.0802  155.8849 H   0  0  0  0  0  0  0  0  0  0  0  0
  1  2  1  0  0  0  0
  1 17  1  0  0  0  0
  1 18  1  0  0  0  0
  1 19  1  0  0  0  0
  2  3  1  0  0  0  0
  2  4  1  0  0  0  0
  2 20  1  0  0  0  0
  3 21  1  0  0  0  0
  3 22  1  0  0  0  0
  3 23  1  0  0  0  0
  4  5  1  0  0  0  0
  4 24  1  0  0  0  0
  5  6  2  0  0  0  0
  5  7  1  0  0  0  0
  7  8  1  0  0  0  0
  7  9  1  0  0  0  0
  7 25  1  0  0  0  0
  8 26  1  0  0  0  0
  8 27  1  0  0  0  0
  8 28  1  0  0  0  0
  9 10  1  0  0  0  0
  9 29  1  0  0  0  0
 10 11  1  0  0  0  0
 10 30  1  0  0  0  0
 10 31  1  0  0  0  0
 11 12  1  0  0  0  0
 11 32  1  0  0  0  0
 11 33  1  0  0  0  0
 12 16  1  0  0  0  0
 12 13  1  0  0  0  0
 13 14  2  0  0  0  0
 13 34  1  0  0  0  0
 14 15  1  0  0  0  0
 14 35  1  0  0  0  0
 15 16  2  0  0  0  0
 15 36  1  0  0  0  0
M  END
> <s_m_source_file>
AV-unprocessed.smi

> <i_m_source_file_index>
3134

> <i_lp_mmshare_version>
43012

> <i_f3d_flags>
0

> <s_epik_input>
W0NIM11bQ0hdKFtDSDNdKVtOSF1DKD1PKVtDQEhdKFtDSDNdKVtOSF1bQ0gyXVtDSDJdbjFbY0hdW2NIXVtjSF1uMQ==

> <s_epik_cmdline>
J2VwaWtfcHl0aG9uJywgJy1waCcsICc3LjAnLCAnLXRuJywgJzgnLCAnLW1hJywgJzIwMCcsICctbWV0YWxfYmluZGluZycsICctaW1hZScsICc8aW5maWxlLm1hZT4nLCAnLW9tYWUnLCAnPG91dGZpbGUubWFlPic=

> <r_lp_tautomer_probability>
1

> <r_epik_Ionization_Penalty>
0.731872

> <r_epik_Ionization_Penalty_Charging>
0

> <r_epik_Ionization_Penalty_Neutral>
0.731872

> <r_epik_State_Penalty>
0.75611

> <r_epik_Charging_Adjusted_Penalty>
0.75611

> <i_epik_Tot_Q>
0

> <i_epik_Tot_abs_Q>
0

> <r_epik_Metal_State_Penalty>
0.755373

> <b_epik_Metal_Only>
0

> <s_lp_Force_Field>
OPLS_2005

> <r_lp_Energy>
3.64981

> <b_lp_Chiralities_Consistent>
1

> <s_lp_Variant>
AV-unprocessed.smi:3134-4

> <Gold.Version>
5.8.1

> <Gold.Id.Protein>
6NUR|6NUR_protein|mol2

> <Gold.PLP.Fitness>
40.5751

> <Gold.PLP.PLP>
-38.4834

> <Gold.PLP.part.hbond>
-1.0000

> <Gold.PLP.part.metal>
0.0000

> <Gold.PLP.part.buried>
-6.2409

> <Gold.PLP.part.nonpolar>
-32.0637

> <Gold.PLP.part.repulsive>
0.1867

> <Gold.PLP.ligand.clash>
0.0000

> <Gold.PLP.ligand.torsion>
0.4820

> <Gold.PLP.Chemscore.Hbond>
1.0000

> <Gold.PLP.Chemscore.CHOScore>
0.0000

> <Gold.PLP.Chemscore.Metal>
0.0000

> <Gold.Chemscore.Hbonds>
donor molecule, donor type, donor heavy atom, donor atom, acceptor molecule, acceptor atom, score
      L1  H     9    29       P1  8028  1.00

> <Gold.PLP.Chemscore.Internal.Correction>
0.0556

> <Gold.Rescore>
     Score         DG    S(hbond)    S(metal)    S(lipo)     H(rot)  DE(clash)    DE(int)     intcor
     11.68     -13.06       0.98        0.00      81.66       2.05       0.05       1.33       ----

> <Gold.Chemscore.Fitness>
11.6799

> <Gold.Chemscore.DG>
-13.0644

> <Gold.Chemscore.ZeroCoef>
-5.4800

> <Gold.Chemscore.Hbond>
0.9835

> <Gold.Chemscore.Metal>
0.0000

> <Gold.Chemscore.Lipo>
81.6645

> <Gold.Chemscore.Internal_Hbond>
0.0000

> <Gold.Chemscore.DEClash>
0.0519

> <Gold.Chemscore.DEInternal>
1.3325

> <Gold.Chemscore.Rot>
2.0529

> <Gold.Chemscore.Internal.Correction>
   9.000000E+99

> <Gold.Chemscore.Hbonds>
donor molecule, donor type, donor heavy atom, donor atom, acceptor molecule, acceptor atom, score
      L1  H     9    29       P1  8028  0.98

> <Gold.Chemscore.Hbond.Weighted>
-3.2850

> <Gold.Chemscore.Metal.Weighted>
-0.0000

> <Gold.Chemscore.Lipo.Weighted>
-9.5547

> <Gold.Chemscore.Internal_Hbond.Weighted>
0.0000

> <Gold.Chemscore.DEClash.Weighted>
0.0519

> <Gold.Chemscore.DEInternal.Weighted>
1.3325

> <Gold.Chemscore.Rot.Weighted>
5.2554

> <Gold.Chemscore.Internal.Correction.Weighted>
   9.000000E+99

> <Gold.Protein.RotatedTorsions>
[ 6907 6896 6895 6894 ] final -123.45 input  -60.11 | X-H torsion
[ 7974 7965 7964 7962 ] final -128.88 input  175.53 | X-H torsion
[ 8008 7997 7996 7995 ] final   65.19 input   59.86 | X-H torsion
[ 10167 10162 10161 10158 ] final  -44.20 input  -65.29 | X-H torsion
[ 10718 10713 10712 10709 ] final -113.56 input   66.30 | X-H torsion
[ 10763 10752 10751 10750 ] final   37.19 input  -60.55 | X-H torsion
[ 11005 11000 10999 10996 ] final -105.19 input  -57.11 | X-H torsion

> <Gold.Protein.ActiveResidues>
 VAL166  LYS551  ARG553  GLY616  TRP617  ASP618  TYR619  PRO620  LYS621  CYS622 
 ASP623  PHE694  ASN695  SER759  ASP760  ASP761  ALA762  ILE779  LEU786  VAL792 
 PHE793  MET794  SER795  GLU796  ALA797  LYS798  CYS799  TRP800  GLU811  SER814 

> <Gold.Protein.RotatedAtoms>
  150.8672  133.7557  159.2972 H   0  0  0  0  0  0  0  0  0  0  0  0  # atno 6907 bound_to 6896
  151.5181  135.1065  159.9881 H   0  0  0  0  0  0  0  0  0  0  0  0  # atno 6908 bound_to 6896
  152.4669  133.7899  159.6952 H   0  0  0  0  0  0  0  0  0  0  0  0  # atno 6909 bound_to 6896
  144.9627  140.7464  143.4719 H   0  0  0  0  0  0  0  0  0  0  0  0  # atno 7974 bound_to 7965
  155.6579  140.3497  155.4772 H   0  0  0  0  0  0  0  0  0  0  0  0  # atno 8008 bound_to 7997
  155.9793  140.1171  157.0764 H   0  0  0  0  0  0  0  0  0  0  0  0  # atno 8009 bound_to 7997
  154.4187  140.1141  156.5400 H   0  0  0  0  0  0  0  0  0  0  0  0  # atno 8010 bound_to 7997
  140.6906  143.2943  151.3461 H   0  0  0  0  0  0  0  0  0  0  0  0  # atno 10167 bound_to 10162
  156.0774  130.5979  150.8658 H   0  0  0  0  0  0  0  0  0  0  0  0  # atno 10718 bound_to 10713
  153.0047  135.6284  154.2106 H   0  0  0  0  0  0  0  0  0  0  0  0  # atno 10763 bound_to 10752
  154.1849  135.2811  155.3042 H   0  0  0  0  0  0  0  0  0  0  0  0  # atno 10764 bound_to 10752
  154.5805  135.5649  153.7240 H   0  0  0  0  0  0  0  0  0  0  0  0  # atno 10765 bound_to 10752
  141.1065  133.8786  157.1703 H   0  0  0  0  0  0  0  0  0  0  0  0  # atno 11005 bound_to 11000
  145.2676  139.1967  143.4859 LP  0  0  0  0  0  0  0  0  0  0  0  0  # atno 17320 bound_to 7965
  146.3358  140.2616  142.8602 LP  0  0  0  0  0  0  0  0  0  0  0  0  # atno 17321 bound_to 7965
  139.6305  144.0730  152.2472 LP  0  0  0  0  0  0  0  0  0  0  0  0  # atno 17342 bound_to 10162
  140.0204  144.6157  150.7572 LP  0  0  0  0  0  0  0  0  0  0  0  0  # atno 17343 bound_to 10162
  157.5876  131.0945  150.9171 LP  0  0  0  0  0  0  0  0  0  0  0  0  # atno 17370 bound_to 10713
  156.9354  130.5365  149.5279 LP  0  0  0  0  0  0  0  0  0  0  0  0  # atno 17371 bound_to 10713
  139.9938  135.0054  157.0036 LP  0  0  0  0  0  0  0  0  0  0  0  0  # atno 17394 bound_to 11000
  140.4888  134.1214  155.7229 LP  0  0  0  0  0  0  0  0  0  0  0  0  # atno 17395 bound_to 11000

$$$$
