AV-unprocessed.smi:1978|AV-procd|sdf|8013|dock9
  -GOLD-   2272010203D 1   1.00000     0.00000
 Structure written by MMmdl.
 44 45  0  0  0  0  0  0  0  0  3 V2000
  147.1505  136.4600  162.7627 C   0  0  0  0  0  0  0  0  0  0  0  0
  147.3220  136.2058  161.3045 C   0  0  0  0  0  0  0  0  0  0  0  0
  147.1361  135.0994  160.5246 C   0  0  0  0  0  0  0  0  0  0  0  0
  147.4773  135.5610  159.2254 C   0  0  0  0  0  0  0  0  0  0  0  0
  147.4091  134.6894  158.1066 N   0  0  0  0  0  0  0  0  0  0  0  0
  148.3728  133.9052  157.5907 C   0  0  0  0  0  0  0  0  0  0  0  0
  149.5017  133.8877  158.0956 O   0  0  0  0  0  0  0  0  0  0  0  0
  147.9369  133.1915  156.5159 N   0  5  0  0  0  0  0  0  0  0  0  0
  147.0486  133.7086  155.4735 C   0  0  0  0  0  0  0  0  0  0  0  0
  147.8669  134.3400  154.2963 C   0  0  1  0  0  0  0  0  0  0  0  0
  149.1362  133.5288  153.9371 C   0  0  0  0  0  0  0  0  0  0  0  0
  147.0733  134.6576  153.0516 N   0  3  1  0  0  0  0  0  0  0  0  0
  146.6822  133.4747  152.2203 C   0  0  0  0  0  0  0  0  0  0  0  0
  146.2205  133.9004  150.8202 C   0  0  0  0  0  0  0  0  0  0  0  0
  145.0474  134.8772  150.9182 C   0  0  0  0  0  0  0  0  0  0  0  0
  145.4488  136.0765  151.7822 C   0  0  0  0  0  0  0  0  0  0  0  0
  145.9462  135.6483  153.1806 C   0  0  2  0  0  0  0  0  0  0  0  0
  146.3163  136.9163  153.9782 C   0  0  0  0  0  0  0  0  0  0  0  0
  147.8452  136.8338  159.2158 N   0  0  0  0  0  0  0  0  0  0  0  0
  147.7473  137.2532  160.5476 O   0  0  0  0  0  0  0  0  0  0  0  0
  146.6930  135.6026  163.2569 H   0  0  0  0  0  0  0  0  0  0  0  0
  146.5119  137.3272  162.9308 H   0  0  0  0  0  0  0  0  0  0  0  0
  148.1132  136.6506  163.2368 H   0  0  0  0  0  0  0  0  0  0  0  0
  146.8053  134.1191  160.8339 H   0  0  0  0  0  0  0  0  0  0  0  0
  146.5182  134.6567  157.6337 H   0  0  0  0  0  0  0  0  0  0  0  0
  146.4066  132.9226  155.0753 H   0  0  0  0  0  0  0  0  0  0  0  0
  146.3635  134.4567  155.8735 H   0  0  0  0  0  0  0  0  0  0  0  0
  148.2668  135.2879  154.6503 H   0  0  0  0  0  0  0  0  0  0  0  0
  149.8519  133.5110  154.7613 H   0  0  0  0  0  0  0  0  0  0  0  0
  149.6534  133.9792  153.0893 H   0  0  0  0  0  0  0  0  0  0  0  0
  148.9252  132.4908  153.6764 H   0  0  0  0  0  0  0  0  0  0  0  0
  147.5163  132.7847  152.1056 H   0  0  0  0  0  0  0  0  0  0  0  0
  145.8806  132.9187  152.7086 H   0  0  0  0  0  0  0  0  0  0  0  0
  147.0483  134.3652  150.2826 H   0  0  0  0  0  0  0  0  0  0  0  0
  145.9268  133.0240  150.2416 H   0  0  0  0  0  0  0  0  0  0  0  0
  144.7501  135.2112  149.9236 H   0  0  0  0  0  0  0  0  0  0  0  0
  144.1815  134.3775  151.3546 H   0  0  0  0  0  0  0  0  0  0  0  0
  146.2300  136.6427  151.2727 H   0  0  0  0  0  0  0  0  0  0  0  0
  144.5958  136.7495  151.8783 H   0  0  0  0  0  0  0  0  0  0  0  0
  145.1151  135.1610  153.6928 H   0  0  0  0  0  0  0  0  0  0  0  0
  145.5185  137.6574  153.9232 H   0  0  0  0  0  0  0  0  0  0  0  0
  147.2235  137.3815  153.5915 H   0  0  0  0  0  0  0  0  0  0  0  0
  146.4627  136.7086  155.0375 H   0  0  0  0  0  0  0  0  0  0  0  0
  147.7481  135.1457  152.4809 H   0  0  0  0  0  0  0  0  0  0  0  0
  1  2  1  0  0  0  0
  1 21  1  0  0  0  0
  1 22  1  0  0  0  0
  1 23  1  0  0  0  0
  2 20  1  0  0  0  0
  2  3  2  0  0  0  0
  3  4  1  0  0  0  0
  3 24  1  0  0  0  0
  4  5  1  0  0  0  0
  4 19  2  0  0  0  0
  5  6  1  0  0  0  0
  5 25  1  0  0  0  0
  6  7  2  0  0  0  0
  6  8  1  0  0  0  0
  8  9  1  0  0  0  0
  9 10  1  0  0  0  0
  9 26  1  0  0  0  0
  9 27  1  0  0  0  0
 10 11  1  0  0  0  0
 10 12  1  0  0  0  0
 10 28  1  0  0  0  0
 11 29  1  0  0  0  0
 11 30  1  0  0  0  0
 11 31  1  0  0  0  0
 12 17  1  0  0  0  0
 12 13  1  0  0  0  0
 12 44  1  0  0  0  0
 13 14  1  0  0  0  0
 13 32  1  0  0  0  0
 13 33  1  0  0  0  0
 14 15  1  0  0  0  0
 14 34  1  0  0  0  0
 14 35  1  0  0  0  0
 15 16  1  0  0  0  0
 15 36  1  0  0  0  0
 15 37  1  0  0  0  0
 16 17  1  0  0  0  0
 16 38  1  0  0  0  0
 16 39  1  0  0  0  0
 17 18  1  0  0  0  0
 17 40  1  0  0  0  0
 18 41  1  0  0  0  0
 18 42  1  0  0  0  0
 18 43  1  0  0  0  0
 19 20  1  0  0  0  0
M  CHG  1   8  -1
M  CHG  1  12   1
M  END
> <s_m_source_file>
AV-unprocessed.smi

> <i_m_source_file_index>
1978

> <i_lp_mmshare_version>
43012

> <i_f3d_flags>
0

> <s_epik_input>
W0NIM11jMVtjSF1jKG5vMSlbTkhdQyg9TylbTkhdW0NIMl1bQ0BIXShbQ0gzXSlOMltDSDJdW0NIMl1bQ0gyXVtDSDJdW0NASF0yW0NIM10=

> <s_epik_cmdline>
J2VwaWtfcHl0aG9uJywgJy1waCcsICc3LjAnLCAnLXRuJywgJzgnLCAnLW1hJywgJzIwMCcsICctbWV0YWxfYmluZGluZycsICctaW1hZScsICc8aW5maWxlLm1hZT4nLCAnLW9tYWUnLCAnPG91dGZpbGUubWFlPic=

> <r_epik_Ionization_Penalty>
6.7666

> <r_epik_Ionization_Penalty_Charging>
6.7666

> <r_epik_Ionization_Penalty_Neutral>
5.77131e-06

> <r_epik_State_Penalty>
6.79217

> <r_epik_Charging_Adjusted_Penalty>
13.5588

> <i_epik_Tot_Q>
0

> <i_epik_Tot_abs_Q>
2

> <r_epik_Metal_State_Penalty>
2.72569

> <b_epik_Metal_Only>
1

> <s_lp_Force_Field>
OPLS_2005

> <r_lp_Energy>
22.3243

> <b_lp_Chiralities_Consistent>
1

> <s_lp_Variant>
AV-unprocessed.smi:1978-22

> <Gold.Version>
5.8.1

> <Gold.Id.Protein>
6NUR|6NUR_protein|mol2

> <Gold.PLP.Fitness>
40.6869

> <Gold.PLP.PLP>
-29.7271

> <Gold.PLP.part.hbond>
-4.0000

> <Gold.PLP.part.metal>
0.0000

> <Gold.PLP.part.buried>
-3.6108

> <Gold.PLP.part.nonpolar>
-21.9208

> <Gold.PLP.part.repulsive>
0.0319

> <Gold.PLP.ligand.clash>
0.0000

> <Gold.PLP.ligand.torsion>
1.4548

> <Gold.PLP.Chemscore.Hbond>
4.5360

> <Gold.PLP.Chemscore.CHOScore>
0.0000

> <Gold.PLP.Chemscore.Metal>
0.0000

> <Gold.Chemscore.Hbonds>
donor molecule, donor type, donor heavy atom, donor atom, acceptor molecule, acceptor atom, score
      L1  H    12    44       P1  7948  2.00
      P1  H  6896  6907       L1     7  1.00
      P1  H  6931  6943       L1    20  0.59
      P1  H  6934  6947       L1    20  0.88

> <Gold.PLP.Chemscore.Internal.Correction>
0.2614

> <Gold.Rescore>
     Score         DG    S(hbond)    S(metal)    S(lipo)     H(rot)  DE(clash)    DE(int)     intcor
     18.46     -19.89       3.42        0.00      58.69       1.52       0.02       1.41       ----

> <Gold.Chemscore.Fitness>
18.4608

> <Gold.Chemscore.DG>
-19.8909

> <Gold.Chemscore.ZeroCoef>
-5.4800

> <Gold.Chemscore.Hbond>
3.4228

> <Gold.Chemscore.Metal>
0.0000

> <Gold.Chemscore.Lipo>
58.6946

> <Gold.Chemscore.Internal_Hbond>
0.0000

> <Gold.Chemscore.DEClash>
0.0174

> <Gold.Chemscore.DEInternal>
1.4127

> <Gold.Chemscore.Rot>
1.5190

> <Gold.Chemscore.Internal.Correction>
   9.000000E+99

> <Gold.Chemscore.Hbonds>
donor molecule, donor type, donor heavy atom, donor atom, acceptor molecule, acceptor atom, score
      L1  H    12    44       P1  7948  0.98
      P1  H  6896  6907       L1     7  1.00
      P1  H  6931  6943       L1    20  0.20
      P1  H  6934  6947       L1    20  0.82

> <Gold.Chemscore.Hbond.Weighted>
-11.4323

> <Gold.Chemscore.Metal.Weighted>
-0.0000

> <Gold.Chemscore.Lipo.Weighted>
-6.8673

> <Gold.Chemscore.Internal_Hbond.Weighted>
0.0000

> <Gold.Chemscore.DEClash.Weighted>
0.0174

> <Gold.Chemscore.DEInternal.Weighted>
1.4127

> <Gold.Chemscore.Rot.Weighted>
3.8886

> <Gold.Chemscore.Internal.Correction.Weighted>
   9.000000E+99

> <Gold.Protein.RotatedTorsions>
[ 6907 6896 6895 6894 ] final -115.85 input  -60.11 | X-H torsion
[ 7974 7965 7964 7962 ] final   80.04 input  175.53 | X-H torsion
[ 8008 7997 7996 7995 ] final -157.42 input   59.86 | X-H torsion
[ 10167 10162 10161 10158 ] final   99.51 input  -65.29 | X-H torsion
[ 10718 10713 10712 10709 ] final  -58.57 input   66.30 | X-H torsion
[ 10763 10752 10751 10750 ] final  107.53 input  -60.55 | X-H torsion
[ 11005 11000 10999 10996 ] final    8.93 input  -57.11 | X-H torsion

> <Gold.Protein.ActiveResidues>
 VAL166  LYS551  ARG553  GLY616  TRP617  ASP618  TYR619  PRO620  LYS621  CYS622 
 ASP623  PHE694  ASN695  SER759  ASP760  ASP761  ALA762  ILE779  LEU786  VAL792 
 PHE793  MET794  SER795  GLU796  ALA797  LYS798  CYS799  TRP800  GLU811  SER814 

> <Gold.Protein.RotatedAtoms>
  150.8009  133.8600  159.3229 H   0  0  0  0  0  0  0  0  0  0  0  0  # atno 6907 bound_to 6896
  151.6413  135.1010  160.0151 H   0  0  0  0  0  0  0  0  0  0  0  0  # atno 6908 bound_to 6896
  152.4096  133.6904  159.6421 H   0  0  0  0  0  0  0  0  0  0  0  0  # atno 6909 bound_to 6896
  145.6563  139.2460  143.1948 H   0  0  0  0  0  0  0  0  0  0  0  0  # atno 7974 bound_to 7965
  155.7322  140.0803  157.2284 H   0  0  0  0  0  0  0  0  0  0  0  0  # atno 8008 bound_to 7997
  154.4031  140.1593  156.2576 H   0  0  0  0  0  0  0  0  0  0  0  0  # atno 8009 bound_to 7997
  155.9099  140.3404  155.6093 H   0  0  0  0  0  0  0  0  0  0  0  0  # atno 8010 bound_to 7997
  139.7611  144.6954  151.0292 H   0  0  0  0  0  0  0  0  0  0  0  0  # atno 10167 bound_to 10162
  156.1125  130.4173  150.0596 H   0  0  0  0  0  0  0  0  0  0  0  0  # atno 10718 bound_to 10713
  153.4081  135.3841  155.2032 H   0  0  0  0  0  0  0  0  0  0  0  0  # atno 10763 bound_to 10752
  154.8735  135.3787  154.4535 H   0  0  0  0  0  0  0  0  0  0  0  0  # atno 10764 bound_to 10752
  153.5040  135.7088  153.5878 H   0  0  0  0  0  0  0  0  0  0  0  0  # atno 10765 bound_to 10752
  140.5315  134.0462  155.7875 H   0  0  0  0  0  0  0  0  0  0  0  0  # atno 11005 bound_to 11000
  146.1162  140.7367  142.9479 LP  0  0  0  0  0  0  0  0  0  0  0  0  # atno 17320 bound_to 7965
  144.7104  140.4018  143.7084 LP  0  0  0  0  0  0  0  0  0  0  0  0  # atno 17321 bound_to 7965
  140.7807  143.4696  151.0164 LP  0  0  0  0  0  0  0  0  0  0  0  0  # atno 17342 bound_to 10162
  139.8382  143.7599  152.3180 LP  0  0  0  0  0  0  0  0  0  0  0  0  # atno 17343 bound_to 10162
  156.8555  130.9474  151.3622 LP  0  0  0  0  0  0  0  0  0  0  0  0  # atno 17370 bound_to 10713
  157.6307  130.8727  149.9269 LP  0  0  0  0  0  0  0  0  0  0  0  0  # atno 17371 bound_to 10713
  141.1279  133.9352  157.2597 LP  0  0  0  0  0  0  0  0  0  0  0  0  # atno 17394 bound_to 11000
  139.9552  135.0167  156.9107 LP  0  0  0  0  0  0  0  0  0  0  0  0  # atno 17395 bound_to 11000

$$$$
