AV-unprocessed.smi:274|AV-procd|sdf|2058|dock10
  -GOLD-   2262021303D 1   1.00000     0.00000
 Structure written by MMmdl.
 50 53  0  0  0  0  0  0  0  0  1 V2000
  146.9415  142.0016  154.6227 C   0  0  0  0  0  0  0  0  0  0  0  0
  147.7825  140.9060  153.9371 C   0  0  0  0  0  0  0  0  0  0  0  0
  146.8547  140.0454  153.0569 C   0  0  0  0  0  0  0  0  0  0  0  0
  148.6209  140.0520  154.9416 C   0  0  2  0  0  0  0  0  0  0  0  0
  147.7534  139.4663  156.0815 C   0  0  0  0  0  0  0  0  0  0  0  0
  147.0853  138.4535  155.8832 O   0  0  0  0  0  0  0  0  0  0  0  0
  147.7686  140.0607  157.2883 N   0  0  0  0  0  0  0  0  0  0  0  0
  148.5658  141.2270  157.6704 C   0  0  0  0  0  0  0  0  0  0  0  0
  149.3500  141.8529  156.4996 C   0  0  0  0  0  0  0  0  0  0  0  0
  149.7258  140.8457  155.5051 N   0  0  0  0  0  0  0  0  0  0  0  0
  150.9184  140.2039  155.6552 C   0  0  0  0  0  0  0  0  0  0  0  0
  151.4439  139.5005  154.6159 N   0  0  0  0  0  0  0  0  0  0  0  0
  152.6179  138.8761  154.7411 C   0  0  0  0  0  0  0  0  0  0  0  0
  153.4228  138.8201  155.8027 N   0  0  0  0  0  0  0  0  0  0  0  0
  152.9002  139.5119  156.8548 C   0  0  0  0  0  0  0  0  0  0  0  0
  151.6675  140.2253  156.8673 C   0  0  0  0  0  0  0  0  0  0  0  0
  151.4689  140.7944  158.1197 N   0  0  0  0  0  0  0  0  0  0  0  0
  152.5253  140.4484  158.8024 C   0  0  0  0  0  0  0  0  0  0  0  0
  153.4347  139.6719  158.1215 N   0  0  0  0  0  0  0  0  0  0  0  0
  154.6894  139.1469  158.6378 C   0  0  0  0  0  0  0  0  0  0  0  0
  154.5010  138.0270  159.6872 C   0  0  1  0  0  0  0  0  0  0  0  0
  153.7204  136.9897  159.1179 O   0  0  0  0  0  0  0  0  0  0  0  0
  155.8065  137.4265  160.2009 C   0  0  0  0  0  0  0  0  0  0  0  0
  155.4643  137.0451  161.6340 C   0  0  0  0  0  0  0  0  0  0  0  0
  154.6534  138.1281  162.0564 O   0  0  0  0  0  0  0  0  0  0  0  0
  153.8063  138.5087  160.9766 C   0  0  0  0  0  0  0  0  0  0  0  0
  146.2771  141.5768  155.3761 H   0  0  0  0  0  0  0  0  0  0  0  0
  146.3222  142.5309  153.8980 H   0  0  0  0  0  0  0  0  0  0  0  0
  147.5627  142.7538  155.1074 H   0  0  0  0  0  0  0  0  0  0  0  0
  148.4690  141.4203  153.2636 H   0  0  0  0  0  0  0  0  0  0  0  0
  146.1165  139.5177  153.6603 H   0  0  0  0  0  0  0  0  0  0  0  0
  147.4059  139.3053  152.4771 H   0  0  0  0  0  0  0  0  0  0  0  0
  146.3107  140.6638  152.3426 H   0  0  0  0  0  0  0  0  0  0  0  0
  149.0126  139.1940  154.3948 H   0  0  0  0  0  0  0  0  0  0  0  0
  147.1952  139.6527  158.0122 H   0  0  0  0  0  0  0  0  0  0  0  0
  147.9255  141.9727  158.1420 H   0  0  0  0  0  0  0  0  0  0  0  0
  149.2653  140.8938  158.4373 H   0  0  0  0  0  0  0  0  0  0  0  0
  148.7243  142.5957  156.0060 H   0  0  0  0  0  0  0  0  0  0  0  0
  150.2149  142.4107  156.8625 H   0  0  0  0  0  0  0  0  0  0  0  0
  152.9618  138.3466  153.8650 H   0  0  0  0  0  0  0  0  0  0  0  0
  152.6686  140.7462  159.8309 H   0  0  0  0  0  0  0  0  0  0  0  0
  155.2753  138.7760  157.7959 H   0  0  0  0  0  0  0  0  0  0  0  0
  155.2585  139.9744  159.0638 H   0  0  0  0  0  0  0  0  0  0  0  0
  154.1097  136.7400  158.2936 H   0  0  0  0  0  0  0  0  0  0  0  0
  156.1731  136.5891  159.6058 H   0  0  0  0  0  0  0  0  0  0  0  0
  156.5888  138.1858  160.2221 H   0  0  0  0  0  0  0  0  0  0  0  0
  154.8910  136.1176  161.6687 H   0  0  0  0  0  0  0  0  0  0  0  0
  156.3469  136.9328  162.2641 H   0  0  0  0  0  0  0  0  0  0  0  0
  153.6722  139.5908  160.9961 H   0  0  0  0  0  0  0  0  0  0  0  0
  152.8216  138.0570  161.1074 H   0  0  0  0  0  0  0  0  0  0  0  0
  1  2  1  0  0  0  0
  1 27  1  0  0  0  0
  1 28  1  0  0  0  0
  1 29  1  0  0  0  0
  2  3  1  0  0  0  0
  2  4  1  0  0  0  0
  2 30  1  0  0  0  0
  3 31  1  0  0  0  0
  3 32  1  0  0  0  0
  3 33  1  0  0  0  0
  4 10  1  0  0  0  0
  4  5  1  0  0  0  0
  4 34  1  0  0  0  0
  5  6  2  0  0  0  0
  5  7  1  0  0  0  0
  7  8  1  0  0  0  0
  7 35  1  0  0  0  0
  8  9  1  0  0  0  0
  8 36  1  0  0  0  0
  8 37  1  0  0  0  0
  9 10  1  0  0  0  0
  9 38  1  0  0  0  0
  9 39  1  0  0  0  0
 10 11  1  0  0  0  0
 11 16  1  0  0  0  0
 11 12  2  0  0  0  0
 12 13  1  0  0  0  0
 13 14  2  0  0  0  0
 13 40  1  0  0  0  0
 14 15  1  0  0  0  0
 15 19  1  0  0  0  0
 15 16  2  0  0  0  0
 16 17  1  0  0  0  0
 17 18  2  0  0  0  0
 18 19  1  0  0  0  0
 18 41  1  0  0  0  0
 19 20  1  0  0  0  0
 20 21  1  0  0  0  0
 20 42  1  0  0  0  0
 20 43  1  0  0  0  0
 21 26  1  0  0  0  0
 21 22  1  0  0  0  0
 21 23  1  0  0  0  0
 22 44  1  0  0  0  0
 23 24  1  0  0  0  0
 23 45  1  0  0  0  0
 23 46  1  0  0  0  0
 24 25  1  0  0  0  0
 24 47  1  0  0  0  0
 24 48  1  0  0  0  0
 25 26  1  0  0  0  0
 26 49  1  0  0  0  0
 26 50  1  0  0  0  0
M  END
> <s_m_source_file>
AV-unprocessed.smi

> <i_m_source_file_index>
274

> <i_lp_mmshare_version>
43012

> <i_f3d_flags>
0

> <s_epik_input>
W0NIM11bQ0hdKFtDSDNdKVtDQEBIXTFDKD1PKVtOSF1bQ0gyXVtDSDJdTjFjKG5bY0hdbjIpYyhjMjMpbltjSF1uM1tDSDJdW0NAQF00KFtPSF0pW0NIMl1bQ0gyXU9bQ0gyXTQ=

> <s_epik_cmdline>
J2VwaWtfcHl0aG9uJywgJy1waCcsICc3LjAnLCAnLXRuJywgJzgnLCAnLW1hJywgJzIwMCcsICctbWV0YWxfYmluZGluZycsICctaW1hZScsICc8aW5maWxlLm1hZT4nLCAnLW9tYWUnLCAnPG91dGZpbGUubWFlPic=

> <r_lp_tautomer_probability>
1

> <r_epik_Ionization_Penalty>
0.000690079

> <r_epik_Ionization_Penalty_Charging>
0

> <r_epik_Ionization_Penalty_Neutral>
0.000690079

> <r_epik_State_Penalty>
0.000321372

> <r_epik_Charging_Adjusted_Penalty>
0.000321372

> <i_epik_Tot_Q>
0

> <i_epik_Tot_abs_Q>
0

> <r_epik_Metal_State_Penalty>
-0

> <b_epik_Metal_Only>
0

> <s_lp_Force_Field>
OPLS_2005

> <r_lp_Energy>
40.3696

> <b_lp_Chiralities_Consistent>
1

> <s_lp_Variant>
AV-unprocessed.smi:274-1

> <Gold.Version>
5.8.1

> <Gold.Id.Protein>
6NUR|6NUR_protein|mol2

> <Gold.PLP.Fitness>
39.5802

> <Gold.PLP.PLP>
-34.5083

> <Gold.PLP.part.hbond>
-3.0000

> <Gold.PLP.part.metal>
0.0000

> <Gold.PLP.part.buried>
-0.9886

> <Gold.PLP.part.nonpolar>
-29.4655

> <Gold.PLP.part.repulsive>
0.1575

> <Gold.PLP.ligand.clash>
0.0000

> <Gold.PLP.ligand.torsion>
0.7230

> <Gold.PLP.Chemscore.Hbond>
2.0768

> <Gold.PLP.Chemscore.CHOScore>
0.0000

> <Gold.PLP.Chemscore.Metal>
0.0000

> <Gold.Chemscore.Hbonds>
donor molecule, donor type, donor heavy atom, donor atom, acceptor molecule, acceptor atom, score
      P1  H  7989  7998       L1    12  0.90

> <Gold.PLP.Chemscore.Internal.Correction>
0.2876

> <Gold.Rescore>
     Score         DG    S(hbond)    S(metal)    S(lipo)     H(rot)  DE(clash)    DE(int)     intcor
      8.15     -12.19       1.62        0.00      58.03       2.14       0.45       3.59       ----

> <Gold.Chemscore.Fitness>
8.1536

> <Gold.Chemscore.DG>
-12.1928

> <Gold.Chemscore.ZeroCoef>
-5.4800

> <Gold.Chemscore.Hbond>
1.6195

> <Gold.Chemscore.Metal>
0.0000

> <Gold.Chemscore.Lipo>
58.0322

> <Gold.Chemscore.Internal_Hbond>
0.0000

> <Gold.Chemscore.DEClash>
0.4475

> <Gold.Chemscore.DEInternal>
3.5917

> <Gold.Chemscore.Rot>
2.1431

> <Gold.Chemscore.Internal.Correction>
   9.000000E+99

> <Gold.Chemscore.Hbonds>
donor molecule, donor type, donor heavy atom, donor atom, acceptor molecule, acceptor atom, score
      P1  H  7989  7998       L1    12  0.12

> <Gold.Chemscore.Hbond.Weighted>
-5.4093

> <Gold.Chemscore.Metal.Weighted>
-0.0000

> <Gold.Chemscore.Lipo.Weighted>
-6.7898

> <Gold.Chemscore.Internal_Hbond.Weighted>
0.0000

> <Gold.Chemscore.DEClash.Weighted>
0.4475

> <Gold.Chemscore.DEInternal.Weighted>
3.5917

> <Gold.Chemscore.Rot.Weighted>
5.4863

> <Gold.Chemscore.Internal.Correction.Weighted>
   9.000000E+99

> <Gold.Protein.RotatedTorsions>
[ 6907 6896 6895 6894 ] final   35.39 input  -60.11 | X-H torsion
[ 7974 7965 7964 7962 ] final -162.48 input  175.53 | X-H torsion
[ 8008 7997 7996 7995 ] final  -12.74 input   59.86 | X-H torsion
[ 10167 10162 10161 10158 ] final  166.87 input  -65.29 | X-H torsion
[ 10718 10713 10712 10709 ] final  112.46 input   66.30 | X-H torsion
[ 10763 10752 10751 10750 ] final -172.75 input  -60.55 | X-H torsion
[ 11005 11000 10999 10996 ] final -144.70 input  -57.11 | X-H torsion

> <Gold.Protein.ActiveResidues>
 VAL166  LYS551  ARG553  GLY616  TRP617  ASP618  TYR619  PRO620  LYS621  CYS622 
 ASP623  PHE694  ASN695  SER759  ASP760  ASP761  ALA762  ILE779  LEU786  VAL792 
 PHE793  MET794  SER795  GLU796  ALA797  LYS798  CYS799  TRP800  GLU811  SER814 

> <Gold.Protein.RotatedAtoms>
  152.1155  134.9243  160.0564 H   0  0  0  0  0  0  0  0  0  0  0  0  # atno 6907 bound_to 6896
  152.0404  133.3970  159.4343 H   0  0  0  0  0  0  0  0  0  0  0  0  # atno 6908 bound_to 6896
  150.6846  134.3342  159.4883 H   0  0  0  0  0  0  0  0  0  0  0  0  # atno 6909 bound_to 6896
  144.7356  140.3247  143.6164 H   0  0  0  0  0  0  0  0  0  0  0  0  # atno 7974 bound_to 7965
  154.5352  140.2268  155.8735 H   0  0  0  0  0  0  0  0  0  0  0  0  # atno 8008 bound_to 7997
  156.1804  140.3101  155.9100 H   0  0  0  0  0  0  0  0  0  0  0  0  # atno 8009 bound_to 7997
  155.3370  140.0448  157.3034 H   0  0  0  0  0  0  0  0  0  0  0  0  # atno 8010 bound_to 7997
  139.4933  144.3982  151.9440 H   0  0  0  0  0  0  0  0  0  0  0  0  # atno 10167 bound_to 10162
  157.6391  131.0968  150.6899 H   0  0  0  0  0  0  0  0  0  0  0  0  # atno 10718 bound_to 10713
  154.6157  135.2869  155.0382 H   0  0  0  0  0  0  0  0  0  0  0  0  # atno 10763 bound_to 10752
  154.1595  135.6490  153.4986 H   0  0  0  0  0  0  0  0  0  0  0  0  # atno 10764 bound_to 10752
  153.0214  135.5375  154.6928 H   0  0  0  0  0  0  0  0  0  0  0  0  # atno 10765 bound_to 10752
  140.7997  134.2871  157.4983 H   0  0  0  0  0  0  0  0  0  0  0  0  # atno 11005 bound_to 11000
  145.7533  139.1801  143.2309 LP  0  0  0  0  0  0  0  0  0  0  0  0  # atno 17320 bound_to 7965
  146.1043  140.7505  142.9534 LP  0  0  0  0  0  0  0  0  0  0  0  0  # atno 17321 bound_to 7965
  140.3420  144.3192  150.5965 LP  0  0  0  0  0  0  0  0  0  0  0  0  # atno 17342 bound_to 10162
  140.5558  143.2199  151.7850 LP  0  0  0  0  0  0  0  0  0  0  0  0  # atno 17343 bound_to 10162
  156.7226  130.4685  149.5519 LP  0  0  0  0  0  0  0  0  0  0  0  0  # atno 17370 bound_to 10713
  156.1655  130.6403  151.0773 LP  0  0  0  0  0  0  0  0  0  0  0  0  # atno 17371 bound_to 10713
  139.8723  134.9422  156.3819 LP  0  0  0  0  0  0  0  0  0  0  0  0  # atno 17394 bound_to 11000
  140.9307  133.7581  156.0021 LP  0  0  0  0  0  0  0  0  0  0  0  0  # atno 17395 bound_to 11000

$$$$
