AV-unprocessed.smi:1289|AV-procd|sdf|5385|dock6
  -GOLD-   22720 4533D 1   1.00000     0.00000
 Structure written by MMmdl.
 37 39  0  0  0  0  0  0  0  0  1 V2000
  154.1281  132.0205  164.7947 N   0  0  0  0  0  0  0  0  0  0  0  0
  154.2452  132.9772  164.1545 C   0  0  0  0  0  0  0  0  0  0  0  0
  154.3924  134.1788  163.3501 C   0  0  0  0  0  0  0  0  0  0  0  0
  155.0065  134.1118  162.0842 C   0  0  0  0  0  0  0  0  0  0  0  0
  155.1446  135.2770  161.3057 C   0  0  0  0  0  0  0  0  0  0  0  0
  154.6735  136.5203  161.7750 C   0  0  0  0  0  0  0  0  0  0  0  0
  154.8480  137.6074  160.9461 O   0  0  0  0  0  0  0  0  0  0  0  0
  153.9876  138.7278  161.1117 C   0  0  0  0  0  0  0  0  0  0  0  0
  154.8055  139.9648  161.5172 C   0  0  2  0  0  0  0  0  0  0  0  0
  155.5404  139.6749  162.6901 O   0  0  0  0  0  0  0  0  0  0  0  0
  153.9586  141.2418  161.6820 C   0  0  0  0  0  0  0  0  0  0  0  0
  153.4255  141.7145  160.4172 N   0  0  0  0  0  0  0  0  0  0  0  0
  153.4046  141.0455  159.2484 C   0  0  0  0  0  0  0  0  0  0  0  0
  152.8698  141.6656  158.2004 N   0  0  0  0  0  0  0  0  0  0  0  0
  152.4977  142.8787  158.7538 C   0  0  0  0  0  0  0  0  0  0  0  0
  151.8704  144.0006  158.1660 C   0  0  0  0  0  0  0  0  0  0  0  0
  151.5846  145.1455  158.9386 C   0  0  0  0  0  0  0  0  0  0  0  0
  151.9220  145.1874  160.3071 C   0  0  0  0  0  0  0  0  0  0  0  0
  152.5489  144.0823  160.9147 C   0  0  0  0  0  0  0  0  0  0  0  0
  152.8309  142.9413  160.1408 C   0  0  0  0  0  0  0  0  0  0  0  0
  154.0586  136.5801  163.0513 C   0  0  0  0  0  0  0  0  0  0  0  0
  153.9204  135.4157  163.8322 C   0  0  0  0  0  0  0  0  0  0  0  0
  155.3734  133.1698  161.7026 H   0  0  0  0  0  0  0  0  0  0  0  0
  155.6157  135.2155  160.3356 H   0  0  0  0  0  0  0  0  0  0  0  0
  153.4239  138.9298  160.1990 H   0  0  0  0  0  0  0  0  0  0  0  0
  153.2697  138.5091  161.9036 H   0  0  0  0  0  0  0  0  0  0  0  0
  155.5448  140.1404  160.7347 H   0  0  0  0  0  0  0  0  0  0  0  0
  154.9595  139.2679  163.3148 H   0  0  0  0  0  0  0  0  0  0  0  0
  153.1222  141.0523  162.3561 H   0  0  0  0  0  0  0  0  0  0  0  0
  154.5458  142.0433  162.1319 H   0  0  0  0  0  0  0  0  0  0  0  0
  153.8080  140.0472  159.1622 H   0  0  0  0  0  0  0  0  0  0  0  0
  151.6091  143.9802  157.1183 H   0  0  0  0  0  0  0  0  0  0  0  0
  151.1046  145.9970  158.4786 H   0  0  0  0  0  0  0  0  0  0  0  0
  151.7001  146.0689  160.8907 H   0  0  0  0  0  0  0  0  0  0  0  0
  152.8110  144.1118  161.9620 H   0  0  0  0  0  0  0  0  0  0  0  0
  153.6841  137.5081  163.4555 H   0  0  0  0  0  0  0  0  0  0  0  0
  153.4491  135.4795  164.8026 H   0  0  0  0  0  0  0  0  0  0  0  0
  1  2  3  0  0  0  0
  2  3  1  0  0  0  0
  3 22  1  0  0  0  0
  3  4  2  0  0  0  0
  4  5  1  0  0  0  0
  4 23  1  0  0  0  0
  5  6  2  0  0  0  0
  5 24  1  0  0  0  0
  6  7  1  0  0  0  0
  6 21  1  0  0  0  0
  7  8  1  0  0  0  0
  8  9  1  0  0  0  0
  8 25  1  0  0  0  0
  8 26  1  0  0  0  0
  9 10  1  0  0  0  0
  9 11  1  0  0  0  0
  9 27  1  0  0  0  0
 10 28  1  0  0  0  0
 11 12  1  0  0  0  0
 11 29  1  0  0  0  0
 11 30  1  0  0  0  0
 12 20  1  0  0  0  0
 12 13  1  0  0  0  0
 13 14  2  0  0  0  0
 13 31  1  0  0  0  0
 14 15  1  0  0  0  0
 15 20  2  0  0  0  0
 15 16  1  0  0  0  0
 16 17  2  0  0  0  0
 16 32  1  0  0  0  0
 17 18  1  0  0  0  0
 17 33  1  0  0  0  0
 18 19  2  0  0  0  0
 18 34  1  0  0  0  0
 19 20  1  0  0  0  0
 19 35  1  0  0  0  0
 21 22  2  0  0  0  0
 21 36  1  0  0  0  0
 22 37  1  0  0  0  0
M  END
> <s_m_source_file>
AV-unprocessed.smi

> <i_m_source_file_index>
1289

> <i_lp_mmshare_version>
43012

> <i_f3d_flags>
0

> <s_epik_input>
TiNDYzFbY0hdW2NIXWMoW2NIXVtjSF0xKU9bQ0gyXVtDQEhdKFtPSF0pW0NIMl1uKFtjSF1uMiljKGMyMylbY0hdW2NIXVtjSF1bY0hdMw==

> <s_epik_cmdline>
J2VwaWtfcHl0aG9uJywgJy1waCcsICc3LjAnLCAnLXRuJywgJzgnLCAnLW1hJywgJzIwMCcsICctbWV0YWxfYmluZGluZycsICctaW1hZScsICc8aW5maWxlLm1hZT4nLCAnLW9tYWUnLCAnPG91dGZpbGUubWFlPic=

> <r_epik_Ionization_Penalty>
0.0590811

> <r_epik_Ionization_Penalty_Charging>
0

> <r_epik_Ionization_Penalty_Neutral>
0.0590811

> <r_epik_State_Penalty>
0.0511328

> <r_epik_Charging_Adjusted_Penalty>
0.0511328

> <i_epik_Tot_Q>
0

> <i_epik_Tot_abs_Q>
0

> <r_epik_Metal_State_Penalty>
5.34017e-05

> <b_epik_Metal_Only>
0

> <s_lp_Force_Field>
OPLS_2005

> <r_lp_Energy>
15.8446

> <b_lp_Chiralities_Consistent>
1

> <s_lp_Variant>
AV-unprocessed.smi:1289-1

> <Gold.Version>
5.8.1

> <Gold.Id.Protein>
6NUR|6NUR_protein|mol2

> <Gold.PLP.Fitness>
49.8508

> <Gold.PLP.PLP>
-51.5769

> <Gold.PLP.part.hbond>
0.0000

> <Gold.PLP.part.metal>
0.0000

> <Gold.PLP.part.buried>
-5.3883

> <Gold.PLP.part.nonpolar>
-45.4764

> <Gold.PLP.part.repulsive>
0.0557

> <Gold.PLP.ligand.clash>
0.0000

> <Gold.PLP.ligand.torsion>
0.9020

> <Gold.PLP.Chemscore.Hbond>
0.0000

> <Gold.PLP.Chemscore.CHOScore>
0.0000

> <Gold.PLP.Chemscore.Metal>
0.0000

> <Gold.PLP.Chemscore.Internal.Correction>
0.0778

> <Gold.Rescore>
     Score         DG    S(hbond)    S(metal)    S(lipo)     H(rot)  DE(clash)    DE(int)     intcor
     14.13     -14.98       0.00        0.00     135.77       2.50       0.10       0.75       ----

> <Gold.Chemscore.Fitness>
14.1294

> <Gold.Chemscore.DG>
-14.9766

> <Gold.Chemscore.ZeroCoef>
-5.4800

> <Gold.Chemscore.Hbond>
0.0000

> <Gold.Chemscore.Metal>
0.0000

> <Gold.Chemscore.Lipo>
135.7685

> <Gold.Chemscore.Internal_Hbond>
0.0000

> <Gold.Chemscore.DEClash>
0.1002

> <Gold.Chemscore.DEInternal>
0.7469

> <Gold.Chemscore.Rot>
2.4954

> <Gold.Chemscore.Internal.Correction>
   9.000000E+99

> <Gold.Chemscore.Hbond.Weighted>
-0.0000

> <Gold.Chemscore.Metal.Weighted>
-0.0000

> <Gold.Chemscore.Lipo.Weighted>
-15.8849

> <Gold.Chemscore.Internal_Hbond.Weighted>
0.0000

> <Gold.Chemscore.DEClash.Weighted>
0.1002

> <Gold.Chemscore.DEInternal.Weighted>
0.7469

> <Gold.Chemscore.Rot.Weighted>
6.3883

> <Gold.Chemscore.Internal.Correction.Weighted>
   9.000000E+99

> <Gold.Protein.RotatedTorsions>
[ 6907 6896 6895 6894 ] final -172.48 input  -60.11 | X-H torsion
[ 7974 7965 7964 7962 ] final  -39.74 input  175.53 | X-H torsion
[ 8008 7997 7996 7995 ] final   11.43 input   59.86 | X-H torsion
[ 10167 10162 10161 10158 ] final  -93.79 input  -65.29 | X-H torsion
[ 10718 10713 10712 10709 ] final -106.13 input   66.30 | X-H torsion
[ 10763 10752 10751 10750 ] final -110.60 input  -60.55 | X-H torsion
[ 11005 11000 10999 10996 ] final -145.56 input  -57.11 | X-H torsion

> <Gold.Protein.ActiveResidues>
 VAL166  LYS551  ARG553  GLY616  TRP617  ASP618  TYR619  PRO620  LYS621  CYS622 
 ASP623  PHE694  ASN695  SER759  ASP760  ASP761  ALA762  ILE779  LEU786  VAL792 
 PHE793  MET794  SER795  GLU796  ALA797  LYS798  CYS799  TRP800  GLU811  SER814 

> <Gold.Protein.RotatedAtoms>
  151.5406  133.3433  159.2934 H   0  0  0  0  0  0  0  0  0  0  0  0  # atno 6907 bound_to 6896
  150.8538  134.7873  159.7040 H   0  0  0  0  0  0  0  0  0  0  0  0  # atno 6908 bound_to 6896
  152.4577  134.5263  159.9849 H   0  0  0  0  0  0  0  0  0  0  0  0  # atno 6909 bound_to 6896
  146.0368  140.6660  142.9106 H   0  0  0  0  0  0  0  0  0  0  0  0  # atno 7974 bound_to 7965
  154.8068  140.2861  155.5882 H   0  0  0  0  0  0  0  0  0  0  0  0  # atno 8008 bound_to 7997
  156.2983  140.2576  156.2877 H   0  0  0  0  0  0  0  0  0  0  0  0  # atno 8009 bound_to 7997
  154.9494  140.0379  157.2126 H   0  0  0  0  0  0  0  0  0  0  0  0  # atno 8010 bound_to 7997
  140.3211  143.3049  152.0045 H   0  0  0  0  0  0  0  0  0  0  0  0  # atno 10167 bound_to 10162
  156.0376  130.5598  150.7637 H   0  0  0  0  0  0  0  0  0  0  0  0  # atno 10718 bound_to 10713
  154.8256  135.4558  154.0910 H   0  0  0  0  0  0  0  0  0  0  0  0  # atno 10763 bound_to 10752
  153.2227  135.6896  153.7988 H   0  0  0  0  0  0  0  0  0  0  0  0  # atno 10764 bound_to 10752
  153.7399  135.3314  155.3278 H   0  0  0  0  0  0  0  0  0  0  0  0  # atno 10765 bound_to 10752
  140.7910  134.2969  157.5013 H   0  0  0  0  0  0  0  0  0  0  0  0  # atno 11005 bound_to 11000
  144.7056  140.3836  143.7121 LP  0  0  0  0  0  0  0  0  0  0  0  0  # atno 17320 bound_to 7965
  145.6950  139.1648  143.2625 LP  0  0  0  0  0  0  0  0  0  0  0  0  # atno 17321 bound_to 7965
  139.4874  144.6310  151.7069 LP  0  0  0  0  0  0  0  0  0  0  0  0  # atno 17342 bound_to 10162
  140.5483  144.0467  150.6116 LP  0  0  0  0  0  0  0  0  0  0  0  0  # atno 17343 bound_to 10162
  157.5150  131.0928  151.0151 LP  0  0  0  0  0  0  0  0  0  0  0  0  # atno 17370 bound_to 10713
  157.0496  130.5782  149.5368 LP  0  0  0  0  0  0  0  0  0  0  0  0  # atno 17371 bound_to 10713
  139.8731  134.9374  156.3687 LP  0  0  0  0  0  0  0  0  0  0  0  0  # atno 17394 bound_to 11000
  140.9390  133.7528  156.0121 LP  0  0  0  0  0  0  0  0  0  0  0  0  # atno 17395 bound_to 11000

$$$$
