AV-unprocessed.smi:288|AV-procd|sdf|2209|dock9
  -GOLD-   2262022 43D 1   1.00000     0.00000
 Structure written by MMmdl.
 33 34  0  0  0  0  0  0  0  0  1 V2000
  147.8707  138.1849  158.5546 O   0  0  0  0  0  0  0  0  0  0  0  0
  148.1733  137.1812  157.9071 C   0  0  0  0  0  0  0  0  0  0  0  0
  148.2383  137.1540  156.4505 C   0  0  0  0  0  0  0  0  0  0  0  0
  147.9478  138.2652  155.7527 F   0  0  0  0  0  0  0  0  0  0  0  0
  148.5930  136.0325  155.7867 C   0  0  0  0  0  0  0  0  0  0  0  0
  148.9219  134.8451  156.4243 N   0  0  0  0  0  0  0  0  0  0  0  0
  149.2986  133.5808  155.6767 C   0  0  2  0  0  0  0  0  0  0  0  0
  149.3441  133.7038  154.1506 C   0  0  0  0  0  0  0  0  0  0  0  0
  149.1940  132.2500  153.7682 C   0  0  0  0  0  0  0  0  0  0  0  0
  148.1610  131.7746  154.7891 C   0  0  0  0  0  0  0  0  0  0  0  0
  148.3272  132.6102  155.9341 O   0  0  0  0  0  0  0  0  0  0  0  0
  148.9006  134.7883  157.8366 C   0  0  0  0  0  0  0  0  0  0  0  0
  149.2264  133.7579  158.4310 O   0  0  0  0  0  0  0  0  0  0  0  0
  148.5050  135.9547  158.5319 N   0  0  0  0  0  0  0  0  0  0  0  0
  148.4705  135.9050  159.9847 C   0  0  0  0  0  0  0  0  0  0  0  0
  147.0387  135.9482  160.5642 C   0  0  2  0  0  0  0  0  0  0  0  0
  146.5668  137.2802  160.4981 O   0  0  0  0  0  0  0  0  0  0  0  0
  146.9872  135.4992  162.0378 C   0  0  0  0  0  0  0  0  0  0  0  0
  147.4916  134.2715  162.1640 F   0  0  0  0  0  0  0  0  0  0  0  0
  147.7285  136.3232  162.7787 F   0  0  0  0  0  0  0  0  0  0  0  0
  145.7364  135.5191  162.5006 F   0  0  0  0  0  0  0  0  0  0  0  0
  148.6307  136.1058  154.7123 H   0  0  0  0  0  0  0  0  0  0  0  0
  150.2624  133.2741  156.0883 H   0  0  0  0  0  0  0  0  0  0  0  0
  148.4790  134.2489  153.7728 H   0  0  0  0  0  0  0  0  0  0  0  0
  150.2678  134.1696  153.8067 H   0  0  0  0  0  0  0  0  0  0  0  0
  148.8715  132.1064  152.7367 H   0  0  0  0  0  0  0  0  0  0  0  0
  150.1392  131.7238  153.9103 H   0  0  0  0  0  0  0  0  0  0  0  0
  147.1494  131.9109  154.4050 H   0  0  0  0  0  0  0  0  0  0  0  0
  148.2878  130.7222  155.0437 H   0  0  0  0  0  0  0  0  0  0  0  0
  148.9861  134.9873  160.2726 H   0  0  0  0  0  0  0  0  0  0  0  0
  149.1083  136.6973  160.3808 H   0  0  0  0  0  0  0  0  0  0  0  0
  146.3697  135.3128  159.9823 H   0  0  0  0  0  0  0  0  0  0  0  0
  145.6224  137.2629  160.4677 H   0  0  0  0  0  0  0  0  0  0  0  0
  1  2  2  0  0  0  0
  2 14  1  0  0  0  0
  2  3  1  0  0  0  0
  3  4  1  0  0  0  0
  3  5  2  0  0  0  0
  5  6  1  0  0  0  0
  5 22  1  0  0  0  0
  6  7  1  0  0  0  0
  6 12  1  0  0  0  0
  7 11  1  0  0  0  0
  7  8  1  0  0  0  0
  7 23  1  0  0  0  0
  8  9  1  0  0  0  0
  8 24  1  0  0  0  0
  8 25  1  0  0  0  0
  9 10  1  0  0  0  0
  9 26  1  0  0  0  0
  9 27  1  0  0  0  0
 10 11  1  0  0  0  0
 10 28  1  0  0  0  0
 10 29  1  0  0  0  0
 12 13  2  0  0  0  0
 12 14  1  0  0  0  0
 14 15  1  0  0  0  0
 15 16  1  0  0  0  0
 15 30  1  0  0  0  0
 15 31  1  0  0  0  0
 16 17  1  0  0  0  0
 16 18  1  0  0  0  0
 16 32  1  0  0  0  0
 17 33  1  0  0  0  0
 18 19  1  0  0  0  0
 18 20  1  0  0  0  0
 18 21  1  0  0  0  0
M  END
> <s_m_source_file>
AV-unprocessed.smi

> <i_m_source_file_index>
288

> <i_lp_mmshare_version>
43012

> <i_f3d_flags>
0

> <s_epik_input>
TzFbQ0gyXVtDSDJdW0NIMl1bQ0BIXTFuKFtjSF1jKEYpYzI9TyljKD1PKW4yW0NIMl1bQ0BIXShbT0hdKUMoRikoRilG

> <s_epik_cmdline>
J2VwaWtfcHl0aG9uJywgJy1waCcsICc3LjAnLCAnLXRuJywgJzgnLCAnLW1hJywgJzIwMCcsICctbWV0YWxfYmluZGluZycsICctaW1hZScsICc8aW5maWxlLm1hZT4nLCAnLW9tYWUnLCAnPG91dGZpbGUubWFlPic=

> <r_lp_tautomer_probability>
1

> <r_epik_Ionization_Penalty>
0.000551119

> <r_epik_Ionization_Penalty_Charging>
2.51184e-08

> <r_epik_Ionization_Penalty_Neutral>
0.000551094

> <r_epik_State_Penalty>
0.000345115

> <r_epik_Charging_Adjusted_Penalty>
0.00034514

> <i_epik_Tot_Q>
0

> <i_epik_Tot_abs_Q>
0

> <r_epik_Metal_State_Penalty>
-0

> <b_epik_Metal_Only>
0

> <s_epik_Chemistry_Notes>
This compound contains an acetal/aminal-like group ( X-CH(R)-Y where X, Y are N, S, or O) that may be acid/base labile, releasing an aldehyde.

> <s_lp_Force_Field>
OPLS_2005

> <r_lp_Energy>
36.863

> <b_lp_Chiralities_Consistent>
1

> <s_lp_Variant>
AV-unprocessed.smi:288-1

> <Gold.Version>
5.8.1

> <Gold.Id.Protein>
6NUR|6NUR_protein|mol2

> <Gold.PLP.Fitness>
37.3795

> <Gold.PLP.PLP>
-31.4977

> <Gold.PLP.part.hbond>
-3.0000

> <Gold.PLP.part.metal>
0.0000

> <Gold.PLP.part.buried>
-4.2711

> <Gold.PLP.part.nonpolar>
-24.4791

> <Gold.PLP.part.repulsive>
0.0000

> <Gold.PLP.ligand.clash>
0.0000

> <Gold.PLP.ligand.torsion>
0.2656

> <Gold.PLP.Chemscore.Hbond>
2.0000

> <Gold.PLP.Chemscore.CHOScore>
0.1338

> <Gold.PLP.Chemscore.Metal>
0.0000

> <Gold.Chemscore.Hbonds>
donor molecule, donor type, donor heavy atom, donor atom, acceptor molecule, acceptor atom, score
      P1  H  6896  6908       L1    13  1.00
      P1  H  6934  6947       L1    17  1.00
      L1  C     5    22       P1  7948  0.18

> <Gold.PLP.Chemscore.Internal.Correction>
0.0116

> <Gold.Rescore>
     Score         DG    S(hbond)    S(metal)    S(lipo)     H(rot)  DE(clash)    DE(int)     intcor
      9.26      -9.98       1.96        0.00      38.54       2.57       0.00       0.72       ----

> <Gold.Chemscore.Fitness>
9.2624

> <Gold.Chemscore.DG>
-9.9838

> <Gold.Chemscore.ZeroCoef>
-5.4800

> <Gold.Chemscore.Hbond>
1.9650

> <Gold.Chemscore.Metal>
0.0000

> <Gold.Chemscore.Lipo>
38.5359

> <Gold.Chemscore.Internal_Hbond>
0.0000

> <Gold.Chemscore.DEClash>
0.0000

> <Gold.Chemscore.DEInternal>
0.7214

> <Gold.Chemscore.Rot>
2.5656

> <Gold.Chemscore.Internal.Correction>
   9.000000E+99

> <Gold.Chemscore.Hbonds>
donor molecule, donor type, donor heavy atom, donor atom, acceptor molecule, acceptor atom, score
      P1  H  6896  6908       L1    13  0.92
      P1  H  6934  6947       L1    17  0.74

> <Gold.Chemscore.Hbond.Weighted>
-6.5630

> <Gold.Chemscore.Metal.Weighted>
-0.0000

> <Gold.Chemscore.Lipo.Weighted>
-4.5087

> <Gold.Chemscore.Internal_Hbond.Weighted>
0.0000

> <Gold.Chemscore.DEClash.Weighted>
0.0000

> <Gold.Chemscore.DEInternal.Weighted>
0.7214

> <Gold.Chemscore.Rot.Weighted>
6.5679

> <Gold.Chemscore.Internal.Correction.Weighted>
   9.000000E+99

> <Gold.Protein.RotatedTorsions>
[ 6907 6896 6895 6894 ] final  121.91 input  -60.11 | X-H torsion
[ 7974 7965 7964 7962 ] final  129.73 input  175.53 | X-H torsion
[ 8008 7997 7996 7995 ] final  -90.90 input   59.86 | X-H torsion
[ 10167 10162 10161 10158 ] final   48.10 input  -65.29 | X-H torsion
[ 10718 10713 10712 10709 ] final   32.79 input   66.30 | X-H torsion
[ 10763 10752 10751 10750 ] final   78.78 input  -60.55 | X-H torsion
[ 11005 11000 10999 10996 ] final  -12.88 input  -57.11 | X-H torsion

> <Gold.Protein.ActiveResidues>
 VAL166  LYS551  ARG553  GLY616  TRP617  ASP618  TYR619  PRO620  LYS621  CYS622 
 ASP623  PHE694  ASN695  SER759  ASP760  ASP761  ALA762  ILE779  LEU786  VAL792 
 PHE793  MET794  SER795  GLU796  ALA797  LYS798  CYS799  TRP800  GLU811  SER814 

> <Gold.Protein.RotatedAtoms>
  152.4284  133.7235  159.6546 H   0  0  0  0  0  0  0  0  0  0  0  0  # atno 6907 bound_to 6896
  150.8162  133.8322  159.3165 H   0  0  0  0  0  0  0  0  0  0  0  0  # atno 6908 bound_to 6896
  151.6018  135.1049  160.0113 H   0  0  0  0  0  0  0  0  0  0  0  0  # atno 6909 bound_to 6896
  145.0256  139.4092  143.5176 H   0  0  0  0  0  0  0  0  0  0  0  0  # atno 7974 bound_to 7965
  154.7042  140.0525  157.0488 H   0  0  0  0  0  0  0  0  0  0  0  0  # atno 8008 bound_to 7997
  155.0643  140.3193  155.4632 H   0  0  0  0  0  0  0  0  0  0  0  0  # atno 8009 bound_to 7997
  156.2769  140.2093  156.5770 H   0  0  0  0  0  0  0  0  0  0  0  0  # atno 8010 bound_to 7997
  140.2968  144.2981  150.6228 H   0  0  0  0  0  0  0  0  0  0  0  0  # atno 10167 bound_to 10162
  157.2897  130.7296  149.6604 H   0  0  0  0  0  0  0  0  0  0  0  0  # atno 10718 bound_to 10713
  153.0901  135.4864  154.8673 H   0  0  0  0  0  0  0  0  0  0  0  0  # atno 10763 bound_to 10752
  154.7258  135.3049  154.8975 H   0  0  0  0  0  0  0  0  0  0  0  0  # atno 10764 bound_to 10752
  153.9625  135.6810  153.4798 H   0  0  0  0  0  0  0  0  0  0  0  0  # atno 10765 bound_to 10752
  140.7703  133.8444  155.9201 H   0  0  0  0  0  0  0  0  0  0  0  0  # atno 11005 bound_to 11000
  146.3491  139.9777  142.8699 LP  0  0  0  0  0  0  0  0  0  0  0  0  # atno 17320 bound_to 7965
  145.1838  140.9780  143.4250 LP  0  0  0  0  0  0  0  0  0  0  0  0  # atno 17321 bound_to 7965
  140.5685  143.2183  151.7641 LP  0  0  0  0  0  0  0  0  0  0  0  0  # atno 17342 bound_to 10162
  139.4924  144.4250  151.9936 LP  0  0  0  0  0  0  0  0  0  0  0  0  # atno 17343 bound_to 10162
  155.9667  130.4312  150.4912 LP  0  0  0  0  0  0  0  0  0  0  0  0  # atno 17370 bound_to 10713
  157.2872  131.0619  151.2158 LP  0  0  0  0  0  0  0  0  0  0  0  0  # atno 17371 bound_to 10713
  140.9580  134.1692  157.4676 LP  0  0  0  0  0  0  0  0  0  0  0  0  # atno 17394 bound_to 11000
  139.8757  134.9934  156.5643 LP  0  0  0  0  0  0  0  0  0  0  0  0  # atno 17395 bound_to 11000

$$$$
