AV-unprocessed.smi:607|AV-procd|sdf|3043|dock3
  -GOLD-   2262023563D 1   1.00000     0.00000
 Structure written by MMmdl.
 42 43  0  0  0  0  0  0  0  0  1 V2000
  149.5338  140.8596  154.2564 C   0  0  0  0  0  0  0  0  0  0  0  0
  150.3678  140.5786  155.4738 C   0  0  0  0  0  0  0  0  0  0  0  0
  150.3597  141.4424  156.4741 N   0  0  0  0  0  0  0  0  0  0  0  0
  151.1855  140.9091  157.3950 N   0  0  0  0  0  0  0  0  0  0  0  0
  151.4089  141.6152  158.6417 C   0  0  0  0  0  0  0  0  0  0  0  0
  151.7147  139.7029  156.9785 C   0  0  0  0  0  0  0  0  0  0  0  0
  152.6540  138.9212  157.8424 C   0  0  0  0  0  0  0  0  0  0  0  0
  151.2069  139.4529  155.7275 C   0  0  0  0  0  0  0  0  0  0  0  0
  151.4389  138.2755  154.8010 C   0  0  1  0  0  0  0  0  0  0  0  0
  152.8563  138.2941  154.1980 C   0  0  0  0  0  0  0  0  0  0  0  0
  151.1039  136.9637  155.5301 C   0  0  0  0  0  0  0  0  0  0  0  0
  151.8887  136.4730  156.3419 O   0  0  0  0  0  0  0  0  0  0  0  0
  149.9187  136.4075  155.2276 N   0  0  0  0  0  0  0  0  0  0  0  0
  149.3359  135.2061  155.8286 C   0  0  0  0  0  0  0  0  0  0  0  0
  149.2683  135.3340  157.2969 C   0  0  0  0  0  0  0  0  0  0  0  0
  149.2166  135.4344  158.4485 N   0  0  0  0  0  0  0  0  0  0  0  0
  147.9366  134.9907  155.2335 C   0  0  0  0  0  0  0  0  0  0  0  0
  148.1321  134.1994  153.9329 C   0  0  0  0  0  0  0  0  0  0  0  0
  149.5436  133.6017  153.9951 C   0  0  0  0  0  0  0  0  0  0  0  0
  150.0850  133.9371  155.3876 C   0  0  0  0  0  0  0  0  0  0  0  0
  148.7122  140.1476  154.1764 H   0  0  0  0  0  0  0  0  0  0  0  0
  150.1313  140.7822  153.3482 H   0  0  0  0  0  0  0  0  0  0  0  0
  149.1032  141.8615  154.2821 H   0  0  0  0  0  0  0  0  0  0  0  0
  151.0551  141.0078  159.4752 H   0  0  0  0  0  0  0  0  0  0  0  0
  150.8751  142.5668  158.6478 H   0  0  0  0  0  0  0  0  0  0  0  0
  152.4745  141.8086  158.7675 H   0  0  0  0  0  0  0  0  0  0  0  0
  152.8235  137.9191  157.4508 H   0  0  0  0  0  0  0  0  0  0  0  0
  152.2561  138.8125  158.8516 H   0  0  0  0  0  0  0  0  0  0  0  0
  153.6203  139.4212  157.9110 H   0  0  0  0  0  0  0  0  0  0  0  0
  150.7463  138.3260  153.9602 H   0  0  0  0  0  0  0  0  0  0  0  0
  153.6297  138.2432  154.9645 H   0  0  0  0  0  0  0  0  0  0  0  0
  153.0202  139.2085  153.6272 H   0  0  0  0  0  0  0  0  0  0  0  0
  153.0089  137.4556  153.5174 H   0  0  0  0  0  0  0  0  0  0  0  0
  149.3465  136.8858  154.5468 H   0  0  0  0  0  0  0  0  0  0  0  0
  147.3399  134.3887  155.9209 H   0  0  0  0  0  0  0  0  0  0  0  0
  147.3916  135.9226  155.0763 H   0  0  0  0  0  0  0  0  0  0  0  0
  147.3716  133.4247  153.8311 H   0  0  0  0  0  0  0  0  0  0  0  0
  148.0441  134.8574  153.0676 H   0  0  0  0  0  0  0  0  0  0  0  0
  149.5465  132.5276  153.8069 H   0  0  0  0  0  0  0  0  0  0  0  0
  150.1716  134.0680  153.2350 H   0  0  0  0  0  0  0  0  0  0  0  0
  151.1704  134.0390  155.3978 H   0  0  0  0  0  0  0  0  0  0  0  0
  149.8378  133.1199  156.0668 H   0  0  0  0  0  0  0  0  0  0  0  0
  1  2  1  0  0  0  0
  1 21  1  0  0  0  0
  1 22  1  0  0  0  0
  1 23  1  0  0  0  0
  2  8  1  0  0  0  0
  2  3  2  0  0  0  0
  3  4  1  0  0  0  0
  4  5  1  0  0  0  0
  4  6  1  0  0  0  0
  5 24  1  0  0  0  0
  5 25  1  0  0  0  0
  5 26  1  0  0  0  0
  6  7  1  0  0  0  0
  6  8  2  0  0  0  0
  7 27  1  0  0  0  0
  7 28  1  0  0  0  0
  7 29  1  0  0  0  0
  8  9  1  0  0  0  0
  9 10  1  0  0  0  0
  9 11  1  0  0  0  0
  9 30  1  0  0  0  0
 10 31  1  0  0  0  0
 10 32  1  0  0  0  0
 10 33  1  0  0  0  0
 11 12  2  0  0  0  0
 11 13  1  0  0  0  0
 13 14  1  0  0  0  0
 13 34  1  0  0  0  0
 14 20  1  0  0  0  0
 14 15  1  0  0  0  0
 14 17  1  0  0  0  0
 15 16  3  0  0  0  0
 17 18  1  0  0  0  0
 17 35  1  0  0  0  0
 17 36  1  0  0  0  0
 18 19  1  0  0  0  0
 18 37  1  0  0  0  0
 18 38  1  0  0  0  0
 19 20  1  0  0  0  0
 19 39  1  0  0  0  0
 19 40  1  0  0  0  0
 20 41  1  0  0  0  0
 20 42  1  0  0  0  0
M  END
> <s_m_source_file>
AV-unprocessed.smi

> <i_m_source_file_index>
607

> <i_lp_mmshare_version>
43012

> <i_f3d_flags>
0

> <s_epik_input>
W0NIM11jMW5uKFtDSDNdKWMoW0NIM10pYzFbQ0BIXShbQ0gzXSlDKD1PKVtOSF1DMihDI04pW0NIMl1bQ0gyXVtDSDJdW0NIMl0y

> <s_epik_cmdline>
J2VwaWtfcHl0aG9uJywgJy1waCcsICc3LjAnLCAnLXRuJywgJzgnLCAnLW1hJywgJzIwMCcsICctbWV0YWxfYmluZGluZycsICctaW1hZScsICc8aW5maWxlLm1hZT4nLCAnLW9tYWUnLCAnPG91dGZpbGUubWFlPic=

> <r_lp_tautomer_probability>
1

> <r_epik_Ionization_Penalty>
0.00342632

> <r_epik_Ionization_Penalty_Charging>
0

> <r_epik_Ionization_Penalty_Neutral>
0.00342632

> <r_epik_State_Penalty>
0.00242724

> <r_epik_Charging_Adjusted_Penalty>
0.00242724

> <i_epik_Tot_Q>
0

> <i_epik_Tot_abs_Q>
0

> <r_epik_Metal_State_Penalty>
-0

> <b_epik_Metal_Only>
0

> <s_lp_Force_Field>
OPLS_2005

> <r_lp_Energy>
13.7926

> <b_lp_Chiralities_Consistent>
1

> <s_lp_Variant>
AV-unprocessed.smi:607-2

> <Gold.Version>
5.8.1

> <Gold.Id.Protein>
6NUR|6NUR_protein|mol2

> <Gold.PLP.Fitness>
34.6349

> <Gold.PLP.PLP>
-29.6971

> <Gold.PLP.part.hbond>
-2.0000

> <Gold.PLP.part.metal>
0.0000

> <Gold.PLP.part.buried>
-4.2558

> <Gold.PLP.part.nonpolar>
-23.5490

> <Gold.PLP.part.repulsive>
0.1116

> <Gold.PLP.ligand.clash>
0.0000

> <Gold.PLP.ligand.torsion>
0.5918

> <Gold.PLP.Chemscore.Hbond>
2.0000

> <Gold.PLP.Chemscore.CHOScore>
0.0000

> <Gold.PLP.Chemscore.Metal>
0.0000

> <Gold.Chemscore.Hbonds>
donor molecule, donor type, donor heavy atom, donor atom, acceptor molecule, acceptor atom, score
      P1  H  6896  6907       L1    16  0.91
      P1  H 10752 10764       L1    12  0.94

> <Gold.PLP.Chemscore.Internal.Correction>
0.1213

> <Gold.Rescore>
     Score         DG    S(hbond)    S(metal)    S(lipo)     H(rot)  DE(clash)    DE(int)     intcor
     15.90     -17.02       1.90        0.00      74.27       1.37       0.40       0.71       ----

> <Gold.Chemscore.Fitness>
15.8989

> <Gold.Chemscore.DG>
-17.0186

> <Gold.Chemscore.ZeroCoef>
-5.4800

> <Gold.Chemscore.Hbond>
1.9045

> <Gold.Chemscore.Metal>
0.0000

> <Gold.Chemscore.Lipo>
74.2732

> <Gold.Chemscore.Internal_Hbond>
0.0000

> <Gold.Chemscore.DEClash>
0.4048

> <Gold.Chemscore.DEInternal>
0.7148

> <Gold.Chemscore.Rot>
1.3720

> <Gold.Chemscore.Internal.Correction>
   9.000000E+99

> <Gold.Chemscore.Hbonds>
donor molecule, donor type, donor heavy atom, donor atom, acceptor molecule, acceptor atom, score
      P1  H  6896  6907       L1    16  0.73
      P1  H 10752 10764       L1    12  0.23

> <Gold.Chemscore.Hbond.Weighted>
-6.3609

> <Gold.Chemscore.Metal.Weighted>
-0.0000

> <Gold.Chemscore.Lipo.Weighted>
-8.6900

> <Gold.Chemscore.Internal_Hbond.Weighted>
0.0000

> <Gold.Chemscore.DEClash.Weighted>
0.4048

> <Gold.Chemscore.DEInternal.Weighted>
0.7148

> <Gold.Chemscore.Rot.Weighted>
3.5123

> <Gold.Chemscore.Internal.Correction.Weighted>
   9.000000E+99

> <Gold.Protein.RotatedTorsions>
[ 6907 6896 6895 6894 ] final  -89.89 input  -60.11 | X-H torsion
[ 7974 7965 7964 7962 ] final   71.95 input  175.53 | X-H torsion
[ 8008 7997 7996 7995 ] final -129.04 input   59.86 | X-H torsion
[ 10167 10162 10161 10158 ] final  162.26 input  -65.29 | X-H torsion
[ 10718 10713 10712 10709 ] final   92.02 input   66.30 | X-H torsion
[ 10763 10752 10751 10750 ] final  -29.87 input  -60.55 | X-H torsion
[ 11005 11000 10999 10996 ] final  114.20 input  -57.11 | X-H torsion

> <Gold.Protein.ActiveResidues>
 VAL166  LYS551  ARG553  GLY616  TRP617  ASP618  TYR619  PRO620  LYS621  CYS622 
 ASP623  PHE694  ASN695  SER759  ASP760  ASP761  ALA762  ILE779  LEU786  VAL792 
 PHE793  MET794  SER795  GLU796  ALA797  LYS798  CYS799  TRP800  GLU811  SER814 

> <Gold.Protein.RotatedAtoms>
  150.6877  134.2516  159.4512 H   0  0  0  0  0  0  0  0  0  0  0  0  # atno 6907 bound_to 6896
  152.0453  134.9684  160.0583 H   0  0  0  0  0  0  0  0  0  0  0  0  # atno 6908 bound_to 6896
  152.1169  133.4297  159.4694 H   0  0  0  0  0  0  0  0  0  0  0  0  # atno 6909 bound_to 6896
  145.7595  139.2794  143.1384 H   0  0  0  0  0  0  0  0  0  0  0  0  # atno 7974 bound_to 7965
  155.2726  140.0440  157.3008 H   0  0  0  0  0  0  0  0  0  0  0  0  # atno 8008 bound_to 7997
  154.5644  140.2355  155.8254 H   0  0  0  0  0  0  0  0  0  0  0  0  # atno 8009 bound_to 7997
  156.2073  140.3009  155.9663 H   0  0  0  0  0  0  0  0  0  0  0  0  # atno 8010 bound_to 7997
  139.4858  144.4455  151.8897 H   0  0  0  0  0  0  0  0  0  0  0  0  # atno 10167 bound_to 10162
  157.6959  131.0428  150.3818 H   0  0  0  0  0  0  0  0  0  0  0  0  # atno 10718 bound_to 10713
  153.7717  135.6912  153.4905 H   0  0  0  0  0  0  0  0  0  0  0  0  # atno 10763 bound_to 10752
  153.1870  135.4485  155.0099 H   0  0  0  0  0  0  0  0  0  0  0  0  # atno 10764 bound_to 10752
  154.8115  135.3379  154.7226 H   0  0  0  0  0  0  0  0  0  0  0  0  # atno 10765 bound_to 10752
  139.8974  134.9564  156.6856 H   0  0  0  0  0  0  0  0  0  0  0  0  # atno 11005 bound_to 11000
  146.0278  140.8287  142.9891 LP  0  0  0  0  0  0  0  0  0  0  0  0  # atno 17320 bound_to 7965
  144.6833  140.2724  143.7304 LP  0  0  0  0  0  0  0  0  0  0  0  0  # atno 17321 bound_to 7965
  140.3909  144.2616  150.5900 LP  0  0  0  0  0  0  0  0  0  0  0  0  # atno 17342 bound_to 10162
  140.5147  143.2281  151.8482 LP  0  0  0  0  0  0  0  0  0  0  0  0  # atno 17343 bound_to 10162
  156.4231  130.3957  149.6811 LP  0  0  0  0  0  0  0  0  0  0  0  0  # atno 17370 bound_to 10713
  156.4055  130.7696  151.2706 LP  0  0  0  0  0  0  0  0  0  0  0  0  # atno 17371 bound_to 10713
  140.7265  133.9096  155.8182 LP  0  0  0  0  0  0  0  0  0  0  0  0  # atno 17394 bound_to 11000
  141.0187  134.0920  157.4144 LP  0  0  0  0  0  0  0  0  0  0  0  0  # atno 17395 bound_to 11000

$$$$
