AV-unprocessed.smi:1215|AV-procd|sdf|5095|dock8
  -GOLD-   22720 4143D 1   1.00000     0.00000
 Structure written by MMmdl.
 46 47  0  0  0  0  0  0  0  0  2 V2000
  145.8561  142.9836  153.7387 C   0  0  0  0  0  0  0  0  0  0  0  0
  147.0821  142.3035  154.3594 C   0  0  0  0  0  0  0  0  0  0  0  0
  146.9269  140.8630  154.4099 N   0  0  0  0  0  0  0  0  0  0  0  0
  147.6720  139.9006  153.7577 C   0  0  0  0  0  0  0  0  0  0  0  0
  147.1413  138.7009  154.1402 C   0  0  0  0  0  0  0  0  0  0  0  0
  147.5305  137.3873  153.7757 N   0  0  0  0  0  0  0  0  0  0  0  0
  147.0031  136.2309  154.2094 C   0  0  0  0  0  0  0  0  0  0  0  0
  146.0899  136.1306  155.0294 O   0  0  0  0  0  0  0  0  0  0  0  0
  147.6037  135.1758  153.6406 N   0  0  0  0  0  0  0  0  0  0  0  0
  147.2652  133.7826  153.9075 C   0  0  0  0  0  0  0  0  0  0  0  0
  147.9498  132.8363  152.9010 C   0  0  0  0  0  0  0  0  0  0  0  0
  147.0127  132.2485  151.9059 N   0  3  1  0  0  0  0  0  0  0  0  0
  145.8489  131.5933  152.5624 C   0  0  0  0  0  0  0  0  0  0  0  0
  145.0018  130.8053  151.5512 C   0  0  0  0  0  0  0  0  0  0  0  0
  144.5383  131.7073  150.4029 C   0  0  0  0  0  0  0  0  0  0  0  0
  145.7516  132.3853  149.7523 C   0  0  0  0  0  0  0  0  0  0  0  0
  146.6157  133.1502  150.7777 C   0  0  1  0  0  0  0  0  0  0  0  0
  145.9485  134.4643  151.2386 C   0  0  0  0  0  0  0  0  0  0  0  0
  146.0770  139.0131  155.0256 C   0  0  0  0  0  0  0  0  0  0  0  0
  145.9532  140.3219  155.1833 N   0  0  0  0  0  0  0  0  0  0  0  0
  145.9831  144.0659  153.7163 H   0  0  0  0  0  0  0  0  0  0  0  0
  144.9536  142.7658  154.3108 H   0  0  0  0  0  0  0  0  0  0  0  0
  145.6934  142.6466  152.7145 H   0  0  0  0  0  0  0  0  0  0  0  0
  147.9800  142.5419  153.7873 H   0  0  0  0  0  0  0  0  0  0  0  0
  147.2447  142.6728  155.3727 H   0  0  0  0  0  0  0  0  0  0  0  0
  148.4921  140.1567  153.1032 H   0  0  0  0  0  0  0  0  0  0  0  0
  148.2880  137.3229  153.1115 H   0  0  0  0  0  0  0  0  0  0  0  0
  148.3428  135.3489  152.9747 H   0  0  0  0  0  0  0  0  0  0  0  0
  147.5448  133.5481  154.9348 H   0  0  0  0  0  0  0  0  0  0  0  0
  146.1820  133.6757  153.8444 H   0  0  0  0  0  0  0  0  0  0  0  0
  148.7040  133.4123  152.3630 H   0  0  0  0  0  0  0  0  0  0  0  0
  148.4941  132.0437  153.4148 H   0  0  0  0  0  0  0  0  0  0  0  0
  146.2024  130.9061  153.3322 H   0  0  0  0  0  0  0  0  0  0  0  0
  145.2374  132.3388  153.0719 H   0  0  0  0  0  0  0  0  0  0  0  0
  145.5856  129.9744  151.1526 H   0  0  0  0  0  0  0  0  0  0  0  0
  144.1384  130.3648  152.0506 H   0  0  0  0  0  0  0  0  0  0  0  0
  143.9937  131.1214  149.6618 H   0  0  0  0  0  0  0  0  0  0  0  0
  143.8420  132.4587  150.7767 H   0  0  0  0  0  0  0  0  0  0  0  0
  146.3640  131.6234  149.2678 H   0  0  0  0  0  0  0  0  0  0  0  0
  145.4225  133.0562  148.9577 H   0  0  0  0  0  0  0  0  0  0  0  0
  147.5215  133.4289  150.2410 H   0  0  0  0  0  0  0  0  0  0  0  0
  145.6538  135.0673  150.3793 H   0  0  0  0  0  0  0  0  0  0  0  0
  146.6278  135.0778  151.8300 H   0  0  0  0  0  0  0  0  0  0  0  0
  145.0524  134.2889  151.8329 H   0  0  0  0  0  0  0  0  0  0  0  0
  145.4052  138.3488  155.5491 H   0  0  0  0  0  0  0  0  0  0  0  0
  147.5259  131.4937  151.4733 H   0  0  0  0  0  0  0  0  0  0  0  0
  1  2  1  0  0  0  0
  1 21  1  0  0  0  0
  1 22  1  0  0  0  0
  1 23  1  0  0  0  0
  2  3  1  0  0  0  0
  2 24  1  0  0  0  0
  2 25  1  0  0  0  0
  3 20  1  0  0  0  0
  3  4  1  0  0  0  0
  4  5  2  0  0  0  0
  4 26  1  0  0  0  0
  5  6  1  0  0  0  0
  5 19  1  0  0  0  0
  6  7  1  0  0  0  0
  6 27  1  0  0  0  0
  7  8  2  0  0  0  0
  7  9  1  0  0  0  0
  9 10  1  0  0  0  0
  9 28  1  0  0  0  0
 10 11  1  0  0  0  0
 10 29  1  0  0  0  0
 10 30  1  0  0  0  0
 11 12  1  0  0  0  0
 11 31  1  0  0  0  0
 11 32  1  0  0  0  0
 12 17  1  0  0  0  0
 12 13  1  0  0  0  0
 12 46  1  0  0  0  0
 13 14  1  0  0  0  0
 13 33  1  0  0  0  0
 13 34  1  0  0  0  0
 14 15  1  0  0  0  0
 14 35  1  0  0  0  0
 14 36  1  0  0  0  0
 15 16  1  0  0  0  0
 15 37  1  0  0  0  0
 15 38  1  0  0  0  0
 16 17  1  0  0  0  0
 16 39  1  0  0  0  0
 16 40  1  0  0  0  0
 17 18  1  0  0  0  0
 17 41  1  0  0  0  0
 18 42  1  0  0  0  0
 18 43  1  0  0  0  0
 18 44  1  0  0  0  0
 19 20  2  0  0  0  0
 19 45  1  0  0  0  0
M  CHG  1  12   1
M  END
> <s_m_source_file>
AV-unprocessed.smi

> <i_m_source_file_index>
1215

> <i_lp_mmshare_version>
43012

> <i_f3d_flags>
0

> <s_epik_input>
W0NIM11bQ0gyXW4xW2NIXWMoW2NIXW4xKVtOSF1DKD1PKVtOSF1bQ0gyXVtDSDJdTjJbQ0gyXVtDSDJdW0NIMl1bQ0gyXVtDQEhdMltDSDNd

> <s_epik_cmdline>
J2VwaWtfcHl0aG9uJywgJy1waCcsICc3LjAnLCAnLXRuJywgJzgnLCAnLW1hJywgJzIwMCcsICctbWV0YWxfYmluZGluZycsICctaW1hZScsICc8aW5maWxlLm1hZT4nLCAnLW9tYWUnLCAnPG91dGZpbGUubWFlPic=

> <r_lp_tautomer_probability>
1

> <r_epik_Ionization_Penalty>
0.00247187

> <r_epik_Ionization_Penalty_Charging>
0.00232067

> <r_epik_Ionization_Penalty_Neutral>
0.000151201

> <r_epik_State_Penalty>
0.00160128

> <r_epik_Charging_Adjusted_Penalty>
0.00392194

> <i_epik_Tot_Q>
1

> <i_epik_Tot_abs_Q>
1

> <r_epik_Metal_State_Penalty>
-0

> <b_epik_Metal_Only>
0

> <s_lp_Force_Field>
OPLS_2005

> <r_lp_Energy>
23.8911

> <b_lp_Chiralities_Consistent>
1

> <s_lp_Variant>
AV-unprocessed.smi:1215-2

> <Gold.Version>
5.8.1

> <Gold.Id.Protein>
6NUR|6NUR_protein|mol2

> <Gold.PLP.Fitness>
44.3402

> <Gold.PLP.PLP>
-33.8005

> <Gold.PLP.part.hbond>
-2.7683

> <Gold.PLP.part.metal>
0.0000

> <Gold.PLP.part.buried>
-3.2153

> <Gold.PLP.part.nonpolar>
-28.1777

> <Gold.PLP.part.repulsive>
0.1233

> <Gold.PLP.ligand.clash>
0.0000

> <Gold.PLP.ligand.torsion>
0.4999

> <Gold.PLP.Chemscore.Hbond>
2.8320

> <Gold.PLP.Chemscore.CHOScore>
1.0000

> <Gold.PLP.Chemscore.Metal>
0.0000

> <Gold.Chemscore.Hbonds>
donor molecule, donor type, donor heavy atom, donor atom, acceptor molecule, acceptor atom, score
      L1  H     6    27       P1  7948  0.85
      L1  H     9    28       P1  7948  0.98
      L1  H    12    46       P1 10747  1.00
      L1  C     4    26       P1  7957  1.00

> <Gold.PLP.Chemscore.Internal.Correction>
0.0434

> <Gold.Rescore>
     Score         DG    S(hbond)    S(metal)    S(lipo)     H(rot)  DE(clash)    DE(int)     intcor
     18.20     -20.01       2.77        0.00      79.84       1.59       0.00       1.80       ----

> <Gold.Chemscore.Fitness>
18.2018

> <Gold.Chemscore.DG>
-20.0083

> <Gold.Chemscore.ZeroCoef>
-5.4800

> <Gold.Chemscore.Hbond>
2.7723

> <Gold.Chemscore.Metal>
0.0000

> <Gold.Chemscore.Lipo>
79.8425

> <Gold.Chemscore.Internal_Hbond>
0.0000

> <Gold.Chemscore.DEClash>
0.0038

> <Gold.Chemscore.DEInternal>
1.8027

> <Gold.Chemscore.Rot>
1.5909

> <Gold.Chemscore.Internal.Correction>
   9.000000E+99

> <Gold.Chemscore.Hbonds>
donor molecule, donor type, donor heavy atom, donor atom, acceptor molecule, acceptor atom, score
      L1  H     6    27       P1  7948  0.83
      L1  H     9    28       P1  7948  0.86
      L1  H    12    46       P1 10747  0.92

> <Gold.Chemscore.Hbond.Weighted>
-9.2595

> <Gold.Chemscore.Metal.Weighted>
-0.0000

> <Gold.Chemscore.Lipo.Weighted>
-9.3416

> <Gold.Chemscore.Internal_Hbond.Weighted>
0.0000

> <Gold.Chemscore.DEClash.Weighted>
0.0038

> <Gold.Chemscore.DEInternal.Weighted>
1.8027

> <Gold.Chemscore.Rot.Weighted>
4.0728

> <Gold.Chemscore.Internal.Correction.Weighted>
   9.000000E+99

> <Gold.Protein.RotatedTorsions>
[ 6907 6896 6895 6894 ] final -177.52 input  -60.11 | X-H torsion
[ 7974 7965 7964 7962 ] final -108.76 input  175.53 | X-H torsion
[ 8008 7997 7996 7995 ] final   98.38 input   59.86 | X-H torsion
[ 10167 10162 10161 10158 ] final  108.97 input  -65.29 | X-H torsion
[ 10718 10713 10712 10709 ] final -127.98 input   66.30 | X-H torsion
[ 10763 10752 10751 10750 ] final  115.68 input  -60.55 | X-H torsion
[ 11005 11000 10999 10996 ] final -147.15 input  -57.11 | X-H torsion

> <Gold.Protein.ActiveResidues>
 VAL166  LYS551  ARG553  GLY616  TRP617  ASP618  TYR619  PRO620  LYS621  CYS622 
 ASP623  PHE694  ASN695  SER759  ASP760  ASP761  ALA762  ILE779  LEU786  VAL792 
 PHE793  MET794  SER795  GLU796  ALA797  LYS798  CYS799  TRP800  GLU811  SER814 

> <Gold.Protein.RotatedAtoms>
  151.6223  133.3338  159.3090 H   0  0  0  0  0  0  0  0  0  0  0  0  # atno 6907 bound_to 6896
  150.8099  134.7252  159.6690 H   0  0  0  0  0  0  0  0  0  0  0  0  # atno 6908 bound_to 6896
  152.4196  134.5984  160.0045 H   0  0  0  0  0  0  0  0  0  0  0  0  # atno 6909 bound_to 6896
  145.1888  140.9005  143.3436 H   0  0  0  0  0  0  0  0  0  0  0  0  # atno 7974 bound_to 7965
  156.0999  140.3244  155.7927 H   0  0  0  0  0  0  0  0  0  0  0  0  # atno 8008 bound_to 7997
  155.4855  140.0557  157.2978 H   0  0  0  0  0  0  0  0  0  0  0  0  # atno 8009 bound_to 7997
  154.4690  140.2002  156.0059 H   0  0  0  0  0  0  0  0  0  0  0  0  # atno 8010 bound_to 7997
  139.6804  144.7118  151.1526 H   0  0  0  0  0  0  0  0  0  0  0  0  # atno 10167 bound_to 10162
  156.1907  130.6793  151.0421 H   0  0  0  0  0  0  0  0  0  0  0  0  # atno 10718 bound_to 10713
  153.5258  135.3588  155.2653 H   0  0  0  0  0  0  0  0  0  0  0  0  # atno 10763 bound_to 10752
  154.8731  135.4056  154.3208 H   0  0  0  0  0  0  0  0  0  0  0  0  # atno 10764 bound_to 10752
  153.3887  135.7071  153.6578 H   0  0  0  0  0  0  0  0  0  0  0  0  # atno 10765 bound_to 10752
  140.7746  134.3149  157.5064 H   0  0  0  0  0  0  0  0  0  0  0  0  # atno 11005 bound_to 11000
  145.0062  139.3552  143.6143 LP  0  0  0  0  0  0  0  0  0  0  0  0  # atno 17320 bound_to 7965
  146.3440  139.9305  142.8754 LP  0  0  0  0  0  0  0  0  0  0  0  0  # atno 17321 bound_to 7965
  140.7650  143.5708  150.8998 LP  0  0  0  0  0  0  0  0  0  0  0  0  # atno 17342 bound_to 10162
  139.9380  143.6415  152.3060 LP  0  0  0  0  0  0  0  0  0  0  0  0  # atno 17343 bound_to 10162
  157.6927  131.0804  150.7060 LP  0  0  0  0  0  0  0  0  0  0  0  0  # atno 17370 bound_to 10713
  156.7116  130.4653  149.5546 LP  0  0  0  0  0  0  0  0  0  0  0  0  # atno 17371 bound_to 10713
  139.8751  134.9282  156.3444 LP  0  0  0  0  0  0  0  0  0  0  0  0  # atno 17394 bound_to 11000
  140.9541  133.7432  156.0311 LP  0  0  0  0  0  0  0  0  0  0  0  0  # atno 17395 bound_to 11000

$$$$
