AV-unprocessed.smi:2119|AV-procd|sdf|8636|dock6
  -GOLD-   2272011383D 1   1.00000     0.00000
 Structure written by MMmdl.
 48 50  0  0  0  0  0  0  0  0  2 V2000
  145.2810  135.2708  154.1508 O   0  0  0  0  0  0  0  0  0  0  0  0
  146.2961  135.3179  153.4570 C   0  0  0  0  0  0  0  0  0  0  0  0
  147.3845  136.0307  153.7814 N   0  0  0  0  0  0  0  0  0  0  0  0
  147.5333  136.8573  154.9756 C   0  0  0  0  0  0  0  0  0  0  0  0
  148.8970  137.5978  155.0277 C   0  0  2  0  0  0  0  0  0  0  0  0
  149.7453  137.2795  156.2923 C   0  0  1  0  0  0  0  0  0  0  0  0
  149.1707  137.7369  157.6241 C   0  0  0  0  0  0  0  0  0  0  0  0
  149.8970  136.8540  158.6365 C   0  0  0  0  0  0  0  0  0  0  0  0
  150.2807  135.6771  157.9352 O   0  0  0  0  0  0  0  0  0  0  0  0
  149.8874  135.7799  156.5742 C   0  0  0  0  0  0  0  0  0  0  0  0
  148.7287  139.0779  154.9038 N   0  3  0  0  0  0  0  0  0  0  0  0
  150.0022  139.8378  154.9342 C   0  0  0  0  0  0  0  0  0  0  0  0
  149.7159  141.3482  154.9977 C   0  0  0  0  0  0  0  0  0  0  0  0
  148.8988  141.7303  153.8974 O   0  0  0  0  0  0  0  0  0  0  0  0
  147.6409  141.0654  153.9074 C   0  0  0  0  0  0  0  0  0  0  0  0
  147.8627  139.5486  153.7924 C   0  0  0  0  0  0  0  0  0  0  0  0
  146.4627  134.6883  152.2813 N   0  0  0  0  0  0  0  0  0  0  0  0
  145.5583  133.8211  151.6114 C   0  0  0  0  0  0  0  0  0  0  0  0
  146.0448  133.0682  150.5229 C   0  0  0  0  0  0  0  0  0  0  0  0
  145.1742  132.1868  149.8544 C   0  0  0  0  0  0  0  0  0  0  0  0
  143.8456  132.0844  150.3098 C   0  0  0  0  0  0  0  0  0  0  0  0
  143.3675  132.7848  151.3597 N   0  0  0  0  0  0  0  0  0  0  0  0
  144.2073  133.6306  151.9949 C   0  0  0  0  0  0  0  0  0  0  0  0
  148.1662  136.0122  153.1428 H   0  0  0  0  0  0  0  0  0  0  0  0
  146.7101  137.5715  154.9661 H   0  0  0  0  0  0  0  0  0  0  0  0
  147.4076  136.2540  155.8759 H   0  0  0  0  0  0  0  0  0  0  0  0
  149.4842  137.2749  154.1663 H   0  0  0  0  0  0  0  0  0  0  0  0
  150.7426  137.7096  156.1904 H   0  0  0  0  0  0  0  0  0  0  0  0
  149.3354  138.7946  157.8269 H   0  0  0  0  0  0  0  0  0  0  0  0
  148.0979  137.5430  157.6640 H   0  0  0  0  0  0  0  0  0  0  0  0
  150.7982  137.3478  159.0008 H   0  0  0  0  0  0  0  0  0  0  0  0
  149.2704  136.6159  159.4964 H   0  0  0  0  0  0  0  0  0  0  0  0
  148.9299  135.2713  156.4512 H   0  0  0  0  0  0  0  0  0  0  0  0
  150.6137  135.2941  155.9219 H   0  0  0  0  0  0  0  0  0  0  0  0
  150.5934  139.5445  155.8024 H   0  0  0  0  0  0  0  0  0  0  0  0
  150.5968  139.6114  154.0487 H   0  0  0  0  0  0  0  0  0  0  0  0
  149.2273  141.6131  155.9367 H   0  0  0  0  0  0  0  0  0  0  0  0
  150.6496  141.9094  154.9557 H   0  0  0  0  0  0  0  0  0  0  0  0
  147.0901  141.3125  154.8165 H   0  0  0  0  0  0  0  0  0  0  0  0
  147.0458  141.4229  153.0669 H   0  0  0  0  0  0  0  0  0  0  0  0
  148.3264  139.3289  152.8301 H   0  0  0  0  0  0  0  0  0  0  0  0
  146.9005  139.0376  153.8124 H   0  0  0  0  0  0  0  0  0  0  0  0
  147.3138  134.8962  151.7799 H   0  0  0  0  0  0  0  0  0  0  0  0
  147.0706  133.1663  150.1984 H   0  0  0  0  0  0  0  0  0  0  0  0
  145.5164  131.6024  149.0131 H   0  0  0  0  0  0  0  0  0  0  0  0
  143.1504  131.4177  149.8216 H   0  0  0  0  0  0  0  0  0  0  0  0
  143.7766  134.1424  152.8414 H   0  0  0  0  0  0  0  0  0  0  0  0
  148.2502  139.3504  155.7505 H   0  0  0  0  0  0  0  0  0  0  0  0
  1  2  2  0  0  0  0
  2  3  1  0  0  0  0
  2 17  1  0  0  0  0
  3  4  1  0  0  0  0
  3 24  1  0  0  0  0
  4  5  1  0  0  0  0
  4 25  1  0  0  0  0
  4 26  1  0  0  0  0
  5  6  1  0  0  0  0
  5 11  1  0  0  0  0
  5 27  1  0  0  0  0
  6 10  1  0  0  0  0
  6  7  1  0  0  0  0
  6 28  1  0  0  0  0
  7  8  1  0  0  0  0
  7 29  1  0  0  0  0
  7 30  1  0  0  0  0
  8  9  1  0  0  0  0
  8 31  1  0  0  0  0
  8 32  1  0  0  0  0
  9 10  1  0  0  0  0
 10 33  1  0  0  0  0
 10 34  1  0  0  0  0
 11 16  1  0  0  0  0
 11 12  1  0  0  0  0
 11 48  1  0  0  0  0
 12 13  1  0  0  0  0
 12 35  1  0  0  0  0
 12 36  1  0  0  0  0
 13 14  1  0  0  0  0
 13 37  1  0  0  0  0
 13 38  1  0  0  0  0
 14 15  1  0  0  0  0
 15 16  1  0  0  0  0
 15 39  1  0  0  0  0
 15 40  1  0  0  0  0
 16 41  1  0  0  0  0
 16 42  1  0  0  0  0
 17 18  1  0  0  0  0
 17 43  1  0  0  0  0
 18 23  1  0  0  0  0
 18 19  2  0  0  0  0
 19 20  1  0  0  0  0
 19 44  1  0  0  0  0
 20 21  2  0  0  0  0
 20 45  1  0  0  0  0
 21 22  1  0  0  0  0
 21 46  1  0  0  0  0
 22 23  2  0  0  0  0
 23 47  1  0  0  0  0
M  CHG  1  11   1
M  END
> <s_m_source_file>
AV-unprocessed.smi

> <i_m_source_file_index>
2119

> <i_lp_mmshare_version>
43012

> <i_f3d_flags>
0

> <s_epik_input>
W2NIXTFuW2NIXVtjSF1bY0hdYzFbTkhdQyg9TylbTkhdW0NIMl1bQ0BIXShbQ0BASF0yW0NIMl1bQ0gyXU9bQ0gyXTIpTjNbQ0gyXVtDSDJdT1tDSDJdW0NIMl0z

> <s_epik_cmdline>
J2VwaWtfcHl0aG9uJywgJy1waCcsICc3LjAnLCAnLXRuJywgJzgnLCAnLW1hJywgJzIwMCcsICctbWV0YWxfYmluZGluZycsICctaW1hZScsICc8aW5maWxlLm1hZT4nLCAnLW9tYWUnLCAnPG91dGZpbGUubWFlPic=

> <r_epik_Ionization_Penalty>
0.987463

> <r_epik_Ionization_Penalty_Charging>
0.98326

> <r_epik_Ionization_Penalty_Neutral>
0.00420251

> <r_epik_State_Penalty>
1.01721

> <r_epik_Charging_Adjusted_Penalty>
2.00047

> <i_epik_Tot_Q>
1

> <i_epik_Tot_abs_Q>
1

> <r_epik_Metal_State_Penalty>
1.01439

> <b_epik_Metal_Only>
0

> <s_lp_Force_Field>
OPLS_2005

> <r_lp_Energy>
42.3323

> <b_lp_Chiralities_Consistent>
1

> <s_lp_Variant>
AV-unprocessed.smi:2119-7

> <Gold.Version>
5.8.1

> <Gold.Id.Protein>
6NUR|6NUR_protein|mol2

> <Gold.PLP.Fitness>
44.2386

> <Gold.PLP.PLP>
-33.0537

> <Gold.PLP.part.hbond>
-4.7460

> <Gold.PLP.part.metal>
0.0000

> <Gold.PLP.part.buried>
-4.5487

> <Gold.PLP.part.nonpolar>
-24.1454

> <Gold.PLP.part.repulsive>
0.5185

> <Gold.PLP.ligand.clash>
0.0000

> <Gold.PLP.ligand.torsion>
0.8564

> <Gold.PLP.Chemscore.Hbond>
3.3143

> <Gold.PLP.Chemscore.CHOScore>
0.8646

> <Gold.PLP.Chemscore.Metal>
0.0000

> <Gold.Chemscore.Hbonds>
donor molecule, donor type, donor heavy atom, donor atom, acceptor molecule, acceptor atom, score
      L1  H     3    24       P1  7948  0.96
      L1  H    17    43       P1  7948  0.76
      P1  H  6896  6907       L1     9  0.43
      P1  H  8011  8017       L1    14  0.59
      L1  C    21    46       P1 10952  0.88

> <Gold.PLP.Chemscore.Internal.Correction>
0.3608

> <Gold.Rescore>
     Score         DG    S(hbond)    S(metal)    S(lipo)     H(rot)  DE(clash)    DE(int)     intcor
     19.76     -21.87       3.55        0.00      76.16       1.70       0.00       2.11       ----

> <Gold.Chemscore.Fitness>
19.7636

> <Gold.Chemscore.DG>
-21.8732

> <Gold.Chemscore.ZeroCoef>
-5.4800

> <Gold.Chemscore.Hbond>
3.5451

> <Gold.Chemscore.Metal>
0.0000

> <Gold.Chemscore.Lipo>
76.1553

> <Gold.Chemscore.Internal_Hbond>
0.0000

> <Gold.Chemscore.DEClash>
0.0000

> <Gold.Chemscore.DEInternal>
2.1096

> <Gold.Chemscore.Rot>
1.7021

> <Gold.Chemscore.Internal.Correction>
   9.000000E+99

> <Gold.Chemscore.Hbonds>
donor molecule, donor type, donor heavy atom, donor atom, acceptor molecule, acceptor atom, score
      L1  H     3    24       P1  7948  0.91
      L1  H    17    43       P1  7948  0.59
      P1  H  6896  6907       L1     9  0.03
      P1  H  8011  8017       L1    14  0.54

> <Gold.Chemscore.Hbond.Weighted>
-11.8406

> <Gold.Chemscore.Metal.Weighted>
-0.0000

> <Gold.Chemscore.Lipo.Weighted>
-8.9102

> <Gold.Chemscore.Internal_Hbond.Weighted>
0.0000

> <Gold.Chemscore.DEClash.Weighted>
0.0000

> <Gold.Chemscore.DEInternal.Weighted>
2.1096

> <Gold.Chemscore.Rot.Weighted>
4.3575

> <Gold.Chemscore.Internal.Correction.Weighted>
   9.000000E+99

> <Gold.Protein.RotatedTorsions>
[ 6907 6896 6895 6894 ] final  -55.68 input  -60.11 | X-H torsion
[ 7974 7965 7964 7962 ] final -175.56 input  175.53 | X-H torsion
[ 8008 7997 7996 7995 ] final  161.29 input   59.86 | X-H torsion
[ 10167 10162 10161 10158 ] final  -37.40 input  -65.29 | X-H torsion
[ 10718 10713 10712 10709 ] final  145.03 input   66.30 | X-H torsion
[ 10763 10752 10751 10750 ] final   37.30 input  -60.55 | X-H torsion
[ 11005 11000 10999 10996 ] final  106.81 input  -57.11 | X-H torsion

> <Gold.Protein.ActiveResidues>
 VAL166  LYS551  ARG553  GLY616  TRP617  ASP618  TYR619  PRO620  LYS621  CYS622 
 ASP623  PHE694  ASN695  SER759  ASP760  ASP761  ALA762  ILE779  LEU786  VAL792 
 PHE793  MET794  SER795  GLU796  ALA797  LYS798  CYS799  TRP800  GLU811  SER814 

> <Gold.Protein.RotatedAtoms>
  150.8231  134.7448  159.6788 H   0  0  0  0  0  0  0  0  0  0  0  0  # atno 6907 bound_to 6896
  152.4344  134.5711  159.9931 H   0  0  0  0  0  0  0  0  0  0  0  0  # atno 6908 bound_to 6896
  151.5890  133.3331  159.3060 H   0  0  0  0  0  0  0  0  0  0  0  0  # atno 6909 bound_to 6896
  144.7128  140.1302  143.6399 H   0  0  0  0  0  0  0  0  0  0  0  0  # atno 7974 bound_to 7965
  156.2113  140.1781  156.7688 H   0  0  0  0  0  0  0  0  0  0  0  0  # atno 8008 bound_to 7997
  154.5727  140.0679  156.9017 H   0  0  0  0  0  0  0  0  0  0  0  0  # atno 8009 bound_to 7997
  155.2644  140.3338  155.4273 H   0  0  0  0  0  0  0  0  0  0  0  0  # atno 8010 bound_to 7997
  140.7119  143.3344  151.2495 H   0  0  0  0  0  0  0  0  0  0  0  0  # atno 10167 bound_to 10162
  157.3501  131.0949  151.1007 H   0  0  0  0  0  0  0  0  0  0  0  0  # atno 10718 bound_to 10713
  153.0043  135.6282  154.2122 H   0  0  0  0  0  0  0  0  0  0  0  0  # atno 10763 bound_to 10752
  154.1866  135.2810  155.3037 H   0  0  0  0  0  0  0  0  0  0  0  0  # atno 10764 bound_to 10752
  154.5793  135.5652  153.7229 H   0  0  0  0  0  0  0  0  0  0  0  0  # atno 10765 bound_to 10752
  139.8819  134.9381  156.5723 H   0  0  0  0  0  0  0  0  0  0  0  0  # atno 11005 bound_to 11000
  145.9293  139.2596  143.1334 LP  0  0  0  0  0  0  0  0  0  0  0  0  # atno 17320 bound_to 7965
  145.9539  140.8887  143.0245 LP  0  0  0  0  0  0  0  0  0  0  0  0  # atno 17321 bound_to 7965
  139.6835  143.9813  152.2822 LP  0  0  0  0  0  0  0  0  0  0  0  0  # atno 17342 bound_to 10162
  139.9451  144.6657  150.8228 LP  0  0  0  0  0  0  0  0  0  0  0  0  # atno 17343 bound_to 10162
  157.2186  130.6471  149.5802 LP  0  0  0  0  0  0  0  0  0  0  0  0  # atno 17370 bound_to 10713
  155.9720  130.4636  150.6189 LP  0  0  0  0  0  0  0  0  0  0  0  0  # atno 17371 bound_to 10713
  140.8089  133.8445  155.8792 LP  0  0  0  0  0  0  0  0  0  0  0  0  # atno 17394 bound_to 11000
  140.9524  134.1761  157.4717 LP  0  0  0  0  0  0  0  0  0  0  0  0  # atno 17395 bound_to 11000

$$$$
