AV-unprocessed.smi:258|AV-procd|sdf|1970|dock9
  -GOLD-   2262021133D 1   1.00000     0.00000
 Structure written by MMmdl.
 57 60  0  0  0  0  0  0  0  0  1 V2000
  145.6680  134.0991  150.3295 O   0  0  0  0  0  0  0  0  0  0  0  0
  146.4903  133.0584  150.8115 C   0  0  0  0  0  0  0  0  0  0  0  0
  146.2787  132.8857  152.3235 C   0  0  0  0  0  0  0  0  0  0  0  0
  146.6172  134.0752  153.0254 O   0  0  0  0  0  0  0  0  0  0  0  0
  147.4665  133.8960  154.1525 C   0  0  1  0  0  0  0  0  0  0  0  0
  148.6607  133.0364  153.7076 C   0  0  0  0  0  0  0  0  0  0  0  0
  149.6716  132.8933  154.8549 C   0  0  0  0  0  0  0  0  0  0  0  0
  150.1133  134.2717  155.3725 C   0  0  0  0  0  0  0  0  0  0  0  0
  148.9554  135.0882  155.7360 N   0  0  0  0  0  0  0  0  0  0  0  0
  149.2463  136.1675  156.5060 C   0  0  0  0  0  0  0  0  0  0  0  0
  148.3905  136.5495  157.4920 N   0  0  0  0  0  0  0  0  0  0  0  0
  148.6626  137.6179  158.2469 C   0  0  0  0  0  0  0  0  0  0  0  0
  149.7187  138.4310  158.1916 N   0  0  0  0  0  0  0  0  0  0  0  0
  150.5870  138.0478  157.2126 C   0  0  0  0  0  0  0  0  0  0  0  0
  150.4282  136.9416  156.3304 C   0  0  0  0  0  0  0  0  0  0  0  0
  151.5177  136.8634  155.4706 N   0  0  0  0  0  0  0  0  0  0  0  0
  152.2717  137.8704  155.8176 C   0  0  0  0  0  0  0  0  0  0  0  0
  151.7984  138.6225  156.8693 N   0  0  0  0  0  0  0  0  0  0  0  0
  152.4298  139.7933  157.4524 C   0  0  0  0  0  0  0  0  0  0  0  0
  151.4840  141.0068  157.6758 C   0  0  2  0  0  0  0  0  0  0  0  0
  150.8891  141.4429  156.3145 C   0  0  0  0  0  0  0  0  0  0  0  0
  149.5930  141.9837  156.4673 O   0  0  0  0  0  0  0  0  0  0  0  0
  152.1779  142.1976  158.4034 C   0  0  1  0  0  0  0  0  0  0  0  0
  151.4010  143.5064  158.3894 C   0  0  0  0  0  0  0  0  0  0  0  0
  152.0542  144.2846  159.5210 C   0  0  0  0  0  0  0  0  0  0  0  0
  152.2927  143.3079  160.5207 O   0  0  0  0  0  0  0  0  0  0  0  0
  152.3956  142.0215  159.9172 C   0  0  0  0  0  0  0  0  0  0  0  0
  147.9583  135.2605  154.6773 C   0  0  0  0  0  0  0  0  0  0  0  0
  145.9309  134.3044  149.4454 H   0  0  0  0  0  0  0  0  0  0  0  0
  146.2546  132.1441  150.2680 H   0  0  0  0  0  0  0  0  0  0  0  0
  147.5308  133.3047  150.5994 H   0  0  0  0  0  0  0  0  0  0  0  0
  145.2230  132.6895  152.5136 H   0  0  0  0  0  0  0  0  0  0  0  0
  146.8259  132.0227  152.7037 H   0  0  0  0  0  0  0  0  0  0  0  0
  146.9430  133.3660  154.9493 H   0  0  0  0  0  0  0  0  0  0  0  0
  148.3171  132.0530  153.3849 H   0  0  0  0  0  0  0  0  0  0  0  0
  149.1474  133.4961  152.8464 H   0  0  0  0  0  0  0  0  0  0  0  0
  149.2224  132.3247  155.6702 H   0  0  0  0  0  0  0  0  0  0  0  0
  150.5396  132.3249  154.5208 H   0  0  0  0  0  0  0  0  0  0  0  0
  150.7891  134.1388  156.2165 H   0  0  0  0  0  0  0  0  0  0  0  0
  150.6791  134.7936  154.5998 H   0  0  0  0  0  0  0  0  0  0  0  0
  147.9293  137.8546  159.0037 H   0  0  0  0  0  0  0  0  0  0  0  0
  153.2072  138.0844  155.3213 H   0  0  0  0  0  0  0  0  0  0  0  0
  152.8875  139.5035  158.3990 H   0  0  0  0  0  0  0  0  0  0  0  0
  153.2521  140.0657  156.7904 H   0  0  0  0  0  0  0  0  0  0  0  0
  150.6472  140.6850  158.2971 H   0  0  0  0  0  0  0  0  0  0  0  0
  151.4907  142.2199  155.8448 H   0  0  0  0  0  0  0  0  0  0  0  0
  150.8507  140.6027  155.6204 H   0  0  0  0  0  0  0  0  0  0  0  0
  149.6195  142.9000  156.2369 H   0  0  0  0  0  0  0  0  0  0  0  0
  153.1456  142.3846  157.9349 H   0  0  0  0  0  0  0  0  0  0  0  0
  151.4653  144.0365  157.4388 H   0  0  0  0  0  0  0  0  0  0  0  0
  150.3483  143.3309  158.6167 H   0  0  0  0  0  0  0  0  0  0  0  0
  153.0077  144.7044  159.1978 H   0  0  0  0  0  0  0  0  0  0  0  0
  151.4291  145.0968  159.8923 H   0  0  0  0  0  0  0  0  0  0  0  0
  151.6298  141.3833  160.3590 H   0  0  0  0  0  0  0  0  0  0  0  0
  153.3688  141.5874  160.1419 H   0  0  0  0  0  0  0  0  0  0  0  0
  148.3991  135.8347  153.8610 H   0  0  0  0  0  0  0  0  0  0  0  0
  147.1161  135.8379  155.0593 H   0  0  0  0  0  0  0  0  0  0  0  0
  1  2  1  0  0  0  0
  1 29  1  0  0  0  0
  2  3  1  0  0  0  0
  2 30  1  0  0  0  0
  2 31  1  0  0  0  0
  3  4  1  0  0  0  0
  3 32  1  0  0  0  0
  3 33  1  0  0  0  0
  4  5  1  0  0  0  0
  5 28  1  0  0  0  0
  5  6  1  0  0  0  0
  5 34  1  0  0  0  0
  6  7  1  0  0  0  0
  6 35  1  0  0  0  0
  6 36  1  0  0  0  0
  7  8  1  0  0  0  0
  7 37  1  0  0  0  0
  7 38  1  0  0  0  0
  8  9  1  0  0  0  0
  8 39  1  0  0  0  0
  8 40  1  0  0  0  0
  9 10  1  0  0  0  0
  9 28  1  0  0  0  0
 10 15  1  0  0  0  0
 10 11  2  0  0  0  0
 11 12  1  0  0  0  0
 12 13  2  0  0  0  0
 12 41  1  0  0  0  0
 13 14  1  0  0  0  0
 14 18  1  0  0  0  0
 14 15  2  0  0  0  0
 15 16  1  0  0  0  0
 16 17  2  0  0  0  0
 17 18  1  0  0  0  0
 17 42  1  0  0  0  0
 18 19  1  0  0  0  0
 19 20  1  0  0  0  0
 19 43  1  0  0  0  0
 19 44  1  0  0  0  0
 20 21  1  0  0  0  0
 20 23  1  0  0  0  0
 20 45  1  0  0  0  0
 21 22  1  0  0  0  0
 21 46  1  0  0  0  0
 21 47  1  0  0  0  0
 22 48  1  0  0  0  0
 23 27  1  0  0  0  0
 23 24  1  0  0  0  0
 23 49  1  0  0  0  0
 24 25  1  0  0  0  0
 24 50  1  0  0  0  0
 24 51  1  0  0  0  0
 25 26  1  0  0  0  0
 25 52  1  0  0  0  0
 25 53  1  0  0  0  0
 26 27  1  0  0  0  0
 27 54  1  0  0  0  0
 27 55  1  0  0  0  0
 28 56  1  0  0  0  0
 28 57  1  0  0  0  0
M  END
> <s_m_source_file>
AV-unprocessed.smi

> <i_m_source_file_index>
258

> <i_lp_mmshare_version>
43012

> <i_f3d_flags>
0

> <s_epik_input>
W09IXVtDSDJdW0NIMl1PW0NAQEhdMVtDSDJdW0NIMl1bQ0gyXU4oW0NIMl0xKWMobltjSF1uMiljKGMyMyluW2NIXW4zW0NIMl1bQ0BIXShbQ0gyXVtPSF0pW0NAQEhdNFtDSDJdW0NIMl1PW0NIMl00

> <s_epik_cmdline>
J2VwaWtfcHl0aG9uJywgJy1waCcsICc3LjAnLCAnLXRuJywgJzgnLCAnLW1hJywgJzIwMCcsICctbWV0YWxfYmluZGluZycsICctaW1hZScsICc8aW5maWxlLm1hZT4nLCAnLW9tYWUnLCAnPG91dGZpbGUubWFlPic=

> <r_lp_tautomer_probability>
1

> <r_epik_Ionization_Penalty>
0.00349036

> <r_epik_Ionization_Penalty_Charging>
0

> <r_epik_Ionization_Penalty_Neutral>
0.00349036

> <r_epik_State_Penalty>
0.00229798

> <r_epik_Charging_Adjusted_Penalty>
0.00229798

> <i_epik_Tot_Q>
0

> <i_epik_Tot_abs_Q>
0

> <r_epik_Metal_State_Penalty>
-0

> <b_epik_Metal_Only>
0

> <s_lp_Force_Field>
OPLS_2005

> <r_lp_Energy>
44.143

> <b_lp_Chiralities_Consistent>
1

> <s_lp_Variant>
AV-unprocessed.smi:258-6

> <Gold.Version>
5.8.1

> <Gold.Id.Protein>
6NUR|6NUR_protein|mol2

> <Gold.PLP.Fitness>
45.4920

> <Gold.PLP.PLP>
-39.3294

> <Gold.PLP.part.hbond>
-3.0000

> <Gold.PLP.part.metal>
0.0000

> <Gold.PLP.part.buried>
-4.4722

> <Gold.PLP.part.nonpolar>
-31.8850

> <Gold.PLP.part.repulsive>
0.2935

> <Gold.PLP.ligand.clash>
0.0000

> <Gold.PLP.ligand.torsion>
1.7067

> <Gold.PLP.Chemscore.Hbond>
3.0000

> <Gold.PLP.Chemscore.CHOScore>
0.0000

> <Gold.PLP.Chemscore.Metal>
0.0000

> <Gold.Chemscore.Hbonds>
donor molecule, donor type, donor heavy atom, donor atom, acceptor molecule, acceptor atom, score
      L1  H     1    29       P1  7921  1.00
      L1  H    22    48       P1  8028  0.96
      P1  H 10752 10765       L1    16  0.88

> <Gold.PLP.Chemscore.Internal.Correction>
0.5760

> <Gold.Rescore>
     Score         DG    S(hbond)    S(metal)    S(lipo)     H(rot)  DE(clash)    DE(int)     intcor
     10.50     -14.87       2.40        0.00     104.07       4.22       1.30       3.06       ----

> <Gold.Chemscore.Fitness>
10.5025

> <Gold.Chemscore.DG>
-14.8717

> <Gold.Chemscore.ZeroCoef>
-5.4800

> <Gold.Chemscore.Hbond>
2.4042

> <Gold.Chemscore.Metal>
0.0000

> <Gold.Chemscore.Lipo>
104.0722

> <Gold.Chemscore.Internal_Hbond>
0.0000

> <Gold.Chemscore.DEClash>
1.3044

> <Gold.Chemscore.DEInternal>
3.0648

> <Gold.Chemscore.Rot>
4.2246

> <Gold.Chemscore.Internal.Correction>
   9.000000E+99

> <Gold.Chemscore.Hbonds>
donor molecule, donor type, donor heavy atom, donor atom, acceptor molecule, acceptor atom, score
      L1  H     1    29       P1  7921  0.45
      L1  H    22    48       P1  8028  0.90
      P1  H 10752 10765       L1    16  0.22

> <Gold.Chemscore.Hbond.Weighted>
-8.0301

> <Gold.Chemscore.Metal.Weighted>
-0.0000

> <Gold.Chemscore.Lipo.Weighted>
-12.1764

> <Gold.Chemscore.Internal_Hbond.Weighted>
0.0000

> <Gold.Chemscore.DEClash.Weighted>
1.3044

> <Gold.Chemscore.DEInternal.Weighted>
3.0648

> <Gold.Chemscore.Rot.Weighted>
10.8149

> <Gold.Chemscore.Internal.Correction.Weighted>
   9.000000E+99

> <Gold.Protein.RotatedTorsions>
[ 6907 6896 6895 6894 ] final -146.14 input  -60.11 | X-H torsion
[ 7974 7965 7964 7962 ] final    1.44 input  175.53 | X-H torsion
[ 8008 7997 7996 7995 ] final  147.93 input   59.86 | X-H torsion
[ 10167 10162 10161 10158 ] final -168.74 input  -65.29 | X-H torsion
[ 10718 10713 10712 10709 ] final   80.90 input   66.30 | X-H torsion
[ 10763 10752 10751 10750 ] final -174.80 input  -60.55 | X-H torsion
[ 11005 11000 10999 10996 ] final -158.09 input  -57.11 | X-H torsion

> <Gold.Protein.ActiveResidues>
 VAL166  LYS551  ARG553  GLY616  TRP617  ASP618  TYR619  PRO620  LYS621  CYS622 
 ASP623  PHE694  ASN695  SER759  ASP760  ASP761  ALA762  ILE779  LEU786  VAL792 
 PHE793  MET794  SER795  GLU796  ALA797  LYS798  CYS799  TRP800  GLU811  SER814 

> <Gold.Protein.RotatedAtoms>
  151.1375  133.4994  159.2597 H   0  0  0  0  0  0  0  0  0  0  0  0  # atno 6907 bound_to 6896
  151.1690  135.0309  159.8753 H   0  0  0  0  0  0  0  0  0  0  0  0  # atno 6908 bound_to 6896
  152.5461  134.1241  159.8464 H   0  0  0  0  0  0  0  0  0  0  0  0  # atno 6909 bound_to 6896
  146.2440  140.0987  142.8348 H   0  0  0  0  0  0  0  0  0  0  0  0  # atno 7974 bound_to 7965
  156.2808  140.2142  156.5617 H   0  0  0  0  0  0  0  0  0  0  0  0  # atno 8008 bound_to 7997
  154.7208  140.0504  157.0660 H   0  0  0  0  0  0  0  0  0  0  0  0  # atno 8009 bound_to 7997
  155.0481  140.3153  155.4704 H   0  0  0  0  0  0  0  0  0  0  0  0  # atno 8010 bound_to 7997
  139.5966  144.1099  152.1696 H   0  0  0  0  0  0  0  0  0  0  0  0  # atno 10167 bound_to 10162
  157.6819  130.9980  150.2148 H   0  0  0  0  0  0  0  0  0  0  0  0  # atno 10718 bound_to 10713
  154.5919  135.2846  155.0626 H   0  0  0  0  0  0  0  0  0  0  0  0  # atno 10763 bound_to 10752
  154.1924  135.6438  153.5067 H   0  0  0  0  0  0  0  0  0  0  0  0  # atno 10764 bound_to 10752
  153.0124  135.5449  154.6608 H   0  0  0  0  0  0  0  0  0  0  0  0  # atno 10765 bound_to 10752
  140.6575  134.4385  157.5235 H   0  0  0  0  0  0  0  0  0  0  0  0  # atno 11005 bound_to 11000
  145.0588  140.9072  143.4951 LP  0  0  0  0  0  0  0  0  0  0  0  0  # atno 17320 bound_to 7965
  145.1098  139.2765  143.5643 LP  0  0  0  0  0  0  0  0  0  0  0  0  # atno 17321 bound_to 7965
  140.0686  144.5798  150.7209 LP  0  0  0  0  0  0  0  0  0  0  0  0  # atno 17342 bound_to 10162
  140.7217  143.2595  151.4257 LP  0  0  0  0  0  0  0  0  0  0  0  0  # atno 17343 bound_to 10162
  156.2811  130.3733  149.7934 LP  0  0  0  0  0  0  0  0  0  0  0  0  # atno 17370 bound_to 10713
  156.5622  130.8388  151.3332 LP  0  0  0  0  0  0  0  0  0  0  0  0  # atno 17371 bound_to 10713
  139.9024  134.8525  156.1840 LP  0  0  0  0  0  0  0  0  0  0  0  0  # atno 17394 bound_to 11000
  141.0490  133.6898  156.1737 LP  0  0  0  0  0  0  0  0  0  0  0  0  # atno 17395 bound_to 11000

$$$$
