AV-unprocessed.smi:2567|AV-procd|sdf|10081|dock1
  -GOLD-   2272014103D 1   1.00000     0.00000
 Structure written by MMmdl.
 33 34  0  0  0  0  0  0  0  0  1 V2000
  152.6307  143.1433  160.0092 C   0  0  0  0  0  0  0  0  0  0  0  0
  151.7311  143.8393  158.9693 C   0  0  0  0  0  0  0  0  0  0  0  0
  150.5135  144.4319  159.7134 C   0  0  0  0  0  0  0  0  0  0  0  0
  152.5015  144.9979  158.3073 C   0  0  0  0  0  0  0  0  0  0  0  0
  151.3102  142.8441  157.9142 C   0  0  0  0  0  0  0  0  0  0  0  0
  150.4956  143.1453  156.8968 N   0  0  0  0  0  0  0  0  0  0  0  0
  150.3275  142.0615  156.1112 N   0  0  0  0  0  0  0  0  0  0  0  0
  151.0682  141.1486  156.7364 C   0  0  0  0  0  0  0  0  0  0  0  0
  151.2167  139.7672  156.1786 C   0  0  1  0  0  0  0  0  0  0  0  0
  150.4003  139.5733  154.8857 C   0  0  0  0  0  0  0  0  0  0  0  0
  150.6527  138.2483  154.3210 N   0  0  0  0  0  0  0  0  0  0  0  0
  152.0829  138.0283  154.1096 C   0  0  0  0  0  0  0  0  0  0  0  0
  152.8614  138.2646  155.4166 C   0  0  0  0  0  0  0  0  0  0  0  0
  152.6018  139.5793  155.8970 O   0  0  0  0  0  0  0  0  0  0  0  0
  151.7246  141.5804  157.8567 N   0  0  0  0  0  0  0  0  0  0  0  0
  152.9443  143.8355  160.7914 H   0  0  0  0  0  0  0  0  0  0  0  0
  153.5349  142.7401  159.5518 H   0  0  0  0  0  0  0  0  0  0  0  0
  152.1100  142.3152  160.4915 H   0  0  0  0  0  0  0  0  0  0  0  0
  149.9312  143.6552  160.2105 H   0  0  0  0  0  0  0  0  0  0  0  0
  149.8469  144.9639  159.0334 H   0  0  0  0  0  0  0  0  0  0  0  0
  150.8249  145.1425  160.4800 H   0  0  0  0  0  0  0  0  0  0  0  0
  152.8156  145.7391  159.0429 H   0  0  0  0  0  0  0  0  0  0  0  0
  151.8863  145.5094  157.5661 H   0  0  0  0  0  0  0  0  0  0  0  0
  153.3992  144.6429  157.7996 H   0  0  0  0  0  0  0  0  0  0  0  0
  150.9007  139.0467  156.9361 H   0  0  0  0  0  0  0  0  0  0  0  0
  149.3366  139.6969  155.0898 H   0  0  0  0  0  0  0  0  0  0  0  0
  150.6718  140.3410  154.1598 H   0  0  0  0  0  0  0  0  0  0  0  0
  152.2562  137.0147  153.7477 H   0  0  0  0  0  0  0  0  0  0  0  0
  152.4524  138.7047  153.3376 H   0  0  0  0  0  0  0  0  0  0  0  0
  152.5907  137.5254  156.1722 H   0  0  0  0  0  0  0  0  0  0  0  0
  153.9318  138.1602  155.2391 H   0  0  0  0  0  0  0  0  0  0  0  0
  150.1605  138.1559  153.4380 H   0  0  0  0  0  0  0  0  0  0  0  0
  150.0592  144.0358  156.7067 H   0  0  0  0  0  0  0  0  0  0  0  0
  1  2  1  0  0  0  0
  1 16  1  0  0  0  0
  1 17  1  0  0  0  0
  1 18  1  0  0  0  0
  2  3  1  0  0  0  0
  2  4  1  0  0  0  0
  2  5  1  0  0  0  0
  3 19  1  0  0  0  0
  3 20  1  0  0  0  0
  3 21  1  0  0  0  0
  4 22  1  0  0  0  0
  4 23  1  0  0  0  0
  4 24  1  0  0  0  0
  5 15  2  0  0  0  0
  5  6  1  0  0  0  0
  6  7  1  0  0  0  0
  6 33  1  0  0  0  0
  7  8  2  0  0  0  0
  8  9  1  0  0  0  0
  8 15  1  0  0  0  0
  9 14  1  0  0  0  0
  9 10  1  0  0  0  0
  9 25  1  0  0  0  0
 10 11  1  0  0  0  0
 10 26  1  0  0  0  0
 10 27  1  0  0  0  0
 11 12  1  0  0  0  0
 11 32  1  0  0  0  0
 12 13  1  0  0  0  0
 12 28  1  0  0  0  0
 12 29  1  0  0  0  0
 13 14  1  0  0  0  0
 13 30  1  0  0  0  0
 13 31  1  0  0  0  0
M  END
> <s_m_source_file>
AV-unprocessed.smi

> <i_m_source_file_index>
2567

> <i_lp_mmshare_version>
43012

> <i_f3d_flags>
0

> <s_epik_input>
W0NIM11DKFtDSDNdKShbQ0gzXSljMW5bbkhdYyhuMSlbQ0BASF0yW0NIMl1bTkhdW0NIMl1bQ0gyXU8y

> <s_epik_cmdline>
J2VwaWtfcHl0aG9uJywgJy1waCcsICc3LjAnLCAnLXRuJywgJzgnLCAnLW1hJywgJzIwMCcsICctbWV0YWxfYmluZGluZycsICctaW1hZScsICc8aW5maWxlLm1hZT4nLCAnLW9tYWUnLCAnPG91dGZpbGUubWFlPic=

> <r_lp_tautomer_probability>
0.948284

> <r_epik_Ionization_Penalty>
1.10045

> <r_epik_Ionization_Penalty_Charging>
0

> <r_epik_Ionization_Penalty_Neutral>
1.10045

> <r_epik_State_Penalty>
1.2625

> <r_epik_Charging_Adjusted_Penalty>
1.2625

> <i_epik_Tot_Q>
0

> <i_epik_Tot_abs_Q>
0

> <r_epik_Metal_State_Penalty>
1.57133

> <b_epik_Metal_Only>
0

> <s_lp_Force_Field>
OPLS_2005

> <r_lp_Energy>
14.8987

> <b_lp_Chiralities_Consistent>
1

> <s_lp_Variant>
AV-unprocessed.smi:2567-6

> <Gold.Version>
5.8.1

> <Gold.Id.Protein>
6NUR|6NUR_protein|mol2

> <Gold.PLP.Fitness>
38.3578

> <Gold.PLP.PLP>
-32.8967

> <Gold.PLP.part.hbond>
-2.0000

> <Gold.PLP.part.metal>
0.0000

> <Gold.PLP.part.buried>
-6.3163

> <Gold.PLP.part.nonpolar>
-25.9675

> <Gold.PLP.part.repulsive>
0.6027

> <Gold.PLP.ligand.clash>
0.0000

> <Gold.PLP.ligand.torsion>
0.0273

> <Gold.PLP.Chemscore.Hbond>
1.8320

> <Gold.PLP.Chemscore.CHOScore>
0.0000

> <Gold.PLP.Chemscore.Metal>
0.0000

> <Gold.Chemscore.Hbonds>
donor molecule, donor type, donor heavy atom, donor atom, acceptor molecule, acceptor atom, score
      L1  H     6    33       P1  8028  0.83
      P1  H  7997  8009       L1    14  1.00

> <Gold.PLP.Chemscore.Internal.Correction>
0.0197

> <Gold.Rescore>
     Score         DG    S(hbond)    S(metal)    S(lipo)     H(rot)  DE(clash)    DE(int)     intcor
     16.96     -17.04       1.62        0.00      79.85       1.25       0.07       0.02       ----

> <Gold.Chemscore.Fitness>
16.9554

> <Gold.Chemscore.DG>
-17.0392

> <Gold.Chemscore.ZeroCoef>
-5.4800

> <Gold.Chemscore.Hbond>
1.6180

> <Gold.Chemscore.Metal>
0.0000

> <Gold.Chemscore.Lipo>
79.8473

> <Gold.Chemscore.Internal_Hbond>
0.0000

> <Gold.Chemscore.DEClash>
0.0679

> <Gold.Chemscore.DEInternal>
0.0158

> <Gold.Chemscore.Rot>
1.2450

> <Gold.Chemscore.Internal.Correction>
   9.000000E+99

> <Gold.Chemscore.Hbonds>
donor molecule, donor type, donor heavy atom, donor atom, acceptor molecule, acceptor atom, score
      L1  H     6    33       P1  8028  0.81
      P1  H  7997  8009       L1    14  0.29

> <Gold.Chemscore.Hbond.Weighted>
-5.4043

> <Gold.Chemscore.Metal.Weighted>
-0.0000

> <Gold.Chemscore.Lipo.Weighted>
-9.3421

> <Gold.Chemscore.Internal_Hbond.Weighted>
0.0000

> <Gold.Chemscore.DEClash.Weighted>
0.0679

> <Gold.Chemscore.DEInternal.Weighted>
0.0158

> <Gold.Chemscore.Rot.Weighted>
3.1872

> <Gold.Chemscore.Internal.Correction.Weighted>
   9.000000E+99

> <Gold.Protein.RotatedTorsions>
[ 6907 6896 6895 6894 ] final  102.96 input  -60.11 | X-H torsion
[ 7974 7965 7964 7962 ] final  114.66 input  175.53 | X-H torsion
[ 8008 7997 7996 7995 ] final -172.71 input   59.86 | X-H torsion
[ 10167 10162 10161 10158 ] final   89.99 input  -65.29 | X-H torsion
[ 10718 10713 10712 10709 ] final   84.08 input   66.30 | X-H torsion
[ 10763 10752 10751 10750 ] final  141.32 input  -60.55 | X-H torsion
[ 11005 11000 10999 10996 ] final -121.13 input  -57.11 | X-H torsion

> <Gold.Protein.ActiveResidues>
 VAL166  LYS551  ARG553  GLY616  TRP617  ASP618  TYR619  PRO620  LYS621  CYS622 
 ASP623  PHE694  ASN695  SER759  ASP760  ASP761  ALA762  ILE779  LEU786  VAL792 
 PHE793  MET794  SER795  GLU796  ALA797  LYS798  CYS799  TRP800  GLU811  SER814 

> <Gold.Protein.RotatedAtoms>
  152.5309  133.9898  159.7845 H   0  0  0  0  0  0  0  0  0  0  0  0  # atno 6907 bound_to 6896
  151.0136  133.5934  159.2687 H   0  0  0  0  0  0  0  0  0  0  0  0  # atno 6908 bound_to 6896
  151.2999  135.0772  159.9288 H   0  0  0  0  0  0  0  0  0  0  0  0  # atno 6909 bound_to 6896
  145.2017  139.2949  143.4315 H   0  0  0  0  0  0  0  0  0  0  0  0  # atno 7974 bound_to 7965
  155.9481  140.1121  157.0999 H   0  0  0  0  0  0  0  0  0  0  0  0  # atno 8008 bound_to 7997
  154.4103  140.1206  156.5082 H   0  0  0  0  0  0  0  0  0  0  0  0  # atno 8009 bound_to 7997
  155.6877  140.3473  155.4883 H   0  0  0  0  0  0  0  0  0  0  0  0  # atno 8010 bound_to 7997
  139.8518  144.6590  150.9161 H   0  0  0  0  0  0  0  0  0  0  0  0  # atno 10167 bound_to 10162
  157.6891  131.0118  150.2619 H   0  0  0  0  0  0  0  0  0  0  0  0  # atno 10718 bound_to 10713
  153.9374  135.2983  155.3444 H   0  0  0  0  0  0  0  0  0  0  0  0  # atno 10763 bound_to 10752
  154.7495  135.4987  153.9267 H   0  0  0  0  0  0  0  0  0  0  0  0  # atno 10764 bound_to 10752
  153.1060  135.6747  153.9691 H   0  0  0  0  0  0  0  0  0  0  0  0  # atno 10765 bound_to 10752
  141.0093  134.0289  157.3436 H   0  0  0  0  0  0  0  0  0  0  0  0  # atno 11005 bound_to 11000
  146.3416  140.2264  142.8592 LP  0  0  0  0  0  0  0  0  0  0  0  0  # atno 17320 bound_to 7965
  144.9941  140.8574  143.5321 LP  0  0  0  0  0  0  0  0  0  0  0  0  # atno 17321 bound_to 7965
  140.7786  143.3821  151.1459 LP  0  0  0  0  0  0  0  0  0  0  0  0  # atno 17342 bound_to 10162
  139.7458  143.8854  152.3063 LP  0  0  0  0  0  0  0  0  0  0  0  0  # atno 17343 bound_to 10162
  156.3197  130.3784  149.7586 LP  0  0  0  0  0  0  0  0  0  0  0  0  # atno 17370 bound_to 10713
  156.5160  130.8193  151.3186 LP  0  0  0  0  0  0  0  0  0  0  0  0  # atno 17371 bound_to 10713
  139.9080  135.0184  156.7572 LP  0  0  0  0  0  0  0  0  0  0  0  0  # atno 17394 bound_to 11000
  140.6761  133.9516  155.7883 LP  0  0  0  0  0  0  0  0  0  0  0  0  # atno 17395 bound_to 11000

$$$$
