AV-unprocessed.smi:1388|AV-procd|sdf|5644|dock2
  -GOLD-   22720 5263D 1   1.00000     0.00000
 Structure written by MMmdl.
 45 46  0  0  0  0  0  0  0  0  3 V2000
  147.3628  136.1840  163.0023 C   0  0  0  0  0  0  0  0  0  0  0  0
  148.2935  136.3573  161.8930 N   0  5  0  0  0  0  0  0  0  0  0  0
  147.9344  136.2310  160.5850 C   0  0  0  0  0  0  0  0  0  0  0  0
  146.8240  136.0798  160.0661 O   0  0  0  0  0  0  0  0  0  0  0  0
  149.1613  136.2918  159.6653 C   0  0  0  0  0  0  0  0  0  0  0  0
  148.7782  136.0672  158.2473 N   0  3  2  0  0  0  0  0  0  0  0  0
  148.1656  134.7328  158.0295 C   0  0  0  0  0  0  0  0  0  0  0  0
  147.6375  134.5919  156.5920 C   0  0  0  0  0  0  0  0  0  0  0  0
  148.7481  134.8605  155.5601 C   0  0  1  0  0  0  0  0  0  0  0  0
  148.2143  134.8268  154.2017 N   0  0  0  0  0  0  0  0  0  0  0  0
  147.3096  133.9461  153.7496 C   0  0  0  0  0  0  0  0  0  0  0  0
  146.8188  133.0598  154.4496 O   0  0  0  0  0  0  0  0  0  0  0  0
  147.0174  134.1702  152.4562 N   0  0  0  0  0  0  0  0  0  0  0  0
  146.1362  133.4408  151.6087 C   0  0  0  0  0  0  0  0  0  0  0  0
  146.1831  132.0895  151.4951 N   0  0  0  0  0  0  0  0  0  0  0  0
  145.3245  131.4611  150.6665 C   0  0  0  0  0  0  0  0  0  0  0  0
  144.3642  132.1402  149.8975 C   0  0  0  0  0  0  0  0  0  0  0  0
  144.3011  133.5402  150.0040 C   0  0  0  0  0  0  0  0  0  0  0  0
  145.1957  134.2063  150.8685 C   0  0  0  0  0  0  0  0  0  0  0  0
  145.1283  135.7206  150.9852 C   0  0  0  0  0  0  0  0  0  0  0  0
  149.3868  136.2308  155.8358 C   0  0  0  0  0  0  0  0  0  0  0  0
  149.8838  136.3280  157.2871 C   0  0  0  0  0  0  0  0  0  0  0  0
  147.8406  136.3707  163.9638 H   0  0  0  0  0  0  0  0  0  0  0  0
  146.9603  135.1717  163.0496 H   0  0  0  0  0  0  0  0  0  0  0  0
  146.5109  136.8617  162.9434 H   0  0  0  0  0  0  0  0  0  0  0  0
  149.6768  137.2477  159.7708 H   0  0  0  0  0  0  0  0  0  0  0  0
  149.8611  135.5218  159.9949 H   0  0  0  0  0  0  0  0  0  0  0  0
  148.9015  133.9551  158.2399 H   0  0  0  0  0  0  0  0  0  0  0  0
  147.3410  134.5881  158.7286 H   0  0  0  0  0  0  0  0  0  0  0  0
  147.2249  133.5923  156.4507 H   0  0  0  0  0  0  0  0  0  0  0  0
  146.8132  135.2908  156.4407 H   0  0  0  0  0  0  0  0  0  0  0  0
  149.5221  134.0969  155.6617 H   0  0  0  0  0  0  0  0  0  0  0  0
  148.5630  135.5227  153.5587 H   0  0  0  0  0  0  0  0  0  0  0  0
  147.4839  134.9523  152.0215 H   0  0  0  0  0  0  0  0  0  0  0  0
  145.4071  130.3855  150.6146 H   0  0  0  0  0  0  0  0  0  0  0  0
  143.6943  131.6012  149.2438 H   0  0  0  0  0  0  0  0  0  0  0  0
  143.5743  134.0927  149.4267 H   0  0  0  0  0  0  0  0  0  0  0  0
  144.3246  136.1303  150.3729 H   0  0  0  0  0  0  0  0  0  0  0  0
  146.0651  136.1707  150.6551 H   0  0  0  0  0  0  0  0  0  0  0  0
  144.9457  136.0172  152.0186 H   0  0  0  0  0  0  0  0  0  0  0  0
  150.2178  136.4023  155.1504 H   0  0  0  0  0  0  0  0  0  0  0  0
  148.6620  137.0250  155.6494 H   0  0  0  0  0  0  0  0  0  0  0  0
  150.3025  137.3212  157.4515 H   0  0  0  0  0  0  0  0  0  0  0  0
  150.6912  135.6140  157.4570 H   0  0  0  0  0  0  0  0  0  0  0  0
  148.0562  136.7495  158.0591 H   0  0  0  0  0  0  0  0  0  0  0  0
  1  2  1  0  0  0  0
  1 23  1  0  0  0  0
  1 24  1  0  0  0  0
  1 25  1  0  0  0  0
  2  3  1  0  0  0  0
  3  4  2  0  0  0  0
  3  5  1  0  0  0  0
  5  6  1  0  0  0  0
  5 26  1  0  0  0  0
  5 27  1  0  0  0  0
  6 22  1  0  0  0  0
  6  7  1  0  0  0  0
  6 45  1  0  0  0  0
  7  8  1  0  0  0  0
  7 28  1  0  0  0  0
  7 29  1  0  0  0  0
  8  9  1  0  0  0  0
  8 30  1  0  0  0  0
  8 31  1  0  0  0  0
  9 10  1  0  0  0  0
  9 21  1  0  0  0  0
  9 32  1  0  0  0  0
 10 11  1  0  0  0  0
 10 33  1  0  0  0  0
 11 12  2  0  0  0  0
 11 13  1  0  0  0  0
 13 14  1  0  0  0  0
 13 34  1  0  0  0  0
 14 19  1  0  0  0  0
 14 15  2  0  0  0  0
 15 16  1  0  0  0  0
 16 17  2  0  0  0  0
 16 35  1  0  0  0  0
 17 18  1  0  0  0  0
 17 36  1  0  0  0  0
 18 19  2  0  0  0  0
 18 37  1  0  0  0  0
 19 20  1  0  0  0  0
 20 38  1  0  0  0  0
 20 39  1  0  0  0  0
 20 40  1  0  0  0  0
 21 22  1  0  0  0  0
 21 41  1  0  0  0  0
 21 42  1  0  0  0  0
 22 43  1  0  0  0  0
 22 44  1  0  0  0  0
M  CHG  1   2  -1
M  CHG  1   6   1
M  END
> <s_m_source_file>
AV-unprocessed.smi

> <i_m_source_file_index>
1388

> <i_lp_mmshare_version>
43012

> <i_f3d_flags>
0

> <s_epik_input>
W0NIM11bTkhdQyg9TylbQ0gyXU4xW0NIMl1bQ0gyXVtDSF0oW0NIMl1bQ0gyXTEpW05IXUMoPU8pW05IXWMybltjSF1bY0hdW2NIXWMyW0NIM10=

> <s_epik_cmdline>
J2VwaWtfcHl0aG9uJywgJy1waCcsICc3LjAnLCAnLXRuJywgJzgnLCAnLW1hJywgJzIwMCcsICctbWV0YWxfYmluZGluZycsICctaW1hZScsICc8aW5maWxlLm1hZT4nLCAnLW9tYWUnLCAnPG91dGZpbGUubWFlPic=

> <r_epik_Ionization_Penalty>
6.13951

> <r_epik_Ionization_Penalty_Charging>
6.13946

> <r_epik_Ionization_Penalty_Neutral>
4.54304e-05

> <r_epik_State_Penalty>
6.9595

> <r_epik_Charging_Adjusted_Penalty>
13.099

> <i_epik_Tot_Q>
0

> <i_epik_Tot_abs_Q>
2

> <r_epik_Metal_State_Penalty>
2.89141

> <b_epik_Metal_Only>
1

> <s_lp_Force_Field>
OPLS_2005

> <r_lp_Energy>
12.447

> <b_lp_Chiralities_Consistent>
1

> <s_lp_Variant>
AV-unprocessed.smi:1388-4

> <Gold.Version>
5.8.1

> <Gold.Id.Protein>
6NUR|6NUR_protein|mol2

> <Gold.PLP.Fitness>
44.0574

> <Gold.PLP.PLP>
-33.4707

> <Gold.PLP.part.hbond>
-3.0000

> <Gold.PLP.part.metal>
0.0000

> <Gold.PLP.part.buried>
-5.8709

> <Gold.PLP.part.nonpolar>
-25.2069

> <Gold.PLP.part.repulsive>
0.2475

> <Gold.PLP.ligand.clash>
0.0000

> <Gold.PLP.ligand.torsion>
0.7362

> <Gold.PLP.Chemscore.Hbond>
4.0000

> <Gold.PLP.Chemscore.CHOScore>
0.0000

> <Gold.PLP.Chemscore.Metal>
0.0000

> <Gold.Chemscore.Hbonds>
donor molecule, donor type, donor heavy atom, donor atom, acceptor molecule, acceptor atom, score
      L1  H    10    33       P1  7948  1.00
      L1  H    13    34       P1  7948  1.00
      P1  H  6931  6943       L1     2  2.00

> <Gold.PLP.Chemscore.Internal.Correction>
0.0592

> <Gold.Rescore>
     Score         DG    S(hbond)    S(metal)    S(lipo)     H(rot)  DE(clash)    DE(int)     intcor
     16.57     -18.67       2.81        0.00      68.32       1.63       0.03       2.07       ----

> <Gold.Chemscore.Fitness>
16.5691

> <Gold.Chemscore.DG>
-18.6690

> <Gold.Chemscore.ZeroCoef>
-5.4800

> <Gold.Chemscore.Hbond>
2.8052

> <Gold.Chemscore.Metal>
0.0000

> <Gold.Chemscore.Lipo>
68.3166

> <Gold.Chemscore.Internal_Hbond>
0.0000

> <Gold.Chemscore.DEClash>
0.0265

> <Gold.Chemscore.DEInternal>
2.0734

> <Gold.Chemscore.Rot>
1.6303

> <Gold.Chemscore.Internal.Correction>
   9.000000E+99

> <Gold.Chemscore.Hbonds>
donor molecule, donor type, donor heavy atom, donor atom, acceptor molecule, acceptor atom, score
      L1  H    10    33       P1  7948  0.96
      L1  H    13    34       P1  7948  0.85
      P1  H  6931  6943       L1     2  0.24

> <Gold.Chemscore.Hbond.Weighted>
-9.3695

> <Gold.Chemscore.Metal.Weighted>
-0.0000

> <Gold.Chemscore.Lipo.Weighted>
-7.9930

> <Gold.Chemscore.Internal_Hbond.Weighted>
0.0000

> <Gold.Chemscore.DEClash.Weighted>
0.0265

> <Gold.Chemscore.DEInternal.Weighted>
2.0734

> <Gold.Chemscore.Rot.Weighted>
4.1735

> <Gold.Chemscore.Internal.Correction.Weighted>
   9.000000E+99

> <Gold.Protein.RotatedTorsions>
[ 6907 6896 6895 6894 ] final  142.71 input  -60.11 | X-H torsion
[ 7974 7965 7964 7962 ] final   72.17 input  175.53 | X-H torsion
[ 8008 7997 7996 7995 ] final -108.21 input   59.86 | X-H torsion
[ 10167 10162 10161 10158 ] final   82.52 input  -65.29 | X-H torsion
[ 10718 10713 10712 10709 ] final  101.06 input   66.30 | X-H torsion
[ 10763 10752 10751 10750 ] final -121.53 input  -60.55 | X-H torsion
[ 11005 11000 10999 10996 ] final  115.80 input  -57.11 | X-H torsion

> <Gold.Protein.ActiveResidues>
 VAL166  LYS551  ARG553  GLY616  TRP617  ASP618  TYR619  PRO620  LYS621  CYS622 
 ASP623  PHE694  ASN695  SER759  ASP760  ASP761  ALA762  ILE779  LEU786  VAL792 
 PHE793  MET794  SER795  GLU796  ALA797  LYS798  CYS799  TRP800  GLU811  SER814 

> <Gold.Protein.RotatedAtoms>
  152.2154  133.4942  159.5132 H   0  0  0  0  0  0  0  0  0  0  0  0  # atno 6907 bound_to 6896
  150.7000  134.1413  159.4115 H   0  0  0  0  0  0  0  0  0  0  0  0  # atno 6908 bound_to 6896
  151.9333  135.0246  160.0581 H   0  0  0  0  0  0  0  0  0  0  0  0  # atno 6909 bound_to 6896
  145.7567  139.2783  143.1400 H   0  0  0  0  0  0  0  0  0  0  0  0  # atno 7974 bound_to 7965
  154.9409  140.0403  157.2096 H   0  0  0  0  0  0  0  0  0  0  0  0  # atno 8008 bound_to 7997
  154.8070  140.2861  155.5858 H   0  0  0  0  0  0  0  0  0  0  0  0  # atno 8009 bound_to 7997
  156.2967  140.2544  156.2950 H   0  0  0  0  0  0  0  0  0  0  0  0  # atno 8010 bound_to 7997
  139.9280  144.6170  150.8374 H   0  0  0  0  0  0  0  0  0  0  0  0  # atno 10167 bound_to 10162
  157.6839  131.0715  150.5194 H   0  0  0  0  0  0  0  0  0  0  0  0  # atno 10718 bound_to 10713
  154.8670  135.4165  154.2634 H   0  0  0  0  0  0  0  0  0  0  0  0  # atno 10763 bound_to 10752
  153.3558  135.7001  153.6757 H   0  0  0  0  0  0  0  0  0  0  0  0  # atno 10764 bound_to 10752
  153.5678  135.3597  155.2798 H   0  0  0  0  0  0  0  0  0  0  0  0  # atno 10765 bound_to 10752
  139.9021  134.9589  156.7101 H   0  0  0  0  0  0  0  0  0  0  0  0  # atno 11005 bound_to 11000
  146.0304  140.8263  142.9879 LP  0  0  0  0  0  0  0  0  0  0  0  0  # atno 17320 bound_to 7965
  144.6838  140.2760  143.7299 LP  0  0  0  0  0  0  0  0  0  0  0  0  # atno 17321 bound_to 7965
  140.7645  143.3250  151.2536 LP  0  0  0  0  0  0  0  0  0  0  0  0  # atno 17342 bound_to 10162
  139.6806  143.9861  152.2806 LP  0  0  0  0  0  0  0  0  0  0  0  0  # atno 17343 bound_to 10162
  156.5508  130.4231  149.6108 LP  0  0  0  0  0  0  0  0  0  0  0  0  # atno 17370 bound_to 10713
  156.2904  130.7121  151.1968 LP  0  0  0  0  0  0  0  0  0  0  0  0  # atno 17371 bound_to 10713
  140.7083  133.9246  155.8068 LP  0  0  0  0  0  0  0  0  0  0  0  0  # atno 17394 bound_to 11000
  141.0320  134.0743  157.4003 LP  0  0  0  0  0  0  0  0  0  0  0  0  # atno 17395 bound_to 11000

$$$$
