AV-unprocessed.smi:3030|AV-procd|sdf|11537|dock2
  -GOLD-   2272016483D 1   1.00000     0.00000
 Structure written by MMmdl.
 52 53  0  0  0  0  0  0  0  0  1 V2000
  149.3806  139.7875  154.1418 C   0  0  0  0  0  0  0  0  0  0  0  0
  149.1186  138.3005  154.4053 C   0  0  0  0  0  0  0  0  0  0  0  0
  149.4648  137.9248  155.7685 N   0  0  0  0  0  0  0  0  0  0  0  0
  149.1749  136.6585  156.2663 C   0  0  0  0  0  0  0  0  0  0  0  0
  149.4155  136.2726  157.5345 C   0  0  0  0  0  0  0  0  0  0  0  0
  150.0209  137.2320  158.4805 C   0  0  0  0  0  0  0  0  0  0  0  0
  150.2506  136.9150  159.6475 O   0  0  0  0  0  0  0  0  0  0  0  0
  150.3319  138.5848  157.9479 C   0  0  0  0  0  0  0  0  0  0  0  0
  150.8958  139.4979  158.8535 N   0  0  0  0  0  0  0  0  0  0  0  0
  152.0345  140.2064  158.7446 C   0  0  0  0  0  0  0  0  0  0  0  0
  152.8362  140.1427  157.8130 O   0  0  0  0  0  0  0  0  0  0  0  0
  152.2036  141.0022  159.8097 N   0  0  0  0  0  0  0  0  0  0  0  0
  153.3356  141.9034  160.0332 C   0  0  2  0  0  0  0  0  0  0  0  0
  154.3564  141.2625  160.9965 C   0  0  0  0  0  0  0  0  0  0  0  0
  153.8294  141.1673  162.4396 C   0  0  1  0  0  0  0  0  0  0  0  0
  154.8695  140.5381  163.3774 C   0  0  0  0  0  0  0  0  0  0  0  0
  153.3961  142.5579  162.9286 C   0  0  0  0  0  0  0  0  0  0  0  0
  152.3547  143.1914  161.9927 C   0  0  0  0  0  0  0  0  0  0  0  0
  152.8568  143.2978  160.5303 C   0  0  2  0  0  0  0  0  0  0  0  0
  151.8156  143.9745  159.5853 C   0  0  0  0  0  0  0  0  0  0  0  0
  152.3536  144.1703  158.1542 C   0  0  0  0  0  0  0  0  0  0  0  0
  151.3231  145.3334  160.1190 C   0  0  0  0  0  0  0  0  0  0  0  0
  150.0308  138.8436  156.6498 C   0  0  0  0  0  0  0  0  0  0  0  0
  149.1174  140.0516  153.1176 H   0  0  0  0  0  0  0  0  0  0  0  0
  150.4321  140.0345  154.2901 H   0  0  0  0  0  0  0  0  0  0  0  0
  148.7901  140.4156  154.8095 H   0  0  0  0  0  0  0  0  0  0  0  0
  148.0685  138.0706  154.2207 H   0  0  0  0  0  0  0  0  0  0  0  0
  149.6915  137.6937  153.7030 H   0  0  0  0  0  0  0  0  0  0  0  0
  148.7361  135.9856  155.5437 H   0  0  0  0  0  0  0  0  0  0  0  0
  149.1754  135.2764  157.8763 H   0  0  0  0  0  0  0  0  0  0  0  0
  150.3747  139.6135  159.7107 H   0  0  0  0  0  0  0  0  0  0  0  0
  151.4943  140.9859  160.5279 H   0  0  0  0  0  0  0  0  0  0  0  0
  153.8591  142.0468  159.0874 H   0  0  0  0  0  0  0  0  0  0  0  0
  154.6382  140.2726  160.6349 H   0  0  0  0  0  0  0  0  0  0  0  0
  155.2714  141.8566  160.9870 H   0  0  0  0  0  0  0  0  0  0  0  0
  152.9526  140.5183  162.4444 H   0  0  0  0  0  0  0  0  0  0  0  0
  155.7798  141.1372  163.4198 H   0  0  0  0  0  0  0  0  0  0  0  0
  155.1442  139.5376  163.0422 H   0  0  0  0  0  0  0  0  0  0  0  0
  154.4814  140.4498  164.3924 H   0  0  0  0  0  0  0  0  0  0  0  0
  152.9835  142.4861  163.9356 H   0  0  0  0  0  0  0  0  0  0  0  0
  154.2658  143.2128  162.9991 H   0  0  0  0  0  0  0  0  0  0  0  0
  151.4312  142.6120  162.0279 H   0  0  0  0  0  0  0  0  0  0  0  0
  152.1138  144.1763  162.3901 H   0  0  0  0  0  0  0  0  0  0  0  0
  153.7371  143.9429  160.5456 H   0  0  0  0  0  0  0  0  0  0  0  0
  150.9401  143.3279  159.5145 H   0  0  0  0  0  0  0  0  0  0  0  0
  153.2795  144.7462  158.1542 H   0  0  0  0  0  0  0  0  0  0  0  0
  151.6337  144.7026  157.5318 H   0  0  0  0  0  0  0  0  0  0  0  0
  152.5470  143.2204  157.6565 H   0  0  0  0  0  0  0  0  0  0  0  0
  152.1560  146.0098  160.3129 H   0  0  0  0  0  0  0  0  0  0  0  0
  150.7505  145.2284  161.0396 H   0  0  0  0  0  0  0  0  0  0  0  0
  150.6628  145.8214  159.4015 H   0  0  0  0  0  0  0  0  0  0  0  0
  150.2016  139.8034  156.1887 H   0  0  0  0  0  0  0  0  0  0  0  0
  1  2  1  0  0  0  0
  1 24  1  0  0  0  0
  1 25  1  0  0  0  0
  1 26  1  0  0  0  0
  2  3  1  0  0  0  0
  2 27  1  0  0  0  0
  2 28  1  0  0  0  0
  3 23  1  0  0  0  0
  3  4  1  0  0  0  0
  4  5  2  0  0  0  0
  4 29  1  0  0  0  0
  5  6  1  0  0  0  0
  5 30  1  0  0  0  0
  6  7  2  0  0  0  0
  6  8  1  0  0  0  0
  8  9  1  0  0  0  0
  8 23  2  0  0  0  0
  9 10  1  0  0  0  0
  9 31  1  0  0  0  0
 10 11  2  0  0  0  0
 10 12  1  0  0  0  0
 12 13  1  0  0  0  0
 12 32  1  0  0  0  0
 13 19  1  0  0  0  0
 13 14  1  0  0  0  0
 13 33  1  0  0  0  0
 14 15  1  0  0  0  0
 14 34  1  0  0  0  0
 14 35  1  0  0  0  0
 15 16  1  0  0  0  0
 15 17  1  0  0  0  0
 15 36  1  0  0  0  0
 16 37  1  0  0  0  0
 16 38  1  0  0  0  0
 16 39  1  0  0  0  0
 17 18  1  0  0  0  0
 17 40  1  0  0  0  0
 17 41  1  0  0  0  0
 18 19  1  0  0  0  0
 18 42  1  0  0  0  0
 18 43  1  0  0  0  0
 19 20  1  0  0  0  0
 19 44  1  0  0  0  0
 20 21  1  0  0  0  0
 20 22  1  0  0  0  0
 20 45  1  0  0  0  0
 21 46  1  0  0  0  0
 21 47  1  0  0  0  0
 21 48  1  0  0  0  0
 22 49  1  0  0  0  0
 22 50  1  0  0  0  0
 22 51  1  0  0  0  0
 23 52  1  0  0  0  0
M  END
> <s_m_source_file>
AV-unprocessed.smi

> <i_m_source_file_index>
3030

> <i_lp_mmshare_version>
43012

> <i_f3d_flags>
0

> <s_epik_input>
W0NIM11bQ0gyXW4xW2NIXVtjSF1jKD1PKWMoW2NIXTEpW05IXUMoPU8pW05IXVtDQEBIXTJbQ0gyXVtDQEBIXShbQ0gzXSlbQ0gyXVtDSDJdW0NASF0yW0NIXShbQ0gzXSlbQ0gzXQ==

> <s_epik_cmdline>
J2VwaWtfcHl0aG9uJywgJy1waCcsICc3LjAnLCAnLXRuJywgJzgnLCAnLW1hJywgJzIwMCcsICctbWV0YWxfYmluZGluZycsICctaW1hZScsICc8aW5maWxlLm1hZT4nLCAnLW9tYWUnLCAnPG91dGZpbGUubWFlPic=

> <r_lp_tautomer_probability>
1

> <r_epik_Ionization_Penalty>
0.00147933

> <r_epik_Ionization_Penalty_Charging>
0.00145753

> <r_epik_Ionization_Penalty_Neutral>
2.17987e-05

> <r_epik_State_Penalty>
0.00097457

> <r_epik_Charging_Adjusted_Penalty>
0.0024321

> <i_epik_Tot_Q>
0

> <i_epik_Tot_abs_Q>
0

> <r_epik_Metal_State_Penalty>
-0

> <b_epik_Metal_Only>
0

> <s_lp_Force_Field>
OPLS_2005

> <r_lp_Energy>
9.06052

> <b_lp_Chiralities_Consistent>
1

> <s_lp_Variant>
AV-unprocessed.smi:3030-5

> <Gold.Version>
5.8.1

> <Gold.Id.Protein>
6NUR|6NUR_protein|mol2

> <Gold.PLP.Fitness>
51.2615

> <Gold.PLP.PLP>
-46.6919

> <Gold.PLP.part.hbond>
-1.9733

> <Gold.PLP.part.metal>
0.0000

> <Gold.PLP.part.buried>
-2.4510

> <Gold.PLP.part.nonpolar>
-41.3206

> <Gold.PLP.part.repulsive>
0.3244

> <Gold.PLP.ligand.clash>
0.0000

> <Gold.PLP.ligand.torsion>
0.7897

> <Gold.PLP.Chemscore.Hbond>
2.0000

> <Gold.PLP.Chemscore.CHOScore>
0.0000

> <Gold.PLP.Chemscore.Metal>
0.0000

> <Gold.Chemscore.Hbonds>
donor molecule, donor type, donor heavy atom, donor atom, acceptor molecule, acceptor atom, score
      P1  H  6896  6907       L1     7  0.99
      P1  H  7997  8009       L1    11  0.94

> <Gold.PLP.Chemscore.Internal.Correction>
0.1490

> <Gold.Rescore>
     Score         DG    S(hbond)    S(metal)    S(lipo)     H(rot)  DE(clash)    DE(int)     intcor
     23.07     -23.94       1.93        0.00     130.37       1.27       0.08       0.79       ----

> <Gold.Chemscore.Fitness>
23.0733

> <Gold.Chemscore.DG>
-23.9425

> <Gold.Chemscore.ZeroCoef>
-5.4800

> <Gold.Chemscore.Hbond>
1.9331

> <Gold.Chemscore.Metal>
0.0000

> <Gold.Chemscore.Lipo>
130.3715

> <Gold.Chemscore.Internal_Hbond>
0.0000

> <Gold.Chemscore.DEClash>
0.0787

> <Gold.Chemscore.DEInternal>
0.7905

> <Gold.Chemscore.Rot>
1.2685

> <Gold.Chemscore.Internal.Correction>
   9.000000E+99

> <Gold.Chemscore.Hbonds>
donor molecule, donor type, donor heavy atom, donor atom, acceptor molecule, acceptor atom, score
      P1  H  6896  6907       L1     7  0.81
      P1  H  7997  8009       L1    11  0.91

> <Gold.Chemscore.Hbond.Weighted>
-6.4565

> <Gold.Chemscore.Metal.Weighted>
-0.0000

> <Gold.Chemscore.Lipo.Weighted>
-15.2535

> <Gold.Chemscore.Internal_Hbond.Weighted>
0.0000

> <Gold.Chemscore.DEClash.Weighted>
0.0787

> <Gold.Chemscore.DEInternal.Weighted>
0.7905

> <Gold.Chemscore.Rot.Weighted>
3.2474

> <Gold.Chemscore.Internal.Correction.Weighted>
   9.000000E+99

> <Gold.Protein.RotatedTorsions>
[ 6907 6896 6895 6894 ] final  -27.84 input  -60.11 | X-H torsion
[ 7974 7965 7964 7962 ] final    8.33 input  175.53 | X-H torsion
[ 8008 7997 7996 7995 ] final  178.03 input   59.86 | X-H torsion
[ 10167 10162 10161 10158 ] final  137.75 input  -65.29 | X-H torsion
[ 10718 10713 10712 10709 ] final   22.60 input   66.30 | X-H torsion
[ 10763 10752 10751 10750 ] final   63.21 input  -60.55 | X-H torsion
[ 11005 11000 10999 10996 ] final  125.15 input  -57.11 | X-H torsion

> <Gold.Protein.ActiveResidues>
 VAL166  LYS551  ARG553  GLY616  TRP617  ASP618  TYR619  PRO620  LYS621  CYS622 
 ASP623  PHE694  ASN695  SER759  ASP760  ASP761  ALA762  ILE779  LEU786  VAL792 
 PHE793  MET794  SER795  GLU796  ALA797  LYS798  CYS799  TRP800  GLU811  SER814 

> <Gold.Protein.RotatedAtoms>
  151.1413  135.0181  159.8626 H   0  0  0  0  0  0  0  0  0  0  0  0  # atno 6907 bound_to 6896
  152.5452  134.1495  159.8523 H   0  0  0  0  0  0  0  0  0  0  0  0  # atno 6908 bound_to 6896
  151.1571  133.4823  159.2627 H   0  0  0  0  0  0  0  0  0  0  0  0  # atno 6909 bound_to 6896
  146.2417  139.9949  142.8422 H   0  0  0  0  0  0  0  0  0  0  0  0  # atno 7974 bound_to 7965
  156.0591  140.1343  156.9962 H   0  0  0  0  0  0  0  0  0  0  0  0  # atno 8008 bound_to 7997
  154.4472  140.0995  156.6561 H   0  0  0  0  0  0  0  0  0  0  0  0  # atno 8009 bound_to 7997
  155.5405  140.3461  155.4448 H   0  0  0  0  0  0  0  0  0  0  0  0  # atno 8010 bound_to 7997
  139.5134  144.6392  151.5613 H   0  0  0  0  0  0  0  0  0  0  0  0  # atno 10167 bound_to 10162
  157.1545  130.6689  149.6023 H   0  0  0  0  0  0  0  0  0  0  0  0  # atno 10718 bound_to 10713
  153.0010  135.5437  154.6316 H   0  0  0  0  0  0  0  0  0  0  0  0  # atno 10763 bound_to 10752
  154.5592  135.2832  155.0937 H   0  0  0  0  0  0  0  0  0  0  0  0  # atno 10764 bound_to 10752
  154.2146  135.6461  153.5178 H   0  0  0  0  0  0  0  0  0  0  0  0  # atno 10765 bound_to 10752
  139.9392  134.9637  156.8515 H   0  0  0  0  0  0  0  0  0  0  0  0  # atno 11005 bound_to 11000
  145.1469  140.9602  143.4455 LP  0  0  0  0  0  0  0  0  0  0  0  0  # atno 17320 bound_to 7965
  145.0242  139.3397  143.6057 LP  0  0  0  0  0  0  0  0  0  0  0  0  # atno 17321 bound_to 7965
  140.6153  143.9360  150.6484 LP  0  0  0  0  0  0  0  0  0  0  0  0  # atno 17342 bound_to 10162
  140.2616  143.3520  152.1317 LP  0  0  0  0  0  0  0  0  0  0  0  0  # atno 17343 bound_to 10162
  155.9764  130.4733  150.6528 LP  0  0  0  0  0  0  0  0  0  0  0  0  # atno 17370 bound_to 10713
  157.4189  131.0834  151.1150 LP  0  0  0  0  0  0  0  0  0  0  0  0  # atno 17371 bound_to 10713
  140.5994  134.0186  155.7531 LP  0  0  0  0  0  0  0  0  0  0  0  0  # atno 17394 bound_to 11000
  141.1020  133.9753  157.3062 LP  0  0  0  0  0  0  0  0  0  0  0  0  # atno 17395 bound_to 11000

$$$$
