AV-unprocessed.smi:16|AV-procd|sdf|97|dock1
  -GOLD-   2262015243D 1   1.00000     0.00000
 Structure written by MMmdl.
 59 63  0  0  0  0  0  0  0  0  1 V2000
  151.0221  136.5032  155.0838 C   0  0  0  0  0  0  0  0  0  0  0  0
  151.4866  137.9468  155.3258 C   0  0  0  0  0  0  0  0  0  0  0  0
  150.7612  138.5808  156.4297 N   0  0  0  0  0  0  0  0  0  0  0  0
  151.1675  139.9639  156.7135 C   0  0  0  0  0  0  0  0  0  0  0  0
  150.7139  140.9558  155.6221 C   0  0  0  0  0  0  0  0  0  0  0  0
  149.1975  140.8680  155.4199 C   0  0  1  0  0  0  0  0  0  0  0  0
  148.7939  141.7092  154.3444 O   0  0  0  0  0  0  0  0  0  0  0  0
  147.3800  141.6960  154.1693 C   0  0  0  0  0  0  0  0  0  0  0  0
  146.9064  140.2656  153.8566 C   0  0  0  0  0  0  0  0  0  0  0  0
  147.3623  139.3403  154.8886 N   0  0  0  0  0  0  0  0  0  0  0  0
  146.8456  138.1038  154.7119 C   0  0  0  0  0  0  0  0  0  0  0  0
  146.8113  137.2928  155.7974 N   0  0  0  0  0  0  0  0  0  0  0  0
  146.3278  136.0517  155.6889 C   0  0  0  0  0  0  0  0  0  0  0  0
  145.8397  135.4372  154.6092 N   0  0  0  0  0  0  0  0  0  0  0  0
  145.8662  136.2545  153.5173 C   0  0  0  0  0  0  0  0  0  0  0  0
  146.3393  137.5962  153.4813 C   0  0  0  0  0  0  0  0  0  0  0  0
  146.1862  138.1176  152.2022 N   0  0  0  0  0  0  0  0  0  0  0  0
  145.6567  137.1393  151.5204 C   0  0  0  0  0  0  0  0  0  0  0  0
  145.4604  135.9729  152.2247 N   0  0  0  0  0  0  0  0  0  0  0  0
  144.8750  134.7600  151.7350 C   0  0  0  0  0  0  0  0  0  0  0  0
  145.7008  133.4758  151.6338 C   0  0  0  0  0  0  0  0  0  0  0  0
  144.8847  133.0567  150.3900 C   0  0  0  0  0  0  0  0  0  0  0  0
  145.6986  132.4413  149.2401 C   0  0  0  0  0  0  0  0  0  0  0  0
  146.2594  131.2006  149.6186 O   0  0  0  0  0  0  0  0  0  0  0  0
  143.6586  132.1668  150.6769 C   0  0  0  0  0  0  0  0  0  0  0  0
  142.7727  132.1374  149.5762 O   0  0  0  0  0  0  0  0  0  0  0  0
  144.5823  134.5644  150.2454 C   0  0  0  0  0  0  0  0  0  0  0  0
  148.8084  139.4121  155.1038 C   0  0  2  0  0  0  0  0  0  0  0  0
  149.3084  138.4939  156.2489 C   0  0  0  0  0  0  0  0  0  0  0  0
  148.7030  141.1964  156.3367 H   0  0  0  0  0  0  0  0  0  0  0  0
  149.2971  139.1284  154.1723 H   0  0  0  0  0  0  0  0  0  0  0  0
  151.4764  136.1054  154.1763 H   0  0  0  0  0  0  0  0  0  0  0  0
  149.9401  136.4507  154.9601 H   0  0  0  0  0  0  0  0  0  0  0  0
  151.3044  135.8393  155.9005 H   0  0  0  0  0  0  0  0  0  0  0  0
  152.5638  137.9744  155.4858 H   0  0  0  0  0  0  0  0  0  0  0  0
  151.2961  138.5149  154.4145 H   0  0  0  0  0  0  0  0  0  0  0  0
  150.7202  140.2554  157.6647 H   0  0  0  0  0  0  0  0  0  0  0  0
  152.2446  140.0275  156.8613 H   0  0  0  0  0  0  0  0  0  0  0  0
  150.9887  141.9707  155.9101 H   0  0  0  0  0  0  0  0  0  0  0  0
  151.2323  140.7558  154.6841 H   0  0  0  0  0  0  0  0  0  0  0  0
  146.8886  142.0797  155.0649 H   0  0  0  0  0  0  0  0  0  0  0  0
  147.1175  142.3663  153.3508 H   0  0  0  0  0  0  0  0  0  0  0  0
  145.8179  140.2430  153.7867 H   0  0  0  0  0  0  0  0  0  0  0  0
  147.2969  139.9515  152.8875 H   0  0  0  0  0  0  0  0  0  0  0  0
  146.3383  135.4651  156.5958 H   0  0  0  0  0  0  0  0  0  0  0  0
  145.4020  137.2421  150.4755 H   0  0  0  0  0  0  0  0  0  0  0  0
  143.9763  134.5951  152.3318 H   0  0  0  0  0  0  0  0  0  0  0  0
  146.7503  133.6756  151.4097 H   0  0  0  0  0  0  0  0  0  0  0  0
  145.6080  132.8137  152.4952 H   0  0  0  0  0  0  0  0  0  0  0  0
  145.0666  132.2671  148.3687 H   0  0  0  0  0  0  0  0  0  0  0  0
  146.4967  133.1063  148.9098 H   0  0  0  0  0  0  0  0  0  0  0  0
  147.1486  131.3477  149.9031 H   0  0  0  0  0  0  0  0  0  0  0  0
  143.9585  131.1402  150.8885 H   0  0  0  0  0  0  0  0  0  0  0  0
  143.1139  132.5091  151.5569 H   0  0  0  0  0  0  0  0  0  0  0  0
  142.3027  132.9565  149.5479 H   0  0  0  0  0  0  0  0  0  0  0  0
  143.5593  134.8003  149.9505 H   0  0  0  0  0  0  0  0  0  0  0  0
  145.3015  135.0800  149.6060 H   0  0  0  0  0  0  0  0  0  0  0  0
  149.0392  137.4528  156.0681 H   0  0  0  0  0  0  0  0  0  0  0  0
  148.8222  138.7759  157.1839 H   0  0  0  0  0  0  0  0  0  0  0  0
  1  2  1  0  0  0  0
  1 32  1  0  0  0  0
  1 33  1  0  0  0  0
  1 34  1  0  0  0  0
  2  3  1  0  0  0  0
  2 35  1  0  0  0  0
  2 36  1  0  0  0  0
  3 29  1  0  0  0  0
  3  4  1  0  0  0  0
  4  5  1  0  0  0  0
  4 37  1  0  0  0  0
  4 38  1  0  0  0  0
  5  6  1  0  0  0  0
  5 39  1  0  0  0  0
  5 40  1  0  0  0  0
  6 30  1  0  0  0  0
  6 28  1  0  0  0  0
  6  7  1  0  0  0  0
  7  8  1  0  0  0  0
  8  9  1  0  0  0  0
  8 41  1  0  0  0  0
  8 42  1  0  0  0  0
  9 10  1  0  0  0  0
  9 43  1  0  0  0  0
  9 44  1  0  0  0  0
 10 11  1  0  0  0  0
 10 28  1  0  0  0  0
 11 16  1  0  0  0  0
 11 12  2  0  0  0  0
 12 13  1  0  0  0  0
 13 14  2  0  0  0  0
 13 45  1  0  0  0  0
 14 15  1  0  0  0  0
 15 19  1  0  0  0  0
 15 16  2  0  0  0  0
 16 17  1  0  0  0  0
 17 18  2  0  0  0  0
 18 19  1  0  0  0  0
 18 46  1  0  0  0  0
 19 20  1  0  0  0  0
 20 27  1  0  0  0  0
 20 21  1  0  0  0  0
 20 47  1  0  0  0  0
 21 22  1  0  0  0  0
 21 48  1  0  0  0  0
 21 49  1  0  0  0  0
 22 23  1  0  0  0  0
 22 25  1  0  0  0  0
 22 27  1  0  0  0  0
 23 24  1  0  0  0  0
 23 50  1  0  0  0  0
 23 51  1  0  0  0  0
 24 52  1  0  0  0  0
 25 26  1  0  0  0  0
 25 53  1  0  0  0  0
 25 54  1  0  0  0  0
 26 55  1  0  0  0  0
 27 56  1  0  0  0  0
 27 57  1  0  0  0  0
 28 31  1  0  0  0  0
 28 29  1  0  0  0  0
 29 58  1  0  0  0  0
 29 59  1  0  0  0  0
M  END
> <s_m_source_file>
AV-unprocessed.smi

> <i_m_source_file_index>
16

> <i_lp_mmshare_version>
43012

> <i_f3d_flags>
0

> <s_epik_input>
W0NIM11bQ0gyXU4oW0NIMl1bQ0gyXTEpW0NIMl1bQ0BASF0oW0NAQEhdMTIpTihbQ0gyXVtDSDJdTzIpYyhuW2NIXW4zKWMoYzM0KW5bY0hdbjRbQ0hdKFtDSDJdNSlbQ0gyXUM1KFtDSDJdW09IXSlbQ0gyXVtPSF0=

> <s_epik_cmdline>
J2VwaWtfcHl0aG9uJywgJy1waCcsICc3LjAnLCAnLXRuJywgJzgnLCAnLW1hJywgJzIwMCcsICctbWV0YWxfYmluZGluZycsICctaW1hZScsICc8aW5maWxlLm1hZT4nLCAnLW9tYWUnLCAnPG91dGZpbGUubWFlPic=

> <r_lp_tautomer_probability>
1

> <r_epik_Ionization_Penalty>
2.27341

> <r_epik_Ionization_Penalty_Charging>
0

> <r_epik_Ionization_Penalty_Neutral>
2.27341

> <r_epik_State_Penalty>
2.41121

> <r_epik_Charging_Adjusted_Penalty>
2.41121

> <i_epik_Tot_Q>
0

> <i_epik_Tot_abs_Q>
0

> <r_epik_Metal_State_Penalty>
2.40177

> <b_epik_Metal_Only>
0

> <s_lp_Force_Field>
OPLS_2005

> <r_lp_Energy>
55.3921

> <b_lp_Chiralities_Consistent>
1

> <s_lp_Variant>
AV-unprocessed.smi:16-11

> <Gold.Version>
5.8.1

> <Gold.Id.Protein>
6NUR|6NUR_protein|mol2

> <Gold.PLP.Fitness>
49.8405

> <Gold.PLP.PLP>
-39.1672

> <Gold.PLP.part.hbond>
-4.9771

> <Gold.PLP.part.metal>
0.0000

> <Gold.PLP.part.buried>
-1.5913

> <Gold.PLP.part.nonpolar>
-32.4510

> <Gold.PLP.part.repulsive>
0.6604

> <Gold.PLP.ligand.clash>
0.0000

> <Gold.PLP.ligand.torsion>
0.7062

> <Gold.PLP.Chemscore.Hbond>
3.1525

> <Gold.PLP.Chemscore.CHOScore>
0.6007

> <Gold.PLP.Chemscore.Metal>
0.0000

> <Gold.Chemscore.Hbonds>
donor molecule, donor type, donor heavy atom, donor atom, acceptor molecule, acceptor atom, score
      L1  H    24    52       P1 10747  1.00
      L1  H    26    55       P1 10186  1.00
      P1  H  8011  8017       L1     7  0.10
      P1  H 10785 10796       L1    26  0.57
      L1  C    18    46       P1 10171  0.85

> <Gold.PLP.Chemscore.Internal.Correction>
0.8261

> <Gold.Rescore>
     Score         DG    S(hbond)    S(metal)    S(lipo)     H(rot)  DE(clash)    DE(int)     intcor
     12.03     -15.87       2.41        0.00      91.67       3.28       0.32       3.51       ----

> <Gold.Chemscore.Fitness>
12.0328

> <Gold.Chemscore.DG>
-15.8680

> <Gold.Chemscore.ZeroCoef>
-5.4800

> <Gold.Chemscore.Hbond>
2.4110

> <Gold.Chemscore.Metal>
0.0000

> <Gold.Chemscore.Lipo>
91.6742

> <Gold.Chemscore.Internal_Hbond>
0.0000

> <Gold.Chemscore.DEClash>
0.3208

> <Gold.Chemscore.DEInternal>
3.5144

> <Gold.Chemscore.Rot>
3.2776

> <Gold.Chemscore.Internal.Correction>
   9.000000E+99

> <Gold.Chemscore.Hbonds>
donor molecule, donor type, donor heavy atom, donor atom, acceptor molecule, acceptor atom, score
      L1  H    24    52       P1 10747  0.98
      L1  H    26    55       P1 10186  0.99
      P1  H  8011  8017       L1     7  0.08
      P1  H 10785 10796       L1    26  0.17

> <Gold.Chemscore.Hbond.Weighted>
-8.0528

> <Gold.Chemscore.Metal.Weighted>
-0.0000

> <Gold.Chemscore.Lipo.Weighted>
-10.7259

> <Gold.Chemscore.Internal_Hbond.Weighted>
0.0000

> <Gold.Chemscore.DEClash.Weighted>
0.3208

> <Gold.Chemscore.DEInternal.Weighted>
3.5144

> <Gold.Chemscore.Rot.Weighted>
8.3907

> <Gold.Chemscore.Internal.Correction.Weighted>
   9.000000E+99

> <Gold.Protein.RotatedTorsions>
[ 6907 6896 6895 6894 ] final   42.32 input  -60.11 | X-H torsion
[ 7974 7965 7964 7962 ] final   87.22 input  175.53 | X-H torsion
[ 8008 7997 7996 7995 ] final  -66.99 input   59.86 | X-H torsion
[ 10167 10162 10161 10158 ] final  -52.39 input  -65.29 | X-H torsion
[ 10718 10713 10712 10709 ] final  -83.56 input   66.30 | X-H torsion
[ 10763 10752 10751 10750 ] final  157.88 input  -60.55 | X-H torsion
[ 11005 11000 10999 10996 ] final  143.01 input  -57.11 | X-H torsion

> <Gold.Protein.ActiveResidues>
 VAL166  LYS551  ARG553  GLY616  TRP617  ASP618  TYR619  PRO620  LYS621  CYS622 
 ASP623  PHE694  ASN695  SER759  ASP760  ASP761  ALA762  ILE779  LEU786  VAL792 
 PHE793  MET794  SER795  GLU796  ALA797  LYS798  CYS799  TRP800  GLU811  SER814 

> <Gold.Protein.RotatedAtoms>
  152.2064  134.8541  160.0502 H   0  0  0  0  0  0  0  0  0  0  0  0  # atno 6907 bound_to 6896
  151.9376  133.3623  159.3961 H   0  0  0  0  0  0  0  0  0  0  0  0  # atno 6908 bound_to 6896
  150.6966  134.4397  159.5330 H   0  0  0  0  0  0  0  0  0  0  0  0  # atno 6909 bound_to 6896
  145.5619  139.2305  143.2454 H   0  0  0  0  0  0  0  0  0  0  0  0  # atno 7974 bound_to 7965
  154.4770  140.0901  156.7287 H   0  0  0  0  0  0  0  0  0  0  0  0  # atno 8008 bound_to 7997
  155.4569  140.3459  155.4289 H   0  0  0  0  0  0  0  0  0  0  0  0  # atno 8009 bound_to 7997
  156.1132  140.1453  156.9297 H   0  0  0  0  0  0  0  0  0  0  0  0  # atno 8010 bound_to 7997
  140.6540  143.2585  151.4641 H   0  0  0  0  0  0  0  0  0  0  0  0  # atno 10167 bound_to 10162
  156.0017  130.4669  150.4276 H   0  0  0  0  0  0  0  0  0  0  0  0  # atno 10718 bound_to 10713
  154.2072  135.2787  155.2971 H   0  0  0  0  0  0  0  0  0  0  0  0  # atno 10763 bound_to 10752
  154.5807  135.5590  153.7186 H   0  0  0  0  0  0  0  0  0  0  0  0  # atno 10764 bound_to 10752
  153.0073  135.6344  154.2210 H   0  0  0  0  0  0  0  0  0  0  0  0  # atno 10765 bound_to 10752
  140.0521  134.9250  157.1035 H   0  0  0  0  0  0  0  0  0  0  0  0  # atno 11005 bound_to 11000
  146.1845  140.6444  142.9174 LP  0  0  0  0  0  0  0  0  0  0  0  0  # atno 17320 bound_to 7965
  144.7479  140.5115  143.6823 LP  0  0  0  0  0  0  0  0  0  0  0  0  # atno 17321 bound_to 7965
  139.5759  144.1821  152.1902 LP  0  0  0  0  0  0  0  0  0  0  0  0  # atno 17342 bound_to 10162
  140.1131  144.5439  150.6912 LP  0  0  0  0  0  0  0  0  0  0  0  0  # atno 17343 bound_to 10162
  157.2327  131.0508  151.2482 LP  0  0  0  0  0  0  0  0  0  0  0  0  # atno 17370 bound_to 10713
  157.3695  130.7173  149.6555 LP  0  0  0  0  0  0  0  0  0  0  0  0  # atno 17371 bound_to 10713
  140.3901  134.2193  155.7166 LP  0  0  0  0  0  0  0  0  0  0  0  0  # atno 17394 bound_to 11000
  141.1935  133.8149  157.0796 LP  0  0  0  0  0  0  0  0  0  0  0  0  # atno 17395 bound_to 11000

$$$$
