AV-unprocessed.smi:2355|AV-procd|sdf|9386|dock5
  -GOLD-   2272013 13D 1   1.00000     0.00000
 Structure written by MMmdl.
 48 49  0  0  0  0  0  0  0  0  1 V2000
  151.1963  145.4211  159.4404 C   0  0  0  0  0  0  0  0  0  0  0  0
  151.6583  144.0055  159.1665 C   0  0  0  0  0  0  0  0  0  0  0  0
  150.8939  143.1410  158.3599 C   0  0  0  0  0  0  0  0  0  0  0  0
  151.3747  141.8348  158.1442 C   0  0  0  0  0  0  0  0  0  0  0  0
  150.6050  140.8520  157.2868 C   0  0  0  0  0  0  0  0  0  0  0  0
  152.5279  141.3774  158.6763 N   0  0  0  0  0  0  0  0  0  0  0  0
  153.2721  142.2004  159.4560 C   0  0  0  0  0  0  0  0  0  0  0  0
  154.4996  141.8162  160.0587 N   0  0  0  0  0  0  0  0  0  0  0  0
  155.2051  140.6893  159.8572 C   0  0  0  0  0  0  0  0  0  0  0  0
  154.8811  139.7712  159.1029 O   0  0  0  0  0  0  0  0  0  0  0  0
  156.3247  140.6770  160.5966 N   0  0  0  0  0  0  0  0  0  0  0  0
  157.3025  139.5896  160.6280 C   0  0  1  0  0  0  0  0  0  0  0  0
  158.6195  140.0800  160.0012 C   0  0  0  0  0  0  0  0  0  0  0  0
  157.4772  139.0108  162.0703 C   0  0  2  0  0  0  0  0  0  0  0  0
  158.4164  137.7770  162.0335 C   0  0  0  0  0  0  0  0  0  0  0  0
  156.2014  138.7449  162.7767 N   0  0  0  0  0  0  0  0  0  0  0  0
  155.3199  137.8488  162.0196 C   0  0  0  0  0  0  0  0  0  0  0  0
  154.0027  137.5455  162.7535 C   0  0  0  0  0  0  0  0  0  0  0  0
  154.2848  136.9848  164.0280 O   0  0  0  0  0  0  0  0  0  0  0  0
  155.0747  137.8527  164.8289 C   0  0  0  0  0  0  0  0  0  0  0  0
  156.3989  138.1643  164.1101 C   0  0  0  0  0  0  0  0  0  0  0  0
  152.8627  143.5267  159.7207 C   0  0  0  0  0  0  0  0  0  0  0  0
  150.4308  145.7295  158.7278 H   0  0  0  0  0  0  0  0  0  0  0  0
  152.0313  146.1181  159.3637 H   0  0  0  0  0  0  0  0  0  0  0  0
  150.7792  145.4925  160.4450 H   0  0  0  0  0  0  0  0  0  0  0  0
  149.9640  143.4701  157.9191 H   0  0  0  0  0  0  0  0  0  0  0  0
  149.7660  141.3362  156.7864 H   0  0  0  0  0  0  0  0  0  0  0  0
  150.2146  140.0402  157.9010 H   0  0  0  0  0  0  0  0  0  0  0  0
  151.2539  140.4236  156.5224 H   0  0  0  0  0  0  0  0  0  0  0  0
  154.8835  142.4749  160.7198 H   0  0  0  0  0  0  0  0  0  0  0  0
  156.5127  141.4724  161.1892 H   0  0  0  0  0  0  0  0  0  0  0  0
  156.9001  138.8246  159.9655 H   0  0  0  0  0  0  0  0  0  0  0  0
  159.3641  139.2843  159.9728 H   0  0  0  0  0  0  0  0  0  0  0  0
  159.0466  140.9164  160.5547 H   0  0  0  0  0  0  0  0  0  0  0  0
  158.4620  140.4130  158.9750 H   0  0  0  0  0  0  0  0  0  0  0  0
  158.0055  139.7739  162.6442 H   0  0  0  0  0  0  0  0  0  0  0  0
  159.3025  137.9428  161.4220 H   0  0  0  0  0  0  0  0  0  0  0  0
  157.9057  136.8983  161.6385 H   0  0  0  0  0  0  0  0  0  0  0  0
  158.7930  137.5249  163.0243 H   0  0  0  0  0  0  0  0  0  0  0  0
  155.0577  138.2897  161.0593 H   0  0  0  0  0  0  0  0  0  0  0  0
  155.8386  136.9127  161.8073 H   0  0  0  0  0  0  0  0  0  0  0  0
  153.4059  138.4518  162.8685 H   0  0  0  0  0  0  0  0  0  0  0  0
  153.4036  136.8386  162.1792 H   0  0  0  0  0  0  0  0  0  0  0  0
  154.5238  138.7712  165.0374 H   0  0  0  0  0  0  0  0  0  0  0  0
  155.2692  137.3719  165.7876 H   0  0  0  0  0  0  0  0  0  0  0  0
  156.9932  137.2524  164.0331 H   0  0  0  0  0  0  0  0  0  0  0  0
  156.9489  138.8493  164.7520 H   0  0  0  0  0  0  0  0  0  0  0  0
  153.4641  144.1724  160.3445 H   0  0  0  0  0  0  0  0  0  0  0  0
  1  2  1  0  0  0  0
  1 23  1  0  0  0  0
  1 24  1  0  0  0  0
  1 25  1  0  0  0  0
  2 22  1  0  0  0  0
  2  3  2  0  0  0  0
  3  4  1  0  0  0  0
  3 26  1  0  0  0  0
  4  5  1  0  0  0  0
  4  6  2  0  0  0  0
  5 27  1  0  0  0  0
  5 28  1  0  0  0  0
  5 29  1  0  0  0  0
  6  7  1  0  0  0  0
  7  8  1  0  0  0  0
  7 22  2  0  0  0  0
  8  9  1  0  0  0  0
  8 30  1  0  0  0  0
  9 10  2  0  0  0  0
  9 11  1  0  0  0  0
 11 12  1  0  0  0  0
 11 31  1  0  0  0  0
 12 13  1  0  0  0  0
 12 14  1  0  0  0  0
 12 32  1  0  0  0  0
 13 33  1  0  0  0  0
 13 34  1  0  0  0  0
 13 35  1  0  0  0  0
 14 15  1  0  0  0  0
 14 16  1  0  0  0  0
 14 36  1  0  0  0  0
 15 37  1  0  0  0  0
 15 38  1  0  0  0  0
 15 39  1  0  0  0  0
 16 21  1  0  0  0  0
 16 17  1  0  0  0  0
 17 18  1  0  0  0  0
 17 40  1  0  0  0  0
 17 41  1  0  0  0  0
 18 19  1  0  0  0  0
 18 42  1  0  0  0  0
 18 43  1  0  0  0  0
 19 20  1  0  0  0  0
 20 21  1  0  0  0  0
 20 44  1  0  0  0  0
 20 45  1  0  0  0  0
 21 46  1  0  0  0  0
 21 47  1  0  0  0  0
 22 48  1  0  0  0  0
M  END
> <s_m_source_file>
AV-unprocessed.smi

> <i_m_source_file_index>
2355

> <i_lp_mmshare_version>
43012

> <i_f3d_flags>
0

> <s_epik_input>
W0NIM11jMVtjSF1jKFtDSDNdKW5jKFtjSF0xKVtOSF1DKD1PKVtOSF1bQ0BIXShbQ0gzXSlbQ0BIXShbQ0gzXSlOMltDSDJdW0NIMl1PW0NIMl1bQ0gyXTI=

> <s_epik_cmdline>
J2VwaWtfcHl0aG9uJywgJy1waCcsICc3LjAnLCAnLXRuJywgJzgnLCAnLW1hJywgJzIwMCcsICctbWV0YWxfYmluZGluZycsICctaW1hZScsICc8aW5maWxlLm1hZT4nLCAnLW9tYWUnLCAnPG91dGZpbGUubWFlPic=

> <r_epik_Ionization_Penalty>
0.266238

> <r_epik_Ionization_Penalty_Charging>
0

> <r_epik_Ionization_Penalty_Neutral>
0.266238

> <r_epik_State_Penalty>
0.257924

> <r_epik_Charging_Adjusted_Penalty>
0.257924

> <i_epik_Tot_Q>
0

> <i_epik_Tot_abs_Q>
0

> <r_epik_Metal_State_Penalty>
0.257904

> <b_epik_Metal_Only>
0

> <s_lp_Force_Field>
OPLS_2005

> <r_lp_Energy>
33.1774

> <b_lp_Chiralities_Consistent>
1

> <s_lp_Variant>
AV-unprocessed.smi:2355-2

> <Gold.Version>
5.8.1

> <Gold.Id.Protein>
6NUR|6NUR_protein|mol2

> <Gold.PLP.Fitness>
41.4456

> <Gold.PLP.PLP>
-38.6897

> <Gold.PLP.part.hbond>
-2.0000

> <Gold.PLP.part.metal>
0.0000

> <Gold.PLP.part.buried>
-6.3175

> <Gold.PLP.part.nonpolar>
-30.8612

> <Gold.PLP.part.repulsive>
0.1236

> <Gold.PLP.ligand.clash>
0.0000

> <Gold.PLP.ligand.torsion>
0.1708

> <Gold.PLP.Chemscore.Hbond>
1.0000

> <Gold.PLP.Chemscore.CHOScore>
0.0000

> <Gold.PLP.Chemscore.Metal>
0.0000

> <Gold.Chemscore.Hbonds>
donor molecule, donor type, donor heavy atom, donor atom, acceptor molecule, acceptor atom, score
      P1  H  7997  8009       L1    10  1.00

> <Gold.PLP.Chemscore.Internal.Correction>
0.0975

> <Gold.Rescore>
     Score         DG    S(hbond)    S(metal)    S(lipo)     H(rot)  DE(clash)    DE(int)     intcor
     15.48     -17.11       1.00        0.00     101.67       1.40       0.11       1.52       ----

> <Gold.Chemscore.Fitness>
15.4834

> <Gold.Chemscore.DG>
-17.1123

> <Gold.Chemscore.ZeroCoef>
-5.4800

> <Gold.Chemscore.Hbond>
0.9955

> <Gold.Chemscore.Metal>
0.0000

> <Gold.Chemscore.Lipo>
101.6675

> <Gold.Chemscore.Internal_Hbond>
0.0000

> <Gold.Chemscore.DEClash>
0.1110

> <Gold.Chemscore.DEInternal>
1.5179

> <Gold.Chemscore.Rot>
1.4015

> <Gold.Chemscore.Internal.Correction>
   9.000000E+99

> <Gold.Chemscore.Hbonds>
donor molecule, donor type, donor heavy atom, donor atom, acceptor molecule, acceptor atom, score
      P1  H  7997  8009       L1    10  0.90

> <Gold.Chemscore.Hbond.Weighted>
-3.3250

> <Gold.Chemscore.Metal.Weighted>
-0.0000

> <Gold.Chemscore.Lipo.Weighted>
-11.8951

> <Gold.Chemscore.Internal_Hbond.Weighted>
0.0000

> <Gold.Chemscore.DEClash.Weighted>
0.1110

> <Gold.Chemscore.DEInternal.Weighted>
1.5179

> <Gold.Chemscore.Rot.Weighted>
3.5878

> <Gold.Chemscore.Internal.Correction.Weighted>
   9.000000E+99

> <Gold.Protein.RotatedTorsions>
[ 6907 6896 6895 6894 ] final  149.64 input  -60.11 | X-H torsion
[ 7974 7965 7964 7962 ] final  159.58 input  175.53 | X-H torsion
[ 8008 7997 7996 7995 ] final  108.61 input   59.86 | X-H torsion
[ 10167 10162 10161 10158 ] final   60.95 input  -65.29 | X-H torsion
[ 10718 10713 10712 10709 ] final -175.84 input   66.30 | X-H torsion
[ 10763 10752 10751 10750 ] final -111.23 input  -60.55 | X-H torsion
[ 11005 11000 10999 10996 ] final  -14.01 input  -57.11 | X-H torsion

> <Gold.Protein.ActiveResidues>
 VAL166  LYS551  ARG553  GLY616  TRP617  ASP618  TYR619  PRO620  LYS621  CYS622 
 ASP623  PHE694  ASN695  SER759  ASP760  ASP761  ALA762  ILE779  LEU786  VAL792 
 PHE793  MET794  SER795  GLU796  ALA797  LYS798  CYS799  TRP800  GLU811  SER814 

> <Gold.Protein.RotatedAtoms>
  152.1252  133.4376  159.4694 H   0  0  0  0  0  0  0  0  0  0  0  0  # atno 6907 bound_to 6896
  150.6874  134.2487  159.4511 H   0  0  0  0  0  0  0  0  0  0  0  0  # atno 6908 bound_to 6896
  152.0366  134.9735  160.0624 H   0  0  0  0  0  0  0  0  0  0  0  0  # atno 6909 bound_to 6896
  144.7782  139.7637  143.6270 H   0  0  0  0  0  0  0  0  0  0  0  0  # atno 7974 bound_to 7965
  156.1916  140.3073  155.9344 H   0  0  0  0  0  0  0  0  0  0  0  0  # atno 8008 bound_to 7997
  155.3160  140.0453  157.3054 H   0  0  0  0  0  0  0  0  0  0  0  0  # atno 8009 bound_to 7997
  154.5459  140.2276  155.8573 H   0  0  0  0  0  0  0  0  0  0  0  0  # atno 8010 bound_to 7997
  140.1601  144.4379  150.6714 H   0  0  0  0  0  0  0  0  0  0  0  0  # atno 10167 bound_to 10162
  156.8058  130.9568  151.3117 H   0  0  0  0  0  0  0  0  0  0  0  0  # atno 10718 bound_to 10713
  154.8290  135.4535  154.1008 H   0  0  0  0  0  0  0  0  0  0  0  0  # atno 10763 bound_to 10752
  153.2297  135.6904  153.7910 H   0  0  0  0  0  0  0  0  0  0  0  0  # atno 10764 bound_to 10752
  153.7297  135.3329  155.3260 H   0  0  0  0  0  0  0  0  0  0  0  0  # atno 10765 bound_to 10752
  140.7820  133.8355  155.9301 H   0  0  0  0  0  0  0  0  0  0  0  0  # atno 11005 bound_to 11000
  146.1975  139.5250  142.9765 LP  0  0  0  0  0  0  0  0  0  0  0  0  # atno 17320 bound_to 7965
  145.6124  141.0337  143.1959 LP  0  0  0  0  0  0  0  0  0  0  0  0  # atno 17321 bound_to 7965
  140.6649  143.2264  151.5768 LP  0  0  0  0  0  0  0  0  0  0  0  0  # atno 17342 bound_to 10162
  139.5385  144.2713  152.1302 LP  0  0  0  0  0  0  0  0  0  0  0  0  # atno 17343 bound_to 10162
  157.6530  130.8901  149.9672 LP  0  0  0  0  0  0  0  0  0  0  0  0  # atno 17370 bound_to 10713
  156.1073  130.3652  150.0110 LP  0  0  0  0  0  0  0  0  0  0  0  0  # atno 17371 bound_to 10713
  140.9473  134.1824  157.4754 LP  0  0  0  0  0  0  0  0  0  0  0  0  # atno 17394 bound_to 11000
  139.8741  134.9895  156.5461 LP  0  0  0  0  0  0  0  0  0  0  0  0  # atno 17395 bound_to 11000

$$$$
