AV-unprocessed.smi:1440|AV-procd|sdf|5873|dock6
  -GOLD-   22720 5553D 1   1.00000     0.00000
 Structure written by MMmdl.
 41 42  0  0  0  0  0  0  0  0  1 V2000
  153.1706  143.3729  159.7234 C   0  0  0  0  0  0  0  0  0  0  0  0
  152.1384  142.3748  159.1803 C   0  0  2  0  0  0  0  0  0  0  0  0
  152.7914  141.0286  158.8154 C   0  0  0  0  0  0  0  0  0  0  0  0
  151.7577  140.0267  158.2768 C   0  0  0  0  0  0  0  0  0  0  0  0
  150.9903  140.5987  157.0665 C   0  0  1  0  0  0  0  0  0  0  0  0
  149.9531  139.6707  156.6247 N   0  0  0  0  0  0  0  0  0  0  0  0
  149.8338  139.1678  155.3867 C   0  0  0  0  0  0  0  0  0  0  0  0
  150.6124  139.4390  154.4711 O   0  0  0  0  0  0  0  0  0  0  0  0
  148.6614  138.2021  155.1708 C   0  0  0  0  0  0  0  0  0  0  0  0
  148.0966  138.2708  153.8255 N   0  0  0  0  0  0  0  0  0  0  0  0
  147.2121  139.1869  153.3997 C   0  0  0  0  0  0  0  0  0  0  0  0
  146.7579  140.0775  154.1172 O   0  0  0  0  0  0  0  0  0  0  0  0
  146.7770  139.0863  151.9372 C   0  0  0  0  0  0  0  0  0  0  0  0
  146.1735  137.7967  151.6556 N   0  0  0  0  0  0  0  0  0  0  0  0
  145.2837  137.0850  152.3502 C   0  0  0  0  0  0  0  0  0  0  0  0
  144.9585  135.9325  151.7811 N   0  0  0  0  0  0  0  0  0  0  0  0
  145.7390  136.0024  150.6615 C   0  0  0  0  0  0  0  0  0  0  0  0
  146.4865  137.0992  150.5376 N   0  0  0  0  0  0  0  0  0  0  0  0
  150.3473  141.9521  157.4219 C   0  0  0  0  0  0  0  0  0  0  0  0
  151.3845  142.9479  157.9655 C   0  0  0  0  0  0  0  0  0  0  0  0
  153.9327  143.6005  158.9777 H   0  0  0  0  0  0  0  0  0  0  0  0
  153.6748  142.9758  160.6048 H   0  0  0  0  0  0  0  0  0  0  0  0
  152.6950  144.3110  160.0108 H   0  0  0  0  0  0  0  0  0  0  0  0
  151.4111  142.1918  159.9729 H   0  0  0  0  0  0  0  0  0  0  0  0
  153.5684  141.1861  158.0659 H   0  0  0  0  0  0  0  0  0  0  0  0
  153.2877  140.6050  159.6891 H   0  0  0  0  0  0  0  0  0  0  0  0
  152.2621  139.0997  158.0021 H   0  0  0  0  0  0  0  0  0  0  0  0
  151.0557  139.7707  159.0718 H   0  0  0  0  0  0  0  0  0  0  0  0
  151.6925  140.7599  156.2461 H   0  0  0  0  0  0  0  0  0  0  0  0
  149.2712  139.3914  157.3150 H   0  0  0  0  0  0  0  0  0  0  0  0
  149.0137  137.1841  155.3392 H   0  0  0  0  0  0  0  0  0  0  0  0
  147.8870  138.3920  155.9164 H   0  0  0  0  0  0  0  0  0  0  0  0
  148.4154  137.5784  153.1632 H   0  0  0  0  0  0  0  0  0  0  0  0
  146.0516  139.8687  151.7095 H   0  0  0  0  0  0  0  0  0  0  0  0
  147.6337  139.2406  151.2791 H   0  0  0  0  0  0  0  0  0  0  0  0
  144.8685  137.4158  153.2911 H   0  0  0  0  0  0  0  0  0  0  0  0
  145.7571  135.2214  149.9156 H   0  0  0  0  0  0  0  0  0  0  0  0
  149.8589  142.3759  156.5436 H   0  0  0  0  0  0  0  0  0  0  0  0
  149.5657  141.8052  158.1689 H   0  0  0  0  0  0  0  0  0  0  0  0
  150.8863  143.8779  158.2414 H   0  0  0  0  0  0  0  0  0  0  0  0
  152.0938  143.2004  157.1762 H   0  0  0  0  0  0  0  0  0  0  0  0
  1  2  1  0  0  0  0
  1 21  1  0  0  0  0
  1 22  1  0  0  0  0
  1 23  1  0  0  0  0
  2 20  1  0  0  0  0
  2  3  1  0  0  0  0
  2 24  1  0  0  0  0
  3  4  1  0  0  0  0
  3 25  1  0  0  0  0
  3 26  1  0  0  0  0
  4  5  1  0  0  0  0
  4 27  1  0  0  0  0
  4 28  1  0  0  0  0
  5  6  1  0  0  0  0
  5 19  1  0  0  0  0
  5 29  1  0  0  0  0
  6  7  1  0  0  0  0
  6 30  1  0  0  0  0
  7  8  2  0  0  0  0
  7  9  1  0  0  0  0
  9 10  1  0  0  0  0
  9 31  1  0  0  0  0
  9 32  1  0  0  0  0
 10 11  1  0  0  0  0
 10 33  1  0  0  0  0
 11 12  2  0  0  0  0
 11 13  1  0  0  0  0
 13 14  1  0  0  0  0
 13 34  1  0  0  0  0
 13 35  1  0  0  0  0
 14 18  1  0  0  0  0
 14 15  1  0  0  0  0
 15 16  2  0  0  0  0
 15 36  1  0  0  0  0
 16 17  1  0  0  0  0
 17 18  2  0  0  0  0
 17 37  1  0  0  0  0
 19 20  1  0  0  0  0
 19 38  1  0  0  0  0
 19 39  1  0  0  0  0
 20 40  1  0  0  0  0
 20 41  1  0  0  0  0
M  END
> <s_m_source_file>
AV-unprocessed.smi

> <i_m_source_file_index>
1440

> <i_lp_mmshare_version>
43012

> <i_f3d_flags>
0

> <s_epik_input>
W0NIM11bQ0BASF0xW0NIMl1bQ0gyXVtDQEhdKFtDSDJdW0NIMl0xKVtOSF1DKD1PKVtDSDJdW05IXUMoPU8pW0NIMl1uMltjSF1uW2NIXW4y

> <s_epik_cmdline>
J2VwaWtfcHl0aG9uJywgJy1waCcsICc3LjAnLCAnLXRuJywgJzgnLCAnLW1hJywgJzIwMCcsICctbWV0YWxfYmluZGluZycsICctaW1hZScsICc8aW5maWxlLm1hZT4nLCAnLW9tYWUnLCAnPG91dGZpbGUubWFlPic=

> <r_lp_tautomer_probability>
1

> <r_epik_Ionization_Penalty>
7.34071e-06

> <r_epik_Ionization_Penalty_Charging>
0

> <r_epik_Ionization_Penalty_Neutral>
7.34071e-06

> <r_epik_State_Penalty>
-0

> <r_epik_Charging_Adjusted_Penalty>
0

> <i_epik_Tot_Q>
0

> <i_epik_Tot_abs_Q>
0

> <r_epik_Metal_State_Penalty>
-0

> <b_epik_Metal_Only>
0

> <s_lp_Force_Field>
OPLS_2005

> <r_lp_Energy>
7.17082

> <b_lp_Chiralities_Consistent>
1

> <s_lp_Variant>
AV-unprocessed.smi:1440-1

> <Gold.Version>
5.8.1

> <Gold.Id.Protein>
6NUR|6NUR_protein|mol2

> <Gold.PLP.Fitness>
40.3179

> <Gold.PLP.PLP>
-30.1105

> <Gold.PLP.part.hbond>
-3.0000

> <Gold.PLP.part.metal>
0.0000

> <Gold.PLP.part.buried>
0.7377

> <Gold.PLP.part.nonpolar>
-30.0888

> <Gold.PLP.part.repulsive>
2.6496

> <Gold.PLP.ligand.clash>
0.0000

> <Gold.PLP.ligand.torsion>
0.7479

> <Gold.PLP.Chemscore.Hbond>
2.8960

> <Gold.PLP.Chemscore.CHOScore>
1.0000

> <Gold.PLP.Chemscore.Metal>
0.0000

> <Gold.Chemscore.Hbonds>
donor molecule, donor type, donor heavy atom, donor atom, acceptor molecule, acceptor atom, score
      L1  H    10    33       P1  7948  1.00
      P1  H  7954  7966       L1    18  0.90
      P1  H  7989  7998       L1     8  1.00
      L1  C    17    37       P1  7921  1.00

> <Gold.PLP.Chemscore.Internal.Correction>
0.0150

> <Gold.Rescore>
     Score         DG    S(hbond)    S(metal)    S(lipo)     H(rot)  DE(clash)    DE(int)     intcor
     13.05     -15.80       2.70        0.00      73.80       2.86       2.06       0.68       ----

> <Gold.Chemscore.Fitness>
13.0542

> <Gold.Chemscore.DG>
-15.7995

> <Gold.Chemscore.ZeroCoef>
-5.4800

> <Gold.Chemscore.Hbond>
2.6982

> <Gold.Chemscore.Metal>
0.0000

> <Gold.Chemscore.Lipo>
73.7989

> <Gold.Chemscore.Internal_Hbond>
0.0000

> <Gold.Chemscore.DEClash>
2.0604

> <Gold.Chemscore.DEInternal>
0.6849

> <Gold.Chemscore.Rot>
2.8621

> <Gold.Chemscore.Internal.Correction>
   9.000000E+99

> <Gold.Chemscore.Hbonds>
donor molecule, donor type, donor heavy atom, donor atom, acceptor molecule, acceptor atom, score
      L1  H    10    33       P1  7948  0.99
      P1  H  7954  7966       L1    18  0.53
      P1  H  7989  7998       L1     8  0.96

> <Gold.Chemscore.Hbond.Weighted>
-9.0120

> <Gold.Chemscore.Metal.Weighted>
-0.0000

> <Gold.Chemscore.Lipo.Weighted>
-8.6345

> <Gold.Chemscore.Internal_Hbond.Weighted>
0.0000

> <Gold.Chemscore.DEClash.Weighted>
2.0604

> <Gold.Chemscore.DEInternal.Weighted>
0.6849

> <Gold.Chemscore.Rot.Weighted>
7.3270

> <Gold.Chemscore.Internal.Correction.Weighted>
   9.000000E+99

> <Gold.Protein.RotatedTorsions>
[ 6907 6896 6895 6894 ] final -174.05 input  -60.11 | X-H torsion
[ 7974 7965 7964 7962 ] final -123.65 input  175.53 | X-H torsion
[ 8008 7997 7996 7995 ] final   52.84 input   59.86 | X-H torsion
[ 10167 10162 10161 10158 ] final   90.04 input  -65.29 | X-H torsion
[ 10718 10713 10712 10709 ] final  -84.56 input   66.30 | X-H torsion
[ 10763 10752 10751 10750 ] final   39.53 input  -60.55 | X-H torsion
[ 11005 11000 10999 10996 ] final   54.39 input  -57.11 | X-H torsion

> <Gold.Protein.ActiveResidues>
 VAL166  LYS551  ARG553  GLY616  TRP617  ASP618  TYR619  PRO620  LYS621  CYS622 
 ASP623  PHE694  ASN695  SER759  ASP760  ASP761  ALA762  ILE779  LEU786  VAL792 
 PHE793  MET794  SER795  GLU796  ALA797  LYS798  CYS799  TRP800  GLU811  SER814 

> <Gold.Protein.RotatedAtoms>
  151.5660  133.3396  159.2980 H   0  0  0  0  0  0  0  0  0  0  0  0  # atno 6907 bound_to 6896
  150.8395  134.7684  159.6931 H   0  0  0  0  0  0  0  0  0  0  0  0  # atno 6908 bound_to 6896
  152.4465  134.5491  159.9913 H   0  0  0  0  0  0  0  0  0  0  0  0  # atno 6909 bound_to 6896
  145.0165  140.7951  143.4407 H   0  0  0  0  0  0  0  0  0  0  0  0  # atno 7974 bound_to 7965
  155.4585  140.3461  155.4309 H   0  0  0  0  0  0  0  0  0  0  0  0  # atno 8008 bound_to 7997
  156.1176  140.1478  156.9280 H   0  0  0  0  0  0  0  0  0  0  0  0  # atno 8009 bound_to 7997
  154.4800  140.0873  156.7333 H   0  0  0  0  0  0  0  0  0  0  0  0  # atno 8010 bound_to 7997
  139.8512  144.6592  150.9167 H   0  0  0  0  0  0  0  0  0  0  0  0  # atno 10167 bound_to 10162
  156.0005  130.4702  150.4429 H   0  0  0  0  0  0  0  0  0  0  0  0  # atno 10718 bound_to 10713
  152.9964  135.6218  154.2481 H   0  0  0  0  0  0  0  0  0  0  0  0  # atno 10763 bound_to 10752
  154.2220  135.2795  155.2923 H   0  0  0  0  0  0  0  0  0  0  0  0  # atno 10764 bound_to 10752
  154.5521  135.5730  153.6989 H   0  0  0  0  0  0  0  0  0  0  0  0  # atno 10765 bound_to 10752
  140.0690  134.5495  155.9067 H   0  0  0  0  0  0  0  0  0  0  0  0  # atno 11005 bound_to 11000
  145.1953  139.2280  143.5221 LP  0  0  0  0  0  0  0  0  0  0  0  0  # atno 17320 bound_to 7965
  146.3478  140.1758  142.8589 LP  0  0  0  0  0  0  0  0  0  0  0  0  # atno 17321 bound_to 7965
  140.7787  143.3825  151.1451 LP  0  0  0  0  0  0  0  0  0  0  0  0  # atno 17342 bound_to 10162
  139.7463  143.8846  152.3064 LP  0  0  0  0  0  0  0  0  0  0  0  0  # atno 17343 bound_to 10162
  157.2468  131.0537  151.2403 LP  0  0  0  0  0  0  0  0  0  0  0  0  # atno 17370 bound_to 10713
  157.3566  130.7110  149.6475 LP  0  0  0  0  0  0  0  0  0  0  0  0  # atno 17371 bound_to 10713
  141.2004  133.6612  156.5897 LP  0  0  0  0  0  0  0  0  0  0  0  0  # atno 17394 bound_to 11000
  140.3655  134.7651  157.4563 LP  0  0  0  0  0  0  0  0  0  0  0  0  # atno 17395 bound_to 11000

$$$$
