AV-unprocessed.smi:3116|AV-procd|sdf|11862|dock5
  -GOLD-   2272017243D 1   1.00000     0.00000
 Structure written by MMmdl.
 34 34  0  0  0  0  0  0  0  0  2 V2000
  146.5985  138.3651  151.2639 C   0  0  0  0  0  0  0  0  0  0  0  0
  146.8604  138.6262  152.7585 C   0  0  2  0  0  0  0  0  0  0  0  0
  148.2998  138.8655  153.0148 N   0  3  0  0  0  0  0  0  0  0  0  0
  148.6207  139.6227  154.2467 C   0  0  2  0  0  0  0  0  0  0  0  0
  147.9879  141.0232  154.1506 C   0  0  0  0  0  0  0  0  0  0  0  0
  150.1564  139.6597  154.4663 C   0  0  2  0  0  0  0  0  0  0  0  0
  150.7886  138.2544  154.4726 C   0  0  0  0  0  0  0  0  0  0  0  0
  150.5196  140.3754  155.6828 N   0  0  0  0  0  0  0  0  0  0  0  0
  150.2444  141.6853  156.0175 C   0  0  0  0  0  0  0  0  0  0  0  0
  150.7829  141.9137  157.2512 C   0  0  0  0  0  0  0  0  0  0  0  0
  151.3794  140.6689  157.5957 C   0  0  0  0  0  0  0  0  0  0  0  0
  151.2213  139.7511  156.6559 N   0  0  0  0  0  0  0  0  0  0  0  0
  146.3550  137.4462  153.5974 C   0  0  0  0  0  0  0  0  0  0  0  0
  146.9215  136.2571  153.3761 N   0  0  0  0  0  0  0  0  0  0  0  0
  145.4746  137.6023  154.4418 O   0  0  0  0  0  0  0  0  0  0  0  0
  145.5413  138.1755  151.0736 H   0  0  0  0  0  0  0  0  0  0  0  0
  147.1596  137.5008  150.9062 H   0  0  0  0  0  0  0  0  0  0  0  0
  146.8847  139.2202  150.6514 H   0  0  0  0  0  0  0  0  0  0  0  0
  146.3070  139.5125  153.0742 H   0  0  0  0  0  0  0  0  0  0  0  0
  148.7476  137.9635  153.0900 H   0  0  0  0  0  0  0  0  0  0  0  0
  148.1689  139.1238  155.1055 H   0  0  0  0  0  0  0  0  0  0  0  0
  148.1096  141.5882  155.0749 H   0  0  0  0  0  0  0  0  0  0  0  0
  146.9164  140.9559  153.9586 H   0  0  0  0  0  0  0  0  0  0  0  0
  148.4337  141.6050  153.3431 H   0  0  0  0  0  0  0  0  0  0  0  0
  150.5993  140.2145  153.6373 H   0  0  0  0  0  0  0  0  0  0  0  0
  150.6500  137.7480  153.5172 H   0  0  0  0  0  0  0  0  0  0  0  0
  150.3532  137.6229  155.2478 H   0  0  0  0  0  0  0  0  0  0  0  0
  151.8624  138.3095  154.6552 H   0  0  0  0  0  0  0  0  0  0  0  0
  149.6933  142.3394  155.3580 H   0  0  0  0  0  0  0  0  0  0  0  0
  150.7562  142.8310  157.8205 H   0  0  0  0  0  0  0  0  0  0  0  0
  151.9189  140.4072  158.4939 H   0  0  0  0  0  0  0  0  0  0  0  0
  146.6206  135.4453  153.8959 H   0  0  0  0  0  0  0  0  0  0  0  0
  147.6484  136.1714  152.6799 H   0  0  0  0  0  0  0  0  0  0  0  0
  148.6928  139.3447  152.2173 H   0  0  0  0  0  0  0  0  0  0  0  0
  1  2  1  0  0  0  0
  1 16  1  0  0  0  0
  1 17  1  0  0  0  0
  1 18  1  0  0  0  0
  2  3  1  0  0  0  0
  2 13  1  0  0  0  0
  2 19  1  0  0  0  0
  3  4  1  0  0  0  0
  3 20  1  0  0  0  0
  3 34  1  0  0  0  0
  4  5  1  0  0  0  0
  4  6  1  0  0  0  0
  4 21  1  0  0  0  0
  5 22  1  0  0  0  0
  5 23  1  0  0  0  0
  5 24  1  0  0  0  0
  6  7  1  0  0  0  0
  6  8  1  0  0  0  0
  6 25  1  0  0  0  0
  7 26  1  0  0  0  0
  7 27  1  0  0  0  0
  7 28  1  0  0  0  0
  8 12  1  0  0  0  0
  8  9  1  0  0  0  0
  9 10  2  0  0  0  0
  9 29  1  0  0  0  0
 10 11  1  0  0  0  0
 10 30  1  0  0  0  0
 11 12  2  0  0  0  0
 11 31  1  0  0  0  0
 13 14  1  0  0  0  0
 13 15  2  0  0  0  0
 14 32  1  0  0  0  0
 14 33  1  0  0  0  0
M  CHG  1   3   1
M  END
> <s_m_source_file>
AV-unprocessed.smi

> <i_m_source_file_index>
3116

> <i_lp_mmshare_version>
43012

> <i_f3d_flags>
0

> <s_epik_input>
W05IMl1DKD1PKVtDQEhdKFtDSDNdKVtOSF1bQ0BIXShbQ0gzXSlbQ0BIXShbQ0gzXSluMVtjSF1bY0hdW2NIXW4x

> <s_epik_cmdline>
J2VwaWtfcHl0aG9uJywgJy1waCcsICc3LjAnLCAnLXRuJywgJzgnLCAnLW1hJywgJzIwMCcsICctbWV0YWxfYmluZGluZycsICctaW1hZScsICc8aW5maWxlLm1hZT4nLCAnLW9tYWUnLCAnPG91dGZpbGUubWFlPic=

> <r_lp_tautomer_probability>
1

> <r_epik_Ionization_Penalty>
0.15658

> <r_epik_Ionization_Penalty_Charging>
0.156568

> <r_epik_Ionization_Penalty_Neutral>
1.19778e-05

> <r_epik_State_Penalty>
0.145866

> <r_epik_Charging_Adjusted_Penalty>
0.302434

> <i_epik_Tot_Q>
1

> <i_epik_Tot_abs_Q>
1

> <r_epik_Metal_State_Penalty>
0.146064

> <b_epik_Metal_Only>
0

> <s_lp_Force_Field>
OPLS_2005

> <r_lp_Energy>
9.5332

> <b_lp_Chiralities_Consistent>
1

> <s_lp_Variant>
AV-unprocessed.smi:3116-1

> <Gold.Version>
5.8.1

> <Gold.Id.Protein>
6NUR|6NUR_protein|mol2

> <Gold.PLP.Fitness>
41.7614

> <Gold.PLP.PLP>
-29.1578

> <Gold.PLP.part.hbond>
-2.9280

> <Gold.PLP.part.metal>
0.0000

> <Gold.PLP.part.buried>
0.7000

> <Gold.PLP.part.nonpolar>
-27.4935

> <Gold.PLP.part.repulsive>
0.1565

> <Gold.PLP.ligand.clash>
0.0000

> <Gold.PLP.ligand.torsion>
0.2697

> <Gold.PLP.Chemscore.Hbond>
3.3693

> <Gold.PLP.Chemscore.CHOScore>
0.9831

> <Gold.PLP.Chemscore.Metal>
0.0000

> <Gold.Chemscore.Hbonds>
donor molecule, donor type, donor heavy atom, donor atom, acceptor molecule, acceptor atom, score
      L1  H     3    20       P1  7948  1.15
      L1  H     3    34       P1  7957  1.00
      L1  H    14    33       P1  7948  1.00
      L1  C     9    29       P1  8028  1.00

> <Gold.PLP.Chemscore.Internal.Correction>
0.0861

> <Gold.Rescore>
     Score         DG    S(hbond)    S(metal)    S(lipo)     H(rot)  DE(clash)    DE(int)     intcor
     14.26     -15.46       2.57        0.00      65.45       2.45       0.60       0.60       ----

> <Gold.Chemscore.Fitness>
14.2581

> <Gold.Chemscore.DG>
-15.4630

> <Gold.Chemscore.ZeroCoef>
-5.4800

> <Gold.Chemscore.Hbond>
2.5713

> <Gold.Chemscore.Metal>
0.0000

> <Gold.Chemscore.Lipo>
65.4522

> <Gold.Chemscore.Internal_Hbond>
0.0000

> <Gold.Chemscore.DEClash>
0.6032

> <Gold.Chemscore.DEInternal>
0.6017

> <Gold.Chemscore.Rot>
2.4465

> <Gold.Chemscore.Internal.Correction>
   9.000000E+99

> <Gold.Chemscore.Hbonds>
donor molecule, donor type, donor heavy atom, donor atom, acceptor molecule, acceptor atom, score
      L1  H     3    20       P1  7948  0.57
      L1  H     3    34       P1  7957  0.95
      L1  H    14    33       P1  7948  0.93

> <Gold.Chemscore.Hbond.Weighted>
-8.5882

> <Gold.Chemscore.Metal.Weighted>
-0.0000

> <Gold.Chemscore.Lipo.Weighted>
-7.6579

> <Gold.Chemscore.Internal_Hbond.Weighted>
0.0000

> <Gold.Chemscore.DEClash.Weighted>
0.6032

> <Gold.Chemscore.DEInternal.Weighted>
0.6017

> <Gold.Chemscore.Rot.Weighted>
6.2631

> <Gold.Chemscore.Internal.Correction.Weighted>
   9.000000E+99

> <Gold.Protein.RotatedTorsions>
[ 6907 6896 6895 6894 ] final   34.40 input  -60.11 | X-H torsion
[ 7974 7965 7964 7962 ] final   31.80 input  175.53 | X-H torsion
[ 8008 7997 7996 7995 ] final  150.28 input   59.86 | X-H torsion
[ 10167 10162 10161 10158 ] final   51.47 input  -65.29 | X-H torsion
[ 10718 10713 10712 10709 ] final -119.49 input   66.30 | X-H torsion
[ 10763 10752 10751 10750 ] final -102.98 input  -60.55 | X-H torsion
[ 11005 11000 10999 10996 ] final   95.95 input  -57.11 | X-H torsion

> <Gold.Protein.ActiveResidues>
 VAL166  LYS551  ARG553  GLY616  TRP617  ASP618  TYR619  PRO620  LYS621  CYS622 
 ASP623  PHE694  ASN695  SER759  ASP760  ASP761  ALA762  ILE779  LEU786  VAL792 
 PHE793  MET794  SER795  GLU796  ALA797  LYS798  CYS799  TRP800  GLU811  SER814 

> <Gold.Protein.RotatedAtoms>
  152.1018  134.9336  160.0569 H   0  0  0  0  0  0  0  0  0  0  0  0  # atno 6907 bound_to 6896
  152.0547  133.4030  159.4400 H   0  0  0  0  0  0  0  0  0  0  0  0  # atno 6908 bound_to 6896
  150.6840  134.3188  159.4821 H   0  0  0  0  0  0  0  0  0  0  0  0  # atno 6909 bound_to 6896
  146.1527  139.6609  142.9088 H   0  0  0  0  0  0  0  0  0  0  0  0  # atno 7974 bound_to 7965
  156.2722  140.2079  156.5993 H   0  0  0  0  0  0  0  0  0  0  0  0  # atno 8008 bound_to 7997
  154.6920  140.0529  157.0396 H   0  0  0  0  0  0  0  0  0  0  0  0  # atno 8009 bound_to 7997
  155.0854  140.3191  155.4592 H   0  0  0  0  0  0  0  0  0  0  0  0  # atno 8010 bound_to 7997
  140.2615  144.3367  150.6316 H   0  0  0  0  0  0  0  0  0  0  0  0  # atno 10167 bound_to 10162
  156.1185  130.6304  150.9423 H   0  0  0  0  0  0  0  0  0  0  0  0  # atno 10718 bound_to 10713
  154.7774  135.4840  153.9773 H   0  0  0  0  0  0  0  0  0  0  0  0  # atno 10763 bound_to 10752
  153.1447  135.6779  153.8980 H   0  0  0  0  0  0  0  0  0  0  0  0  # atno 10764 bound_to 10752
  153.8643  135.3151  155.3417 H   0  0  0  0  0  0  0  0  0  0  0  0  # atno 10765 bound_to 10752
  139.8785  134.8926  156.4087 H   0  0  0  0  0  0  0  0  0  0  0  0  # atno 11005 bound_to 11000
  145.4784  141.0437  143.2659 LP  0  0  0  0  0  0  0  0  0  0  0  0  # atno 17320 bound_to 7965
  144.7924  139.6302  143.7107 LP  0  0  0  0  0  0  0  0  0  0  0  0  # atno 17321 bound_to 7965
  140.5962  143.2167  151.7160 LP  0  0  0  0  0  0  0  0  0  0  0  0  # atno 17342 bound_to 10162
  139.5015  144.3864  152.0324 LP  0  0  0  0  0  0  0  0  0  0  0  0  # atno 17343 bound_to 10162
  157.6368  131.0915  150.8331 LP  0  0  0  0  0  0  0  0  0  0  0  0  # atno 17370 bound_to 10713
  156.8431  130.5055  149.5319 LP  0  0  0  0  0  0  0  0  0  0  0  0  # atno 17371 bound_to 10713
  140.9215  133.7641  155.9913 LP  0  0  0  0  0  0  0  0  0  0  0  0  # atno 17394 bound_to 11000
  140.8433  134.3040  157.5304 LP  0  0  0  0  0  0  0  0  0  0  0  0  # atno 17395 bound_to 11000

$$$$
