AV-unprocessed.smi:1880|AV-procd|sdf|7635|dock8
  -GOLD-   22720 9363D 1   1.00000     0.00000
 Structure written by MMmdl.
 36 38  0  0  0  0  0  0  0  0  1 V2000
  150.4845  139.6256  153.8674 O   0  0  0  0  0  0  0  0  0  0  0  0
  149.4821  140.1111  154.7391 C   0  0  2  0  0  0  0  0  0  0  0  0
  148.2243  140.4114  153.9098 C   0  0  0  0  0  0  0  0  0  0  0  0
  147.9050  139.2653  153.1392 O   0  0  0  0  0  0  0  0  0  0  0  0
  146.8290  139.4853  152.2443 C   0  0  0  0  0  0  0  0  0  0  0  0
  146.2583  138.1439  151.9343 C   0  0  0  0  0  0  0  0  0  0  0  0
  145.4860  137.2639  152.6410 C   0  0  0  0  0  0  0  0  0  0  0  0
  145.2625  136.1502  151.7850 C   0  0  0  0  0  0  0  0  0  0  0  0
  145.9170  136.4335  150.6200 C   0  0  0  0  0  0  0  0  0  0  0  0
  146.5301  137.6462  150.6947 O   0  0  0  0  0  0  0  0  0  0  0  0
  150.0113  141.3634  155.4642 C   0  0  0  0  0  0  0  0  0  0  0  0
  150.7860  141.0305  156.6468 N   0  0  0  0  0  0  0  0  0  0  0  0
  151.2560  139.8157  156.9887 C   0  0  0  0  0  0  0  0  0  0  0  0
  151.9533  139.7272  158.1177 N   0  0  0  0  0  0  0  0  0  0  0  0
  151.9355  141.0387  158.5603 C   0  0  0  0  0  0  0  0  0  0  0  0
  152.5051  141.6246  159.7131 C   0  0  0  0  0  0  0  0  0  0  0  0
  152.3570  143.0051  159.9609 C   0  0  0  0  0  0  0  0  0  0  0  0
  152.9105  143.5506  161.0699 F   0  0  0  0  0  0  0  0  0  0  0  0
  151.6372  143.8195  159.0614 C   0  0  0  0  0  0  0  0  0  0  0  0
  151.5002  145.1440  159.3071 F   0  0  0  0  0  0  0  0  0  0  0  0
  151.0605  143.2580  157.9060 C   0  0  0  0  0  0  0  0  0  0  0  0
  151.2111  141.8801  157.6627 C   0  0  0  0  0  0  0  0  0  0  0  0
  150.0918  139.4635  153.0229 H   0  0  0  0  0  0  0  0  0  0  0  0
  149.2546  139.3430  155.4798 H   0  0  0  0  0  0  0  0  0  0  0  0
  147.3846  140.6210  154.5745 H   0  0  0  0  0  0  0  0  0  0  0  0
  148.3666  141.2916  153.2797 H   0  0  0  0  0  0  0  0  0  0  0  0
  146.0713  140.1261  152.6980 H   0  0  0  0  0  0  0  0  0  0  0  0
  147.1802  139.9689  151.3315 H   0  0  0  0  0  0  0  0  0  0  0  0
  145.1240  137.4067  153.6484 H   0  0  0  0  0  0  0  0  0  0  0  0
  144.6944  135.2559  151.9947 H   0  0  0  0  0  0  0  0  0  0  0  0
  146.0423  135.9105  149.6833 H   0  0  0  0  0  0  0  0  0  0  0  0
  150.6298  141.9635  154.7956 H   0  0  0  0  0  0  0  0  0  0  0  0
  149.1802  141.9989  155.7724 H   0  0  0  0  0  0  0  0  0  0  0  0
  151.0784  138.9470  156.3713 H   0  0  0  0  0  0  0  0  0  0  0  0
  153.0589  141.0114  160.4084 H   0  0  0  0  0  0  0  0  0  0  0  0
  150.5128  143.8794  157.2132 H   0  0  0  0  0  0  0  0  0  0  0  0
  1  2  1  0  0  0  0
  1 23  1  0  0  0  0
  2  3  1  0  0  0  0
  2 11  1  0  0  0  0
  2 24  1  0  0  0  0
  3  4  1  0  0  0  0
  3 25  1  0  0  0  0
  3 26  1  0  0  0  0
  4  5  1  0  0  0  0
  5  6  1  0  0  0  0
  5 27  1  0  0  0  0
  5 28  1  0  0  0  0
  6 10  1  0  0  0  0
  6  7  2  0  0  0  0
  7  8  1  0  0  0  0
  7 29  1  0  0  0  0
  8  9  2  0  0  0  0
  8 30  1  0  0  0  0
  9 10  1  0  0  0  0
  9 31  1  0  0  0  0
 11 12  1  0  0  0  0
 11 32  1  0  0  0  0
 11 33  1  0  0  0  0
 12 22  1  0  0  0  0
 12 13  1  0  0  0  0
 13 14  2  0  0  0  0
 13 34  1  0  0  0  0
 14 15  1  0  0  0  0
 15 22  2  0  0  0  0
 15 16  1  0  0  0  0
 16 17  2  0  0  0  0
 16 35  1  0  0  0  0
 17 18  1  0  0  0  0
 17 19  1  0  0  0  0
 19 20  1  0  0  0  0
 19 21  2  0  0  0  0
 21 22  1  0  0  0  0
 21 36  1  0  0  0  0
M  END
> <s_m_source_file>
AV-unprocessed.smi

> <i_m_source_file_index>
1880

> <i_lp_mmshare_version>
43012

> <i_f3d_flags>
0

> <s_epik_input>
W2NIXTFjKEYpYyhGKVtjSF1jKGMxMiluKFtjSF1uMilbQ0gyXVtDQEhdKFtPSF0pW0NIMl1PW0NIMl1jM1tjSF1bY0hdW2NIXW8z

> <s_epik_cmdline>
J2VwaWtfcHl0aG9uJywgJy1waCcsICc3LjAnLCAnLXRuJywgJzgnLCAnLW1hJywgJzIwMCcsICctbWV0YWxfYmluZGluZycsICctaW1hZScsICc8aW5maWxlLm1hZT4nLCAnLW9tYWUnLCAnPG91dGZpbGUubWFlPic=

> <r_epik_Ionization_Penalty>
0.0152348

> <r_epik_Ionization_Penalty_Charging>
0

> <r_epik_Ionization_Penalty_Neutral>
0.0152348

> <r_epik_State_Penalty>
0.0119607

> <r_epik_Charging_Adjusted_Penalty>
0.0119607

> <i_epik_Tot_Q>
0

> <i_epik_Tot_abs_Q>
0

> <r_epik_Metal_State_Penalty>
1.20821e-05

> <b_epik_Metal_Only>
0

> <s_lp_Force_Field>
OPLS_2005

> <r_lp_Energy>
7.92035

> <b_lp_Chiralities_Consistent>
1

> <s_lp_Variant>
AV-unprocessed.smi:1880-1

> <Gold.Version>
5.8.1

> <Gold.Id.Protein>
6NUR|6NUR_protein|mol2

> <Gold.PLP.Fitness>
54.7207

> <Gold.PLP.PLP>
-44.1256

> <Gold.PLP.part.hbond>
-3.0000

> <Gold.PLP.part.metal>
0.0000

> <Gold.PLP.part.buried>
-2.1570

> <Gold.PLP.part.nonpolar>
-43.6870

> <Gold.PLP.part.repulsive>
4.9705

> <Gold.PLP.ligand.clash>
0.0000

> <Gold.PLP.ligand.torsion>
0.7350

> <Gold.PLP.Chemscore.Hbond>
3.0000

> <Gold.PLP.Chemscore.CHOScore>
1.0000

> <Gold.PLP.Chemscore.Metal>
0.0000

> <Gold.Chemscore.Hbonds>
donor molecule, donor type, donor heavy atom, donor atom, acceptor molecule, acceptor atom, score
      L1  H     1    23       P1  7957  1.00
      P1  H  7954  7966       L1    10  1.00
      P1  H  7989  7998       L1     1  1.00
      L1  C     9    31       P1  7921  1.00

> <Gold.PLP.Chemscore.Internal.Correction>
0.0650

> <Gold.Rescore>
     Score         DG    S(hbond)    S(metal)    S(lipo)     H(rot)  DE(clash)    DE(int)     intcor
     13.60     -18.30       2.05        0.00     113.38       2.85       4.04       0.66       ----

> <Gold.Chemscore.Fitness>
13.5990

> <Gold.Chemscore.DG>
-18.2953

> <Gold.Chemscore.ZeroCoef>
-5.4800

> <Gold.Chemscore.Hbond>
2.0510

> <Gold.Chemscore.Metal>
0.0000

> <Gold.Chemscore.Lipo>
113.3796

> <Gold.Chemscore.Internal_Hbond>
0.0000

> <Gold.Chemscore.DEClash>
4.0367

> <Gold.Chemscore.DEInternal>
0.6597

> <Gold.Chemscore.Rot>
2.8518

> <Gold.Chemscore.Internal.Correction>
   9.000000E+99

> <Gold.Chemscore.Hbonds>
donor molecule, donor type, donor heavy atom, donor atom, acceptor molecule, acceptor atom, score
      L1  H     1    23       P1  7957  0.90
      P1  H  7954  7966       L1    10  0.93
      P1  H  7989  7998       L1     1  0.24

> <Gold.Chemscore.Hbond.Weighted>
-6.8504

> <Gold.Chemscore.Metal.Weighted>
-0.0000

> <Gold.Chemscore.Lipo.Weighted>
-13.2654

> <Gold.Chemscore.Internal_Hbond.Weighted>
0.0000

> <Gold.Chemscore.DEClash.Weighted>
4.0367

> <Gold.Chemscore.DEInternal.Weighted>
0.6597

> <Gold.Chemscore.Rot.Weighted>
7.3005

> <Gold.Chemscore.Internal.Correction.Weighted>
   9.000000E+99

> <Gold.Protein.RotatedTorsions>
[ 6907 6896 6895 6894 ] final  -84.97 input  -60.11 | X-H torsion
[ 7974 7965 7964 7962 ] final  -40.33 input  175.53 | X-H torsion
[ 8008 7997 7996 7995 ] final   34.07 input   59.86 | X-H torsion
[ 10167 10162 10161 10158 ] final   32.73 input  -65.29 | X-H torsion
[ 10718 10713 10712 10709 ] final  143.06 input   66.30 | X-H torsion
[ 10763 10752 10751 10750 ] final  -65.23 input  -60.55 | X-H torsion
[ 11005 11000 10999 10996 ] final    6.08 input  -57.11 | X-H torsion

> <Gold.Protein.ActiveResidues>
 VAL166  LYS551  ARG553  GLY616  TRP617  ASP618  TYR619  PRO620  LYS621  CYS622 
 ASP623  PHE694  ASN695  SER759  ASP760  ASP761  ALA762  ILE779  LEU786  VAL792 
 PHE793  MET794  SER795  GLU796  ALA797  LYS798  CYS799  TRP800  GLU811  SER814 

> <Gold.Protein.RotatedAtoms>
  150.6873  134.3277  159.4813 H   0  0  0  0  0  0  0  0  0  0  0  0  # atno 6907 bound_to 6896
  152.1145  134.9247  160.0574 H   0  0  0  0  0  0  0  0  0  0  0  0  # atno 6908 bound_to 6896
  152.0477  133.3970  159.4401 H   0  0  0  0  0  0  0  0  0  0  0  0  # atno 6909 bound_to 6896
  146.0315  140.6726  142.9130 H   0  0  0  0  0  0  0  0  0  0  0  0  # atno 7974 bound_to 7965
  155.1489  140.3273  155.4435 H   0  0  0  0  0  0  0  0  0  0  0  0  # atno 8008 bound_to 7997
  156.2581  140.1980  156.6551 H   0  0  0  0  0  0  0  0  0  0  0  0  # atno 8009 bound_to 7997
  154.6488  140.0561  156.9918 H   0  0  0  0  0  0  0  0  0  0  0  0  # atno 8010 bound_to 7997
  140.4471  144.1102  150.6184 H   0  0  0  0  0  0  0  0  0  0  0  0  # atno 10167 bound_to 10162
  157.3733  131.0982  151.0807 H   0  0  0  0  0  0  0  0  0  0  0  0  # atno 10718 bound_to 10713
  154.3420  135.6154  153.5601 H   0  0  0  0  0  0  0  0  0  0  0  0  # atno 10763 bound_to 10752
  152.9803  135.5772  154.4842 H   0  0  0  0  0  0  0  0  0  0  0  0  # atno 10764 bound_to 10752
  154.4548  135.2854  155.1733 H   0  0  0  0  0  0  0  0  0  0  0  0  # atno 10765 bound_to 10752
  140.5635  134.0170  155.7981 H   0  0  0  0  0  0  0  0  0  0  0  0  # atno 11005 bound_to 11000
  144.7032  140.3743  143.7139 LP  0  0  0  0  0  0  0  0  0  0  0  0  # atno 17320 bound_to 7965
  145.7034  139.1666  143.2580 LP  0  0  0  0  0  0  0  0  0  0  0  0  # atno 17321 bound_to 7965
  140.4250  143.2594  151.9667 LP  0  0  0  0  0  0  0  0  0  0  0  0  # atno 17342 bound_to 10162
  139.4793  144.5796  151.7954 LP  0  0  0  0  0  0  0  0  0  0  0  0  # atno 17343 bound_to 10162
  157.1903  130.6349  149.5702 LP  0  0  0  0  0  0  0  0  0  0  0  0  # atno 17370 bound_to 10713
  155.9760  130.4724  150.6498 LP  0  0  0  0  0  0  0  0  0  0  0  0  # atno 17371 bound_to 10713
  141.1100  133.9632  157.2928 LP  0  0  0  0  0  0  0  0  0  0  0  0  # atno 17394 bound_to 11000
  139.9396  135.0192  156.8666 LP  0  0  0  0  0  0  0  0  0  0  0  0  # atno 17395 bound_to 11000

$$$$
