AV-unprocessed.smi:103|AV-procd|sdf|988|dock1
  -GOLD-   2262017563D 1   1.00000     0.00000
 Structure written by MMmdl.
 53 55  0  0  0  0  0  0  0  0  1 V2000
  147.4727  134.7708  160.9685 C   0  0  0  0  0  0  0  0  0  0  0  0
  148.0296  136.1363  160.5888 C   0  0  0  0  0  0  0  0  0  0  0  0
  147.7505  137.1482  161.2321 O   0  0  0  0  0  0  0  0  0  0  0  0
  148.8276  136.0797  159.5135 O   0  0  0  0  0  0  0  0  0  0  0  0
  149.5878  137.2168  159.1397 C   0  0  0  0  0  0  0  0  0  0  0  0
  148.9626  137.8660  157.8997 C   0  0  1  0  0  0  0  0  0  0  0  0
  147.7846  138.5635  158.2724 O   0  0  0  0  0  0  0  0  0  0  0  0
  147.5178  139.5662  157.3451 C   0  0  2  0  0  0  0  0  0  0  0  0
  146.4669  139.0674  156.3879 N   0  0  0  0  0  0  0  0  0  0  0  0
  145.1635  138.7016  156.6698 C   0  0  0  0  0  0  0  0  0  0  0  0
  144.3490  138.7922  158.2619 S   0  0  0  0  0  0  0  0  0  0  0  0
  143.4834  140.4116  158.1574 C   0  0  0  0  0  0  0  0  0  0  0  0
  143.3513  137.7111  158.2962 O   0  0  0  0  0  0  0  0  0  0  0  0
  145.4017  138.8669  159.2865 O   0  0  0  0  0  0  0  0  0  0  0  0
  144.4196  138.3400  155.6613 N   0  0  0  0  0  0  0  0  0  0  0  0
  145.3024  138.3696  154.5942 C   0  0  0  0  0  0  0  0  0  0  0  0
  145.1812  138.0643  153.2151 C   0  0  0  0  0  0  0  0  0  0  0  0
  144.0360  137.6488  152.6568 N   0  0  0  0  0  0  0  0  0  0  0  0
  146.2708  138.1939  152.4242 N   0  0  0  0  0  0  0  0  0  0  0  0
  147.4244  138.6036  152.9585 C   0  0  0  0  0  0  0  0  0  0  0  0
  147.6862  138.9292  154.2263 N   0  0  0  0  0  0  0  0  0  0  0  0
  146.5887  138.8026  155.0310 C   0  0  0  0  0  0  0  0  0  0  0  0
  148.8412  139.9285  156.6468 C   0  0  1  0  0  0  0  0  0  0  0  0
  149.2289  141.2605  156.9585 O   0  0  0  0  0  0  0  0  0  0  0  0
  149.4713  141.6096  158.2344 C   0  0  0  0  0  0  0  0  0  0  0  0
  149.7435  143.0997  158.3877 C   0  0  0  0  0  0  0  0  0  0  0  0
  149.4937  140.8480  159.2016 O   0  0  0  0  0  0  0  0  0  0  0  0
  149.8380  138.9426  157.2449 C   0  0  2  0  0  0  0  0  0  0  0  0
  150.6330  138.4010  156.1971 O   0  0  0  0  0  0  0  0  0  0  0  0
  151.3455  139.2046  155.3898 C   0  0  0  0  0  0  0  0  0  0  0  0
  152.2567  138.4224  154.4539 C   0  0  0  0  0  0  0  0  0  0  0  0
  151.3104  140.4349  155.3721 O   0  0  0  0  0  0  0  0  0  0  0  0
  146.9211  134.3407  160.1323 H   0  0  0  0  0  0  0  0  0  0  0  0
  146.7983  134.8552  161.8209 H   0  0  0  0  0  0  0  0  0  0  0  0
  148.2842  134.0930  161.2345 H   0  0  0  0  0  0  0  0  0  0  0  0
  149.5900  137.9243  159.9696 H   0  0  0  0  0  0  0  0  0  0  0  0
  150.6253  136.9446  158.9391 H   0  0  0  0  0  0  0  0  0  0  0  0
  148.6819  137.0959  157.1818 H   0  0  0  0  0  0  0  0  0  0  0  0
  147.0631  140.4230  157.8368 H   0  0  0  0  0  0  0  0  0  0  0  0
  142.9227  140.5826  159.0759 H   0  0  0  0  0  0  0  0  0  0  0  0
  142.7976  140.4021  157.3104 H   0  0  0  0  0  0  0  0  0  0  0  0
  144.2111  141.2106  158.0240 H   0  0  0  0  0  0  0  0  0  0  0  0
  143.2089  137.5412  153.2263 H   0  0  0  0  0  0  0  0  0  0  0  0
  144.0023  137.4424  151.6689 H   0  0  0  0  0  0  0  0  0  0  0  0
  148.2555  138.6844  152.2735 H   0  0  0  0  0  0  0  0  0  0  0  0
  148.7544  139.8080  155.5677 H   0  0  0  0  0  0  0  0  0  0  0  0
  148.8608  143.6759  158.1094 H   0  0  0  0  0  0  0  0  0  0  0  0
  150.5718  143.4019  157.7468 H   0  0  0  0  0  0  0  0  0  0  0  0
  150.0009  143.3379  159.4198 H   0  0  0  0  0  0  0  0  0  0  0  0
  150.4309  139.4512  158.0072 H   0  0  0  0  0  0  0  0  0  0  0  0
  151.6641  137.8289  153.7575 H   0  0  0  0  0  0  0  0  0  0  0  0
  152.8982  137.7504  155.0242 H   0  0  0  0  0  0  0  0  0  0  0  0
  152.8897  139.1000  153.8804 H   0  0  0  0  0  0  0  0  0  0  0  0
  1  2  1  0  0  0  0
  1 33  1  0  0  0  0
  1 34  1  0  0  0  0
  1 35  1  0  0  0  0
  2  3  2  0  0  0  0
  2  4  1  0  0  0  0
  4  5  1  0  0  0  0
  5  6  1  0  0  0  0
  5 36  1  0  0  0  0
  5 37  1  0  0  0  0
  6 28  1  0  0  0  0
  6  7  1  0  0  0  0
  6 38  1  0  0  0  0
  7  8  1  0  0  0  0
  8  9  1  0  0  0  0
  8 23  1  0  0  0  0
  8 39  1  0  0  0  0
  9 22  1  0  0  0  0
  9 10  1  0  0  0  0
 10 11  1  0  0  0  0
 10 15  2  0  0  0  0
 11 12  1  0  0  0  0
 11 13  2  0  0  0  0
 11 14  2  0  0  0  0
 12 40  1  0  0  0  0
 12 41  1  0  0  0  0
 12 42  1  0  0  0  0
 15 16  1  0  0  0  0
 16 22  2  0  0  0  0
 16 17  1  0  0  0  0
 17 18  1  0  0  0  0
 17 19  2  0  0  0  0
 18 43  1  0  0  0  0
 18 44  1  0  0  0  0
 19 20  1  0  0  0  0
 20 21  2  0  0  0  0
 20 45  1  0  0  0  0
 21 22  1  0  0  0  0
 23 24  1  0  0  0  0
 23 28  1  0  0  0  0
 23 46  1  0  0  0  0
 24 25  1  0  0  0  0
 25 26  1  0  0  0  0
 25 27  2  0  0  0  0
 26 47  1  0  0  0  0
 26 48  1  0  0  0  0
 26 49  1  0  0  0  0
 28 29  1  0  0  0  0
 28 50  1  0  0  0  0
 29 30  1  0  0  0  0
 30 31  1  0  0  0  0
 30 32  2  0  0  0  0
 31 51  1  0  0  0  0
 31 52  1  0  0  0  0
 31 53  1  0  0  0  0
M  END
> <s_m_source_file>
AV-unprocessed.smi

> <i_m_source_file_index>
103

> <i_lp_mmshare_version>
43012

> <i_f3d_flags>
0

> <s_epik_input>
W0NIM11DKD1PKU9bQ0gyXVtDQEBIXTFPW0NASF0oW0NAQEhdKE9DKD1PKVtDSDNdKVtDQEhdMU9DKD1PKVtDSDNdKW4oYyhuMilTKD1PKSg9TylbQ0gzXSljKGMyMyluW2NIXW5jM1tOSDJd

> <s_epik_cmdline>
J2VwaWtfcHl0aG9uJywgJy1waCcsICc3LjAnLCAnLXRuJywgJzgnLCAnLW1hJywgJzIwMCcsICctbWV0YWxfYmluZGluZycsICctaW1hZScsICc8aW5maWxlLm1hZT4nLCAnLW9tYWUnLCAnPG91dGZpbGUubWFlPic=

> <r_lp_tautomer_probability>
1

> <r_epik_Ionization_Penalty>
1.51338e-05

> <r_epik_Ionization_Penalty_Charging>
0

> <r_epik_Ionization_Penalty_Neutral>
1.51338e-05

> <r_epik_State_Penalty>
-0

> <r_epik_Charging_Adjusted_Penalty>
0

> <i_epik_Tot_Q>
0

> <i_epik_Tot_abs_Q>
0

> <r_epik_Metal_State_Penalty>
-0

> <b_epik_Metal_Only>
0

> <s_epik_Chemistry_Notes>
This compound has an ester and may undergo hydrolysis at high or low pH. This compound contains an acetal/aminal-like group ( X-CH(R)-Y where X, Y are N, S, or O) that may be acid/base labile, releasing an aldehyde.

> <s_lp_Force_Field>
OPLS_2005

> <r_lp_Energy>
13.207

> <b_lp_Chiralities_Consistent>
1

> <s_lp_Variant>
AV-unprocessed.smi:103-12

> <Gold.Version>
5.8.1

> <Gold.Id.Protein>
6NUR|6NUR_protein|mol2

> <Gold.PLP.Fitness>
38.1748

> <Gold.PLP.PLP>
-23.5046

> <Gold.PLP.part.hbond>
-9.1025

> <Gold.PLP.part.metal>
0.0000

> <Gold.PLP.part.buried>
3.3374

> <Gold.PLP.part.nonpolar>
-18.0375

> <Gold.PLP.part.repulsive>
0.6309

> <Gold.PLP.ligand.clash>
0.0000

> <Gold.PLP.ligand.torsion>
1.6638

> <Gold.PLP.Chemscore.Hbond>
3.6484

> <Gold.PLP.Chemscore.CHOScore>
1.5624

> <Gold.PLP.Chemscore.Metal>
0.0000

> <Gold.Chemscore.Hbonds>
donor molecule, donor type, donor heavy atom, donor atom, acceptor molecule, acceptor atom, score
      L1  H    18    44       P1 10171  0.47
      P1  H  6931  6943       L1     3  0.99
      P1  H  6934  6947       L1     3  0.83
      P1  H  7989  7998       L1    32  0.93
      L1  C    20    45       P1  7948  0.48
      L1  C    20    45       P1  7957  1.00

> <Gold.PLP.Chemscore.Internal.Correction>
2.3651

> <Gold.Rescore>
     Score         DG    S(hbond)    S(metal)    S(lipo)     H(rot)  DE(clash)    DE(int)     intcor
     -3.02     -10.29       3.56        0.00      32.24       4.25       2.62      10.69       ----

> <Gold.Chemscore.Fitness>
-3.0167

> <Gold.Chemscore.DG>
-10.2869

> <Gold.Chemscore.ZeroCoef>
-5.4800

> <Gold.Chemscore.Hbond>
3.5638

> <Gold.Chemscore.Metal>
0.0000

> <Gold.Chemscore.Lipo>
32.2438

> <Gold.Chemscore.Internal_Hbond>
0.0000

> <Gold.Chemscore.DEClash>
2.6173

> <Gold.Chemscore.DEInternal>
10.6862

> <Gold.Chemscore.Rot>
4.2456

> <Gold.Chemscore.Internal.Correction>
   9.000000E+99

> <Gold.Chemscore.Hbonds>
donor molecule, donor type, donor heavy atom, donor atom, acceptor molecule, acceptor atom, score
      L1  H    18    44       P1 10171  0.45
      P1  H  6931  6943       L1     3  0.92
      P1  H  6934  6947       L1     3  0.80
      P1  H  7989  7998       L1    32  0.40

> <Gold.Chemscore.Hbond.Weighted>
-11.9030

> <Gold.Chemscore.Metal.Weighted>
-0.0000

> <Gold.Chemscore.Lipo.Weighted>
-3.7725

> <Gold.Chemscore.Internal_Hbond.Weighted>
0.0000

> <Gold.Chemscore.DEClash.Weighted>
2.6173

> <Gold.Chemscore.DEInternal.Weighted>
10.6862

> <Gold.Chemscore.Rot.Weighted>
10.8687

> <Gold.Chemscore.Internal.Correction.Weighted>
   9.000000E+99

> <Gold.Protein.RotatedTorsions>
[ 6907 6896 6895 6894 ] final   38.04 input  -60.11 | X-H torsion
[ 7974 7965 7964 7962 ] final -140.57 input  175.53 | X-H torsion
[ 8008 7997 7996 7995 ] final  -60.99 input   59.86 | X-H torsion
[ 10167 10162 10161 10158 ] final  -64.07 input  -65.29 | X-H torsion
[ 10718 10713 10712 10709 ] final  -69.29 input   66.30 | X-H torsion
[ 10763 10752 10751 10750 ] final   86.34 input  -60.55 | X-H torsion
[ 11005 11000 10999 10996 ] final -150.63 input  -57.11 | X-H torsion

> <Gold.Protein.ActiveResidues>
 VAL166  LYS551  ARG553  GLY616  TRP617  ASP618  TYR619  PRO620  LYS621  CYS622 
 ASP623  PHE694  ASN695  SER759  ASP760  ASP761  ALA762  ILE779  LEU786  VAL792 
 PHE793  MET794  SER795  GLU796  ALA797  LYS798  CYS799  TRP800  GLU811  SER814 

> <Gold.Protein.RotatedAtoms>
  152.1511  134.8987  160.0547 H   0  0  0  0  0  0  0  0  0  0  0  0  # atno 6907 bound_to 6896
  152.0019  133.3823  159.4193 H   0  0  0  0  0  0  0  0  0  0  0  0  # atno 6908 bound_to 6896
  150.6876  134.3747  159.5051 H   0  0  0  0  0  0  0  0  0  0  0  0  # atno 6909 bound_to 6896
  144.8587  140.6184  143.5343 H   0  0  0  0  0  0  0  0  0  0  0  0  # atno 7974 bound_to 7965
  154.4426  140.1027  156.6361 H   0  0  0  0  0  0  0  0  0  0  0  0  # atno 8008 bound_to 7997
  155.5552  140.3486  155.4459 H   0  0  0  0  0  0  0  0  0  0  0  0  # atno 8009 bound_to 7997
  156.0500  140.1301  157.0050 H   0  0  0  0  0  0  0  0  0  0  0  0  # atno 8010 bound_to 7997
  140.5827  143.2329  151.6309 H   0  0  0  0  0  0  0  0  0  0  0  0  # atno 10167 bound_to 10162
  156.0463  130.4310  150.2125 H   0  0  0  0  0  0  0  0  0  0  0  0  # atno 10718 bound_to 10713
  153.1561  135.4584  154.9706 H   0  0  0  0  0  0  0  0  0  0  0  0  # atno 10763 bound_to 10752
  154.7862  135.3205  154.7883 H   0  0  0  0  0  0  0  0  0  0  0  0  # atno 10764 bound_to 10752
  153.8380  135.6932  153.4860 H   0  0  0  0  0  0  0  0  0  0  0  0  # atno 10765 bound_to 10752
  140.7381  134.3545  157.5153 H   0  0  0  0  0  0  0  0  0  0  0  0  # atno 11005 bound_to 11000
  145.4356  139.1543  143.3998 LP  0  0  0  0  0  0  0  0  0  0  0  0  # atno 17320 bound_to 7965
  146.2843  140.4474  142.8764 LP  0  0  0  0  0  0  0  0  0  0  0  0  # atno 17321 bound_to 7965
  139.5179  144.3301  152.0834 LP  0  0  0  0  0  0  0  0  0  0  0  0  # atno 17342 bound_to 10162
  140.2453  144.4226  150.6243 LP  0  0  0  0  0  0  0  0  0  0  0  0  # atno 17343 bound_to 10162
  157.0215  130.9980  151.3338 LP  0  0  0  0  0  0  0  0  0  0  0  0  # atno 17370 bound_to 10713
  157.5341  130.8077  149.7951 LP  0  0  0  0  0  0  0  0  0  0  0  0  # atno 17371 bound_to 10713
  139.8812  134.9063  156.2919 LP  0  0  0  0  0  0  0  0  0  0  0  0  # atno 17394 bound_to 11000
  140.9861  133.7237  156.0743 LP  0  0  0  0  0  0  0  0  0  0  0  0  # atno 17395 bound_to 11000

$$$$
