AV-unprocessed.smi:1115|AV-procd|sdf|4804|dock10
  -GOLD-   22720 3353D 1   1.00000     0.00000
 Structure written by MMmdl.
 52 53  0  0  0  0  0  0  0  0  3 V2000
  143.4817  132.5495  149.4902 C   0  0  0  0  0  0  0  0  0  0  0  0
  144.5167  132.7645  150.4930 N   0  0  0  0  0  0  0  0  0  0  0  0
  145.4912  131.7183  150.7821 C   0  0  0  0  0  0  0  0  0  0  0  0
  144.6110  134.0112  151.1484 C   0  0  0  0  0  0  0  0  0  0  0  0
  145.7533  134.4187  151.8802 C   0  0  0  0  0  0  0  0  0  0  0  0
  145.7714  135.6818  152.5063 C   0  0  0  0  0  0  0  0  0  0  0  0
  144.6500  136.5317  152.4083 C   0  0  0  0  0  0  0  0  0  0  0  0
  144.7244  137.8004  153.0456 N   0  0  0  0  0  0  0  0  0  0  0  0
  145.2645  138.1127  154.2364 C   0  0  0  0  0  0  0  0  0  0  0  0
  145.8425  137.3254  154.9848 O   0  0  0  0  0  0  0  0  0  0  0  0
  145.1163  139.4173  154.5087 N   0  0  0  0  0  0  0  0  0  0  0  0
  145.5810  140.0909  155.7211 C   0  0  0  0  0  0  0  0  0  0  0  0
  146.6680  141.1753  155.4527 C   0  0  0  0  0  0  0  0  0  0  0  0
  146.3181  141.9907  154.1820 C   0  0  0  0  0  0  0  0  0  0  0  0
  146.6897  142.1919  156.6213 C   0  0  0  0  0  0  0  0  0  0  0  0
  148.0337  140.5553  155.2966 N   0  3  0  0  0  0  0  0  0  0  0  0
  148.2045  139.6486  154.1257 C   0  0  0  0  0  0  0  0  0  0  0  0
  149.5680  138.9400  154.1824 C   0  0  0  0  0  0  0  0  0  0  0  0
  150.6072  139.9073  154.2212 O   0  0  0  0  0  0  0  0  0  0  0  0
  150.5180  140.7255  155.3787 C   0  0  0  0  0  0  0  0  0  0  0  0
  149.1875  141.4970  155.3692 C   0  0  0  0  0  0  0  0  0  0  0  0
  143.5362  136.0835  151.6584 C   0  0  0  0  0  0  0  0  0  0  0  0
  143.5619  134.8664  151.0739 N   0  3  0  0  0  0  0  0  0  0  0  0
  142.4919  132.7121  149.9182 H   0  0  0  0  0  0  0  0  0  0  0  0
  143.5113  131.5311  149.1022 H   0  0  0  0  0  0  0  0  0  0  0  0
  143.6162  133.2317  148.6501 H   0  0  0  0  0  0  0  0  0  0  0  0
  145.4423  131.4281  151.8319 H   0  0  0  0  0  0  0  0  0  0  0  0
  146.5021  132.0652  150.5647 H   0  0  0  0  0  0  0  0  0  0  0  0
  145.3080  130.8277  150.1806 H   0  0  0  0  0  0  0  0  0  0  0  0
  146.6205  133.7824  151.9728 H   0  0  0  0  0  0  0  0  0  0  0  0
  146.6447  135.9909  153.0621 H   0  0  0  0  0  0  0  0  0  0  0  0
  144.3476  138.5724  152.5153 H   0  0  0  0  0  0  0  0  0  0  0  0
  144.6336  139.9902  153.8317 H   0  0  0  0  0  0  0  0  0  0  0  0
  144.6971  140.5419  156.1706 H   0  0  0  0  0  0  0  0  0  0  0  0
  145.9344  139.3522  156.4408 H   0  0  0  0  0  0  0  0  0  0  0  0
  145.4467  142.6279  154.3360 H   0  0  0  0  0  0  0  0  0  0  0  0
  146.0776  141.3507  153.3331 H   0  0  0  0  0  0  0  0  0  0  0  0
  147.1405  142.6446  153.8893 H   0  0  0  0  0  0  0  0  0  0  0  0
  145.7842  142.7994  156.6445 H   0  0  0  0  0  0  0  0  0  0  0  0
  147.5325  142.8788  156.5349 H   0  0  0  0  0  0  0  0  0  0  0  0
  146.7509  141.7058  157.5946 H   0  0  0  0  0  0  0  0  0  0  0  0
  147.4322  138.8827  154.0955 H   0  0  0  0  0  0  0  0  0  0  0  0
  148.1359  140.2137  153.1960 H   0  0  0  0  0  0  0  0  0  0  0  0
  149.6308  138.2817  155.0505 H   0  0  0  0  0  0  0  0  0  0  0  0
  149.7026  138.3149  153.2993 H   0  0  0  0  0  0  0  0  0  0  0  0
  150.6099  140.1162  156.2794 H   0  0  0  0  0  0  0  0  0  0  0  0
  151.3554  141.4236  155.3812 H   0  0  0  0  0  0  0  0  0  0  0  0
  149.1733  142.1800  154.5197 H   0  0  0  0  0  0  0  0  0  0  0  0
  149.1546  142.1047  156.2712 H   0  0  0  0  0  0  0  0  0  0  0  0
  142.6306  136.6450  151.4873 H   0  0  0  0  0  0  0  0  0  0  0  0
  142.7418  134.5753  150.5413 H   0  0  0  0  0  0  0  0  0  0  0  0
  148.1340  139.9594  156.1061 H   0  0  0  0  0  0  0  0  0  0  0  0
  1  2  1  0  0  0  0
  1 24  1  0  0  0  0
  1 25  1  0  0  0  0
  1 26  1  0  0  0  0
  2  3  1  0  0  0  0
  2  4  1  0  0  0  0
  3 27  1  0  0  0  0
  3 28  1  0  0  0  0
  3 29  1  0  0  0  0
  4 23  1  0  0  0  0
  4  5  2  0  0  0  0
  5  6  1  0  0  0  0
  5 30  1  0  0  0  0
  6  7  2  0  0  0  0
  6 31  1  0  0  0  0
  7  8  1  0  0  0  0
  7 22  1  0  0  0  0
  8  9  1  0  0  0  0
  8 32  1  0  0  0  0
  9 10  2  0  0  0  0
  9 11  1  0  0  0  0
 11 12  1  0  0  0  0
 11 33  1  0  0  0  0
 12 13  1  0  0  0  0
 12 34  1  0  0  0  0
 12 35  1  0  0  0  0
 13 14  1  0  0  0  0
 13 15  1  0  0  0  0
 13 16  1  0  0  0  0
 14 36  1  0  0  0  0
 14 37  1  0  0  0  0
 14 38  1  0  0  0  0
 15 39  1  0  0  0  0
 15 40  1  0  0  0  0
 15 41  1  0  0  0  0
 16 21  1  0  0  0  0
 16 17  1  0  0  0  0
 16 52  1  0  0  0  0
 17 18  1  0  0  0  0
 17 42  1  0  0  0  0
 17 43  1  0  0  0  0
 18 19  1  0  0  0  0
 18 44  1  0  0  0  0
 18 45  1  0  0  0  0
 19 20  1  0  0  0  0
 20 21  1  0  0  0  0
 20 46  1  0  0  0  0
 20 47  1  0  0  0  0
 21 48  1  0  0  0  0
 21 49  1  0  0  0  0
 22 23  2  0  0  0  0
 22 50  1  0  0  0  0
 23 51  1  0  0  0  0
M  CHG  1  16   1
M  CHG  1  23   1
M  END
> <s_m_source_file>
AV-unprocessed.smi

> <i_m_source_file_index>
1115

> <i_lp_mmshare_version>
43012

> <i_f3d_flags>
0

> <s_epik_input>
W0NIM11OKFtDSDNdKWMxW2NIXVtjSF1jKFtjSF1uMSlbTkhdQyg9TylbTkhdW0NIMl1DKFtDSDNdKShbQ0gzXSlOMltDSDJdW0NIMl1PW0NIMl1bQ0gyXTI=

> <s_epik_cmdline>
J2VwaWtfcHl0aG9uJywgJy1waCcsICc3LjAnLCAnLXRuJywgJzgnLCAnLW1hJywgJzIwMCcsICctbWV0YWxfYmluZGluZycsICctaW1hZScsICc8aW5maWxlLm1hZT4nLCAnLW9tYWUnLCAnPG91dGZpbGUubWFlPic=

> <r_lp_tautomer_probability>
0.999994

> <r_epik_Ionization_Penalty>
0.90424

> <r_epik_Ionization_Penalty_Charging>
0.90422

> <r_epik_Ionization_Penalty_Neutral>
2.023e-05

> <r_epik_State_Penalty>
0.905868

> <r_epik_Charging_Adjusted_Penalty>
1.81009

> <i_epik_Tot_Q>
2

> <i_epik_Tot_abs_Q>
2

> <r_epik_Metal_State_Penalty>
1.19318

> <b_epik_Metal_Only>
0

> <s_lp_Force_Field>
OPLS_2005

> <r_lp_Energy>
35.8961

> <b_lp_Chiralities_Consistent>
1

> <s_lp_Variant>
AV-unprocessed.smi:1115-3

> <Gold.Version>
5.8.1

> <Gold.Id.Protein>
6NUR|6NUR_protein|mol2

> <Gold.PLP.Fitness>
46.9357

> <Gold.PLP.PLP>
-33.7200

> <Gold.PLP.part.hbond>
-3.9767

> <Gold.PLP.part.metal>
0.0000

> <Gold.PLP.part.buried>
-4.1043

> <Gold.PLP.part.nonpolar>
-27.8459

> <Gold.PLP.part.repulsive>
0.1780

> <Gold.PLP.ligand.clash>
0.0000

> <Gold.PLP.ligand.torsion>
0.8564

> <Gold.PLP.Chemscore.Hbond>
4.9420

> <Gold.PLP.Chemscore.CHOScore>
0.0000

> <Gold.PLP.Chemscore.Metal>
0.0000

> <Gold.Chemscore.Hbonds>
donor molecule, donor type, donor heavy atom, donor atom, acceptor molecule, acceptor atom, score
      L1  H     8    32       P1 10175  0.99
      L1  H    11    33       P1 10175  1.00
      L1  H    23    51       P1 10186  2.00
      P1  H  7989  7998       L1    19  0.70

> <Gold.PLP.Chemscore.Internal.Correction>
0.1025

> <Gold.Rescore>
     Score         DG    S(hbond)    S(metal)    S(lipo)     H(rot)  DE(clash)    DE(int)     intcor
     19.42     -21.74       3.38        0.00      74.98       1.49       0.21       2.11       ----

> <Gold.Chemscore.Fitness>
19.4162

> <Gold.Chemscore.DG>
-21.7364

> <Gold.Chemscore.ZeroCoef>
-5.4800

> <Gold.Chemscore.Hbond>
3.3809

> <Gold.Chemscore.Metal>
0.0000

> <Gold.Chemscore.Lipo>
74.9827

> <Gold.Chemscore.Internal_Hbond>
0.0000

> <Gold.Chemscore.DEClash>
0.2148

> <Gold.Chemscore.DEInternal>
2.1054

> <Gold.Chemscore.Rot>
1.4878

> <Gold.Chemscore.Internal.Correction>
   9.000000E+99

> <Gold.Chemscore.Hbonds>
donor molecule, donor type, donor heavy atom, donor atom, acceptor molecule, acceptor atom, score
      L1  H     8    32       P1 10175  0.91
      L1  H    11    33       P1 10175  1.00
      L1  H    23    51       P1 10186  0.34
      P1  H  7989  7998       L1    19  0.07

> <Gold.Chemscore.Hbond.Weighted>
-11.2923

> <Gold.Chemscore.Metal.Weighted>
-0.0000

> <Gold.Chemscore.Lipo.Weighted>
-8.7730

> <Gold.Chemscore.Internal_Hbond.Weighted>
0.0000

> <Gold.Chemscore.DEClash.Weighted>
0.2148

> <Gold.Chemscore.DEInternal.Weighted>
2.1054

> <Gold.Chemscore.Rot.Weighted>
3.8089

> <Gold.Chemscore.Internal.Correction.Weighted>
   9.000000E+99

> <Gold.Protein.RotatedTorsions>
[ 6907 6896 6895 6894 ] final -146.68 input  -60.11 | X-H torsion
[ 7974 7965 7964 7962 ] final   73.83 input  175.53 | X-H torsion
[ 8008 7997 7996 7995 ] final   31.08 input   59.86 | X-H torsion
[ 10167 10162 10161 10158 ] final  -80.33 input  -65.29 | X-H torsion
[ 10718 10713 10712 10709 ] final  134.71 input   66.30 | X-H torsion
[ 10763 10752 10751 10750 ] final  133.77 input  -60.55 | X-H torsion
[ 11005 11000 10999 10996 ] final   74.25 input  -57.11 | X-H torsion

> <Gold.Protein.ActiveResidues>
 VAL166  LYS551  ARG553  GLY616  TRP617  ASP618  TYR619  PRO620  LYS621  CYS622 
 ASP623  PHE694  ASN695  SER759  ASP760  ASP761  ALA762  ILE779  LEU786  VAL792 
 PHE793  MET794  SER795  GLU796  ALA797  LYS798  CYS799  TRP800  GLU811  SER814 

> <Gold.Protein.RotatedAtoms>
  151.1451  133.4945  159.2595 H   0  0  0  0  0  0  0  0  0  0  0  0  # atno 6907 bound_to 6896
  151.1613  135.0274  159.8721 H   0  0  0  0  0  0  0  0  0  0  0  0  # atno 6908 bound_to 6896
  152.5463  134.1324  159.8498 H   0  0  0  0  0  0  0  0  0  0  0  0  # atno 6909 bound_to 6896
  145.7359  139.2702  143.1514 H   0  0  0  0  0  0  0  0  0  0  0  0  # atno 7974 bound_to 7965
  155.1008  140.3229  155.4548 H   0  0  0  0  0  0  0  0  0  0  0  0  # atno 8008 bound_to 7997
  156.2717  140.2061  156.6081 H   0  0  0  0  0  0  0  0  0  0  0  0  # atno 8009 bound_to 7997
  154.6831  140.0524  157.0273 H   0  0  0  0  0  0  0  0  0  0  0  0  # atno 8010 bound_to 7997
  140.4513  143.2482  151.8485 H   0  0  0  0  0  0  0  0  0  0  0  0  # atno 10167 bound_to 10162
  157.4645  131.1076  150.9879 H   0  0  0  0  0  0  0  0  0  0  0  0  # atno 10718 bound_to 10713
  153.8126  135.3127  155.3402 H   0  0  0  0  0  0  0  0  0  0  0  0  # atno 10763 bound_to 10752
  154.8045  135.4706  154.0361 H   0  0  0  0  0  0  0  0  0  0  0  0  # atno 10764 bound_to 10752
  153.1744  135.6883  153.8652 H   0  0  0  0  0  0  0  0  0  0  0  0  # atno 10765 bound_to 10752
  139.9400  134.7417  156.1125 H   0  0  0  0  0  0  0  0  0  0  0  0  # atno 11005 bound_to 11000
  146.0493  140.8085  142.9789 LP  0  0  0  0  0  0  0  0  0  0  0  0  # atno 17320 bound_to 7965
  144.6882  140.3029  143.7260 LP  0  0  0  0  0  0  0  0  0  0  0  0  # atno 17321 bound_to 7965
  139.4797  144.5117  151.8924 LP  0  0  0  0  0  0  0  0  0  0  0  0  # atno 17342 bound_to 10162
  140.4204  144.2251  150.5887 LP  0  0  0  0  0  0  0  0  0  0  0  0  # atno 17343 bound_to 10162
  157.0665  130.5846  149.5395 LP  0  0  0  0  0  0  0  0  0  0  0  0  # atno 17370 bound_to 10713
  156.0044  130.5128  150.7778 LP  0  0  0  0  0  0  0  0  0  0  0  0  # atno 17371 bound_to 10713
  141.1030  133.6670  156.2799 LP  0  0  0  0  0  0  0  0  0  0  0  0  # atno 17394 bound_to 11000
  140.5977  134.5587  157.5511 LP  0  0  0  0  0  0  0  0  0  0  0  0  # atno 17395 bound_to 11000

$$$$
