AV-unprocessed.smi:40|AV-procd|sdf|381|dock8
  -GOLD-   2262016243D 1   1.00000     0.00000
 Structure written by MMmdl.
 47 48  0  0  0  0  0  0  0  0  1 V2000
  152.3814  144.7972  158.2431 C   0  0  0  0  0  0  0  0  0  0  0  0
  152.2886  144.4873  159.7429 C   0  0  0  0  0  0  0  0  0  0  0  0
  152.2059  142.9860  160.0635 C   0  0  0  0  0  0  0  0  0  0  0  0
  153.4256  142.1804  159.5815 C   0  0  0  0  0  0  0  0  0  0  0  0
  153.3240  140.6850  159.9108 C   0  0  0  0  0  0  0  0  0  0  0  0
  152.8723  139.9823  158.7652 O   0  0  0  0  0  0  0  0  0  0  0  0
  151.6121  140.1381  158.3212 C   0  0  0  0  0  0  0  0  0  0  0  0
  150.8350  140.9945  158.7430 O   0  0  0  0  0  0  0  0  0  0  0  0
  151.2993  139.1951  157.2596 N   0  0  0  0  0  0  0  0  0  0  0  0
  150.1443  139.0418  156.5659 C   0  0  0  0  0  0  0  0  0  0  0  0
  149.1649  139.9321  156.6065 N   0  0  0  0  0  0  0  0  0  0  0  0
  147.9964  139.8176  155.9036 C   0  0  0  0  0  0  0  0  0  0  0  0
  147.1256  140.6834  155.9836 O   0  0  0  0  0  0  0  0  0  0  0  0
  147.8398  138.6759  155.0838 N   0  0  0  0  0  0  0  0  0  0  0  0
  146.5564  138.5306  154.2915 C   0  0  2  0  0  0  0  0  0  0  0  0
  146.1055  137.2079  154.3731 O   0  0  0  0  0  0  0  0  0  0  0  0
  146.1861  136.5816  153.0964 C   0  0  1  0  0  0  0  0  0  0  0  0
  145.1469  135.4593  152.9960 C   0  0  0  0  0  0  0  0  0  0  0  0
  145.9563  137.7402  152.1289 C   0  0  2  0  0  0  0  0  0  0  0  0
  146.3933  137.4557  150.8133 O   0  0  0  0  0  0  0  0  0  0  0  0
  146.7224  138.8794  152.7934 C   0  0  2  0  0  0  0  0  0  0  0  0
  148.0764  138.9338  152.3682 O   0  0  0  0  0  0  0  0  0  0  0  0
  148.8636  137.7424  155.0065 C   0  0  0  0  0  0  0  0  0  0  0  0
  150.0071  137.8816  155.7113 C   0  0  0  0  0  0  0  0  0  0  0  0
  150.9863  136.9651  155.6181 F   0  0  0  0  0  0  0  0  0  0  0  0
  145.8158  139.1525  154.7969 H   0  0  0  0  0  0  0  0  0  0  0  0
  147.1906  136.1769  152.9633 H   0  0  0  0  0  0  0  0  0  0  0  0
  144.8948  137.9917  152.1051 H   0  0  0  0  0  0  0  0  0  0  0  0
  146.2606  139.8462  152.5902 H   0  0  0  0  0  0  0  0  0  0  0  0
  152.3732  145.8735  158.0706 H   0  0  0  0  0  0  0  0  0  0  0  0
  151.5395  144.3682  157.6993 H   0  0  0  0  0  0  0  0  0  0  0  0
  153.2999  144.4040  157.8078 H   0  0  0  0  0  0  0  0  0  0  0  0
  153.1380  144.9304  160.2643 H   0  0  0  0  0  0  0  0  0  0  0  0
  151.4010  144.9784  160.1430 H   0  0  0  0  0  0  0  0  0  0  0  0
  152.1108  142.8759  161.1443 H   0  0  0  0  0  0  0  0  0  0  0  0
  151.2933  142.5675  159.6372 H   0  0  0  0  0  0  0  0  0  0  0  0
  153.5303  142.2888  158.5021 H   0  0  0  0  0  0  0  0  0  0  0  0
  154.3371  142.5872  160.0209 H   0  0  0  0  0  0  0  0  0  0  0  0
  154.2922  140.2980  160.2316 H   0  0  0  0  0  0  0  0  0  0  0  0
  152.6213  140.5330  160.7311 H   0  0  0  0  0  0  0  0  0  0  0  0
  152.0524  138.5605  157.0371 H   0  0  0  0  0  0  0  0  0  0  0  0
  145.1761  134.9856  152.0145 H   0  0  0  0  0  0  0  0  0  0  0  0
  144.1373  135.8394  153.1550 H   0  0  0  0  0  0  0  0  0  0  0  0
  145.3344  134.6885  153.7438 H   0  0  0  0  0  0  0  0  0  0  0  0
  145.7272  137.7434  150.2074 H   0  0  0  0  0  0  0  0  0  0  0  0
  148.3957  138.0492  152.2773 H   0  0  0  0  0  0  0  0  0  0  0  0
  148.7690  136.8768  154.3692 H   0  0  0  0  0  0  0  0  0  0  0  0
  1  2  1  0  0  0  0
  1 30  1  0  0  0  0
  1 31  1  0  0  0  0
  1 32  1  0  0  0  0
  2  3  1  0  0  0  0
  2 33  1  0  0  0  0
  2 34  1  0  0  0  0
  3  4  1  0  0  0  0
  3 35  1  0  0  0  0
  3 36  1  0  0  0  0
  4  5  1  0  0  0  0
  4 37  1  0  0  0  0
  4 38  1  0  0  0  0
  5  6  1  0  0  0  0
  5 39  1  0  0  0  0
  5 40  1  0  0  0  0
  6  7  1  0  0  0  0
  7  8  2  0  0  0  0
  7  9  1  0  0  0  0
  9 10  1  0  0  0  0
  9 41  1  0  0  0  0
 10 24  1  0  0  0  0
 10 11  2  0  0  0  0
 11 12  1  0  0  0  0
 12 13  2  0  0  0  0
 12 14  1  0  0  0  0
 14 15  1  0  0  0  0
 14 23  1  0  0  0  0
 15 26  1  0  0  0  0
 15 21  1  0  0  0  0
 15 16  1  0  0  0  0
 16 17  1  0  0  0  0
 17 27  1  0  0  0  0
 17 18  1  0  0  0  0
 17 19  1  0  0  0  0
 18 42  1  0  0  0  0
 18 43  1  0  0  0  0
 18 44  1  0  0  0  0
 19 28  1  0  0  0  0
 19 20  1  0  0  0  0
 19 21  1  0  0  0  0
 20 45  1  0  0  0  0
 21 29  1  0  0  0  0
 21 22  1  0  0  0  0
 22 46  1  0  0  0  0
 23 24  2  0  0  0  0
 23 47  1  0  0  0  0
 24 25  1  0  0  0  0
M  END
> <s_m_source_file>
AV-unprocessed.smi

> <i_m_source_file_index>
40

> <i_lp_mmshare_version>
43012

> <i_f3d_flags>
0

> <s_epik_input>
W0NIM11bQ0gyXVtDSDJdW0NIMl1bQ0gyXU9DKD1PKVtOSF1jMW5jKD1PKW4oW2NIXWMxRilbQ0BASF0yT1tDQEhdKFtDSDNdKVtDQEBIXShbT0hdKVtDQEhdMltPSF0=

> <s_epik_cmdline>
J2VwaWtfcHl0aG9uJywgJy1waCcsICc3LjAnLCAnLXRuJywgJzgnLCAnLW1hJywgJzIwMCcsICctbWV0YWxfYmluZGluZycsICctaW1hZScsICc8aW5maWxlLm1hZT4nLCAnLW9tYWUnLCAnPG91dGZpbGUubWFlPic=

> <r_lp_tautomer_probability>
1

> <r_epik_Ionization_Penalty>
2.29506e-06

> <r_epik_Ionization_Penalty_Charging>
8.26867e-09

> <r_epik_Ionization_Penalty_Neutral>
2.2868e-06

> <r_epik_State_Penalty>
-0

> <r_epik_Charging_Adjusted_Penalty>
8.26867e-09

> <i_epik_Tot_Q>
0

> <i_epik_Tot_abs_Q>
0

> <r_epik_Metal_State_Penalty>
-0

> <b_epik_Metal_Only>
0

> <s_epik_Chemistry_Notes>
This compound has an ester and may undergo hydrolysis at high or low pH. This compound contains an acetal/aminal-like group ( X-CH(R)-Y where X, Y are N, S, or O) that may be acid/base labile, releasing an aldehyde.

> <s_lp_Force_Field>
OPLS_2005

> <r_lp_Energy>
41.7027

> <b_lp_Chiralities_Consistent>
1

> <s_lp_Variant>
AV-unprocessed.smi:40-15

> <Gold.Version>
5.8.1

> <Gold.Id.Protein>
6NUR|6NUR_protein|mol2

> <Gold.PLP.Fitness>
46.0981

> <Gold.PLP.PLP>
-35.5724

> <Gold.PLP.part.hbond>
-3.7867

> <Gold.PLP.part.metal>
0.0000

> <Gold.PLP.part.buried>
-3.9704

> <Gold.PLP.part.nonpolar>
-28.2192

> <Gold.PLP.part.repulsive>
0.1533

> <Gold.PLP.ligand.clash>
0.0021

> <Gold.PLP.ligand.torsion>
0.8287

> <Gold.PLP.Chemscore.Hbond>
3.0000

> <Gold.PLP.Chemscore.CHOScore>
1.0000

> <Gold.PLP.Chemscore.Metal>
0.0000

> <Gold.Chemscore.Hbonds>
donor molecule, donor type, donor heavy atom, donor atom, acceptor molecule, acceptor atom, score
      L1  H    20    45       P1 10171  0.93
      L1  H    22    46       P1  7948  1.00
      P1  H  7954  7966       L1    20  0.99
      L1  C    23    47       P1  7948  0.87

> <Gold.PLP.Chemscore.Internal.Correction>
0.1852

> <Gold.Rescore>
     Score         DG    S(hbond)    S(metal)    S(lipo)     H(rot)  DE(clash)    DE(int)     intcor
      9.28     -15.50       2.74        0.00      88.29       3.70       0.87       5.35       ----

> <Gold.Chemscore.Fitness>
9.2827

> <Gold.Chemscore.DG>
-15.4972

> <Gold.Chemscore.ZeroCoef>
-5.4800

> <Gold.Chemscore.Hbond>
2.7390

> <Gold.Chemscore.Metal>
0.0000

> <Gold.Chemscore.Lipo>
88.2906

> <Gold.Chemscore.Internal_Hbond>
0.0000

> <Gold.Chemscore.DEClash>
0.8688

> <Gold.Chemscore.DEInternal>
5.3457

> <Gold.Chemscore.Rot>
3.6957

> <Gold.Chemscore.Internal.Correction>
   9.000000E+99

> <Gold.Chemscore.Hbonds>
donor molecule, donor type, donor heavy atom, donor atom, acceptor molecule, acceptor atom, score
      L1  H    20    45       P1 10171  0.85
      L1  H    22    46       P1  7948  1.00
      P1  H  7954  7966       L1    20  0.45

> <Gold.Chemscore.Hbond.Weighted>
-9.1482

> <Gold.Chemscore.Metal.Weighted>
-0.0000

> <Gold.Chemscore.Lipo.Weighted>
-10.3300

> <Gold.Chemscore.Internal_Hbond.Weighted>
0.0000

> <Gold.Chemscore.DEClash.Weighted>
0.8688

> <Gold.Chemscore.DEInternal.Weighted>
5.3457

> <Gold.Chemscore.Rot.Weighted>
9.4610

> <Gold.Chemscore.Internal.Correction.Weighted>
   9.000000E+99

> <Gold.Protein.RotatedTorsions>
[ 6907 6896 6895 6894 ] final  -52.88 input  -60.11 | X-H torsion
[ 7974 7965 7964 7962 ] final -137.70 input  175.53 | X-H torsion
[ 8008 7997 7996 7995 ] final -118.43 input   59.86 | X-H torsion
[ 10167 10162 10161 10158 ] final -178.54 input  -65.29 | X-H torsion
[ 10718 10713 10712 10709 ] final  -41.95 input   66.30 | X-H torsion
[ 10763 10752 10751 10750 ] final -141.01 input  -60.55 | X-H torsion
[ 11005 11000 10999 10996 ] final   23.76 input  -57.11 | X-H torsion

> <Gold.Protein.ActiveResidues>
 VAL166  LYS551  ARG553  GLY616  TRP617  ASP618  TYR619  PRO620  LYS621  CYS622 
 ASP623  PHE694  ASN695  SER759  ASP760  ASP761  ALA762  ILE779  LEU786  VAL792 
 PHE793  MET794  SER795  GLU796  ALA797  LYS798  CYS799  TRP800  GLU811  SER814 

> <Gold.Protein.RotatedAtoms>
  150.8477  134.7792  159.6983 H   0  0  0  0  0  0  0  0  0  0  0  0  # atno 6907 bound_to 6896
  152.4550  134.5308  159.9820 H   0  0  0  0  0  0  0  0  0  0  0  0  # atno 6908 bound_to 6896
  151.5435  133.3391  159.2975 H   0  0  0  0  0  0  0  0  0  0  0  0  # atno 6909 bound_to 6896
  144.8819  140.6520  143.5200 H   0  0  0  0  0  0  0  0  0  0  0  0  # atno 7974 bound_to 7965
  155.0995  140.0396  157.2692 H   0  0  0  0  0  0  0  0  0  0  0  0  # atno 8008 bound_to 7997
  154.6769  140.2624  155.6923 H   0  0  0  0  0  0  0  0  0  0  0  0  # atno 8009 bound_to 7997
  156.2680  140.2786  156.1299 H   0  0  0  0  0  0  0  0  0  0  0  0  # atno 8010 bound_to 7997
  139.5427  144.2318  152.0928 H   0  0  0  0  0  0  0  0  0  0  0  0  # atno 10167 bound_to 10162
  156.2648  130.4200  149.8502 H   0  0  0  0  0  0  0  0  0  0  0  0  # atno 10718 bound_to 10713
  154.8560  135.3537  154.5799 H   0  0  0  0  0  0  0  0  0  0  0  0  # atno 10763 bound_to 10752
  153.6410  135.6998  153.5246 H   0  0  0  0  0  0  0  0  0  0  0  0  # atno 10764 bound_to 10752
  153.2971  135.4217  155.1178 H   0  0  0  0  0  0  0  0  0  0  0  0  # atno 10765 bound_to 10752
  140.3661  134.2073  155.7669 H   0  0  0  0  0  0  0  0  0  0  0  0  # atno 11005 bound_to 11000
  145.3938  139.1611  143.4215 LP  0  0  0  0  0  0  0  0  0  0  0  0  # atno 17320 bound_to 7965
  146.3000  140.4029  142.8707 LP  0  0  0  0  0  0  0  0  0  0  0  0  # atno 17321 bound_to 7965
  140.1799  144.4854  150.6534 LP  0  0  0  0  0  0  0  0  0  0  0  0  # atno 17342 bound_to 10162
  140.6664  143.2269  151.5733 LP  0  0  0  0  0  0  0  0  0  0  0  0  # atno 17343 bound_to 10162
  156.6005  130.8544  151.3430 LP  0  0  0  0  0  0  0  0  0  0  0  0  # atno 17370 bound_to 10713
  157.7263  130.9628  150.1652 LP  0  0  0  0  0  0  0  0  0  0  0  0  # atno 17371 bound_to 10713
  141.1969  133.8071  157.0651 LP  0  0  0  0  0  0  0  0  0  0  0  0  # atno 17394 bound_to 11000
  140.0588  134.9766  157.1269 LP  0  0  0  0  0  0  0  0  0  0  0  0  # atno 17395 bound_to 11000

$$$$
