AV-unprocessed.smi:3187|AV-procd|sdf|12175|dock2
  -GOLD-   2272018 13D 1   1.00000     0.00000
 Structure written by MMmdl.
 41 42  0  0  0  0  0  0  0  0  2 V2000
  151.9000  145.2068  158.6018 C   0  0  0  0  0  0  0  0  0  0  0  0
  152.2451  144.1568  159.6454 C   0  0  0  0  0  0  0  0  0  0  0  0
  152.1373  144.4311  160.9606 C   0  0  0  0  0  0  0  0  0  0  0  0
  152.5101  143.4739  162.0793 C   0  0  0  0  0  0  0  0  0  0  0  0
  152.8576  142.0631  161.5769 C   0  0  0  0  0  0  0  0  0  0  0  0
  153.6177  142.1129  160.2404 C   0  0  1  0  0  0  0  0  0  0  0  0
  154.1781  140.7365  159.8424 C   0  0  0  0  0  0  0  0  0  0  0  0
  152.7638  142.8038  159.1393 C   0  0  1  0  0  0  0  0  0  0  0  0
  151.6221  141.9003  158.6035 C   0  0  0  0  0  0  0  0  0  0  0  0
  151.3023  142.1572  157.1855 N   0  3  0  0  0  0  0  0  0  0  0  0
  150.0627  141.5068  156.7196 C   0  0  0  0  0  0  0  0  0  0  0  0
  149.9741  141.5221  155.1877 C   0  0  0  0  0  0  0  0  0  0  0  0
  148.6124  141.3224  154.7351 N   0  0  0  0  0  0  0  0  0  0  0  0
  148.1592  140.3651  153.8369 C   0  0  0  0  0  0  0  0  0  0  0  0
  146.8028  140.5607  153.7055 C   0  0  0  0  0  0  0  0  0  0  0  0
  146.4033  141.6263  154.5086 N   0  0  0  0  0  0  0  0  0  0  0  0
  147.5276  142.0254  155.0884 C   0  0  0  0  0  0  0  0  0  0  0  0
  152.6983  145.2907  157.8641 H   0  0  0  0  0  0  0  0  0  0  0  0
  151.7719  146.1875  159.0614 H   0  0  0  0  0  0  0  0  0  0  0  0
  150.9707  144.9693  158.0870 H   0  0  0  0  0  0  0  0  0  0  0  0
  151.7917  145.4049  161.2761 H   0  0  0  0  0  0  0  0  0  0  0  0
  153.3694  143.8991  162.5987 H   0  0  0  0  0  0  0  0  0  0  0  0
  151.6969  143.4256  162.8040 H   0  0  0  0  0  0  0  0  0  0  0  0
  153.4485  141.5465  162.3344 H   0  0  0  0  0  0  0  0  0  0  0  0
  151.9439  141.4799  161.4602 H   0  0  0  0  0  0  0  0  0  0  0  0
  154.4906  142.7484  160.3999 H   0  0  0  0  0  0  0  0  0  0  0  0
  153.4007  139.9735  159.8037 H   0  0  0  0  0  0  0  0  0  0  0  0
  154.9204  140.3990  160.5663 H   0  0  0  0  0  0  0  0  0  0  0  0
  154.6664  140.7753  158.8685 H   0  0  0  0  0  0  0  0  0  0  0  0
  153.4409  143.0114  158.3092 H   0  0  0  0  0  0  0  0  0  0  0  0
  151.8953  140.8487  158.6781 H   0  0  0  0  0  0  0  0  0  0  0  0
  150.7201  142.0381  159.2006 H   0  0  0  0  0  0  0  0  0  0  0  0
  151.2090  143.1547  157.0572 H   0  0  0  0  0  0  0  0  0  0  0  0
  150.0374  140.4796  157.0860 H   0  0  0  0  0  0  0  0  0  0  0  0
  149.2031  142.0243  157.1474 H   0  0  0  0  0  0  0  0  0  0  0  0
  150.3350  142.4728  154.7926 H   0  0  0  0  0  0  0  0  0  0  0  0
  150.6012  140.7394  154.7583 H   0  0  0  0  0  0  0  0  0  0  0  0
  148.8194  139.6442  153.3772 H   0  0  0  0  0  0  0  0  0  0  0  0
  146.0893  140.0224  153.0993 H   0  0  0  0  0  0  0  0  0  0  0  0
  147.5631  142.8511  155.7841 H   0  0  0  0  0  0  0  0  0  0  0  0
  152.0718  141.8291  156.6192 H   0  0  0  0  0  0  0  0  0  0  0  0
  1  2  1  0  0  0  0
  1 18  1  0  0  0  0
  1 19  1  0  0  0  0
  1 20  1  0  0  0  0
  2  8  1  0  0  0  0
  2  3  2  0  0  0  0
  3  4  1  0  0  0  0
  3 21  1  0  0  0  0
  4  5  1  0  0  0  0
  4 22  1  0  0  0  0
  4 23  1  0  0  0  0
  5  6  1  0  0  0  0
  5 24  1  0  0  0  0
  5 25  1  0  0  0  0
  6  7  1  0  0  0  0
  6  8  1  0  0  0  0
  6 26  1  0  0  0  0
  7 27  1  0  0  0  0
  7 28  1  0  0  0  0
  7 29  1  0  0  0  0
  8  9  1  0  0  0  0
  8 30  1  0  0  0  0
  9 10  1  0  0  0  0
  9 31  1  0  0  0  0
  9 32  1  0  0  0  0
 10 11  1  0  0  0  0
 10 33  1  0  0  0  0
 10 41  1  0  0  0  0
 11 12  1  0  0  0  0
 11 34  1  0  0  0  0
 11 35  1  0  0  0  0
 12 13  1  0  0  0  0
 12 36  1  0  0  0  0
 12 37  1  0  0  0  0
 13 17  1  0  0  0  0
 13 14  1  0  0  0  0
 14 15  2  0  0  0  0
 14 38  1  0  0  0  0
 15 16  1  0  0  0  0
 15 39  1  0  0  0  0
 16 17  2  0  0  0  0
 17 40  1  0  0  0  0
M  CHG  1  10   1
M  END
> <s_m_source_file>
AV-unprocessed.smi

> <i_m_source_file_index>
3187

> <i_lp_mmshare_version>
43012

> <i_f3d_flags>
0

> <s_epik_input>
W0NIM11DMT1bQ0hdW0NIMl1bQ0gyXVtDQEBIXShbQ0gzXSlbQ0BIXTFbQ0gyXVtOSF1bQ0gyXVtDSDJdbjJbY0hdW2NIXW5bY0hdMg==

> <s_epik_cmdline>
J2VwaWtfcHl0aG9uJywgJy1waCcsICc3LjAnLCAnLXRuJywgJzgnLCAnLW1hJywgJzIwMCcsICctbWV0YWxfYmluZGluZycsICctaW1hZScsICc8aW5maWxlLm1hZT4nLCAnLW9tYWUnLCAnPG91dGZpbGUubWFlPic=

> <r_lp_tautomer_probability>
1

> <r_epik_Ionization_Penalty>
0.0501625

> <r_epik_Ionization_Penalty_Charging>
0.0501625

> <r_epik_Ionization_Penalty_Neutral>
0

> <r_epik_State_Penalty>
0.0972392

> <r_epik_Charging_Adjusted_Penalty>
0.147402

> <i_epik_Tot_Q>
1

> <i_epik_Tot_abs_Q>
1

> <r_epik_Metal_State_Penalty>
0.000104376

> <b_epik_Metal_Only>
0

> <s_lp_Force_Field>
OPLS_2005

> <r_lp_Energy>
16.942

> <b_lp_Chiralities_Consistent>
1

> <s_lp_Variant>
AV-unprocessed.smi:3187-1

> <Gold.Version>
5.8.1

> <Gold.Id.Protein>
6NUR|6NUR_protein|mol2

> <Gold.PLP.Fitness>
51.2802

> <Gold.PLP.PLP>
-44.1104

> <Gold.PLP.part.hbond>
0.0000

> <Gold.PLP.part.metal>
0.0000

> <Gold.PLP.part.buried>
-1.8502

> <Gold.PLP.part.nonpolar>
-41.7223

> <Gold.PLP.part.repulsive>
0.2081

> <Gold.PLP.ligand.clash>
0.0000

> <Gold.PLP.ligand.torsion>
0.5531

> <Gold.PLP.Chemscore.Hbond>
0.0000

> <Gold.PLP.Chemscore.CHOScore>
2.7305

> <Gold.PLP.Chemscore.Metal>
0.0000

> <Gold.Chemscore.Hbonds>
donor molecule, donor type, donor heavy atom, donor atom, acceptor molecule, acceptor atom, score
      L1  C    14    38       P1  7957  0.78
      L1  C    15    39       P1 10175  1.00
      L1  C    17    40       P1  8028  0.96

> <Gold.PLP.Chemscore.Internal.Correction>
0.0844

> <Gold.Rescore>
     Score         DG    S(hbond)    S(metal)    S(lipo)     H(rot)  DE(clash)    DE(int)     intcor
     15.08     -15.69       0.00        0.00     128.55       1.89       0.07       0.55       ----

> <Gold.Chemscore.Fitness>
15.0774

> <Gold.Chemscore.DG>
-15.6944

> <Gold.Chemscore.ZeroCoef>
-5.4800

> <Gold.Chemscore.Hbond>
0.0000

> <Gold.Chemscore.Metal>
0.0000

> <Gold.Chemscore.Lipo>
128.5528

> <Gold.Chemscore.Internal_Hbond>
0.0000

> <Gold.Chemscore.DEClash>
0.0718

> <Gold.Chemscore.DEInternal>
0.5452

> <Gold.Chemscore.Rot>
1.8853

> <Gold.Chemscore.Internal.Correction>
   9.000000E+99

> <Gold.Chemscore.Hbond.Weighted>
-0.0000

> <Gold.Chemscore.Metal.Weighted>
-0.0000

> <Gold.Chemscore.Lipo.Weighted>
-15.0407

> <Gold.Chemscore.Internal_Hbond.Weighted>
0.0000

> <Gold.Chemscore.DEClash.Weighted>
0.0718

> <Gold.Chemscore.DEInternal.Weighted>
0.5452

> <Gold.Chemscore.Rot.Weighted>
4.8263

> <Gold.Chemscore.Internal.Correction.Weighted>
   9.000000E+99

> <Gold.Protein.RotatedTorsions>
[ 6907 6896 6895 6894 ] final   -6.36 input  -60.11 | X-H torsion
[ 7974 7965 7964 7962 ] final   90.08 input  175.53 | X-H torsion
[ 8008 7997 7996 7995 ] final  114.44 input   59.86 | X-H torsion
[ 10167 10162 10161 10158 ] final  164.95 input  -65.29 | X-H torsion
[ 10718 10713 10712 10709 ] final  165.88 input   66.30 | X-H torsion
[ 10763 10752 10751 10750 ] final   47.46 input  -60.55 | X-H torsion
[ 11005 11000 10999 10996 ] final  101.99 input  -57.11 | X-H torsion

> <Gold.Protein.ActiveResidues>
 VAL166  LYS551  ARG553  GLY616  TRP617  ASP618  TYR619  PRO620  LYS621  CYS622 
 ASP623  PHE694  ASN695  SER759  ASP760  ASP761  ALA762  ILE779  LEU786  VAL792 
 PHE793  MET794  SER795  GLU796  ALA797  LYS798  CYS799  TRP800  GLU811  SER814 

> <Gold.Protein.RotatedAtoms>
  151.4668  135.1043  159.9740 H   0  0  0  0  0  0  0  0  0  0  0  0  # atno 6907 bound_to 6896
  152.4832  133.8302  159.7109 H   0  0  0  0  0  0  0  0  0  0  0  0  # atno 6908 bound_to 6896
  150.8920  133.7170  159.2929 H   0  0  0  0  0  0  0  0  0  0  0  0  # atno 6909 bound_to 6896
  145.5237  139.2280  143.2657 H   0  0  0  0  0  0  0  0  0  0  0  0  # atno 7974 bound_to 7965
  156.2321  140.2959  156.0216 H   0  0  0  0  0  0  0  0  0  0  0  0  # atno 8008 bound_to 7997
  155.2195  140.0415  157.2963 H   0  0  0  0  0  0  0  0  0  0  0  0  # atno 8009 bound_to 7997
  154.6014  140.2428  155.7795 H   0  0  0  0  0  0  0  0  0  0  0  0  # atno 8010 bound_to 7997
  139.4897  144.4182  151.9218 H   0  0  0  0  0  0  0  0  0  0  0  0  # atno 10167 bound_to 10162
  157.0739  131.0373  151.2601 H   0  0  0  0  0  0  0  0  0  0  0  0  # atno 10718 bound_to 10713
  152.9800  135.5975  154.3766 H   0  0  0  0  0  0  0  0  0  0  0  0  # atno 10763 bound_to 10752
  154.3435  135.2767  155.2412 H   0  0  0  0  0  0  0  0  0  0  0  0  # atno 10764 bound_to 10752
  154.4483  135.5996  153.6230 H   0  0  0  0  0  0  0  0  0  0  0  0  # atno 10765 bound_to 10752
  139.8775  134.9206  156.4990 H   0  0  0  0  0  0  0  0  0  0  0  0  # atno 11005 bound_to 11000
  146.2089  140.6051  142.9068 LP  0  0  0  0  0  0  0  0  0  0  0  0  # atno 17320 bound_to 7965
  144.7662  140.5536  143.6701 LP  0  0  0  0  0  0  0  0  0  0  0  0  # atno 17321 bound_to 7965
  140.3625  144.2955  150.5931 LP  0  0  0  0  0  0  0  0  0  0  0  0  # atno 17342 bound_to 10162
  140.5390  143.2227  151.8116 LP  0  0  0  0  0  0  0  0  0  0  0  0  # atno 17343 bound_to 10162
  157.4856  130.7791  149.7456 LP  0  0  0  0  0  0  0  0  0  0  0  0  # atno 17370 bound_to 10713
  155.9943  130.3919  150.2866 LP  0  0  0  0  0  0  0  0  0  0  0  0  # atno 17371 bound_to 10713
  140.8603  133.8065  155.9258 LP  0  0  0  0  0  0  0  0  0  0  0  0  # atno 17394 bound_to 11000
  140.9056  134.2324  157.5016 LP  0  0  0  0  0  0  0  0  0  0  0  0  # atno 17395 bound_to 11000

$$$$
