AV-unprocessed.smi:409|AV-procd|sdf|2506|dock3
  -GOLD-   2262022453D 1   1.00000     0.00000
 Structure written by MMmdl.
 34 35  0  0  0  0  0  0  0  0  2 V2000
  150.0964  141.4606  158.2260 O   0  0  0  0  0  0  0  0  0  0  0  0
  150.5739  141.9472  157.2000 C   0  0  0  0  0  0  0  0  0  0  0  0
  150.0681  141.5116  155.8182 C   0  0  0  0  0  0  0  0  0  0  0  0
  150.4704  140.1401  155.4679 N   0  0  0  0  0  0  0  0  0  0  0  0
  151.8373  139.8193  155.5439 C   0  0  0  0  0  0  0  0  0  0  0  0
  152.2965  138.5904  155.2393 C   0  0  0  0  0  0  0  0  0  0  0  0
  151.3346  137.5779  154.8219 C   0  0  0  0  0  0  0  0  0  0  0  0
  151.7351  136.4489  154.5454 O   0  0  0  0  0  0  0  0  0  0  0  0
  150.0195  137.9395  154.7589 N   0  5  0  0  0  0  0  0  0  0  0  0
  149.5674  139.1944  155.0687 C   0  0  0  0  0  0  0  0  0  0  0  0
  148.3763  139.5005  155.0022 O   0  0  0  0  0  0  0  0  0  0  0  0
  151.5257  142.8928  157.2080 N   0  0  0  0  0  0  0  0  0  0  0  0
  152.1463  143.4568  158.4026 C   0  0  0  0  0  0  0  0  0  0  0  0
  152.7598  142.3426  159.2759 C   0  0  0  0  0  0  0  0  0  0  0  0
  153.3509  142.9092  160.5771 C   0  0  0  0  0  0  0  0  0  0  0  0
  152.3031  143.7125  161.3633 C   0  0  0  0  0  0  0  0  0  0  0  0
  151.6946  144.8268  160.4974 C   0  0  0  0  0  0  0  0  0  0  0  0
  151.1000  144.2607  159.1975 C   0  0  0  0  0  0  0  0  0  0  0  0
  148.9813  141.6031  155.8116 H   0  0  0  0  0  0  0  0  0  0  0  0
  150.4185  142.2106  155.0562 H   0  0  0  0  0  0  0  0  0  0  0  0
  152.4830  140.6271  155.8549 H   0  0  0  0  0  0  0  0  0  0  0  0
  153.3501  138.3608  155.2996 H   0  0  0  0  0  0  0  0  0  0  0  0
  151.8554  143.2361  156.3177 H   0  0  0  0  0  0  0  0  0  0  0  0
  152.9389  144.1436  158.0988 H   0  0  0  0  0  0  0  0  0  0  0  0
  151.9970  141.6011  159.5185 H   0  0  0  0  0  0  0  0  0  0  0  0
  153.5375  141.8148  158.7230 H   0  0  0  0  0  0  0  0  0  0  0  0
  153.7373  142.0973  161.1940 H   0  0  0  0  0  0  0  0  0  0  0  0
  154.2014  143.5502  160.3416 H   0  0  0  0  0  0  0  0  0  0  0  0
  151.5131  143.0440  161.7077 H   0  0  0  0  0  0  0  0  0  0  0  0
  152.7569  144.1418  162.2570 H   0  0  0  0  0  0  0  0  0  0  0  0
  150.9240  145.3558  161.0586 H   0  0  0  0  0  0  0  0  0  0  0  0
  152.4624  145.5630  160.2567 H   0  0  0  0  0  0  0  0  0  0  0  0
  150.7119  145.0765  158.5864 H   0  0  0  0  0  0  0  0  0  0  0  0
  150.2481  143.6233  159.4388 H   0  0  0  0  0  0  0  0  0  0  0  0
  1  2  2  0  0  0  0
  2  3  1  0  0  0  0
  2 12  1  0  0  0  0
  3  4  1  0  0  0  0
  3 19  1  0  0  0  0
  3 20  1  0  0  0  0
  4 10  1  0  0  0  0
  4  5  1  0  0  0  0
  5  6  2  0  0  0  0
  5 21  1  0  0  0  0
  6  7  1  0  0  0  0
  6 22  1  0  0  0  0
  7  8  2  0  0  0  0
  7  9  1  0  0  0  0
  9 10  1  0  0  0  0
 10 11  2  0  0  0  0
 12 13  1  0  0  0  0
 12 23  1  0  0  0  0
 13 18  1  0  0  0  0
 13 14  1  0  0  0  0
 13 24  1  0  0  0  0
 14 15  1  0  0  0  0
 14 25  1  0  0  0  0
 14 26  1  0  0  0  0
 15 16  1  0  0  0  0
 15 27  1  0  0  0  0
 15 28  1  0  0  0  0
 16 17  1  0  0  0  0
 16 29  1  0  0  0  0
 16 30  1  0  0  0  0
 17 18  1  0  0  0  0
 17 31  1  0  0  0  0
 17 32  1  0  0  0  0
 18 33  1  0  0  0  0
 18 34  1  0  0  0  0
M  CHG  1   9  -1
M  END
> <s_m_source_file>
AV-unprocessed.smi

> <i_m_source_file_index>
409

> <i_lp_mmshare_version>
43012

> <i_f3d_flags>
0

> <s_epik_input>
W0NIMl0xW0NIMl1bQ0gyXVtDSDJdW0NIMl1bQ0hdMVtOSF1DKD1PKVtDSDJdbjJbY0hdW2NIXWMoPU8pW25IXWMyPU8=

> <s_epik_cmdline>
J2VwaWtfcHl0aG9uJywgJy1waCcsICc3LjAnLCAnLXRuJywgJzgnLCAnLW1hJywgJzIwMCcsICctbWV0YWxfYmluZGluZycsICctaW1hZScsICc8aW5maWxlLm1hZT4nLCAnLW9tYWUnLCAnPG91dGZpbGUubWFlPic=

> <r_lp_tautomer_probability>
0.999537

> <r_epik_Ionization_Penalty>
3.11464

> <r_epik_Ionization_Penalty_Charging>
2.89611e-08

> <r_epik_Ionization_Penalty_Neutral>
3.11464

> <r_epik_State_Penalty>
3.11372

> <r_epik_Charging_Adjusted_Penalty>
3.11373

> <i_epik_Tot_Q>
-1

> <i_epik_Tot_abs_Q>
1

> <r_epik_Metal_State_Penalty>
0.463005

> <b_epik_Metal_Only>
1

> <s_lp_Force_Field>
OPLS_2005

> <r_lp_Energy>
17.6148

> <b_lp_Chiralities_Consistent>
1

> <s_lp_Variant>
AV-unprocessed.smi:409-2

> <Gold.Version>
5.8.1

> <Gold.Id.Protein>
6NUR|6NUR_protein|mol2

> <Gold.PLP.Fitness>
43.0139

> <Gold.PLP.PLP>
-40.3471

> <Gold.PLP.part.hbond>
-1.0000

> <Gold.PLP.part.metal>
0.0000

> <Gold.PLP.part.buried>
-1.7590

> <Gold.PLP.part.nonpolar>
-37.7788

> <Gold.PLP.part.repulsive>
0.5561

> <Gold.PLP.ligand.clash>
0.0000

> <Gold.PLP.ligand.torsion>
0.1699

> <Gold.PLP.Chemscore.Hbond>
1.0000

> <Gold.PLP.Chemscore.CHOScore>
0.0000

> <Gold.PLP.Chemscore.Metal>
0.0000

> <Gold.Chemscore.Hbonds>
donor molecule, donor type, donor heavy atom, donor atom, acceptor molecule, acceptor atom, score
      P1  H 10752 10765       L1     8  0.81

> <Gold.PLP.Chemscore.Internal.Correction>
0.0067

> <Gold.Rescore>
     Score         DG    S(hbond)    S(metal)    S(lipo)     H(rot)  DE(clash)    DE(int)     intcor
     13.82     -14.95       0.98        0.00      89.46       1.67       0.05       1.08       ----

> <Gold.Chemscore.Fitness>
13.8221

> <Gold.Chemscore.DG>
-14.9542

> <Gold.Chemscore.ZeroCoef>
-5.4800

> <Gold.Chemscore.Hbond>
0.9819

> <Gold.Chemscore.Metal>
0.0000

> <Gold.Chemscore.Lipo>
89.4649

> <Gold.Chemscore.Internal_Hbond>
0.0000

> <Gold.Chemscore.DEClash>
0.0476

> <Gold.Chemscore.DEInternal>
1.0846

> <Gold.Chemscore.Rot>
1.6690

> <Gold.Chemscore.Internal.Correction>
   9.000000E+99

> <Gold.Chemscore.Hbonds>
donor molecule, donor type, donor heavy atom, donor atom, acceptor molecule, acceptor atom, score
      P1  H 10752 10765       L1     8  0.80

> <Gold.Chemscore.Hbond.Weighted>
-3.2794

> <Gold.Chemscore.Metal.Weighted>
-0.0000

> <Gold.Chemscore.Lipo.Weighted>
-10.4674

> <Gold.Chemscore.Internal_Hbond.Weighted>
0.0000

> <Gold.Chemscore.DEClash.Weighted>
0.0476

> <Gold.Chemscore.DEInternal.Weighted>
1.0846

> <Gold.Chemscore.Rot.Weighted>
4.2726

> <Gold.Chemscore.Internal.Correction.Weighted>
   9.000000E+99

> <Gold.Protein.RotatedTorsions>
[ 6907 6896 6895 6894 ] final  -77.79 input  -60.11 | X-H torsion
[ 7974 7965 7964 7962 ] final   67.93 input  175.53 | X-H torsion
[ 8008 7997 7996 7995 ] final   50.41 input   59.86 | X-H torsion
[ 10167 10162 10161 10158 ] final   -9.43 input  -65.29 | X-H torsion
[ 10718 10713 10712 10709 ] final  -37.41 input   66.30 | X-H torsion
[ 10763 10752 10751 10750 ] final  162.13 input  -60.55 | X-H torsion
[ 11005 11000 10999 10996 ] final   33.20 input  -57.11 | X-H torsion

> <Gold.Protein.ActiveResidues>
 VAL166  LYS551  ARG553  GLY616  TRP617  ASP618  TYR619  PRO620  LYS621  CYS622 
 ASP623  PHE694  ASN695  SER759  ASP760  ASP761  ALA762  ILE779  LEU786  VAL792 
 PHE793  MET794  SER795  GLU796  ALA797  LYS798  CYS799  TRP800  GLU811  SER814 

> <Gold.Protein.RotatedAtoms>
  150.6989  134.4370  159.5274 H   0  0  0  0  0  0  0  0  0  0  0  0  # atno 6907 bound_to 6896
  152.2086  134.8519  160.0509 H   0  0  0  0  0  0  0  0  0  0  0  0  # atno 6908 bound_to 6896
  151.9413  133.3604  159.4003 H   0  0  0  0  0  0  0  0  0  0  0  0  # atno 6909 bound_to 6896
  145.8088  139.3021  143.1111 H   0  0  0  0  0  0  0  0  0  0  0  0  # atno 7974 bound_to 7965
  155.4183  140.3445  155.4269 H   0  0  0  0  0  0  0  0  0  0  0  0  # atno 8008 bound_to 7997
  156.1408  140.1541  156.8955 H   0  0  0  0  0  0  0  0  0  0  0  0  # atno 8009 bound_to 7997
  154.4969  140.0825  156.7696 H   0  0  0  0  0  0  0  0  0  0  0  0  # atno 8010 bound_to 7997
  140.7087  143.5858  150.8944 H   0  0  0  0  0  0  0  0  0  0  0  0  # atno 10167 bound_to 10162
  156.3156  130.4258  149.8009 H   0  0  0  0  0  0  0  0  0  0  0  0  # atno 10718 bound_to 10713
  154.2737  135.2765  155.2727 H   0  0  0  0  0  0  0  0  0  0  0  0  # atno 10763 bound_to 10752
  154.5279  135.5738  153.6738 H   0  0  0  0  0  0  0  0  0  0  0  0  # atno 10764 bound_to 10752
  152.9941  135.6220  154.2893 H   0  0  0  0  0  0  0  0  0  0  0  0  # atno 10765 bound_to 10752
  140.2656  134.3142  155.7844 H   0  0  0  0  0  0  0  0  0  0  0  0  # atno 11005 bound_to 11000
  145.9800  140.8691  143.0119 LP  0  0  0  0  0  0  0  0  0  0  0  0  # atno 17320 bound_to 7965
  144.6760  140.2066  143.7381 LP  0  0  0  0  0  0  0  0  0  0  0  0  # atno 17321 bound_to 7965
  139.9584  143.6192  152.3009 LP  0  0  0  0  0  0  0  0  0  0  0  0  # atno 17342 bound_to 10162
  139.6736  144.7660  151.1738 LP  0  0  0  0  0  0  0  0  0  0  0  0  # atno 17343 bound_to 10162
  156.5336  130.8268  151.3245 LP  0  0  0  0  0  0  0  0  0  0  0  0  # atno 17370 bound_to 10713
  157.7401  130.9843  150.2354 LP  0  0  0  0  0  0  0  0  0  0  0  0  # atno 17371 bound_to 10713
  141.2184  133.7435  156.9255 LP  0  0  0  0  0  0  0  0  0  0  0  0  # atno 17394 bound_to 11000
  140.1422  134.9286  157.2482 LP  0  0  0  0  0  0  0  0  0  0  0  0  # atno 17395 bound_to 11000

$$$$
