AV-unprocessed.smi:3094|AV-procd|sdf|11789|dock2
  -GOLD-   2272017163D 1   1.00000     0.00000
 Structure written by MMmdl.
 30 31  0  0  0  0  0  0  0  0  2 V2000
  149.3155  140.4745  156.8768 C   0  0  0  0  0  0  0  0  0  0  0  0
  149.6388  141.4185  155.7108 C   0  0  1  0  0  0  0  0  0  0  0  0
  148.4002  141.6470  154.8174 C   0  0  0  0  0  0  0  0  0  0  0  0
  148.0374  140.4645  154.0292 N   0  0  0  0  0  0  0  0  0  0  0  0
  146.8229  140.1914  153.4542 C   0  0  0  0  0  0  0  0  0  0  0  0
  146.9482  138.9743  152.8355 C   0  0  0  0  0  0  0  0  0  0  0  0
  148.2342  138.5586  153.0544 N   0  3  0  0  0  0  0  0  0  0  0  0
  148.8966  139.4684  153.7758 C   0  0  0  0  0  0  0  0  0  0  0  0
  150.1407  142.6810  156.2528 N   0  0  0  0  0  0  0  0  0  0  0  0
  151.1947  142.8218  157.0725 C   0  0  0  0  0  0  0  0  0  0  0  0
  151.8818  141.8727  157.4531 O   0  0  0  0  0  0  0  0  0  0  0  0
  151.4720  144.2354  157.4649 C   0  0  0  0  0  0  0  0  0  0  0  0
  152.7561  144.5106  158.2200 C   0  0  0  0  0  0  0  0  0  0  0  0
  151.4331  144.5785  158.9401 C   0  0  0  0  0  0  0  0  0  0  0  0
  148.9753  139.5045  156.5134 H   0  0  0  0  0  0  0  0  0  0  0  0
  148.5319  140.8840  157.5155 H   0  0  0  0  0  0  0  0  0  0  0  0
  150.1950  140.3007  157.4980 H   0  0  0  0  0  0  0  0  0  0  0  0
  150.4187  140.9381  155.1169 H   0  0  0  0  0  0  0  0  0  0  0  0
  147.5336  141.8957  155.4314 H   0  0  0  0  0  0  0  0  0  0  0  0
  148.5563  142.4875  154.1389 H   0  0  0  0  0  0  0  0  0  0  0  0
  145.9798  140.8624  153.5326 H   0  0  0  0  0  0  0  0  0  0  0  0
  146.2371  138.3881  152.2721 H   0  0  0  0  0  0  0  0  0  0  0  0
  149.9196  139.4042  154.1012 H   0  0  0  0  0  0  0  0  0  0  0  0
  149.6352  143.5161  155.9932 H   0  0  0  0  0  0  0  0  0  0  0  0
  151.1392  145.0079  156.7729 H   0  0  0  0  0  0  0  0  0  0  0  0
  153.4112  143.6733  158.4546 H   0  0  0  0  0  0  0  0  0  0  0  0
  153.2666  145.4461  158.0012 H   0  0  0  0  0  0  0  0  0  0  0  0
  151.0476  145.5599  159.2087 H   0  0  0  0  0  0  0  0  0  0  0  0
  151.2107  143.7871  159.6537 H   0  0  0  0  0  0  0  0  0  0  0  0
  148.6285  137.6872  152.7225 H   0  0  0  0  0  0  0  0  0  0  0  0
  1  2  1  0  0  0  0
  1 15  1  0  0  0  0
  1 16  1  0  0  0  0
  1 17  1  0  0  0  0
  2  3  1  0  0  0  0
  2  9  1  0  0  0  0
  2 18  1  0  0  0  0
  3  4  1  0  0  0  0
  3 19  1  0  0  0  0
  3 20  1  0  0  0  0
  4  8  1  0  0  0  0
  4  5  1  0  0  0  0
  5  6  2  0  0  0  0
  5 21  1  0  0  0  0
  6  7  1  0  0  0  0
  6 22  1  0  0  0  0
  7  8  2  0  0  0  0
  7 30  1  0  0  0  0
  8 23  1  0  0  0  0
  9 10  1  0  0  0  0
  9 24  1  0  0  0  0
 10 11  2  0  0  0  0
 10 12  1  0  0  0  0
 12 14  1  0  0  0  0
 12 13  1  0  0  0  0
 12 25  1  0  0  0  0
 13 14  1  0  0  0  0
 13 26  1  0  0  0  0
 13 27  1  0  0  0  0
 14 28  1  0  0  0  0
 14 29  1  0  0  0  0
M  CHG  1   7   1
M  END
> <s_m_source_file>
AV-unprocessed.smi

> <i_m_source_file_index>
3094

> <i_lp_mmshare_version>
43012

> <i_f3d_flags>
0

> <s_epik_input>
W0NIMl0xW0NIMl1bQ0hdMUMoPU8pW05IXVtDQEhdKFtDSDNdKVtDSDJdbjJbY0hdW2NIXW5bY0hdMg==

> <s_epik_cmdline>
J2VwaWtfcHl0aG9uJywgJy1waCcsICc3LjAnLCAnLXRuJywgJzgnLCAnLW1hJywgJzIwMCcsICctbWV0YWxfYmluZGluZycsICctaW1hZScsICc8aW5maWxlLm1hZT4nLCAnLW9tYWUnLCAnPG91dGZpbGUubWFlPic=

> <r_lp_tautomer_probability>
1

> <r_epik_Ionization_Penalty>
0.244425

> <r_epik_Ionization_Penalty_Charging>
0

> <r_epik_Ionization_Penalty_Neutral>
0.244425

> <r_epik_State_Penalty>
0.23553

> <r_epik_Charging_Adjusted_Penalty>
0.23553

> <i_epik_Tot_Q>
1

> <i_epik_Tot_abs_Q>
1

> <r_epik_Metal_State_Penalty>
0.528799

> <b_epik_Metal_Only>
0

> <s_lp_Force_Field>
OPLS_2005

> <r_lp_Energy>
8.84251

> <b_lp_Chiralities_Consistent>
1

> <s_lp_Variant>
AV-unprocessed.smi:3094-2

> <Gold.Version>
5.8.1

> <Gold.Id.Protein>
6NUR|6NUR_protein|mol2

> <Gold.PLP.Fitness>
42.3344

> <Gold.PLP.PLP>
-32.7577

> <Gold.PLP.part.hbond>
-3.0000

> <Gold.PLP.part.metal>
0.0000

> <Gold.PLP.part.buried>
1.2884

> <Gold.PLP.part.nonpolar>
-30.8400

> <Gold.PLP.part.repulsive>
0.1823

> <Gold.PLP.ligand.clash>
0.0000

> <Gold.PLP.ligand.torsion>
0.4249

> <Gold.PLP.Chemscore.Hbond>
3.0000

> <Gold.PLP.Chemscore.CHOScore>
0.4489

> <Gold.PLP.Chemscore.Metal>
0.0000

> <Gold.Chemscore.Hbonds>
donor molecule, donor type, donor heavy atom, donor atom, acceptor molecule, acceptor atom, score
      L1  H     7    30       P1  7948  2.00
      L1  H     9    24       P1  8028  0.81
      L1  C     5    21       P1 10175  0.87

> <Gold.PLP.Chemscore.Internal.Correction>
0.0797

> <Gold.Rescore>
     Score         DG    S(hbond)    S(metal)    S(lipo)     H(rot)  DE(clash)    DE(int)     intcor
     12.94     -15.42       1.98        0.00      70.01       1.90       1.26       1.23       ----

> <Gold.Chemscore.Fitness>
12.9424

> <Gold.Chemscore.DG>
-15.4229

> <Gold.Chemscore.ZeroCoef>
-5.4800

> <Gold.Chemscore.Hbond>
1.9823

> <Gold.Chemscore.Metal>
0.0000

> <Gold.Chemscore.Lipo>
70.0068

> <Gold.Chemscore.Internal_Hbond>
0.0000

> <Gold.Chemscore.DEClash>
1.2551

> <Gold.Chemscore.DEInternal>
1.2253

> <Gold.Chemscore.Rot>
1.9019

> <Gold.Chemscore.Internal.Correction>
   9.000000E+99

> <Gold.Chemscore.Hbonds>
donor molecule, donor type, donor heavy atom, donor atom, acceptor molecule, acceptor atom, score
      L1  H     7    30       P1  7948  1.00
      L1  H     9    24       P1  8028  0.80

> <Gold.Chemscore.Hbond.Weighted>
-6.6210

> <Gold.Chemscore.Metal.Weighted>
-0.0000

> <Gold.Chemscore.Lipo.Weighted>
-8.1908

> <Gold.Chemscore.Internal_Hbond.Weighted>
0.0000

> <Gold.Chemscore.DEClash.Weighted>
1.2551

> <Gold.Chemscore.DEInternal.Weighted>
1.2253

> <Gold.Chemscore.Rot.Weighted>
4.8689

> <Gold.Chemscore.Internal.Correction.Weighted>
   9.000000E+99

> <Gold.Protein.RotatedTorsions>
[ 6907 6896 6895 6894 ] final  179.56 input  -60.11 | X-H torsion
[ 7974 7965 7964 7962 ] final  -85.10 input  175.53 | X-H torsion
[ 8008 7997 7996 7995 ] final -106.23 input   59.86 | X-H torsion
[ 10167 10162 10161 10158 ] final  -22.32 input  -65.29 | X-H torsion
[ 10718 10713 10712 10709 ] final -164.30 input   66.30 | X-H torsion
[ 10763 10752 10751 10750 ] final   51.51 input  -60.55 | X-H torsion
[ 11005 11000 10999 10996 ] final -174.31 input  -57.11 | X-H torsion

> <Gold.Protein.ActiveResidues>
 VAL166  LYS551  ARG553  GLY616  TRP617  ASP618  TYR619  PRO620  LYS621  CYS622 
 ASP623  PHE694  ASN695  SER759  ASP760  ASP761  ALA762  ILE779  LEU786  VAL792 
 PHE793  MET794  SER795  GLU796  ALA797  LYS798  CYS799  TRP800  GLU811  SER814 

> <Gold.Protein.RotatedAtoms>
  151.6697  133.3314  159.3193 H   0  0  0  0  0  0  0  0  0  0  0  0  # atno 6907 bound_to 6896
  150.7874  134.6873  159.6486 H   0  0  0  0  0  0  0  0  0  0  0  0  # atno 6908 bound_to 6896
  152.3946  134.6390  160.0146 H   0  0  0  0  0  0  0  0  0  0  0  0  # atno 6909 bound_to 6896
  145.4978  140.9549  143.1776 H   0  0  0  0  0  0  0  0  0  0  0  0  # atno 7974 bound_to 7965
  154.9115  140.0410  157.1949 H   0  0  0  0  0  0  0  0  0  0  0  0  # atno 8008 bound_to 7997
  154.8343  140.2904  155.5680 H   0  0  0  0  0  0  0  0  0  0  0  0  # atno 8009 bound_to 7997
  156.2988  140.2495  156.3274 H   0  0  0  0  0  0  0  0  0  0  0  0  # atno 8010 bound_to 7997
  140.7285  143.4545  151.0468 H   0  0  0  0  0  0  0  0  0  0  0  0  # atno 10167 bound_to 10162
  156.6370  130.8953  151.2989 H   0  0  0  0  0  0  0  0  0  0  0  0  # atno 10718 bound_to 10713
  152.9785  135.5843  154.4428 H   0  0  0  0  0  0  0  0  0  0  0  0  # atno 10763 bound_to 10752
  154.4027  135.2769  155.2088 H   0  0  0  0  0  0  0  0  0  0  0  0  # atno 10764 bound_to 10752
  154.3912  135.6125  153.5898 H   0  0  0  0  0  0  0  0  0  0  0  0  # atno 10765 bound_to 10752
  140.4759  134.6121  157.4900 H   0  0  0  0  0  0  0  0  0  0  0  0  # atno 11005 bound_to 11000
  144.7797  139.6552  143.7159 LP  0  0  0  0  0  0  0  0  0  0  0  0  # atno 17320 bound_to 7965
  146.2245  139.5696  142.9596 LP  0  0  0  0  0  0  0  0  0  0  0  0  # atno 17321 bound_to 7965
  139.8225  143.7801  152.3177 LP  0  0  0  0  0  0  0  0  0  0  0  0  # atno 17342 bound_to 10162
  139.7888  144.7418  150.9983 LP  0  0  0  0  0  0  0  0  0  0  0  0  # atno 17343 bound_to 10162
  157.7182  130.9525  150.1337 LP  0  0  0  0  0  0  0  0  0  0  0  0  # atno 17370 bound_to 10713
  156.2189  130.3672  149.8580 LP  0  0  0  0  0  0  0  0  0  0  0  0  # atno 17371 bound_to 10713
  139.9856  134.7067  155.9780 LP  0  0  0  0  0  0  0  0  0  0  0  0  # atno 17394 bound_to 11000
  141.1555  133.6543  156.4147 LP  0  0  0  0  0  0  0  0  0  0  0  0  # atno 17395 bound_to 11000

$$$$
