AV-unprocessed.smi:221|AV-procd|sdf|1694|dock3
  -GOLD-   2262020143D 1   1.00000     0.00000
 Structure written by MMmdl.
 50 53  0  0  0  0  0  0  0  0  1 V2000
  151.2972  134.7841  156.2007 N   0  0  0  0  0  0  0  0  0  0  0  0
  150.4547  134.5961  157.2190 C   0  0  0  0  0  0  0  0  0  0  0  0
  150.7162  133.8388  158.1522 O   0  0  0  0  0  0  0  0  0  0  0  0
  149.1406  135.3898  157.1854 C   0  0  2  0  0  0  0  0  0  0  0  0
  147.9141  134.4704  157.2539 C   0  0  0  0  0  0  0  0  0  0  0  0
  146.8126  135.3166  156.6252 C   0  0  1  0  0  0  0  0  0  0  0  0
  146.3193  136.1559  157.5370 F   0  0  0  0  0  0  0  0  0  0  0  0
  147.5508  136.1105  155.5448 C   0  0  0  0  0  0  0  0  0  0  0  0
  148.9606  136.1158  155.9264 N   0  0  0  0  0  0  0  0  0  0  0  0
  149.5863  137.3104  155.8392 C   0  0  0  0  0  0  0  0  0  0  0  0
  149.6278  137.9003  154.6198 N   0  0  0  0  0  0  0  0  0  0  0  0
  150.2395  139.0792  154.4694 C   0  0  0  0  0  0  0  0  0  0  0  0
  150.8597  139.8224  155.3892 N   0  0  0  0  0  0  0  0  0  0  0  0
  150.8175  139.2283  156.6164 C   0  0  0  0  0  0  0  0  0  0  0  0
  150.2043  137.9836  156.9300 C   0  0  0  0  0  0  0  0  0  0  0  0
  150.3600  137.7041  158.2825 N   0  0  0  0  0  0  0  0  0  0  0  0
  151.0312  138.7246  158.7420 C   0  0  0  0  0  0  0  0  0  0  0  0
  151.3540  139.6828  157.8075 N   0  0  0  0  0  0  0  0  0  0  0  0
  152.0960  140.9092  158.0355 C   0  0  0  0  0  0  0  0  0  0  0  0
  151.2987  141.9778  158.8236 C   0  0  2  0  0  0  0  0  0  0  0  0
  150.2995  142.7649  157.9363 C   0  0  0  0  0  0  0  0  0  0  0  0
  150.9682  143.5680  156.9854 O   0  0  0  0  0  0  0  0  0  0  0  0
  152.2741  142.8922  159.6080 C   0  0  1  0  0  0  0  0  0  0  0  0
  151.6309  143.9406  160.5091 C   0  0  0  0  0  0  0  0  0  0  0  0
  152.7040  144.1550  161.5670 C   0  0  0  0  0  0  0  0  0  0  0  0
  153.1861  142.8411  161.7936 O   0  0  0  0  0  0  0  0  0  0  0  0
  153.2578  142.1652  160.5425 C   0  0  0  0  0  0  0  0  0  0  0  0
  149.1140  136.0855  158.0264 H   0  0  0  0  0  0  0  0  0  0  0  0
  145.9811  134.7283  156.2365 H   0  0  0  0  0  0  0  0  0  0  0  0
  152.1725  134.2815  156.1767 H   0  0  0  0  0  0  0  0  0  0  0  0
  151.0562  135.4236  155.4575 H   0  0  0  0  0  0  0  0  0  0  0  0
  148.0673  133.5709  156.6544 H   0  0  0  0  0  0  0  0  0  0  0  0
  147.6753  134.1577  158.2710 H   0  0  0  0  0  0  0  0  0  0  0  0
  147.4738  135.5954  154.5867 H   0  0  0  0  0  0  0  0  0  0  0  0
  147.1238  137.1060  155.4102 H   0  0  0  0  0  0  0  0  0  0  0  0
  150.2316  139.4844  153.4684 H   0  0  0  0  0  0  0  0  0  0  0  0
  151.3189  138.8023  159.7804 H   0  0  0  0  0  0  0  0  0  0  0  0
  153.0092  140.6476  158.5712 H   0  0  0  0  0  0  0  0  0  0  0  0
  152.4087  141.3070  157.0695 H   0  0  0  0  0  0  0  0  0  0  0  0
  150.7165  141.4532  159.5832 H   0  0  0  0  0  0  0  0  0  0  0  0
  149.6471  142.0925  157.3808 H   0  0  0  0  0  0  0  0  0  0  0  0
  149.6511  143.3961  158.5446 H   0  0  0  0  0  0  0  0  0  0  0  0
  150.3288  144.1036  156.5410 H   0  0  0  0  0  0  0  0  0  0  0  0
  152.8881  143.4271  158.8814 H   0  0  0  0  0  0  0  0  0  0  0  0
  151.3725  144.8572  159.9783 H   0  0  0  0  0  0  0  0  0  0  0  0
  150.7283  143.5609  160.9866 H   0  0  0  0  0  0  0  0  0  0  0  0
  153.5109  144.7829  161.1859 H   0  0  0  0  0  0  0  0  0  0  0  0
  152.3145  144.6052  162.4803 H   0  0  0  0  0  0  0  0  0  0  0  0
  153.0287  141.1084  160.6786 H   0  0  0  0  0  0  0  0  0  0  0  0
  154.2740  142.2298  160.1514 H   0  0  0  0  0  0  0  0  0  0  0  0
  1  2  1  0  0  0  0
  1 30  1  0  0  0  0
  1 31  1  0  0  0  0
  2  3  2  0  0  0  0
  2  4  1  0  0  0  0
  4 28  1  0  0  0  0
  4  9  1  0  0  0  0
  4  5  1  0  0  0  0
  5  6  1  0  0  0  0
  5 32  1  0  0  0  0
  5 33  1  0  0  0  0
  6 29  1  0  0  0  0
  6  7  1  0  0  0  0
  6  8  1  0  0  0  0
  8  9  1  0  0  0  0
  8 34  1  0  0  0  0
  8 35  1  0  0  0  0
  9 10  1  0  0  0  0
 10 15  1  0  0  0  0
 10 11  2  0  0  0  0
 11 12  1  0  0  0  0
 12 13  2  0  0  0  0
 12 36  1  0  0  0  0
 13 14  1  0  0  0  0
 14 18  1  0  0  0  0
 14 15  2  0  0  0  0
 15 16  1  0  0  0  0
 16 17  2  0  0  0  0
 17 18  1  0  0  0  0
 17 37  1  0  0  0  0
 18 19  1  0  0  0  0
 19 20  1  0  0  0  0
 19 38  1  0  0  0  0
 19 39  1  0  0  0  0
 20 21  1  0  0  0  0
 20 23  1  0  0  0  0
 20 40  1  0  0  0  0
 21 22  1  0  0  0  0
 21 41  1  0  0  0  0
 21 42  1  0  0  0  0
 22 43  1  0  0  0  0
 23 27  1  0  0  0  0
 23 24  1  0  0  0  0
 23 44  1  0  0  0  0
 24 25  1  0  0  0  0
 24 45  1  0  0  0  0
 24 46  1  0  0  0  0
 25 26  1  0  0  0  0
 25 47  1  0  0  0  0
 25 48  1  0  0  0  0
 26 27  1  0  0  0  0
 27 49  1  0  0  0  0
 27 50  1  0  0  0  0
M  END
> <s_m_source_file>
AV-unprocessed.smi

> <i_m_source_file_index>
221

> <i_lp_mmshare_version>
43012

> <i_f3d_flags>
0

> <s_epik_input>
W05IMl1DKD1PKVtDQEBIXTFbQ0gyXVtDQEBIXShGKVtDSDJdTjFjKG5bY0hdbjIpYyhjMjMpbltjSF1uM1tDSDJdW0NASF0oW0NIMl1bT0hdKVtDQEBIXTRbQ0gyXVtDSDJdT1tDSDJdNA==

> <s_epik_cmdline>
J2VwaWtfcHl0aG9uJywgJy1waCcsICc3LjAnLCAnLXRuJywgJzgnLCAnLW1hJywgJzIwMCcsICctbWV0YWxfYmluZGluZycsICctaW1hZScsICc8aW5maWxlLm1hZT4nLCAnLW9tYWUnLCAnPG91dGZpbGUubWFlPic=

> <r_lp_tautomer_probability>
1

> <r_epik_Ionization_Penalty>
0.000818822

> <r_epik_Ionization_Penalty_Charging>
0

> <r_epik_Ionization_Penalty_Neutral>
0.000818822

> <r_epik_State_Penalty>
0.000440551

> <r_epik_Charging_Adjusted_Penalty>
0.000440551

> <i_epik_Tot_Q>
0

> <i_epik_Tot_abs_Q>
0

> <r_epik_Metal_State_Penalty>
-0

> <b_epik_Metal_Only>
0

> <s_lp_Force_Field>
OPLS_2005

> <r_lp_Energy>
51.8706

> <b_lp_Chiralities_Consistent>
1

> <s_lp_Variant>
AV-unprocessed.smi:221-9

> <Gold.Version>
5.8.1

> <Gold.Id.Protein>
6NUR|6NUR_protein|mol2

> <Gold.PLP.Fitness>
40.3398

> <Gold.PLP.PLP>
-32.4352

> <Gold.PLP.part.hbond>
-2.8538

> <Gold.PLP.part.metal>
0.0000

> <Gold.PLP.part.buried>
-6.6301

> <Gold.PLP.part.nonpolar>
-24.0139

> <Gold.PLP.part.repulsive>
0.5500

> <Gold.PLP.ligand.clash>
0.0000

> <Gold.PLP.ligand.torsion>
0.5784

> <Gold.PLP.Chemscore.Hbond>
1.9280

> <Gold.PLP.Chemscore.CHOScore>
1.0000

> <Gold.PLP.Chemscore.Metal>
0.0000

> <Gold.Chemscore.Hbonds>
donor molecule, donor type, donor heavy atom, donor atom, acceptor molecule, acceptor atom, score
      L1  H    22    43       P1  8028  1.00
      P1  H  7989  7998       L1    13  0.02
      L1  C    12    36       P1  7957  1.00

> <Gold.PLP.Chemscore.Internal.Correction>
0.2774

> <Gold.Rescore>
     Score         DG    S(hbond)    S(metal)    S(lipo)     H(rot)  DE(clash)    DE(int)     intcor
      8.52     -10.49       1.96        0.00      68.34       3.72       0.22       1.76       ----

> <Gold.Chemscore.Fitness>
8.5159

> <Gold.Chemscore.DG>
-10.4906

> <Gold.Chemscore.ZeroCoef>
-5.4800

> <Gold.Chemscore.Hbond>
1.9575

> <Gold.Chemscore.Metal>
0.0000

> <Gold.Chemscore.Lipo>
68.3432

> <Gold.Chemscore.Internal_Hbond>
0.0000

> <Gold.Chemscore.DEClash>
0.2160

> <Gold.Chemscore.DEInternal>
1.7588

> <Gold.Chemscore.Rot>
3.7202

> <Gold.Chemscore.Internal.Correction>
   9.000000E+99

> <Gold.Chemscore.Hbonds>
donor molecule, donor type, donor heavy atom, donor atom, acceptor molecule, acceptor atom, score
      L1  H    22    43       P1  8028  1.00
      P1  H  6896  6909       L1     3  0.02

> <Gold.Chemscore.Hbond.Weighted>
-6.5382

> <Gold.Chemscore.Metal.Weighted>
-0.0000

> <Gold.Chemscore.Lipo.Weighted>
-7.9962

> <Gold.Chemscore.Internal_Hbond.Weighted>
0.0000

> <Gold.Chemscore.DEClash.Weighted>
0.2160

> <Gold.Chemscore.DEInternal.Weighted>
1.7588

> <Gold.Chemscore.Rot.Weighted>
9.5237

> <Gold.Chemscore.Internal.Correction.Weighted>
   9.000000E+99

> <Gold.Protein.RotatedTorsions>
[ 6907 6896 6895 6894 ] final   -1.34 input  -60.11 | X-H torsion
[ 7974 7965 7964 7962 ] final  -69.65 input  175.53 | X-H torsion
[ 8008 7997 7996 7995 ] final -133.25 input   59.86 | X-H torsion
[ 10167 10162 10161 10158 ] final  146.26 input  -65.29 | X-H torsion
[ 10718 10713 10712 10709 ] final -100.35 input   66.30 | X-H torsion
[ 10763 10752 10751 10750 ] final -140.86 input  -60.55 | X-H torsion
[ 11005 11000 10999 10996 ] final  -96.26 input  -57.11 | X-H torsion

> <Gold.Protein.ActiveResidues>
 VAL166  LYS551  ARG553  GLY616  TRP617  ASP618  TYR619  PRO620  LYS621  CYS622 
 ASP623  PHE694  ASN695  SER759  ASP760  ASP761  ALA762  ILE779  LEU786  VAL792 
 PHE793  MET794  SER795  GLU796  ALA797  LYS798  CYS799  TRP800  GLU811  SER814 

> <Gold.Protein.RotatedAtoms>
  151.5477  135.1068  159.9941 H   0  0  0  0  0  0  0  0  0  0  0  0  # atno 6907 bound_to 6896
  152.4506  133.7617  159.6761 H   0  0  0  0  0  0  0  0  0  0  0  0  # atno 6908 bound_to 6896
  150.8433  133.7834  159.3077 H   0  0  0  0  0  0  0  0  0  0  0  0  # atno 6909 bound_to 6896
  145.7010  140.9116  143.0731 H   0  0  0  0  0  0  0  0  0  0  0  0  # atno 7974 bound_to 7965
  155.3423  140.0473  157.3045 H   0  0  0  0  0  0  0  0  0  0  0  0  # atno 8008 bound_to 7997
  154.5270  140.2244  155.8836 H   0  0  0  0  0  0  0  0  0  0  0  0  # atno 8009 bound_to 7997
  156.1750  140.3087  155.9049 H   0  0  0  0  0  0  0  0  0  0  0  0  # atno 8010 bound_to 7997
  139.4910  144.5842  151.6812 H   0  0  0  0  0  0  0  0  0  0  0  0  # atno 10167 bound_to 10162
  156.0160  130.5323  150.6803 H   0  0  0  0  0  0  0  0  0  0  0  0  # atno 10718 bound_to 10713
  154.8565  135.3541  154.5775 H   0  0  0  0  0  0  0  0  0  0  0  0  # atno 10763 bound_to 10752
  153.6387  135.6999  153.5254 H   0  0  0  0  0  0  0  0  0  0  0  0  # atno 10764 bound_to 10752
  153.2989  135.4212  155.1194 H   0  0  0  0  0  0  0  0  0  0  0  0  # atno 10765 bound_to 10752
  141.1417  133.8085  157.0547 H   0  0  0  0  0  0  0  0  0  0  0  0  # atno 11005 bound_to 11000
  144.6968  139.8948  143.7455 LP  0  0  0  0  0  0  0  0  0  0  0  0  # atno 17320 bound_to 7965
  146.0797  139.3785  143.0472 LP  0  0  0  0  0  0  0  0  0  0  0  0  # atno 17321 bound_to 7965
  140.5454  144.0511  150.6105 LP  0  0  0  0  0  0  0  0  0  0  0  0  # atno 17342 bound_to 10162
  140.3547  143.2942  152.0448 LP  0  0  0  0  0  0  0  0  0  0  0  0  # atno 17343 bound_to 10162
  157.4507  131.0872  151.0849 LP  0  0  0  0  0  0  0  0  0  0  0  0  # atno 17370 bound_to 10713
  157.1365  130.6125  149.5543 LP  0  0  0  0  0  0  0  0  0  0  0  0  # atno 17371 bound_to 10713
  140.0609  134.9755  157.1303 LP  0  0  0  0  0  0  0  0  0  0  0  0  # atno 17394 bound_to 11000
  140.3850  134.2246  155.7169 LP  0  0  0  0  0  0  0  0  0  0  0  0  # atno 17395 bound_to 11000

$$$$
