AV-unprocessed.smi:68|AV-procd|sdf|640|dock6
  -GOLD-   2262016533D 1   1.00000     0.00000
 Structure written by MMmdl.
 23 24  0  0  0  0  0  0  0  0  1 V2000
  151.0122  139.3325  154.4042 O   0  0  0  0  0  0  0  0  0  0  0  0
  151.0725  140.0560  155.3962 C   0  0  0  0  0  0  0  0  0  0  0  0
  152.0236  139.8083  156.3903 N   0  0  0  0  0  0  0  0  0  0  0  0
  152.1903  140.5550  157.5581 C   0  0  0  0  0  0  0  0  0  0  0  0
  153.0764  140.2538  158.3568 O   0  0  0  0  0  0  0  0  0  0  0  0
  151.3149  141.6460  157.7565 N   0  0  0  0  0  0  0  0  0  0  0  0
  151.4571  142.4908  159.0024 C   0  0  1  0  0  0  0  0  0  0  0  0
  152.8374  143.1565  159.0516 C   0  0  0  0  0  0  0  0  0  0  0  0
  152.4952  144.5369  159.5689 C   0  0  0  0  0  0  0  0  0  0  0  0
  151.1338  144.7757  158.9286 C   0  0  0  0  0  0  0  0  0  0  0  0
  150.4930  143.5050  158.9866 O   0  0  0  0  0  0  0  0  0  0  0  0
  150.3639  141.9383  156.7876 C   0  0  0  0  0  0  0  0  0  0  0  0
  150.2152  141.2087  155.6567 C   0  0  0  0  0  0  0  0  0  0  0  0
  149.2725  141.5538  154.7634 F   0  0  0  0  0  0  0  0  0  0  0  0
  152.6452  139.0254  156.2497 H   0  0  0  0  0  0  0  0  0  0  0  0
  151.2482  141.8542  159.8637 H   0  0  0  0  0  0  0  0  0  0  0  0
  153.5234  142.6010  159.6917 H   0  0  0  0  0  0  0  0  0  0  0  0
  153.2581  143.2221  158.0467 H   0  0  0  0  0  0  0  0  0  0  0  0
  152.4022  144.5199  160.6557 H   0  0  0  0  0  0  0  0  0  0  0  0
  153.2338  145.2916  159.2980 H   0  0  0  0  0  0  0  0  0  0  0  0
  150.5530  145.5385  159.4472 H   0  0  0  0  0  0  0  0  0  0  0  0
  151.2485  145.0844  157.8891 H   0  0  0  0  0  0  0  0  0  0  0  0
  149.7082  142.7843  156.9240 H   0  0  0  0  0  0  0  0  0  0  0  0
  1  2  2  0  0  0  0
  2 13  1  0  0  0  0
  2  3  1  0  0  0  0
  3 15  1  0  0  0  0
  3  4  1  0  0  0  0
  4  5  2  0  0  0  0
  4  6  1  0  0  0  0
  6  7  1  0  0  0  0
  6 12  1  0  0  0  0
  7 11  1  0  0  0  0
  7  8  1  0  0  0  0
  7 16  1  0  0  0  0
  8  9  1  0  0  0  0
  8 17  1  0  0  0  0
  8 18  1  0  0  0  0
  9 10  1  0  0  0  0
  9 19  1  0  0  0  0
  9 20  1  0  0  0  0
 10 11  1  0  0  0  0
 10 21  1  0  0  0  0
 10 22  1  0  0  0  0
 12 13  2  0  0  0  0
 12 23  1  0  0  0  0
 13 14  1  0  0  0  0
M  END
> <s_m_source_file>
AV-unprocessed.smi

> <i_m_source_file_index>
68

> <i_lp_mmshare_version>
43012

> <i_f3d_flags>
0

> <s_epik_input>
Tz1jMVtuSF1jKD1PKW4oW2NIXWMxRilbQ0BASF0yW0NIMl1bQ0gyXVtDSDJdTzI=

> <s_epik_cmdline>
J2VwaWtfcHl0aG9uJywgJy1waCcsICc3LjAnLCAnLXRuJywgJzgnLCAnLW1hJywgJzIwMCcsICctbWV0YWxfYmluZGluZycsICctaW1hZScsICc8aW5maWxlLm1hZT4nLCAnLW9tYWUnLCAnPG91dGZpbGUubWFlPic=

> <r_lp_tautomer_probability>
0.999537

> <r_epik_Ionization_Penalty>
0.0350763

> <r_epik_Ionization_Penalty_Charging>
0.0350763

> <r_epik_Ionization_Penalty_Neutral>
6.20402e-12

> <r_epik_State_Penalty>
0.0292209

> <r_epik_Charging_Adjusted_Penalty>
0.0642972

> <i_epik_Tot_Q>
0

> <i_epik_Tot_abs_Q>
0

> <r_epik_Metal_State_Penalty>
2.33597

> <b_epik_Metal_Only>
0

> <s_epik_Chemistry_Notes>
This compound contains an acetal/aminal-like group ( X-CH(R)-Y where X, Y are N, S, or O) that may be acid/base labile, releasing an aldehyde.

> <s_lp_Force_Field>
OPLS_2005

> <r_lp_Energy>
24.1423

> <b_lp_Chiralities_Consistent>
1

> <s_lp_Variant>
AV-unprocessed.smi:68-2

> <Gold.Version>
5.8.1

> <Gold.Id.Protein>
6NUR|6NUR_protein|mol2

> <Gold.PLP.Fitness>
36.9341

> <Gold.PLP.PLP>
-30.4081

> <Gold.PLP.part.hbond>
-2.0000

> <Gold.PLP.part.metal>
0.0000

> <Gold.PLP.part.buried>
-1.7644

> <Gold.PLP.part.nonpolar>
-25.6470

> <Gold.PLP.part.repulsive>
0.3985

> <Gold.PLP.ligand.clash>
0.0000

> <Gold.PLP.ligand.torsion>
0.0062

> <Gold.PLP.Chemscore.Hbond>
1.1780

> <Gold.PLP.Chemscore.CHOScore>
1.0000

> <Gold.PLP.Chemscore.Metal>
0.0000

> <Gold.Chemscore.Hbonds>
donor molecule, donor type, donor heavy atom, donor atom, acceptor molecule, acceptor atom, score
      P1  H  7989  7998       L1     1  0.25
      P1  H  7997  8009       L1     5  0.93
      L1  C    12    23       P1  8028  1.00

> <Gold.PLP.Chemscore.Internal.Correction>
0.0045

> <Gold.Rescore>
     Score         DG    S(hbond)    S(metal)    S(lipo)     H(rot)  DE(clash)    DE(int)     intcor
     10.56     -11.69       0.82        0.00      51.64       1.00       0.06       1.07       ----

> <Gold.Chemscore.Fitness>
10.5605

> <Gold.Chemscore.DG>
-11.6878

> <Gold.Chemscore.ZeroCoef>
-5.4800

> <Gold.Chemscore.Hbond>
0.8162

> <Gold.Chemscore.Metal>
0.0000

> <Gold.Chemscore.Lipo>
51.6383

> <Gold.Chemscore.Internal_Hbond>
0.0000

> <Gold.Chemscore.DEClash>
0.0573

> <Gold.Chemscore.DEInternal>
1.0700

> <Gold.Chemscore.Rot>
1.0000

> <Gold.Chemscore.Internal.Correction>
   9.000000E+99

> <Gold.Chemscore.Hbonds>
donor molecule, donor type, donor heavy atom, donor atom, acceptor molecule, acceptor atom, score
      P1  H  7997  8009       L1     5  0.21

> <Gold.Chemscore.Hbond.Weighted>
-2.7261

> <Gold.Chemscore.Metal.Weighted>
-0.0000

> <Gold.Chemscore.Lipo.Weighted>
-6.0417

> <Gold.Chemscore.Internal_Hbond.Weighted>
0.0000

> <Gold.Chemscore.DEClash.Weighted>
0.0573

> <Gold.Chemscore.DEInternal.Weighted>
1.0700

> <Gold.Chemscore.Rot.Weighted>
2.5600

> <Gold.Chemscore.Internal.Correction.Weighted>
   9.000000E+99

> <Gold.Protein.RotatedTorsions>
[ 6907 6896 6895 6894 ] final  -46.81 input  -60.11 | X-H torsion
[ 7974 7965 7964 7962 ] final   34.48 input  175.53 | X-H torsion
[ 8008 7997 7996 7995 ] final  150.67 input   59.86 | X-H torsion
[ 10167 10162 10161 10158 ] final   -8.41 input  -65.29 | X-H torsion
[ 10718 10713 10712 10709 ] final -129.26 input   66.30 | X-H torsion
[ 10763 10752 10751 10750 ] final   59.52 input  -60.55 | X-H torsion
[ 11005 11000 10999 10996 ] final    3.25 input  -57.11 | X-H torsion

> <Gold.Protein.ActiveResidues>
 VAL166  LYS551  ARG553  GLY616  TRP617  ASP618  TYR619  PRO620  LYS621  CYS622 
 ASP623  PHE694  ASN695  SER759  ASP760  ASP761  ALA762  ILE779  LEU786  VAL792 
 PHE793  MET794  SER795  GLU796  ALA797  LYS798  CYS799  TRP800  GLU811  SER814 

> <Gold.Protein.RotatedAtoms>
  150.9074  134.8489  159.7401 H   0  0  0  0  0  0  0  0  0  0  0  0  # atno 6907 bound_to 6896
  152.4926  134.4411  159.9553 H   0  0  0  0  0  0  0  0  0  0  0  0  # atno 6908 bound_to 6896
  151.4457  133.3592  159.2823 H   0  0  0  0  0  0  0  0  0  0  0  0  # atno 6909 bound_to 6896
  146.1350  139.6264  142.9201 H   0  0  0  0  0  0  0  0  0  0  0  0  # atno 7974 bound_to 7965
  156.2706  140.2068  156.6054 H   0  0  0  0  0  0  0  0  0  0  0  0  # atno 8008 bound_to 7997
  154.6873  140.0534  157.0351 H   0  0  0  0  0  0  0  0  0  0  0  0  # atno 8009 bound_to 7997
  155.0915  140.3197  155.4575 H   0  0  0  0  0  0  0  0  0  0  0  0  # atno 8010 bound_to 7997
  140.7058  143.5972  150.8834 H   0  0  0  0  0  0  0  0  0  0  0  0  # atno 10167 bound_to 10162
  156.2030  130.6869  151.0561 H   0  0  0  0  0  0  0  0  0  0  0  0  # atno 10718 bound_to 10713
  152.9897  135.5569  154.5726 H   0  0  0  0  0  0  0  0  0  0  0  0  # atno 10763 bound_to 10752
  154.5123  135.2803  155.1334 H   0  0  0  0  0  0  0  0  0  0  0  0  # atno 10764 bound_to 10752
  154.2720  135.6361  153.5367 H   0  0  0  0  0  0  0  0  0  0  0  0  # atno 10765 bound_to 10752
  140.5952  133.9887  155.8107 H   0  0  0  0  0  0  0  0  0  0  0  0  # atno 11005 bound_to 11000
  145.5177  141.0433  143.2453 LP  0  0  0  0  0  0  0  0  0  0  0  0  # atno 17320 bound_to 7965
  144.7730  139.6693  143.7187 LP  0  0  0  0  0  0  0  0  0  0  0  0  # atno 17321 bound_to 7965
  139.9697  143.6071  152.2977 LP  0  0  0  0  0  0  0  0  0  0  0  0  # atno 17342 bound_to 10162
  139.6653  144.7662  151.1885 LP  0  0  0  0  0  0  0  0  0  0  0  0  # atno 17343 bound_to 10162
  157.6996  131.0781  150.6861 LP  0  0  0  0  0  0  0  0  0  0  0  0  # atno 17370 bound_to 10713
  156.6919  130.4597  149.5597 LP  0  0  0  0  0  0  0  0  0  0  0  0  # atno 17371 bound_to 10713
  141.0909  133.9919  157.3239 LP  0  0  0  0  0  0  0  0  0  0  0  0  # atno 17394 bound_to 11000
  139.9256  135.0201  156.8223 LP  0  0  0  0  0  0  0  0  0  0  0  0  # atno 17395 bound_to 11000

$$$$
