AV-unprocessed.smi:1900|AV-procd|sdf|7714|dock6
  -GOLD-   22720 9453D 1   1.00000     0.00000
 Structure written by MMmdl.
 43 44  0  0  0  0  0  0  0  0  1 V2000
  144.2243  145.0526  153.9404 C   0  0  0  0  0  0  0  0  0  0  0  0
  144.6802  143.7343  154.5746 C   0  0  1  0  0  0  0  0  0  0  0  0
  145.9597  143.1839  153.9170 C   0  0  0  0  0  0  0  0  0  0  0  0
  146.4338  141.9684  154.5692 N   0  0  0  0  0  0  0  0  0  0  0  0
  147.6456  141.4697  153.9205 C   0  0  0  0  0  0  0  0  0  0  0  0
  147.4312  140.3019  152.9422 C   0  0  0  0  0  0  0  0  0  0  0  0
  146.6584  139.1428  153.5914 C   0  0  0  0  0  0  0  0  0  0  0  0
  146.8028  137.9071  152.8301 N   0  0  0  0  0  0  0  0  0  0  0  0
  145.7866  137.1403  152.4097 C   0  0  0  0  0  0  0  0  0  0  0  0
  144.6035  137.3956  152.6339 O   0  0  0  0  0  0  0  0  0  0  0  0
  146.2302  136.0753  151.7223 N   0  0  0  0  0  0  0  0  0  0  0  0
  145.4484  135.0676  151.1039 C   0  0  0  0  0  0  0  0  0  0  0  0
  145.7357  133.6818  150.9297 C   0  0  0  0  0  0  0  0  0  0  0  0
  144.7466  133.0625  150.3011 N   0  0  0  0  0  0  0  0  0  0  0  0
  143.8345  134.0344  150.0742 N   0  0  0  0  0  0  0  0  0  0  0  0
  144.2215  135.2693  150.5458 C   0  0  0  0  0  0  0  0  0  0  0  0
  146.6300  142.2417  155.9912 C   0  0  0  0  0  0  0  0  0  0  0  0
  145.3551  142.7975  156.6555 C   0  0  1  0  0  0  0  0  0  0  0  0
  145.5827  143.1710  158.1241 C   0  0  0  0  0  0  0  0  0  0  0  0
  144.9338  143.9661  155.9573 O   0  0  0  0  0  0  0  0  0  0  0  0
  142.9628  133.8409  149.6018 H   0  0  0  0  0  0  0  0  0  0  0  0
  144.0060  144.9224  152.8801 H   0  0  0  0  0  0  0  0  0  0  0  0
  144.9923  145.8214  154.0332 H   0  0  0  0  0  0  0  0  0  0  0  0
  143.3203  145.4248  154.4226 H   0  0  0  0  0  0  0  0  0  0  0  0
  143.8758  143.0027  154.4796 H   0  0  0  0  0  0  0  0  0  0  0  0
  145.7633  142.9831  152.8629 H   0  0  0  0  0  0  0  0  0  0  0  0
  146.7399  143.9463  153.9479 H   0  0  0  0  0  0  0  0  0  0  0  0
  148.1009  142.2870  153.3592 H   0  0  0  0  0  0  0  0  0  0  0  0
  148.3777  141.1834  154.6772 H   0  0  0  0  0  0  0  0  0  0  0  0
  146.8844  140.6392  152.0619 H   0  0  0  0  0  0  0  0  0  0  0  0
  148.4003  139.9454  152.5904 H   0  0  0  0  0  0  0  0  0  0  0  0
  146.9881  138.9913  154.6207 H   0  0  0  0  0  0  0  0  0  0  0  0
  145.5970  139.3871  153.6399 H   0  0  0  0  0  0  0  0  0  0  0  0
  147.7432  137.6200  152.6019 H   0  0  0  0  0  0  0  0  0  0  0  0
  147.2300  135.9829  151.6196 H   0  0  0  0  0  0  0  0  0  0  0  0
  146.6019  133.1099  151.2275 H   0  0  0  0  0  0  0  0  0  0  0  0
  143.6080  136.1527  150.4461 H   0  0  0  0  0  0  0  0  0  0  0  0
  146.9238  141.3316  156.5130 H   0  0  0  0  0  0  0  0  0  0  0  0
  147.4466  142.9542  156.1197 H   0  0  0  0  0  0  0  0  0  0  0  0
  144.5615  142.0500  156.6033 H   0  0  0  0  0  0  0  0  0  0  0  0
  145.8983  142.3043  158.7052 H   0  0  0  0  0  0  0  0  0  0  0  0
  144.6676  143.5569  158.5739 H   0  0  0  0  0  0  0  0  0  0  0  0
  146.3511  143.9384  158.2219 H   0  0  0  0  0  0  0  0  0  0  0  0
  1  2  1  0  0  0  0
  1 22  1  0  0  0  0
  1 23  1  0  0  0  0
  1 24  1  0  0  0  0
  2 20  1  0  0  0  0
  2  3  1  0  0  0  0
  2 25  1  0  0  0  0
  3  4  1  0  0  0  0
  3 26  1  0  0  0  0
  3 27  1  0  0  0  0
  4  5  1  0  0  0  0
  4 17  1  0  0  0  0
  5  6  1  0  0  0  0
  5 28  1  0  0  0  0
  5 29  1  0  0  0  0
  6  7  1  0  0  0  0
  6 30  1  0  0  0  0
  6 31  1  0  0  0  0
  7  8  1  0  0  0  0
  7 32  1  0  0  0  0
  7 33  1  0  0  0  0
  8  9  1  0  0  0  0
  8 34  1  0  0  0  0
  9 10  2  0  0  0  0
  9 11  1  0  0  0  0
 11 12  1  0  0  0  0
 11 35  1  0  0  0  0
 12 16  2  0  0  0  0
 12 13  1  0  0  0  0
 13 14  2  0  0  0  0
 13 36  1  0  0  0  0
 14 15  1  0  0  0  0
 15 21  1  0  0  0  0
 15 16  1  0  0  0  0
 16 37  1  0  0  0  0
 17 18  1  0  0  0  0
 17 38  1  0  0  0  0
 17 39  1  0  0  0  0
 18 19  1  0  0  0  0
 18 20  1  0  0  0  0
 18 40  1  0  0  0  0
 19 41  1  0  0  0  0
 19 42  1  0  0  0  0
 19 43  1  0  0  0  0
M  END
> <s_m_source_file>
AV-unprocessed.smi

> <i_m_source_file_index>
1900

> <i_lp_mmshare_version>
43012

> <i_f3d_flags>
0

> <s_epik_input>
W0NIM11bQ0BASF0xW0NIMl1OKFtDSDJdW0NASF0oTzEpW0NIM10pW0NIMl1bQ0gyXVtDSDJdW05IXUMoPU8pW05IXWMyW2NIXW5bbkhdW2NIXTI=

> <s_epik_cmdline>
J2VwaWtfcHl0aG9uJywgJy1waCcsICc3LjAnLCAnLXRuJywgJzgnLCAnLW1hJywgJzIwMCcsICctbWV0YWxfYmluZGluZycsICctaW1hZScsICc8aW5maWxlLm1hZT4nLCAnLW9tYWUnLCAnPG91dGZpbGUubWFlPic=

> <r_lp_tautomer_probability>
0.5

> <r_epik_Ionization_Penalty>
0.594715

> <r_epik_Ionization_Penalty_Charging>
0

> <r_epik_Ionization_Penalty_Neutral>
0.594715

> <r_epik_State_Penalty>
0.608529

> <r_epik_Charging_Adjusted_Penalty>
0.608529

> <i_epik_Tot_Q>
0

> <i_epik_Tot_abs_Q>
0

> <r_epik_Metal_State_Penalty>
0.608528

> <b_epik_Metal_Only>
0

> <s_lp_Force_Field>
OPLS_2005

> <r_lp_Energy>
22.5064

> <b_lp_Chiralities_Consistent>
1

> <s_lp_Variant>
AV-unprocessed.smi:1900-6

> <Gold.Version>
5.8.1

> <Gold.Id.Protein>
6NUR|6NUR_protein|mol2

> <Gold.PLP.Fitness>
42.3203

> <Gold.PLP.PLP>
-32.5988

> <Gold.PLP.part.hbond>
-3.0000

> <Gold.PLP.part.metal>
0.0000

> <Gold.PLP.part.buried>
-4.7879

> <Gold.PLP.part.nonpolar>
-26.7549

> <Gold.PLP.part.repulsive>
1.0673

> <Gold.PLP.ligand.clash>
0.0000

> <Gold.PLP.ligand.torsion>
0.9199

> <Gold.PLP.Chemscore.Hbond>
2.8400

> <Gold.PLP.Chemscore.CHOScore>
1.0000

> <Gold.PLP.Chemscore.Metal>
0.0000

> <Gold.Chemscore.Hbonds>
donor molecule, donor type, donor heavy atom, donor atom, acceptor molecule, acceptor atom, score
      L1  H     8    34       P1  7948  0.98
      L1  H    11    35       P1  7948  1.00
      L1  H    15    21       P1 10186  0.81
      L1  C    16    37       P1 10171  1.00

> <Gold.PLP.Chemscore.Internal.Correction>
0.0413

> <Gold.Rescore>
     Score         DG    S(hbond)    S(metal)    S(lipo)     H(rot)  DE(clash)    DE(int)     intcor
     14.81     -17.31       2.74        0.00      63.98       1.88       0.51       1.99       ----

> <Gold.Chemscore.Fitness>
14.8060

> <Gold.Chemscore.DG>
-17.3051

> <Gold.Chemscore.ZeroCoef>
-5.4800

> <Gold.Chemscore.Hbond>
2.7403

> <Gold.Chemscore.Metal>
0.0000

> <Gold.Chemscore.Lipo>
63.9763

> <Gold.Chemscore.Internal_Hbond>
0.0000

> <Gold.Chemscore.DEClash>
0.5117

> <Gold.Chemscore.DEInternal>
1.9875

> <Gold.Chemscore.Rot>
1.8799

> <Gold.Chemscore.Internal.Correction>
   9.000000E+99

> <Gold.Chemscore.Hbonds>
donor molecule, donor type, donor heavy atom, donor atom, acceptor molecule, acceptor atom, score
      L1  H     8    34       P1  7948  0.91
      L1  H    11    35       P1  7948  1.00
      L1  H    15    21       P1 10186  0.77

> <Gold.Chemscore.Hbond.Weighted>
-9.1525

> <Gold.Chemscore.Metal.Weighted>
-0.0000

> <Gold.Chemscore.Lipo.Weighted>
-7.4852

> <Gold.Chemscore.Internal_Hbond.Weighted>
0.0000

> <Gold.Chemscore.DEClash.Weighted>
0.5117

> <Gold.Chemscore.DEInternal.Weighted>
1.9875

> <Gold.Chemscore.Rot.Weighted>
4.8126

> <Gold.Chemscore.Internal.Correction.Weighted>
   9.000000E+99

> <Gold.Protein.RotatedTorsions>
[ 6907 6896 6895 6894 ] final -123.63 input  -60.11 | X-H torsion
[ 7974 7965 7964 7962 ] final  -39.02 input  175.53 | X-H torsion
[ 8008 7997 7996 7995 ] final  -48.42 input   59.86 | X-H torsion
[ 10167 10162 10161 10158 ] final  -78.08 input  -65.29 | X-H torsion
[ 10718 10713 10712 10709 ] final  169.17 input   66.30 | X-H torsion
[ 10763 10752 10751 10750 ] final   26.27 input  -60.55 | X-H torsion
[ 11005 11000 10999 10996 ] final -143.58 input  -57.11 | X-H torsion

> <Gold.Protein.ActiveResidues>
 VAL166  LYS551  ARG553  GLY616  TRP617  ASP618  TYR619  PRO620  LYS621  CYS622 
 ASP623  PHE694  ASN695  SER759  ASP760  ASP761  ALA762  ILE779  LEU786  VAL792 
 PHE793  MET794  SER795  GLU796  ALA797  LYS798  CYS799  TRP800  GLU811  SER814 

> <Gold.Protein.RotatedAtoms>
  150.8689  133.7534  159.2967 H   0  0  0  0  0  0  0  0  0  0  0  0  # atno 6907 bound_to 6896
  151.5152  135.1064  159.9874 H   0  0  0  0  0  0  0  0  0  0  0  0  # atno 6908 bound_to 6896
  152.4681  133.7923  159.6964 H   0  0  0  0  0  0  0  0  0  0  0  0  # atno 6909 bound_to 6896
  146.0434  140.6578  142.9076 H   0  0  0  0  0  0  0  0  0  0  0  0  # atno 7974 bound_to 7965
  154.4029  140.1322  156.4335 H   0  0  0  0  0  0  0  0  0  0  0  0  # atno 8008 bound_to 7997
  155.7528  140.3487  155.5138 H   0  0  0  0  0  0  0  0  0  0  0  0  # atno 8009 bound_to 7997
  155.8933  140.1007  157.1393 H   0  0  0  0  0  0  0  0  0  0  0  0  # atno 8010 bound_to 7997
  140.4713  143.2426  151.8200 H   0  0  0  0  0  0  0  0  0  0  0  0  # atno 10167 bound_to 10162
  157.0265  131.0247  151.2758 H   0  0  0  0  0  0  0  0  0  0  0  0  # atno 10718 bound_to 10713
  153.0634  135.6564  154.0410 H   0  0  0  0  0  0  0  0  0  0  0  0  # atno 10763 bound_to 10752
  154.0073  135.2931  155.3398 H   0  0  0  0  0  0  0  0  0  0  0  0  # atno 10764 bound_to 10752
  154.6982  135.5255  153.8557 H   0  0  0  0  0  0  0  0  0  0  0  0  # atno 10765 bound_to 10752
  140.8111  134.2743  157.4940 H   0  0  0  0  0  0  0  0  0  0  0  0  # atno 11005 bound_to 11000
  144.7086  140.3950  143.7098 LP  0  0  0  0  0  0  0  0  0  0  0  0  # atno 17320 bound_to 7965
  145.6846  139.1626  143.2681 LP  0  0  0  0  0  0  0  0  0  0  0  0  # atno 17321 bound_to 7965
  139.4819  144.4888  151.9212 LP  0  0  0  0  0  0  0  0  0  0  0  0  # atno 17342 bound_to 10162
  140.3973  144.2539  150.5895 LP  0  0  0  0  0  0  0  0  0  0  0  0  # atno 17343 bound_to 10162
  157.5210  130.7998  149.7809 LP  0  0  0  0  0  0  0  0  0  0  0  0  # atno 17370 bound_to 10713
  156.0084  130.3844  150.2350 LP  0  0  0  0  0  0  0  0  0  0  0  0  # atno 17371 bound_to 10713
  139.8714  134.9483  156.3994 LP  0  0  0  0  0  0  0  0  0  0  0  0  # atno 17394 bound_to 11000
  140.9197  133.7654  155.9891 LP  0  0  0  0  0  0  0  0  0  0  0  0  # atno 17395 bound_to 11000

$$$$
