AV-unprocessed.smi:252|AV-procd|sdf|1943|dock9
  -GOLD-   2262021 73D 1   1.00000     0.00000
 Structure written by MMmdl.
 56 59  0  0  0  0  0  0  0  0  1 V2000
  146.3701  144.0306  161.5600 C   0  0  0  0  0  0  0  0  0  0  0  0
  147.1719  145.0538  160.7399 C   0  0  0  0  0  0  0  0  0  0  0  0
  148.5953  144.5949  160.4073 C   0  0  0  0  0  0  0  0  0  0  0  0
  149.3615  144.2124  161.2925 O   0  0  0  0  0  0  0  0  0  0  0  0
  148.9363  144.6419  159.1102 N   0  0  0  0  0  0  0  0  0  0  0  0
  150.2378  144.2669  158.5671 C   0  0  1  0  0  0  0  0  0  0  0  0
  151.3550  144.9644  159.3635 C   0  0  0  0  0  0  0  0  0  0  0  0
  152.7345  144.5113  158.8620 C   0  0  0  0  0  0  0  0  0  0  0  0
  152.8592  142.9801  158.9015 C   0  0  0  0  0  0  0  0  0  0  0  0
  151.7612  142.3498  158.1694 N   0  0  0  0  0  0  0  0  0  0  0  0
  151.9673  141.0464  157.8515 C   0  0  0  0  0  0  0  0  0  0  0  0
  152.6349  140.2341  158.7146 N   0  0  0  0  0  0  0  0  0  0  0  0
  152.8508  138.9523  158.4061 C   0  0  0  0  0  0  0  0  0  0  0  0
  152.4928  138.2872  157.3065 N   0  0  0  0  0  0  0  0  0  0  0  0
  151.8189  139.0939  156.4377 C   0  0  0  0  0  0  0  0  0  0  0  0
  151.5114  140.4705  156.6318 C   0  0  0  0  0  0  0  0  0  0  0  0
  150.7935  140.9519  155.5431 N   0  0  0  0  0  0  0  0  0  0  0  0
  150.6899  139.9221  154.7486 C   0  0  0  0  0  0  0  0  0  0  0  0
  151.2904  138.7686  155.2005 N   0  0  0  0  0  0  0  0  0  0  0  0
  151.3292  137.4831  154.5207 C   0  0  0  0  0  0  0  0  0  0  0  0
  150.2978  136.4515  155.0571 C   0  0  2  0  0  0  0  0  0  0  0  0
  150.1409  135.4036  154.1192 O   0  0  0  0  0  0  0  0  0  0  0  0
  148.9289  137.0467  155.3651 C   0  0  0  0  0  0  0  0  0  0  0  0
  149.1281  137.6283  156.7613 C   0  0  0  0  0  0  0  0  0  0  0  0
  150.1006  136.7970  157.3883 O   0  0  0  0  0  0  0  0  0  0  0  0
  150.6469  135.8786  156.4446 C   0  0  2  0  0  0  0  0  0  0  0  0
  152.1333  135.6212  156.7333 C   0  0  0  0  0  0  0  0  0  0  0  0
  150.4189  142.7356  158.6086 C   0  0  0  0  0  0  0  0  0  0  0  0
  145.3762  144.4151  161.7896 H   0  0  0  0  0  0  0  0  0  0  0  0
  146.8630  143.8054  162.5066 H   0  0  0  0  0  0  0  0  0  0  0  0
  146.2419  143.0951  161.0143 H   0  0  0  0  0  0  0  0  0  0  0  0
  146.6486  145.2671  159.8073 H   0  0  0  0  0  0  0  0  0  0  0  0
  147.2277  145.9932  161.2915 H   0  0  0  0  0  0  0  0  0  0  0  0
  148.2451  144.9679  158.4506 H   0  0  0  0  0  0  0  0  0  0  0  0
  150.3010  144.6023  157.5299 H   0  0  0  0  0  0  0  0  0  0  0  0
  151.2641  146.0477  159.2746 H   0  0  0  0  0  0  0  0  0  0  0  0
  151.2592  144.7284  160.4245 H   0  0  0  0  0  0  0  0  0  0  0  0
  152.8854  144.8623  157.8404 H   0  0  0  0  0  0  0  0  0  0  0  0
  153.5208  144.9646  159.4659 H   0  0  0  0  0  0  0  0  0  0  0  0
  153.8285  142.6881  158.4989 H   0  0  0  0  0  0  0  0  0  0  0  0
  152.8343  142.6326  159.9350 H   0  0  0  0  0  0  0  0  0  0  0  0
  153.3885  138.3774  159.1456 H   0  0  0  0  0  0  0  0  0  0  0  0
  150.1747  139.9775  153.8006 H   0  0  0  0  0  0  0  0  0  0  0  0
  151.1672  137.6639  153.4575 H   0  0  0  0  0  0  0  0  0  0  0  0
  152.3421  137.0885  154.6086 H   0  0  0  0  0  0  0  0  0  0  0  0
  149.6391  135.7278  153.3871 H   0  0  0  0  0  0  0  0  0  0  0  0
  148.5721  137.7780  154.6411 H   0  0  0  0  0  0  0  0  0  0  0  0
  148.1775  136.2567  155.4186 H   0  0  0  0  0  0  0  0  0  0  0  0
  149.5216  138.6434  156.7018 H   0  0  0  0  0  0  0  0  0  0  0  0
  148.2006  137.6582  157.3338 H   0  0  0  0  0  0  0  0  0  0  0  0
  150.1015  134.9433  156.5851 H   0  0  0  0  0  0  0  0  0  0  0  0
  152.5655  134.9473  155.9930 H   0  0  0  0  0  0  0  0  0  0  0  0
  152.2604  135.1622  157.7139 H   0  0  0  0  0  0  0  0  0  0  0  0
  152.7118  136.5450  156.7297 H   0  0  0  0  0  0  0  0  0  0  0  0
  150.2559  142.3672  159.6226 H   0  0  0  0  0  0  0  0  0  0  0  0
  149.6718  142.2622  157.9697 H   0  0  0  0  0  0  0  0  0  0  0  0
  1  2  1  0  0  0  0
  1 29  1  0  0  0  0
  1 30  1  0  0  0  0
  1 31  1  0  0  0  0
  2  3  1  0  0  0  0
  2 32  1  0  0  0  0
  2 33  1  0  0  0  0
  3  4  2  0  0  0  0
  3  5  1  0  0  0  0
  5  6  1  0  0  0  0
  5 34  1  0  0  0  0
  6 28  1  0  0  0  0
  6  7  1  0  0  0  0
  6 35  1  0  0  0  0
  7  8  1  0  0  0  0
  7 36  1  0  0  0  0
  7 37  1  0  0  0  0
  8  9  1  0  0  0  0
  8 38  1  0  0  0  0
  8 39  1  0  0  0  0
  9 10  1  0  0  0  0
  9 40  1  0  0  0  0
  9 41  1  0  0  0  0
 10 11  1  0  0  0  0
 10 28  1  0  0  0  0
 11 16  1  0  0  0  0
 11 12  2  0  0  0  0
 12 13  1  0  0  0  0
 13 14  2  0  0  0  0
 13 42  1  0  0  0  0
 14 15  1  0  0  0  0
 15 19  1  0  0  0  0
 15 16  2  0  0  0  0
 16 17  1  0  0  0  0
 17 18  2  0  0  0  0
 18 19  1  0  0  0  0
 18 43  1  0  0  0  0
 19 20  1  0  0  0  0
 20 21  1  0  0  0  0
 20 44  1  0  0  0  0
 20 45  1  0  0  0  0
 21 26  1  0  0  0  0
 21 22  1  0  0  0  0
 21 23  1  0  0  0  0
 22 46  1  0  0  0  0
 23 24  1  0  0  0  0
 23 47  1  0  0  0  0
 23 48  1  0  0  0  0
 24 25  1  0  0  0  0
 24 49  1  0  0  0  0
 24 50  1  0  0  0  0
 25 26  1  0  0  0  0
 26 27  1  0  0  0  0
 26 51  1  0  0  0  0
 27 52  1  0  0  0  0
 27 53  1  0  0  0  0
 27 54  1  0  0  0  0
 28 55  1  0  0  0  0
 28 56  1  0  0  0  0
M  END
> <s_m_source_file>
AV-unprocessed.smi

> <i_m_source_file_index>
252

> <i_lp_mmshare_version>
43012

> <i_f3d_flags>
0

> <s_epik_input>
W0NIM11bQ0gyXUMoPU8pW05IXVtDQEBIXTFbQ0gyXVtDSDJdW0NIMl1OKFtDSDJdMSljKG5bY0hdbjIpYyhjMjMpbltjSF1uM1tDSDJdW0NAQF00KFtPSF0pW0NIMl1bQ0gyXU9bQ0BIXTRbQ0gzXQ==

> <s_epik_cmdline>
J2VwaWtfcHl0aG9uJywgJy1waCcsICc3LjAnLCAnLXRuJywgJzgnLCAnLW1hJywgJzIwMCcsICctbWV0YWxfYmluZGluZycsICctaW1hZScsICc8aW5maWxlLm1hZT4nLCAnLW9tYWUnLCAnPG91dGZpbGUubWFlPic=

> <r_lp_tautomer_probability>
1

> <r_epik_Ionization_Penalty>
0.00182575

> <r_epik_Ionization_Penalty_Charging>
0

> <r_epik_Ionization_Penalty_Neutral>
0.00182575

> <r_epik_State_Penalty>
0.00104524

> <r_epik_Charging_Adjusted_Penalty>
0.00104524

> <i_epik_Tot_Q>
0

> <i_epik_Tot_abs_Q>
0

> <r_epik_Metal_State_Penalty>
-0

> <b_epik_Metal_Only>
0

> <s_lp_Force_Field>
OPLS_2005

> <r_lp_Energy>
35.9235

> <b_lp_Chiralities_Consistent>
1

> <s_lp_Variant>
AV-unprocessed.smi:252-8

> <Gold.Version>
5.8.1

> <Gold.Id.Protein>
6NUR|6NUR_protein|mol2

> <Gold.PLP.Fitness>
51.0053

> <Gold.PLP.PLP>
-44.5613

> <Gold.PLP.part.hbond>
-4.6671

> <Gold.PLP.part.metal>
0.0000

> <Gold.PLP.part.buried>
-2.5046

> <Gold.PLP.part.nonpolar>
-37.6890

> <Gold.PLP.part.repulsive>
0.4889

> <Gold.PLP.ligand.clash>
0.0000

> <Gold.PLP.ligand.torsion>
1.1570

> <Gold.PLP.Chemscore.Hbond>
2.2548

> <Gold.PLP.Chemscore.CHOScore>
0.5270

> <Gold.PLP.Chemscore.Metal>
0.0000

> <Gold.Chemscore.Hbonds>
donor molecule, donor type, donor heavy atom, donor atom, acceptor molecule, acceptor atom, score
      L1  H     5    34       P1  8029  0.96
      L1  H    22    46       P1  7948  0.75
      P1  H  6933  6944       L1     4  0.32
      L1  C    18    43       P1  7957  0.59

> <Gold.PLP.Chemscore.Internal.Correction>
0.4127

> <Gold.Rescore>
     Score         DG    S(hbond)    S(metal)    S(lipo)     H(rot)  DE(clash)    DE(int)     intcor
     10.48     -15.94       2.00        0.00      91.36       2.70       0.29       5.17       ----

> <Gold.Chemscore.Fitness>
10.4793

> <Gold.Chemscore.DG>
-15.9428

> <Gold.Chemscore.ZeroCoef>
-5.4800

> <Gold.Chemscore.Hbond>
2.0047

> <Gold.Chemscore.Metal>
0.0000

> <Gold.Chemscore.Lipo>
91.3640

> <Gold.Chemscore.Internal_Hbond>
0.0000

> <Gold.Chemscore.DEClash>
0.2928

> <Gold.Chemscore.DEInternal>
5.1707

> <Gold.Chemscore.Rot>
2.7041

> <Gold.Chemscore.Internal.Correction>
   9.000000E+99

> <Gold.Chemscore.Hbonds>
donor molecule, donor type, donor heavy atom, donor atom, acceptor molecule, acceptor atom, score
      L1  H     5    34       P1  8029  0.88
      L1  H    22    46       P1  7948  0.09
      P1  H  6933  6944       L1     4  0.04

> <Gold.Chemscore.Hbond.Weighted>
-6.6957

> <Gold.Chemscore.Metal.Weighted>
-0.0000

> <Gold.Chemscore.Lipo.Weighted>
-10.6896

> <Gold.Chemscore.Internal_Hbond.Weighted>
0.0000

> <Gold.Chemscore.DEClash.Weighted>
0.2928

> <Gold.Chemscore.DEInternal.Weighted>
5.1707

> <Gold.Chemscore.Rot.Weighted>
6.9225

> <Gold.Chemscore.Internal.Correction.Weighted>
   9.000000E+99

> <Gold.Protein.RotatedTorsions>
[ 6907 6896 6895 6894 ] final  -77.56 input  -60.11 | X-H torsion
[ 7974 7965 7964 7962 ] final   -5.18 input  175.53 | X-H torsion
[ 8008 7997 7996 7995 ] final  -48.36 input   59.86 | X-H torsion
[ 10167 10162 10161 10158 ] final  105.34 input  -65.29 | X-H torsion
[ 10718 10713 10712 10709 ] final  177.69 input   66.30 | X-H torsion
[ 10763 10752 10751 10750 ] final  -57.76 input  -60.55 | X-H torsion
[ 11005 11000 10999 10996 ] final  173.41 input  -57.11 | X-H torsion

> <Gold.Protein.ActiveResidues>
 VAL166  LYS551  ARG553  GLY616  TRP617  ASP618  TYR619  PRO620  LYS621  CYS622 
 ASP623  PHE694  ASN695  SER759  ASP760  ASP761  ALA762  ILE779  LEU786  VAL792 
 PHE793  MET794  SER795  GLU796  ALA797  LYS798  CYS799  TRP800  GLU811  SER814 

> <Gold.Protein.RotatedAtoms>
  150.6995  134.4404  159.5289 H   0  0  0  0  0  0  0  0  0  0  0  0  # atno 6907 bound_to 6896
  152.2115  134.8495  160.0506 H   0  0  0  0  0  0  0  0  0  0  0  0  # atno 6908 bound_to 6896
  151.9378  133.3594  159.3991 H   0  0  0  0  0  0  0  0  0  0  0  0  # atno 6909 bound_to 6896
  146.2358  140.1983  142.8333 H   0  0  0  0  0  0  0  0  0  0  0  0  # atno 7974 bound_to 7965
  154.4028  140.1323  156.4326 H   0  0  0  0  0  0  0  0  0  0  0  0  # atno 8008 bound_to 7997
  155.7536  140.3487  155.5143 H   0  0  0  0  0  0  0  0  0  0  0  0  # atno 8009 bound_to 7997
  155.8926  140.1006  157.1398 H   0  0  0  0  0  0  0  0  0  0  0  0  # atno 8010 bound_to 7997
  139.7101  144.7079  151.1041 H   0  0  0  0  0  0  0  0  0  0  0  0  # atno 10167 bound_to 10162
  156.9017  130.9881  151.3034 H   0  0  0  0  0  0  0  0  0  0  0  0  # atno 10718 bound_to 10713
  154.2275  135.6366  153.5164 H   0  0  0  0  0  0  0  0  0  0  0  0  # atno 10763 bound_to 10752
  152.9956  135.5511  154.6048 H   0  0  0  0  0  0  0  0  0  0  0  0  # atno 10764 bound_to 10752
  154.5523  135.2902  155.0971 H   0  0  0  0  0  0  0  0  0  0  0  0  # atno 10765 bound_to 10752
  140.3402  134.7283  157.4196 H   0  0  0  0  0  0  0  0  0  0  0  0  # atno 11005 bound_to 11000
  144.9803  140.8452  143.5401 LP  0  0  0  0  0  0  0  0  0  0  0  0  # atno 17320 bound_to 7965
  145.1975  139.2269  143.5210 LP  0  0  0  0  0  0  0  0  0  0  0  0  # atno 17321 bound_to 7965
  140.7731  143.5305  150.9429 LP  0  0  0  0  0  0  0  0  0  0  0  0  # atno 17342 bound_to 10162
  139.8989  143.6860  152.3134 LP  0  0  0  0  0  0  0  0  0  0  0  0  # atno 17343 bound_to 10162
  157.6022  130.8521  149.8820 LP  0  0  0  0  0  0  0  0  0  0  0  0  # atno 17370 bound_to 10713
  156.0579  130.3705  150.1049 LP  0  0  0  0  0  0  0  0  0  0  0  0  # atno 17371 bound_to 10713
  140.0788  134.5760  155.8563 LP  0  0  0  0  0  0  0  0  0  0  0  0  # atno 17394 bound_to 11000
  141.2040  133.6636  156.6098 LP  0  0  0  0  0  0  0  0  0  0  0  0  # atno 17395 bound_to 11000

$$$$
