AV-unprocessed.smi:1754|AV-procd|sdf|7065|dock6
  -GOLD-   22720 8283D 1   1.00000     0.00000
 Structure written by MMmdl.
 45 46  0  0  0  0  0  0  0  0  2 V2000
  152.1335  144.4667  158.6743 C   0  0  0  0  0  0  0  0  0  0  0  0
  151.6096  143.4827  157.6199 C   0  0  0  0  0  0  0  0  0  0  0  0
  151.5598  142.1099  158.1212 N   0  0  0  0  0  0  0  0  0  0  0  0
  151.9076  141.8524  159.5164 C   0  0  0  0  0  0  0  0  0  0  0  0
  153.4149  141.9843  159.7712 C   0  0  0  0  0  0  0  0  0  0  0  0
  151.1320  141.0547  157.2821 C   0  0  0  0  0  0  0  0  0  0  0  0
  150.8210  141.2272  155.9105 C   0  0  0  0  0  0  0  0  0  0  0  0
  150.4026  140.1255  155.1362 C   0  0  0  0  0  0  0  0  0  0  0  0
  150.3047  138.8466  155.7359 C   0  0  0  0  0  0  0  0  0  0  0  0
  149.8757  137.6775  155.0522 N   0  0  0  0  0  0  0  0  0  0  0  0
  149.6518  136.4462  155.5528 C   0  0  0  0  0  0  0  0  0  0  0  0
  149.7348  136.1517  156.7431 O   0  0  0  0  0  0  0  0  0  0  0  0
  149.2822  135.5341  154.6359 N   0  0  0  0  0  0  0  0  0  0  0  0
  148.9660  134.1193  154.8388 C   0  0  1  0  0  0  0  0  0  0  0  0
  149.0959  133.3316  153.5217 C   0  0  0  0  0  0  0  0  0  0  0  0
  149.1089  131.8314  153.8422 C   0  0  0  0  0  0  0  0  0  0  0  0
  149.8602  131.6717  155.5070 S   0  0  0  0  0  0  0  0  0  0  0  0
  148.8936  131.0202  156.4039 O   0  0  0  0  0  0  0  0  0  0  0  0
  151.2375  131.1707  155.3839 O   0  0  0  0  0  0  0  0  0  0  0  0
  149.9041  133.4672  155.8673 C   0  0  0  0  0  0  0  0  0  0  0  0
  150.6090  138.7298  157.1065 C   0  0  0  0  0  0  0  0  0  0  0  0
  151.0054  139.8122  157.8097 N   0  3  0  0  0  0  0  0  0  0  0  0
  152.1785  145.4779  158.2694 H   0  0  0  0  0  0  0  0  0  0  0  0
  153.1375  144.1978  159.0037 H   0  0  0  0  0  0  0  0  0  0  0  0
  151.4879  144.4901  159.5526 H   0  0  0  0  0  0  0  0  0  0  0  0
  150.6315  143.7983  157.2562 H   0  0  0  0  0  0  0  0  0  0  0  0
  152.2668  143.5095  156.7501 H   0  0  0  0  0  0  0  0  0  0  0  0
  151.3793  142.5717  160.1430 H   0  0  0  0  0  0  0  0  0  0  0  0
  151.5458  140.8743  159.8330 H   0  0  0  0  0  0  0  0  0  0  0  0
  153.6460  141.7994  160.8204 H   0  0  0  0  0  0  0  0  0  0  0  0
  153.7719  142.9847  159.5251 H   0  0  0  0  0  0  0  0  0  0  0  0
  153.9849  141.2706  159.1761 H   0  0  0  0  0  0  0  0  0  0  0  0
  150.8821  142.1939  155.4343 H   0  0  0  0  0  0  0  0  0  0  0  0
  150.1504  140.2895  154.1002 H   0  0  0  0  0  0  0  0  0  0  0  0
  149.6711  137.7988  154.0710 H   0  0  0  0  0  0  0  0  0  0  0  0
  149.1702  135.8732  153.6911 H   0  0  0  0  0  0  0  0  0  0  0  0
  147.9352  134.0097  155.1814 H   0  0  0  0  0  0  0  0  0  0  0  0
  148.3012  133.5823  152.8182 H   0  0  0  0  0  0  0  0  0  0  0  0
  150.0398  133.5914  153.0398 H   0  0  0  0  0  0  0  0  0  0  0  0
  148.0936  131.4372  153.8928 H   0  0  0  0  0  0  0  0  0  0  0  0
  149.6732  131.2466  153.1156 H   0  0  0  0  0  0  0  0  0  0  0  0
  150.9321  133.8071  155.7348 H   0  0  0  0  0  0  0  0  0  0  0  0
  149.6081  133.6482  156.9007 H   0  0  0  0  0  0  0  0  0  0  0  0
  150.5541  137.8047  157.6620 H   0  0  0  0  0  0  0  0  0  0  0  0
  151.2245  139.6867  158.7982 H   0  0  0  0  0  0  0  0  0  0  0  0
  1  2  1  0  0  0  0
  1 23  1  0  0  0  0
  1 24  1  0  0  0  0
  1 25  1  0  0  0  0
  2  3  1  0  0  0  0
  2 26  1  0  0  0  0
  2 27  1  0  0  0  0
  3  4  1  0  0  0  0
  3  6  1  0  0  0  0
  4  5  1  0  0  0  0
  4 28  1  0  0  0  0
  4 29  1  0  0  0  0
  5 30  1  0  0  0  0
  5 31  1  0  0  0  0
  5 32  1  0  0  0  0
  6 22  1  0  0  0  0
  6  7  2  0  0  0  0
  7  8  1  0  0  0  0
  7 33  1  0  0  0  0
  8  9  2  0  0  0  0
  8 34  1  0  0  0  0
  9 10  1  0  0  0  0
  9 21  1  0  0  0  0
 10 11  1  0  0  0  0
 10 35  1  0  0  0  0
 11 12  2  0  0  0  0
 11 13  1  0  0  0  0
 13 14  1  0  0  0  0
 13 36  1  0  0  0  0
 14 20  1  0  0  0  0
 14 15  1  0  0  0  0
 14 37  1  0  0  0  0
 15 16  1  0  0  0  0
 15 38  1  0  0  0  0
 15 39  1  0  0  0  0
 16 17  1  0  0  0  0
 16 40  1  0  0  0  0
 16 41  1  0  0  0  0
 17 18  2  0  0  0  0
 17 19  2  0  0  0  0
 17 20  1  0  0  0  0
 20 42  1  0  0  0  0
 20 43  1  0  0  0  0
 21 22  2  0  0  0  0
 21 44  1  0  0  0  0
 22 45  1  0  0  0  0
M  CHG  1  22   1
M  END
> <s_m_source_file>
AV-unprocessed.smi

> <i_m_source_file_index>
1754

> <i_lp_mmshare_version>
43012

> <i_f3d_flags>
0

> <s_epik_input>
W0NIM11bQ0gyXU4oW0NIMl1bQ0gzXSljMVtjSF1bY0hdYyhbY0hdbjEpW05IXUMoPU8pW05IXVtDQEBIXShbQ0gyXTIpW0NIMl1bQ0gyXVMyKD1PKT1P

> <s_epik_cmdline>
J2VwaWtfcHl0aG9uJywgJy1waCcsICc3LjAnLCAnLXRuJywgJzgnLCAnLW1hJywgJzIwMCcsICctbWV0YWxfYmluZGluZycsICctaW1hZScsICc8aW5maWxlLm1hZT4nLCAnLW9tYWUnLCAnPG91dGZpbGUubWFlPic=

> <r_lp_tautomer_probability>
0.999994

> <r_epik_Ionization_Penalty>
0.271106

> <r_epik_Ionization_Penalty_Charging>
0.271085

> <r_epik_Ionization_Penalty_Neutral>
2.10634e-05

> <r_epik_State_Penalty>
0.017795

> <r_epik_Charging_Adjusted_Penalty>
0.28888

> <i_epik_Tot_Q>
1

> <i_epik_Tot_abs_Q>
1

> <r_epik_Metal_State_Penalty>
0.0544868

> <b_epik_Metal_Only>
0

> <s_lp_Force_Field>
OPLS_2005

> <r_lp_Energy>
29.9971

> <b_lp_Chiralities_Consistent>
1

> <s_lp_Variant>
AV-unprocessed.smi:1754-2

> <Gold.Version>
5.8.1

> <Gold.Id.Protein>
6NUR|6NUR_protein|mol2

> <Gold.PLP.Fitness>
39.9470

> <Gold.PLP.PLP>
-37.9055

> <Gold.PLP.part.hbond>
-1.0000

> <Gold.PLP.part.metal>
0.0000

> <Gold.PLP.part.buried>
-3.0098

> <Gold.PLP.part.nonpolar>
-33.3844

> <Gold.PLP.part.repulsive>
0.1147

> <Gold.PLP.ligand.clash>
0.1282

> <Gold.PLP.ligand.torsion>
0.4387

> <Gold.PLP.Chemscore.Hbond>
1.0000

> <Gold.PLP.Chemscore.CHOScore>
0.0000

> <Gold.PLP.Chemscore.Metal>
0.0000

> <Gold.Chemscore.Hbonds>
donor molecule, donor type, donor heavy atom, donor atom, acceptor molecule, acceptor atom, score
      L1  H    13    36       P1  7948  1.00

> <Gold.PLP.Chemscore.Internal.Correction>
0.0471

> <Gold.Rescore>
     Score         DG    S(hbond)    S(metal)    S(lipo)     H(rot)  DE(clash)    DE(int)     intcor
     12.02     -15.34       0.94        0.00      88.19       1.41       0.03       3.29       ----

> <Gold.Chemscore.Fitness>
12.0158

> <Gold.Chemscore.DG>
-15.3392

> <Gold.Chemscore.ZeroCoef>
-5.4800

> <Gold.Chemscore.Hbond>
0.9409

> <Gold.Chemscore.Metal>
0.0000

> <Gold.Chemscore.Lipo>
88.1931

> <Gold.Chemscore.Internal_Hbond>
0.0000

> <Gold.Chemscore.DEClash>
0.0291

> <Gold.Chemscore.DEInternal>
3.2943

> <Gold.Chemscore.Rot>
1.4070

> <Gold.Chemscore.Internal.Correction>
   9.000000E+99

> <Gold.Chemscore.Hbonds>
donor molecule, donor type, donor heavy atom, donor atom, acceptor molecule, acceptor atom, score
      L1  H    13    36       P1  7948  0.82

> <Gold.Chemscore.Hbond.Weighted>
-3.1425

> <Gold.Chemscore.Metal.Weighted>
-0.0000

> <Gold.Chemscore.Lipo.Weighted>
-10.3186

> <Gold.Chemscore.Internal_Hbond.Weighted>
0.0000

> <Gold.Chemscore.DEClash.Weighted>
0.0291

> <Gold.Chemscore.DEInternal.Weighted>
3.2943

> <Gold.Chemscore.Rot.Weighted>
3.6020

> <Gold.Chemscore.Internal.Correction.Weighted>
   9.000000E+99

> <Gold.Protein.RotatedTorsions>
[ 6907 6896 6895 6894 ] final  -15.89 input  -60.11 | X-H torsion
[ 7974 7965 7964 7962 ] final  113.08 input  175.53 | X-H torsion
[ 8008 7997 7996 7995 ] final   46.49 input   59.86 | X-H torsion
[ 10167 10162 10161 10158 ] final  100.64 input  -65.29 | X-H torsion
[ 10718 10713 10712 10709 ] final -144.11 input   66.30 | X-H torsion
[ 10763 10752 10751 10750 ] final   16.85 input  -60.55 | X-H torsion
[ 11005 11000 10999 10996 ] final   80.04 input  -57.11 | X-H torsion

> <Gold.Protein.ActiveResidues>
 VAL166  LYS551  ARG553  GLY616  TRP617  ASP618  TYR619  PRO620  LYS621  CYS622 
 ASP623  PHE694  ASN695  SER759  ASP760  ASP761  ALA762  ILE779  LEU786  VAL792 
 PHE793  MET794  SER795  GLU796  ALA797  LYS798  CYS799  TRP800  GLU811  SER814 

> <Gold.Protein.RotatedAtoms>
  151.3170  135.0809  159.9291 H   0  0  0  0  0  0  0  0  0  0  0  0  # atno 6907 bound_to 6896
  152.5265  133.9678  159.7758 H   0  0  0  0  0  0  0  0  0  0  0  0  # atno 6908 bound_to 6896
  150.9992  133.6021  159.2727 H   0  0  0  0  0  0  0  0  0  0  0  0  # atno 6909 bound_to 6896
  145.2215  139.2860  143.4216 H   0  0  0  0  0  0  0  0  0  0  0  0  # atno 7974 bound_to 7965
  155.3533  140.3414  155.4239 H   0  0  0  0  0  0  0  0  0  0  0  0  # atno 8008 bound_to 7997
  156.1752  140.1645  156.8410 H   0  0  0  0  0  0  0  0  0  0  0  0  # atno 8009 bound_to 7997
  154.5275  140.0753  156.8267 H   0  0  0  0  0  0  0  0  0  0  0  0  # atno 8010 bound_to 7997
  139.7509  144.6984  151.0433 H   0  0  0  0  0  0  0  0  0  0  0  0  # atno 10167 bound_to 10162
  156.3661  130.7764  151.1938 H   0  0  0  0  0  0  0  0  0  0  0  0  # atno 10718 bound_to 10713
  153.1393  135.6756  153.9053 H   0  0  0  0  0  0  0  0  0  0  0  0  # atno 10763 bound_to 10752
  153.8515  135.3092  155.3434 H   0  0  0  0  0  0  0  0  0  0  0  0  # atno 10764 bound_to 10752
  154.7774  135.4907  153.9856 H   0  0  0  0  0  0  0  0  0  0  0  0  # atno 10765 bound_to 10752
  139.9149  134.7890  156.1858 H   0  0  0  0  0  0  0  0  0  0  0  0  # atno 11005 bound_to 11000
  146.3375  140.2522  142.8599 LP  0  0  0  0  0  0  0  0  0  0  0  0  # atno 17320 bound_to 7965
  144.9761  140.8415  143.5425 LP  0  0  0  0  0  0  0  0  0  0  0  0  # atno 17321 bound_to 7965
  140.7797  143.4810  151.0018 LP  0  0  0  0  0  0  0  0  0  0  0  0  # atno 17342 bound_to 10162
  139.8497  143.7454  152.3178 LP  0  0  0  0  0  0  0  0  0  0  0  0  # atno 17343 bound_to 10162
  157.7479  131.0386  150.4509 LP  0  0  0  0  0  0  0  0  0  0  0  0  # atno 17370 bound_to 10713
  156.4728  130.4056  149.6507 LP  0  0  0  0  0  0  0  0  0  0  0  0  # atno 17371 bound_to 10713
  141.0614  133.6840  156.1961 LP  0  0  0  0  0  0  0  0  0  0  0  0  # atno 17394 bound_to 11000
  140.6654  134.4924  157.5585 LP  0  0  0  0  0  0  0  0  0  0  0  0  # atno 17395 bound_to 11000

$$$$
