AV-unprocessed.smi:2971|AV-procd|sdf|11333|dock7
  -GOLD-   2272016243D 1   1.00000     0.00000
 Structure written by MMmdl.
 36 38  0  0  0  0  0  0  0  0  1 V2000
  153.5636  138.7256  156.2908 O   0  0  0  0  0  0  0  0  0  0  0  0
  152.2024  139.1098  156.3071 C   0  0  1  0  0  0  0  0  0  0  0  0
  152.0665  140.3849  157.1541 C   0  0  0  0  0  0  0  0  0  0  0  0
  152.7597  140.1988  158.3812 O   0  0  0  0  0  0  0  0  0  0  0  0
  152.7913  141.2436  159.2809 C   0  0  0  0  0  0  0  0  0  0  0  0
  152.1364  142.4858  159.0801 C   0  0  0  0  0  0  0  0  0  0  0  0
  152.2202  143.5021  160.0517 C   0  0  0  0  0  0  0  0  0  0  0  0
  152.9550  143.2925  161.2329 C   0  0  0  0  0  0  0  0  0  0  0  0
  153.6072  142.0634  161.4418 C   0  0  0  0  0  0  0  0  0  0  0  0
  153.5255  141.0467  160.4703 C   0  0  0  0  0  0  0  0  0  0  0  0
  154.1596  139.8688  160.6832 F   0  0  0  0  0  0  0  0  0  0  0  0
  151.7274  139.3309  154.8576 C   0  0  0  0  0  0  0  0  0  0  0  0
  150.3091  139.0671  154.6881 N   0  0  0  0  0  0  0  0  0  0  0  0
  149.7008  137.8660  154.7205 C   0  0  0  0  0  0  0  0  0  0  0  0
  148.3824  137.8448  154.5466 N   0  0  0  0  0  0  0  0  0  0  0  0
  148.1015  139.1904  154.3810 C   0  0  0  0  0  0  0  0  0  0  0  0
  146.8716  139.8493  154.1560 C   0  0  0  0  0  0  0  0  0  0  0  0
  146.8276  141.2521  154.0161 C   0  0  0  0  0  0  0  0  0  0  0  0
  148.0099  142.0163  154.0971 C   0  0  0  0  0  0  0  0  0  0  0  0
  149.2471  141.3822  154.3209 C   0  0  0  0  0  0  0  0  0  0  0  0
  149.2865  139.9827  154.4626 C   0  0  0  0  0  0  0  0  0  0  0  0
  153.7555  138.2727  157.0980 H   0  0  0  0  0  0  0  0  0  0  0  0
  151.6130  138.3083  156.7549 H   0  0  0  0  0  0  0  0  0  0  0  0
  152.4370  141.2543  156.6075 H   0  0  0  0  0  0  0  0  0  0  0  0
  151.0125  140.5567  157.3790 H   0  0  0  0  0  0  0  0  0  0  0  0
  151.5623  142.6853  158.1885 H   0  0  0  0  0  0  0  0  0  0  0  0
  151.7186  144.4449  159.8893 H   0  0  0  0  0  0  0  0  0  0  0  0
  153.0184  144.0726  161.9774 H   0  0  0  0  0  0  0  0  0  0  0  0
  154.1713  141.8994  162.3480 H   0  0  0  0  0  0  0  0  0  0  0  0
  151.9165  140.3610  154.5528 H   0  0  0  0  0  0  0  0  0  0  0  0
  152.2878  138.6967  154.1694 H   0  0  0  0  0  0  0  0  0  0  0  0
  150.2585  136.9551  154.8820 H   0  0  0  0  0  0  0  0  0  0  0  0
  145.9600  139.2739  154.0906 H   0  0  0  0  0  0  0  0  0  0  0  0
  145.8817  141.7446  153.8449 H   0  0  0  0  0  0  0  0  0  0  0  0
  147.9665  143.0900  153.9862 H   0  0  0  0  0  0  0  0  0  0  0  0
  150.1554  141.9633  154.3800 H   0  0  0  0  0  0  0  0  0  0  0  0
  1  2  1  0  0  0  0
  1 22  1  0  0  0  0
  2  3  1  0  0  0  0
  2 12  1  0  0  0  0
  2 23  1  0  0  0  0
  3  4  1  0  0  0  0
  3 24  1  0  0  0  0
  3 25  1  0  0  0  0
  4  5  1  0  0  0  0
  5 10  1  0  0  0  0
  5  6  2  0  0  0  0
  6  7  1  0  0  0  0
  6 26  1  0  0  0  0
  7  8  2  0  0  0  0
  7 27  1  0  0  0  0
  8  9  1  0  0  0  0
  8 28  1  0  0  0  0
  9 10  2  0  0  0  0
  9 29  1  0  0  0  0
 10 11  1  0  0  0  0
 12 13  1  0  0  0  0
 12 30  1  0  0  0  0
 12 31  1  0  0  0  0
 13 21  1  0  0  0  0
 13 14  1  0  0  0  0
 14 15  2  0  0  0  0
 14 32  1  0  0  0  0
 15 16  1  0  0  0  0
 16 21  2  0  0  0  0
 16 17  1  0  0  0  0
 17 18  2  0  0  0  0
 17 33  1  0  0  0  0
 18 19  1  0  0  0  0
 18 34  1  0  0  0  0
 19 20  2  0  0  0  0
 19 35  1  0  0  0  0
 20 21  1  0  0  0  0
 20 36  1  0  0  0  0
M  END
> <s_m_source_file>
AV-unprocessed.smi

> <i_m_source_file_index>
2971

> <i_lp_mmshare_version>
43012

> <i_f3d_flags>
0

> <s_epik_input>
W2NIXTFbY0hdW2NIXVtjSF1jKGMxMiluKFtjSF1uMilbQ0gyXVtDQEhdKFtPSF0pW0NIMl1PYzNbY0hdW2NIXVtjSF1bY0hdYzNG

> <s_epik_cmdline>
J2VwaWtfcHl0aG9uJywgJy1waCcsICc3LjAnLCAnLXRuJywgJzgnLCAnLW1hJywgJzIwMCcsICctbWV0YWxfYmluZGluZycsICctaW1hZScsICc8aW5maWxlLm1hZT4nLCAnLW9tYWUnLCAnPG91dGZpbGUubWFlPic=

> <r_lp_tautomer_probability>
1

> <r_epik_Ionization_Penalty>
0.0600913

> <r_epik_Ionization_Penalty_Charging>
0

> <r_epik_Ionization_Penalty_Neutral>
0.0600913

> <r_epik_State_Penalty>
0.0520726

> <r_epik_Charging_Adjusted_Penalty>
0.0520726

> <i_epik_Tot_Q>
0

> <i_epik_Tot_abs_Q>
0

> <r_epik_Metal_State_Penalty>
5.44269e-05

> <b_epik_Metal_Only>
0

> <s_lp_Force_Field>
OPLS_2005

> <r_lp_Energy>
16.3694

> <b_lp_Chiralities_Consistent>
1

> <s_lp_Variant>
AV-unprocessed.smi:2971-2

> <Gold.Version>
5.8.1

> <Gold.Id.Protein>
6NUR|6NUR_protein|mol2

> <Gold.PLP.Fitness>
47.0458

> <Gold.PLP.PLP>
-45.3746

> <Gold.PLP.part.hbond>
-0.9520

> <Gold.PLP.part.metal>
0.0000

> <Gold.PLP.part.buried>
-1.5219

> <Gold.PLP.part.nonpolar>
-41.9129

> <Gold.PLP.part.repulsive>
0.1662

> <Gold.PLP.ligand.clash>
0.0000

> <Gold.PLP.ligand.torsion>
0.5390

> <Gold.PLP.Chemscore.Hbond>
0.8960

> <Gold.PLP.Chemscore.CHOScore>
0.0000

> <Gold.PLP.Chemscore.Metal>
0.0000

> <Gold.Chemscore.Hbonds>
donor molecule, donor type, donor heavy atom, donor atom, acceptor molecule, acceptor atom, score
      P1  H  7997  8008       L1     1  0.86

> <Gold.PLP.Chemscore.Internal.Correction>
0.0612

> <Gold.Rescore>
     Score         DG    S(hbond)    S(metal)    S(lipo)     H(rot)  DE(clash)    DE(int)     intcor
     15.48     -15.94       0.73        0.00     120.40       2.37       0.02       0.44       ----

> <Gold.Chemscore.Fitness>
15.4759

> <Gold.Chemscore.DG>
-15.9401

> <Gold.Chemscore.ZeroCoef>
-5.4800

> <Gold.Chemscore.Hbond>
0.7333

> <Gold.Chemscore.Metal>
0.0000

> <Gold.Chemscore.Lipo>
120.4034

> <Gold.Chemscore.Internal_Hbond>
0.0000

> <Gold.Chemscore.DEClash>
0.0203

> <Gold.Chemscore.DEInternal>
0.4438

> <Gold.Chemscore.Rot>
2.3735

> <Gold.Chemscore.Internal.Correction>
   9.000000E+99

> <Gold.Chemscore.Hbonds>
donor molecule, donor type, donor heavy atom, donor atom, acceptor molecule, acceptor atom, score
      P1  H  7997  8008       L1     1  0.18

> <Gold.Chemscore.Hbond.Weighted>
-2.4491

> <Gold.Chemscore.Metal.Weighted>
-0.0000

> <Gold.Chemscore.Lipo.Weighted>
-14.0872

> <Gold.Chemscore.Internal_Hbond.Weighted>
0.0000

> <Gold.Chemscore.DEClash.Weighted>
0.0203

> <Gold.Chemscore.DEInternal.Weighted>
0.4438

> <Gold.Chemscore.Rot.Weighted>
6.0762

> <Gold.Chemscore.Internal.Correction.Weighted>
   9.000000E+99

> <Gold.Protein.RotatedTorsions>
[ 6907 6896 6895 6894 ] final   78.03 input  -60.11 | X-H torsion
[ 7974 7965 7964 7962 ] final  -74.03 input  175.53 | X-H torsion
[ 8008 7997 7996 7995 ] final  -48.00 input   59.86 | X-H torsion
[ 10167 10162 10161 10158 ] final -156.22 input  -65.29 | X-H torsion
[ 10718 10713 10712 10709 ] final   11.15 input   66.30 | X-H torsion
[ 10763 10752 10751 10750 ] final  -15.70 input  -60.55 | X-H torsion
[ 11005 11000 10999 10996 ] final   66.44 input  -57.11 | X-H torsion

> <Gold.Protein.ActiveResidues>
 VAL166  LYS551  ARG553  GLY616  TRP617  ASP618  TYR619  PRO620  LYS621  CYS622 
 ASP623  PHE694  ASN695  SER759  ASP760  ASP761  ALA762  ILE779  LEU786  VAL792 
 PHE793  MET794  SER795  GLU796  ALA797  LYS798  CYS799  TRP800  GLU811  SER814 

> <Gold.Protein.RotatedAtoms>
  152.5143  134.3726  159.9323 H   0  0  0  0  0  0  0  0  0  0  0  0  # atno 6907 bound_to 6896
  151.3681  133.3858  159.2704 H   0  0  0  0  0  0  0  0  0  0  0  0  # atno 6908 bound_to 6896
  150.9599  134.9008  159.7782 H   0  0  0  0  0  0  0  0  0  0  0  0  # atno 6909 bound_to 6896
  145.6444  140.9301  143.1018 H   0  0  0  0  0  0  0  0  0  0  0  0  # atno 7974 bound_to 7965
  154.4023  140.1332  156.4268 H   0  0  0  0  0  0  0  0  0  0  0  0  # atno 8008 bound_to 7997
  155.7590  140.3486  155.5168 H   0  0  0  0  0  0  0  0  0  0  0  0  # atno 8009 bound_to 7997
  155.8877  140.0998  157.1431 H   0  0  0  0  0  0  0  0  0  0  0  0  # atno 8010 bound_to 7997
  139.6868  143.9488  152.2365 H   0  0  0  0  0  0  0  0  0  0  0  0  # atno 10167 bound_to 10162
  156.9914  130.6044  149.5686 H   0  0  0  0  0  0  0  0  0  0  0  0  # atno 10718 bound_to 10713
  153.5473  135.7012  153.5608 H   0  0  0  0  0  0  0  0  0  0  0  0  # atno 10763 bound_to 10752
  153.3547  135.3986  155.1673 H   0  0  0  0  0  0  0  0  0  0  0  0  # atno 10764 bound_to 10752
  154.8666  135.3774  154.4982 H   0  0  0  0  0  0  0  0  0  0  0  0  # atno 10765 bound_to 10752
  139.9832  134.6710  156.0224 H   0  0  0  0  0  0  0  0  0  0  0  0  # atno 11005 bound_to 11000
  144.7145  139.8246  143.7403 LP  0  0  0  0  0  0  0  0  0  0  0  0  # atno 17320 bound_to 7965
  146.1255  139.4280  143.0201 LP  0  0  0  0  0  0  0  0  0  0  0  0  # atno 17321 bound_to 7965
  139.9293  144.6751  150.8380 LP  0  0  0  0  0  0  0  0  0  0  0  0  # atno 17342 bound_to 10162
  140.7670  143.3320  151.2390 LP  0  0  0  0  0  0  0  0  0  0  0  0  # atno 17343 bound_to 10162
  156.0206  130.5300  150.8263 LP  0  0  0  0  0  0  0  0  0  0  0  0  # atno 17370 bound_to 10713
  157.5456  131.0942  150.9767 LP  0  0  0  0  0  0  0  0  0  0  0  0  # atno 17371 bound_to 10713
  141.1501  133.6550  156.3987 LP  0  0  0  0  0  0  0  0  0  0  0  0  # atno 17394 bound_to 11000
  140.5055  134.6445  157.5265 LP  0  0  0  0  0  0  0  0  0  0  0  0  # atno 17395 bound_to 11000

$$$$
