AV-unprocessed.smi:2691|AV-procd|sdf|10393|dock10
  -GOLD-   2272014433D 1   1.00000     0.00000
 Structure written by MMmdl.
 50 52  0  0  0  0  0  0  0  0  2 V2000
  153.0083  142.9952  161.1384 C   0  0  0  0  0  0  0  0  0  0  0  0
  152.3841  142.5212  159.8367 C   0  0  0  0  0  0  0  0  0  0  0  0
  152.6339  141.1963  159.4124 C   0  0  0  0  0  0  0  0  0  0  0  0
  152.0519  140.7929  158.2165 C   0  0  0  0  0  0  0  0  0  0  0  0
  152.1063  139.5739  157.5365 N   0  3  0  0  0  0  0  0  0  0  0  0
  151.3731  139.6591  156.3919 C   0  0  0  0  0  0  0  0  0  0  0  0
  150.8500  140.9137  156.3334 N   0  0  0  0  0  0  0  0  0  0  0  0
  149.9993  141.5333  155.3098 C   0  0  0  0  0  0  0  0  0  0  0  0
  149.2398  140.4902  154.4602 C   0  0  1  0  0  0  0  0  0  0  0  0
  150.1285  139.8156  153.5914 O   0  0  0  0  0  0  0  0  0  0  0  0
  148.3891  139.4593  155.2463 C   0  0  0  0  0  0  0  0  0  0  0  0
  147.5373  138.5978  154.4049 N   0  0  0  0  0  0  0  0  0  0  0  0
  147.2700  139.0451  153.0951 C   0  0  0  0  0  0  0  0  0  0  0  0
  146.5403  138.3587  152.2749 N   0  0  0  0  0  0  0  0  0  0  0  0
  146.0021  137.1328  152.6812 C   0  0  0  0  0  0  0  0  0  0  0  0
  145.1539  136.3777  151.6663 C   0  0  0  0  0  0  0  0  0  0  0  0
  143.7155  136.1703  152.1672 C   0  0  0  0  0  0  0  0  0  0  0  0
  145.8117  135.0484  151.2641 C   0  0  0  0  0  0  0  0  0  0  0  0
  146.2339  136.6586  153.9291 C   0  0  0  0  0  0  0  0  0  0  0  0
  147.0536  137.4121  154.8777 C   0  0  0  0  0  0  0  0  0  0  0  0
  147.2903  137.0062  156.0153 O   0  0  0  0  0  0  0  0  0  0  0  0
  151.2451  141.6563  157.4504 C   0  0  0  0  0  0  0  0  0  0  0  0
  150.9869  142.9638  157.8541 C   0  0  0  0  0  0  0  0  0  0  0  0
  151.5695  143.3931  159.0682 C   0  0  0  0  0  0  0  0  0  0  0  0
  151.3057  144.8145  159.5353 C   0  0  0  0  0  0  0  0  0  0  0  0
  153.6367  142.2233  161.5839 H   0  0  0  0  0  0  0  0  0  0  0  0
  152.2345  143.2538  161.8616 H   0  0  0  0  0  0  0  0  0  0  0  0
  153.6319  143.8732  160.9688 H   0  0  0  0  0  0  0  0  0  0  0  0
  153.2524  140.5269  159.9923 H   0  0  0  0  0  0  0  0  0  0  0  0
  151.2372  138.8769  155.6588 H   0  0  0  0  0  0  0  0  0  0  0  0
  149.3008  142.1893  155.8307 H   0  0  0  0  0  0  0  0  0  0  0  0
  150.6224  142.1726  154.6834 H   0  0  0  0  0  0  0  0  0  0  0  0
  148.5553  141.0249  153.8007 H   0  0  0  0  0  0  0  0  0  0  0  0
  149.7521  139.8034  152.7244 H   0  0  0  0  0  0  0  0  0  0  0  0
  149.0721  138.8371  155.8279 H   0  0  0  0  0  0  0  0  0  0  0  0
  147.7889  139.9612  156.0078 H   0  0  0  0  0  0  0  0  0  0  0  0
  147.7128  140.0054  152.8262 H   0  0  0  0  0  0  0  0  0  0  0  0
  145.0936  136.9926  150.7668 H   0  0  0  0  0  0  0  0  0  0  0  0
  143.2523  137.1208  152.4335 H   0  0  0  0  0  0  0  0  0  0  0  0
  143.6825  135.5255  153.0460 H   0  0  0  0  0  0  0  0  0  0  0  0
  143.0969  135.7083  151.3974 H   0  0  0  0  0  0  0  0  0  0  0  0
  146.8182  135.2110  150.8772 H   0  0  0  0  0  0  0  0  0  0  0  0
  145.2374  134.5477  150.4842 H   0  0  0  0  0  0  0  0  0  0  0  0
  145.8867  134.3645  152.1100 H   0  0  0  0  0  0  0  0  0  0  0  0
  145.8156  135.7110  154.2352 H   0  0  0  0  0  0  0  0  0  0  0  0
  150.3694  143.6271  157.2668 H   0  0  0  0  0  0  0  0  0  0  0  0
  150.6268  145.3369  158.8605 H   0  0  0  0  0  0  0  0  0  0  0  0
  152.2358  145.3817  159.5782 H   0  0  0  0  0  0  0  0  0  0  0  0
  150.8528  144.8154  160.5271 H   0  0  0  0  0  0  0  0  0  0  0  0
  152.6087  138.7450  157.8270 H   0  0  0  0  0  0  0  0  0  0  0  0
  1  2  1  0  0  0  0
  1 26  1  0  0  0  0
  1 27  1  0  0  0  0
  1 28  1  0  0  0  0
  2 24  1  0  0  0  0
  2  3  2  0  0  0  0
  3  4  1  0  0  0  0
  3 29  1  0  0  0  0
  4 22  2  0  0  0  0
  4  5  1  0  0  0  0
  5  6  2  0  0  0  0
  5 50  1  0  0  0  0
  6  7  1  0  0  0  0
  6 30  1  0  0  0  0
  7  8  1  0  0  0  0
  7 22  1  0  0  0  0
  8  9  1  0  0  0  0
  8 31  1  0  0  0  0
  8 32  1  0  0  0  0
  9 10  1  0  0  0  0
  9 11  1  0  0  0  0
  9 33  1  0  0  0  0
 10 34  1  0  0  0  0
 11 12  1  0  0  0  0
 11 35  1  0  0  0  0
 11 36  1  0  0  0  0
 12 20  1  0  0  0  0
 12 13  1  0  0  0  0
 13 14  2  0  0  0  0
 13 37  1  0  0  0  0
 14 15  1  0  0  0  0
 15 16  1  0  0  0  0
 15 19  2  0  0  0  0
 16 17  1  0  0  0  0
 16 18  1  0  0  0  0
 16 38  1  0  0  0  0
 17 39  1  0  0  0  0
 17 40  1  0  0  0  0
 17 41  1  0  0  0  0
 18 42  1  0  0  0  0
 18 43  1  0  0  0  0
 18 44  1  0  0  0  0
 19 20  1  0  0  0  0
 19 45  1  0  0  0  0
 20 21  2  0  0  0  0
 22 23  1  0  0  0  0
 23 24  2  0  0  0  0
 23 46  1  0  0  0  0
 24 25  1  0  0  0  0
 25 47  1  0  0  0  0
 25 48  1  0  0  0  0
 25 49  1  0  0  0  0
M  CHG  1   5   1
M  END
> <s_m_source_file>
AV-unprocessed.smi

> <i_m_source_file_index>
2691

> <i_lp_mmshare_version>
43012

> <i_f3d_flags>
0

> <s_epik_input>
W0NIM11jKFtjSF0xKWMoW0NIM10pW2NIXWMoYzEyKW4oW2NIXW4yKVtDSDJdW0NASF0oW09IXSlbQ0gyXW4zW2NIXW5jKFtDSF0oW0NIM10pW0NIM10pW2NIXWMzPU8=

> <s_epik_cmdline>
J2VwaWtfcHl0aG9uJywgJy1waCcsICc3LjAnLCAnLXRuJywgJzgnLCAnLW1hJywgJzIwMCcsICctbWV0YWxfYmluZGluZycsICctaW1hZScsICc8aW5maWxlLm1hZT4nLCAnLW9tYWUnLCAnPG91dGZpbGUubWFlPic=

> <r_lp_tautomer_probability>
1

> <r_epik_Ionization_Penalty>
1.0357

> <r_epik_Ionization_Penalty_Charging>
1.03568

> <r_epik_Ionization_Penalty_Neutral>
1.29543e-05

> <r_epik_State_Penalty>
1.08724

> <r_epik_Charging_Adjusted_Penalty>
2.12292

> <i_epik_Tot_Q>
1

> <i_epik_Tot_abs_Q>
1

> <r_epik_Metal_State_Penalty>
1.18376

> <b_epik_Metal_Only>
0

> <s_lp_Force_Field>
OPLS_2005

> <r_lp_Energy>
24.9035

> <b_lp_Chiralities_Consistent>
1

> <s_lp_Variant>
AV-unprocessed.smi:2691-4

> <Gold.Version>
5.8.1

> <Gold.Id.Protein>
6NUR|6NUR_protein|mol2

> <Gold.PLP.Fitness>
51.7604

> <Gold.PLP.PLP>
-45.0581

> <Gold.PLP.part.hbond>
-1.9497

> <Gold.PLP.part.metal>
0.0000

> <Gold.PLP.part.buried>
-4.5014

> <Gold.PLP.part.nonpolar>
-37.9687

> <Gold.PLP.part.repulsive>
0.4044

> <Gold.PLP.ligand.clash>
0.0000

> <Gold.PLP.ligand.torsion>
0.6654

> <Gold.PLP.Chemscore.Hbond>
1.8160

> <Gold.PLP.Chemscore.CHOScore>
0.8272

> <Gold.PLP.Chemscore.Metal>
0.0000

> <Gold.Chemscore.Hbonds>
donor molecule, donor type, donor heavy atom, donor atom, acceptor molecule, acceptor atom, score
      L1  H    10    34       P1  7957  1.00
      P1  H  7989  7998       L1    10  0.78
      L1  C    13    37       P1  7957  0.77

> <Gold.PLP.Chemscore.Internal.Correction>
0.1037

> <Gold.Rescore>
     Score         DG    S(hbond)    S(metal)    S(lipo)     H(rot)  DE(clash)    DE(int)     intcor
     15.59     -17.31       1.33        0.00     118.42       2.52       0.29       1.43       ----

> <Gold.Chemscore.Fitness>
15.5898

> <Gold.Chemscore.DG>
-17.3125

> <Gold.Chemscore.ZeroCoef>
-5.4800

> <Gold.Chemscore.Hbond>
1.3259

> <Gold.Chemscore.Metal>
0.0000

> <Gold.Chemscore.Lipo>
118.4232

> <Gold.Chemscore.Internal_Hbond>
0.0000

> <Gold.Chemscore.DEClash>
0.2902

> <Gold.Chemscore.DEInternal>
1.4325

> <Gold.Chemscore.Rot>
2.5202

> <Gold.Chemscore.Internal.Correction>
   9.000000E+99

> <Gold.Chemscore.Hbonds>
donor molecule, donor type, donor heavy atom, donor atom, acceptor molecule, acceptor atom, score
      L1  H    10    34       P1  7957  0.97
      P1  H  7989  7998       L1    10  0.21

> <Gold.Chemscore.Hbond.Weighted>
-4.4287

> <Gold.Chemscore.Metal.Weighted>
-0.0000

> <Gold.Chemscore.Lipo.Weighted>
-13.8555

> <Gold.Chemscore.Internal_Hbond.Weighted>
0.0000

> <Gold.Chemscore.DEClash.Weighted>
0.2902

> <Gold.Chemscore.DEInternal.Weighted>
1.4325

> <Gold.Chemscore.Rot.Weighted>
6.4517

> <Gold.Chemscore.Internal.Correction.Weighted>
   9.000000E+99

> <Gold.Protein.RotatedTorsions>
[ 6907 6896 6895 6894 ] final  106.65 input  -60.11 | X-H torsion
[ 7974 7965 7964 7962 ] final   73.42 input  175.53 | X-H torsion
[ 8008 7997 7996 7995 ] final   32.09 input   59.86 | X-H torsion
[ 10167 10162 10161 10158 ] final  -95.11 input  -65.29 | X-H torsion
[ 10718 10713 10712 10709 ] final   92.54 input   66.30 | X-H torsion
[ 10763 10752 10751 10750 ] final  -57.54 input  -60.55 | X-H torsion
[ 11005 11000 10999 10996 ] final   15.88 input  -57.11 | X-H torsion

> <Gold.Protein.ActiveResidues>
 VAL166  LYS551  ARG553  GLY616  TRP617  ASP618  TYR619  PRO620  LYS621  CYS622 
 ASP623  PHE694  ASN695  SER759  ASP760  ASP761  ALA762  ILE779  LEU786  VAL792 
 PHE793  MET794  SER795  GLU796  ALA797  LYS798  CYS799  TRP800  GLU811  SER814 

> <Gold.Protein.RotatedAtoms>
  152.5185  133.9350  159.7598 H   0  0  0  0  0  0  0  0  0  0  0  0  # atno 6907 bound_to 6896
  150.9692  133.6354  159.2748 H   0  0  0  0  0  0  0  0  0  0  0  0  # atno 6908 bound_to 6896
  151.3571  135.0902  159.9475 H   0  0  0  0  0  0  0  0  0  0  0  0  # atno 6909 bound_to 6896
  145.7411  139.2721  143.1486 H   0  0  0  0  0  0  0  0  0  0  0  0  # atno 7974 bound_to 7965
  155.1169  140.3244  155.4507 H   0  0  0  0  0  0  0  0  0  0  0  0  # atno 8008 bound_to 7997
  156.2674  140.2034  156.6240 H   0  0  0  0  0  0  0  0  0  0  0  0  # atno 8009 bound_to 7997
  154.6713  140.0536  157.0156 H   0  0  0  0  0  0  0  0  0  0  0  0  # atno 8010 bound_to 7997
  140.3075  143.3125  152.0183 H   0  0  0  0  0  0  0  0  0  0  0  0  # atno 10167 bound_to 10162
  157.6958  131.0447  150.3898 H   0  0  0  0  0  0  0  0  0  0  0  0  # atno 10718 bound_to 10713
  154.2241  135.6372  153.5154 H   0  0  0  0  0  0  0  0  0  0  0  0  # atno 10763 bound_to 10752
  152.9963  135.5503  154.6083 H   0  0  0  0  0  0  0  0  0  0  0  0  # atno 10764 bound_to 10752
  154.5550  135.2904  155.0947 H   0  0  0  0  0  0  0  0  0  0  0  0  # atno 10765 bound_to 10752
  140.4534  134.1201  155.7705 H   0  0  0  0  0  0  0  0  0  0  0  0  # atno 11005 bound_to 11000
  146.0447  140.8130  142.9811 LP  0  0  0  0  0  0  0  0  0  0  0  0  # atno 17320 bound_to 7965
  144.6870  140.2962  143.7270 LP  0  0  0  0  0  0  0  0  0  0  0  0  # atno 17321 bound_to 7965
  139.4901  144.6409  151.6878 LP  0  0  0  0  0  0  0  0  0  0  0  0  # atno 17342 bound_to 10162
  140.5597  144.0289  150.6164 LP  0  0  0  0  0  0  0  0  0  0  0  0  # atno 17343 bound_to 10162
  156.4302  130.3970  149.6765 LP  0  0  0  0  0  0  0  0  0  0  0  0  # atno 17370 bound_to 10713
  156.3985  130.7663  151.2669 LP  0  0  0  0  0  0  0  0  0  0  0  0  # atno 17371 bound_to 10713
  141.1654  133.8713  157.1730 LP  0  0  0  0  0  0  0  0  0  0  0  0  # atno 17394 bound_to 11000
  139.9992  135.0034  157.0151 LP  0  0  0  0  0  0  0  0  0  0  0  0  # atno 17395 bound_to 11000

$$$$
