AV-unprocessed.smi:2521|AV-procd|sdf|9917|dock5
  -GOLD-   2272013553D 1   1.00000     0.00000
 Structure written by MMmdl.
 35 36  0  0  0  0  0  0  0  0  2 V2000
  154.0419  140.9294  161.4387 C   0  0  0  0  0  0  0  0  0  0  0  0
  153.4438  142.2247  160.8706 C   0  0  0  0  0  0  0  0  0  0  0  0
  152.6217  143.0122  161.9012 C   0  0  0  0  0  0  0  0  0  0  0  0
  152.6826  141.9879  159.6035 C   0  0  0  0  0  0  0  0  0  0  0  0
  152.3976  140.7694  159.1388 N   0  0  0  0  0  0  0  0  0  0  0  0
  151.6805  140.8166  157.9538 N   0  0  0  0  0  0  0  0  0  0  0  0
  151.4272  142.0673  157.5255 C   0  0  0  0  0  0  0  0  0  0  0  0
  150.7478  142.4104  156.4079 N   0  5  0  0  0  0  0  0  0  0  0  0
  150.0890  141.5489  155.5910 C   0  0  0  0  0  0  0  0  0  0  0  0
  150.5158  140.5003  155.1038 O   0  0  0  0  0  0  0  0  0  0  0  0
  148.8355  141.9354  155.3179 N   0  0  0  0  0  0  0  0  0  0  0  0
  147.8966  141.2090  154.4717 C   0  0  0  0  0  0  0  0  0  0  0  0
  146.4935  141.8328  154.5445 C   0  0  2  0  0  0  0  0  0  0  0  0
  146.3615  143.1779  153.8576 C   0  0  0  0  0  0  0  0  0  0  0  0
  145.0924  143.7348  154.4960 C   0  0  0  0  0  0  0  0  0  0  0  0
  145.0409  143.1860  155.8103 O   0  0  0  0  0  0  0  0  0  0  0  0
  146.0415  142.1832  155.9613 C   0  0  0  0  0  0  0  0  0  0  0  0
  152.0859  143.2994  158.6012 S   0  0  0  0  0  0  0  0  0  0  0  0
  154.6881  140.4432  160.7073 H   0  0  0  0  0  0  0  0  0  0  0  0
  153.2613  140.2206  161.7174 H   0  0  0  0  0  0  0  0  0  0  0  0
  154.6406  141.1302  162.3273 H   0  0  0  0  0  0  0  0  0  0  0  0
  154.2893  142.8603  160.6049 H   0  0  0  0  0  0  0  0  0  0  0  0
  152.2860  143.9642  161.4889 H   0  0  0  0  0  0  0  0  0  0  0  0
  153.2116  143.2275  162.7925 H   0  0  0  0  0  0  0  0  0  0  0  0
  151.7385  142.4545  162.2143 H   0  0  0  0  0  0  0  0  0  0  0  0
  148.5116  142.7982  155.7298 H   0  0  0  0  0  0  0  0  0  0  0  0
  148.2562  141.2256  153.4418 H   0  0  0  0  0  0  0  0  0  0  0  0
  147.8628  140.1637  154.7832 H   0  0  0  0  0  0  0  0  0  0  0  0
  145.7665  141.1446  154.1093 H   0  0  0  0  0  0  0  0  0  0  0  0
  147.2132  143.8148  154.1010 H   0  0  0  0  0  0  0  0  0  0  0  0
  146.2913  143.1022  152.7722 H   0  0  0  0  0  0  0  0  0  0  0  0
  145.0832  144.8247  154.5183 H   0  0  0  0  0  0  0  0  0  0  0  0
  144.2117  143.3999  153.9468 H   0  0  0  0  0  0  0  0  0  0  0  0
  145.6591  141.3179  156.5034 H   0  0  0  0  0  0  0  0  0  0  0  0
  146.8656  142.6053  156.5381 H   0  0  0  0  0  0  0  0  0  0  0  0
  1  2  1  0  0  0  0
  1 19  1  0  0  0  0
  1 20  1  0  0  0  0
  1 21  1  0  0  0  0
  2  3  1  0  0  0  0
  2  4  1  0  0  0  0
  2 22  1  0  0  0  0
  3 23  1  0  0  0  0
  3 24  1  0  0  0  0
  3 25  1  0  0  0  0
  4 18  1  0  0  0  0
  4  5  2  0  0  0  0
  5  6  1  0  0  0  0
  6  7  2  0  0  0  0
  7  8  1  0  0  0  0
  7 18  1  0  0  0  0
  8  9  1  0  0  0  0
  9 10  2  0  0  0  0
  9 11  1  0  0  0  0
 11 12  1  0  0  0  0
 11 26  1  0  0  0  0
 12 13  1  0  0  0  0
 12 27  1  0  0  0  0
 12 28  1  0  0  0  0
 13 17  1  0  0  0  0
 13 14  1  0  0  0  0
 13 29  1  0  0  0  0
 14 15  1  0  0  0  0
 14 30  1  0  0  0  0
 14 31  1  0  0  0  0
 15 16  1  0  0  0  0
 15 32  1  0  0  0  0
 15 33  1  0  0  0  0
 16 17  1  0  0  0  0
 17 34  1  0  0  0  0
 17 35  1  0  0  0  0
M  CHG  1   8  -1
M  END
> <s_m_source_file>
AV-unprocessed.smi

> <i_m_source_file_index>
2521

> <i_lp_mmshare_version>
43012

> <i_f3d_flags>
0

> <s_epik_input>
W0NIM11bQ0hdKFtDSDNdKWMxbm5jKHMxKVtOSF1DKD1PKVtOSF1bQ0gyXVtDQEBIXTJbQ0gyXVtDSDJdT1tDSDJdMg==

> <s_epik_cmdline>
J2VwaWtfcHl0aG9uJywgJy1waCcsICc3LjAnLCAnLXRuJywgJzgnLCAnLW1hJywgJzIwMCcsICctbWV0YWxfYmluZGluZycsICctaW1hZScsICc8aW5maWxlLm1hZT4nLCAnLW9tYWUnLCAnPG91dGZpbGUubWFlPic=

> <r_lp_tautomer_probability>
1

> <r_epik_Ionization_Penalty>
4.4451

> <r_epik_Ionization_Penalty_Charging>
4.28522

> <r_epik_Ionization_Penalty_Neutral>
0.159875

> <r_epik_State_Penalty>
4.28479

> <r_epik_Charging_Adjusted_Penalty>
8.57002

> <i_epik_Tot_Q>
-1

> <i_epik_Tot_abs_Q>
1

> <r_epik_Metal_State_Penalty>
0.721771

> <b_epik_Metal_Only>
1

> <s_lp_Force_Field>
OPLS_2005

> <r_lp_Energy>
14.6033

> <b_lp_Chiralities_Consistent>
1

> <s_lp_Variant>
AV-unprocessed.smi:2521-3

> <Gold.Version>
5.8.1

> <Gold.Id.Protein>
6NUR|6NUR_protein|mol2

> <Gold.PLP.Fitness>
43.6891

> <Gold.PLP.PLP>
-39.3590

> <Gold.PLP.part.hbond>
-2.0000

> <Gold.PLP.part.metal>
0.0000

> <Gold.PLP.part.buried>
-7.2894

> <Gold.PLP.part.nonpolar>
-31.1470

> <Gold.PLP.part.repulsive>
1.0227

> <Gold.PLP.ligand.clash>
0.0000

> <Gold.PLP.ligand.torsion>
0.6507

> <Gold.PLP.Chemscore.Hbond>
1.8480

> <Gold.PLP.Chemscore.CHOScore>
0.0000

> <Gold.PLP.Chemscore.Metal>
0.0000

> <Gold.Chemscore.Hbonds>
donor molecule, donor type, donor heavy atom, donor atom, acceptor molecule, acceptor atom, score
      L1  H    11    26       P1  8028  0.80
      P1  H  7989  7998       L1    10  1.00

> <Gold.PLP.Chemscore.Internal.Correction>
0.0875

> <Gold.Rescore>
     Score         DG    S(hbond)    S(metal)    S(lipo)     H(rot)  DE(clash)    DE(int)     intcor
     15.22     -15.91       1.47        0.00      78.35       1.42       0.07       0.62       ----

> <Gold.Chemscore.Fitness>
15.2210

> <Gold.Chemscore.DG>
-15.9080

> <Gold.Chemscore.ZeroCoef>
-5.4800

> <Gold.Chemscore.Hbond>
1.4653

> <Gold.Chemscore.Metal>
0.0000

> <Gold.Chemscore.Lipo>
78.3535

> <Gold.Chemscore.Internal_Hbond>
0.0000

> <Gold.Chemscore.DEClash>
0.0703

> <Gold.Chemscore.DEInternal>
0.6167

> <Gold.Chemscore.Rot>
1.4193

> <Gold.Chemscore.Internal.Correction>
   9.000000E+99

> <Gold.Chemscore.Hbonds>
donor molecule, donor type, donor heavy atom, donor atom, acceptor molecule, acceptor atom, score
      L1  H    11    26       P1  8028  0.78
      P1  H  7989  7998       L1    10  0.68

> <Gold.Chemscore.Hbond.Weighted>
-4.8940

> <Gold.Chemscore.Metal.Weighted>
-0.0000

> <Gold.Chemscore.Lipo.Weighted>
-9.1674

> <Gold.Chemscore.Internal_Hbond.Weighted>
0.0000

> <Gold.Chemscore.DEClash.Weighted>
0.0703

> <Gold.Chemscore.DEInternal.Weighted>
0.6167

> <Gold.Chemscore.Rot.Weighted>
3.6333

> <Gold.Chemscore.Internal.Correction.Weighted>
   9.000000E+99

> <Gold.Protein.RotatedTorsions>
[ 6907 6896 6895 6894 ] final  -54.88 input  -60.11 | X-H torsion
[ 7974 7965 7964 7962 ] final   74.04 input  175.53 | X-H torsion
[ 8008 7997 7996 7995 ] final -109.50 input   59.86 | X-H torsion
[ 10167 10162 10161 10158 ] final  145.44 input  -65.29 | X-H torsion
[ 10718 10713 10712 10709 ] final   52.26 input   66.30 | X-H torsion
[ 10763 10752 10751 10750 ] final  -96.81 input  -60.55 | X-H torsion
[ 11005 11000 10999 10996 ] final  157.18 input  -57.11 | X-H torsion

> <Gold.Protein.ActiveResidues>
 VAL166  LYS551  ARG553  GLY616  TRP617  ASP618  TYR619  PRO620  LYS621  CYS622 
 ASP623  PHE694  ASN695  SER759  ASP760  ASP761  ALA762  ILE779  LEU786  VAL792 
 PHE793  MET794  SER795  GLU796  ALA797  LYS798  CYS799  TRP800  GLU811  SER814 

> <Gold.Protein.RotatedAtoms>
  150.8299  134.7547  159.6844 H   0  0  0  0  0  0  0  0  0  0  0  0  # atno 6907 bound_to 6896
  152.4405  134.5597  159.9900 H   0  0  0  0  0  0  0  0  0  0  0  0  # atno 6908 bound_to 6896
  151.5760  133.3346  159.3035 H   0  0  0  0  0  0  0  0  0  0  0  0  # atno 6909 bound_to 6896
  145.7333  139.2692  143.1529 H   0  0  0  0  0  0  0  0  0  0  0  0  # atno 7974 bound_to 7965
  154.9603  140.0399  157.2187 H   0  0  0  0  0  0  0  0  0  0  0  0  # atno 8008 bound_to 7997
  154.7895  140.2833  155.5980 H   0  0  0  0  0  0  0  0  0  0  0  0  # atno 8009 bound_to 7997
  156.2947  140.2576  156.2739 H   0  0  0  0  0  0  0  0  0  0  0  0  # atno 8010 bound_to 7997
  139.4926  144.5901  151.6698 H   0  0  0  0  0  0  0  0  0  0  0  0  # atno 10167 bound_to 10162
  157.5058  130.8468  149.8373 H   0  0  0  0  0  0  0  0  0  0  0  0  # atno 10718 bound_to 10713
  154.7272  135.5070  153.8906 H   0  0  0  0  0  0  0  0  0  0  0  0  # atno 10763 bound_to 10752
  153.0916  135.6661  153.9852 H   0  0  0  0  0  0  0  0  0  0  0  0  # atno 10764 bound_to 10752
  153.9661  135.3043  155.3410 H   0  0  0  0  0  0  0  0  0  0  0  0  # atno 10765 bound_to 10752
  140.1745  134.8520  157.2730 H   0  0  0  0  0  0  0  0  0  0  0  0  # atno 11005 bound_to 11000
  146.0517  140.8062  142.9778 LP  0  0  0  0  0  0  0  0  0  0  0  0  # atno 17320 bound_to 7965
  144.6888  140.3063  143.7255 LP  0  0  0  0  0  0  0  0  0  0  0  0  # atno 17321 bound_to 7965
  140.5526  144.0400  150.6133 LP  0  0  0  0  0  0  0  0  0  0  0  0  # atno 17342 bound_to 10162
  140.3459  143.2991  152.0538 LP  0  0  0  0  0  0  0  0  0  0  0  0  # atno 17343 bound_to 10162
  156.0257  130.3780  150.1829 LP  0  0  0  0  0  0  0  0  0  0  0  0  # atno 17370 bound_to 10713
  157.0019  130.9925  151.3388 LP  0  0  0  0  0  0  0  0  0  0  0  0  # atno 17371 bound_to 10713
  140.2339  134.3876  155.7510 LP  0  0  0  0  0  0  0  0  0  0  0  0  # atno 17394 bound_to 11000
  141.2219  133.7229  156.8683 LP  0  0  0  0  0  0  0  0  0  0  0  0  # atno 17395 bound_to 11000

$$$$
