AV-unprocessed.smi:1511|AV-procd|sdf|6098|dock6
  -GOLD-   22720 6223D 1   1.00000     0.00000
 Structure written by MMmdl.
 32 33  0  0  0  0  0  0  0  0  1 V2000
  151.3855  136.5458  154.4194 O   0  0  0  0  0  0  0  0  0  0  0  0
  151.2609  137.4936  155.1942 C   0  0  0  0  0  0  0  0  0  0  0  0
  152.2376  138.6700  155.1298 C   0  0  0  0  0  0  0  0  0  0  0  0
  151.6842  139.8512  155.7712 N   0  0  0  0  0  0  0  0  0  0  0  0
  151.9632  140.3563  157.0242 C   0  0  0  0  0  0  0  0  0  0  0  0
  151.1879  141.4669  157.1974 C   0  0  0  0  0  0  0  0  0  0  0  0
  150.4601  141.5645  155.9786 C   0  0  0  0  0  0  0  0  0  0  0  0
  150.7599  140.5973  155.1269 N   0  0  0  0  0  0  0  0  0  0  0  0
  150.2846  137.5740  156.1119 N   0  0  0  0  0  0  0  0  0  0  0  0
  149.1828  136.6293  156.2499 C   0  0  0  0  0  0  0  0  0  0  0  0
  149.0028  136.1629  157.7090 C   0  0  2  0  0  0  0  0  0  0  0  0
  147.8192  135.1909  157.9048 C   0  0  0  0  0  0  0  0  0  0  0  0
  147.5658  135.0294  159.4060 C   0  0  0  0  0  0  0  0  0  0  0  0
  147.9405  136.6616  160.1452 S   0  0  0  0  0  0  0  0  0  0  0  0
  146.6892  137.4098  160.3379 O   0  0  0  0  0  0  0  0  0  0  0  0
  148.8928  136.4808  161.2513 O   0  0  0  0  0  0  0  0  0  0  0  0
  148.8157  137.3377  158.6824 C   0  0  0  0  0  0  0  0  0  0  0  0
  153.1717  138.4001  155.6241 H   0  0  0  0  0  0  0  0  0  0  0  0
  152.4777  138.9067  154.0920 H   0  0  0  0  0  0  0  0  0  0  0  0
  152.6787  139.8862  157.6827 H   0  0  0  0  0  0  0  0  0  0  0  0
  151.1466  142.1112  158.0628 H   0  0  0  0  0  0  0  0  0  0  0  0
  149.7273  142.3032  155.6901 H   0  0  0  0  0  0  0  0  0  0  0  0
  150.2684  138.3833  156.7155 H   0  0  0  0  0  0  0  0  0  0  0  0
  148.2602  137.0770  155.8768 H   0  0  0  0  0  0  0  0  0  0  0  0
  149.3930  135.7738  155.6072 H   0  0  0  0  0  0  0  0  0  0  0  0
  149.9051  135.6336  158.0191 H   0  0  0  0  0  0  0  0  0  0  0  0
  146.9279  135.6121  157.4382 H   0  0  0  0  0  0  0  0  0  0  0  0
  148.0006  134.2249  157.4320 H   0  0  0  0  0  0  0  0  0  0  0  0
  146.5439  134.7314  159.6405 H   0  0  0  0  0  0  0  0  0  0  0  0
  148.2519  134.2990  159.8355 H   0  0  0  0  0  0  0  0  0  0  0  0
  149.7603  137.7891  158.9858 H   0  0  0  0  0  0  0  0  0  0  0  0
  148.1851  138.1141  158.2488 H   0  0  0  0  0  0  0  0  0  0  0  0
  1  2  2  0  0  0  0
  2  3  1  0  0  0  0
  2  9  1  0  0  0  0
  3  4  1  0  0  0  0
  3 18  1  0  0  0  0
  3 19  1  0  0  0  0
  4  8  1  0  0  0  0
  4  5  1  0  0  0  0
  5  6  2  0  0  0  0
  5 20  1  0  0  0  0
  6  7  1  0  0  0  0
  6 21  1  0  0  0  0
  7  8  2  0  0  0  0
  7 22  1  0  0  0  0
  9 10  1  0  0  0  0
  9 23  1  0  0  0  0
 10 11  1  0  0  0  0
 10 24  1  0  0  0  0
 10 25  1  0  0  0  0
 11 17  1  0  0  0  0
 11 12  1  0  0  0  0
 11 26  1  0  0  0  0
 12 13  1  0  0  0  0
 12 27  1  0  0  0  0
 12 28  1  0  0  0  0
 13 14  1  0  0  0  0
 13 29  1  0  0  0  0
 13 30  1  0  0  0  0
 14 15  2  0  0  0  0
 14 16  2  0  0  0  0
 14 17  1  0  0  0  0
 17 31  1  0  0  0  0
 17 32  1  0  0  0  0
M  END
> <s_m_source_file>
AV-unprocessed.smi

> <i_m_source_file_index>
1511

> <i_lp_mmshare_version>
43012

> <i_f3d_flags>
0

> <s_epik_input>
bjFbY0hdW2NIXVtjSF1uMVtDSDJdQyg9TylbTkhdW0NIMl1bQ0BASF0oW0NIMl0yKVtDSDJdW0NIMl1TMig9Tyk9Tw==

> <s_epik_cmdline>
J2VwaWtfcHl0aG9uJywgJy1waCcsICc3LjAnLCAnLXRuJywgJzgnLCAnLW1hJywgJzIwMCcsICctbWV0YWxfYmluZGluZycsICctaW1hZScsICc8aW5maWxlLm1hZT4nLCAnLW9tYWUnLCAnPG91dGZpbGUubWFlPic=

> <r_lp_tautomer_probability>
1

> <r_epik_Ionization_Penalty>
1.34373e-05

> <r_epik_Ionization_Penalty_Charging>
0

> <r_epik_Ionization_Penalty_Neutral>
1.34373e-05

> <r_epik_State_Penalty>
-0

> <r_epik_Charging_Adjusted_Penalty>
0

> <i_epik_Tot_Q>
0

> <i_epik_Tot_abs_Q>
0

> <r_epik_Metal_State_Penalty>
-0

> <b_epik_Metal_Only>
0

> <s_lp_Force_Field>
OPLS_2005

> <r_lp_Energy>
3.80917

> <b_lp_Chiralities_Consistent>
1

> <s_lp_Variant>
AV-unprocessed.smi:1511-1

> <Gold.Version>
5.8.1

> <Gold.Id.Protein>
6NUR|6NUR_protein|mol2

> <Gold.PLP.Fitness>
37.4765

> <Gold.PLP.PLP>
-23.7002

> <Gold.PLP.part.hbond>
-4.0000

> <Gold.PLP.part.metal>
0.0000

> <Gold.PLP.part.buried>
-2.6331

> <Gold.PLP.part.nonpolar>
-17.2482

> <Gold.PLP.part.repulsive>
0.8872

> <Gold.PLP.ligand.clash>
0.0000

> <Gold.PLP.ligand.torsion>
0.5758

> <Gold.PLP.Chemscore.Hbond>
3.9760

> <Gold.PLP.Chemscore.CHOScore>
0.9973

> <Gold.PLP.Chemscore.Metal>
0.0000

> <Gold.Chemscore.Hbonds>
donor molecule, donor type, donor heavy atom, donor atom, acceptor molecule, acceptor atom, score
      P1  H  6931  6943       L1    16  1.00
      P1  H  6934  6947       L1    15  1.00
      P1  H  7989  7998       L1     8  0.96
      P1  H 10752 10764       L1     1  1.00
      L1  C     7    22       P1  8028  0.93

> <Gold.PLP.Chemscore.Internal.Correction>
0.0078

> <Gold.Rescore>
     Score         DG    S(hbond)    S(metal)    S(lipo)     H(rot)  DE(clash)    DE(int)     intcor
     14.01     -14.57       2.82        0.00      36.92       1.82       0.01       0.55       ----

> <Gold.Chemscore.Fitness>
14.0065

> <Gold.Chemscore.DG>
-14.5729

> <Gold.Chemscore.ZeroCoef>
-5.4800

> <Gold.Chemscore.Hbond>
2.8225

> <Gold.Chemscore.Metal>
0.0000

> <Gold.Chemscore.Lipo>
36.9191

> <Gold.Chemscore.Internal_Hbond>
0.0000

> <Gold.Chemscore.DEClash>
0.0135

> <Gold.Chemscore.DEInternal>
0.5529

> <Gold.Chemscore.Rot>
1.8178

> <Gold.Chemscore.Internal.Correction>
   9.000000E+99

> <Gold.Chemscore.Hbonds>
donor molecule, donor type, donor heavy atom, donor atom, acceptor molecule, acceptor atom, score
      P1  H  6931  6943       L1    16  0.34
      P1  H  6934  6947       L1    15  0.55
      P1  H  7989  7998       L1     8  0.23
      P1  H 10752 10764       L1     1  0.99

> <Gold.Chemscore.Hbond.Weighted>
-9.4270

> <Gold.Chemscore.Metal.Weighted>
-0.0000

> <Gold.Chemscore.Lipo.Weighted>
-4.3195

> <Gold.Chemscore.Internal_Hbond.Weighted>
0.0000

> <Gold.Chemscore.DEClash.Weighted>
0.0135

> <Gold.Chemscore.DEInternal.Weighted>
0.5529

> <Gold.Chemscore.Rot.Weighted>
4.6537

> <Gold.Chemscore.Internal.Correction.Weighted>
   9.000000E+99

> <Gold.Protein.RotatedTorsions>
[ 6907 6896 6895 6894 ] final  149.92 input  -60.11 | X-H torsion
[ 7974 7965 7964 7962 ] final -147.78 input  175.53 | X-H torsion
[ 8008 7997 7996 7995 ] final    5.69 input   59.86 | X-H torsion
[ 10167 10162 10161 10158 ] final   85.01 input  -65.29 | X-H torsion
[ 10718 10713 10712 10709 ] final  115.63 input   66.30 | X-H torsion
[ 10763 10752 10751 10750 ] final  -82.59 input  -60.55 | X-H torsion
[ 11005 11000 10999 10996 ] final  150.78 input  -57.11 | X-H torsion

> <Gold.Protein.ActiveResidues>
 VAL166  LYS551  ARG553  GLY616  TRP617  ASP618  TYR619  PRO620  LYS621  CYS622 
 ASP623  PHE694  ASN695  SER759  ASP760  ASP761  ALA762  ILE779  LEU786  VAL792 
 PHE793  MET794  SER795  GLU796  ALA797  LYS798  CYS799  TRP800  GLU811  SER814 

> <Gold.Protein.RotatedAtoms>
  152.1215  133.4356  159.4677 H   0  0  0  0  0  0  0  0  0  0  0  0  # atno 6907 bound_to 6896
  150.6872  134.2529  159.4527 H   0  0  0  0  0  0  0  0  0  0  0  0  # atno 6908 bound_to 6896
  152.0406  134.9713  160.0624 H   0  0  0  0  0  0  0  0  0  0  0  0  # atno 6909 bound_to 6896
  144.8071  140.5282  143.5668 H   0  0  0  0  0  0  0  0  0  0  0  0  # atno 7974 bound_to 7965
  154.7316  140.2731  155.6451 H   0  0  0  0  0  0  0  0  0  0  0  0  # atno 8008 bound_to 7997
  156.2851  140.2714  156.1943 H   0  0  0  0  0  0  0  0  0  0  0  0  # atno 8009 bound_to 7997
  155.0375  140.0371  157.2487 H   0  0  0  0  0  0  0  0  0  0  0  0  # atno 8010 bound_to 7997
  139.9021  144.6323  150.8626 H   0  0  0  0  0  0  0  0  0  0  0  0  # atno 10167 bound_to 10162
  157.6210  131.1015  150.7357 H   0  0  0  0  0  0  0  0  0  0  0  0  # atno 10718 bound_to 10713
  154.5776  135.5586  153.7154 H   0  0  0  0  0  0  0  0  0  0  0  0  # atno 10763 bound_to 10752
  153.0070  135.6312  154.2027 H   0  0  0  0  0  0  0  0  0  0  0  0  # atno 10764 bound_to 10752
  154.1968  135.2880  155.2984 H   0  0  0  0  0  0  0  0  0  0  0  0  # atno 10765 bound_to 10752
  140.1161  134.8893  157.2006 H   0  0  0  0  0  0  0  0  0  0  0  0  # atno 11005 bound_to 11000
  145.5412  139.1475  143.3446 LP  0  0  0  0  0  0  0  0  0  0  0  0  # atno 17320 bound_to 7965
  146.2364  140.5552  142.8953 LP  0  0  0  0  0  0  0  0  0  0  0  0  # atno 17321 bound_to 7965
  140.7704  143.3429  151.2171 LP  0  0  0  0  0  0  0  0  0  0  0  0  # atno 17342 bound_to 10162
  139.7016  143.9524  152.2908 LP  0  0  0  0  0  0  0  0  0  0  0  0  # atno 17343 bound_to 10162
  156.7715  130.4830  149.5417 LP  0  0  0  0  0  0  0  0  0  0  0  0  # atno 17370 bound_to 10713
  156.1356  130.6208  151.0395 LP  0  0  0  0  0  0  0  0  0  0  0  0  # atno 17371 bound_to 10713
  140.3027  134.3114  155.7286 LP  0  0  0  0  0  0  0  0  0  0  0  0  # atno 17394 bound_to 11000
  141.2141  133.7601  156.9663 LP  0  0  0  0  0  0  0  0  0  0  0  0  # atno 17395 bound_to 11000

$$$$
