AV-unprocessed.smi:3281|AV-procd|sdf|12558|dock2
  -GOLD-   2272018473D 1   1.00000     0.00000
 Structure written by MMmdl.
 36 37  0  0  0  0  0  0  0  0  1 V2000
  154.1065  142.8139  163.8642 C   0  0  0  0  0  0  0  0  0  0  0  0
  153.1073  143.7562  163.1841 C   0  0  0  0  0  0  0  0  0  0  0  0
  152.8570  143.4125  161.7529 C   0  0  0  0  0  0  0  0  0  0  0  0
  153.3733  142.3572  161.0423 C   0  0  0  0  0  0  0  0  0  0  0  0
  152.9541  142.3136  159.7109 N   0  0  0  0  0  0  0  0  0  0  0  0
  152.1181  143.3094  159.4059 C   0  0  0  0  0  0  0  0  0  0  0  0
  151.5485  143.5262  158.0406 C   0  0  0  0  0  0  0  0  0  0  0  0
  151.1900  142.2179  157.3181 C   0  0  0  0  0  0  0  0  0  0  0  0
  150.4097  142.4931  156.1189 N   0  0  0  0  0  0  0  0  0  0  0  0
  149.5805  141.3615  155.7252 C   0  0  2  0  0  0  0  0  0  0  0  0
  150.5106  140.1497  155.5220 C   0  0  0  0  0  0  0  0  0  0  0  0
  149.7409  138.8709  155.1553 C   0  0  0  0  0  0  0  0  0  0  0  0
  148.9663  139.0135  153.8380 C   0  0  0  0  0  0  0  0  0  0  0  0
  147.7162  140.3219  153.9506 S   0  0  0  0  0  0  0  0  0  0  0  0
  148.7993  141.6931  154.4361 C   0  0  0  0  0  0  0  0  0  0  0  0
  151.8118  144.3934  160.7573 S   0  0  0  0  0  0  0  0  0  0  0  0
  154.2577  143.0948  164.9066 H   0  0  0  0  0  0  0  0  0  0  0  0
  155.0770  142.8422  163.3679 H   0  0  0  0  0  0  0  0  0  0  0  0
  153.7504  141.7835  163.8450 H   0  0  0  0  0  0  0  0  0  0  0  0
  152.1655  143.7380  163.7336 H   0  0  0  0  0  0  0  0  0  0  0  0
  153.4748  144.7807  163.2501 H   0  0  0  0  0  0  0  0  0  0  0  0
  154.0487  141.5953  161.4024 H   0  0  0  0  0  0  0  0  0  0  0  0
  150.6708  144.1697  158.1179 H   0  0  0  0  0  0  0  0  0  0  0  0
  152.2810  144.0772  157.4504 H   0  0  0  0  0  0  0  0  0  0  0  0
  152.1011  141.6905  157.0340 H   0  0  0  0  0  0  0  0  0  0  0  0
  150.6406  141.5677  157.9983 H   0  0  0  0  0  0  0  0  0  0  0  0
  149.8344  143.3128  156.2540 H   0  0  0  0  0  0  0  0  0  0  0  0
  148.8849  141.1309  156.5339 H   0  0  0  0  0  0  0  0  0  0  0  0
  151.2457  140.3667  154.7454 H   0  0  0  0  0  0  0  0  0  0  0  0
  151.0780  139.9674  156.4358 H   0  0  0  0  0  0  0  0  0  0  0  0
  150.4430  138.0410  155.0703 H   0  0  0  0  0  0  0  0  0  0  0  0
  149.0539  138.6085  155.9608 H   0  0  0  0  0  0  0  0  0  0  0  0
  149.6481  139.2423  153.0183 H   0  0  0  0  0  0  0  0  0  0  0  0
  148.4694  138.0757  153.5888 H   0  0  0  0  0  0  0  0  0  0  0  0
  148.1742  142.5764  154.5638 H   0  0  0  0  0  0  0  0  0  0  0  0
  149.4854  141.9066  153.6155 H   0  0  0  0  0  0  0  0  0  0  0  0
  1  2  1  0  0  0  0
  1 17  1  0  0  0  0
  1 18  1  0  0  0  0
  1 19  1  0  0  0  0
  2  3  1  0  0  0  0
  2 20  1  0  0  0  0
  2 21  1  0  0  0  0
  3 16  1  0  0  0  0
  3  4  2  0  0  0  0
  4  5  1  0  0  0  0
  4 22  1  0  0  0  0
  5  6  2  0  0  0  0
  6  7  1  0  0  0  0
  6 16  1  0  0  0  0
  7  8  1  0  0  0  0
  7 23  1  0  0  0  0
  7 24  1  0  0  0  0
  8  9  1  0  0  0  0
  8 25  1  0  0  0  0
  8 26  1  0  0  0  0
  9 10  1  0  0  0  0
  9 27  1  0  0  0  0
 10 15  1  0  0  0  0
 10 11  1  0  0  0  0
 10 28  1  0  0  0  0
 11 12  1  0  0  0  0
 11 29  1  0  0  0  0
 11 30  1  0  0  0  0
 12 13  1  0  0  0  0
 12 31  1  0  0  0  0
 12 32  1  0  0  0  0
 13 14  1  0  0  0  0
 13 33  1  0  0  0  0
 13 34  1  0  0  0  0
 14 15  1  0  0  0  0
 15 35  1  0  0  0  0
 15 36  1  0  0  0  0
M  END
> <s_m_source_file>
AV-unprocessed.smi

> <i_m_source_file_index>
3281

> <i_lp_mmshare_version>
43012

> <i_f3d_flags>
0

> <s_epik_input>
W0NIM11bQ0gyXWMxW2NIXW5jKHMxKVtDSDJdW0NIMl1bTkhdW0NAQEhdMltDSDJdW0NIMl1bQ0gyXVNbQ0gyXTI=

> <s_epik_cmdline>
J2VwaWtfcHl0aG9uJywgJy1waCcsICc3LjAnLCAnLXRuJywgJzgnLCAnLW1hJywgJzIwMCcsICctbWV0YWxfYmluZGluZycsICctaW1hZScsICc8aW5maWxlLm1hZT4nLCAnLW9tYWUnLCAnPG91dGZpbGUubWFlPic=

> <r_epik_Ionization_Penalty>
2.53829

> <r_epik_Ionization_Penalty_Charging>
0

> <r_epik_Ionization_Penalty_Neutral>
2.53829

> <r_epik_State_Penalty>
2.70274

> <r_epik_Charging_Adjusted_Penalty>
2.70274

> <i_epik_Tot_Q>
0

> <i_epik_Tot_abs_Q>
0

> <r_epik_Metal_State_Penalty>
2.69977

> <b_epik_Metal_Only>
0

> <s_lp_Force_Field>
OPLS_2005

> <r_lp_Energy>
0.229732

> <b_lp_Chiralities_Consistent>
1

> <s_lp_Variant>
AV-unprocessed.smi:3281-3

> <Gold.Version>
5.8.1

> <Gold.Id.Protein>
6NUR|6NUR_protein|mol2

> <Gold.PLP.Fitness>
42.4247

> <Gold.PLP.PLP>
-40.3713

> <Gold.PLP.part.hbond>
-1.0000

> <Gold.PLP.part.metal>
0.0000

> <Gold.PLP.part.buried>
-0.9981

> <Gold.PLP.part.nonpolar>
-38.1522

> <Gold.PLP.part.repulsive>
0.0000

> <Gold.PLP.ligand.clash>
0.0000

> <Gold.PLP.ligand.torsion>
0.5035

> <Gold.PLP.Chemscore.Hbond>
1.0000

> <Gold.PLP.Chemscore.CHOScore>
0.0000

> <Gold.PLP.Chemscore.Metal>
0.0000

> <Gold.Chemscore.Hbonds>
donor molecule, donor type, donor heavy atom, donor atom, acceptor molecule, acceptor atom, score
      L1  H     9    27       P1  8028  1.00

> <Gold.PLP.Chemscore.Internal.Correction>
0.0603

> <Gold.Rescore>
     Score         DG    S(hbond)    S(metal)    S(lipo)     H(rot)  DE(clash)    DE(int)     intcor
     19.39     -20.26       0.98        0.00     126.90       1.30       0.40       0.47       ----

> <Gold.Chemscore.Fitness>
19.3947

> <Gold.Chemscore.DG>
-20.2648

> <Gold.Chemscore.ZeroCoef>
-5.4800

> <Gold.Chemscore.Hbond>
0.9755

> <Gold.Chemscore.Metal>
0.0000

> <Gold.Chemscore.Lipo>
126.9021

> <Gold.Chemscore.Internal_Hbond>
0.0000

> <Gold.Chemscore.DEClash>
0.3987

> <Gold.Chemscore.DEInternal>
0.4715

> <Gold.Chemscore.Rot>
1.2972

> <Gold.Chemscore.Internal.Correction>
   9.000000E+99

> <Gold.Chemscore.Hbonds>
donor molecule, donor type, donor heavy atom, donor atom, acceptor molecule, acceptor atom, score
      L1  H     9    27       P1  8028  0.97

> <Gold.Chemscore.Hbond.Weighted>
-3.2581

> <Gold.Chemscore.Metal.Weighted>
-0.0000

> <Gold.Chemscore.Lipo.Weighted>
-14.8475

> <Gold.Chemscore.Internal_Hbond.Weighted>
0.0000

> <Gold.Chemscore.DEClash.Weighted>
0.3987

> <Gold.Chemscore.DEInternal.Weighted>
0.4715

> <Gold.Chemscore.Rot.Weighted>
3.3208

> <Gold.Chemscore.Internal.Correction.Weighted>
   9.000000E+99

> <Gold.Protein.RotatedTorsions>
[ 6907 6896 6895 6894 ] final -114.44 input  -60.11 | X-H torsion
[ 7974 7965 7964 7962 ] final   23.63 input  175.53 | X-H torsion
[ 8008 7997 7996 7995 ] final   68.67 input   59.86 | X-H torsion
[ 10167 10162 10161 10158 ] final  144.79 input  -65.29 | X-H torsion
[ 10718 10713 10712 10709 ] final  170.29 input   66.30 | X-H torsion
[ 10763 10752 10751 10750 ] final -140.47 input  -60.55 | X-H torsion
[ 11005 11000 10999 10996 ] final    0.80 input  -57.11 | X-H torsion

> <Gold.Protein.ActiveResidues>
 VAL166  LYS551  ARG553  GLY616  TRP617  ASP618  TYR619  PRO620  LYS621  CYS622 
 ASP623  PHE694  ASN695  SER759  ASP760  ASP761  ALA762  ILE779  LEU786  VAL792 
 PHE793  MET794  SER795  GLU796  ALA797  LYS798  CYS799  TRP800  GLU811  SER814 

> <Gold.Protein.RotatedAtoms>
  150.7902  133.8800  159.3283 H   0  0  0  0  0  0  0  0  0  0  0  0  # atno 6907 bound_to 6896
  151.6640  135.0983  160.0194 H   0  0  0  0  0  0  0  0  0  0  0  0  # atno 6908 bound_to 6896
  152.3975  133.6730  159.6324 H   0  0  0  0  0  0  0  0  0  0  0  0  # atno 6909 bound_to 6896
  146.1975  139.7717  142.8786 H   0  0  0  0  0  0  0  0  0  0  0  0  # atno 7974 bound_to 7965
  155.7118  140.3494  155.4977 H   0  0  0  0  0  0  0  0  0  0  0  0  # atno 8008 bound_to 7997
  155.9349  140.1091  157.1125 H   0  0  0  0  0  0  0  0  0  0  0  0  # atno 8009 bound_to 7997
  154.4092  140.1224  156.4837 H   0  0  0  0  0  0  0  0  0  0  0  0  # atno 8010 bound_to 7997
  139.4939  144.5947  151.6607 H   0  0  0  0  0  0  0  0  0  0  0  0  # atno 10167 bound_to 10162
  157.0103  131.0202  151.2805 H   0  0  0  0  0  0  0  0  0  0  0  0  # atno 10718 bound_to 10713
  154.8577  135.3552  154.5713 H   0  0  0  0  0  0  0  0  0  0  0  0  # atno 10763 bound_to 10752
  153.6326  135.7001  153.5275 H   0  0  0  0  0  0  0  0  0  0  0  0  # atno 10764 bound_to 10752
  153.3037  135.4199  155.1234 H   0  0  0  0  0  0  0  0  0  0  0  0  # atno 10765 bound_to 10752
  140.6226  133.9648  155.8232 H   0  0  0  0  0  0  0  0  0  0  0  0  # atno 11005 bound_to 11000
  145.3595  141.0323  143.3293 LP  0  0  0  0  0  0  0  0  0  0  0  0  # atno 17320 bound_to 7965
  144.8611  139.5175  143.6811 LP  0  0  0  0  0  0  0  0  0  0  0  0  # atno 17321 bound_to 7965
  140.5582  144.0312  150.6157 LP  0  0  0  0  0  0  0  0  0  0  0  0  # atno 17342 bound_to 10162
  140.3389  143.3031  152.0609 LP  0  0  0  0  0  0  0  0  0  0  0  0  # atno 17343 bound_to 10162
  157.5325  130.8068  149.7934 LP  0  0  0  0  0  0  0  0  0  0  0  0  # atno 17370 bound_to 10713
  156.0138  130.3822  150.2176 LP  0  0  0  0  0  0  0  0  0  0  0  0  # atno 17371 bound_to 10713
  141.0732  134.0174  157.3496 LP  0  0  0  0  0  0  0  0  0  0  0  0  # atno 17394 bound_to 11000
  139.9147  135.0195  156.7835 LP  0  0  0  0  0  0  0  0  0  0  0  0  # atno 17395 bound_to 11000

$$$$
