AV-unprocessed.smi:2923|AV-procd|sdf|11210|dock7
  -GOLD-   2272016103D 1   1.00000     0.00000
 Structure written by MMmdl.
 46 48  0  0  0  0  0  0  0  0  1 V2000
  151.9191  140.9263  157.0087 C   0  0  0  0  0  0  0  0  0  0  0  0
  150.6167  141.3432  156.5127 N   0  0  0  0  0  0  0  0  0  0  0  0
  149.8160  142.1603  157.4118 C   0  0  0  0  0  0  0  0  0  0  0  0
  149.8916  140.2928  155.9354 C   0  0  0  0  0  0  0  0  0  0  0  0
  148.7743  139.7246  156.5883 C   0  0  0  0  0  0  0  0  0  0  0  0
  148.0833  138.6720  155.9582 C   0  0  0  0  0  0  0  0  0  0  0  0
  148.5358  138.2155  154.6975 C   0  0  0  0  0  0  0  0  0  0  0  0
  147.9117  137.1814  153.9497 N   0  0  0  0  0  0  0  0  0  0  0  0
  146.7880  136.5024  154.2355 C   0  0  0  0  0  0  0  0  0  0  0  0
  146.1054  136.6449  155.2497 O   0  0  0  0  0  0  0  0  0  0  0  0
  146.5003  135.6199  153.2701 N   0  0  0  0  0  0  0  0  0  0  0  0
  145.3528  134.7065  153.2884 C   0  0  2  0  0  0  0  0  0  0  0  0
  145.5089  133.5512  152.2962 C   0  0  2  0  0  0  0  0  0  0  0  0
  146.6363  132.9334  151.5506 C   0  0  0  0  0  0  0  0  0  0  0  0
  145.8966  132.7495  150.1976 C   0  0  0  0  0  0  0  0  0  0  0  0
  144.6485  133.4787  150.3221 O   0  0  0  0  0  0  0  0  0  0  0  0
  144.9423  134.4976  151.2574 C   0  0  1  0  0  0  0  0  0  0  0  0
  144.1194  135.1373  152.3979 C   0  0  0  0  0  0  0  0  0  0  0  0
  142.7571  134.4982  152.7231 C   0  0  0  0  0  0  0  0  0  0  0  0
  143.8500  136.6392  152.2525 C   0  0  0  0  0  0  0  0  0  0  0  0
  149.6539  138.8597  154.1288 C   0  0  0  0  0  0  0  0  0  0  0  0
  150.3218  139.8680  154.7278 N   0  0  0  0  0  0  0  0  0  0  0  0
  152.4406  140.3185  156.2681 H   0  0  0  0  0  0  0  0  0  0  0  0
  151.8209  140.3442  157.9255 H   0  0  0  0  0  0  0  0  0  0  0  0
  152.5366  141.7990  157.2222 H   0  0  0  0  0  0  0  0  0  0  0  0
  148.8688  142.4357  156.9461 H   0  0  0  0  0  0  0  0  0  0  0  0
  150.3481  143.0789  157.6596 H   0  0  0  0  0  0  0  0  0  0  0  0
  149.6025  141.6290  158.3398 H   0  0  0  0  0  0  0  0  0  0  0  0
  148.4466  140.0887  157.5511 H   0  0  0  0  0  0  0  0  0  0  0  0
  147.2176  138.2506  156.4450 H   0  0  0  0  0  0  0  0  0  0  0  0
  148.4071  136.8900  153.1197 H   0  0  0  0  0  0  0  0  0  0  0  0
  147.1162  135.5650  152.4723 H   0  0  0  0  0  0  0  0  0  0  0  0
  145.0706  134.3708  154.2877 H   0  0  0  0  0  0  0  0  0  0  0  0
  144.8072  132.7623  152.5774 H   0  0  0  0  0  0  0  0  0  0  0  0
  147.4917  133.6044  151.4624 H   0  0  0  0  0  0  0  0  0  0  0  0
  146.9646  131.9876  151.9820 H   0  0  0  0  0  0  0  0  0  0  0  0
  146.4896  133.1489  149.3737 H   0  0  0  0  0  0  0  0  0  0  0  0
  145.6874  131.7004  149.9864 H   0  0  0  0  0  0  0  0  0  0  0  0
  145.6759  135.1953  150.8403 H   0  0  0  0  0  0  0  0  0  0  0  0
  142.0602  134.6135  151.8923 H   0  0  0  0  0  0  0  0  0  0  0  0
  142.3002  134.9637  153.5971 H   0  0  0  0  0  0  0  0  0  0  0  0
  142.8150  133.4325  152.9373 H   0  0  0  0  0  0  0  0  0  0  0  0
  143.0534  136.8364  151.5345 H   0  0  0  0  0  0  0  0  0  0  0  0
  144.7285  137.1808  151.9017 H   0  0  0  0  0  0  0  0  0  0  0  0
  143.5548  137.0837  153.2034 H   0  0  0  0  0  0  0  0  0  0  0  0
  150.0292  138.5551  153.1627 H   0  0  0  0  0  0  0  0  0  0  0  0
  1  2  1  0  0  0  0
  1 23  1  0  0  0  0
  1 24  1  0  0  0  0
  1 25  1  0  0  0  0
  2  3  1  0  0  0  0
  2  4  1  0  0  0  0
  3 26  1  0  0  0  0
  3 27  1  0  0  0  0
  3 28  1  0  0  0  0
  4 22  1  0  0  0  0
  4  5  2  0  0  0  0
  5  6  1  0  0  0  0
  5 29  1  0  0  0  0
  6  7  2  0  0  0  0
  6 30  1  0  0  0  0
  7  8  1  0  0  0  0
  7 21  1  0  0  0  0
  8  9  1  0  0  0  0
  8 31  1  0  0  0  0
  9 10  2  0  0  0  0
  9 11  1  0  0  0  0
 11 12  1  0  0  0  0
 11 32  1  0  0  0  0
 12 18  1  0  0  0  0
 12 13  1  0  0  0  0
 12 33  1  0  0  0  0
 13 17  1  0  0  0  0
 13 14  1  0  0  0  0
 13 34  1  0  0  0  0
 14 15  1  0  0  0  0
 14 35  1  0  0  0  0
 14 36  1  0  0  0  0
 15 16  1  0  0  0  0
 15 37  1  0  0  0  0
 15 38  1  0  0  0  0
 16 17  1  0  0  0  0
 17 18  1  0  0  0  0
 17 39  1  0  0  0  0
 18 19  1  0  0  0  0
 18 20  1  0  0  0  0
 19 40  1  0  0  0  0
 19 41  1  0  0  0  0
 19 42  1  0  0  0  0
 20 43  1  0  0  0  0
 20 44  1  0  0  0  0
 20 45  1  0  0  0  0
 21 22  2  0  0  0  0
 21 46  1  0  0  0  0
M  END
> <s_m_source_file>
AV-unprocessed.smi

> <i_m_source_file_index>
2923

> <i_lp_mmshare_version>
43012

> <i_f3d_flags>
0

> <s_epik_input>
W0NIM11OKFtDSDNdKWMxW2NIXVtjSF1jKFtjSF1uMSlbTkhdQyg9TylbTkhdW0NASF0yQyhbQ0gzXSkoW0NIM10pW0NAQEhdKFtDQEhdMjMpT1tDSDJdW0NIMl0z

> <s_epik_cmdline>
J2VwaWtfcHl0aG9uJywgJy1waCcsICc3LjAnLCAnLXRuJywgJzgnLCAnLW1hJywgJzIwMCcsICctbWV0YWxfYmluZGluZycsICctaW1hZScsICc8aW5maWxlLm1hZT4nLCAnLW9tYWUnLCAnPG91dGZpbGUubWFlPic=

> <r_lp_tautomer_probability>
1

> <r_epik_Ionization_Penalty>
0.628785

> <r_epik_Ionization_Penalty_Charging>
0

> <r_epik_Ionization_Penalty_Neutral>
0.628785

> <r_epik_State_Penalty>
0.644286

> <r_epik_Charging_Adjusted_Penalty>
0.644286

> <i_epik_Tot_Q>
0

> <i_epik_Tot_abs_Q>
0

> <r_epik_Metal_State_Penalty>
0.308404

> <b_epik_Metal_Only>
0

> <s_lp_Force_Field>
OPLS_2005

> <r_lp_Energy>
70.0189

> <b_lp_Chiralities_Consistent>
1

> <s_lp_Variant>
AV-unprocessed.smi:2923-9

> <Gold.Version>
5.8.1

> <Gold.Id.Protein>
6NUR|6NUR_protein|mol2

> <Gold.PLP.Fitness>
35.9472

> <Gold.PLP.PLP>
-25.6881

> <Gold.PLP.part.hbond>
-2.9258

> <Gold.PLP.part.metal>
0.0000

> <Gold.PLP.part.buried>
-3.5687

> <Gold.PLP.part.nonpolar>
-18.9970

> <Gold.PLP.part.repulsive>
0.3129

> <Gold.PLP.ligand.clash>
0.0000

> <Gold.PLP.ligand.torsion>
0.7635

> <Gold.PLP.Chemscore.Hbond>
2.7495

> <Gold.PLP.Chemscore.CHOScore>
1.0225

> <Gold.PLP.Chemscore.Metal>
0.0000

> <Gold.Chemscore.Hbonds>
donor molecule, donor type, donor heavy atom, donor atom, acceptor molecule, acceptor atom, score
      L1  H     8    31       P1  7948  0.98
      L1  H    11    32       P1  7948  0.83
      P1  H  7989  7998       L1    22  0.94
      L1  C    21    46       P1  7948  0.22
      L1  C    21    46       P1  7957  0.80

> <Gold.PLP.Chemscore.Internal.Correction>
0.4702

> <Gold.Rescore>
     Score         DG    S(hbond)    S(metal)    S(lipo)     H(rot)  DE(clash)    DE(int)     intcor
     16.36     -18.63       2.56        0.00      65.50       1.19       0.21       2.07       ----

> <Gold.Chemscore.Fitness>
16.3580

> <Gold.Chemscore.DG>
-18.6316

> <Gold.Chemscore.ZeroCoef>
-5.4800

> <Gold.Chemscore.Hbond>
2.5582

> <Gold.Chemscore.Metal>
0.0000

> <Gold.Chemscore.Lipo>
65.4960

> <Gold.Chemscore.Internal_Hbond>
0.0000

> <Gold.Chemscore.DEClash>
0.2084

> <Gold.Chemscore.DEInternal>
2.0652

> <Gold.Chemscore.Rot>
1.1937

> <Gold.Chemscore.Internal.Correction>
   9.000000E+99

> <Gold.Chemscore.Hbonds>
donor molecule, donor type, donor heavy atom, donor atom, acceptor molecule, acceptor atom, score
      L1  H     8    31       P1  7948  0.91
      L1  H    11    32       P1  7948  0.76
      P1  H  7989  7998       L1    22  0.79

> <Gold.Chemscore.Hbond.Weighted>
-8.5444

> <Gold.Chemscore.Metal.Weighted>
-0.0000

> <Gold.Chemscore.Lipo.Weighted>
-7.6630

> <Gold.Chemscore.Internal_Hbond.Weighted>
0.0000

> <Gold.Chemscore.DEClash.Weighted>
0.2084

> <Gold.Chemscore.DEInternal.Weighted>
2.0652

> <Gold.Chemscore.Rot.Weighted>
3.0559

> <Gold.Chemscore.Internal.Correction.Weighted>
   9.000000E+99

> <Gold.Protein.RotatedTorsions>
[ 6907 6896 6895 6894 ] final  -80.72 input  -60.11 | X-H torsion
[ 7974 7965 7964 7962 ] final -155.57 input  175.53 | X-H torsion
[ 8008 7997 7996 7995 ] final -178.79 input   59.86 | X-H torsion
[ 10167 10162 10161 10158 ] final  151.73 input  -65.29 | X-H torsion
[ 10718 10713 10712 10709 ] final -172.59 input   66.30 | X-H torsion
[ 10763 10752 10751 10750 ] final  151.79 input  -60.55 | X-H torsion
[ 11005 11000 10999 10996 ] final   62.24 input  -57.11 | X-H torsion

> <Gold.Protein.ActiveResidues>
 VAL166  LYS551  ARG553  GLY616  TRP617  ASP618  TYR619  PRO620  LYS621  CYS622 
 ASP623  PHE694  ASN695  SER759  ASP760  ASP761  ALA762  ILE779  LEU786  VAL792 
 PHE793  MET794  SER795  GLU796  ALA797  LYS798  CYS799  TRP800  GLU811  SER814 

> <Gold.Protein.RotatedAtoms>
  150.6924  134.3926  159.5082 H   0  0  0  0  0  0  0  0  0  0  0  0  # atno 6907 bound_to 6896
  152.1712  134.8830  160.0543 H   0  0  0  0  0  0  0  0  0  0  0  0  # atno 6908 bound_to 6896
  151.9855  133.3738  159.4161 H   0  0  0  0  0  0  0  0  0  0  0  0  # atno 6909 bound_to 6896
  144.7634  140.4231  143.5960 H   0  0  0  0  0  0  0  0  0  0  0  0  # atno 7974 bound_to 7965
  156.0229  140.1265  157.0338 H   0  0  0  0  0  0  0  0  0  0  0  0  # atno 8008 bound_to 7997
  154.4319  140.1065  156.6060 H   0  0  0  0  0  0  0  0  0  0  0  0  # atno 8009 bound_to 7997
  155.5918  140.3469  155.4571 H   0  0  0  0  0  0  0  0  0  0  0  0  # atno 8010 bound_to 7997
  139.4838  144.5416  151.7554 H   0  0  0  0  0  0  0  0  0  0  0  0  # atno 10167 bound_to 10162
  156.7578  130.9402  151.3117 H   0  0  0  0  0  0  0  0  0  0  0  0  # atno 10718 bound_to 10713
  154.1096  135.2840  155.3233 H   0  0  0  0  0  0  0  0  0  0  0  0  # atno 10763 bound_to 10752
  154.6499  135.5372  153.7893 H   0  0  0  0  0  0  0  0  0  0  0  0  # atno 10764 bound_to 10752
  153.0350  135.6507  154.1255 H   0  0  0  0  0  0  0  0  0  0  0  0  # atno 10765 bound_to 10752
  140.0105  134.6303  155.9787 H   0  0  0  0  0  0  0  0  0  0  0  0  # atno 11005 bound_to 11000
  145.6547  139.1571  143.2842 LP  0  0  0  0  0  0  0  0  0  0  0  0  # atno 17320 bound_to 7965
  146.1719  140.6633  142.9229 LP  0  0  0  0  0  0  0  0  0  0  0  0  # atno 17321 bound_to 7965
  140.4957  144.1245  150.5959 LP  0  0  0  0  0  0  0  0  0  0  0  0  # atno 17342 bound_to 10162
  140.4120  143.2652  151.9820 LP  0  0  0  0  0  0  0  0  0  0  0  0  # atno 17343 bound_to 10162
  157.6748  130.9084  150.0124 LP  0  0  0  0  0  0  0  0  0  0  0  0  # atno 17370 bound_to 10713
  156.1359  130.3642  149.9658 LP  0  0  0  0  0  0  0  0  0  0  0  0  # atno 17371 bound_to 10713
  141.1708  133.6537  156.4644 LP  0  0  0  0  0  0  0  0  0  0  0  0  # atno 17394 bound_to 11000
  140.4562  134.6883  157.5064 LP  0  0  0  0  0  0  0  0  0  0  0  0  # atno 17395 bound_to 11000

$$$$
