AV-unprocessed.smi:1298|AV-procd|sdf|5417|dock10
  -GOLD-   22720 4573D 1   1.00000     0.00000
 Structure written by MMmdl.
 30 31  0  0  0  0  0  0  0  0  1 V2000
  152.4325  143.5002  161.1535 C   0  0  0  0  0  0  0  0  0  0  0  0
  153.2307  142.5409  160.6616 C   0  0  0  0  0  0  0  0  0  0  0  0
  154.1770  141.5167  161.6807 Cl  0  0  0  0  0  0  0  0  0  0  0  0
  153.3986  142.2103  159.1933 C   0  0  0  0  0  0  0  0  0  0  0  0
  153.1653  140.4381  158.8677 S   0  0  0  0  0  0  0  0  0  0  0  0
  152.2503  140.5129  157.3551 C   0  0  0  0  0  0  0  0  0  0  0  0
  152.5507  139.8197  156.2519 N   0  0  0  0  0  0  0  0  0  0  0  0
  151.5903  140.1545  155.3251 N   0  0  0  0  0  0  0  0  0  0  0  0
  150.8005  141.0367  155.9393 C   0  0  0  0  0  0  0  0  0  0  0  0
  149.5889  141.6412  155.3030 C   0  0  0  0  0  0  0  0  0  0  0  0
  148.2438  140.9509  155.3669 C   0  0  0  0  0  0  0  0  0  0  0  0
  148.9790  141.0400  154.0556 C   0  0  0  0  0  0  0  0  0  0  0  0
  151.1563  141.2925  157.2155 N   0  0  0  0  0  0  0  0  0  0  0  0
  150.5125  142.1639  158.1909 C   0  0  0  0  0  0  0  0  0  0  0  0
  150.9351  143.6210  157.9921 C   0  0  0  0  0  0  0  0  0  0  0  0
  151.4735  143.9437  156.8134 N   0  0  0  0  0  0  0  0  0  0  0  0
  150.7730  144.4465  158.8882 O   0  0  0  0  0  0  0  0  0  0  0  0
  152.3585  143.6731  162.2171 H   0  0  0  0  0  0  0  0  0  0  0  0
  151.8434  144.1257  160.4988 H   0  0  0  0  0  0  0  0  0  0  0  0
  152.6836  142.7866  158.6047 H   0  0  0  0  0  0  0  0  0  0  0  0
  154.3976  142.5087  158.8726 H   0  0  0  0  0  0  0  0  0  0  0  0
  149.6085  142.7258  155.3912 H   0  0  0  0  0  0  0  0  0  0  0  0
  148.1937  139.9751  155.8464 H   0  0  0  0  0  0  0  0  0  0  0  0
  147.3642  141.5783  155.4942 H   0  0  0  0  0  0  0  0  0  0  0  0
  148.5918  141.7270  153.3060 H   0  0  0  0  0  0  0  0  0  0  0  0
  149.4198  140.1242  153.6662 H   0  0  0  0  0  0  0  0  0  0  0  0
  149.4294  142.0840  158.0983 H   0  0  0  0  0  0  0  0  0  0  0  0
  150.7580  141.8229  159.1967 H   0  0  0  0  0  0  0  0  0  0  0  0
  151.7653  144.8932  156.6331 H   0  0  0  0  0  0  0  0  0  0  0  0
  151.5839  143.2340  156.1034 H   0  0  0  0  0  0  0  0  0  0  0  0
  1  2  2  0  0  0  0
  1 18  1  0  0  0  0
  1 19  1  0  0  0  0
  2  3  1  0  0  0  0
  2  4  1  0  0  0  0
  4  5  1  0  0  0  0
  4 20  1  0  0  0  0
  4 21  1  0  0  0  0
  5  6  1  0  0  0  0
  6 13  1  0  0  0  0
  6  7  2  0  0  0  0
  7  8  1  0  0  0  0
  8  9  2  0  0  0  0
  9 10  1  0  0  0  0
  9 13  1  0  0  0  0
 10 12  1  0  0  0  0
 10 11  1  0  0  0  0
 10 22  1  0  0  0  0
 11 12  1  0  0  0  0
 11 23  1  0  0  0  0
 11 24  1  0  0  0  0
 12 25  1  0  0  0  0
 12 26  1  0  0  0  0
 13 14  1  0  0  0  0
 14 15  1  0  0  0  0
 14 27  1  0  0  0  0
 14 28  1  0  0  0  0
 15 16  1  0  0  0  0
 15 17  2  0  0  0  0
 16 29  1  0  0  0  0
 16 30  1  0  0  0  0
M  END
> <s_m_source_file>
AV-unprocessed.smi

> <i_m_source_file_index>
1298

> <i_lp_mmshare_version>
43012

> <i_f3d_flags>
0

> <s_epik_input>
W0NIMl09QyhDbClbQ0gyXVNjMW5uYyhbQ0hdMltDSDJdW0NIMl0yKW4xW0NIMl1DKD1PKVtOSDJd

> <s_epik_cmdline>
J2VwaWtfcHl0aG9uJywgJy1waCcsICc3LjAnLCAnLXRuJywgJzgnLCAnLW1hJywgJzIwMCcsICctbWV0YWxfYmluZGluZycsICctaW1hZScsICc8aW5maWxlLm1hZT4nLCAnLW9tYWUnLCAnPG91dGZpbGUubWFlPic=

> <r_lp_tautomer_probability>
1

> <r_epik_Ionization_Penalty>
2.01117e-07

> <r_epik_Ionization_Penalty_Charging>
0

> <r_epik_Ionization_Penalty_Neutral>
2.01117e-07

> <r_epik_State_Penalty>
-0

> <r_epik_Charging_Adjusted_Penalty>
0

> <i_epik_Tot_Q>
0

> <i_epik_Tot_abs_Q>
0

> <r_epik_Metal_State_Penalty>
-0

> <b_epik_Metal_Only>
0

> <s_lp_Force_Field>
OPLS_2005

> <r_lp_Energy>
3.32617

> <b_lp_Chiralities_Consistent>
1

> <s_lp_Variant>
AV-unprocessed.smi:1298-1

> <Gold.Version>
5.8.1

> <Gold.Id.Protein>
6NUR|6NUR_protein|mol2

> <Gold.PLP.Fitness>
40.4181

> <Gold.PLP.PLP>
-37.5775

> <Gold.PLP.part.hbond>
-3.0000

> <Gold.PLP.part.metal>
0.0000

> <Gold.PLP.part.buried>
-2.5340

> <Gold.PLP.part.nonpolar>
-30.5588

> <Gold.PLP.part.repulsive>
0.1805

> <Gold.PLP.ligand.clash>
0.0000

> <Gold.PLP.ligand.torsion>
1.6076

> <Gold.PLP.Chemscore.Hbond>
1.9440

> <Gold.PLP.Chemscore.CHOScore>
0.0000

> <Gold.PLP.Chemscore.Metal>
0.0000

> <Gold.Chemscore.Hbonds>
donor molecule, donor type, donor heavy atom, donor atom, acceptor molecule, acceptor atom, score
      P1  H  7989  7998       L1     8  0.96
      P1  H  7997  8008       L1     7  0.90

> <Gold.PLP.Chemscore.Internal.Correction>
0.2237

> <Gold.Rescore>
     Score         DG    S(hbond)    S(metal)    S(lipo)     H(rot)  DE(clash)    DE(int)     intcor
     10.80     -12.85       1.51        0.00      76.71       2.60       0.09       1.96       ----

> <Gold.Chemscore.Fitness>
10.7965

> <Gold.Chemscore.DG>
-12.8455

> <Gold.Chemscore.ZeroCoef>
-5.4800

> <Gold.Chemscore.Hbond>
1.5103

> <Gold.Chemscore.Metal>
0.0000

> <Gold.Chemscore.Lipo>
76.7059

> <Gold.Chemscore.Internal_Hbond>
0.0000

> <Gold.Chemscore.DEClash>
0.0858

> <Gold.Chemscore.DEInternal>
1.9631

> <Gold.Chemscore.Rot>
2.5990

> <Gold.Chemscore.Internal.Correction>
   9.000000E+99

> <Gold.Chemscore.Hbonds>
donor molecule, donor type, donor heavy atom, donor atom, acceptor molecule, acceptor atom, score
      P1  H  7989  7998       L1     8  0.32
      P1  H  7997  8008       L1     7  0.18

> <Gold.Chemscore.Hbond.Weighted>
-5.0443

> <Gold.Chemscore.Metal.Weighted>
-0.0000

> <Gold.Chemscore.Lipo.Weighted>
-8.9746

> <Gold.Chemscore.Internal_Hbond.Weighted>
0.0000

> <Gold.Chemscore.DEClash.Weighted>
0.0858

> <Gold.Chemscore.DEInternal.Weighted>
1.9631

> <Gold.Chemscore.Rot.Weighted>
6.6534

> <Gold.Chemscore.Internal.Correction.Weighted>
   9.000000E+99

> <Gold.Protein.RotatedTorsions>
[ 6907 6896 6895 6894 ] final  100.42 input  -60.11 | X-H torsion
[ 7974 7965 7964 7962 ] final -134.13 input  175.53 | X-H torsion
[ 8008 7997 7996 7995 ] final  -34.23 input   59.86 | X-H torsion
[ 10167 10162 10161 10158 ] final  118.68 input  -65.29 | X-H torsion
[ 10718 10713 10712 10709 ] final  -71.85 input   66.30 | X-H torsion
[ 10763 10752 10751 10750 ] final   -4.91 input  -60.55 | X-H torsion
[ 11005 11000 10999 10996 ] final  162.57 input  -57.11 | X-H torsion

> <Gold.Protein.ActiveResidues>
 VAL166  LYS551  ARG553  GLY616  TRP617  ASP618  TYR619  PRO620  LYS621  CYS622 
 ASP623  PHE694  ASN695  SER759  ASP760  ASP761  ALA762  ILE779  LEU786  VAL792 
 PHE793  MET794  SER795  GLU796  ALA797  LYS798  CYS799  TRP800  GLU811  SER814 

> <Gold.Protein.RotatedAtoms>
  152.5372  134.0279  159.8011 H   0  0  0  0  0  0  0  0  0  0  0  0  # atno 6907 bound_to 6896
  151.0455  133.5662  159.2654 H   0  0  0  0  0  0  0  0  0  0  0  0  # atno 6908 bound_to 6896
  151.2615  135.0663  159.9154 H   0  0  0  0  0  0  0  0  0  0  0  0  # atno 6909 bound_to 6896
  144.9131  140.6920  143.5013 H   0  0  0  0  0  0  0  0  0  0  0  0  # atno 7974 bound_to 7965
  154.4126  140.1689  156.2016 H   0  0  0  0  0  0  0  0  0  0  0  0  # atno 8008 bound_to 7997
  155.9519  140.3400  155.6392 H   0  0  0  0  0  0  0  0  0  0  0  0  # atno 8009 bound_to 7997
  155.6858  140.0728  157.2458 H   0  0  0  0  0  0  0  0  0  0  0  0  # atno 8010 bound_to 7997
  139.6095  144.7078  151.2875 H   0  0  0  0  0  0  0  0  0  0  0  0  # atno 10167 bound_to 10162
  156.0345  130.4360  150.2504 H   0  0  0  0  0  0  0  0  0  0  0  0  # atno 10718 bound_to 10713
  153.3913  135.7002  153.6493 H   0  0  0  0  0  0  0  0  0  0  0  0  # atno 10763 bound_to 10752
  153.5064  135.3641  155.2565 H   0  0  0  0  0  0  0  0  0  0  0  0  # atno 10764 bound_to 10752
  154.8702  135.4124  154.3230 H   0  0  0  0  0  0  0  0  0  0  0  0  # atno 10765 bound_to 10752
  140.2271  134.8152  157.3279 H   0  0  0  0  0  0  0  0  0  0  0  0  # atno 11005 bound_to 11000
  145.3422  139.1729  143.4480 LP  0  0  0  0  0  0  0  0  0  0  0  0  # atno 17320 bound_to 7965
  146.3168  140.3464  142.8652 LP  0  0  0  0  0  0  0  0  0  0  0  0  # atno 17321 bound_to 7965
  140.7309  143.6866  150.7956 LP  0  0  0  0  0  0  0  0  0  0  0  0  # atno 17342 bound_to 10162
  140.0458  143.5299  152.2697 LP  0  0  0  0  0  0  0  0  0  0  0  0  # atno 17343 bound_to 10162
  157.0605  131.0088  151.3224 LP  0  0  0  0  0  0  0  0  0  0  0  0  # atno 17370 bound_to 10713
  157.5074  130.7917  149.7668 LP  0  0  0  0  0  0  0  0  0  0  0  0  # atno 17371 bound_to 10713
  140.1789  134.4514  155.7784 LP  0  0  0  0  0  0  0  0  0  0  0  0  # atno 17394 bound_to 11000
  141.2220  133.6975  156.7835 LP  0  0  0  0  0  0  0  0  0  0  0  0  # atno 17395 bound_to 11000

$$$$
