AV-unprocessed.smi:2567|AV-procd|sdf|10078|dock3
  -GOLD-   2272014103D 1   1.00000     0.00000
 Structure written by MMmdl.
 34 35  0  0  0  0  0  0  0  0  2 V2000
  145.7662  132.1657  156.5073 C   0  0  0  0  0  0  0  0  0  0  0  0
  145.7686  133.6596  156.1134 C   0  0  0  0  0  0  0  0  0  0  0  0
  144.3277  134.1751  156.3216 C   0  0  0  0  0  0  0  0  0  0  0  0
  146.7331  134.4386  157.0258 C   0  0  0  0  0  0  0  0  0  0  0  0
  146.1853  133.8330  154.6714 C   0  0  0  0  0  0  0  0  0  0  0  0
  147.2376  134.5841  154.3370 N   0  0  0  0  0  0  0  0  0  0  0  0
  147.1758  134.5907  152.9897 N   0  0  0  0  0  0  0  0  0  0  0  0
  146.0950  133.9170  152.5955 C   0  0  0  0  0  0  0  0  0  0  0  0
  145.7230  133.7730  151.1536 C   0  0  2  0  0  0  0  0  0  0  0  0
  144.3038  134.2957  150.8579 C   0  0  0  0  0  0  0  0  0  0  0  0
  143.9524  134.0338  149.4486 N   0  3  0  0  0  0  0  0  0  0  0  0
  144.1056  132.6048  149.1108 C   0  0  0  0  0  0  0  0  0  0  0  0
  145.5247  132.1261  149.4640 C   0  0  0  0  0  0  0  0  0  0  0  0
  145.7908  132.3842  150.8388 O   0  0  0  0  0  0  0  0  0  0  0  0
  145.3995  133.4369  153.6206 N   0  0  0  0  0  0  0  0  0  0  0  0
  147.8515  135.0681  152.4101 H   0  0  0  0  0  0  0  0  0  0  0  0
  145.4267  132.0271  157.5344 H   0  0  0  0  0  0  0  0  0  0  0  0
  146.7623  131.7268  156.4409 H   0  0  0  0  0  0  0  0  0  0  0  0
  145.1052  131.5849  155.8628 H   0  0  0  0  0  0  0  0  0  0  0  0
  143.6214  133.6558  155.6728 H   0  0  0  0  0  0  0  0  0  0  0  0
  144.2452  135.2422  156.1117 H   0  0  0  0  0  0  0  0  0  0  0  0
  143.9978  134.0272  157.3504 H   0  0  0  0  0  0  0  0  0  0  0  0
  146.4573  134.3358  158.0757 H   0  0  0  0  0  0  0  0  0  0  0  0
  146.7304  135.5029  156.7876 H   0  0  0  0  0  0  0  0  0  0  0  0
  147.7574  134.0799  156.9181 H   0  0  0  0  0  0  0  0  0  0  0  0
  146.4554  134.3142  150.5510 H   0  0  0  0  0  0  0  0  0  0  0  0
  143.5738  133.8032  151.5022 H   0  0  0  0  0  0  0  0  0  0  0  0
  144.2370  135.3661  151.0546 H   0  0  0  0  0  0  0  0  0  0  0  0
  142.9976  134.3179  149.2816 H   0  0  0  0  0  0  0  0  0  0  0  0
  143.3648  132.0246  149.6626 H   0  0  0  0  0  0  0  0  0  0  0  0
  143.9035  132.4592  148.0494 H   0  0  0  0  0  0  0  0  0  0  0  0
  145.6169  131.0555  149.2810 H   0  0  0  0  0  0  0  0  0  0  0  0
  146.2701  132.6208  148.8393 H   0  0  0  0  0  0  0  0  0  0  0  0
  144.5656  134.5742  148.8551 H   0  0  0  0  0  0  0  0  0  0  0  0
  1  2  1  0  0  0  0
  1 17  1  0  0  0  0
  1 18  1  0  0  0  0
  1 19  1  0  0  0  0
  2  3  1  0  0  0  0
  2  4  1  0  0  0  0
  2  5  1  0  0  0  0
  3 20  1  0  0  0  0
  3 21  1  0  0  0  0
  3 22  1  0  0  0  0
  4 23  1  0  0  0  0
  4 24  1  0  0  0  0
  4 25  1  0  0  0  0
  5 15  1  0  0  0  0
  5  6  2  0  0  0  0
  6  7  1  0  0  0  0
  7 16  1  0  0  0  0
  7  8  1  0  0  0  0
  8  9  1  0  0  0  0
  8 15  2  0  0  0  0
  9 14  1  0  0  0  0
  9 10  1  0  0  0  0
  9 26  1  0  0  0  0
 10 11  1  0  0  0  0
 10 27  1  0  0  0  0
 10 28  1  0  0  0  0
 11 12  1  0  0  0  0
 11 29  1  0  0  0  0
 11 34  1  0  0  0  0
 12 13  1  0  0  0  0
 12 30  1  0  0  0  0
 12 31  1  0  0  0  0
 13 14  1  0  0  0  0
 13 32  1  0  0  0  0
 13 33  1  0  0  0  0
M  CHG  1  11   1
M  END
> <s_m_source_file>
AV-unprocessed.smi

> <i_m_source_file_index>
2567

> <i_lp_mmshare_version>
43012

> <i_f3d_flags>
0

> <s_epik_input>
W0NIM11DKFtDSDNdKShbQ0gzXSljMW5bbkhdYyhuMSlbQ0BASF0yW0NIMl1bTkhdW0NIMl1bQ0gyXU8y

> <s_epik_cmdline>
J2VwaWtfcHl0aG9uJywgJy1waCcsICc3LjAnLCAnLXRuJywgJzgnLCAnLW1hJywgJzIwMCcsICctbWV0YWxfYmluZGluZycsICctaW1hZScsICc8aW5maWxlLm1hZT4nLCAnLW9tYWUnLCAnPG91dGZpbGUubWFlPic=

> <r_epik_Ionization_Penalty>
0.162344

> <r_epik_Ionization_Penalty_Charging>
0.125708

> <r_epik_Ionization_Penalty_Neutral>
0.0366363

> <r_epik_State_Penalty>
1.18286

> <r_epik_Charging_Adjusted_Penalty>
1.30856

> <i_epik_Tot_Q>
1

> <i_epik_Tot_abs_Q>
1

> <r_epik_Metal_State_Penalty>
1.49333

> <b_epik_Metal_Only>
0

> <s_lp_Force_Field>
OPLS_2005

> <r_lp_Energy>
12.4699

> <b_lp_Chiralities_Consistent>
1

> <s_lp_Variant>
AV-unprocessed.smi:2567-3

> <Gold.Version>
5.8.1

> <Gold.Id.Protein>
6NUR|6NUR_protein|mol2

> <Gold.PLP.Fitness>
31.3108

> <Gold.PLP.PLP>
-19.4979

> <Gold.PLP.part.hbond>
-3.0000

> <Gold.PLP.part.metal>
0.0000

> <Gold.PLP.part.buried>
-4.8749

> <Gold.PLP.part.nonpolar>
-12.7863

> <Gold.PLP.part.repulsive>
0.4041

> <Gold.PLP.ligand.clash>
0.0000

> <Gold.PLP.ligand.torsion>
0.1964

> <Gold.PLP.Chemscore.Hbond>
4.0000

> <Gold.PLP.Chemscore.CHOScore>
0.0000

> <Gold.PLP.Chemscore.Metal>
0.0000

> <Gold.Chemscore.Hbonds>
donor molecule, donor type, donor heavy atom, donor atom, acceptor molecule, acceptor atom, score
      L1  H     7    16       P1  7948  1.00
      L1  H    11    29       P1 10186  2.00
      L1  H    11    34       P1  7921  1.00

> <Gold.PLP.Chemscore.Internal.Correction>
0.2056

> <Gold.Rescore>
     Score         DG    S(hbond)    S(metal)    S(lipo)     H(rot)  DE(clash)    DE(int)     intcor
     16.65     -16.83       2.90        0.00      41.90       1.26       0.03       0.15       ----

> <Gold.Chemscore.Fitness>
16.6489

> <Gold.Chemscore.DG>
-16.8256

> <Gold.Chemscore.ZeroCoef>
-5.4800

> <Gold.Chemscore.Hbond>
2.8984

> <Gold.Chemscore.Metal>
0.0000

> <Gold.Chemscore.Lipo>
41.9014

> <Gold.Chemscore.Internal_Hbond>
0.0000

> <Gold.Chemscore.DEClash>
0.0270

> <Gold.Chemscore.DEInternal>
0.1496

> <Gold.Chemscore.Rot>
1.2647

> <Gold.Chemscore.Internal.Correction>
   9.000000E+99

> <Gold.Chemscore.Hbonds>
donor molecule, donor type, donor heavy atom, donor atom, acceptor molecule, acceptor atom, score
      L1  H     7    16       P1  7948  0.94
      L1  H    11    29       P1 10186  0.95
      L1  H    11    34       P1  7921  0.94

> <Gold.Chemscore.Hbond.Weighted>
-9.6806

> <Gold.Chemscore.Metal.Weighted>
-0.0000

> <Gold.Chemscore.Lipo.Weighted>
-4.9025

> <Gold.Chemscore.Internal_Hbond.Weighted>
0.0000

> <Gold.Chemscore.DEClash.Weighted>
0.0270

> <Gold.Chemscore.DEInternal.Weighted>
0.1496

> <Gold.Chemscore.Rot.Weighted>
3.2375

> <Gold.Chemscore.Internal.Correction.Weighted>
   9.000000E+99

> <Gold.Protein.RotatedTorsions>
[ 6907 6896 6895 6894 ] final   72.61 input  -60.11 | X-H torsion
[ 7974 7965 7964 7962 ] final  -47.68 input  175.53 | X-H torsion
[ 8008 7997 7996 7995 ] final   56.27 input   59.86 | X-H torsion
[ 10167 10162 10161 10158 ] final  109.25 input  -65.29 | X-H torsion
[ 10718 10713 10712 10709 ] final  -48.13 input   66.30 | X-H torsion
[ 10763 10752 10751 10750 ] final  102.61 input  -60.55 | X-H torsion
[ 11005 11000 10999 10996 ] final   50.19 input  -57.11 | X-H torsion

> <Gold.Protein.ActiveResidues>
 VAL166  LYS551  ARG553  GLY616  TRP617  ASP618  TYR619  PRO620  LYS621  CYS622 
 ASP623  PHE694  ASN695  SER759  ASP760  ASP761  ALA762  ILE779  LEU786  VAL792 
 PHE793  MET794  SER795  GLU796  ALA797  LYS798  CYS799  TRP800  GLU811  SER814 

> <Gold.Protein.RotatedAtoms>
  152.4877  134.4545  159.9585 H   0  0  0  0  0  0  0  0  0  0  0  0  # atno 6907 bound_to 6896
  151.4538  133.3604  159.2807 H   0  0  0  0  0  0  0  0  0  0  0  0  # atno 6908 bound_to 6896
  150.9003  134.8439  159.7416 H   0  0  0  0  0  0  0  0  0  0  0  0  # atno 6909 bound_to 6896
  145.9591  140.7497  142.9466 H   0  0  0  0  0  0  0  0  0  0  0  0  # atno 7974 bound_to 7965
  155.5147  140.3478  155.4395 H   0  0  0  0  0  0  0  0  0  0  0  0  # atno 8008 bound_to 7997
  156.0825  140.1390  156.9721 H   0  0  0  0  0  0  0  0  0  0  0  0  # atno 8009 bound_to 7997
  154.4588  140.0943  156.6810 H   0  0  0  0  0  0  0  0  0  0  0  0  # atno 8010 bound_to 7997
  139.6782  144.7120  151.1564 H   0  0  0  0  0  0  0  0  0  0  0  0  # atno 10167 bound_to 10162
  156.2017  130.4156  149.9232 H   0  0  0  0  0  0  0  0  0  0  0  0  # atno 10718 bound_to 10713
  153.3418  135.4004  155.1578 H   0  0  0  0  0  0  0  0  0  0  0  0  # atno 10763 bound_to 10752
  154.8645  135.3635  154.5335 H   0  0  0  0  0  0  0  0  0  0  0  0  # atno 10764 bound_to 10752
  153.5781  135.7077  153.5535 H   0  0  0  0  0  0  0  0  0  0  0  0  # atno 10765 bound_to 10752
  140.1038  134.5045  155.8738 H   0  0  0  0  0  0  0  0  0  0  0  0  # atno 11005 bound_to 11000
  144.6811  140.2561  143.7325 LP  0  0  0  0  0  0  0  0  0  0  0  0  # atno 17320 bound_to 7965
  145.8065  139.1985  143.2018 LP  0  0  0  0  0  0  0  0  0  0  0  0  # atno 17321 bound_to 7965
  140.7643  143.5740  150.8965 LP  0  0  0  0  0  0  0  0  0  0  0  0  # atno 17342 bound_to 10162
  139.9410  143.6382  152.3053 LP  0  0  0  0  0  0  0  0  0  0  0  0  # atno 17343 bound_to 10162
  156.6939  130.8906  151.3591 LP  0  0  0  0  0  0  0  0  0  0  0  0  # atno 17370 bound_to 10713
  157.6989  130.9312  150.0727 LP  0  0  0  0  0  0  0  0  0  0  0  0  # atno 17371 bound_to 10713
  141.2113  133.6705  156.6571 LP  0  0  0  0  0  0  0  0  0  0  0  0  # atno 17394 bound_to 11000
  140.3183  134.8029  157.4232 LP  0  0  0  0  0  0  0  0  0  0  0  0  # atno 17395 bound_to 11000

$$$$
