AV-unprocessed.smi:2923|AV-procd|sdf|11217|dock4
  -GOLD-   2272016103D 1   1.00000     0.00000
 Structure written by MMmdl.
 46 48  0  0  0  0  0  0  0  0  1 V2000
  151.6675  140.1497  157.5615 C   0  0  0  0  0  0  0  0  0  0  0  0
  151.2390  140.8203  156.3436 N   0  0  0  0  0  0  0  0  0  0  0  0
  151.0065  142.2528  156.4442 C   0  0  0  0  0  0  0  0  0  0  0  0
  150.2050  140.1456  155.6817 C   0  0  0  0  0  0  0  0  0  0  0  0
  148.8874  140.1364  156.1933 C   0  0  0  0  0  0  0  0  0  0  0  0
  147.8898  139.4392  155.4855 C   0  0  0  0  0  0  0  0  0  0  0  0
  148.2393  138.7787  154.2838 C   0  0  0  0  0  0  0  0  0  0  0  0
  147.3329  138.0223  153.4936 N   0  0  0  0  0  0  0  0  0  0  0  0
  145.9991  137.9182  153.6178 C   0  0  0  0  0  0  0  0  0  0  0  0
  145.3102  138.5114  154.4474 O   0  0  0  0  0  0  0  0  0  0  0  0
  145.4940  137.0846  152.6995 N   0  0  0  0  0  0  0  0  0  0  0  0
  144.0689  136.7710  152.5499 C   0  0  1  0  0  0  0  0  0  0  0  0
  143.8214  135.6347  151.5544 C   0  0  1  0  0  0  0  0  0  0  0  0
  144.6006  134.9795  150.4718 C   0  0  0  0  0  0  0  0  0  0  0  0
  144.1920  133.5168  150.7965 C   0  0  0  0  0  0  0  0  0  0  0  0
  143.5077  133.5676  152.0749 O   0  0  0  0  0  0  0  0  0  0  0  0
  144.0699  134.6950  152.7167 C   0  0  2  0  0  0  0  0  0  0  0  0
  143.4668  135.7855  153.6300 C   0  0  0  0  0  0  0  0  0  0  0  0
  144.0505  135.8550  155.0455 C   0  0  0  0  0  0  0  0  0  0  0  0
  141.9374  135.7834  153.8086 C   0  0  0  0  0  0  0  0  0  0  0  0
  149.5854  138.8412  153.8682 C   0  0  0  0  0  0  0  0  0  0  0  0
  150.5465  139.5086  154.5409 N   0  0  0  0  0  0  0  0  0  0  0  0
  151.8321  139.0865  157.3820 H   0  0  0  0  0  0  0  0  0  0  0  0
  150.9225  140.2552  158.3506 H   0  0  0  0  0  0  0  0  0  0  0  0
  152.6044  140.5792  157.9174 H   0  0  0  0  0  0  0  0  0  0  0  0
  150.6876  142.6633  155.4853 H   0  0  0  0  0  0  0  0  0  0  0  0
  151.9240  142.7623  156.7396 H   0  0  0  0  0  0  0  0  0  0  0  0
  150.2387  142.4734  157.1865 H   0  0  0  0  0  0  0  0  0  0  0  0
  148.6428  140.6482  157.1127 H   0  0  0  0  0  0  0  0  0  0  0  0
  146.8880  139.4132  155.8850 H   0  0  0  0  0  0  0  0  0  0  0  0
  147.7443  137.5393  152.7084 H   0  0  0  0  0  0  0  0  0  0  0  0
  146.1302  136.6415  152.0531 H   0  0  0  0  0  0  0  0  0  0  0  0
  143.4415  137.6436  152.3606 H   0  0  0  0  0  0  0  0  0  0  0  0
  142.7715  135.6670  151.2533 H   0  0  0  0  0  0  0  0  0  0  0  0
  144.2892  135.2913  149.4745 H   0  0  0  0  0  0  0  0  0  0  0  0
  145.6742  135.1391  150.5795 H   0  0  0  0  0  0  0  0  0  0  0  0
  143.5243  133.1026  150.0406 H   0  0  0  0  0  0  0  0  0  0  0  0
  145.0708  132.8739  150.8612 H   0  0  0  0  0  0  0  0  0  0  0  0
  145.1291  134.5201  152.9320 H   0  0  0  0  0  0  0  0  0  0  0  0
  143.6513  135.0660  155.6835 H   0  0  0  0  0  0  0  0  0  0  0  0
  143.8256  136.8098  155.5217 H   0  0  0  0  0  0  0  0  0  0  0  0
  145.1345  135.7405  155.0476 H   0  0  0  0  0  0  0  0  0  0  0  0
  141.6038  134.8859  154.3304 H   0  0  0  0  0  0  0  0  0  0  0  0
  141.3884  135.8215  152.8694 H   0  0  0  0  0  0  0  0  0  0  0  0
  141.6061  136.6418  154.3940 H   0  0  0  0  0  0  0  0  0  0  0  0
  149.9036  138.3428  152.9642 H   0  0  0  0  0  0  0  0  0  0  0  0
  1  2  1  0  0  0  0
  1 23  1  0  0  0  0
  1 24  1  0  0  0  0
  1 25  1  0  0  0  0
  2  3  1  0  0  0  0
  2  4  1  0  0  0  0
  3 26  1  0  0  0  0
  3 27  1  0  0  0  0
  3 28  1  0  0  0  0
  4 22  1  0  0  0  0
  4  5  2  0  0  0  0
  5  6  1  0  0  0  0
  5 29  1  0  0  0  0
  6  7  2  0  0  0  0
  6 30  1  0  0  0  0
  7  8  1  0  0  0  0
  7 21  1  0  0  0  0
  8  9  1  0  0  0  0
  8 31  1  0  0  0  0
  9 10  2  0  0  0  0
  9 11  1  0  0  0  0
 11 12  1  0  0  0  0
 11 32  1  0  0  0  0
 12 18  1  0  0  0  0
 12 13  1  0  0  0  0
 12 33  1  0  0  0  0
 13 17  1  0  0  0  0
 13 14  1  0  0  0  0
 13 34  1  0  0  0  0
 14 15  1  0  0  0  0
 14 35  1  0  0  0  0
 14 36  1  0  0  0  0
 15 16  1  0  0  0  0
 15 37  1  0  0  0  0
 15 38  1  0  0  0  0
 16 17  1  0  0  0  0
 17 18  1  0  0  0  0
 17 39  1  0  0  0  0
 18 19  1  0  0  0  0
 18 20  1  0  0  0  0
 19 40  1  0  0  0  0
 19 41  1  0  0  0  0
 19 42  1  0  0  0  0
 20 43  1  0  0  0  0
 20 44  1  0  0  0  0
 20 45  1  0  0  0  0
 21 22  2  0  0  0  0
 21 46  1  0  0  0  0
M  END
> <s_m_source_file>
AV-unprocessed.smi

> <i_m_source_file_index>
2923

> <i_lp_mmshare_version>
43012

> <i_f3d_flags>
0

> <s_epik_input>
W0NIM11OKFtDSDNdKWMxW2NIXVtjSF1jKFtjSF1uMSlbTkhdQyg9TylbTkhdW0NASF0yQyhbQ0gzXSkoW0NIM10pW0NAQEhdKFtDQEhdMjMpT1tDSDJdW0NIMl0z

> <s_epik_cmdline>
J2VwaWtfcHl0aG9uJywgJy1waCcsICc3LjAnLCAnLXRuJywgJzgnLCAnLW1hJywgJzIwMCcsICctbWV0YWxfYmluZGluZycsICctaW1hZScsICc8aW5maWxlLm1hZT4nLCAnLW9tYWUnLCAnPG91dGZpbGUubWFlPic=

> <r_lp_tautomer_probability>
1

> <r_epik_Ionization_Penalty>
0.628785

> <r_epik_Ionization_Penalty_Charging>
0

> <r_epik_Ionization_Penalty_Neutral>
0.628785

> <r_epik_State_Penalty>
0.644286

> <r_epik_Charging_Adjusted_Penalty>
0.644286

> <i_epik_Tot_Q>
0

> <i_epik_Tot_abs_Q>
0

> <r_epik_Metal_State_Penalty>
0.308404

> <b_epik_Metal_Only>
0

> <s_lp_Force_Field>
OPLS_2005

> <r_lp_Energy>
70.0187

> <b_lp_Chiralities_Consistent>
1

> <s_lp_Variant>
AV-unprocessed.smi:2923-16

> <Gold.Version>
5.8.1

> <Gold.Id.Protein>
6NUR|6NUR_protein|mol2

> <Gold.PLP.Fitness>
37.5059

> <Gold.PLP.PLP>
-26.9937

> <Gold.PLP.part.hbond>
-2.0000

> <Gold.PLP.part.metal>
0.0000

> <Gold.PLP.part.buried>
-4.6648

> <Gold.PLP.part.nonpolar>
-20.8131

> <Gold.PLP.part.repulsive>
0.4257

> <Gold.PLP.ligand.clash>
0.0000

> <Gold.PLP.ligand.torsion>
0.2960

> <Gold.PLP.Chemscore.Hbond>
2.0000

> <Gold.PLP.Chemscore.CHOScore>
1.5442

> <Gold.PLP.Chemscore.Metal>
0.0000

> <Gold.Chemscore.Hbonds>
donor molecule, donor type, donor heavy atom, donor atom, acceptor molecule, acceptor atom, score
      L1  H     8    31       P1  7948  1.00
      P1  H  7989  7998       L1    22  1.00
      L1  C    21    46       P1  7948  1.00
      L1  C    21    46       P1  7957  0.52

> <Gold.PLP.Chemscore.Internal.Correction>
0.4716

> <Gold.Rescore>
     Score         DG    S(hbond)    S(metal)    S(lipo)     H(rot)  DE(clash)    DE(int)     intcor
     14.70     -17.46       2.32        0.00      62.31       1.19       0.11       2.65       ----

> <Gold.Chemscore.Fitness>
14.6969

> <Gold.Chemscore.DG>
-17.4591

> <Gold.Chemscore.ZeroCoef>
-5.4800

> <Gold.Chemscore.Hbond>
2.3188

> <Gold.Chemscore.Metal>
0.0000

> <Gold.Chemscore.Lipo>
62.3093

> <Gold.Chemscore.Internal_Hbond>
0.0000

> <Gold.Chemscore.DEClash>
0.1112

> <Gold.Chemscore.DEInternal>
2.6510

> <Gold.Chemscore.Rot>
1.1937

> <Gold.Chemscore.Internal.Correction>
   9.000000E+99

> <Gold.Chemscore.Hbonds>
donor molecule, donor type, donor heavy atom, donor atom, acceptor molecule, acceptor atom, score
      L1  H     8    31       P1  7948  0.97
      P1  H  7989  7998       L1    22  0.44

> <Gold.Chemscore.Hbond.Weighted>
-7.7448

> <Gold.Chemscore.Metal.Weighted>
-0.0000

> <Gold.Chemscore.Lipo.Weighted>
-7.2902

> <Gold.Chemscore.Internal_Hbond.Weighted>
0.0000

> <Gold.Chemscore.DEClash.Weighted>
0.1112

> <Gold.Chemscore.DEInternal.Weighted>
2.6510

> <Gold.Chemscore.Rot.Weighted>
3.0559

> <Gold.Chemscore.Internal.Correction.Weighted>
   9.000000E+99

> <Gold.Protein.RotatedTorsions>
[ 6907 6896 6895 6894 ] final  114.90 input  -60.11 | X-H torsion
[ 7974 7965 7964 7962 ] final  103.37 input  175.53 | X-H torsion
[ 8008 7997 7996 7995 ] final  178.14 input   59.86 | X-H torsion
[ 10167 10162 10161 10158 ] final -177.06 input  -65.29 | X-H torsion
[ 10718 10713 10712 10709 ] final   40.13 input   66.30 | X-H torsion
[ 10763 10752 10751 10750 ] final   72.62 input  -60.55 | X-H torsion
[ 11005 11000 10999 10996 ] final  -80.67 input  -57.11 | X-H torsion

> <Gold.Protein.ActiveResidues>
 VAL166  LYS551  ARG553  GLY616  TRP617  ASP618  TYR619  PRO620  LYS621  CYS622 
 ASP623  PHE694  ASN695  SER759  ASP760  ASP761  ALA762  ILE779  LEU786  VAL792 
 PHE793  MET794  SER795  GLU796  ALA797  LYS798  CYS799  TRP800  GLU811  SER814 

> <Gold.Protein.RotatedAtoms>
  152.4774  133.8172  159.7034 H   0  0  0  0  0  0  0  0  0  0  0  0  # atno 6907 bound_to 6896
  150.8801  133.7375  159.2941 H   0  0  0  0  0  0  0  0  0  0  0  0  # atno 6908 bound_to 6896
  151.4882  135.1059  159.9848 H   0  0  0  0  0  0  0  0  0  0  0  0  # atno 6909 bound_to 6896
  145.3468  139.2449  143.3580 H   0  0  0  0  0  0  0  0  0  0  0  0  # atno 7974 bound_to 7965
  156.0580  140.1341  156.9974 H   0  0  0  0  0  0  0  0  0  0  0  0  # atno 8008 bound_to 7997
  154.4467  140.0997  156.6545 H   0  0  0  0  0  0  0  0  0  0  0  0  # atno 8009 bound_to 7997
  155.5422  140.3461  155.4451 H   0  0  0  0  0  0  0  0  0  0  0  0  # atno 8010 bound_to 7997
  139.5499  144.2137  152.1057 H   0  0  0  0  0  0  0  0  0  0  0  0  # atno 10167 bound_to 10162
  157.3786  130.7741  149.7175 H   0  0  0  0  0  0  0  0  0  0  0  0  # atno 10718 bound_to 10713
  153.0470  135.5093  154.7771 H   0  0  0  0  0  0  0  0  0  0  0  0  # atno 10763 bound_to 10752
  154.6663  135.2946  154.9803 H   0  0  0  0  0  0  0  0  0  0  0  0  # atno 10764 bound_to 10752
  154.0636  135.6687  153.4867 H   0  0  0  0  0  0  0  0  0  0  0  0  # atno 10765 bound_to 10752
  141.1667  133.7161  156.8308 H   0  0  0  0  0  0  0  0  0  0  0  0  # atno 11005 bound_to 11000
  146.2985  140.4076  142.8713 LP  0  0  0  0  0  0  0  0  0  0  0  0  # atno 17320 bound_to 7965
  144.8748  140.7321  143.6024 LP  0  0  0  0  0  0  0  0  0  0  0  0  # atno 17321 bound_to 7965
  140.1631  144.5007  150.6621 LP  0  0  0  0  0  0  0  0  0  0  0  0  # atno 17342 bound_to 10162
  140.6758  143.2304  151.5510 LP  0  0  0  0  0  0  0  0  0  0  0  0  # atno 17343 bound_to 10162
  155.9771  130.4067  150.3737 LP  0  0  0  0  0  0  0  0  0  0  0  0  # atno 17370 bound_to 10713
  157.1837  131.0398  151.2735 LP  0  0  0  0  0  0  0  0  0  0  0  0  # atno 17371 bound_to 10713
  140.2052  134.8868  157.3214 LP  0  0  0  0  0  0  0  0  0  0  0  0  # atno 17394 bound_to 11000
  140.2145  134.4099  155.7596 LP  0  0  0  0  0  0  0  0  0  0  0  0  # atno 17395 bound_to 11000

$$$$
