AV-unprocessed.smi:278|AV-procd|sdf|2090|dock4
  -GOLD-   2262021363D 1   1.00000     0.00000
 Structure written by MMmdl.
 50 54  0  0  0  0  0  0  0  0  1 V2000
  148.5333  134.2710  157.8239 O   0  0  0  0  0  0  0  0  0  0  0  0
  149.1589  133.0717  157.2458 S   0  0  0  0  0  0  0  0  0  0  0  0
  149.5840  131.9507  158.0973 O   0  0  0  0  0  0  0  0  0  0  0  0
  148.1194  132.4583  155.8794 C   0  0  0  0  0  0  0  0  0  0  0  0
  148.4079  133.4068  154.7067 C   0  0  0  0  0  0  0  0  0  0  0  0
  149.8629  133.9387  154.7947 C   0  0  1  0  0  0  0  0  0  0  0  0
  149.9756  135.4663  154.7554 C   0  0  0  0  0  0  0  0  0  0  0  0
  151.1808  135.7789  155.5064 N   0  0  0  0  0  0  0  0  0  0  0  0
  151.3199  137.0737  155.8617 C   0  0  0  0  0  0  0  0  0  0  0  0
  151.3439  137.9844  154.8585 N   0  0  0  0  0  0  0  0  0  0  0  0
  151.4861  139.2836  155.1386 C   0  0  0  0  0  0  0  0  0  0  0  0
  151.6186  139.8718  156.3297 N   0  0  0  0  0  0  0  0  0  0  0  0
  151.5933  138.9567  157.3407 C   0  0  0  0  0  0  0  0  0  0  0  0
  151.4486  137.5482  157.1985 C   0  0  0  0  0  0  0  0  0  0  0  0
  151.4715  136.9420  158.4491 N   0  0  0  0  0  0  0  0  0  0  0  0
  151.6232  137.9344  159.2828 C   0  0  0  0  0  0  0  0  0  0  0  0
  151.7077  139.1790  158.7015 N   0  0  0  0  0  0  0  0  0  0  0  0
  151.8834  140.4466  159.3880 C   0  0  0  0  0  0  0  0  0  0  0  0
  151.8245  141.6477  158.4244 C   0  0  1  0  0  0  0  0  0  0  0  0
  150.5141  141.8181  157.9176 O   0  0  0  0  0  0  0  0  0  0  0  0
  152.3353  142.9540  159.0669 C   0  0  1  0  0  0  0  0  0  0  0  0
  152.3217  144.2032  158.1797 C   0  0  0  0  0  0  0  0  0  0  0  0
  152.2494  145.3037  159.2149 C   0  0  0  0  0  0  0  0  0  0  0  0
  151.3205  144.6854  160.2560 C   0  0  0  0  0  0  0  0  0  0  0  0
  151.6070  143.2901  160.2464 O   0  0  0  0  0  0  0  0  0  0  0  0
  151.2773  134.8223  156.6005 C   0  0  0  0  0  0  0  0  0  0  0  0
  150.5231  133.5703  156.1317 C   0  0  1  0  0  0  0  0  0  0  0  0
  150.4642  133.5169  153.9878 H   0  0  0  0  0  0  0  0  0  0  0  0
  151.1898  132.7163  156.0070 H   0  0  0  0  0  0  0  0  0  0  0  0
  148.4397  131.4433  155.6432 H   0  0  0  0  0  0  0  0  0  0  0  0
  147.0708  132.4392  156.1766 H   0  0  0  0  0  0  0  0  0  0  0  0
  148.2244  132.9139  153.7518 H   0  0  0  0  0  0  0  0  0  0  0  0
  147.7058  134.2395  154.7588 H   0  0  0  0  0  0  0  0  0  0  0  0
  150.0432  135.8367  153.7322 H   0  0  0  0  0  0  0  0  0  0  0  0
  149.1078  135.9314  155.2236 H   0  0  0  0  0  0  0  0  0  0  0  0
  151.4968  139.9472  154.2865 H   0  0  0  0  0  0  0  0  0  0  0  0
  151.6820  137.7844  160.3510 H   0  0  0  0  0  0  0  0  0  0  0  0
  151.1182  140.5345  160.1602 H   0  0  0  0  0  0  0  0  0  0  0  0
  152.8440  140.4244  159.9037 H   0  0  0  0  0  0  0  0  0  0  0  0
  152.4597  141.4295  157.5650 H   0  0  0  0  0  0  0  0  0  0  0  0
  149.8982  141.5744  158.5915 H   0  0  0  0  0  0  0  0  0  0  0  0
  153.3639  142.7929  159.3934 H   0  0  0  0  0  0  0  0  0  0  0  0
  153.1987  144.2771  157.5364 H   0  0  0  0  0  0  0  0  0  0  0  0
  151.4335  144.2414  157.5482 H   0  0  0  0  0  0  0  0  0  0  0  0
  153.2355  145.4806  159.6463 H   0  0  0  0  0  0  0  0  0  0  0  0
  151.8749  146.2462  158.8147 H   0  0  0  0  0  0  0  0  0  0  0  0
  151.4557  145.1156  161.2486 H   0  0  0  0  0  0  0  0  0  0  0  0
  150.2788  144.8263  159.9650 H   0  0  0  0  0  0  0  0  0  0  0  0
  152.3262  134.5899  156.7872 H   0  0  0  0  0  0  0  0  0  0  0  0
  150.8643  135.2190  157.5279 H   0  0  0  0  0  0  0  0  0  0  0  0
  1  2  2  0  0  0  0
  2 27  1  0  0  0  0
  2  3  2  0  0  0  0
  2  4  1  0  0  0  0
  4  5  1  0  0  0  0
  4 30  1  0  0  0  0
  4 31  1  0  0  0  0
  5  6  1  0  0  0  0
  5 32  1  0  0  0  0
  5 33  1  0  0  0  0
  6 28  1  0  0  0  0
  6 27  1  0  0  0  0
  6  7  1  0  0  0  0
  7  8  1  0  0  0  0
  7 34  1  0  0  0  0
  7 35  1  0  0  0  0
  8  9  1  0  0  0  0
  8 26  1  0  0  0  0
  9 14  1  0  0  0  0
  9 10  2  0  0  0  0
 10 11  1  0  0  0  0
 11 12  2  0  0  0  0
 11 36  1  0  0  0  0
 12 13  1  0  0  0  0
 13 17  1  0  0  0  0
 13 14  2  0  0  0  0
 14 15  1  0  0  0  0
 15 16  2  0  0  0  0
 16 17  1  0  0  0  0
 16 37  1  0  0  0  0
 17 18  1  0  0  0  0
 18 19  1  0  0  0  0
 18 38  1  0  0  0  0
 18 39  1  0  0  0  0
 19 20  1  0  0  0  0
 19 21  1  0  0  0  0
 19 40  1  0  0  0  0
 20 41  1  0  0  0  0
 21 25  1  0  0  0  0
 21 22  1  0  0  0  0
 21 42  1  0  0  0  0
 22 23  1  0  0  0  0
 22 43  1  0  0  0  0
 22 44  1  0  0  0  0
 23 24  1  0  0  0  0
 23 45  1  0  0  0  0
 23 46  1  0  0  0  0
 24 25  1  0  0  0  0
 24 47  1  0  0  0  0
 24 48  1  0  0  0  0
 26 27  1  0  0  0  0
 26 49  1  0  0  0  0
 26 50  1  0  0  0  0
 27 29  1  0  0  0  0
M  END
> <s_m_source_file>
AV-unprocessed.smi

> <i_m_source_file_index>
278

> <i_lp_mmshare_version>
43012

> <i_f3d_flags>
0

> <s_epik_input>
W0NIMl0xW0NIMl1TKD1PKSg9TylbQ0BASF0oW0NAQEhdMTIpW0NIMl1OKFtDSDJdMiljKG5bY0hdbjMpYyhjMzQpbltjSF1uNFtDSDJdW0NASF0oW09IXSlbQ0BASF01W0NIMl1bQ0gyXVtDSDJdTzU=

> <s_epik_cmdline>
J2VwaWtfcHl0aG9uJywgJy1waCcsICc3LjAnLCAnLXRuJywgJzgnLCAnLW1hJywgJzIwMCcsICctbWV0YWxfYmluZGluZycsICctaW1hZScsICc8aW5maWxlLm1hZT4nLCAnLW9tYWUnLCAnPG91dGZpbGUubWFlPic=

> <r_lp_tautomer_probability>
1

> <r_epik_Ionization_Penalty>
0.000636766

> <r_epik_Ionization_Penalty_Charging>
0

> <r_epik_Ionization_Penalty_Neutral>
0.000636766

> <r_epik_State_Penalty>
0.000329976

> <r_epik_Charging_Adjusted_Penalty>
0.000329976

> <i_epik_Tot_Q>
0

> <i_epik_Tot_abs_Q>
0

> <r_epik_Metal_State_Penalty>
-0

> <b_epik_Metal_Only>
0

> <s_lp_Force_Field>
OPLS_2005

> <r_lp_Energy>
54.1016

> <b_lp_Chiralities_Consistent>
1

> <s_lp_Variant>
AV-unprocessed.smi:278-4

> <Gold.Version>
5.8.1

> <Gold.Id.Protein>
6NUR|6NUR_protein|mol2

> <Gold.PLP.Fitness>
45.8671

> <Gold.PLP.PLP>
-42.4431

> <Gold.PLP.part.hbond>
-3.2220

> <Gold.PLP.part.metal>
0.0000

> <Gold.PLP.part.buried>
-6.9841

> <Gold.PLP.part.nonpolar>
-34.1949

> <Gold.PLP.part.repulsive>
0.2415

> <Gold.PLP.ligand.clash>
0.0000

> <Gold.PLP.ligand.torsion>
0.1315

> <Gold.PLP.Chemscore.Hbond>
1.2033

> <Gold.PLP.Chemscore.CHOScore>
0.0000

> <Gold.PLP.Chemscore.Metal>
0.0000

> <Gold.Chemscore.Hbonds>
donor molecule, donor type, donor heavy atom, donor atom, acceptor molecule, acceptor atom, score
      P1  H  6896  6907       L1     3  0.01
      P1  H  6896  6908       L1    15  0.23
      P1  H 10752 10763       L1     8  0.90

> <Gold.PLP.Chemscore.Internal.Correction>
0.0771

> <Gold.Rescore>
     Score         DG    S(hbond)    S(metal)    S(lipo)     H(rot)  DE(clash)    DE(int)     intcor
      8.94     -11.96       0.42        0.00      97.37       2.46       0.04       2.98       ----

> <Gold.Chemscore.Fitness>
8.9364

> <Gold.Chemscore.DG>
-11.9567

> <Gold.Chemscore.ZeroCoef>
-5.4800

> <Gold.Chemscore.Hbond>
0.4166

> <Gold.Chemscore.Metal>
0.0000

> <Gold.Chemscore.Lipo>
97.3687

> <Gold.Chemscore.Internal_Hbond>
0.0000

> <Gold.Chemscore.DEClash>
0.0442

> <Gold.Chemscore.DEInternal>
2.9760

> <Gold.Chemscore.Rot>
2.4636

> <Gold.Chemscore.Internal.Correction>
   9.000000E+99

> <Gold.Chemscore.Hbonds>
donor molecule, donor type, donor heavy atom, donor atom, acceptor molecule, acceptor atom, score
      P1  H  6896  6908       L1    15  0.07
      P1  H 10752 10763       L1     8  0.07

> <Gold.Chemscore.Hbond.Weighted>
-1.3914

> <Gold.Chemscore.Metal.Weighted>
-0.0000

> <Gold.Chemscore.Lipo.Weighted>
-11.3921

> <Gold.Chemscore.Internal_Hbond.Weighted>
0.0000

> <Gold.Chemscore.DEClash.Weighted>
0.0442

> <Gold.Chemscore.DEInternal.Weighted>
2.9760

> <Gold.Chemscore.Rot.Weighted>
6.3068

> <Gold.Chemscore.Internal.Correction.Weighted>
   9.000000E+99

> <Gold.Protein.RotatedTorsions>
[ 6907 6896 6895 6894 ] final -133.14 input  -60.11 | X-H torsion
[ 7974 7965 7964 7962 ] final -125.46 input  175.53 | X-H torsion
[ 8008 7997 7996 7995 ] final  107.22 input   59.86 | X-H torsion
[ 10167 10162 10161 10158 ] final -160.10 input  -65.29 | X-H torsion
[ 10718 10713 10712 10709 ] final  -46.89 input   66.30 | X-H torsion
[ 10763 10752 10751 10750 ] final   55.84 input  -60.55 | X-H torsion
[ 11005 11000 10999 10996 ] final   38.03 input  -57.11 | X-H torsion

> <Gold.Protein.ActiveResidues>
 VAL166  LYS551  ARG553  GLY616  TRP617  ASP618  TYR619  PRO620  LYS621  CYS622 
 ASP623  PHE694  ASN695  SER759  ASP760  ASP761  ALA762  ILE779  LEU786  VAL792 
 PHE793  MET794  SER795  GLU796  ALA797  LYS798  CYS799  TRP800  GLU811  SER814 

> <Gold.Protein.RotatedAtoms>
  150.9705  133.6349  159.2738 H   0  0  0  0  0  0  0  0  0  0  0  0  # atno 6907 bound_to 6896
  151.3639  135.0908  159.9453 H   0  0  0  0  0  0  0  0  0  0  0  0  # atno 6908 bound_to 6896
  152.5181  133.9273  159.7618 H   0  0  0  0  0  0  0  0  0  0  0  0  # atno 6909 bound_to 6896
  144.9973  140.7788  143.4517 H   0  0  0  0  0  0  0  0  0  0  0  0  # atno 7974 bound_to 7965
  156.1806  140.3099  155.9142 H   0  0  0  0  0  0  0  0  0  0  0  0  # atno 8008 bound_to 7997
  155.3391  140.0465  157.3061 H   0  0  0  0  0  0  0  0  0  0  0  0  # atno 8009 bound_to 7997
  154.5339  140.2239  155.8767 H   0  0  0  0  0  0  0  0  0  0  0  0  # atno 8010 bound_to 7997
  139.6565  143.9989  152.2197 H   0  0  0  0  0  0  0  0  0  0  0  0  # atno 10167 bound_to 10162
  156.2138  130.4162  149.9080 H   0  0  0  0  0  0  0  0  0  0  0  0  # atno 10718 bound_to 10713
  152.9823  135.5697  154.5132 H   0  0  0  0  0  0  0  0  0  0  0  0  # atno 10763 bound_to 10752
  154.4632  135.2782  155.1699 H   0  0  0  0  0  0  0  0  0  0  0  0  # atno 10764 bound_to 10752
  154.3278  135.6255  153.5591 H   0  0  0  0  0  0  0  0  0  0  0  0  # atno 10765 bound_to 10752
  140.2167  134.3690  155.8024 H   0  0  0  0  0  0  0  0  0  0  0  0  # atno 11005 bound_to 11000
  145.2202  139.2163  143.5097 LP  0  0  0  0  0  0  0  0  0  0  0  0  # atno 17320 bound_to 7965
  146.3444  140.2058  142.8589 LP  0  0  0  0  0  0  0  0  0  0  0  0  # atno 17321 bound_to 7965
  139.9717  144.6489  150.7983 LP  0  0  0  0  0  0  0  0  0  0  0  0  # atno 17342 bound_to 10162
  140.7561  143.3060  151.2962 LP  0  0  0  0  0  0  0  0  0  0  0  0  # atno 17343 bound_to 10162
  156.6750  130.8835  151.3567 LP  0  0  0  0  0  0  0  0  0  0  0  0  # atno 17370 bound_to 10713
  157.7052  130.9377  150.0909 LP  0  0  0  0  0  0  0  0  0  0  0  0  # atno 17371 bound_to 10713
  141.2224  133.7171  156.8508 LP  0  0  0  0  0  0  0  0  0  0  0  0  # atno 17394 bound_to 11000
  140.1893  134.8977  157.3041 LP  0  0  0  0  0  0  0  0  0  0  0  0  # atno 17395 bound_to 11000

$$$$
