AV-unprocessed.smi:3303|AV-procd|sdf|12672|dock7
  -GOLD-   2272019 03D 1   1.00000     0.00000
 Structure written by MMmdl.
 45 46  0  0  0  0  0  0  0  0  3 V2000
  149.4853  131.4589  154.9897 C   0  0  0  0  0  0  0  0  0  0  0  0
  148.8113  131.7153  153.6299 C   0  0  1  0  0  0  0  0  0  0  0  0
  147.7672  130.6174  153.3406 C   0  0  0  0  0  0  0  0  0  0  0  0
  147.0938  130.8095  152.0297 N   0  3  1  0  0  0  0  0  0  0  0  0
  146.2072  129.6620  151.7176 C   0  0  0  0  0  0  0  0  0  0  0  0
  146.4219  132.1402  151.9385 C   0  0  2  0  0  0  0  0  0  0  0  0
  145.7410  132.3704  150.5750 C   0  0  0  0  0  0  0  0  0  0  0  0
  147.4401  133.2681  152.2046 C   0  0  0  0  0  0  0  0  0  0  0  0
  148.1507  133.1084  153.5578 C   0  0  2  0  0  0  0  0  0  0  0  0
  149.1574  134.1829  153.7174 N   0  3  0  0  0  0  0  0  0  0  0  0
  149.2235  134.7738  155.0688 C   0  0  0  0  0  0  0  0  0  0  0  0
  150.6723  135.0980  155.4568 C   0  0  0  0  0  0  0  0  0  0  0  0
  151.0225  136.5506  155.1994 C   0  0  0  0  0  0  0  0  0  0  0  0
  150.0463  137.4561  154.7325 C   0  0  0  0  0  0  0  0  0  0  0  0
  150.4280  138.7919  154.5004 C   0  0  0  0  0  0  0  0  0  0  0  0
  151.7632  139.1675  154.7431 C   0  0  0  0  0  0  0  0  0  0  0  0
  152.6621  138.1868  155.2077 C   0  0  0  0  0  0  0  0  0  0  0  0
  152.3072  136.9024  155.4305 N   0  0  0  0  0  0  0  0  0  0  0  0
  148.7688  131.5305  155.8087 H   0  0  0  0  0  0  0  0  0  0  0  0
  150.2849  132.1738  155.1848 H   0  0  0  0  0  0  0  0  0  0  0  0
  149.9296  130.4636  155.0253 H   0  0  0  0  0  0  0  0  0  0  0  0
  149.5822  131.6563  152.8594 H   0  0  0  0  0  0  0  0  0  0  0  0
  148.2606  129.6442  153.3497 H   0  0  0  0  0  0  0  0  0  0  0  0
  147.0151  130.5939  154.1313 H   0  0  0  0  0  0  0  0  0  0  0  0
  145.3267  129.6603  152.3612 H   0  0  0  0  0  0  0  0  0  0  0  0
  146.7320  128.7166  151.8604 H   0  0  0  0  0  0  0  0  0  0  0  0
  145.8785  129.6800  150.6790 H   0  0  0  0  0  0  0  0  0  0  0  0
  145.6511  132.1827  152.7104 H   0  0  0  0  0  0  0  0  0  0  0  0
  145.3464  133.3843  150.5035 H   0  0  0  0  0  0  0  0  0  0  0  0
  144.8964  131.6992  150.4201 H   0  0  0  0  0  0  0  0  0  0  0  0
  146.4407  132.2314  149.7502 H   0  0  0  0  0  0  0  0  0  0  0  0
  148.1794  133.2854  151.4016 H   0  0  0  0  0  0  0  0  0  0  0  0
  146.9335  134.2339  152.1745 H   0  0  0  0  0  0  0  0  0  0  0  0
  147.4020  133.1846  154.3489 H   0  0  0  0  0  0  0  0  0  0  0  0
  150.0663  133.8029  153.4932 H   0  0  0  0  0  0  0  0  0  0  0  0
  148.6149  135.6789  155.0923 H   0  0  0  0  0  0  0  0  0  0  0  0
  148.7954  134.0757  155.7895 H   0  0  0  0  0  0  0  0  0  0  0  0
  150.8363  134.8725  156.5114 H   0  0  0  0  0  0  0  0  0  0  0  0
  151.3620  134.4644  154.8966 H   0  0  0  0  0  0  0  0  0  0  0  0
  149.0293  137.1386  154.5543 H   0  0  0  0  0  0  0  0  0  0  0  0
  149.7101  139.5147  154.1416 H   0  0  0  0  0  0  0  0  0  0  0  0
  152.0910  140.1828  154.5765 H   0  0  0  0  0  0  0  0  0  0  0  0
  153.6935  138.4398  155.4037 H   0  0  0  0  0  0  0  0  0  0  0  0
  148.9488  134.9204  153.0591 H   0  0  0  0  0  0  0  0  0  0  0  0
  147.8219  130.8017  151.3293 H   0  0  0  0  0  0  0  0  0  0  0  0
  1  2  1  0  0  0  0
  1 19  1  0  0  0  0
  1 20  1  0  0  0  0
  1 21  1  0  0  0  0
  2  9  1  0  0  0  0
  2  3  1  0  0  0  0
  2 22  1  0  0  0  0
  3  4  1  0  0  0  0
  3 23  1  0  0  0  0
  3 24  1  0  0  0  0
  4  5  1  0  0  0  0
  4  6  1  0  0  0  0
  4 45  1  0  0  0  0
  5 25  1  0  0  0  0
  5 26  1  0  0  0  0
  5 27  1  0  0  0  0
  6  7  1  0  0  0  0
  6  8  1  0  0  0  0
  6 28  1  0  0  0  0
  7 29  1  0  0  0  0
  7 30  1  0  0  0  0
  7 31  1  0  0  0  0
  8  9  1  0  0  0  0
  8 32  1  0  0  0  0
  8 33  1  0  0  0  0
  9 10  1  0  0  0  0
  9 34  1  0  0  0  0
 10 11  1  0  0  0  0
 10 35  1  0  0  0  0
 10 44  1  0  0  0  0
 11 12  1  0  0  0  0
 11 36  1  0  0  0  0
 11 37  1  0  0  0  0
 12 13  1  0  0  0  0
 12 38  1  0  0  0  0
 12 39  1  0  0  0  0
 13 18  1  0  0  0  0
 13 14  2  0  0  0  0
 14 15  1  0  0  0  0
 14 40  1  0  0  0  0
 15 16  2  0  0  0  0
 15 41  1  0  0  0  0
 16 17  1  0  0  0  0
 16 42  1  0  0  0  0
 17 18  2  0  0  0  0
 17 43  1  0  0  0  0
M  CHG  1   4   1
M  CHG  1  10   1
M  END
> <s_m_source_file>
AV-unprocessed.smi

> <i_m_source_file_index>
3303

> <i_lp_mmshare_version>
43012

> <i_f3d_flags>
0

> <s_epik_input>
W0NIM11bQ0BASF0xW0NIMl1OKFtDSDNdKVtDQEBIXShbQ0gzXSlbQ0gyXVtDQEhdMVtOSF1bQ0gyXVtDSDJdYzJbY0hdW2NIXVtjSF1bY0hdbjI=

> <s_epik_cmdline>
J2VwaWtfcHl0aG9uJywgJy1waCcsICc3LjAnLCAnLXRuJywgJzgnLCAnLW1hJywgJzIwMCcsICctbWV0YWxfYmluZGluZycsICctaW1hZScsICc8aW5maWxlLm1hZT4nLCAnLW9tYWUnLCAnPG91dGZpbGUubWFlPic=

> <r_epik_Ionization_Penalty>
0.0769462

> <r_epik_Ionization_Penalty_Charging>
0.0759813

> <r_epik_Ionization_Penalty_Neutral>
0.000964829

> <r_epik_State_Penalty>
0.0654373

> <r_epik_Charging_Adjusted_Penalty>
0.141419

> <i_epik_Tot_Q>
2

> <i_epik_Tot_abs_Q>
2

> <r_epik_Metal_State_Penalty>
0.0656439

> <b_epik_Metal_Only>
0

> <s_lp_Force_Field>
OPLS_2005

> <r_lp_Energy>
29.1913

> <b_lp_Chiralities_Consistent>
1

> <s_lp_Variant>
AV-unprocessed.smi:3303-16

> <Gold.Version>
5.8.1

> <Gold.Id.Protein>
6NUR|6NUR_protein|mol2

> <Gold.PLP.Fitness>
46.0757

> <Gold.PLP.PLP>
-36.4386

> <Gold.PLP.part.hbond>
-3.0000

> <Gold.PLP.part.metal>
0.0000

> <Gold.PLP.part.buried>
-2.8140

> <Gold.PLP.part.nonpolar>
-31.6216

> <Gold.PLP.part.repulsive>
0.0534

> <Gold.PLP.ligand.clash>
0.0000

> <Gold.PLP.ligand.torsion>
1.1011

> <Gold.PLP.Chemscore.Hbond>
3.9440

> <Gold.PLP.Chemscore.CHOScore>
0.0000

> <Gold.PLP.Chemscore.Metal>
0.0000

> <Gold.Chemscore.Hbonds>
donor molecule, donor type, donor heavy atom, donor atom, acceptor molecule, acceptor atom, score
      L1  H     4    45       P1 10747  1.00
      L1  H    10    44       P1  7948  1.70
      P1  H 10752 10763       L1    18  0.82

> <Gold.PLP.Chemscore.Internal.Correction>
0.0073

> <Gold.Rescore>
     Score         DG    S(hbond)    S(metal)    S(lipo)     H(rot)  DE(clash)    DE(int)     intcor
     20.42     -21.61       2.65        0.00      92.37       1.37       0.15       1.04       ----

> <Gold.Chemscore.Fitness>
20.4205

> <Gold.Chemscore.DG>
-21.6056

> <Gold.Chemscore.ZeroCoef>
-5.4800

> <Gold.Chemscore.Hbond>
2.6458

> <Gold.Chemscore.Metal>
0.0000

> <Gold.Chemscore.Lipo>
92.3678

> <Gold.Chemscore.Internal_Hbond>
0.0000

> <Gold.Chemscore.DEClash>
0.1455

> <Gold.Chemscore.DEInternal>
1.0396

> <Gold.Chemscore.Rot>
1.3744

> <Gold.Chemscore.Internal.Correction>
   9.000000E+99

> <Gold.Chemscore.Hbonds>
donor molecule, donor type, donor heavy atom, donor atom, acceptor molecule, acceptor atom, score
      L1  H     4    45       P1 10747  0.96
      L1  H    10    44       P1  7948  0.15
      P1  H 10752 10763       L1    18  0.18

> <Gold.Chemscore.Hbond.Weighted>
-8.8371

> <Gold.Chemscore.Metal.Weighted>
-0.0000

> <Gold.Chemscore.Lipo.Weighted>
-10.8070

> <Gold.Chemscore.Internal_Hbond.Weighted>
0.0000

> <Gold.Chemscore.DEClash.Weighted>
0.1455

> <Gold.Chemscore.DEInternal.Weighted>
1.0396

> <Gold.Chemscore.Rot.Weighted>
3.5185

> <Gold.Chemscore.Internal.Correction.Weighted>
   9.000000E+99

> <Gold.Protein.RotatedTorsions>
[ 6907 6896 6895 6894 ] final   57.69 input  -60.11 | X-H torsion
[ 7974 7965 7964 7962 ] final  152.66 input  175.53 | X-H torsion
[ 8008 7997 7996 7995 ] final  143.35 input   59.86 | X-H torsion
[ 10167 10162 10161 10158 ] final  140.64 input  -65.29 | X-H torsion
[ 10718 10713 10712 10709 ] final  -52.86 input   66.30 | X-H torsion
[ 10763 10752 10751 10750 ] final   75.72 input  -60.55 | X-H torsion
[ 11005 11000 10999 10996 ] final   80.73 input  -57.11 | X-H torsion

> <Gold.Protein.ActiveResidues>
 VAL166  LYS551  ARG553  GLY616  TRP617  ASP618  TYR619  PRO620  LYS621  CYS622 
 ASP623  PHE694  ASN695  SER759  ASP760  ASP761  ALA762  ILE779  LEU786  VAL792 
 PHE793  MET794  SER795  GLU796  ALA797  LYS798  CYS799  TRP800  GLU811  SER814 

> <Gold.Protein.RotatedAtoms>
  152.3754  134.6671  160.0161 H   0  0  0  0  0  0  0  0  0  0  0  0  # atno 6907 bound_to 6896
  151.6950  133.3305  159.3260 H   0  0  0  0  0  0  0  0  0  0  0  0  # atno 6908 bound_to 6896
  150.7706  134.6601  159.6379 H   0  0  0  0  0  0  0  0  0  0  0  0  # atno 6909 bound_to 6896
  144.8207  139.6698  143.6102 H   0  0  0  0  0  0  0  0  0  0  0  0  # atno 7974 bound_to 7965
  156.2932  140.2264  156.4877 H   0  0  0  0  0  0  0  0  0  0  0  0  # atno 8008 bound_to 7997
  154.7798  140.0461  157.1139 H   0  0  0  0  0  0  0  0  0  0  0  0  # atno 8009 bound_to 7997
  154.9773  140.3074  155.4965 H   0  0  0  0  0  0  0  0  0  0  0  0  # atno 8010 bound_to 7997
  139.5043  144.6221  151.6025 H   0  0  0  0  0  0  0  0  0  0  0  0  # atno 10167 bound_to 10162
  156.1585  130.4150  149.9831 H   0  0  0  0  0  0  0  0  0  0  0  0  # atno 10718 bound_to 10713
  153.0674  135.4978  154.8231 H   0  0  0  0  0  0  0  0  0  0  0  0  # atno 10763 bound_to 10752
  154.6974  135.2995  154.9394 H   0  0  0  0  0  0  0  0  0  0  0  0  # atno 10764 bound_to 10752
  154.0129  135.6752  153.4819 H   0  0  0  0  0  0  0  0  0  0  0  0  # atno 10765 bound_to 10752
  139.9124  134.7942  156.1947 H   0  0  0  0  0  0  0  0  0  0  0  0  # atno 11005 bound_to 11000
  146.2512  139.6204  142.9426 LP  0  0  0  0  0  0  0  0  0  0  0  0  # atno 17320 bound_to 7965
  145.5112  141.0435  143.2487 LP  0  0  0  0  0  0  0  0  0  0  0  0  # atno 17321 bound_to 7965
  140.5927  143.9751  150.6334 LP  0  0  0  0  0  0  0  0  0  0  0  0  # atno 17342 bound_to 10162
  140.2937  143.3307  152.1038 LP  0  0  0  0  0  0  0  0  0  0  0  0  # atno 17343 bound_to 10162
  156.7667  130.9171  151.3643 LP  0  0  0  0  0  0  0  0  0  0  0  0  # atno 17370 bound_to 10713
  157.6714  130.9054  150.0048 LP  0  0  0  0  0  0  0  0  0  0  0  0  # atno 17371 bound_to 10713
  141.0562  133.6864  156.1864 LP  0  0  0  0  0  0  0  0  0  0  0  0  # atno 17394 bound_to 11000
  140.6733  134.4844  157.5588 LP  0  0  0  0  0  0  0  0  0  0  0  0  # atno 17395 bound_to 11000

$$$$
