AV-unprocessed.smi:1834|AV-procd|sdf|7470|dock7
  -GOLD-   22720 9163D 1   1.00000     0.00000
 Structure written by MMmdl.
 46 47  0  0  0  0  0  0  0  0  2 V2000
  145.6378  144.0144  153.4037 C   0  0  0  0  0  0  0  0  0  0  0  0
  145.6581  143.1939  154.7016 C   0  0  0  0  0  0  0  0  0  0  0  0
  145.9948  141.7652  154.4751 N   0  3  2  0  0  0  0  0  0  0  0  0
  145.8818  140.9650  155.7227 C   0  0  0  0  0  0  0  0  0  0  0  0
  146.1194  139.4696  155.4576 C   0  0  0  0  0  0  0  0  0  0  0  0
  147.4680  139.2366  154.7605 C   0  0  0  0  0  0  0  0  0  0  0  0
  147.5914  140.0911  153.4851 C   0  0  1  0  0  0  0  0  0  0  0  0
  146.7258  139.5340  152.3292 C   0  0  0  0  0  0  0  0  0  0  0  0
  146.9086  138.0985  152.1337 N   0  0  0  0  0  0  0  0  0  0  0  0
  145.9613  137.1671  152.3167 C   0  0  0  0  0  0  0  0  0  0  0  0
  144.8195  137.4307  152.6937 O   0  0  0  0  0  0  0  0  0  0  0  0
  146.4214  135.9398  152.0200 N   0  0  0  0  0  0  0  0  0  0  0  0
  145.7439  134.7613  152.0001 C   0  0  0  0  0  0  0  0  0  0  0  0
  144.4170  134.5374  151.7516 C   0  0  0  0  0  0  0  0  0  0  0  0
  144.3095  133.1212  151.8727 C   0  0  0  0  0  0  0  0  0  0  0  0
  143.0852  132.2695  151.7099 C   0  0  0  0  0  0  0  0  0  0  0  0
  145.4681  132.5433  152.1684 N   0  0  0  0  0  0  0  0  0  0  0  0
  146.3602  133.5537  152.2467 N   0  0  0  0  0  0  0  0  0  0  0  0
  147.7454  133.2628  152.5624 C   0  0  0  0  0  0  0  0  0  0  0  0
  147.3217  141.5755  153.8285 C   0  0  0  0  0  0  0  0  0  0  0  0
  145.3453  145.0443  153.6086 H   0  0  0  0  0  0  0  0  0  0  0  0
  144.9195  143.6070  152.6922 H   0  0  0  0  0  0  0  0  0  0  0  0
  146.6126  144.0469  152.9177 H   0  0  0  0  0  0  0  0  0  0  0  0
  146.3515  143.6308  155.4219 H   0  0  0  0  0  0  0  0  0  0  0  0
  144.6659  143.2641  155.1494 H   0  0  0  0  0  0  0  0  0  0  0  0
  146.6006  141.3337  156.4563 H   0  0  0  0  0  0  0  0  0  0  0  0
  144.8903  141.0955  156.1580 H   0  0  0  0  0  0  0  0  0  0  0  0
  146.0911  138.9193  156.3987 H   0  0  0  0  0  0  0  0  0  0  0  0
  145.3076  139.0700  154.8494 H   0  0  0  0  0  0  0  0  0  0  0  0
  148.2738  139.4981  155.4478 H   0  0  0  0  0  0  0  0  0  0  0  0
  147.5978  138.1787  154.5292 H   0  0  0  0  0  0  0  0  0  0  0  0
  148.6286  140.0224  153.1536 H   0  0  0  0  0  0  0  0  0  0  0  0
  145.6716  139.6965  152.5555 H   0  0  0  0  0  0  0  0  0  0  0  0
  146.9163  140.0754  151.4019 H   0  0  0  0  0  0  0  0  0  0  0  0
  147.8223  137.7945  151.8290 H   0  0  0  0  0  0  0  0  0  0  0  0
  147.3879  135.8833  151.7341 H   0  0  0  0  0  0  0  0  0  0  0  0
  143.6377  135.2483  151.5225 H   0  0  0  0  0  0  0  0  0  0  0  0
  142.2360  132.8606  151.3667 H   0  0  0  0  0  0  0  0  0  0  0  0
  142.8043  131.8024  152.6541 H   0  0  0  0  0  0  0  0  0  0  0  0
  143.2519  131.4756  150.9814 H   0  0  0  0  0  0  0  0  0  0  0  0
  148.3960  134.0450  152.1713 H   0  0  0  0  0  0  0  0  0  0  0  0
  148.0395  132.3115  152.1175 H   0  0  0  0  0  0  0  0  0  0  0  0
  147.8684  133.2039  153.6441 H   0  0  0  0  0  0  0  0  0  0  0  0
  147.4088  142.1903  152.9344 H   0  0  0  0  0  0  0  0  0  0  0  0
  148.0956  141.9350  154.5089 H   0  0  0  0  0  0  0  0  0  0  0  0
  145.2989  141.4029  153.8382 H   0  0  0  0  0  0  0  0  0  0  0  0
  1  2  1  0  0  0  0
  1 21  1  0  0  0  0
  1 22  1  0  0  0  0
  1 23  1  0  0  0  0
  2  3  1  0  0  0  0
  2 24  1  0  0  0  0
  2 25  1  0  0  0  0
  3 20  1  0  0  0  0
  3  4  1  0  0  0  0
  3 46  1  0  0  0  0
  4  5  1  0  0  0  0
  4 26  1  0  0  0  0
  4 27  1  0  0  0  0
  5  6  1  0  0  0  0
  5 28  1  0  0  0  0
  5 29  1  0  0  0  0
  6  7  1  0  0  0  0
  6 30  1  0  0  0  0
  6 31  1  0  0  0  0
  7  8  1  0  0  0  0
  7 20  1  0  0  0  0
  7 32  1  0  0  0  0
  8  9  1  0  0  0  0
  8 33  1  0  0  0  0
  8 34  1  0  0  0  0
  9 10  1  0  0  0  0
  9 35  1  0  0  0  0
 10 11  2  0  0  0  0
 10 12  1  0  0  0  0
 12 13  1  0  0  0  0
 12 36  1  0  0  0  0
 13 18  1  0  0  0  0
 13 14  2  0  0  0  0
 14 15  1  0  0  0  0
 14 37  1  0  0  0  0
 15 16  1  0  0  0  0
 15 17  2  0  0  0  0
 16 38  1  0  0  0  0
 16 39  1  0  0  0  0
 16 40  1  0  0  0  0
 17 18  1  0  0  0  0
 18 19  1  0  0  0  0
 19 41  1  0  0  0  0
 19 42  1  0  0  0  0
 19 43  1  0  0  0  0
 20 44  1  0  0  0  0
 20 45  1  0  0  0  0
M  CHG  1   3   1
M  END
> <s_m_source_file>
AV-unprocessed.smi

> <i_m_source_file_index>
1834

> <i_lp_mmshare_version>
43012

> <i_f3d_flags>
0

> <s_epik_input>
W0NIM11bQ0gyXU4xW0NIMl1bQ0gyXVtDSDJdW0NASF0oW0NIMl0xKVtDSDJdW05IXUMoPU8pW05IXWMyW2NIXWMoW0NIM10pbm4yW0NIM10=

> <s_epik_cmdline>
J2VwaWtfcHl0aG9uJywgJy1waCcsICc3LjAnLCAnLXRuJywgJzgnLCAnLW1hJywgJzIwMCcsICctbWV0YWxfYmluZGluZycsICctaW1hZScsICc8aW5maWxlLm1hZT4nLCAnLW9tYWUnLCAnPG91dGZpbGUubWFlPic=

> <r_lp_tautomer_probability>
1

> <r_epik_Ionization_Penalty>
0.000466842

> <r_epik_Ionization_Penalty_Charging>
0.000378984

> <r_epik_Ionization_Penalty_Neutral>
8.78572e-05

> <r_epik_State_Penalty>
0.000231434

> <r_epik_Charging_Adjusted_Penalty>
0.000610418

> <i_epik_Tot_Q>
1

> <i_epik_Tot_abs_Q>
1

> <r_epik_Metal_State_Penalty>
-0

> <b_epik_Metal_Only>
0

> <s_lp_Force_Field>
OPLS_2005

> <r_lp_Energy>
21.1664

> <b_lp_Chiralities_Consistent>
1

> <s_lp_Variant>
AV-unprocessed.smi:1834-2

> <Gold.Version>
5.8.1

> <Gold.Id.Protein>
6NUR|6NUR_protein|mol2

> <Gold.PLP.Fitness>
43.9817

> <Gold.PLP.PLP>
-32.8015

> <Gold.PLP.part.hbond>
-2.9025

> <Gold.PLP.part.metal>
0.0000

> <Gold.PLP.part.buried>
-3.5345

> <Gold.PLP.part.nonpolar>
-29.3505

> <Gold.PLP.part.repulsive>
2.2924

> <Gold.PLP.ligand.clash>
0.0000

> <Gold.PLP.ligand.torsion>
0.2330

> <Gold.PLP.Chemscore.Hbond>
3.8713

> <Gold.PLP.Chemscore.CHOScore>
0.0000

> <Gold.PLP.Chemscore.Metal>
0.0000

> <Gold.Chemscore.Hbonds>
donor molecule, donor type, donor heavy atom, donor atom, acceptor molecule, acceptor atom, score
      L1  H     3    46       P1 10175  0.71
      L1  H     9    35       P1  7948  0.83
      L1  H    12    36       P1  7948  1.00

> <Gold.PLP.Chemscore.Internal.Correction>
0.0325

> <Gold.Rescore>
     Score         DG    S(hbond)    S(metal)    S(lipo)     H(rot)  DE(clash)    DE(int)     intcor
     16.85     -18.23       2.80        0.00      60.22       1.43       0.14       1.24       ----

> <Gold.Chemscore.Fitness>
16.8519

> <Gold.Chemscore.DG>
-18.2315

> <Gold.Chemscore.ZeroCoef>
-5.4800

> <Gold.Chemscore.Hbond>
2.8038

> <Gold.Chemscore.Metal>
0.0000

> <Gold.Chemscore.Lipo>
60.2162

> <Gold.Chemscore.Internal_Hbond>
0.0000

> <Gold.Chemscore.DEClash>
0.1428

> <Gold.Chemscore.DEInternal>
1.2368

> <Gold.Chemscore.Rot>
1.4291

> <Gold.Chemscore.Internal.Correction>
   9.000000E+99

> <Gold.Chemscore.Hbonds>
donor molecule, donor type, donor heavy atom, donor atom, acceptor molecule, acceptor atom, score
      L1  H     3    46       P1 10175  0.12
      L1  H     9    35       P1  7948  0.83
      L1  H    12    36       P1  7948  0.96

> <Gold.Chemscore.Hbond.Weighted>
-9.3647

> <Gold.Chemscore.Metal.Weighted>
-0.0000

> <Gold.Chemscore.Lipo.Weighted>
-7.0453

> <Gold.Chemscore.Internal_Hbond.Weighted>
0.0000

> <Gold.Chemscore.DEClash.Weighted>
0.1428

> <Gold.Chemscore.DEInternal.Weighted>
1.2368

> <Gold.Chemscore.Rot.Weighted>
3.6584

> <Gold.Chemscore.Internal.Correction.Weighted>
   9.000000E+99

> <Gold.Protein.RotatedTorsions>
[ 6907 6896 6895 6894 ] final  -72.38 input  -60.11 | X-H torsion
[ 7974 7965 7964 7962 ] final -170.43 input  175.53 | X-H torsion
[ 8008 7997 7996 7995 ] final  -19.95 input   59.86 | X-H torsion
[ 10167 10162 10161 10158 ] final  137.05 input  -65.29 | X-H torsion
[ 10718 10713 10712 10709 ] final  101.83 input   66.30 | X-H torsion
[ 10763 10752 10751 10750 ] final   69.67 input  -60.55 | X-H torsion
[ 11005 11000 10999 10996 ] final -102.47 input  -57.11 | X-H torsion

> <Gold.Protein.ActiveResidues>
 VAL166  LYS551  ARG553  GLY616  TRP617  ASP618  TYR619  PRO620  LYS621  CYS622 
 ASP623  PHE694  ASN695  SER759  ASP760  ASP761  ALA762  ILE779  LEU786  VAL792 
 PHE793  MET794  SER795  GLU796  ALA797  LYS798  CYS799  TRP800  GLU811  SER814 

> <Gold.Protein.RotatedAtoms>
  150.7172  134.5172  159.5635 H   0  0  0  0  0  0  0  0  0  0  0  0  # atno 6907 bound_to 6896
  152.2735  134.7904  160.0419 H   0  0  0  0  0  0  0  0  0  0  0  0  # atno 6908 bound_to 6896
  151.8575  133.3416  159.3730 H   0  0  0  0  0  0  0  0  0  0  0  0  # atno 6909 bound_to 6896
  144.7170  140.2073  143.6331 H   0  0  0  0  0  0  0  0  0  0  0  0  # atno 7974 bound_to 7965
  154.4802  140.2075  155.9782 H   0  0  0  0  0  0  0  0  0  0  0  0  # atno 8008 bound_to 7997
  156.1153  140.3222  155.8099 H   0  0  0  0  0  0  0  0  0  0  0  0  # atno 8009 bound_to 7997
  155.4564  140.0521  157.2986 H   0  0  0  0  0  0  0  0  0  0  0  0  # atno 8010 bound_to 7997
  139.5158  144.6431  151.5514 H   0  0  0  0  0  0  0  0  0  0  0  0  # atno 10167 bound_to 10162
  157.6819  131.0737  150.5312 H   0  0  0  0  0  0  0  0  0  0  0  0  # atno 10718 bound_to 10713
  153.0300  135.5202  154.7324 H   0  0  0  0  0  0  0  0  0  0  0  0  # atno 10763 bound_to 10752
  154.6348  135.2905  155.0176 H   0  0  0  0  0  0  0  0  0  0  0  0  # atno 10764 bound_to 10752
  154.1115  135.6621  153.4938 H   0  0  0  0  0  0  0  0  0  0  0  0  # atno 10765 bound_to 10752
  141.1188  133.8561  157.1363 H   0  0  0  0  0  0  0  0  0  0  0  0  # atno 11005 bound_to 11000
  145.8624  139.2229  143.1709 LP  0  0  0  0  0  0  0  0  0  0  0  0  # atno 17320 bound_to 7965
  146.0161  140.8391  142.9946 LP  0  0  0  0  0  0  0  0  0  0  0  0  # atno 17321 bound_to 7965
  140.6206  143.9266  150.6523 LP  0  0  0  0  0  0  0  0  0  0  0  0  # atno 17342 bound_to 10162
  140.2538  143.3574  152.1382 LP  0  0  0  0  0  0  0  0  0  0  0  0  # atno 17343 bound_to 10162
  156.5622  130.4258  149.6058 LP  0  0  0  0  0  0  0  0  0  0  0  0  # atno 17370 bound_to 10713
  156.2812  130.7072  151.1896 LP  0  0  0  0  0  0  0  0  0  0  0  0  # atno 17371 bound_to 10713
  140.0129  134.9980  157.0433 LP  0  0  0  0  0  0  0  0  0  0  0  0  # atno 17394 bound_to 11000
  140.4569  134.1525  155.7187 LP  0  0  0  0  0  0  0  0  0  0  0  0  # atno 17395 bound_to 11000

$$$$
