AV-unprocessed.smi:1196|AV-procd|sdf|5004|dock10
  -GOLD-   22720 4 13D 1   1.00000     0.00000
 Structure written by MMmdl.
 36 37  0  0  0  0  0  0  0  0  2 V2000
  146.6839  138.9879  151.9593 C   0  0  0  0  0  0  0  0  0  0  0  0
  146.0544  137.5906  152.0382 C   0  0  2  0  0  0  0  0  0  0  0  0
  145.8481  136.9839  150.6339 C   0  0  0  0  0  0  0  0  0  0  0  0
  145.4977  135.5743  150.6804 N   0  0  0  0  0  0  0  0  0  0  0  0
  146.2896  134.5063  151.0460 C   0  0  0  0  0  0  0  0  0  0  0  0
  145.5201  133.3817  150.9591 C   0  0  0  0  0  0  0  0  0  0  0  0
  144.2563  133.8691  150.5232 C   0  0  0  0  0  0  0  0  0  0  0  0
  144.2480  135.1810  150.3509 N   0  0  0  0  0  0  0  0  0  0  0  0
  144.7825  137.6771  152.7551 N   0  0  0  0  0  0  0  0  0  0  0  0
  144.0433  136.6332  153.1637 C   0  0  0  0  0  0  0  0  0  0  0  0
  144.3970  135.4604  153.0395 O   0  0  0  0  0  0  0  0  0  0  0  0
  142.6876  136.9628  153.7900 C   0  0  0  0  0  0  0  0  0  0  0  0
  141.8695  135.6918  154.0837 C   0  0  0  0  0  0  0  0  0  0  0  0
  140.4565  135.9954  154.6180 C   0  0  2  0  0  0  0  0  0  0  0  0
  139.7723  136.9507  153.7735 N   0  0  0  0  0  0  0  0  0  0  0  0
  139.4102  138.0330  154.4593 C   0  0  0  0  0  0  0  0  0  0  0  0
  138.7990  138.9588  153.9304 O   0  0  0  0  0  0  0  0  0  0  0  0
  139.8145  137.9279  155.7401 N   0  5  0  0  0  0  0  0  0  0  0  0
  140.4560  136.7568  155.9432 C   0  0  0  0  0  0  0  0  0  0  0  0
  140.9674  136.2964  156.9627 O   0  0  0  0  0  0  0  0  0  0  0  0
  147.6505  138.9539  151.4562 H   0  0  0  0  0  0  0  0  0  0  0  0
  146.8469  139.4022  152.9548 H   0  0  0  0  0  0  0  0  0  0  0  0
  146.0469  139.6813  151.4090 H   0  0  0  0  0  0  0  0  0  0  0  0
  146.7508  136.9563  152.5895 H   0  0  0  0  0  0  0  0  0  0  0  0
  145.0737  137.5283  150.0905 H   0  0  0  0  0  0  0  0  0  0  0  0
  146.7630  137.0799  150.0479 H   0  0  0  0  0  0  0  0  0  0  0  0
  147.3201  134.6359  151.3420 H   0  0  0  0  0  0  0  0  0  0  0  0
  145.8139  132.3659  151.1774 H   0  0  0  0  0  0  0  0  0  0  0  0
  143.3517  133.3125  150.3274 H   0  0  0  0  0  0  0  0  0  0  0  0
  144.4058  138.6027  152.8998 H   0  0  0  0  0  0  0  0  0  0  0  0
  142.8599  137.5225  154.7097 H   0  0  0  0  0  0  0  0  0  0  0  0
  142.1230  137.6183  153.1252 H   0  0  0  0  0  0  0  0  0  0  0  0
  141.7808  135.1121  153.1631 H   0  0  0  0  0  0  0  0  0  0  0  0
  142.4047  135.0553  154.7909 H   0  0  0  0  0  0  0  0  0  0  0  0
  139.8633  135.0854  154.7174 H   0  0  0  0  0  0  0  0  0  0  0  0
  139.5823  136.7955  152.7946 H   0  0  0  0  0  0  0  0  0  0  0  0
  1  2  1  0  0  0  0
  1 21  1  0  0  0  0
  1 22  1  0  0  0  0
  1 23  1  0  0  0  0
  2  3  1  0  0  0  0
  2  9  1  0  0  0  0
  2 24  1  0  0  0  0
  3  4  1  0  0  0  0
  3 25  1  0  0  0  0
  3 26  1  0  0  0  0
  4  8  1  0  0  0  0
  4  5  1  0  0  0  0
  5  6  2  0  0  0  0
  5 27  1  0  0  0  0
  6  7  1  0  0  0  0
  6 28  1  0  0  0  0
  7  8  2  0  0  0  0
  7 29  1  0  0  0  0
  9 10  1  0  0  0  0
  9 30  1  0  0  0  0
 10 11  2  0  0  0  0
 10 12  1  0  0  0  0
 12 13  1  0  0  0  0
 12 31  1  0  0  0  0
 12 32  1  0  0  0  0
 13 14  1  0  0  0  0
 13 33  1  0  0  0  0
 13 34  1  0  0  0  0
 14 19  1  0  0  0  0
 14 15  1  0  0  0  0
 14 35  1  0  0  0  0
 15 16  1  0  0  0  0
 15 36  1  0  0  0  0
 16 17  2  0  0  0  0
 16 18  1  0  0  0  0
 18 19  1  0  0  0  0
 19 20  2  0  0  0  0
M  CHG  1  18  -1
M  END
> <s_m_source_file>
AV-unprocessed.smi

> <i_m_source_file_index>
1196

> <i_lp_mmshare_version>
43012

> <i_f3d_flags>
0

> <s_epik_input>
bjFbY0hdW2NIXVtjSF1uMVtDSDJdW0NAQEhdKFtDSDNdKVtOSF1DKD1PKVtDSDJdW0NIMl1bQ0BASF0yW05IXUMoPU8pW05IXUMyPU8=

> <s_epik_cmdline>
J2VwaWtfcHl0aG9uJywgJy1waCcsICc3LjAnLCAnLXRuJywgJzgnLCAnLW1hJywgJzIwMCcsICctbWV0YWxfYmluZGluZycsICctaW1hZScsICc8aW5maWxlLm1hZT4nLCAnLW9tYWUnLCAnPG91dGZpbGUubWFlPic=

> <r_lp_tautomer_probability>
1

> <r_epik_Ionization_Penalty>
2.57056

> <r_epik_Ionization_Penalty_Charging>
2.57023

> <r_epik_Ionization_Penalty_Neutral>
0.000331301

> <r_epik_State_Penalty>
2.56828

> <r_epik_Charging_Adjusted_Penalty>
5.13851

> <i_epik_Tot_Q>
-1

> <i_epik_Tot_abs_Q>
1

> <r_epik_Metal_State_Penalty>
0.444883

> <b_epik_Metal_Only>
1

> <s_lp_Force_Field>
OPLS_2005

> <r_lp_Energy>
6.89561

> <b_lp_Chiralities_Consistent>
1

> <s_lp_Variant>
AV-unprocessed.smi:1196-9

> <Gold.Version>
5.8.1

> <Gold.Id.Protein>
6NUR|6NUR_protein|mol2

> <Gold.PLP.Fitness>
45.6899

> <Gold.PLP.PLP>
-34.1918

> <Gold.PLP.part.hbond>
-3.7896

> <Gold.PLP.part.metal>
0.0000

> <Gold.PLP.part.buried>
-1.6703

> <Gold.PLP.part.nonpolar>
-31.3853

> <Gold.PLP.part.repulsive>
1.8685

> <Gold.PLP.ligand.clash>
0.0000

> <Gold.PLP.ligand.torsion>
0.2652

> <Gold.PLP.Chemscore.Hbond>
2.0393

> <Gold.PLP.Chemscore.CHOScore>
1.9499

> <Gold.PLP.Chemscore.Metal>
0.0000

> <Gold.Chemscore.Hbonds>
donor molecule, donor type, donor heavy atom, donor atom, acceptor molecule, acceptor atom, score
      L1  H     9    30       P1 10175  0.99
      P1  H 11000 11005       L1    20  0.06
      L1  C     5    27       P1  7948  1.00
      L1  C     7    29       P1 10186  0.50

> <Gold.PLP.Chemscore.Internal.Correction>
0.0610

> <Gold.Rescore>
     Score         DG    S(hbond)    S(metal)    S(lipo)     H(rot)  DE(clash)    DE(int)     intcor
      6.89     -11.86       1.91        0.00      63.46       2.89       1.68       3.29       ----

> <Gold.Chemscore.Fitness>
6.8943

> <Gold.Chemscore.DG>
-11.8627

> <Gold.Chemscore.ZeroCoef>
-5.4800

> <Gold.Chemscore.Hbond>
1.9064

> <Gold.Chemscore.Metal>
0.0000

> <Gold.Chemscore.Lipo>
63.4647

> <Gold.Chemscore.Internal_Hbond>
0.0000

> <Gold.Chemscore.DEClash>
1.6784

> <Gold.Chemscore.DEInternal>
3.2900

> <Gold.Chemscore.Rot>
2.8946

> <Gold.Chemscore.Internal.Correction>
   9.000000E+99

> <Gold.Chemscore.Hbonds>
donor molecule, donor type, donor heavy atom, donor atom, acceptor molecule, acceptor atom, score
      L1  H     9    30       P1 10175  0.92

> <Gold.Chemscore.Hbond.Weighted>
-6.3674

> <Gold.Chemscore.Metal.Weighted>
-0.0000

> <Gold.Chemscore.Lipo.Weighted>
-7.4254

> <Gold.Chemscore.Internal_Hbond.Weighted>
0.0000

> <Gold.Chemscore.DEClash.Weighted>
1.6784

> <Gold.Chemscore.DEInternal.Weighted>
3.2900

> <Gold.Chemscore.Rot.Weighted>
7.4101

> <Gold.Chemscore.Internal.Correction.Weighted>
   9.000000E+99

> <Gold.Protein.RotatedTorsions>
[ 6907 6896 6895 6894 ] final  121.21 input  -60.11 | X-H torsion
[ 7974 7965 7964 7962 ] final   62.70 input  175.53 | X-H torsion
[ 8008 7997 7996 7995 ] final   97.66 input   59.86 | X-H torsion
[ 10167 10162 10161 10158 ] final -164.07 input  -65.29 | X-H torsion
[ 10718 10713 10712 10709 ] final   70.65 input   66.30 | X-H torsion
[ 10763 10752 10751 10750 ] final -106.11 input  -60.55 | X-H torsion
[ 11005 11000 10999 10996 ] final  114.01 input  -57.11 | X-H torsion

> <Gold.Protein.ActiveResidues>
 VAL166  LYS551  ARG553  GLY616  TRP617  ASP618  TYR619  PRO620  LYS621  CYS622 
 ASP623  PHE694  ASN695  SER759  ASP760  ASP761  ALA762  ILE779  LEU786  VAL792 
 PHE793  MET794  SER795  GLU796  ALA797  LYS798  CYS799  TRP800  GLU811  SER814 

> <Gold.Protein.RotatedAtoms>
  152.4339  133.7326  159.6595 H   0  0  0  0  0  0  0  0  0  0  0  0  # atno 6907 bound_to 6896
  150.8221  133.8224  159.3140 H   0  0  0  0  0  0  0  0  0  0  0  0  # atno 6908 bound_to 6896
  151.5904  135.1056  160.0089 H   0  0  0  0  0  0  0  0  0  0  0  0  # atno 6909 bound_to 6896
  145.8703  139.3373  143.0766 H   0  0  0  0  0  0  0  0  0  0  0  0  # atno 7974 bound_to 7965
  156.0924  140.3255  155.7833 H   0  0  0  0  0  0  0  0  0  0  0  0  # atno 8008 bound_to 7997
  155.4974  140.0566  157.2961 H   0  0  0  0  0  0  0  0  0  0  0  0  # atno 8009 bound_to 7997
  154.4646  140.1983  156.0169 H   0  0  0  0  0  0  0  0  0  0  0  0  # atno 8010 bound_to 7997
  139.6276  144.0502  152.1988 H   0  0  0  0  0  0  0  0  0  0  0  0  # atno 10167 bound_to 10162
  157.6411  130.9488  150.0680 H   0  0  0  0  0  0  0  0  0  0  0  0  # atno 10718 bound_to 10713
  154.7991  135.4724  154.0232 H   0  0  0  0  0  0  0  0  0  0  0  0  # atno 10763 bound_to 10752
  153.1751  135.6831  153.8560 H   0  0  0  0  0  0  0  0  0  0  0  0  # atno 10764 bound_to 10752
  153.8129  135.3214  155.3380 H   0  0  0  0  0  0  0  0  0  0  0  0  # atno 10765 bound_to 10752
  139.8968  134.9560  156.6826 H   0  0  0  0  0  0  0  0  0  0  0  0  # atno 11005 bound_to 11000
  145.9145  140.9158  143.0437 LP  0  0  0  0  0  0  0  0  0  0  0  0  # atno 17320 bound_to 7965
  144.6726  140.1205  143.7450 LP  0  0  0  0  0  0  0  0  0  0  0  0  # atno 17321 bound_to 7965
  140.0159  144.6189  150.7607 LP  0  0  0  0  0  0  0  0  0  0  0  0  # atno 17342 bound_to 10162
  140.7420  143.2826  151.3554 LP  0  0  0  0  0  0  0  0  0  0  0  0  # atno 17343 bound_to 10162
  156.1693  130.3646  149.9188 LP  0  0  0  0  0  0  0  0  0  0  0  0  # atno 17370 bound_to 10713
  156.7168  130.8991  151.3614 LP  0  0  0  0  0  0  0  0  0  0  0  0  # atno 17371 bound_to 10713
  140.7287  133.9078  155.8196 LP  0  0  0  0  0  0  0  0  0  0  0  0  # atno 17394 bound_to 11000
  141.0170  134.0941  157.4161 LP  0  0  0  0  0  0  0  0  0  0  0  0  # atno 17395 bound_to 11000

$$$$
