AV-unprocessed.smi:2675|AV-procd|sdf|10361|dock3
  -GOLD-   2272014383D 1   1.00000     0.00000
 Structure written by MMmdl.
 37 38  0  0  0  0  0  0  0  0  2 V2000
  146.4473  142.5446  153.8403 C   0  0  0  0  0  0  0  0  0  0  0  0
  147.6226  141.6635  154.1030 C   0  0  0  0  0  0  0  0  0  0  0  0
  148.7239  142.1160  154.7801 N   0  3  0  0  0  0  0  0  0  0  0  0
  149.6385  141.1519  154.8877 C   0  0  0  0  0  0  0  0  0  0  0  0
  149.1340  140.0710  154.2822 N   0  0  0  0  0  0  0  0  0  0  0  0
  149.8866  138.8111  154.2004 C   0  0  0  0  0  0  0  0  0  0  0  0
  149.3867  137.8012  155.2337 C   0  0  0  0  0  0  0  0  0  0  0  0
  149.2330  138.1514  156.4022 O   0  0  0  0  0  0  0  0  0  0  0  0
  149.1368  136.5602  154.7802 N   0  0  0  0  0  0  0  0  0  0  0  0
  148.6078  135.4071  155.5209 C   0  0  2  0  0  0  0  0  0  0  0  0
  147.1870  135.8005  155.9585 C   0  0  0  0  0  0  0  0  0  0  0  0
  149.3917  135.1369  156.7423 C   0  0  0  0  0  0  0  0  0  0  0  0
  150.0071  134.9229  157.6988 N   0  0  0  0  0  0  0  0  0  0  0  0
  148.5253  134.1028  154.7253 C   0  0  0  0  0  0  0  0  0  0  0  0
  149.2576  132.8324  155.0979 C   0  0  0  0  0  0  0  0  0  0  0  0
  149.6663  133.6078  153.8652 C   0  0  0  0  0  0  0  0  0  0  0  0
  147.8807  140.3496  153.7813 C   0  0  0  0  0  0  0  0  0  0  0  0
  147.0560  139.3422  153.0461 C   0  0  0  0  0  0  0  0  0  0  0  0
  145.6852  142.0164  153.2681 H   0  0  0  0  0  0  0  0  0  0  0  0
  146.7554  143.4238  153.2740 H   0  0  0  0  0  0  0  0  0  0  0  0
  146.0057  142.8735  154.7814 H   0  0  0  0  0  0  0  0  0  0  0  0
  150.5980  141.2334  155.3666 H   0  0  0  0  0  0  0  0  0  0  0  0
  149.7908  138.4079  153.1908 H   0  0  0  0  0  0  0  0  0  0  0  0
  150.9443  139.0228  154.3598 H   0  0  0  0  0  0  0  0  0  0  0  0
  149.3181  136.3933  153.8014 H   0  0  0  0  0  0  0  0  0  0  0  0
  146.7228  135.0117  156.5518 H   0  0  0  0  0  0  0  0  0  0  0  0
  146.5425  135.9865  155.0984 H   0  0  0  0  0  0  0  0  0  0  0  0
  147.1948  136.7043  156.5696 H   0  0  0  0  0  0  0  0  0  0  0  0
  147.5322  133.9366  154.3104 H   0  0  0  0  0  0  0  0  0  0  0  0
  149.9448  132.8419  155.9391 H   0  0  0  0  0  0  0  0  0  0  0  0
  148.7324  131.8917  154.9452 H   0  0  0  0  0  0  0  0  0  0  0  0
  149.4137  133.1821  152.8962 H   0  0  0  0  0  0  0  0  0  0  0  0
  150.6129  134.1428  153.9034 H   0  0  0  0  0  0  0  0  0  0  0  0
  146.0955  139.7663  152.7551 H   0  0  0  0  0  0  0  0  0  0  0  0
  146.8679  138.4727  153.6762 H   0  0  0  0  0  0  0  0  0  0  0  0
  147.5715  139.0165  152.1427 H   0  0  0  0  0  0  0  0  0  0  0  0
  148.8316  143.0531  155.1479 H   0  0  0  0  0  0  0  0  0  0  0  0
  1  2  1  0  0  0  0
  1 19  1  0  0  0  0
  1 20  1  0  0  0  0
  1 21  1  0  0  0  0
  2 17  2  0  0  0  0
  2  3  1  0  0  0  0
  3  4  2  0  0  0  0
  3 37  1  0  0  0  0
  4  5  1  0  0  0  0
  4 22  1  0  0  0  0
  5  6  1  0  0  0  0
  5 17  1  0  0  0  0
  6  7  1  0  0  0  0
  6 23  1  0  0  0  0
  6 24  1  0  0  0  0
  7  8  2  0  0  0  0
  7  9  1  0  0  0  0
  9 10  1  0  0  0  0
  9 25  1  0  0  0  0
 10 11  1  0  0  0  0
 10 12  1  0  0  0  0
 10 14  1  0  0  0  0
 11 26  1  0  0  0  0
 11 27  1  0  0  0  0
 11 28  1  0  0  0  0
 12 13  3  0  0  0  0
 14 16  1  0  0  0  0
 14 15  1  0  0  0  0
 14 29  1  0  0  0  0
 15 16  1  0  0  0  0
 15 30  1  0  0  0  0
 15 31  1  0  0  0  0
 16 32  1  0  0  0  0
 16 33  1  0  0  0  0
 17 18  1  0  0  0  0
 18 34  1  0  0  0  0
 18 35  1  0  0  0  0
 18 36  1  0  0  0  0
M  CHG  1   3   1
M  END
> <s_m_source_file>
AV-unprocessed.smi

> <i_m_source_file_index>
2675

> <i_lp_mmshare_version>
43012

> <i_f3d_flags>
0

> <s_epik_input>
W0NIM11jMW5bY0hdbihjMVtDSDNdKVtDSDJdQyg9TylbTkhdW0NAQF0oW0NIM10pKEMjTilbQ0hdMltDSDJdW0NIMl0y

> <s_epik_cmdline>
J2VwaWtfcHl0aG9uJywgJy1waCcsICc3LjAnLCAnLXRuJywgJzgnLCAnLW1hJywgJzIwMCcsICctbWV0YWxfYmluZGluZycsICctaW1hZScsICc8aW5maWxlLm1hZT4nLCAnLW9tYWUnLCAnPG91dGZpbGUubWFlPic=

> <r_lp_tautomer_probability>
1

> <r_epik_Ionization_Penalty>
0.153253

> <r_epik_Ionization_Penalty_Charging>
0

> <r_epik_Ionization_Penalty_Neutral>
0.153253

> <r_epik_State_Penalty>
0.14254

> <r_epik_Charging_Adjusted_Penalty>
0.14254

> <i_epik_Tot_Q>
1

> <i_epik_Tot_abs_Q>
1

> <r_epik_Metal_State_Penalty>
0.466899

> <b_epik_Metal_Only>
0

> <s_lp_Force_Field>
OPLS_2005

> <r_lp_Energy>
18.2942

> <b_lp_Chiralities_Consistent>
1

> <s_lp_Variant>
AV-unprocessed.smi:2675-2

> <Gold.Version>
5.8.1

> <Gold.Id.Protein>
6NUR|6NUR_protein|mol2

> <Gold.PLP.Fitness>
40.2943

> <Gold.PLP.PLP>
-30.2682

> <Gold.PLP.part.hbond>
-3.0000

> <Gold.PLP.part.metal>
0.0000

> <Gold.PLP.part.buried>
-2.1483

> <Gold.PLP.part.nonpolar>
-24.5886

> <Gold.PLP.part.repulsive>
0.2051

> <Gold.PLP.ligand.clash>
0.0000

> <Gold.PLP.ligand.torsion>
1.7231

> <Gold.PLP.Chemscore.Hbond>
3.9920

> <Gold.PLP.Chemscore.CHOScore>
0.0000

> <Gold.PLP.Chemscore.Metal>
0.0000

> <Gold.Chemscore.Hbonds>
donor molecule, donor type, donor heavy atom, donor atom, acceptor molecule, acceptor atom, score
      L1  H     3    37       P1  8028  2.00
      L1  H     9    25       P1  7948  1.00
      P1  H  6896  6909       L1    13  0.83

> <Gold.PLP.Chemscore.Internal.Correction>
1.4962

> <Gold.Rescore>
     Score         DG    S(hbond)    S(metal)    S(lipo)     H(rot)  DE(clash)    DE(int)     intcor
     14.62     -16.55       2.86        0.00      52.28       1.80       0.01       1.93       ----

> <Gold.Chemscore.Fitness>
14.6202

> <Gold.Chemscore.DG>
-16.5526

> <Gold.Chemscore.ZeroCoef>
-5.4800

> <Gold.Chemscore.Hbond>
2.8600

> <Gold.Chemscore.Metal>
0.0000

> <Gold.Chemscore.Lipo>
52.2788

> <Gold.Chemscore.Internal_Hbond>
0.0000

> <Gold.Chemscore.DEClash>
0.0060

> <Gold.Chemscore.DEInternal>
1.9265

> <Gold.Chemscore.Rot>
1.7955

> <Gold.Chemscore.Internal.Correction>
   9.000000E+99

> <Gold.Chemscore.Hbonds>
donor molecule, donor type, donor heavy atom, donor atom, acceptor molecule, acceptor atom, score
      L1  H     3    37       P1  8028  1.00
      L1  H     9    25       P1  7948  0.89
      P1  H  6896  6909       L1    13  0.81

> <Gold.Chemscore.Hbond.Weighted>
-9.5525

> <Gold.Chemscore.Metal.Weighted>
-0.0000

> <Gold.Chemscore.Lipo.Weighted>
-6.1166

> <Gold.Chemscore.Internal_Hbond.Weighted>
0.0000

> <Gold.Chemscore.DEClash.Weighted>
0.0060

> <Gold.Chemscore.DEInternal.Weighted>
1.9265

> <Gold.Chemscore.Rot.Weighted>
4.5965

> <Gold.Chemscore.Internal.Correction.Weighted>
   9.000000E+99

> <Gold.Protein.RotatedTorsions>
[ 6907 6896 6895 6894 ] final   26.90 input  -60.11 | X-H torsion
[ 7974 7965 7964 7962 ] final -179.30 input  175.53 | X-H torsion
[ 8008 7997 7996 7995 ] final -166.12 input   59.86 | X-H torsion
[ 10167 10162 10161 10158 ] final   91.80 input  -65.29 | X-H torsion
[ 10718 10713 10712 10709 ] final   73.80 input   66.30 | X-H torsion
[ 10763 10752 10751 10750 ] final -128.17 input  -60.55 | X-H torsion
[ 11005 11000 10999 10996 ] final  -83.77 input  -57.11 | X-H torsion

> <Gold.Protein.ActiveResidues>
 VAL166  LYS551  ARG553  GLY616  TRP617  ASP618  TYR619  PRO620  LYS621  CYS622 
 ASP623  PHE694  ASN695  SER759  ASP760  ASP761  ALA762  ILE779  LEU786  VAL792 
 PHE793  MET794  SER795  GLU796  ALA797  LYS798  CYS799  TRP800  GLU811  SER814 

> <Gold.Protein.RotatedAtoms>
  151.9943  134.9962  160.0562 H   0  0  0  0  0  0  0  0  0  0  0  0  # atno 6907 bound_to 6896
  152.1579  133.4558  159.4854 H   0  0  0  0  0  0  0  0  0  0  0  0  # atno 6908 bound_to 6896
  150.6884  134.2026  159.4371 H   0  0  0  0  0  0  0  0  0  0  0  0  # atno 6909 bound_to 6896
  144.7136  140.0738  143.6428 H   0  0  0  0  0  0  0  0  0  0  0  0  # atno 7974 bound_to 7965
  155.8594  140.0975  157.1623 H   0  0  0  0  0  0  0  0  0  0  0  0  # atno 8008 bound_to 7997
  154.3989  140.1368  156.4004 H   0  0  0  0  0  0  0  0  0  0  0  0  # atno 8009 bound_to 7997
  155.7874  140.3457  155.5333 H   0  0  0  0  0  0  0  0  0  0  0  0  # atno 8010 bound_to 7997
  139.8339  144.6674  150.9366 H   0  0  0  0  0  0  0  0  0  0  0  0  # atno 10167 bound_to 10162
  157.6564  130.9646  150.1120 H   0  0  0  0  0  0  0  0  0  0  0  0  # atno 10718 bound_to 10713
  154.8755  135.3937  154.3713 H   0  0  0  0  0  0  0  0  0  0  0  0  # atno 10763 bound_to 10752
  153.4472  135.7027  153.6137 H   0  0  0  0  0  0  0  0  0  0  0  0  # atno 10764 bound_to 10752
  153.4692  135.3794  155.2350 H   0  0  0  0  0  0  0  0  0  0  0  0  # atno 10765 bound_to 10752
  141.1655  133.7311  156.8769 H   0  0  0  0  0  0  0  0  0  0  0  0  # atno 11005 bound_to 11000
  145.9760  139.2905  143.1070 LP  0  0  0  0  0  0  0  0  0  0  0  0  # atno 17320 bound_to 7965
  145.9063  140.9210  143.0477 LP  0  0  0  0  0  0  0  0  0  0  0  0  # atno 17321 bound_to 7965
  140.7804  143.3975  151.1204 LP  0  0  0  0  0  0  0  0  0  0  0  0  # atno 17342 bound_to 10162
  139.7627  143.8611  152.3104 LP  0  0  0  0  0  0  0  0  0  0  0  0  # atno 17343 bound_to 10162
  156.2014  130.3660  149.8783 LP  0  0  0  0  0  0  0  0  0  0  0  0  # atno 17370 bound_to 10713
  156.6686  130.8811  151.3558 LP  0  0  0  0  0  0  0  0  0  0  0  0  # atno 17371 bound_to 10713
  140.1742  134.9078  157.2870 LP  0  0  0  0  0  0  0  0  0  0  0  0  # atno 17394 bound_to 11000
  140.2467  134.3731  155.7458 LP  0  0  0  0  0  0  0  0  0  0  0  0  # atno 17395 bound_to 11000

$$$$
