AV-unprocessed.smi:2156|AV-procd|sdf|8782|dock4
  -GOLD-   2272011563D 1   1.00000     0.00000
 Structure written by MMmdl.
 33 33  0  0  0  0  0  0  0  0  2 V2000
  154.8080  141.2478  160.5221 C   0  0  0  0  0  0  0  0  0  0  0  0
  153.3900  141.6180  160.0746 C   0  0  0  0  0  0  0  0  0  0  0  0
  153.2660  143.0993  159.6748 C   0  0  0  0  0  0  0  0  0  0  0  0
  151.8441  143.5129  159.2489 C   0  0  1  0  0  0  0  0  0  0  0  0
  151.6463  145.0342  159.3433 C   0  0  0  0  0  0  0  0  0  0  0  0
  151.5800  143.0524  157.8897 N   0  0  0  0  0  0  0  0  0  0  0  0
  150.6601  142.1435  157.5246 C   0  0  0  0  0  0  0  0  0  0  0  0
  149.8816  141.6231  158.3231 O   0  0  0  0  0  0  0  0  0  0  0  0
  150.5912  141.7436  156.0402 C   0  0  0  0  0  0  0  0  0  0  0  0
  150.8750  140.3215  155.7706 N   0  0  0  0  0  0  0  0  0  0  0  0
  150.0464  139.6556  154.8502 C   0  0  0  0  0  0  0  0  0  0  0  0
  150.2402  138.3632  154.5254 C   0  0  0  0  0  0  0  0  0  0  0  0
  151.3451  137.6512  155.1555 C   0  0  0  0  0  0  0  0  0  0  0  0
  151.5386  136.4715  154.8688 O   0  0  0  0  0  0  0  0  0  0  0  0
  152.1206  138.3405  156.0429 N   0  5  0  0  0  0  0  0  0  0  0  0
  151.9123  139.6551  156.3632 C   0  0  0  0  0  0  0  0  0  0  0  0
  152.6307  140.2613  157.1583 O   0  0  0  0  0  0  0  0  0  0  0  0
  154.8650  140.1946  160.7984 H   0  0  0  0  0  0  0  0  0  0  0  0
  155.1148  141.8363  161.3872 H   0  0  0  0  0  0  0  0  0  0  0  0
  155.5300  141.4212  159.7237 H   0  0  0  0  0  0  0  0  0  0  0  0
  153.1084  140.9774  159.2382 H   0  0  0  0  0  0  0  0  0  0  0  0
  152.6894  141.3972  160.8808 H   0  0  0  0  0  0  0  0  0  0  0  0
  153.5771  143.7189  160.5168 H   0  0  0  0  0  0  0  0  0  0  0  0
  153.9661  143.3138  158.8659 H   0  0  0  0  0  0  0  0  0  0  0  0
  151.1375  143.0320  159.9279 H   0  0  0  0  0  0  0  0  0  0  0  0
  151.8169  145.3882  160.3602 H   0  0  0  0  0  0  0  0  0  0  0  0
  150.6319  145.3205  159.0640 H   0  0  0  0  0  0  0  0  0  0  0  0
  152.3352  145.5657  158.6861 H   0  0  0  0  0  0  0  0  0  0  0  0
  152.1776  143.4221  157.1642 H   0  0  0  0  0  0  0  0  0  0  0  0
  149.6054  142.0093  155.6548 H   0  0  0  0  0  0  0  0  0  0  0  0
  151.2886  142.3757  155.4888 H   0  0  0  0  0  0  0  0  0  0  0  0
  149.2561  140.2561  154.4242 H   0  0  0  0  0  0  0  0  0  0  0  0
  149.5964  137.8667  153.8144 H   0  0  0  0  0  0  0  0  0  0  0  0
  1  2  1  0  0  0  0
  1 18  1  0  0  0  0
  1 19  1  0  0  0  0
  1 20  1  0  0  0  0
  2  3  1  0  0  0  0
  2 21  1  0  0  0  0
  2 22  1  0  0  0  0
  3  4  1  0  0  0  0
  3 23  1  0  0  0  0
  3 24  1  0  0  0  0
  4  5  1  0  0  0  0
  4  6  1  0  0  0  0
  4 25  1  0  0  0  0
  5 26  1  0  0  0  0
  5 27  1  0  0  0  0
  5 28  1  0  0  0  0
  6  7  1  0  0  0  0
  6 29  1  0  0  0  0
  7  8  2  0  0  0  0
  7  9  1  0  0  0  0
  9 10  1  0  0  0  0
  9 30  1  0  0  0  0
  9 31  1  0  0  0  0
 10 16  1  0  0  0  0
 10 11  1  0  0  0  0
 11 12  2  0  0  0  0
 11 32  1  0  0  0  0
 12 13  1  0  0  0  0
 12 33  1  0  0  0  0
 13 14  2  0  0  0  0
 13 15  1  0  0  0  0
 15 16  1  0  0  0  0
 16 17  2  0  0  0  0
M  CHG  1  15  -1
M  END
> <s_m_source_file>
AV-unprocessed.smi

> <i_m_source_file_index>
2156

> <i_lp_mmshare_version>
43012

> <i_f3d_flags>
0

> <s_epik_input>
W0NIM11bQ0gyXVtDSDJdW0NASF0oW0NIM10pW05IXUMoPU8pW0NIMl1uMVtjSF1bY0hdYyg9TylbbkhdYzE9Tw==

> <s_epik_cmdline>
J2VwaWtfcHl0aG9uJywgJy1waCcsICc3LjAnLCAnLXRuJywgJzgnLCAnLW1hJywgJzIwMCcsICctbWV0YWxfYmluZGluZycsICctaW1hZScsICc8aW5maWxlLm1hZT4nLCAnLW9tYWUnLCAnPG91dGZpbGUubWFlPic=

> <r_lp_tautomer_probability>
0.999537

> <r_epik_Ionization_Penalty>
3.08607

> <r_epik_Ionization_Penalty_Charging>
2.78879e-08

> <r_epik_Ionization_Penalty_Neutral>
3.08607

> <r_epik_State_Penalty>
3.08511

> <r_epik_Charging_Adjusted_Penalty>
3.08511

> <i_epik_Tot_Q>
-1

> <i_epik_Tot_abs_Q>
1

> <r_epik_Metal_State_Penalty>
0.460479

> <b_epik_Metal_Only>
1

> <s_lp_Force_Field>
OPLS_2005

> <r_lp_Energy>
11.6756

> <b_lp_Chiralities_Consistent>
1

> <s_lp_Variant>
AV-unprocessed.smi:2156-4

> <Gold.Version>
5.8.1

> <Gold.Id.Protein>
6NUR|6NUR_protein|mol2

> <Gold.PLP.Fitness>
44.1931

> <Gold.PLP.PLP>
-38.9582

> <Gold.PLP.part.hbond>
-2.0000

> <Gold.PLP.part.metal>
0.0000

> <Gold.PLP.part.buried>
-2.9138

> <Gold.PLP.part.nonpolar>
-33.4089

> <Gold.PLP.part.repulsive>
0.2493

> <Gold.PLP.ligand.clash>
0.0157

> <Gold.PLP.ligand.torsion>
0.3982

> <Gold.PLP.Chemscore.Hbond>
2.0000

> <Gold.PLP.Chemscore.CHOScore>
0.0000

> <Gold.PLP.Chemscore.Metal>
0.0000

> <Gold.Chemscore.Hbonds>
donor molecule, donor type, donor heavy atom, donor atom, acceptor molecule, acceptor atom, score
      P1  H  7997  8009       L1    17  0.96
      P1  H 10752 10764       L1    14  1.00

> <Gold.PLP.Chemscore.Internal.Correction>
0.0470

> <Gold.Rescore>
     Score         DG    S(hbond)    S(metal)    S(lipo)     H(rot)  DE(clash)    DE(int)     intcor
     13.60     -15.54       1.92        0.00      78.00       2.14       0.16       1.78       ----

> <Gold.Chemscore.Fitness>
13.5983

> <Gold.Chemscore.DG>
-15.5377

> <Gold.Chemscore.ZeroCoef>
-5.4800

> <Gold.Chemscore.Hbond>
1.9169

> <Gold.Chemscore.Metal>
0.0000

> <Gold.Chemscore.Lipo>
78.0032

> <Gold.Chemscore.Internal_Hbond>
0.0000

> <Gold.Chemscore.DEClash>
0.1577

> <Gold.Chemscore.DEInternal>
1.7817

> <Gold.Chemscore.Rot>
2.1372

> <Gold.Chemscore.Internal.Correction>
   9.000000E+99

> <Gold.Chemscore.Hbonds>
donor molecule, donor type, donor heavy atom, donor atom, acceptor molecule, acceptor atom, score
      P1  H  7997  8009       L1    17  0.51
      P1  H 10752 10764       L1    14  1.00

> <Gold.Chemscore.Hbond.Weighted>
-6.4026

> <Gold.Chemscore.Metal.Weighted>
-0.0000

> <Gold.Chemscore.Lipo.Weighted>
-9.1264

> <Gold.Chemscore.Internal_Hbond.Weighted>
0.0000

> <Gold.Chemscore.DEClash.Weighted>
0.1577

> <Gold.Chemscore.DEInternal.Weighted>
1.7817

> <Gold.Chemscore.Rot.Weighted>
5.4713

> <Gold.Chemscore.Internal.Correction.Weighted>
   9.000000E+99

> <Gold.Protein.RotatedTorsions>
[ 6907 6896 6895 6894 ] final  125.39 input  -60.11 | X-H torsion
[ 7974 7965 7964 7962 ] final   13.32 input  175.53 | X-H torsion
[ 8008 7997 7996 7995 ] final -170.90 input   59.86 | X-H torsion
[ 10167 10162 10161 10158 ] final   81.49 input  -65.29 | X-H torsion
[ 10718 10713 10712 10709 ] final -110.73 input   66.30 | X-H torsion
[ 10763 10752 10751 10750 ] final  -51.53 input  -60.55 | X-H torsion
[ 11005 11000 10999 10996 ] final -154.31 input  -57.11 | X-H torsion

> <Gold.Protein.ActiveResidues>
 VAL166  LYS551  ARG553  GLY616  TRP617  ASP618  TYR619  PRO620  LYS621  CYS622 
 ASP623  PHE694  ASN695  SER759  ASP760  ASP761  ALA762  ILE779  LEU786  VAL792 
 PHE793  MET794  SER795  GLU796  ALA797  LYS798  CYS799  TRP800  GLU811  SER814 

> <Gold.Protein.RotatedAtoms>
  152.3996  133.6798  159.6304 H   0  0  0  0  0  0  0  0  0  0  0  0  # atno 6907 bound_to 6896
  150.7889  133.8814  159.3296 H   0  0  0  0  0  0  0  0  0  0  0  0  # atno 6908 bound_to 6896
  151.6583  135.0994  160.0226 H   0  0  0  0  0  0  0  0  0  0  0  0  # atno 6909 bound_to 6896
  146.2332  139.9206  142.8510 H   0  0  0  0  0  0  0  0  0  0  0  0  # atno 7974 bound_to 7965
  155.9245  140.1080  157.1181 H   0  0  0  0  0  0  0  0  0  0  0  0  # atno 8008 bound_to 7997
  154.4060  140.1249  156.4787 H   0  0  0  0  0  0  0  0  0  0  0  0  # atno 8009 bound_to 7997
  155.7156  140.3470  155.4995 H   0  0  0  0  0  0  0  0  0  0  0  0  # atno 8010 bound_to 7997
  139.9387  144.6104  150.8273 H   0  0  0  0  0  0  0  0  0  0  0  0  # atno 10167 bound_to 10162
  156.0607  130.5831  150.8278 H   0  0  0  0  0  0  0  0  0  0  0  0  # atno 10718 bound_to 10713
  154.1280  135.6524  153.4916 H   0  0  0  0  0  0  0  0  0  0  0  0  # atno 10763 bound_to 10752
  153.0204  135.5286  154.7030 H   0  0  0  0  0  0  0  0  0  0  0  0  # atno 10764 bound_to 10752
  154.6256  135.2970  155.0246 H   0  0  0  0  0  0  0  0  0  0  0  0  # atno 10765 bound_to 10752
  140.6987  134.3961  157.5212 H   0  0  0  0  0  0  0  0  0  0  0  0  # atno 11005 bound_to 11000
  145.2140  140.9907  143.4084 LP  0  0  0  0  0  0  0  0  0  0  0  0  # atno 17320 bound_to 7965
  144.9667  139.3923  143.6329 LP  0  0  0  0  0  0  0  0  0  0  0  0  # atno 17321 bound_to 7965
  140.7617  143.3181  151.2686 LP  0  0  0  0  0  0  0  0  0  0  0  0  # atno 17342 bound_to 10162
  139.6722  143.9999  152.2760 LP  0  0  0  0  0  0  0  0  0  0  0  0  # atno 17343 bound_to 10162
  157.5614  131.0946  150.9554 LP  0  0  0  0  0  0  0  0  0  0  0  0  # atno 17370 bound_to 10713
  156.9791  130.5520  149.5295 LP  0  0  0  0  0  0  0  0  0  0  0  0  # atno 17371 bound_to 10713
  139.8903  134.8809  156.2378 LP  0  0  0  0  0  0  0  0  0  0  0  0  # atno 17394 bound_to 11000
  141.0182  133.7056  156.1223 LP  0  0  0  0  0  0  0  0  0  0  0  0  # atno 17395 bound_to 11000

$$$$
