AV-unprocessed.smi:224|AV-procd|sdf|1711|dock1
  -GOLD-   2262020173D 1   1.00000     0.00000
 Structure written by MMmdl.
 56 59  0  0  0  0  0  0  0  0  2 V2000
  147.8946  133.8745  153.7649 C   0  0  0  0  0  0  0  0  0  0  0  0
  146.7646  134.9071  153.6374 C   0  0  2  0  0  0  0  0  0  0  0  0
  146.6881  135.3132  152.2872 O   0  0  0  0  0  0  0  0  0  0  0  0
  146.9929  136.1572  154.5108 C   0  0  0  0  0  0  0  0  0  0  0  0
  148.3185  136.7923  154.2600 N   0  3  2  0  0  0  0  0  0  0  0  0
  149.3856  136.1374  155.0708 C   0  0  0  0  0  0  0  0  0  0  0  0
  150.7730  136.7576  154.8327 C   0  0  0  0  0  0  0  0  0  0  0  0
  150.7384  138.2055  155.0044 N   0  0  0  0  0  0  0  0  0  0  0  0
  150.9215  138.7403  156.2423 C   0  0  0  0  0  0  0  0  0  0  0  0
  150.8637  137.9401  157.3404 N   0  0  0  0  0  0  0  0  0  0  0  0
  151.0170  138.4534  158.5642 C   0  0  0  0  0  0  0  0  0  0  0  0
  151.2361  139.7212  158.9140 N   0  0  0  0  0  0  0  0  0  0  0  0
  151.3114  140.5301  157.8192 C   0  0  0  0  0  0  0  0  0  0  0  0
  151.1741  140.1257  156.4608 C   0  0  0  0  0  0  0  0  0  0  0  0
  151.3355  141.2253  155.6253 N   0  0  0  0  0  0  0  0  0  0  0  0
  151.5386  142.2225  156.4420 C   0  0  0  0  0  0  0  0  0  0  0  0
  151.5263  141.8964  157.7790 N   0  0  0  0  0  0  0  0  0  0  0  0
  151.7091  142.8039  158.9009 C   0  0  0  0  0  0  0  0  0  0  0  0
  153.0455  142.5886  159.6489 C   0  0  2  0  0  0  0  0  0  0  0  0
  154.0991  143.1566  158.8899 O   0  0  0  0  0  0  0  0  0  0  0  0
  153.3799  141.1235  159.9182 C   0  0  0  0  0  0  0  0  0  0  0  0
  154.1300  141.1825  161.2415 C   0  0  0  0  0  0  0  0  0  0  0  0
  153.4081  142.1690  161.9580 O   0  0  0  0  0  0  0  0  0  0  0  0
  153.0635  143.2164  161.0572 C   0  0  0  0  0  0  0  0  0  0  0  0
  149.7450  138.8542  154.1584 C   0  0  0  0  0  0  0  0  0  0  0  0
  148.3271  138.2853  154.3938 C   0  0  1  0  0  0  0  0  0  0  0  0
  147.3669  138.9826  153.4074 C   0  0  0  0  0  0  0  0  0  0  0  0
  147.9710  133.4961  154.7846 H   0  0  0  0  0  0  0  0  0  0  0  0
  148.8606  134.3048  153.4978 H   0  0  0  0  0  0  0  0  0  0  0  0
  147.7196  133.0184  153.1123 H   0  0  0  0  0  0  0  0  0  0  0  0
  145.8134  134.4342  153.8785 H   0  0  0  0  0  0  0  0  0  0  0  0
  147.5062  135.7187  152.0424 H   0  0  0  0  0  0  0  0  0  0  0  0
  146.1702  136.8408  154.3187 H   0  0  0  0  0  0  0  0  0  0  0  0
  146.9121  135.9040  155.5694 H   0  0  0  0  0  0  0  0  0  0  0  0
  149.1253  136.2117  156.1272 H   0  0  0  0  0  0  0  0  0  0  0  0
  149.4382  135.0740  154.8422 H   0  0  0  0  0  0  0  0  0  0  0  0
  151.5184  136.3038  155.4872 H   0  0  0  0  0  0  0  0  0  0  0  0
  151.0982  136.5452  153.8136 H   0  0  0  0  0  0  0  0  0  0  0  0
  150.9519  137.7483  159.3798 H   0  0  0  0  0  0  0  0  0  0  0  0
  151.6977  143.2309  156.0888 H   0  0  0  0  0  0  0  0  0  0  0  0
  151.6428  143.8285  158.5321 H   0  0  0  0  0  0  0  0  0  0  0  0
  150.8696  142.6709  159.5846 H   0  0  0  0  0  0  0  0  0  0  0  0
  153.7288  143.7729  158.2765 H   0  0  0  0  0  0  0  0  0  0  0  0
  152.4649  140.5478  160.0628 H   0  0  0  0  0  0  0  0  0  0  0  0
  153.9500  140.6460  159.1200 H   0  0  0  0  0  0  0  0  0  0  0  0
  154.1383  140.2273  161.7664 H   0  0  0  0  0  0  0  0  0  0  0  0
  155.1608  141.5098  161.0968 H   0  0  0  0  0  0  0  0  0  0  0  0
  153.7964  144.0210  161.1385 H   0  0  0  0  0  0  0  0  0  0  0  0
  152.0950  143.6288  161.3418 H   0  0  0  0  0  0  0  0  0  0  0  0
  149.7353  139.9329  154.3044 H   0  0  0  0  0  0  0  0  0  0  0  0
  150.0374  138.6970  153.1193 H   0  0  0  0  0  0  0  0  0  0  0  0
  148.0224  138.5342  155.4119 H   0  0  0  0  0  0  0  0  0  0  0  0
  147.5250  140.0617  153.4129 H   0  0  0  0  0  0  0  0  0  0  0  0
  146.3176  138.8354  153.6571 H   0  0  0  0  0  0  0  0  0  0  0  0
  147.5261  138.6356  152.3858 H   0  0  0  0  0  0  0  0  0  0  0  0
  148.5417  136.6114  153.2918 H   0  0  0  0  0  0  0  0  0  0  0  0
  1  2  1  0  0  0  0
  1 28  1  0  0  0  0
  1 29  1  0  0  0  0
  1 30  1  0  0  0  0
  2  3  1  0  0  0  0
  2  4  1  0  0  0  0
  2 31  1  0  0  0  0
  3 32  1  0  0  0  0
  4  5  1  0  0  0  0
  4 33  1  0  0  0  0
  4 34  1  0  0  0  0
  5 26  1  0  0  0  0
  5  6  1  0  0  0  0
  5 56  1  0  0  0  0
  6  7  1  0  0  0  0
  6 35  1  0  0  0  0
  6 36  1  0  0  0  0
  7  8  1  0  0  0  0
  7 37  1  0  0  0  0
  7 38  1  0  0  0  0
  8  9  1  0  0  0  0
  8 25  1  0  0  0  0
  9 14  1  0  0  0  0
  9 10  2  0  0  0  0
 10 11  1  0  0  0  0
 11 12  2  0  0  0  0
 11 39  1  0  0  0  0
 12 13  1  0  0  0  0
 13 17  1  0  0  0  0
 13 14  2  0  0  0  0
 14 15  1  0  0  0  0
 15 16  2  0  0  0  0
 16 17  1  0  0  0  0
 16 40  1  0  0  0  0
 17 18  1  0  0  0  0
 18 19  1  0  0  0  0
 18 41  1  0  0  0  0
 18 42  1  0  0  0  0
 19 24  1  0  0  0  0
 19 20  1  0  0  0  0
 19 21  1  0  0  0  0
 20 43  1  0  0  0  0
 21 22  1  0  0  0  0
 21 44  1  0  0  0  0
 21 45  1  0  0  0  0
 22 23  1  0  0  0  0
 22 46  1  0  0  0  0
 22 47  1  0  0  0  0
 23 24  1  0  0  0  0
 24 48  1  0  0  0  0
 24 49  1  0  0  0  0
 25 26  1  0  0  0  0
 25 50  1  0  0  0  0
 25 51  1  0  0  0  0
 26 27  1  0  0  0  0
 26 52  1  0  0  0  0
 27 53  1  0  0  0  0
 27 54  1  0  0  0  0
 27 55  1  0  0  0  0
M  CHG  1   5   1
M  END
> <s_m_source_file>
AV-unprocessed.smi

> <i_m_source_file_index>
224

> <i_lp_mmshare_version>
43012

> <i_f3d_flags>
0

> <s_epik_input>
W0NIM11bQ0BIXShbT0hdKVtDSDJdTjFbQ0gyXVtDSDJdTihbQ0gyXVtDQEhdMVtDSDNdKWMobltjSF1uMiljKGMyMyluW2NIXW4zW0NIMl1bQ0BAXTQoW09IXSlbQ0gyXVtDSDJdT1tDSDJdNA==

> <s_epik_cmdline>
J2VwaWtfcHl0aG9uJywgJy1waCcsICc3LjAnLCAnLXRuJywgJzgnLCAnLW1hJywgJzIwMCcsICctbWV0YWxfYmluZGluZycsICctaW1hZScsICc8aW5maWxlLm1hZT4nLCAnLW9tYWUnLCAnPG91dGZpbGUubWFlPic=

> <r_lp_tautomer_probability>
1

> <r_epik_Ionization_Penalty>
0.00516958

> <r_epik_Ionization_Penalty_Charging>
0.00509693

> <r_epik_Ionization_Penalty_Neutral>
7.26542e-05

> <r_epik_State_Penalty>
-0

> <r_epik_Charging_Adjusted_Penalty>
0.00509693

> <i_epik_Tot_Q>
1

> <i_epik_Tot_abs_Q>
1

> <r_epik_Metal_State_Penalty>
-0

> <b_epik_Metal_Only>
0

> <s_lp_Force_Field>
OPLS_2005

> <r_lp_Energy>
47.9311

> <b_lp_Chiralities_Consistent>
1

> <s_lp_Variant>
AV-unprocessed.smi:224-5

> <Gold.Version>
5.8.1

> <Gold.Id.Protein>
6NUR|6NUR_protein|mol2

> <Gold.PLP.Fitness>
52.2522

> <Gold.PLP.PLP>
-41.2371

> <Gold.PLP.part.hbond>
-2.4174

> <Gold.PLP.part.metal>
0.0000

> <Gold.PLP.part.buried>
-5.1687

> <Gold.PLP.part.nonpolar>
-34.1123

> <Gold.PLP.part.repulsive>
0.2224

> <Gold.PLP.ligand.clash>
0.0000

> <Gold.PLP.ligand.torsion>
0.8756

> <Gold.PLP.Chemscore.Hbond>
3.0192

> <Gold.PLP.Chemscore.CHOScore>
1.0000

> <Gold.PLP.Chemscore.Metal>
0.0000

> <Gold.Chemscore.Hbonds>
donor molecule, donor type, donor heavy atom, donor atom, acceptor molecule, acceptor atom, score
      L1  H     3    32       P1  7948  0.98
      L1  H     5    56       P1  7948  2.00
      P1  H  7989  7998       L1    15  0.35

> <Gold.PLP.Chemscore.Internal.Correction>
0.7085

> <Gold.Rescore>
     Score         DG    S(hbond)    S(metal)    S(lipo)     H(rot)  DE(clash)    DE(int)     intcor
     12.64     -13.91       2.02        0.00      87.84       3.36       0.11       1.16       ----

> <Gold.Chemscore.Fitness>
12.6436

> <Gold.Chemscore.DG>
-13.9080

> <Gold.Chemscore.ZeroCoef>
-5.4800

> <Gold.Chemscore.Hbond>
2.0225

> <Gold.Chemscore.Metal>
0.0000

> <Gold.Chemscore.Lipo>
87.8399

> <Gold.Chemscore.Internal_Hbond>
0.0000

> <Gold.Chemscore.DEClash>
0.1068

> <Gold.Chemscore.DEInternal>
1.1576

> <Gold.Chemscore.Rot>
3.3611

> <Gold.Chemscore.Internal.Correction>
   9.000000E+99

> <Gold.Chemscore.Hbonds>
donor molecule, donor type, donor heavy atom, donor atom, acceptor molecule, acceptor atom, score
      L1  H     3    32       P1  7948  0.91
      L1  H     5    56       P1  7948  0.93
      P1  H  7989  7998       L1    15  0.35

> <Gold.Chemscore.Hbond.Weighted>
-6.7552

> <Gold.Chemscore.Metal.Weighted>
-0.0000

> <Gold.Chemscore.Lipo.Weighted>
-10.2773

> <Gold.Chemscore.Internal_Hbond.Weighted>
0.0000

> <Gold.Chemscore.DEClash.Weighted>
0.1068

> <Gold.Chemscore.DEInternal.Weighted>
1.1576

> <Gold.Chemscore.Rot.Weighted>
8.6045

> <Gold.Chemscore.Internal.Correction.Weighted>
   9.000000E+99

> <Gold.Protein.RotatedTorsions>
[ 6907 6896 6895 6894 ] final   18.26 input  -60.11 | X-H torsion
[ 7974 7965 7964 7962 ] final -118.45 input  175.53 | X-H torsion
[ 8008 7997 7996 7995 ] final   -6.83 input   59.86 | X-H torsion
[ 10167 10162 10161 10158 ] final   81.22 input  -65.29 | X-H torsion
[ 10718 10713 10712 10709 ] final  -79.71 input   66.30 | X-H torsion
[ 10763 10752 10751 10750 ] final  175.99 input  -60.55 | X-H torsion
[ 11005 11000 10999 10996 ] final  170.35 input  -57.11 | X-H torsion

> <Gold.Protein.ActiveResidues>
 VAL166  LYS551  ARG553  GLY616  TRP617  ASP618  TYR619  PRO620  LYS621  CYS622 
 ASP623  PHE694  ASN695  SER759  ASP760  ASP761  ALA762  ILE779  LEU786  VAL792 
 PHE793  MET794  SER795  GLU796  ALA797  LYS798  CYS799  TRP800  GLU811  SER814 

> <Gold.Protein.RotatedAtoms>
  151.8625  135.0519  160.0470 H   0  0  0  0  0  0  0  0  0  0  0  0  # atno 6907 bound_to 6896
  152.2652  133.5328  159.5414 H   0  0  0  0  0  0  0  0  0  0  0  0  # atno 6908 bound_to 6896
  150.7131  134.0691  159.3900 H   0  0  0  0  0  0  0  0  0  0  0  0  # atno 6909 bound_to 6896
  145.0737  140.8377  143.4080 H   0  0  0  0  0  0  0  0  0  0  0  0  # atno 7974 bound_to 7965
  154.5898  140.2422  155.7937 H   0  0  0  0  0  0  0  0  0  0  0  0  # atno 8008 bound_to 7997
  156.2239  140.2989  155.9973 H   0  0  0  0  0  0  0  0  0  0  0  0  # atno 8009 bound_to 7997
  155.2394  140.0406  157.2963 H   0  0  0  0  0  0  0  0  0  0  0  0  # atno 8010 bound_to 7997
  139.9415  144.6086  150.8247 H   0  0  0  0  0  0  0  0  0  0  0  0  # atno 10167 bound_to 10162
  156.0086  130.4553  150.3690 H   0  0  0  0  0  0  0  0  0  0  0  0  # atno 10718 bound_to 10713
  154.4750  135.2772  155.1614 H   0  0  0  0  0  0  0  0  0  0  0  0  # atno 10763 bound_to 10752
  154.3347  135.6183  153.5571 H   0  0  0  0  0  0  0  0  0  0  0  0  # atno 10764 bound_to 10752
  152.9868  135.5774  154.5139 H   0  0  0  0  0  0  0  0  0  0  0  0  # atno 10765 bound_to 10752
  140.3074  134.7545  157.3964 H   0  0  0  0  0  0  0  0  0  0  0  0  # atno 11005 bound_to 11000
  145.1262  139.2661  143.5563 LP  0  0  0  0  0  0  0  0  0  0  0  0  # atno 17320 bound_to 7965
  146.3529  140.0900  142.8613 LP  0  0  0  0  0  0  0  0  0  0  0  0  # atno 17321 bound_to 7965
  140.7609  143.3163  151.2726 LP  0  0  0  0  0  0  0  0  0  0  0  0  # atno 17342 bound_to 10162
  139.6701  144.0036  152.2747 LP  0  0  0  0  0  0  0  0  0  0  0  0  # atno 17343 bound_to 10162
  157.1776  131.0384  151.2765 LP  0  0  0  0  0  0  0  0  0  0  0  0  # atno 17370 bound_to 10713
  157.4174  130.7419  149.6886 LP  0  0  0  0  0  0  0  0  0  0  0  0  # atno 17371 bound_to 10713
  140.1055  134.5415  155.8313 LP  0  0  0  0  0  0  0  0  0  0  0  0  # atno 17394 bound_to 11000
  141.2115  133.6708  156.6590 LP  0  0  0  0  0  0  0  0  0  0  0  0  # atno 17395 bound_to 11000

$$$$
