AV-unprocessed.smi:1992|AV-procd|sdf|8069|dock1
  -GOLD-   2272010273D 1   1.00000     0.00000
 Structure written by MMmdl.
 46 47  0  0  0  0  0  0  0  0  2 V2000
  149.8937  141.5856  156.9248 C   0  0  0  0  0  0  0  0  0  0  0  0
  148.6092  141.6757  156.3181 O   0  0  0  0  0  0  0  0  0  0  0  0
  148.2020  140.6487  155.4914 C   0  0  0  0  0  0  0  0  0  0  0  0
  149.1679  139.7349  155.0255 C   0  0  0  0  0  0  0  0  0  0  0  0
  148.7574  138.6870  154.1804 C   0  0  0  0  0  0  0  0  0  0  0  0
  147.3959  138.5747  153.8342 C   0  0  0  0  0  0  0  0  0  0  0  0
  147.0138  137.5186  152.9641 N   0  0  0  0  0  0  0  0  0  0  0  0
  145.7786  137.0588  152.7018 C   0  0  0  0  0  0  0  0  0  0  0  0
  144.7398  137.4757  153.2123 O   0  0  0  0  0  0  0  0  0  0  0  0
  145.8161  136.0524  151.8174 N   0  0  0  0  0  0  0  0  0  0  0  0
  144.6549  135.3179  151.3155 C   0  0  0  0  0  0  0  0  0  0  0  0
  144.4186  133.9563  152.0434 C   0  0  0  0  0  0  0  0  0  0  0  0
  143.6322  134.1943  153.3073 N   0  3  0  0  0  0  0  0  0  0  0  0
  142.3021  134.8184  153.0889 C   0  0  0  0  0  0  0  0  0  0  0  0
  144.3488  134.8643  154.4219 C   0  0  0  0  0  0  0  0  0  0  0  0
  143.7581  132.9472  151.0681 C   0  0  0  0  0  0  0  0  0  0  0  0
  144.8833  132.4662  150.1460 C   0  0  0  0  0  0  0  0  0  0  0  0
  146.1749  132.6094  150.9629 C   0  0  0  0  0  0  0  0  0  0  0  0
  145.7713  133.2566  152.2962 C   0  0  0  0  0  0  0  0  0  0  0  0
  146.5039  139.5493  154.3450 C   0  0  0  0  0  0  0  0  0  0  0  0
  146.8921  140.5584  155.1535 N   0  0  0  0  0  0  0  0  0  0  0  0
  150.0624  142.4660  157.5448 H   0  0  0  0  0  0  0  0  0  0  0  0
  150.6868  141.5514  156.1763 H   0  0  0  0  0  0  0  0  0  0  0  0
  149.9703  140.7082  157.5688 H   0  0  0  0  0  0  0  0  0  0  0  0
  150.2049  139.8376  155.3091 H   0  0  0  0  0  0  0  0  0  0  0  0
  149.4816  137.9775  153.8075 H   0  0  0  0  0  0  0  0  0  0  0  0
  147.7772  137.0211  152.5296 H   0  0  0  0  0  0  0  0  0  0  0  0
  146.7161  135.7900  151.4428 H   0  0  0  0  0  0  0  0  0  0  0  0
  143.7663  135.9497  151.3456 H   0  0  0  0  0  0  0  0  0  0  0  0
  144.8271  135.1517  150.2526 H   0  0  0  0  0  0  0  0  0  0  0  0
  142.3969  135.8522  152.7557 H   0  0  0  0  0  0  0  0  0  0  0  0
  141.7266  134.8214  154.0151 H   0  0  0  0  0  0  0  0  0  0  0  0
  141.7084  134.2751  152.3556 H   0  0  0  0  0  0  0  0  0  0  0  0
  144.7689  135.8221  154.1140 H   0  0  0  0  0  0  0  0  0  0  0  0
  145.1466  134.2351  154.8157 H   0  0  0  0  0  0  0  0  0  0  0  0
  143.6739  135.0523  155.2576 H   0  0  0  0  0  0  0  0  0  0  0  0
  143.4004  132.0558  151.5805 H   0  0  0  0  0  0  0  0  0  0  0  0
  142.9098  133.3549  150.5199 H   0  0  0  0  0  0  0  0  0  0  0  0
  144.7210  131.4404  149.8136 H   0  0  0  0  0  0  0  0  0  0  0  0
  144.9338  133.0900  149.2526 H   0  0  0  0  0  0  0  0  0  0  0  0
  146.6606  131.6465  151.1250 H   0  0  0  0  0  0  0  0  0  0  0  0
  146.8832  133.2436  150.4285 H   0  0  0  0  0  0  0  0  0  0  0  0
  146.5412  133.9335  152.6682 H   0  0  0  0  0  0  0  0  0  0  0  0
  145.6562  132.4677  153.0403 H   0  0  0  0  0  0  0  0  0  0  0  0
  145.4545  139.5517  154.0950 H   0  0  0  0  0  0  0  0  0  0  0  0
  143.4359  133.2688  153.6605 H   0  0  0  0  0  0  0  0  0  0  0  0
  1  2  1  0  0  0  0
  1 22  1  0  0  0  0
  1 23  1  0  0  0  0
  1 24  1  0  0  0  0
  2  3  1  0  0  0  0
  3 21  1  0  0  0  0
  3  4  2  0  0  0  0
  4  5  1  0  0  0  0
  4 25  1  0  0  0  0
  5  6  2  0  0  0  0
  5 26  1  0  0  0  0
  6  7  1  0  0  0  0
  6 20  1  0  0  0  0
  7  8  1  0  0  0  0
  7 27  1  0  0  0  0
  8  9  2  0  0  0  0
  8 10  1  0  0  0  0
 10 11  1  0  0  0  0
 10 28  1  0  0  0  0
 11 12  1  0  0  0  0
 11 29  1  0  0  0  0
 11 30  1  0  0  0  0
 12 19  1  0  0  0  0
 12 13  1  0  0  0  0
 12 16  1  0  0  0  0
 13 14  1  0  0  0  0
 13 15  1  0  0  0  0
 13 46  1  0  0  0  0
 14 31  1  0  0  0  0
 14 32  1  0  0  0  0
 14 33  1  0  0  0  0
 15 34  1  0  0  0  0
 15 35  1  0  0  0  0
 15 36  1  0  0  0  0
 16 17  1  0  0  0  0
 16 37  1  0  0  0  0
 16 38  1  0  0  0  0
 17 18  1  0  0  0  0
 17 39  1  0  0  0  0
 17 40  1  0  0  0  0
 18 19  1  0  0  0  0
 18 41  1  0  0  0  0
 18 42  1  0  0  0  0
 19 43  1  0  0  0  0
 19 44  1  0  0  0  0
 20 21  2  0  0  0  0
 20 45  1  0  0  0  0
M  CHG  1  13   1
M  END
> <s_m_source_file>
AV-unprocessed.smi

> <i_m_source_file_index>
1992

> <i_lp_mmshare_version>
43012

> <i_f3d_flags>
0

> <s_epik_input>
W0NIM11PYzFbY0hdW2NIXWMoW2NIXW4xKVtOSF1DKD1PKVtOSF1bQ0gyXUMyKE4oW0NIM10pW0NIM10pW0NIMl1bQ0gyXVtDSDJdW0NIMl0y

> <s_epik_cmdline>
J2VwaWtfcHl0aG9uJywgJy1waCcsICc3LjAnLCAnLXRuJywgJzgnLCAnLW1hJywgJzIwMCcsICctbWV0YWxfYmluZGluZycsICctaW1hZScsICc8aW5maWxlLm1hZT4nLCAnLW9tYWUnLCAnPG91dGZpbGUubWFlPic=

> <r_lp_tautomer_probability>
1

> <r_epik_Ionization_Penalty>
0.00219675

> <r_epik_Ionization_Penalty_Charging>
0.00211816

> <r_epik_Ionization_Penalty_Neutral>
7.85887e-05

> <r_epik_State_Penalty>
0.00145254

> <r_epik_Charging_Adjusted_Penalty>
0.0035707

> <i_epik_Tot_Q>
1

> <i_epik_Tot_abs_Q>
1

> <r_epik_Metal_State_Penalty>
-0

> <b_epik_Metal_Only>
0

> <s_lp_Force_Field>
OPLS_2005

> <r_lp_Energy>
46.5796

> <b_lp_Chiralities_Consistent>
1

> <s_lp_Variant>
AV-unprocessed.smi:1992-1

> <Gold.Version>
5.8.1

> <Gold.Id.Protein>
6NUR|6NUR_protein|mol2

> <Gold.PLP.Fitness>
40.8049

> <Gold.PLP.PLP>
-29.5835

> <Gold.PLP.part.hbond>
-2.7349

> <Gold.PLP.part.metal>
0.0000

> <Gold.PLP.part.buried>
-7.6184

> <Gold.PLP.part.nonpolar>
-22.3236

> <Gold.PLP.part.repulsive>
1.1591

> <Gold.PLP.ligand.clash>
0.0192

> <Gold.PLP.ligand.torsion>
0.9191

> <Gold.PLP.Chemscore.Hbond>
3.2870

> <Gold.PLP.Chemscore.CHOScore>
1.0000

> <Gold.PLP.Chemscore.Metal>
0.0000

> <Gold.Chemscore.Hbonds>
donor molecule, donor type, donor heavy atom, donor atom, acceptor molecule, acceptor atom, score
      L1  H     7    27       P1  7948  1.00
      L1  H    10    28       P1  7948  0.29
      L1  H    13    46       P1 10957  2.00
      L1  C    20    45       P1 10175  0.89

> <Gold.PLP.Chemscore.Internal.Correction>
0.2176

> <Gold.Rescore>
     Score         DG    S(hbond)    S(metal)    S(lipo)     H(rot)  DE(clash)    DE(int)     intcor
     14.67     -17.86       2.76        0.00      64.53       1.71       0.07       3.12       ----

> <Gold.Chemscore.Fitness>
14.6738

> <Gold.Chemscore.DG>
-17.8553

> <Gold.Chemscore.ZeroCoef>
-5.4800

> <Gold.Chemscore.Hbond>
2.7570

> <Gold.Chemscore.Metal>
0.0000

> <Gold.Chemscore.Lipo>
64.5297

> <Gold.Chemscore.Internal_Hbond>
0.0000

> <Gold.Chemscore.DEClash>
0.0650

> <Gold.Chemscore.DEInternal>
3.1164

> <Gold.Chemscore.Rot>
1.7122

> <Gold.Chemscore.Internal.Correction>
   9.000000E+99

> <Gold.Chemscore.Hbonds>
donor molecule, donor type, donor heavy atom, donor atom, acceptor molecule, acceptor atom, score
      L1  H     7    27       P1  7948  0.96
      L1  H    10    28       P1  7948  0.30
      L1  H    13    46       P1 10957  0.92

> <Gold.Chemscore.Hbond.Weighted>
-9.2084

> <Gold.Chemscore.Metal.Weighted>
-0.0000

> <Gold.Chemscore.Lipo.Weighted>
-7.5500

> <Gold.Chemscore.Internal_Hbond.Weighted>
0.0000

> <Gold.Chemscore.DEClash.Weighted>
0.0650

> <Gold.Chemscore.DEInternal.Weighted>
3.1164

> <Gold.Chemscore.Rot.Weighted>
4.3831

> <Gold.Chemscore.Internal.Correction.Weighted>
   9.000000E+99

> <Gold.Protein.RotatedTorsions>
[ 6907 6896 6895 6894 ] final  -50.21 input  -60.11 | X-H torsion
[ 7974 7965 7964 7962 ] final  175.71 input  175.53 | X-H torsion
[ 8008 7997 7996 7995 ] final -179.11 input   59.86 | X-H torsion
[ 10167 10162 10161 10158 ] final   72.33 input  -65.29 | X-H torsion
[ 10718 10713 10712 10709 ] final  -95.75 input   66.30 | X-H torsion
[ 10763 10752 10751 10750 ] final   64.39 input  -60.55 | X-H torsion
[ 11005 11000 10999 10996 ] final -107.22 input  -57.11 | X-H torsion

> <Gold.Protein.ActiveResidues>
 VAL166  LYS551  ARG553  GLY616  TRP617  ASP618  TYR619  PRO620  LYS621  CYS622 
 ASP623  PHE694  ASN695  SER759  ASP760  ASP761  ALA762  ILE779  LEU786  VAL792 
 PHE793  MET794  SER795  GLU796  ALA797  LYS798  CYS799  TRP800  GLU811  SER814 

> <Gold.Protein.RotatedAtoms>
  150.8729  134.8107  159.7168 H   0  0  0  0  0  0  0  0  0  0  0  0  # atno 6907 bound_to 6896
  152.4727  134.4917  159.9707 H   0  0  0  0  0  0  0  0  0  0  0  0  # atno 6908 bound_to 6896
  151.5003  133.3467  159.2903 H   0  0  0  0  0  0  0  0  0  0  0  0  # atno 6909 bound_to 6896
  144.7197  139.9988  143.6440 H   0  0  0  0  0  0  0  0  0  0  0  0  # atno 7974 bound_to 7965
  156.0266  140.1273  157.0302 H   0  0  0  0  0  0  0  0  0  0  0  0  # atno 8008 bound_to 7997
  154.4333  140.1058  156.6110 H   0  0  0  0  0  0  0  0  0  0  0  0  # atno 8009 bound_to 7997
  155.5867  140.3469  155.4557 H   0  0  0  0  0  0  0  0  0  0  0  0  # atno 8010 bound_to 7997
  140.0364  144.5424  150.7467 H   0  0  0  0  0  0  0  0  0  0  0  0  # atno 10167 bound_to 10162
  156.0049  130.5122  150.6122 H   0  0  0  0  0  0  0  0  0  0  0  0  # atno 10718 bound_to 10713
  153.0054  135.5394  154.6503 H   0  0  0  0  0  0  0  0  0  0  0  0  # atno 10763 bound_to 10752
  154.5737  135.2844  155.0804 H   0  0  0  0  0  0  0  0  0  0  0  0  # atno 10764 bound_to 10752
  154.1960  135.6492  153.5126 H   0  0  0  0  0  0  0  0  0  0  0  0  # atno 10765 bound_to 10752
  141.0965  133.8962  157.1950 H   0  0  0  0  0  0  0  0  0  0  0  0  # atno 11005 bound_to 11000
  146.0352  139.3371  143.0731 LP  0  0  0  0  0  0  0  0  0  0  0  0  # atno 17320 bound_to 7965
  145.8403  140.9584  143.0803 LP  0  0  0  0  0  0  0  0  0  0  0  0  # atno 17321 bound_to 7965
  140.7279  143.2657  151.4054 LP  0  0  0  0  0  0  0  0  0  0  0  0  # atno 17342 bound_to 10162
  139.6042  144.1231  152.2231 LP  0  0  0  0  0  0  0  0  0  0  0  0  # atno 17343 bound_to 10162
  157.3953  131.0802  151.1357 LP  0  0  0  0  0  0  0  0  0  0  0  0  # atno 17370 bound_to 10713
  157.2036  130.6406  149.5748 LP  0  0  0  0  0  0  0  0  0  0  0  0  # atno 17371 bound_to 10713
  139.9803  135.0100  156.9733 LP  0  0  0  0  0  0  0  0  0  0  0  0  # atno 17394 bound_to 11000
  140.5128  134.0985  155.7274 LP  0  0  0  0  0  0  0  0  0  0  0  0  # atno 17395 bound_to 11000

$$$$
