AV-unprocessed.smi:1545|AV-procd|sdf|6216|dock6
  -GOLD-   22720 6383D 1   1.00000     0.00000
 Structure written by MMmdl.
 41 43  0  0  0  0  0  0  0  0  1 V2000
  151.7394  137.0385  159.3396 O   0  0  0  0  0  0  0  0  0  0  0  0
  152.7632  137.0885  158.3692 C   0  0  0  0  0  0  0  0  0  0  0  0
  153.5109  138.4272  158.4508 C   0  0  0  0  0  0  0  0  0  0  0  0
  152.6811  139.5427  158.0336 N   0  0  0  0  0  0  0  0  0  0  0  0
  152.4710  140.8046  158.5774 C   0  0  0  0  0  0  0  0  0  0  0  0
  153.0579  141.2449  159.6884 N   0  0  0  0  0  0  0  0  0  0  0  0
  152.5382  142.5198  159.8089 C   0  0  0  0  0  0  0  0  0  0  0  0
  152.7668  143.5147  160.7865 C   0  0  0  0  0  0  0  0  0  0  0  0
  152.1137  144.7617  160.7023 C   0  0  0  0  0  0  0  0  0  0  0  0
  151.2247  145.0322  159.6417 C   0  0  0  0  0  0  0  0  0  0  0  0
  150.9821  144.0559  158.6565 C   0  0  0  0  0  0  0  0  0  0  0  0
  151.6354  142.8119  158.7449 C   0  0  0  0  0  0  0  0  0  0  0  0
  151.6221  141.6611  157.9620 N   0  0  0  0  0  0  0  0  0  0  0  0
  150.8561  141.4429  156.7421 C   0  0  0  0  0  0  0  0  0  0  0  0
  149.3422  141.3251  157.0083 C   0  0  2  0  0  0  0  0  0  0  0  0
  149.0913  140.2675  157.9137 O   0  0  0  0  0  0  0  0  0  0  0  0
  148.5607  141.1728  155.7131 C   0  0  0  0  0  0  0  0  0  0  0  0
  148.7902  140.0567  154.8798 C   0  0  0  0  0  0  0  0  0  0  0  0
  148.0640  139.9027  153.6829 C   0  0  0  0  0  0  0  0  0  0  0  0
  147.1019  140.8621  153.3138 C   0  0  0  0  0  0  0  0  0  0  0  0
  146.8655  141.9756  154.1426 C   0  0  0  0  0  0  0  0  0  0  0  0
  145.9381  142.8969  153.7902 F   0  0  0  0  0  0  0  0  0  0  0  0
  147.5921  142.1307  155.3392 C   0  0  0  0  0  0  0  0  0  0  0  0
  150.9716  137.4640  158.9899 H   0  0  0  0  0  0  0  0  0  0  0  0
  153.4382  136.2385  158.4784 H   0  0  0  0  0  0  0  0  0  0  0  0
  152.2882  136.9969  157.3924 H   0  0  0  0  0  0  0  0  0  0  0  0
  153.7954  138.6154  159.4861 H   0  0  0  0  0  0  0  0  0  0  0  0
  154.4354  138.4018  157.8723 H   0  0  0  0  0  0  0  0  0  0  0  0
  152.1938  139.3773  157.1652 H   0  0  0  0  0  0  0  0  0  0  0  0
  153.4464  143.3171  161.6022 H   0  0  0  0  0  0  0  0  0  0  0  0
  152.2964  145.5140  161.4553 H   0  0  0  0  0  0  0  0  0  0  0  0
  150.7291  145.9902  159.5846 H   0  0  0  0  0  0  0  0  0  0  0  0
  150.3030  144.2620  157.8428 H   0  0  0  0  0  0  0  0  0  0  0  0
  151.0560  142.2677  156.0568 H   0  0  0  0  0  0  0  0  0  0  0  0
  151.2286  140.5445  156.2489 H   0  0  0  0  0  0  0  0  0  0  0  0
  148.9992  142.2359  157.5009 H   0  0  0  0  0  0  0  0  0  0  0  0
  148.4617  139.6808  157.5238 H   0  0  0  0  0  0  0  0  0  0  0  0
  149.5238  139.3133  155.1557 H   0  0  0  0  0  0  0  0  0  0  0  0
  148.2440  139.0475  153.0483 H   0  0  0  0  0  0  0  0  0  0  0  0
  146.5445  140.7428  152.3964 H   0  0  0  0  0  0  0  0  0  0  0  0
  147.4008  142.9865  155.9699 H   0  0  0  0  0  0  0  0  0  0  0  0
  1  2  1  0  0  0  0
  1 24  1  0  0  0  0
  2  3  1  0  0  0  0
  2 25  1  0  0  0  0
  2 26  1  0  0  0  0
  3  4  1  0  0  0  0
  3 27  1  0  0  0  0
  3 28  1  0  0  0  0
  4  5  1  0  0  0  0
  4 29  1  0  0  0  0
  5 13  1  0  0  0  0
  5  6  2  0  0  0  0
  6  7  1  0  0  0  0
  7 12  2  0  0  0  0
  7  8  1  0  0  0  0
  8  9  2  0  0  0  0
  8 30  1  0  0  0  0
  9 10  1  0  0  0  0
  9 31  1  0  0  0  0
 10 11  2  0  0  0  0
 10 32  1  0  0  0  0
 11 12  1  0  0  0  0
 11 33  1  0  0  0  0
 12 13  1  0  0  0  0
 13 14  1  0  0  0  0
 14 15  1  0  0  0  0
 14 34  1  0  0  0  0
 14 35  1  0  0  0  0
 15 16  1  0  0  0  0
 15 17  1  0  0  0  0
 15 36  1  0  0  0  0
 16 37  1  0  0  0  0
 17 23  1  0  0  0  0
 17 18  2  0  0  0  0
 18 19  1  0  0  0  0
 18 38  1  0  0  0  0
 19 20  2  0  0  0  0
 19 39  1  0  0  0  0
 20 21  1  0  0  0  0
 20 40  1  0  0  0  0
 21 22  1  0  0  0  0
 21 23  2  0  0  0  0
 23 41  1  0  0  0  0
M  END
> <s_m_source_file>
AV-unprocessed.smi

> <i_m_source_file_index>
1545

> <i_lp_mmshare_version>
43012

> <i_f3d_flags>
0

> <s_epik_input>
W09IXVtDSDJdW0NIMl1bTkhdYyhuMSluKGMoYzEyKVtjSF1bY0hdW2NIXVtjSF0yKVtDSDJdW0NASF0oW09IXSljM1tjSF1bY0hdW2NIXWMoRilbY0hdMw==

> <s_epik_cmdline>
J2VwaWtfcHl0aG9uJywgJy1waCcsICc3LjAnLCAnLXRuJywgJzgnLCAnLW1hJywgJzIwMCcsICctbWV0YWxfYmluZGluZycsICctaW1hZScsICc8aW5maWxlLm1hZT4nLCAnLW9tYWUnLCAnPG91dGZpbGUubWFlPic=

> <r_epik_Ionization_Penalty>
1.30972

> <r_epik_Ionization_Penalty_Charging>
0

> <r_epik_Ionization_Penalty_Neutral>
1.30972

> <r_epik_State_Penalty>
1.38438

> <r_epik_Charging_Adjusted_Penalty>
1.38438

> <i_epik_Tot_Q>
0

> <i_epik_Tot_abs_Q>
0

> <r_epik_Metal_State_Penalty>
0.00551145

> <b_epik_Metal_Only>
0

> <s_lp_Force_Field>
OPLS_2005

> <r_lp_Energy>
9.7293

> <b_lp_Chiralities_Consistent>
1

> <s_lp_Variant>
AV-unprocessed.smi:1545-3

> <Gold.Version>
5.8.1

> <Gold.Id.Protein>
6NUR|6NUR_protein|mol2

> <Gold.PLP.Fitness>
47.5394

> <Gold.PLP.PLP>
-44.9310

> <Gold.PLP.part.hbond>
-1.0000

> <Gold.PLP.part.metal>
0.0000

> <Gold.PLP.part.buried>
-4.3101

> <Gold.PLP.part.nonpolar>
-39.6457

> <Gold.PLP.part.repulsive>
0.0963

> <Gold.PLP.ligand.clash>
0.0000

> <Gold.PLP.ligand.torsion>
0.2168

> <Gold.PLP.Chemscore.Hbond>
1.0000

> <Gold.PLP.Chemscore.CHOScore>
0.0000

> <Gold.PLP.Chemscore.Metal>
0.0000

> <Gold.Chemscore.Hbonds>
donor molecule, donor type, donor heavy atom, donor atom, acceptor molecule, acceptor atom, score
      P1  H  6896  6908       L1     1  1.00

> <Gold.PLP.Chemscore.Internal.Correction>
0.0419

> <Gold.Rescore>
     Score         DG    S(hbond)    S(metal)    S(lipo)     H(rot)  DE(clash)    DE(int)     intcor
     14.23     -14.69       0.91        0.00     120.07       3.08       0.11       0.36       ----

> <Gold.Chemscore.Fitness>
14.2269

> <Gold.Chemscore.DG>
-14.6914

> <Gold.Chemscore.ZeroCoef>
-5.4800

> <Gold.Chemscore.Hbond>
0.9135

> <Gold.Chemscore.Metal>
0.0000

> <Gold.Chemscore.Lipo>
120.0707

> <Gold.Chemscore.Internal_Hbond>
0.0000

> <Gold.Chemscore.DEClash>
0.1055

> <Gold.Chemscore.DEInternal>
0.3590

> <Gold.Chemscore.Rot>
3.0812

> <Gold.Chemscore.Internal.Correction>
   9.000000E+99

> <Gold.Chemscore.Hbonds>
donor molecule, donor type, donor heavy atom, donor atom, acceptor molecule, acceptor atom, score
      P1  H  6896  6908       L1     1  0.66

> <Gold.Chemscore.Hbond.Weighted>
-3.0510

> <Gold.Chemscore.Metal.Weighted>
-0.0000

> <Gold.Chemscore.Lipo.Weighted>
-14.0483

> <Gold.Chemscore.Internal_Hbond.Weighted>
0.0000

> <Gold.Chemscore.DEClash.Weighted>
0.1055

> <Gold.Chemscore.DEInternal.Weighted>
0.3590

> <Gold.Chemscore.Rot.Weighted>
7.8878

> <Gold.Chemscore.Internal.Correction.Weighted>
   9.000000E+99

> <Gold.Protein.RotatedTorsions>
[ 6907 6896 6895 6894 ] final -129.38 input  -60.11 | X-H torsion
[ 7974 7965 7964 7962 ] final  126.63 input  175.53 | X-H torsion
[ 8008 7997 7996 7995 ] final  101.28 input   59.86 | X-H torsion
[ 10167 10162 10161 10158 ] final  -81.78 input  -65.29 | X-H torsion
[ 10718 10713 10712 10709 ] final  142.60 input   66.30 | X-H torsion
[ 10763 10752 10751 10750 ] final  -31.10 input  -60.55 | X-H torsion
[ 11005 11000 10999 10996 ] final  135.06 input  -57.11 | X-H torsion

> <Gold.Protein.ActiveResidues>
 VAL166  LYS551  ARG553  GLY616  TRP617  ASP618  TYR619  PRO620  LYS621  CYS622 
 ASP623  PHE694  ASN695  SER759  ASP760  ASP761  ALA762  ILE779  LEU786  VAL792 
 PHE793  MET794  SER795  GLU796  ALA797  LYS798  CYS799  TRP800  GLU811  SER814 

> <Gold.Protein.RotatedAtoms>
  150.9281  133.6800  159.2816 H   0  0  0  0  0  0  0  0  0  0  0  0  # atno 6907 bound_to 6896
  151.4231  135.0999  159.9629 H   0  0  0  0  0  0  0  0  0  0  0  0  # atno 6908 bound_to 6896
  152.5012  133.8728  159.7362 H   0  0  0  0  0  0  0  0  0  0  0  0  # atno 6909 bound_to 6896
  145.0596  139.3816  143.5012 H   0  0  0  0  0  0  0  0  0  0  0  0  # atno 7974 bound_to 7965
  156.1284  140.3200  155.8312 H   0  0  0  0  0  0  0  0  0  0  0  0  # atno 8008 bound_to 7997
  155.4377  140.0523  157.3030 H   0  0  0  0  0  0  0  0  0  0  0  0  # atno 8009 bound_to 7997
  154.4880  140.2080  155.9624 H   0  0  0  0  0  0  0  0  0  0  0  0  # atno 8010 bound_to 7997
  140.4381  143.2524  151.8665 H   0  0  0  0  0  0  0  0  0  0  0  0  # atno 10167 bound_to 10162
  157.3786  131.0989  151.0760 H   0  0  0  0  0  0  0  0  0  0  0  0  # atno 10718 bound_to 10713
  153.7918  135.6897  153.4870 H   0  0  0  0  0  0  0  0  0  0  0  0  # atno 10763 bound_to 10752
  153.1744  135.4530  154.9944 H   0  0  0  0  0  0  0  0  0  0  0  0  # atno 10764 bound_to 10752
  154.8041  135.3350  154.7413 H   0  0  0  0  0  0  0  0  0  0  0  0  # atno 10765 bound_to 10752
  139.9955  134.9499  156.9954 H   0  0  0  0  0  0  0  0  0  0  0  0  # atno 11005 bound_to 11000
  146.3523  140.0287  142.8652 LP  0  0  0  0  0  0  0  0  0  0  0  0  # atno 17320 bound_to 7965
  145.1425  140.9579  143.4480 LP  0  0  0  0  0  0  0  0  0  0  0  0  # atno 17321 bound_to 7965
  139.4788  144.5260  151.8734 LP  0  0  0  0  0  0  0  0  0  0  0  0  # atno 17342 bound_to 10162
  140.4351  144.2063  150.5889 LP  0  0  0  0  0  0  0  0  0  0  0  0  # atno 17343 bound_to 10162
  157.1837  130.6321  149.5680 LP  0  0  0  0  0  0  0  0  0  0  0  0  # atno 17370 bound_to 10713
  155.9771  130.4745  150.6570 LP  0  0  0  0  0  0  0  0  0  0  0  0  # atno 17371 bound_to 10713
  140.4826  134.1274  155.7219 LP  0  0  0  0  0  0  0  0  0  0  0  0  # atno 17394 bound_to 11000
  141.1601  133.8809  157.1872 LP  0  0  0  0  0  0  0  0  0  0  0  0  # atno 17395 bound_to 11000

$$$$
