AV-unprocessed.smi:2604|AV-procd|sdf|10189|dock2
  -GOLD-   2272014203D 1   1.00000     0.00000
 Structure written by MMmdl.
 26 27  0  0  0  0  0  0  0  0  2 V2000
  151.6040  137.9865  154.4703 C   0  0  0  0  0  0  0  0  0  0  0  0
  152.6182  138.3303  155.3856 C   0  0  0  0  0  0  0  0  0  0  0  0
  152.6114  139.4745  156.1028 N   0  0  0  0  0  0  0  0  0  0  0  0
  151.5802  140.3274  155.9241 C   0  0  0  0  0  0  0  0  0  0  0  0
  150.5153  140.0854  155.0290 C   0  0  0  0  0  0  0  0  0  0  0  0
  149.3822  141.0892  154.8918 C   0  0  2  0  0  0  0  0  0  0  0  0
  148.6550  141.2972  156.2399 C   0  0  0  0  0  0  0  0  0  0  0  0
  147.5850  142.3059  156.1009 N   0  3  0  0  0  0  0  0  0  0  0  0
  146.6450  141.9390  155.0236 C   0  0  0  0  0  0  0  0  0  0  0  0
  147.4117  141.7321  153.7048 C   0  0  0  0  0  0  0  0  0  0  0  0
  148.4121  140.6830  153.8746 N   0  0  0  0  0  0  0  0  0  0  0  0
  150.5318  138.8813  154.2906 C   0  0  0  0  0  0  0  0  0  0  0  0
  151.6483  137.0582  153.9200 H   0  0  0  0  0  0  0  0  0  0  0  0
  153.4557  137.6680  155.5474 H   0  0  0  0  0  0  0  0  0  0  0  0
  151.6067  141.2307  156.5157 H   0  0  0  0  0  0  0  0  0  0  0  0
  149.8218  142.0364  154.5741 H   0  0  0  0  0  0  0  0  0  0  0  0
  148.2232  140.3614  156.5982 H   0  0  0  0  0  0  0  0  0  0  0  0
  149.3569  141.6376  157.0018 H   0  0  0  0  0  0  0  0  0  0  0  0
  147.0833  142.3875  156.9737 H   0  0  0  0  0  0  0  0  0  0  0  0
  146.1063  141.0317  155.3015 H   0  0  0  0  0  0  0  0  0  0  0  0
  145.9037  142.7306  154.9123 H   0  0  0  0  0  0  0  0  0  0  0  0
  146.7223  141.4373  152.9135 H   0  0  0  0  0  0  0  0  0  0  0  0
  147.8917  142.6575  153.3829 H   0  0  0  0  0  0  0  0  0  0  0  0
  148.8884  140.5217  152.9977 H   0  0  0  0  0  0  0  0  0  0  0  0
  149.7371  138.6435  153.5986 H   0  0  0  0  0  0  0  0  0  0  0  0
  148.0055  143.1957  155.8747 H   0  0  0  0  0  0  0  0  0  0  0  0
  1 12  1  0  0  0  0
  1  2  2  0  0  0  0
  1 13  1  0  0  0  0
  2  3  1  0  0  0  0
  2 14  1  0  0  0  0
  3  4  2  0  0  0  0
  4  5  1  0  0  0  0
  4 15  1  0  0  0  0
  5  6  1  0  0  0  0
  5 12  2  0  0  0  0
  6 11  1  0  0  0  0
  6  7  1  0  0  0  0
  6 16  1  0  0  0  0
  7  8  1  0  0  0  0
  7 17  1  0  0  0  0
  7 18  1  0  0  0  0
  8  9  1  0  0  0  0
  8 19  1  0  0  0  0
  8 26  1  0  0  0  0
  9 10  1  0  0  0  0
  9 20  1  0  0  0  0
  9 21  1  0  0  0  0
 10 11  1  0  0  0  0
 10 22  1  0  0  0  0
 10 23  1  0  0  0  0
 11 24  1  0  0  0  0
 12 25  1  0  0  0  0
M  CHG  1   8   1
M  END
> <s_m_source_file>
AV-unprocessed.smi

> <i_m_source_file_index>
2604

> <i_lp_mmshare_version>
43012

> <i_f3d_flags>
0

> <s_epik_input>
W2NIXTFbY0hdW2NIXW5bY0hdYzFbQ0BASF0yW0NIMl1bTkhdW0NIMl1bQ0gyXVtOSF0y

> <s_epik_cmdline>
J2VwaWtfcHl0aG9uJywgJy1waCcsICc3LjAnLCAnLXRuJywgJzgnLCAnLW1hJywgJzIwMCcsICctbWV0YWxfYmluZGluZycsICctaW1hZScsICc8aW5maWxlLm1hZT4nLCAnLW9tYWUnLCAnPG91dGZpbGUubWFlPic=

> <r_epik_Ionization_Penalty>
0.0181456

> <r_epik_Ionization_Penalty_Charging>
0.010317

> <r_epik_Ionization_Penalty_Neutral>
0.00782861

> <r_epik_State_Penalty>
0.306622

> <r_epik_Charging_Adjusted_Penalty>
0.316939

> <i_epik_Tot_Q>
1

> <i_epik_Tot_abs_Q>
1

> <r_epik_Metal_State_Penalty>
0.302658

> <b_epik_Metal_Only>
0

> <s_lp_Force_Field>
OPLS_2005

> <r_lp_Energy>
10.6943

> <b_lp_Chiralities_Consistent>
1

> <s_lp_Variant>
AV-unprocessed.smi:2604-1

> <Gold.Version>
5.8.1

> <Gold.Id.Protein>
6NUR|6NUR_protein|mol2

> <Gold.PLP.Fitness>
38.9754

> <Gold.PLP.PLP>
-26.9863

> <Gold.PLP.part.hbond>
-3.0000

> <Gold.PLP.part.metal>
0.0000

> <Gold.PLP.part.buried>
-3.1252

> <Gold.PLP.part.nonpolar>
-21.5762

> <Gold.PLP.part.repulsive>
0.0290

> <Gold.PLP.ligand.clash>
0.0000

> <Gold.PLP.ligand.torsion>
0.0095

> <Gold.PLP.Chemscore.Hbond>
4.0000

> <Gold.PLP.Chemscore.CHOScore>
0.0000

> <Gold.PLP.Chemscore.Metal>
0.0000

> <Gold.Chemscore.Hbonds>
donor molecule, donor type, donor heavy atom, donor atom, acceptor molecule, acceptor atom, score
      L1  H     8    26       P1  8028  2.00
      L1  H    11    24       P1  7957  1.00
      P1  H  7997  8009       L1     3  1.00

> <Gold.PLP.Chemscore.Internal.Correction>
0.0081

> <Gold.Rescore>
     Score         DG    S(hbond)    S(metal)    S(lipo)     H(rot)  DE(clash)    DE(int)     intcor
     19.72     -19.90       2.86        0.00      63.45       1.00       0.16       0.03       ----

> <Gold.Chemscore.Fitness>
19.7190

> <Gold.Chemscore.DG>
-19.9040

> <Gold.Chemscore.ZeroCoef>
-5.4800

> <Gold.Chemscore.Hbond>
2.8625

> <Gold.Chemscore.Metal>
0.0000

> <Gold.Chemscore.Lipo>
63.4451

> <Gold.Chemscore.Internal_Hbond>
0.0000

> <Gold.Chemscore.DEClash>
0.1584

> <Gold.Chemscore.DEInternal>
0.0265

> <Gold.Chemscore.Rot>
1.0000

> <Gold.Chemscore.Internal.Correction>
   9.000000E+99

> <Gold.Chemscore.Hbonds>
donor molecule, donor type, donor heavy atom, donor atom, acceptor molecule, acceptor atom, score
      L1  H     8    26       P1  8028  0.55
      L1  H    11    24       P1  7957  0.93
      P1  H  7997  8009       L1     3  0.81

> <Gold.Chemscore.Hbond.Weighted>
-9.5609

> <Gold.Chemscore.Metal.Weighted>
-0.0000

> <Gold.Chemscore.Lipo.Weighted>
-7.4231

> <Gold.Chemscore.Internal_Hbond.Weighted>
0.0000

> <Gold.Chemscore.DEClash.Weighted>
0.1584

> <Gold.Chemscore.DEInternal.Weighted>
0.0265

> <Gold.Chemscore.Rot.Weighted>
2.5600

> <Gold.Chemscore.Internal.Correction.Weighted>
   9.000000E+99

> <Gold.Protein.RotatedTorsions>
[ 6907 6896 6895 6894 ] final -175.55 input  -60.11 | X-H torsion
[ 7974 7965 7964 7962 ] final  -26.57 input  175.53 | X-H torsion
[ 8008 7997 7996 7995 ] final -166.36 input   59.86 | X-H torsion
[ 10167 10162 10161 10158 ] final   99.33 input  -65.29 | X-H torsion
[ 10718 10713 10712 10709 ] final -101.97 input   66.30 | X-H torsion
[ 10763 10752 10751 10750 ] final   71.05 input  -60.55 | X-H torsion
[ 11005 11000 10999 10996 ] final -175.13 input  -57.11 | X-H torsion

> <Gold.Protein.ActiveResidues>
 VAL166  LYS551  ARG553  GLY616  TRP617  ASP618  TYR619  PRO620  LYS621  CYS622 
 ASP623  PHE694  ASN695  SER759  ASP760  ASP761  ALA762  ILE779  LEU786  VAL792 
 PHE793  MET794  SER795  GLU796  ALA797  LYS798  CYS799  TRP800  GLU811  SER814 

> <Gold.Protein.RotatedAtoms>
  151.5904  133.3367  159.3026 H   0  0  0  0  0  0  0  0  0  0  0  0  # atno 6907 bound_to 6896
  150.8263  134.7499  159.6827 H   0  0  0  0  0  0  0  0  0  0  0  0  # atno 6908 bound_to 6896
  152.4352  134.5706  159.9971 H   0  0  0  0  0  0  0  0  0  0  0  0  # atno 6909 bound_to 6896
  146.1416  140.5038  142.8649 H   0  0  0  0  0  0  0  0  0  0  0  0  # atno 7974 bound_to 7965
  155.8627  140.0981  157.1602 H   0  0  0  0  0  0  0  0  0  0  0  0  # atno 8008 bound_to 7997
  154.3991  140.1362  156.4043 H   0  0  0  0  0  0  0  0  0  0  0  0  # atno 8009 bound_to 7997
  155.7838  140.3457  155.5314 H   0  0  0  0  0  0  0  0  0  0  0  0  # atno 8010 bound_to 7997
  139.7627  144.6949  151.0269 H   0  0  0  0  0  0  0  0  0  0  0  0  # atno 10167 bound_to 10162
  156.0212  130.5398  150.7040 H   0  0  0  0  0  0  0  0  0  0  0  0  # atno 10718 bound_to 10713
  153.0376  135.5151  154.7534 H   0  0  0  0  0  0  0  0  0  0  0  0  # atno 10763 bound_to 10752
  154.6497  135.2923  155.0004 H   0  0  0  0  0  0  0  0  0  0  0  0  # atno 10764 bound_to 10752
  154.0892  135.6652  153.4902 H   0  0  0  0  0  0  0  0  0  0  0  0  # atno 10765 bound_to 10752
  140.4667  134.6204  157.4865 H   0  0  0  0  0  0  0  0  0  0  0  0  # atno 11005 bound_to 11000
  144.7799  140.5818  143.6612 LP  0  0  0  0  0  0  0  0  0  0  0  0  # atno 17320 bound_to 7965
  145.5033  139.1482  143.3645 LP  0  0  0  0  0  0  0  0  0  0  0  0  # atno 17321 bound_to 7965
  140.7808  143.4678  151.0187 LP  0  0  0  0  0  0  0  0  0  0  0  0  # atno 17342 bound_to 10162
  139.8364  143.7622  152.3180 LP  0  0  0  0  0  0  0  0  0  0  0  0  # atno 17343 bound_to 10162
  157.4694  131.0891  151.0659 LP  0  0  0  0  0  0  0  0  0  0  0  0  # atno 17370 bound_to 10713
  157.1124  130.6027  149.5485 LP  0  0  0  0  0  0  0  0  0  0  0  0  # atno 17371 bound_to 10713
  139.9911  134.6984  155.9689 LP  0  0  0  0  0  0  0  0  0  0  0  0  # atno 17394 bound_to 11000
  141.1596  133.6540  156.4274 LP  0  0  0  0  0  0  0  0  0  0  0  0  # atno 17395 bound_to 11000

$$$$
