AV-unprocessed.smi:576|AV-procd|sdf|2979|dock7
  -GOLD-   2262023493D 1   1.00000     0.00000
 Structure written by MMmdl.
 35 36  0  0  0  0  0  0  0  0  1 V2000
  152.5472  136.2646  157.2872 C   0  0  0  0  0  0  0  0  0  0  0  0
  152.2507  137.7556  157.0741 C   0  0  1  0  0  0  0  0  0  0  0  0
  153.1800  138.5367  157.8837 N   0  0  0  0  0  0  0  0  0  0  0  0
  152.8346  139.4771  158.7763 C   0  0  0  0  0  0  0  0  0  0  0  0
  151.6658  139.7677  159.0351 O   0  0  0  0  0  0  0  0  0  0  0  0
  153.9944  140.1792  159.4962 C   0  0  0  0  0  0  0  0  0  0  0  0
  153.5636  141.3460  160.2847 N   0  0  0  0  0  0  0  0  0  0  0  0
  152.8592  142.3583  159.6035 C   0  0  0  0  0  0  0  0  0  0  0  0
  152.4273  143.4831  160.2056 C   0  0  0  0  0  0  0  0  0  0  0  0
  151.6258  144.5343  159.4536 C   0  0  0  0  0  0  0  0  0  0  0  0
  152.2417  144.8945  158.3273 F   0  0  0  0  0  0  0  0  0  0  0  0
  150.4274  144.0477  159.1345 F   0  0  0  0  0  0  0  0  0  0  0  0
  151.4455  145.6250  160.1992 F   0  0  0  0  0  0  0  0  0  0  0  0
  152.6928  143.5973  161.6264 C   0  0  0  0  0  0  0  0  0  0  0  0
  153.3597  142.6355  162.2944 C   0  0  0  0  0  0  0  0  0  0  0  0
  153.8454  141.4295  161.6197 C   0  0  0  0  0  0  0  0  0  0  0  0
  154.4650  140.5489  162.2172 O   0  0  0  0  0  0  0  0  0  0  0  0
  152.2932  138.1102  155.5969 C   0  0  0  0  0  0  0  0  0  0  0  0
  151.2194  138.9599  154.9585 C   0  0  0  0  0  0  0  0  0  0  0  0
  151.3214  137.4901  154.6210 C   0  0  0  0  0  0  0  0  0  0  0  0
  151.8391  135.6415  156.7402 H   0  0  0  0  0  0  0  0  0  0  0  0
  152.4741  135.9943  158.3413 H   0  0  0  0  0  0  0  0  0  0  0  0
  153.5499  136.0060  156.9447 H   0  0  0  0  0  0  0  0  0  0  0  0
  151.2371  137.9387  157.4364 H   0  0  0  0  0  0  0  0  0  0  0  0
  154.1640  138.3595  157.7419 H   0  0  0  0  0  0  0  0  0  0  0  0
  154.4908  139.4457  160.1327 H   0  0  0  0  0  0  0  0  0  0  0  0
  154.7489  140.4803  158.7667 H   0  0  0  0  0  0  0  0  0  0  0  0
  152.6963  142.1642  158.5533 H   0  0  0  0  0  0  0  0  0  0  0  0
  152.3559  144.4710  162.1644 H   0  0  0  0  0  0  0  0  0  0  0  0
  153.5423  142.7550  163.3522 H   0  0  0  0  0  0  0  0  0  0  0  0
  153.3025  138.2595  155.2167 H   0  0  0  0  0  0  0  0  0  0  0  0
  150.3813  139.2733  155.5777 H   0  0  0  0  0  0  0  0  0  0  0  0
  151.5319  139.6753  154.2004 H   0  0  0  0  0  0  0  0  0  0  0  0
  151.7002  137.2242  153.6362 H   0  0  0  0  0  0  0  0  0  0  0  0
  150.5528  136.8306  155.0194 H   0  0  0  0  0  0  0  0  0  0  0  0
  1  2  1  0  0  0  0
  1 21  1  0  0  0  0
  1 22  1  0  0  0  0
  1 23  1  0  0  0  0
  2  3  1  0  0  0  0
  2 18  1  0  0  0  0
  2 24  1  0  0  0  0
  3  4  1  0  0  0  0
  3 25  1  0  0  0  0
  4  5  2  0  0  0  0
  4  6  1  0  0  0  0
  6  7  1  0  0  0  0
  6 26  1  0  0  0  0
  6 27  1  0  0  0  0
  7 16  1  0  0  0  0
  7  8  1  0  0  0  0
  8  9  2  0  0  0  0
  8 28  1  0  0  0  0
  9 10  1  0  0  0  0
  9 14  1  0  0  0  0
 10 11  1  0  0  0  0
 10 12  1  0  0  0  0
 10 13  1  0  0  0  0
 14 15  2  0  0  0  0
 14 29  1  0  0  0  0
 15 16  1  0  0  0  0
 15 30  1  0  0  0  0
 16 17  2  0  0  0  0
 18 20  1  0  0  0  0
 18 19  1  0  0  0  0
 18 31  1  0  0  0  0
 19 20  1  0  0  0  0
 19 32  1  0  0  0  0
 19 33  1  0  0  0  0
 20 34  1  0  0  0  0
 20 35  1  0  0  0  0
M  END
> <s_m_source_file>
AV-unprocessed.smi

> <i_m_source_file_index>
576

> <i_lp_mmshare_version>
43012

> <i_f3d_flags>
0

> <s_epik_input>
W0NIMl0xW0NIMl1bQ0hdMVtDQEhdKFtDSDNdKVtOSF1DKD1PKVtDSDJdbjJbY0hdYyhDKEYpKEYpRilbY0hdW2NIXWMyPU8=

> <s_epik_cmdline>
J2VwaWtfcHl0aG9uJywgJy1waCcsICc3LjAnLCAnLXRuJywgJzgnLCAnLW1hJywgJzIwMCcsICctbWV0YWxfYmluZGluZycsICctaW1hZScsICc8aW5maWxlLm1hZT4nLCAnLW9tYWUnLCAnPG91dGZpbGUubWFlPic=

> <r_lp_tautomer_probability>
1

> <r_epik_Ionization_Penalty>
3.84201e-08

> <r_epik_Ionization_Penalty_Charging>
1.91184e-08

> <r_epik_Ionization_Penalty_Neutral>
1.93017e-08

> <r_epik_State_Penalty>
-0

> <r_epik_Charging_Adjusted_Penalty>
1.91184e-08

> <i_epik_Tot_Q>
0

> <i_epik_Tot_abs_Q>
0

> <r_epik_Metal_State_Penalty>
-0

> <b_epik_Metal_Only>
0

> <s_lp_Force_Field>
OPLS_2005

> <r_lp_Energy>
24.3329

> <b_lp_Chiralities_Consistent>
1

> <s_lp_Variant>
AV-unprocessed.smi:576-2

> <Gold.Version>
5.8.1

> <Gold.Id.Protein>
6NUR|6NUR_protein|mol2

> <Gold.PLP.Fitness>
50.3100

> <Gold.PLP.PLP>
-51.3623

> <Gold.PLP.part.hbond>
0.0000

> <Gold.PLP.part.metal>
0.0000

> <Gold.PLP.part.buried>
-4.9175

> <Gold.PLP.part.nonpolar>
-46.4773

> <Gold.PLP.part.repulsive>
0.2625

> <Gold.PLP.ligand.clash>
0.0000

> <Gold.PLP.ligand.torsion>
1.0880

> <Gold.PLP.Chemscore.Hbond>
0.0000

> <Gold.PLP.Chemscore.CHOScore>
0.0000

> <Gold.PLP.Chemscore.Metal>
0.0000

> <Gold.PLP.Chemscore.Internal.Correction>
1.1237

> <Gold.Rescore>
     Score         DG    S(hbond)    S(metal)    S(lipo)     H(rot)  DE(clash)    DE(int)     intcor
     10.04     -12.47       0.00        0.00      98.34       1.77       0.24       2.19       ----

> <Gold.Chemscore.Fitness>
10.0408

> <Gold.Chemscore.DG>
-12.4671

> <Gold.Chemscore.ZeroCoef>
-5.4800

> <Gold.Chemscore.Hbond>
0.0000

> <Gold.Chemscore.Metal>
0.0000

> <Gold.Chemscore.Lipo>
98.3440

> <Gold.Chemscore.Internal_Hbond>
0.0000

> <Gold.Chemscore.DEClash>
0.2355

> <Gold.Chemscore.DEInternal>
2.1909

> <Gold.Chemscore.Rot>
1.7653

> <Gold.Chemscore.Internal.Correction>
   9.000000E+99

> <Gold.Chemscore.Hbond.Weighted>
-0.0000

> <Gold.Chemscore.Metal.Weighted>
-0.0000

> <Gold.Chemscore.Lipo.Weighted>
-11.5062

> <Gold.Chemscore.Internal_Hbond.Weighted>
0.0000

> <Gold.Chemscore.DEClash.Weighted>
0.2355

> <Gold.Chemscore.DEInternal.Weighted>
2.1909

> <Gold.Chemscore.Rot.Weighted>
4.5191

> <Gold.Chemscore.Internal.Correction.Weighted>
   9.000000E+99

> <Gold.Protein.RotatedTorsions>
[ 6907 6896 6895 6894 ] final  176.72 input  -60.11 | X-H torsion
[ 7974 7965 7964 7962 ] final   78.17 input  175.53 | X-H torsion
[ 8008 7997 7996 7995 ] final  142.95 input   59.86 | X-H torsion
[ 10167 10162 10161 10158 ] final   43.40 input  -65.29 | X-H torsion
[ 10718 10713 10712 10709 ] final  -97.35 input   66.30 | X-H torsion
[ 10763 10752 10751 10750 ] final  -31.09 input  -60.55 | X-H torsion
[ 11005 11000 10999 10996 ] final   10.34 input  -57.11 | X-H torsion

> <Gold.Protein.ActiveResidues>
 VAL166  LYS551  ARG553  GLY616  TRP617  ASP618  TYR619  PRO620  LYS621  CYS622 
 ASP623  PHE694  ASN695  SER759  ASP760  ASP761  ALA762  ILE779  LEU786  VAL792 
 PHE793  MET794  SER795  GLU796  ALA797  LYS798  CYS799  TRP800  GLU811  SER814 

> <Gold.Protein.RotatedAtoms>
  151.7156  133.3313  159.3301 H   0  0  0  0  0  0  0  0  0  0  0  0  # atno 6907 bound_to 6896
  150.7675  134.6494  159.6289 H   0  0  0  0  0  0  0  0  0  0  0  0  # atno 6908 bound_to 6896
  152.3684  134.6772  160.0236 H   0  0  0  0  0  0  0  0  0  0  0  0  # atno 6909 bound_to 6896
  145.6806  139.2523  143.1816 H   0  0  0  0  0  0  0  0  0  0  0  0  # atno 7974 bound_to 7965
  156.2940  140.2275  156.4811 H   0  0  0  0  0  0  0  0  0  0  0  0  # atno 8008 bound_to 7997
  154.7852  140.0457  157.1179 H   0  0  0  0  0  0  0  0  0  0  0  0  # atno 8009 bound_to 7997
  154.9711  140.3066  155.4991 H   0  0  0  0  0  0  0  0  0  0  0  0  # atno 8010 bound_to 7997
  140.3447  144.2426  150.6152 H   0  0  0  0  0  0  0  0  0  0  0  0  # atno 10167 bound_to 10162
  156.0082  130.5190  150.6362 H   0  0  0  0  0  0  0  0  0  0  0  0  # atno 10718 bound_to 10713
  153.7916  135.6897  153.4870 H   0  0  0  0  0  0  0  0  0  0  0  0  # atno 10763 bound_to 10752
  153.1746  135.4529  154.9946 H   0  0  0  0  0  0  0  0  0  0  0  0  # atno 10764 bound_to 10752
  154.8042  135.3350  154.7412 H   0  0  0  0  0  0  0  0  0  0  0  0  # atno 10765 bound_to 10752
  140.5156  134.0609  155.7830 H   0  0  0  0  0  0  0  0  0  0  0  0  # atno 11005 bound_to 11000
  146.0967  140.7592  142.9569 LP  0  0  0  0  0  0  0  0  0  0  0  0  # atno 17320 bound_to 7965
  144.7027  140.3723  143.7143 LP  0  0  0  0  0  0  0  0  0  0  0  0  # atno 17321 bound_to 7965
  140.5276  143.2251  151.8291 LP  0  0  0  0  0  0  0  0  0  0  0  0  # atno 17342 bound_to 10162
  139.4835  144.4761  151.9365 LP  0  0  0  0  0  0  0  0  0  0  0  0  # atno 17343 bound_to 10162
  157.4150  131.0829  151.1185 LP  0  0  0  0  0  0  0  0  0  0  0  0  # atno 17370 bound_to 10713
  157.1804  130.6307  149.5670 LP  0  0  0  0  0  0  0  0  0  0  0  0  # atno 17371 bound_to 10713
  141.1362  133.9217  157.2428 LP  0  0  0  0  0  0  0  0  0  0  0  0  # atno 17394 bound_to 11000
  139.9634  135.0148  156.9323 LP  0  0  0  0  0  0  0  0  0  0  0  0  # atno 17395 bound_to 11000

$$$$
