AV-unprocessed.smi:3116|AV-procd|sdf|11876|dock2
  -GOLD-   2272017263D 1   1.00000     0.00000
 Structure written by MMmdl.
 33 33  0  0  0  0  0  0  0  0  1 V2000
  148.3829  141.1330  156.9788 C   0  0  0  0  0  0  0  0  0  0  0  0
  149.6672  140.8860  156.1720 C   0  0  2  0  0  0  0  0  0  0  0  0
  150.7161  141.8236  156.6126 N   0  0  0  0  0  0  0  0  0  0  0  0
  151.0572  141.7698  158.0340 C   0  0  1  0  0  0  0  0  0  0  0  0
  151.6136  140.3639  158.3375 C   0  0  0  0  0  0  0  0  0  0  0  0
  152.0667  142.9082  158.3391 C   0  0  1  0  0  0  0  0  0  0  0  0
  151.5598  144.2898  157.8850 C   0  0  0  0  0  0  0  0  0  0  0  0
  152.4147  142.9577  159.7537 N   0  0  0  0  0  0  0  0  0  0  0  0
  153.0556  142.0029  160.5184 C   0  0  0  0  0  0  0  0  0  0  0  0
  153.1581  142.4965  161.7871 C   0  0  0  0  0  0  0  0  0  0  0  0
  152.5416  143.7757  161.7017 C   0  0  0  0  0  0  0  0  0  0  0  0
  152.0970  144.0480  160.4858 N   0  0  0  0  0  0  0  0  0  0  0  0
  149.3798  140.9575  154.6630 C   0  0  0  0  0  0  0  0  0  0  0  0
  149.6190  139.8589  153.9427 N   0  0  0  0  0  0  0  0  0  0  0  0
  148.9651  141.9963  154.1522 O   0  0  0  0  0  0  0  0  0  0  0  0
  147.5911  140.4424  156.6861 H   0  0  0  0  0  0  0  0  0  0  0  0
  148.0080  142.1481  156.8396 H   0  0  0  0  0  0  0  0  0  0  0  0
  148.5600  140.9907  158.0453 H   0  0  0  0  0  0  0  0  0  0  0  0
  150.0063  139.8752  156.4069 H   0  0  0  0  0  0  0  0  0  0  0  0
  151.5508  141.7538  156.0477 H   0  0  0  0  0  0  0  0  0  0  0  0
  150.1720  141.9335  158.6504 H   0  0  0  0  0  0  0  0  0  0  0  0
  151.8165  140.2323  159.4002 H   0  0  0  0  0  0  0  0  0  0  0  0
  152.5441  140.1820  157.7986 H   0  0  0  0  0  0  0  0  0  0  0  0
  150.9100  139.5816  158.0538 H   0  0  0  0  0  0  0  0  0  0  0  0
  152.9864  142.6997  157.7880 H   0  0  0  0  0  0  0  0  0  0  0  0
  151.3931  144.3208  156.8083 H   0  0  0  0  0  0  0  0  0  0  0  0
  152.2855  145.0685  158.1222 H   0  0  0  0  0  0  0  0  0  0  0  0
  150.6203  144.5509  158.3727 H   0  0  0  0  0  0  0  0  0  0  0  0
  153.3832  141.0630  160.0992 H   0  0  0  0  0  0  0  0  0  0  0  0
  153.6044  142.0169  162.6454 H   0  0  0  0  0  0  0  0  0  0  0  0
  152.4039  144.5099  162.4817 H   0  0  0  0  0  0  0  0  0  0  0  0
  149.4465  139.8607  152.9480 H   0  0  0  0  0  0  0  0  0  0  0  0
  149.9738  139.0297  154.3966 H   0  0  0  0  0  0  0  0  0  0  0  0
  1  2  1  0  0  0  0
  1 16  1  0  0  0  0
  1 17  1  0  0  0  0
  1 18  1  0  0  0  0
  2  3  1  0  0  0  0
  2 13  1  0  0  0  0
  2 19  1  0  0  0  0
  3  4  1  0  0  0  0
  3 20  1  0  0  0  0
  4  5  1  0  0  0  0
  4  6  1  0  0  0  0
  4 21  1  0  0  0  0
  5 22  1  0  0  0  0
  5 23  1  0  0  0  0
  5 24  1  0  0  0  0
  6  7  1  0  0  0  0
  6  8  1  0  0  0  0
  6 25  1  0  0  0  0
  7 26  1  0  0  0  0
  7 27  1  0  0  0  0
  7 28  1  0  0  0  0
  8 12  1  0  0  0  0
  8  9  1  0  0  0  0
  9 10  2  0  0  0  0
  9 29  1  0  0  0  0
 10 11  1  0  0  0  0
 10 30  1  0  0  0  0
 11 12  2  0  0  0  0
 11 31  1  0  0  0  0
 13 14  1  0  0  0  0
 13 15  2  0  0  0  0
 14 32  1  0  0  0  0
 14 33  1  0  0  0  0
M  END
> <s_m_source_file>
AV-unprocessed.smi

> <i_m_source_file_index>
3116

> <i_lp_mmshare_version>
43012

> <i_f3d_flags>
0

> <s_epik_input>
W05IMl1DKD1PKVtDQEhdKFtDSDNdKVtOSF1bQ0BIXShbQ0gzXSlbQ0BIXShbQ0gzXSluMVtjSF1bY0hdW2NIXW4x

> <s_epik_cmdline>
J2VwaWtfcHl0aG9uJywgJy1waCcsICc3LjAnLCAnLXRuJywgJzgnLCAnLW1hJywgJzIwMCcsICctbWV0YWxfYmluZGluZycsICctaW1hZScsICc8aW5maWxlLm1hZT4nLCAnLW9tYWUnLCAnPG91dGZpbGUubWFlPic=

> <r_lp_tautomer_probability>
1

> <r_epik_Ionization_Penalty>
0.865977

> <r_epik_Ionization_Penalty_Charging>
0

> <r_epik_Ionization_Penalty_Neutral>
0.865977

> <r_epik_State_Penalty>
0.901888

> <r_epik_Charging_Adjusted_Penalty>
0.901888

> <i_epik_Tot_Q>
0

> <i_epik_Tot_abs_Q>
0

> <r_epik_Metal_State_Penalty>
0.901181

> <b_epik_Metal_Only>
0

> <s_lp_Force_Field>
OPLS_2005

> <r_lp_Energy>
9.22902

> <b_lp_Chiralities_Consistent>
1

> <s_lp_Variant>
AV-unprocessed.smi:3116-15

> <Gold.Version>
5.8.1

> <Gold.Id.Protein>
6NUR|6NUR_protein|mol2

> <Gold.PLP.Fitness>
41.1085

> <Gold.PLP.PLP>
-36.8245

> <Gold.PLP.part.hbond>
-2.5086

> <Gold.PLP.part.metal>
0.0000

> <Gold.PLP.part.buried>
-5.4157

> <Gold.PLP.part.nonpolar>
-28.3173

> <Gold.PLP.part.repulsive>
0.4869

> <Gold.PLP.ligand.clash>
0.0000

> <Gold.PLP.ligand.torsion>
0.1271

> <Gold.PLP.Chemscore.Hbond>
1.4800

> <Gold.PLP.Chemscore.CHOScore>
0.0000

> <Gold.PLP.Chemscore.Metal>
0.0000

> <Gold.Chemscore.Hbonds>
donor molecule, donor type, donor heavy atom, donor atom, acceptor molecule, acceptor atom, score
      L1  H    14    32       P1  7957  1.00
      P1  H  8011  8017       L1    15  0.40

> <Gold.PLP.Chemscore.Internal.Correction>
0.0982

> <Gold.Rescore>
     Score         DG    S(hbond)    S(metal)    S(lipo)     H(rot)  DE(clash)    DE(int)     intcor
     13.86     -14.14       1.66        0.00      78.94       2.38       0.10       0.19       ----

> <Gold.Chemscore.Fitness>
13.8574

> <Gold.Chemscore.DG>
-14.1437

> <Gold.Chemscore.ZeroCoef>
-5.4800

> <Gold.Chemscore.Hbond>
1.6556

> <Gold.Chemscore.Metal>
0.0000

> <Gold.Chemscore.Lipo>
78.9404

> <Gold.Chemscore.Internal_Hbond>
0.0000

> <Gold.Chemscore.DEClash>
0.0956

> <Gold.Chemscore.DEInternal>
0.1907

> <Gold.Chemscore.Rot>
2.3836

> <Gold.Chemscore.Internal.Correction>
   9.000000E+99

> <Gold.Chemscore.Hbonds>
donor molecule, donor type, donor heavy atom, donor atom, acceptor molecule, acceptor atom, score
      L1  H    14    32       P1  7957  1.00
      P1  H  8011  8017       L1    15  0.33

> <Gold.Chemscore.Hbond.Weighted>
-5.5297

> <Gold.Chemscore.Metal.Weighted>
-0.0000

> <Gold.Chemscore.Lipo.Weighted>
-9.2360

> <Gold.Chemscore.Internal_Hbond.Weighted>
0.0000

> <Gold.Chemscore.DEClash.Weighted>
0.0956

> <Gold.Chemscore.DEInternal.Weighted>
0.1907

> <Gold.Chemscore.Rot.Weighted>
6.1020

> <Gold.Chemscore.Internal.Correction.Weighted>
   9.000000E+99

> <Gold.Protein.RotatedTorsions>
[ 6907 6896 6895 6894 ] final  -90.82 input  -60.11 | X-H torsion
[ 7974 7965 7964 7962 ] final  -85.55 input  175.53 | X-H torsion
[ 8008 7997 7996 7995 ] final  165.46 input   59.86 | X-H torsion
[ 10167 10162 10161 10158 ] final -164.97 input  -65.29 | X-H torsion
[ 10718 10713 10712 10709 ] final  -55.56 input   66.30 | X-H torsion
[ 10763 10752 10751 10750 ] final   92.09 input  -60.55 | X-H torsion
[ 11005 11000 10999 10996 ] final   82.50 input  -57.11 | X-H torsion

> <Gold.Protein.ActiveResidues>
 VAL166  LYS551  ARG553  GLY616  TRP617  ASP618  TYR619  PRO620  LYS621  CYS622 
 ASP623  PHE694  ASN695  SER759  ASP760  ASP761  ALA762  ILE779  LEU786  VAL792 
 PHE793  MET794  SER795  GLU796  ALA797  LYS798  CYS799  TRP800  GLU811  SER814 

> <Gold.Protein.RotatedAtoms>
  150.6885  134.2372  159.4457 H   0  0  0  0  0  0  0  0  0  0  0  0  # atno 6907 bound_to 6896
  152.0319  134.9760  160.0582 H   0  0  0  0  0  0  0  0  0  0  0  0  # atno 6908 bound_to 6896
  152.1296  133.4365  159.4751 H   0  0  0  0  0  0  0  0  0  0  0  0  # atno 6909 bound_to 6896
  145.4918  140.9552  143.1808 H   0  0  0  0  0  0  0  0  0  0  0  0  # atno 7974 bound_to 7965
  156.1798  140.1669  156.8295 H   0  0  0  0  0  0  0  0  0  0  0  0  # atno 8008 bound_to 7997
  154.5348  140.0749  156.8441 H   0  0  0  0  0  0  0  0  0  0  0  0  # atno 8009 bound_to 7997
  155.3334  140.3380  155.4241 H   0  0  0  0  0  0  0  0  0  0  0  0  # atno 8010 bound_to 7997
  139.6214  144.0618  152.1935 H   0  0  0  0  0  0  0  0  0  0  0  0  # atno 10167 bound_to 10162
  156.1358  130.4157  150.0188 H   0  0  0  0  0  0  0  0  0  0  0  0  # atno 10718 bound_to 10713
  153.2153  135.4374  155.0427 H   0  0  0  0  0  0  0  0  0  0  0  0  # atno 10763 bound_to 10752
  154.8222  135.3343  154.7007 H   0  0  0  0  0  0  0  0  0  0  0  0  # atno 10764 bound_to 10752
  153.7442  135.7002  153.5016 H   0  0  0  0  0  0  0  0  0  0  0  0  # atno 10765 bound_to 10752
  139.9061  134.8076  156.2183 H   0  0  0  0  0  0  0  0  0  0  0  0  # atno 11005 bound_to 11000
  144.7830  139.6487  143.7146 LP  0  0  0  0  0  0  0  0  0  0  0  0  # atno 17320 bound_to 7965
  146.2279  139.5758  142.9574 LP  0  0  0  0  0  0  0  0  0  0  0  0  # atno 17321 bound_to 7965
  140.0260  144.6117  150.7527 LP  0  0  0  0  0  0  0  0  0  0  0  0  # atno 17342 bound_to 10162
  140.7384  143.2778  151.3690 LP  0  0  0  0  0  0  0  0  0  0  0  0  # atno 17343 bound_to 10162
  156.8087  130.9317  151.3644 LP  0  0  0  0  0  0  0  0  0  0  0  0  # atno 17370 bound_to 10713
  157.6531  130.8901  149.9673 LP  0  0  0  0  0  0  0  0  0  0  0  0  # atno 17371 bound_to 10713
  141.0422  133.6932  156.1618 LP  0  0  0  0  0  0  0  0  0  0  0  0  # atno 17394 bound_to 11000
  140.6938  134.4637  157.5588 LP  0  0  0  0  0  0  0  0  0  0  0  0  # atno 17395 bound_to 11000

$$$$
