AV-unprocessed.smi:2226|AV-procd|sdf|9013|dock7
  -GOLD-   2272012213D 1   1.00000     0.00000
 Structure written by MMmdl.
 40 42  0  0  0  0  0  0  0  0  2 V2000
  143.7591  132.6991  148.6017 C   0  0  0  0  0  0  0  0  0  0  0  0
  143.7613  133.4302  149.8913 N   0  3  2  0  0  0  0  0  0  0  0  0
  144.9755  134.2417  150.1448 C   0  0  2  0  0  0  0  0  0  0  0  0
  146.2094  133.3450  150.4177 C   0  0  0  0  0  0  0  0  0  0  0  0
  145.9839  132.2704  151.4970 C   0  0  0  0  0  0  0  0  0  0  0  0
  144.5959  131.6125  151.4006 C   0  0  0  0  0  0  0  0  0  0  0  0
  143.4470  132.6006  151.0792 C   0  0  1  0  0  0  0  0  0  0  0  0
  143.0289  133.5258  152.2460 C   0  0  0  0  0  0  0  0  0  0  0  0
  143.9578  134.7435  152.5093 C   0  0  1  0  0  0  0  0  0  0  0  0
  144.9108  134.5116  153.5920 N   0  0  0  0  0  0  0  0  0  0  0  0
  145.8808  135.3478  153.9926 C   0  0  0  0  0  0  0  0  0  0  0  0
  146.0600  136.4411  153.4468 O   0  0  0  0  0  0  0  0  0  0  0  0
  146.5646  134.7982  155.0672 N   0  0  0  0  0  0  0  0  0  0  0  0
  147.8612  134.7396  155.0487 C   0  0  0  0  0  0  0  0  0  0  0  0
  148.8172  135.1502  154.1231 N   0  0  0  0  0  0  0  0  0  0  0  0
  150.0524  134.8432  154.6212 C   0  0  0  0  0  0  0  0  0  0  0  0
  149.8864  134.2666  155.8077 C   0  0  0  0  0  0  0  0  0  0  0  0
  148.5567  134.1905  156.0963 O   0  0  0  0  0  0  0  0  0  0  0  0
  144.6626  135.2878  151.2404 C   0  0  0  0  0  0  0  0  0  0  0  0
  144.5428  131.9439  148.5530 H   0  0  0  0  0  0  0  0  0  0  0  0
  143.9064  133.3917  147.7725 H   0  0  0  0  0  0  0  0  0  0  0  0
  142.8011  132.2016  148.4479 H   0  0  0  0  0  0  0  0  0  0  0  0
  145.1910  134.8084  149.2374 H   0  0  0  0  0  0  0  0  0  0  0  0
  146.4882  132.8438  149.4903 H   0  0  0  0  0  0  0  0  0  0  0  0
  147.0704  133.9596  150.6823 H   0  0  0  0  0  0  0  0  0  0  0  0
  146.7546  131.5039  151.4112 H   0  0  0  0  0  0  0  0  0  0  0  0
  146.1342  132.6894  152.4860 H   0  0  0  0  0  0  0  0  0  0  0  0
  144.6314  130.8514  150.6206 H   0  0  0  0  0  0  0  0  0  0  0  0
  144.3797  131.0713  152.3224 H   0  0  0  0  0  0  0  0  0  0  0  0
  142.5694  131.9982  150.8397 H   0  0  0  0  0  0  0  0  0  0  0  0
  142.0450  133.9254  151.9956 H   0  0  0  0  0  0  0  0  0  0  0  0
  142.8701  132.9425  153.1537 H   0  0  0  0  0  0  0  0  0  0  0  0
  143.3217  135.5554  152.8676 H   0  0  0  0  0  0  0  0  0  0  0  0
  144.8241  133.6362  154.0881 H   0  0  0  0  0  0  0  0  0  0  0  0
  148.6713  135.5960  153.2286 H   0  0  0  0  0  0  0  0  0  0  0  0
  150.9432  135.0771  154.0571 H   0  0  0  0  0  0  0  0  0  0  0  0
  150.5806  133.8732  156.5355 H   0  0  0  0  0  0  0  0  0  0  0  0
  145.5611  135.8479  151.5031 H   0  0  0  0  0  0  0  0  0  0  0  0
  143.9929  136.0236  150.7925 H   0  0  0  0  0  0  0  0  0  0  0  0
  143.0021  134.0916  149.8115 H   0  0  0  0  0  0  0  0  0  0  0  0
  1  2  1  0  0  0  0
  1 20  1  0  0  0  0
  1 21  1  0  0  0  0
  1 22  1  0  0  0  0
  2  7  1  0  0  0  0
  2  3  1  0  0  0  0
  2 40  1  0  0  0  0
  3 19  1  0  0  0  0
  3  4  1  0  0  0  0
  3 23  1  0  0  0  0
  4  5  1  0  0  0  0
  4 24  1  0  0  0  0
  4 25  1  0  0  0  0
  5  6  1  0  0  0  0
  5 26  1  0  0  0  0
  5 27  1  0  0  0  0
  6  7  1  0  0  0  0
  6 28  1  0  0  0  0
  6 29  1  0  0  0  0
  7  8  1  0  0  0  0
  7 30  1  0  0  0  0
  8  9  1  0  0  0  0
  8 31  1  0  0  0  0
  8 32  1  0  0  0  0
  9 10  1  0  0  0  0
  9 19  1  0  0  0  0
  9 33  1  0  0  0  0
 10 34  1  0  0  0  0
 10 11  1  0  0  0  0
 11 13  1  0  0  0  0
 11 12  2  0  0  0  0
 13 14  2  0  0  0  0
 14 18  1  0  0  0  0
 14 15  1  0  0  0  0
 15 35  1  0  0  0  0
 15 16  1  0  0  0  0
 16 36  1  0  0  0  0
 16 17  2  0  0  0  0
 17 37  1  0  0  0  0
 17 18  1  0  0  0  0
 19 38  1  0  0  0  0
 19 39  1  0  0  0  0
M  CHG  1   2   1
M  END
> <s_m_source_file>
AV-unprocessed.smi

> <i_m_source_file_index>
2226

> <i_lp_mmshare_version>
43012

> <i_f3d_flags>
0

> <s_epik_input>
W0NIMl0xW0NIMl1bQ0gyXVtDQEhdKE4oW0NIM10pW0NIXTEyKVtDSDJdW0NASF0oW0NIMl0yKVtOSF1DKD1PKVtOSF1jM25bY0hdW2NIXW8z

> <s_epik_cmdline>
J2VwaWtfcHl0aG9uJywgJy1waCcsICc3LjAnLCAnLXRuJywgJzgnLCAnLW1hJywgJzIwMCcsICctbWV0YWxfYmluZGluZycsICctaW1hZScsICc8aW5maWxlLm1hZT4nLCAnLW9tYWUnLCAnPG91dGZpbGUubWFlPic=

> <r_lp_tautomer_probability>
0.107061

> <r_epik_Ionization_Penalty>
1.08307

> <r_epik_Ionization_Penalty_Charging>
1.08272

> <r_epik_Ionization_Penalty_Neutral>
0.000345913

> <r_epik_State_Penalty>
2.5744

> <r_epik_Charging_Adjusted_Penalty>
3.65713

> <i_epik_Tot_Q>
1

> <i_epik_Tot_abs_Q>
1

> <r_epik_Metal_State_Penalty>
3.72133

> <b_epik_Metal_Only>
0

> <s_lp_Force_Field>
OPLS_2005

> <r_lp_Energy>
59.8025

> <b_lp_Chiralities_Consistent>
1

> <s_lp_Variant>
AV-unprocessed.smi:2226-13

> <Gold.Version>
5.8.1

> <Gold.Id.Protein>
6NUR|6NUR_protein|mol2

> <Gold.PLP.Fitness>
36.1834

> <Gold.PLP.PLP>
-27.1981

> <Gold.PLP.part.hbond>
-1.8835

> <Gold.PLP.part.metal>
0.0000

> <Gold.PLP.part.buried>
0.8708

> <Gold.PLP.part.nonpolar>
-25.7186

> <Gold.PLP.part.repulsive>
0.2183

> <Gold.PLP.ligand.clash>
0.0000

> <Gold.PLP.ligand.torsion>
0.5462

> <Gold.PLP.Chemscore.Hbond>
3.0000

> <Gold.PLP.Chemscore.CHOScore>
0.3421

> <Gold.PLP.Chemscore.Metal>
0.0000

> <Gold.Chemscore.Hbonds>
donor molecule, donor type, donor heavy atom, donor atom, acceptor molecule, acceptor atom, score
      L1  H     2    40       P1 10186  1.93
      L1  H    15    35       P1  7948  0.96
      L1  C    16    36       P1  7949  0.39

> <Gold.PLP.Chemscore.Internal.Correction>
0.0513

> <Gold.Rescore>
     Score         DG    S(hbond)    S(metal)    S(lipo)     H(rot)  DE(clash)    DE(int)     intcor
     17.66     -19.81       2.14        0.00      83.30       1.00       0.33       1.82       ----

> <Gold.Chemscore.Fitness>
17.6554

> <Gold.Chemscore.DG>
-19.8118

> <Gold.Chemscore.ZeroCoef>
-5.4800

> <Gold.Chemscore.Hbond>
2.1396

> <Gold.Chemscore.Metal>
0.0000

> <Gold.Chemscore.Lipo>
83.2958

> <Gold.Chemscore.Internal_Hbond>
0.0000

> <Gold.Chemscore.DEClash>
0.3333

> <Gold.Chemscore.DEInternal>
1.8232

> <Gold.Chemscore.Rot>
1.0000

> <Gold.Chemscore.Internal.Correction>
   9.000000E+99

> <Gold.Chemscore.Hbonds>
donor molecule, donor type, donor heavy atom, donor atom, acceptor molecule, acceptor atom, score
      L1  H     2    40       P1 10186  0.86
      L1  H    15    35       P1  7948  0.88

> <Gold.Chemscore.Hbond.Weighted>
-7.1462

> <Gold.Chemscore.Metal.Weighted>
-0.0000

> <Gold.Chemscore.Lipo.Weighted>
-9.7456

> <Gold.Chemscore.Internal_Hbond.Weighted>
0.0000

> <Gold.Chemscore.DEClash.Weighted>
0.3333

> <Gold.Chemscore.DEInternal.Weighted>
1.8232

> <Gold.Chemscore.Rot.Weighted>
2.5600

> <Gold.Chemscore.Internal.Correction.Weighted>
   9.000000E+99

> <Gold.Protein.RotatedTorsions>
[ 6907 6896 6895 6894 ] final -124.99 input  -60.11 | X-H torsion
[ 7974 7965 7964 7962 ] final  121.37 input  175.53 | X-H torsion
[ 8008 7997 7996 7995 ] final  118.89 input   59.86 | X-H torsion
[ 10167 10162 10161 10158 ] final   68.65 input  -65.29 | X-H torsion
[ 10718 10713 10712 10709 ] final  -94.47 input   66.30 | X-H torsion
[ 10763 10752 10751 10750 ] final  128.46 input  -60.55 | X-H torsion
[ 11005 11000 10999 10996 ] final  -92.78 input  -57.11 | X-H torsion

> <Gold.Protein.ActiveResidues>
 VAL166  LYS551  ARG553  GLY616  TRP617  ASP618  TYR619  PRO620  LYS621  CYS622 
 ASP623  PHE694  ASN695  SER759  ASP760  ASP761  ALA762  ILE779  LEU786  VAL792 
 PHE793  MET794  SER795  GLU796  ALA797  LYS798  CYS799  TRP800  GLU811  SER814 

> <Gold.Protein.RotatedAtoms>
  150.8822  133.7356  159.2928 H   0  0  0  0  0  0  0  0  0  0  0  0  # atno 6907 bound_to 6896
  151.4933  135.1057  159.9819 H   0  0  0  0  0  0  0  0  0  0  0  0  # atno 6908 bound_to 6896
  152.4767  133.8110  159.7059 H   0  0  0  0  0  0  0  0  0  0  0  0  # atno 6909 bound_to 6896
  145.1201  139.3394  143.4718 H   0  0  0  0  0  0  0  0  0  0  0  0  # atno 7974 bound_to 7965
  156.2569  140.2865  156.0905 H   0  0  0  0  0  0  0  0  0  0  0  0  # atno 8008 bound_to 7997
  155.1468  140.0396  157.2829 H   0  0  0  0  0  0  0  0  0  0  0  0  # atno 8009 bound_to 7997
  154.6490  140.2540  155.7242 H   0  0  0  0  0  0  0  0  0  0  0  0  # atno 8010 bound_to 7997
  140.0764  144.5109  150.7192 H   0  0  0  0  0  0  0  0  0  0  0  0  # atno 10167 bound_to 10162
  156.0027  130.5069  150.5931 H   0  0  0  0  0  0  0  0  0  0  0  0  # atno 10718 bound_to 10713
  153.7259  135.3246  155.3276 H   0  0  0  0  0  0  0  0  0  0  0  0  # atno 10763 bound_to 10752
  154.8341  135.4510  154.1171 H   0  0  0  0  0  0  0  0  0  0  0  0  # atno 10764 bound_to 10752
  153.2304  135.6959  153.7977 H   0  0  0  0  0  0  0  0  0  0  0  0  # atno 10765 bound_to 10752
  141.1513  133.7843  157.0067 H   0  0  0  0  0  0  0  0  0  0  0  0  # atno 11005 bound_to 11000
  146.3521  140.1157  142.8602 LP  0  0  0  0  0  0  0  0  0  0  0  0  # atno 17320 bound_to 7965
  145.0750  140.9181  143.4859 LP  0  0  0  0  0  0  0  0  0  0  0  0  # atno 17321 bound_to 7965
  140.7100  143.2497  151.4611 LP  0  0  0  0  0  0  0  0  0  0  0  0  # atno 17342 bound_to 10162
  139.5805  144.1720  152.1962 LP  0  0  0  0  0  0  0  0  0  0  0  0  # atno 17343 bound_to 10162
  157.3792  131.0778  151.1491 LP  0  0  0  0  0  0  0  0  0  0  0  0  # atno 17370 bound_to 10713
  157.2219  130.6485  149.5814 LP  0  0  0  0  0  0  0  0  0  0  0  0  # atno 17371 bound_to 10713
  140.0904  134.9596  157.1767 LP  0  0  0  0  0  0  0  0  0  0  0  0  # atno 17394 bound_to 11000
  140.3454  134.2658  155.7206 LP  0  0  0  0  0  0  0  0  0  0  0  0  # atno 17395 bound_to 11000

$$$$
