AV-unprocessed.smi:1322|AV-procd|sdf|5464|dock2
  -GOLD-   22720 5 33D 1   1.00000     0.00000
 Structure written by MMmdl.
 32 33  0  0  0  0  0  0  0  0  1 V2000
  152.3803  139.2104  159.4071 C   0  0  0  0  0  0  0  0  0  0  0  0
  151.9199  140.6566  159.1464 C   0  0  1  0  0  0  0  0  0  0  0  0
  153.0368  141.6979  159.3581 C   0  0  0  0  0  0  0  0  0  0  0  0
  152.5318  143.0576  159.4265 N   0  0  0  0  0  0  0  0  0  0  0  0
  152.7739  144.1028  158.5602 C   0  0  0  0  0  0  0  0  0  0  0  0
  152.0871  145.1862  159.0283 C   0  0  0  0  0  0  0  0  0  0  0  0
  151.4485  144.6992  160.2031 C   0  0  0  0  0  0  0  0  0  0  0  0
  151.7184  143.4257  160.4402 N   0  0  0  0  0  0  0  0  0  0  0  0
  151.4025  140.7821  157.7863 N   0  0  0  0  0  0  0  0  0  0  0  0
  151.9349  140.2128  156.6940 C   0  0  0  0  0  0  0  0  0  0  0  0
  152.9455  139.5092  156.7232 O   0  0  0  0  0  0  0  0  0  0  0  0
  151.2065  140.4864  155.3715 C   0  0  0  0  0  0  0  0  0  0  0  0
  149.8201  141.1370  155.5247 C   0  0  0  0  0  0  0  0  0  0  0  0
  149.2892  140.1561  154.4751 C   0  0  0  0  0  0  0  0  0  0  0  0
  150.4973  139.2615  154.7675 C   0  0  0  0  0  0  0  0  0  0  0  0
  152.7056  139.0743  160.4384 H   0  0  0  0  0  0  0  0  0  0  0  0
  153.2119  138.9369  158.7568 H   0  0  0  0  0  0  0  0  0  0  0  0
  151.5719  138.5003  159.2300 H   0  0  0  0  0  0  0  0  0  0  0  0
  151.1160  140.8887  159.8478 H   0  0  0  0  0  0  0  0  0  0  0  0
  153.5914  141.4796  160.2726 H   0  0  0  0  0  0  0  0  0  0  0  0
  153.7564  141.6483  158.5395 H   0  0  0  0  0  0  0  0  0  0  0  0
  153.4060  143.9883  157.6919 H   0  0  0  0  0  0  0  0  0  0  0  0
  152.0472  146.1755  158.5974 H   0  0  0  0  0  0  0  0  0  0  0  0
  150.8018  145.2299  160.8862 H   0  0  0  0  0  0  0  0  0  0  0  0
  150.5731  141.3455  157.6667 H   0  0  0  0  0  0  0  0  0  0  0  0
  151.8216  141.0065  154.6343 H   0  0  0  0  0  0  0  0  0  0  0  0
  149.3606  140.9938  156.5043 H   0  0  0  0  0  0  0  0  0  0  0  0
  149.7775  142.1818  155.2160 H   0  0  0  0  0  0  0  0  0  0  0  0
  148.3237  139.7103  154.7160 H   0  0  0  0  0  0  0  0  0  0  0  0
  149.3048  140.5698  153.4656 H   0  0  0  0  0  0  0  0  0  0  0  0
  150.9773  138.8597  153.8749 H   0  0  0  0  0  0  0  0  0  0  0  0
  150.2720  138.4718  155.4868 H   0  0  0  0  0  0  0  0  0  0  0  0
  1  2  1  0  0  0  0
  1 16  1  0  0  0  0
  1 17  1  0  0  0  0
  1 18  1  0  0  0  0
  2  3  1  0  0  0  0
  2  9  1  0  0  0  0
  2 19  1  0  0  0  0
  3  4  1  0  0  0  0
  3 20  1  0  0  0  0
  3 21  1  0  0  0  0
  4  8  1  0  0  0  0
  4  5  1  0  0  0  0
  5  6  2  0  0  0  0
  5 22  1  0  0  0  0
  6  7  1  0  0  0  0
  6 23  1  0  0  0  0
  7  8  2  0  0  0  0
  7 24  1  0  0  0  0
  9 10  1  0  0  0  0
  9 25  1  0  0  0  0
 10 11  2  0  0  0  0
 10 12  1  0  0  0  0
 12 15  1  0  0  0  0
 12 13  1  0  0  0  0
 12 26  1  0  0  0  0
 13 14  1  0  0  0  0
 13 27  1  0  0  0  0
 13 28  1  0  0  0  0
 14 15  1  0  0  0  0
 14 29  1  0  0  0  0
 14 30  1  0  0  0  0
 15 31  1  0  0  0  0
 15 32  1  0  0  0  0
M  END
> <s_m_source_file>
AV-unprocessed.smi

> <i_m_source_file_index>
1322

> <i_lp_mmshare_version>
43012

> <i_f3d_flags>
0

> <s_epik_input>
W0NIMl0xW0NIMl1bQ0gyXVtDSF0xQyg9TylbTkhdW0NASF0oW0NIM10pW0NIMl1uMltjSF1bY0hdW2NIXW4y

> <s_epik_cmdline>
J2VwaWtfcHl0aG9uJywgJy1waCcsICc3LjAnLCAnLXRuJywgJzgnLCAnLW1hJywgJzIwMCcsICctbWV0YWxfYmluZGluZycsICctaW1hZScsICc8aW5maWxlLm1hZT4nLCAnLW9tYWUnLCAnPG91dGZpbGUubWFlPic=

> <r_lp_tautomer_probability>
1

> <r_epik_Ionization_Penalty>
0.000326653

> <r_epik_Ionization_Penalty_Charging>
0

> <r_epik_Ionization_Penalty_Neutral>
0.000326653

> <r_epik_State_Penalty>
-0

> <r_epik_Charging_Adjusted_Penalty>
0

> <i_epik_Tot_Q>
0

> <i_epik_Tot_abs_Q>
0

> <r_epik_Metal_State_Penalty>
-0

> <b_epik_Metal_Only>
0

> <s_lp_Force_Field>
OPLS_2005

> <r_lp_Energy>
10.775

> <b_lp_Chiralities_Consistent>
1

> <s_lp_Variant>
AV-unprocessed.smi:1322-2

> <Gold.Version>
5.8.1

> <Gold.Id.Protein>
6NUR|6NUR_protein|mol2

> <Gold.PLP.Fitness>
39.2273

> <Gold.PLP.PLP>
-37.0074

> <Gold.PLP.part.hbond>
-1.0000

> <Gold.PLP.part.metal>
0.0000

> <Gold.PLP.part.buried>
-2.9514

> <Gold.PLP.part.nonpolar>
-33.7889

> <Gold.PLP.part.repulsive>
0.1419

> <Gold.PLP.ligand.clash>
0.0000

> <Gold.PLP.ligand.torsion>
0.6004

> <Gold.PLP.Chemscore.Hbond>
1.0000

> <Gold.PLP.Chemscore.CHOScore>
0.0000

> <Gold.PLP.Chemscore.Metal>
0.0000

> <Gold.Chemscore.Hbonds>
donor molecule, donor type, donor heavy atom, donor atom, acceptor molecule, acceptor atom, score
      P1  H  7997  8010       L1    11  1.00

> <Gold.PLP.Chemscore.Internal.Correction>
0.4207

> <Gold.Rescore>
     Score         DG    S(hbond)    S(metal)    S(lipo)     H(rot)  DE(clash)    DE(int)     intcor
     13.20     -15.30       1.00        0.00      89.31       1.55       0.07       2.03       ----

> <Gold.Chemscore.Fitness>
13.2040

> <Gold.Chemscore.DG>
-15.2958

> <Gold.Chemscore.ZeroCoef>
-5.4800

> <Gold.Chemscore.Hbond>
0.9963

> <Gold.Chemscore.Metal>
0.0000

> <Gold.Chemscore.Lipo>
89.3067

> <Gold.Chemscore.Internal_Hbond>
0.0000

> <Gold.Chemscore.DEClash>
0.0664

> <Gold.Chemscore.DEInternal>
2.0254

> <Gold.Chemscore.Rot>
1.5471

> <Gold.Chemscore.Internal.Correction>
   9.000000E+99

> <Gold.Chemscore.Hbonds>
donor molecule, donor type, donor heavy atom, donor atom, acceptor molecule, acceptor atom, score
      P1  H  7997  8010       L1    11  0.93

> <Gold.Chemscore.Hbond.Weighted>
-3.3275

> <Gold.Chemscore.Metal.Weighted>
-0.0000

> <Gold.Chemscore.Lipo.Weighted>
-10.4489

> <Gold.Chemscore.Internal_Hbond.Weighted>
0.0000

> <Gold.Chemscore.DEClash.Weighted>
0.0664

> <Gold.Chemscore.DEInternal.Weighted>
2.0254

> <Gold.Chemscore.Rot.Weighted>
3.9606

> <Gold.Chemscore.Internal.Correction.Weighted>
   9.000000E+99

> <Gold.Protein.RotatedTorsions>
[ 6907 6896 6895 6894 ] final  140.32 input  -60.11 | X-H torsion
[ 7974 7965 7964 7962 ] final -130.42 input  175.53 | X-H torsion
[ 8008 7997 7996 7995 ] final   72.69 input   59.86 | X-H torsion
[ 10167 10162 10161 10158 ] final  -34.41 input  -65.29 | X-H torsion
[ 10718 10713 10712 10709 ] final    0.85 input   66.30 | X-H torsion
[ 10763 10752 10751 10750 ] final -146.73 input  -60.55 | X-H torsion
[ 11005 11000 10999 10996 ] final   63.33 input  -57.11 | X-H torsion

> <Gold.Protein.ActiveResidues>
 VAL166  LYS551  ARG553  GLY616  TRP617  ASP618  TYR619  PRO620  LYS621  CYS622 
 ASP623  PHE694  ASN695  SER759  ASP760  ASP761  ALA762  ILE779  LEU786  VAL792 
 PHE793  MET794  SER795  GLU796  ALA797  LYS798  CYS799  TRP800  GLU811  SER814 

> <Gold.Protein.RotatedAtoms>
  152.2444  133.5162  159.5288 H   0  0  0  0  0  0  0  0  0  0  0  0  # atno 6907 bound_to 6896
  150.7074  134.1045  159.3987 H   0  0  0  0  0  0  0  0  0  0  0  0  # atno 6908 bound_to 6896
  151.8965  135.0395  160.0553 H   0  0  0  0  0  0  0  0  0  0  0  0  # atno 6909 bound_to 6896
  144.9477  140.7309  143.4807 H   0  0  0  0  0  0  0  0  0  0  0  0  # atno 7974 bound_to 7965
  155.7726  140.3484  155.5255 H   0  0  0  0  0  0  0  0  0  0  0  0  # atno 8008 bound_to 7997
  155.8807  140.1001  157.1508 H   0  0  0  0  0  0  0  0  0  0  0  0  # atno 8009 bound_to 7997
  154.4024  140.1323  156.4180 H   0  0  0  0  0  0  0  0  0  0  0  0  # atno 8010 bound_to 7997
  140.7186  143.3549  151.2079 H   0  0  0  0  0  0  0  0  0  0  0  0  # atno 10167 bound_to 10162
  156.8394  130.5516  149.5679 H   0  0  0  0  0  0  0  0  0  0  0  0  # atno 10718 bound_to 10713
  154.8321  135.3379  154.6707 H   0  0  0  0  0  0  0  0  0  0  0  0  # atno 10763 bound_to 10752
  153.7326  135.6951  153.4990 H   0  0  0  0  0  0  0  0  0  0  0  0  # atno 10764 bound_to 10752
  153.2301  135.4419  155.0538 H   0  0  0  0  0  0  0  0  0  0  0  0  # atno 10765 bound_to 10752
  140.0032  134.6410  155.9897 H   0  0  0  0  0  0  0  0  0  0  0  0  # atno 11005 bound_to 11000
  145.2893  139.1889  143.4749 LP  0  0  0  0  0  0  0  0  0  0  0  0  # atno 17320 bound_to 7965
  146.3309  140.2867  142.8613 LP  0  0  0  0  0  0  0  0  0  0  0  0  # atno 17321 bound_to 7965
  139.7089  143.9410  152.2939 LP  0  0  0  0  0  0  0  0  0  0  0  0  # atno 17342 bound_to 10162
  139.9128  144.6846  150.8544 LP  0  0  0  0  0  0  0  0  0  0  0  0  # atno 17343 bound_to 10162
  156.0889  130.5880  150.9697 LP  0  0  0  0  0  0  0  0  0  0  0  0  # atno 17370 bound_to 10713
  157.6364  131.0915  150.8340 LP  0  0  0  0  0  0  0  0  0  0  0  0  # atno 17371 bound_to 10713
  141.1657  133.6537  156.4472 LP  0  0  0  0  0  0  0  0  0  0  0  0  # atno 17394 bound_to 11000
  140.4690  134.6771  157.5120 LP  0  0  0  0  0  0  0  0  0  0  0  0  # atno 17395 bound_to 11000

$$$$
