AV-unprocessed.smi:379|AV-procd|sdf|2459|dock8
  -GOLD-   2262022403D 1   1.00000     0.00000
 Structure written by MMmdl.
 39 40  0  0  0  0  0  0  0  0  1 V2000
  143.9375  141.9522  155.7153 C   0  0  0  0  0  0  0  0  0  0  0  0
  145.4450  142.2081  155.8596 C   0  0  0  0  0  0  0  0  0  0  0  0
  146.1935  142.3526  154.5188 C   0  0  1  0  0  0  0  0  0  0  0  0
  145.6209  143.5004  153.6755 C   0  0  0  0  0  0  0  0  0  0  0  0
  147.6193  142.5888  154.7401 N   0  0  0  0  0  0  0  0  0  0  0  0
  148.5785  141.6502  154.7686 C   0  0  0  0  0  0  0  0  0  0  0  0
  148.3599  140.4512  154.5894 O   0  0  0  0  0  0  0  0  0  0  0  0
  150.0028  142.1571  155.0392 C   0  0  0  0  0  0  0  0  0  0  0  0
  150.7291  141.3434  156.0385 N   0  0  0  0  0  0  0  0  0  0  0  0
  151.2188  140.0720  155.6434 C   0  0  0  0  0  0  0  0  0  0  0  0
  151.0226  139.6423  154.5050 O   0  0  0  0  0  0  0  0  0  0  0  0
  151.9671  139.3412  156.6631 C   0  0  0  0  0  0  0  0  0  0  0  0
  152.5030  138.0733  156.2936 C   0  0  0  0  0  0  0  0  0  0  0  0
  152.9155  137.0358  155.9886 N   0  0  0  0  0  0  0  0  0  0  0  0
  152.1433  139.8554  157.8977 C   0  0  0  0  0  0  0  0  0  0  0  0
  151.6258  141.0759  158.2733 N   0  0  0  0  0  0  0  0  0  0  0  0
  151.9577  141.6725  159.5363 C   0  0  0  0  0  0  0  0  0  0  0  0
  152.6077  143.0389  159.5542 C   0  0  0  0  0  0  0  0  0  0  0  0
  153.4078  141.8232  159.9538 C   0  0  0  0  0  0  0  0  0  0  0  0
  150.9468  141.8793  157.3310 C   0  0  0  0  0  0  0  0  0  0  0  0
  150.5651  143.0162  157.6196 O   0  0  0  0  0  0  0  0  0  0  0  0
  143.4536  141.9373  156.6920 H   0  0  0  0  0  0  0  0  0  0  0  0
  143.7365  140.9932  155.2371 H   0  0  0  0  0  0  0  0  0  0  0  0
  143.4609  142.7312  155.1198 H   0  0  0  0  0  0  0  0  0  0  0  0
  145.5851  143.1196  156.4420 H   0  0  0  0  0  0  0  0  0  0  0  0
  145.8901  141.4039  156.4470 H   0  0  0  0  0  0  0  0  0  0  0  0
  146.0524  141.4327  153.9486 H   0  0  0  0  0  0  0  0  0  0  0  0
  144.5639  143.3398  153.4615 H   0  0  0  0  0  0  0  0  0  0  0  0
  146.1402  143.5836  152.7201 H   0  0  0  0  0  0  0  0  0  0  0  0
  145.7141  144.4575  154.1901 H   0  0  0  0  0  0  0  0  0  0  0  0
  147.8974  143.5468  154.8968 H   0  0  0  0  0  0  0  0  0  0  0  0
  150.5356  142.1965  154.0884 H   0  0  0  0  0  0  0  0  0  0  0  0
  149.9588  143.1995  155.3606 H   0  0  0  0  0  0  0  0  0  0  0  0
  152.7077  139.2886  158.6242 H   0  0  0  0  0  0  0  0  0  0  0  0
  151.2522  141.4746  160.3414 H   0  0  0  0  0  0  0  0  0  0  0  0
  152.8523  143.5038  158.6009 H   0  0  0  0  0  0  0  0  0  0  0  0
  152.3086  143.7259  160.3434 H   0  0  0  0  0  0  0  0  0  0  0  0
  153.6407  141.6979  161.0092 H   0  0  0  0  0  0  0  0  0  0  0  0
  154.1806  141.4889  159.2640 H   0  0  0  0  0  0  0  0  0  0  0  0
  1  2  1  0  0  0  0
  1 22  1  0  0  0  0
  1 23  1  0  0  0  0
  1 24  1  0  0  0  0
  2  3  1  0  0  0  0
  2 25  1  0  0  0  0
  2 26  1  0  0  0  0
  3  4  1  0  0  0  0
  3  5  1  0  0  0  0
  3 27  1  0  0  0  0
  4 28  1  0  0  0  0
  4 29  1  0  0  0  0
  4 30  1  0  0  0  0
  5  6  1  0  0  0  0
  5 31  1  0  0  0  0
  6  7  2  0  0  0  0
  6  8  1  0  0  0  0
  8  9  1  0  0  0  0
  8 32  1  0  0  0  0
  8 33  1  0  0  0  0
  9 20  1  0  0  0  0
  9 10  1  0  0  0  0
 10 11  2  0  0  0  0
 10 12  1  0  0  0  0
 12 13  1  0  0  0  0
 12 15  2  0  0  0  0
 13 14  3  0  0  0  0
 15 16  1  0  0  0  0
 15 34  1  0  0  0  0
 16 17  1  0  0  0  0
 16 20  1  0  0  0  0
 17 19  1  0  0  0  0
 17 18  1  0  0  0  0
 17 35  1  0  0  0  0
 18 19  1  0  0  0  0
 18 36  1  0  0  0  0
 18 37  1  0  0  0  0
 19 38  1  0  0  0  0
 19 39  1  0  0  0  0
 20 21  2  0  0  0  0
M  END
> <s_m_source_file>
AV-unprocessed.smi

> <i_m_source_file_index>
379

> <i_lp_mmshare_version>
43012

> <i_f3d_flags>
0

> <s_epik_input>
W0NIM11bQ0gyXVtDQEhdKFtDSDNdKVtOSF1DKD1PKVtDSDJdbjFjKD1PKWMoQyNOKVtjSF1uKGMxPU8pW0NIXTJbQ0gyXVtDSDJdMg==

> <s_epik_cmdline>
J2VwaWtfcHl0aG9uJywgJy1waCcsICc3LjAnLCAnLXRuJywgJzgnLCAnLW1hJywgJzIwMCcsICctbWV0YWxfYmluZGluZycsICctaW1hZScsICc8aW5maWxlLm1hZT4nLCAnLW9tYWUnLCAnPG91dGZpbGUubWFlPic=

> <r_lp_tautomer_probability>
1

> <r_epik_Ionization_Penalty>
1.93863e-08

> <r_epik_Ionization_Penalty_Charging>
8.45512e-11

> <r_epik_Ionization_Penalty_Neutral>
1.93017e-08

> <r_epik_State_Penalty>
-0

> <r_epik_Charging_Adjusted_Penalty>
8.45512e-11

> <i_epik_Tot_Q>
0

> <i_epik_Tot_abs_Q>
0

> <r_epik_Metal_State_Penalty>
-0

> <b_epik_Metal_Only>
0

> <s_lp_Force_Field>
OPLS_2005

> <r_lp_Energy>
29.1248

> <b_lp_Chiralities_Consistent>
1

> <s_lp_Variant>
AV-unprocessed.smi:379-2

> <Gold.Version>
5.8.1

> <Gold.Id.Protein>
6NUR|6NUR_protein|mol2

> <Gold.PLP.Fitness>
44.2177

> <Gold.PLP.PLP>
-37.5027

> <Gold.PLP.part.hbond>
-3.0000

> <Gold.PLP.part.metal>
0.0000

> <Gold.PLP.part.buried>
-1.0098

> <Gold.PLP.part.nonpolar>
-32.6048

> <Gold.PLP.part.repulsive>
0.8157

> <Gold.PLP.ligand.clash>
0.0000

> <Gold.PLP.ligand.torsion>
0.7903

> <Gold.PLP.Chemscore.Hbond>
2.6880

> <Gold.PLP.Chemscore.CHOScore>
0.0000

> <Gold.PLP.Chemscore.Metal>
0.0000

> <Gold.Chemscore.Hbonds>
donor molecule, donor type, donor heavy atom, donor atom, acceptor molecule, acceptor atom, score
      L1  H     5    31       P1  8028  1.00
      P1  H  7989  7998       L1    11  1.00
      P1  H 10752 10765       L1    14  0.69

> <Gold.PLP.Chemscore.Internal.Correction>
0.2318

> <Gold.Rescore>
     Score         DG    S(hbond)    S(metal)    S(lipo)     H(rot)  DE(clash)    DE(int)     intcor
     10.50     -15.25       2.20        0.00      63.94       1.98       0.53       4.23       ----

> <Gold.Chemscore.Fitness>
10.4962

> <Gold.Chemscore.DG>
-15.2533

> <Gold.Chemscore.ZeroCoef>
-5.4800

> <Gold.Chemscore.Hbond>
2.2020

> <Gold.Chemscore.Metal>
0.0000

> <Gold.Chemscore.Lipo>
63.9402

> <Gold.Chemscore.Internal_Hbond>
0.0000

> <Gold.Chemscore.DEClash>
0.5269

> <Gold.Chemscore.DEInternal>
4.2302

> <Gold.Chemscore.Rot>
1.9774

> <Gold.Chemscore.Internal.Correction>
   9.000000E+99

> <Gold.Chemscore.Hbonds>
donor molecule, donor type, donor heavy atom, donor atom, acceptor molecule, acceptor atom, score
      L1  H     5    31       P1  8028  0.54
      P1  H  7989  7998       L1    11  0.45
      P1  H 10752 10765       L1    14  0.68

> <Gold.Chemscore.Hbond.Weighted>
-7.3546

> <Gold.Chemscore.Metal.Weighted>
-0.0000

> <Gold.Chemscore.Lipo.Weighted>
-7.4810

> <Gold.Chemscore.Internal_Hbond.Weighted>
0.0000

> <Gold.Chemscore.DEClash.Weighted>
0.5269

> <Gold.Chemscore.DEInternal.Weighted>
4.2302

> <Gold.Chemscore.Rot.Weighted>
5.0623

> <Gold.Chemscore.Internal.Correction.Weighted>
   9.000000E+99

> <Gold.Protein.RotatedTorsions>
[ 6907 6896 6895 6894 ] final   73.48 input  -60.11 | X-H torsion
[ 7974 7965 7964 7962 ] final  -80.41 input  175.53 | X-H torsion
[ 8008 7997 7996 7995 ] final   13.45 input   59.86 | X-H torsion
[ 10167 10162 10161 10158 ] final -114.51 input  -65.29 | X-H torsion
[ 10718 10713 10712 10709 ] final   -4.02 input   66.30 | X-H torsion
[ 10763 10752 10751 10750 ] final -146.34 input  -60.55 | X-H torsion
[ 11005 11000 10999 10996 ] final -173.83 input  -57.11 | X-H torsion

> <Gold.Protein.ActiveResidues>
 VAL166  LYS551  ARG553  GLY616  TRP617  ASP618  TYR619  PRO620  LYS621  CYS622 
 ASP623  PHE694  ASN695  SER759  ASP760  ASP761  ALA762  ILE779  LEU786  VAL792 
 PHE793  MET794  SER795  GLU796  ALA797  LYS798  CYS799  TRP800  GLU811  SER814 

> <Gold.Protein.RotatedAtoms>
  152.4925  134.4415  159.9544 H   0  0  0  0  0  0  0  0  0  0  0  0  # atno 6907 bound_to 6896
  151.4399  133.3640  159.2788 H   0  0  0  0  0  0  0  0  0  0  0  0  # atno 6908 bound_to 6896
  150.9094  134.8534  159.7475 H   0  0  0  0  0  0  0  0  0  0  0  0  # atno 6909 bound_to 6896
  145.5603  140.9483  143.1451 H   0  0  0  0  0  0  0  0  0  0  0  0  # atno 7974 bound_to 7965
  154.8347  140.2905  155.5699 H   0  0  0  0  0  0  0  0  0  0  0  0  # atno 8008 bound_to 7997
  156.3008  140.2525  156.3210 H   0  0  0  0  0  0  0  0  0  0  0  0  # atno 8009 bound_to 7997
  154.9192  140.0386  157.1978 H   0  0  0  0  0  0  0  0  0  0  0  0  # atno 8010 bound_to 7997
  140.1002  143.4620  152.1817 H   0  0  0  0  0  0  0  0  0  0  0  0  # atno 10167 bound_to 10162
  156.7675  130.5289  149.5773 H   0  0  0  0  0  0  0  0  0  0  0  0  # atno 10718 bound_to 10713
  154.8341  135.3389  154.6645 H   0  0  0  0  0  0  0  0  0  0  0  0  # atno 10763 bound_to 10752
  153.7262  135.6955  153.5005 H   0  0  0  0  0  0  0  0  0  0  0  0  # atno 10764 bound_to 10752
  153.2345  135.4405  155.0584 H   0  0  0  0  0  0  0  0  0  0  0  0  # atno 10765 bound_to 10752
  140.4814  134.6072  157.4920 H   0  0  0  0  0  0  0  0  0  0  0  0  # atno 11005 bound_to 11000
  144.7486  139.7253  143.7282 LP  0  0  0  0  0  0  0  0  0  0  0  0  # atno 17320 bound_to 7965
  146.1856  139.5069  142.9838 LP  0  0  0  0  0  0  0  0  0  0  0  0  # atno 17321 bound_to 7965
  139.5675  144.7444  151.3980 LP  0  0  0  0  0  0  0  0  0  0  0  0  # atno 17342 bound_to 10162
  140.6982  143.7697  150.7360 LP  0  0  0  0  0  0  0  0  0  0  0  0  # atno 17343 bound_to 10162
  156.1299  130.6170  151.0318 LP  0  0  0  0  0  0  0  0  0  0  0  0  # atno 17370 bound_to 10713
  157.6706  131.0862  150.7621 LP  0  0  0  0  0  0  0  0  0  0  0  0  # atno 17371 bound_to 10713
  139.9824  134.7115  155.9835 LP  0  0  0  0  0  0  0  0  0  0  0  0  # atno 17394 bound_to 11000
  141.1529  133.6546  156.4071 LP  0  0  0  0  0  0  0  0  0  0  0  0  # atno 17395 bound_to 11000

$$$$
