AV-unprocessed.smi:2405|AV-procd|sdf|9514|dock6
  -GOLD-   2272013143D 1   1.00000     0.00000
 Structure written by MMmdl.
 36 37  0  0  0  0  0  0  0  0  2 V2000
  141.1483  129.0465  158.9127 C   0  0  0  0  0  0  0  0  0  0  0  0
  142.0046  129.3848  157.6877 C   0  0  0  0  0  0  0  0  0  0  0  0
  143.0140  130.4467  157.9698 C   0  0  0  0  0  0  0  0  0  0  0  0
  142.6913  131.7028  158.2879 N   0  0  0  0  0  0  0  0  0  0  0  0
  143.8122  132.5036  158.5304 C   0  0  0  0  0  0  0  0  0  0  0  0
  143.6366  133.9519  158.8837 C   0  0  0  0  0  0  0  0  0  0  0  0
  144.0152  134.1870  160.3464 C   0  0  0  0  0  0  0  0  0  0  0  0
  143.1586  134.5450  161.1551 O   0  0  0  0  0  0  0  0  0  0  0  0
  145.3012  133.9853  160.6702 N   0  0  0  0  0  0  0  0  0  0  0  0
  145.8742  134.1552  162.0013 C   0  0  2  0  0  0  0  0  0  0  0  0
  145.7237  135.6057  162.5051 C   0  0  0  0  0  0  0  0  0  0  0  0
  147.1269  136.0600  162.9234 C   0  0  0  0  0  0  0  0  0  0  0  0
  148.0925  135.2359  162.0596 C   0  0  2  0  0  0  0  0  0  0  0  0
  148.3169  135.9045  160.6858 C   0  0  0  0  0  0  0  0  0  0  0  0
  148.8616  135.2021  159.8062 O   0  0  0  0  0  0  0  0  0  0  0  0
  147.9395  137.0860  160.5188 O   0  5  0  0  0  0  0  0  0  0  0  0
  147.3877  133.8685  161.9764 C   0  0  0  0  0  0  0  0  0  0  0  0
  144.9982  131.8211  158.4135 C   0  0  0  0  0  0  0  0  0  0  0  0
  144.7486  130.1514  157.9841 S   0  0  0  0  0  0  0  0  0  0  0  0
  140.4221  128.2687  158.6761 H   0  0  0  0  0  0  0  0  0  0  0  0
  140.5984  129.9209  159.2613 H   0  0  0  0  0  0  0  0  0  0  0  0
  141.7655  128.6875  159.7366 H   0  0  0  0  0  0  0  0  0  0  0  0
  142.5251  128.4922  157.3401 H   0  0  0  0  0  0  0  0  0  0  0  0
  141.3665  129.7139  156.8667 H   0  0  0  0  0  0  0  0  0  0  0  0
  144.2504  134.5891  158.2454 H   0  0  0  0  0  0  0  0  0  0  0  0
  142.6033  134.2619  158.7245 H   0  0  0  0  0  0  0  0  0  0  0  0
  145.9383  133.7016  159.9383 H   0  0  0  0  0  0  0  0  0  0  0  0
  145.3949  133.4600  162.6931 H   0  0  0  0  0  0  0  0  0  0  0  0
  145.3598  136.2566  161.7083 H   0  0  0  0  0  0  0  0  0  0  0  0
  145.0132  135.6805  163.3288 H   0  0  0  0  0  0  0  0  0  0  0  0
  147.2541  137.1389  162.8228 H   0  0  0  0  0  0  0  0  0  0  0  0
  147.2912  135.8177  163.9741 H   0  0  0  0  0  0  0  0  0  0  0  0
  149.0654  135.1410  162.5431 H   0  0  0  0  0  0  0  0  0  0  0  0
  147.6511  133.2921  162.8641 H   0  0  0  0  0  0  0  0  0  0  0  0
  147.6974  133.2597  161.1253 H   0  0  0  0  0  0  0  0  0  0  0  0
  145.9999  132.2005  158.5514 H   0  0  0  0  0  0  0  0  0  0  0  0
  1  2  1  0  0  0  0
  1 20  1  0  0  0  0
  1 21  1  0  0  0  0
  1 22  1  0  0  0  0
  2  3  1  0  0  0  0
  2 23  1  0  0  0  0
  2 24  1  0  0  0  0
  3 19  1  0  0  0  0
  3  4  2  0  0  0  0
  4  5  1  0  0  0  0
  5  6  1  0  0  0  0
  5 18  2  0  0  0  0
  6  7  1  0  0  0  0
  6 25  1  0  0  0  0
  6 26  1  0  0  0  0
  7  8  2  0  0  0  0
  7  9  1  0  0  0  0
  9 10  1  0  0  0  0
  9 27  1  0  0  0  0
 10 17  1  0  0  0  0
 10 11  1  0  0  0  0
 10 28  1  0  0  0  0
 11 12  1  0  0  0  0
 11 29  1  0  0  0  0
 11 30  1  0  0  0  0
 12 13  1  0  0  0  0
 12 31  1  0  0  0  0
 12 32  1  0  0  0  0
 13 14  1  0  0  0  0
 13 17  1  0  0  0  0
 13 33  1  0  0  0  0
 14 15  2  0  0  0  0
 14 16  1  0  0  0  0
 17 34  1  0  0  0  0
 17 35  1  0  0  0  0
 18 19  1  0  0  0  0
 18 36  1  0  0  0  0
M  CHG  1  16  -1
M  END
> <s_m_source_file>
AV-unprocessed.smi

> <i_m_source_file_index>
2405

> <i_lp_mmshare_version>
43012

> <i_f3d_flags>
0

> <s_epik_input>
W0NIM11bQ0gyXWMxbmMoW2NIXXMxKVtDSDJdQyg9TylbTkhdW0NAQEhdMltDSDJdW0NIMl1bQ0BIXShbQ0gyXTIpQyg9TylbT0hd

> <s_epik_cmdline>
J2VwaWtfcHl0aG9uJywgJy1waCcsICc3LjAnLCAnLXRuJywgJzgnLCAnLW1hJywgJzIwMCcsICctbWV0YWxfYmluZGluZycsICctaW1hZScsICc8aW5maWxlLm1hZT4nLCAnLW9tYWUnLCAnPG91dGZpbGUubWFlPic=

> <r_epik_Ionization_Penalty>
0.000544611

> <r_epik_Ionization_Penalty_Charging>
0.000481685

> <r_epik_Ionization_Penalty_Neutral>
6.29266e-05

> <r_epik_State_Penalty>
0.00029893

> <r_epik_Charging_Adjusted_Penalty>
0.000780614

> <i_epik_Tot_Q>
-1

> <i_epik_Tot_abs_Q>
1

> <r_epik_Metal_State_Penalty>
-0

> <b_epik_Metal_Only>
0

> <s_lp_Force_Field>
OPLS_2005

> <r_lp_Energy>
7.32439

> <b_lp_Chiralities_Consistent>
1

> <s_lp_Variant>
AV-unprocessed.smi:2405-3

> <Gold.Version>
5.8.1

> <Gold.Id.Protein>
6NUR|6NUR_protein|mol2

> <Gold.PLP.Fitness>
41.1038

> <Gold.PLP.PLP>
-26.2517

> <Gold.PLP.part.hbond>
-3.0000

> <Gold.PLP.part.metal>
0.0000

> <Gold.PLP.part.buried>
-3.3443

> <Gold.PLP.part.nonpolar>
-20.5849

> <Gold.PLP.part.repulsive>
0.1650

> <Gold.PLP.ligand.clash>
0.0000

> <Gold.PLP.ligand.torsion>
0.3832

> <Gold.PLP.Chemscore.Hbond>
5.1928

> <Gold.PLP.Chemscore.CHOScore>
0.0000

> <Gold.PLP.Chemscore.Metal>
0.0000

> <Gold.Chemscore.Hbonds>
donor molecule, donor type, donor heavy atom, donor atom, acceptor molecule, acceptor atom, score
      P1  H  6896  6909       L1    15  1.98
      P1  H  6931  6943       L1    16  1.30
      P1  H  6934  6947       L1    16  1.30

> <Gold.PLP.Chemscore.Internal.Correction>
0.0402

> <Gold.Rescore>
     Score         DG    S(hbond)    S(metal)    S(lipo)     H(rot)  DE(clash)    DE(int)     intcor
     13.64     -13.97       1.82        0.00      65.59       2.06       0.11       0.22       ----

> <Gold.Chemscore.Fitness>
13.6384

> <Gold.Chemscore.DG>
-13.9666

> <Gold.Chemscore.ZeroCoef>
-5.4800

> <Gold.Chemscore.Hbond>
1.8247

> <Gold.Chemscore.Metal>
0.0000

> <Gold.Chemscore.Lipo>
65.5946

> <Gold.Chemscore.Internal_Hbond>
0.0000

> <Gold.Chemscore.DEClash>
0.1103

> <Gold.Chemscore.DEInternal>
0.2179

> <Gold.Chemscore.Rot>
2.0635

> <Gold.Chemscore.Internal.Correction>
   9.000000E+99

> <Gold.Chemscore.Hbonds>
donor molecule, donor type, donor heavy atom, donor atom, acceptor molecule, acceptor atom, score
      P1  H  6896  6909       L1    15  0.94
      P1  H  6931  6943       L1    16  0.35
      P1  H  6934  6947       L1    16  0.64

> <Gold.Chemscore.Hbond.Weighted>
-6.0944

> <Gold.Chemscore.Metal.Weighted>
-0.0000

> <Gold.Chemscore.Lipo.Weighted>
-7.6746

> <Gold.Chemscore.Internal_Hbond.Weighted>
0.0000

> <Gold.Chemscore.DEClash.Weighted>
0.1103

> <Gold.Chemscore.DEInternal.Weighted>
0.2179

> <Gold.Chemscore.Rot.Weighted>
5.2825

> <Gold.Chemscore.Internal.Correction.Weighted>
   9.000000E+99

> <Gold.Protein.RotatedTorsions>
[ 6907 6896 6895 6894 ] final   53.26 input  -60.11 | X-H torsion
[ 7974 7965 7964 7962 ] final   65.14 input  175.53 | X-H torsion
[ 8008 7997 7996 7995 ] final -148.34 input   59.86 | X-H torsion
[ 10167 10162 10161 10158 ] final  -12.17 input  -65.29 | X-H torsion
[ 10718 10713 10712 10709 ] final   82.57 input   66.30 | X-H torsion
[ 10763 10752 10751 10750 ] final  154.36 input  -60.55 | X-H torsion
[ 11005 11000 10999 10996 ] final   -5.76 input  -57.11 | X-H torsion

> <Gold.Protein.ActiveResidues>
 VAL166  LYS551  ARG553  GLY616  TRP617  ASP618  TYR619  PRO620  LYS621  CYS622 
 ASP623  PHE694  ASN695  SER759  ASP760  ASP761  ALA762  ILE779  LEU786  VAL792 
 PHE793  MET794  SER795  GLU796  ALA797  LYS798  CYS799  TRP800  GLU811  SER814 

> <Gold.Protein.RotatedAtoms>
  152.3319  134.7248  160.0287 H   0  0  0  0  0  0  0  0  0  0  0  0  # atno 6907 bound_to 6896
  151.7662  133.3332  159.3440 H   0  0  0  0  0  0  0  0  0  0  0  0  # atno 6908 bound_to 6896
  150.7428  134.5992  159.6072 H   0  0  0  0  0  0  0  0  0  0  0  0  # atno 6909 bound_to 6896
  145.8420  139.3201  143.0926 H   0  0  0  0  0  0  0  0  0  0  0  0  # atno 7974 bound_to 7965
  155.5901  140.0652  157.2761 H   0  0  0  0  0  0  0  0  0  0  0  0  # atno 8008 bound_to 7997
  154.4307  140.1837  156.1112 H   0  0  0  0  0  0  0  0  0  0  0  0  # atno 8009 bound_to 7997
  156.0239  140.3314  155.7071 H   0  0  0  0  0  0  0  0  0  0  0  0  # atno 8010 bound_to 7997
  140.7155  143.5561  150.9247 H   0  0  0  0  0  0  0  0  0  0  0  0  # atno 10167 bound_to 10162
  157.6860  131.0053  150.2394 H   0  0  0  0  0  0  0  0  0  0  0  0  # atno 10718 bound_to 10713
  154.1511  135.2815  155.3135 H   0  0  0  0  0  0  0  0  0  0  0  0  # atno 10763 bound_to 10752
  154.6217  135.5465  153.7585 H   0  0  0  0  0  0  0  0  0  0  0  0  # atno 10764 bound_to 10752
  153.0221  135.6440  154.1655 H   0  0  0  0  0  0  0  0  0  0  0  0  # atno 10765 bound_to 10752
  140.6947  133.9041  155.8642 H   0  0  0  0  0  0  0  0  0  0  0  0  # atno 11005 bound_to 11000
  145.9455  140.8948  143.0286 LP  0  0  0  0  0  0  0  0  0  0  0  0  # atno 17320 bound_to 7965
  144.6733  140.1607  143.7422 LP  0  0  0  0  0  0  0  0  0  0  0  0  # atno 17321 bound_to 7965
  139.9286  143.6520  152.3081 LP  0  0  0  0  0  0  0  0  0  0  0  0  # atno 17342 bound_to 10162
  139.6963  144.7641  151.1351 LP  0  0  0  0  0  0  0  0  0  0  0  0  # atno 17343 bound_to 10162
  156.3012  130.3758  149.7749 LP  0  0  0  0  0  0  0  0  0  0  0  0  # atno 17370 bound_to 10713
  156.5378  130.8286  151.3259 LP  0  0  0  0  0  0  0  0  0  0  0  0  # atno 17371 bound_to 10713
  141.0213  134.0885  157.4117 LP  0  0  0  0  0  0  0  0  0  0  0  0  # atno 17394 bound_to 11000
  139.8913  135.0118  156.6787 LP  0  0  0  0  0  0  0  0  0  0  0  0  # atno 17395 bound_to 11000

$$$$
