AV-unprocessed.smi:1155|AV-procd|sdf|4904|dock3
  -GOLD-   22720 3483D 1   1.00000     0.00000
 Structure written by MMmdl.
 38 40  0  0  0  0  0  0  0  0  1 V2000
  153.4184  140.9921  160.0713 C   0  0  0  0  0  0  0  0  0  0  0  0
  152.4477  142.0580  159.8094 N   0  0  0  0  0  0  0  0  0  0  0  0
  151.6129  141.9240  158.6828 C   0  0  0  0  0  0  0  0  0  0  0  0
  150.6879  142.8532  158.3553 C   0  0  0  0  0  0  0  0  0  0  0  0
  149.8133  142.7794  157.2609 N   0  0  0  0  0  0  0  0  0  0  0  0
  149.1117  141.7261  156.8018 C   0  0  0  0  0  0  0  0  0  0  0  0
  149.1559  140.5814  157.2516 O   0  0  0  0  0  0  0  0  0  0  0  0
  148.3505  142.0816  155.7551 N   0  0  0  0  0  0  0  0  0  0  0  0
  147.4730  141.2107  154.9750 C   0  0  0  0  0  0  0  0  0  0  0  0
  148.1507  140.5641  153.7756 C   0  0  0  0  0  0  0  0  0  0  0  0
  147.6276  139.2792  153.1790 C   0  0  0  0  0  0  0  0  0  0  0  0
  148.9460  139.2894  153.9202 C   0  0  0  0  0  0  0  0  0  0  0  0
  146.1626  141.8686  154.5695 C   0  0  0  0  0  0  0  0  0  0  0  0
  146.1421  143.2265  153.9111 C   0  0  0  0  0  0  0  0  0  0  0  0
  145.6188  143.0609  155.3204 C   0  0  0  0  0  0  0  0  0  0  0  0
  150.5792  144.0034  159.2275 C   0  0  0  0  0  0  0  0  0  0  0  0
  151.3704  144.1367  160.3096 C   0  0  0  0  0  0  0  0  0  0  0  0
  152.3733  143.1265  160.6545 C   0  0  0  0  0  0  0  0  0  0  0  0
  153.1006  143.2333  161.6423 O   0  0  0  0  0  0  0  0  0  0  0  0
  153.4273  140.2268  159.2944 H   0  0  0  0  0  0  0  0  0  0  0  0
  153.1932  140.4961  161.0166 H   0  0  0  0  0  0  0  0  0  0  0  0
  154.4291  141.3981  160.1333 H   0  0  0  0  0  0  0  0  0  0  0  0
  151.7782  141.0128  158.1306 H   0  0  0  0  0  0  0  0  0  0  0  0
  149.7050  143.6429  156.7495 H   0  0  0  0  0  0  0  0  0  0  0  0
  148.3880  143.0469  155.4620 H   0  0  0  0  0  0  0  0  0  0  0  0
  147.2174  140.4024  155.6617 H   0  0  0  0  0  0  0  0  0  0  0  0
  148.5389  141.2809  153.0543 H   0  0  0  0  0  0  0  0  0  0  0  0
  146.7838  138.7956  153.6667 H   0  0  0  0  0  0  0  0  0  0  0  0
  147.6593  139.1806  152.0958 H   0  0  0  0  0  0  0  0  0  0  0  0
  149.8562  139.1971  153.3312 H   0  0  0  0  0  0  0  0  0  0  0  0
  148.9742  138.8170  154.9000 H   0  0  0  0  0  0  0  0  0  0  0  0
  145.4131  141.1644  154.2130 H   0  0  0  0  0  0  0  0  0  0  0  0
  147.0915  143.7431  153.7847 H   0  0  0  0  0  0  0  0  0  0  0  0
  145.4144  143.3869  153.1183 H   0  0  0  0  0  0  0  0  0  0  0  0
  144.5419  143.1134  155.4670 H   0  0  0  0  0  0  0  0  0  0  0  0
  146.2202  143.4740  156.1278 H   0  0  0  0  0  0  0  0  0  0  0  0
  149.8537  144.7733  159.0087 H   0  0  0  0  0  0  0  0  0  0  0  0
  151.2651  145.0084  160.9384 H   0  0  0  0  0  0  0  0  0  0  0  0
  1  2  1  0  0  0  0
  1 20  1  0  0  0  0
  1 21  1  0  0  0  0
  1 22  1  0  0  0  0
  2 18  1  0  0  0  0
  2  3  1  0  0  0  0
  3  4  2  0  0  0  0
  3 23  1  0  0  0  0
  4  5  1  0  0  0  0
  4 16  1  0  0  0  0
  5  6  1  0  0  0  0
  5 24  1  0  0  0  0
  6  7  2  0  0  0  0
  6  8  1  0  0  0  0
  8  9  1  0  0  0  0
  8 25  1  0  0  0  0
  9 10  1  0  0  0  0
  9 13  1  0  0  0  0
  9 26  1  0  0  0  0
 10 12  1  0  0  0  0
 10 11  1  0  0  0  0
 10 27  1  0  0  0  0
 11 12  1  0  0  0  0
 11 28  1  0  0  0  0
 11 29  1  0  0  0  0
 12 30  1  0  0  0  0
 12 31  1  0  0  0  0
 13 15  1  0  0  0  0
 13 14  1  0  0  0  0
 13 32  1  0  0  0  0
 14 15  1  0  0  0  0
 14 33  1  0  0  0  0
 14 34  1  0  0  0  0
 15 35  1  0  0  0  0
 15 36  1  0  0  0  0
 16 17  2  0  0  0  0
 16 37  1  0  0  0  0
 17 18  1  0  0  0  0
 17 38  1  0  0  0  0
 18 19  2  0  0  0  0
M  END
> <s_m_source_file>
AV-unprocessed.smi

> <i_m_source_file_index>
1155

> <i_lp_mmshare_version>
43012

> <i_f3d_flags>
0

> <s_epik_input>
Tz1jMVtjSF1bY0hdYyhbY0hdbjFbQ0gzXSlbTkhdQyg9TylbTkhdW0NIXShbQ0hdMltDSDJdW0NIMl0yKVtDSF0zW0NIMl1bQ0gyXTM=

> <s_epik_cmdline>
J2VwaWtfcHl0aG9uJywgJy1waCcsICc3LjAnLCAnLXRuJywgJzgnLCAnLW1hJywgJzIwMCcsICctbWV0YWxfYmluZGluZycsICctaW1hZScsICc8aW5maWxlLm1hZT4nLCAnLW9tYWUnLCAnPG91dGZpbGUubWFlPic=

> <r_lp_tautomer_probability>
1

> <r_epik_Ionization_Penalty>
2.79104e-05

> <r_epik_Ionization_Penalty_Charging>
6.05378e-06

> <r_epik_Ionization_Penalty_Neutral>
2.18566e-05

> <r_epik_State_Penalty>
-0

> <r_epik_Charging_Adjusted_Penalty>
6.05378e-06

> <i_epik_Tot_Q>
0

> <i_epik_Tot_abs_Q>
0

> <r_epik_Metal_State_Penalty>
-0

> <b_epik_Metal_Only>
0

> <s_lp_Force_Field>
OPLS_2005

> <r_lp_Energy>
36.9075

> <b_lp_Chiralities_Consistent>
1

> <s_lp_Variant>
AV-unprocessed.smi:1155-1

> <Gold.Version>
5.8.1

> <Gold.Id.Protein>
6NUR|6NUR_protein|mol2

> <Gold.PLP.Fitness>
41.6366

> <Gold.PLP.PLP>
-37.0328

> <Gold.PLP.part.hbond>
-2.0000

> <Gold.PLP.part.metal>
0.0000

> <Gold.PLP.part.buried>
-1.4975

> <Gold.PLP.part.nonpolar>
-32.6306

> <Gold.PLP.part.repulsive>
0.1973

> <Gold.PLP.ligand.clash>
0.0000

> <Gold.PLP.ligand.torsion>
1.7850

> <Gold.PLP.Chemscore.Hbond>
2.0000

> <Gold.PLP.Chemscore.CHOScore>
0.0000

> <Gold.PLP.Chemscore.Metal>
0.0000

> <Gold.Chemscore.Hbonds>
donor molecule, donor type, donor heavy atom, donor atom, acceptor molecule, acceptor atom, score
      L1  H     5    24       P1  8028  1.00
      L1  H     8    25       P1  8028  1.00

> <Gold.PLP.Chemscore.Internal.Correction>
2.1738

> <Gold.Rescore>
     Score         DG    S(hbond)    S(metal)    S(lipo)     H(rot)  DE(clash)    DE(int)     intcor
     15.33     -18.32       1.88        0.00      85.67       1.35       1.13       1.86       ----

> <Gold.Chemscore.Fitness>
15.3278

> <Gold.Chemscore.DG>
-18.3156

> <Gold.Chemscore.ZeroCoef>
-5.4800

> <Gold.Chemscore.Hbond>
1.8766

> <Gold.Chemscore.Metal>
0.0000

> <Gold.Chemscore.Lipo>
85.6740

> <Gold.Chemscore.Internal_Hbond>
0.0000

> <Gold.Chemscore.DEClash>
1.1261

> <Gold.Chemscore.DEInternal>
1.8618

> <Gold.Chemscore.Rot>
1.3500

> <Gold.Chemscore.Internal.Correction>
   9.000000E+99

> <Gold.Chemscore.Hbonds>
donor molecule, donor type, donor heavy atom, donor atom, acceptor molecule, acceptor atom, score
      L1  H     5    24       P1  8028  0.98
      L1  H     8    25       P1  8028  0.96

> <Gold.Chemscore.Hbond.Weighted>
-6.2678

> <Gold.Chemscore.Metal.Weighted>
-0.0000

> <Gold.Chemscore.Lipo.Weighted>
-10.0239

> <Gold.Chemscore.Internal_Hbond.Weighted>
0.0000

> <Gold.Chemscore.DEClash.Weighted>
1.1261

> <Gold.Chemscore.DEInternal.Weighted>
1.8618

> <Gold.Chemscore.Rot.Weighted>
3.4560

> <Gold.Chemscore.Internal.Correction.Weighted>
   9.000000E+99

> <Gold.Protein.RotatedTorsions>
[ 6907 6896 6895 6894 ] final  -54.30 input  -60.11 | X-H torsion
[ 7974 7965 7964 7962 ] final   88.64 input  175.53 | X-H torsion
[ 8008 7997 7996 7995 ] final  142.67 input   59.86 | X-H torsion
[ 10167 10162 10161 10158 ] final  170.56 input  -65.29 | X-H torsion
[ 10718 10713 10712 10709 ] final  139.73 input   66.30 | X-H torsion
[ 10763 10752 10751 10750 ] final   40.25 input  -60.55 | X-H torsion
[ 11005 11000 10999 10996 ] final   77.44 input  -57.11 | X-H torsion

> <Gold.Protein.ActiveResidues>
 VAL166  LYS551  ARG553  GLY616  TRP617  ASP618  TYR619  PRO620  LYS621  CYS622 
 ASP623  PHE694  ASN695  SER759  ASP760  ASP761  ALA762  ILE779  LEU786  VAL792 
 PHE793  MET794  SER795  GLU796  ALA797  LYS798  CYS799  TRP800  GLU811  SER814 

> <Gold.Protein.RotatedAtoms>
  150.8350  134.7619  159.6885 H   0  0  0  0  0  0  0  0  0  0  0  0  # atno 6907 bound_to 6896
  152.4448  134.5513  159.9877 H   0  0  0  0  0  0  0  0  0  0  0  0  # atno 6908 bound_to 6896
  151.5665  133.3358  159.3017 H   0  0  0  0  0  0  0  0  0  0  0  0  # atno 6909 bound_to 6896
  145.5429  139.2290  143.2555 H   0  0  0  0  0  0  0  0  0  0  0  0  # atno 7974 bound_to 7965
  156.2945  140.2283  156.4765 H   0  0  0  0  0  0  0  0  0  0  0  0  # atno 8008 bound_to 7997
  154.7890  140.0455  157.1207 H   0  0  0  0  0  0  0  0  0  0  0  0  # atno 8009 bound_to 7997
  154.9668  140.3061  155.5009 H   0  0  0  0  0  0  0  0  0  0  0  0  # atno 8010 bound_to 7997
  139.5022  144.3583  151.9852 H   0  0  0  0  0  0  0  0  0  0  0  0  # atno 10167 bound_to 10162
  157.4112  131.1028  151.0452 H   0  0  0  0  0  0  0  0  0  0  0  0  # atno 10718 bound_to 10713
  152.9942  135.6197  154.2596 H   0  0  0  0  0  0  0  0  0  0  0  0  # atno 10763 bound_to 10752
  154.2332  135.2791  155.2884 H   0  0  0  0  0  0  0  0  0  0  0  0  # atno 10764 bound_to 10752
  154.5432  135.5755  153.6915 H   0  0  0  0  0  0  0  0  0  0  0  0  # atno 10765 bound_to 10752
  139.9254  134.7683  156.1522 H   0  0  0  0  0  0  0  0  0  0  0  0  # atno 11005 bound_to 11000
  146.1968  140.6250  142.9120 LP  0  0  0  0  0  0  0  0  0  0  0  0  # atno 17320 bound_to 7965
  144.7568  140.5325  143.6763 LP  0  0  0  0  0  0  0  0  0  0  0  0  # atno 17321 bound_to 7965
  140.3019  144.3637  150.6058 LP  0  0  0  0  0  0  0  0  0  0  0  0  # atno 17342 bound_to 10162
  140.5867  143.2169  151.7329 LP  0  0  0  0  0  0  0  0  0  0  0  0  # atno 17343 bound_to 10162
  157.1416  130.6145  149.5557 LP  0  0  0  0  0  0  0  0  0  0  0  0  # atno 17370 bound_to 10713
  155.9851  130.4879  150.7016 LP  0  0  0  0  0  0  0  0  0  0  0  0  # atno 17371 bound_to 10713
  141.0808  133.6755  156.2332 LP  0  0  0  0  0  0  0  0  0  0  0  0  # atno 17394 bound_to 11000
  140.6351  134.5224  157.5564 LP  0  0  0  0  0  0  0  0  0  0  0  0  # atno 17395 bound_to 11000

$$$$
