AV-unprocessed.smi:2528|AV-procd|sdf|9959|dock6
  -GOLD-   2272014 03D 1   1.00000     0.00000
 Structure written by MMmdl.
 43 45  0  0  0  0  0  0  0  0  1 V2000
  151.6251  135.7839  155.6464 O   0  0  0  0  0  0  0  0  0  0  0  0
  150.8290  136.0495  154.7451 C   0  0  0  0  0  0  0  0  0  0  0  0
  150.7936  137.2331  154.1165 N   0  0  0  0  0  0  0  0  0  0  0  0
  151.6690  138.3629  154.4090 C   0  0  0  0  0  0  0  0  0  0  0  0
  151.1183  139.2248  155.5572 C   0  0  1  0  0  0  0  0  0  0  0  0
  152.2083  139.5772  156.5866 C   0  0  0  0  0  0  0  0  0  0  0  0
  151.7033  140.4568  157.6334 N   0  0  0  0  0  0  0  0  0  0  0  0
  152.7501  140.7920  158.5974 C   0  0  0  0  0  0  0  0  0  0  0  0
  152.2338  141.6893  159.7333 C   0  0  0  0  0  0  0  0  0  0  0  0
  151.6118  142.9703  159.1591 C   0  0  0  0  0  0  0  0  0  0  0  0
  150.5509  142.6149  158.1060 C   0  0  0  0  0  0  0  0  0  0  0  0
  151.1298  141.6665  157.0357 C   0  0  2  0  0  0  0  0  0  0  0  0
  150.0553  141.3066  155.9895 C   0  0  0  0  0  0  0  0  0  0  0  0
  150.6076  140.4368  155.0072 O   0  0  0  0  0  0  0  0  0  0  0  0
  149.8895  135.2157  154.2652 N   0  0  0  0  0  0  0  0  0  0  0  0
  149.6364  133.8686  154.6379 C   0  0  0  0  0  0  0  0  0  0  0  0
  148.9422  133.1018  153.6747 C   0  0  0  0  0  0  0  0  0  0  0  0
  148.6512  131.7502  153.9429 C   0  0  0  0  0  0  0  0  0  0  0  0
  149.0617  131.1990  155.1697 C   0  0  0  0  0  0  0  0  0  0  0  0
  149.7459  132.0316  156.0744 C   0  0  0  0  0  0  0  0  0  0  0  0
  150.0263  133.3272  155.8193 N   0  0  0  0  0  0  0  0  0  0  0  0
  150.1038  137.3699  153.3925 H   0  0  0  0  0  0  0  0  0  0  0  0
  152.6700  138.0020  154.6516 H   0  0  0  0  0  0  0  0  0  0  0  0
  151.7682  138.9640  153.5048 H   0  0  0  0  0  0  0  0  0  0  0  0
  150.3108  138.6890  156.0599 H   0  0  0  0  0  0  0  0  0  0  0  0
  152.5952  138.6606  157.0337 H   0  0  0  0  0  0  0  0  0  0  0  0
  153.0476  140.0537  156.0773 H   0  0  0  0  0  0  0  0  0  0  0  0
  153.1599  139.8768  159.0262 H   0  0  0  0  0  0  0  0  0  0  0  0
  153.5762  141.2910  158.0883 H   0  0  0  0  0  0  0  0  0  0  0  0
  151.4888  141.1484  160.3183 H   0  0  0  0  0  0  0  0  0  0  0  0
  153.0465  141.9385  160.4158 H   0  0  0  0  0  0  0  0  0  0  0  0
  151.1697  143.5685  159.9562 H   0  0  0  0  0  0  0  0  0  0  0  0
  152.3906  143.5825  158.7025 H   0  0  0  0  0  0  0  0  0  0  0  0
  149.6979  142.1425  158.5954 H   0  0  0  0  0  0  0  0  0  0  0  0
  150.1756  143.5261  157.6394 H   0  0  0  0  0  0  0  0  0  0  0  0
  151.9248  142.2027  156.5137 H   0  0  0  0  0  0  0  0  0  0  0  0
  149.1946  140.8288  156.4604 H   0  0  0  0  0  0  0  0  0  0  0  0
  149.6897  142.2058  155.4932 H   0  0  0  0  0  0  0  0  0  0  0  0
  149.2962  135.5828  153.5362 H   0  0  0  0  0  0  0  0  0  0  0  0
  148.6352  133.5405  152.7362 H   0  0  0  0  0  0  0  0  0  0  0  0
  148.1236  131.1473  153.2187 H   0  0  0  0  0  0  0  0  0  0  0  0
  148.8583  130.1661  155.4108 H   0  0  0  0  0  0  0  0  0  0  0  0
  150.0781  131.6472  157.0274 H   0  0  0  0  0  0  0  0  0  0  0  0
  1  2  2  0  0  0  0
  2  3  1  0  0  0  0
  2 15  1  0  0  0  0
  3  4  1  0  0  0  0
  3 22  1  0  0  0  0
  4  5  1  0  0  0  0
  4 23  1  0  0  0  0
  4 24  1  0  0  0  0
  5 14  1  0  0  0  0
  5  6  1  0  0  0  0
  5 25  1  0  0  0  0
  6  7  1  0  0  0  0
  6 26  1  0  0  0  0
  6 27  1  0  0  0  0
  7 12  1  0  0  0  0
  7  8  1  0  0  0  0
  8  9  1  0  0  0  0
  8 28  1  0  0  0  0
  8 29  1  0  0  0  0
  9 10  1  0  0  0  0
  9 30  1  0  0  0  0
  9 31  1  0  0  0  0
 10 11  1  0  0  0  0
 10 32  1  0  0  0  0
 10 33  1  0  0  0  0
 11 12  1  0  0  0  0
 11 34  1  0  0  0  0
 11 35  1  0  0  0  0
 12 13  1  0  0  0  0
 12 36  1  0  0  0  0
 13 14  1  0  0  0  0
 13 37  1  0  0  0  0
 13 38  1  0  0  0  0
 15 16  1  0  0  0  0
 15 39  1  0  0  0  0
 16 21  1  0  0  0  0
 16 17  2  0  0  0  0
 17 18  1  0  0  0  0
 17 40  1  0  0  0  0
 18 19  2  0  0  0  0
 18 41  1  0  0  0  0
 19 20  1  0  0  0  0
 19 42  1  0  0  0  0
 20 21  2  0  0  0  0
 20 43  1  0  0  0  0
M  END
> <s_m_source_file>
AV-unprocessed.smi

> <i_m_source_file_index>
2528

> <i_lp_mmshare_version>
43012

> <i_f3d_flags>
0

> <s_epik_input>
bjFbY0hdW2NIXVtjSF1bY0hdYzFbTkhdQyg9TylbTkhdW0NIMl1bQ0BIXShbQ0gyXTIpT1tDSDJdW0NAQEhdKE4yMylbQ0gyXVtDSDJdW0NIMl1bQ0gyXTM=

> <s_epik_cmdline>
J2VwaWtfcHl0aG9uJywgJy1waCcsICc3LjAnLCAnLXRuJywgJzgnLCAnLW1hJywgJzIwMCcsICctbWV0YWxfYmluZGluZycsICctaW1hZScsICc8aW5maWxlLm1hZT4nLCAnLW9tYWUnLCAnPG91dGZpbGUubWFlPic=

> <r_epik_Ionization_Penalty>
1.14192

> <r_epik_Ionization_Penalty_Charging>
0

> <r_epik_Ionization_Penalty_Neutral>
1.14192

> <r_epik_State_Penalty>
1.20248

> <r_epik_Charging_Adjusted_Penalty>
1.20248

> <i_epik_Tot_Q>
0

> <i_epik_Tot_abs_Q>
0

> <r_epik_Metal_State_Penalty>
1.20248

> <b_epik_Metal_Only>
0

> <s_lp_Force_Field>
OPLS_2005

> <r_lp_Energy>
35.0124

> <b_lp_Chiralities_Consistent>
1

> <s_lp_Variant>
AV-unprocessed.smi:2528-12

> <Gold.Version>
5.8.1

> <Gold.Id.Protein>
6NUR|6NUR_protein|mol2

> <Gold.PLP.Fitness>
46.4943

> <Gold.PLP.PLP>
-37.7976

> <Gold.PLP.part.hbond>
-5.8058

> <Gold.PLP.part.metal>
0.0000

> <Gold.PLP.part.buried>
-2.3605

> <Gold.PLP.part.nonpolar>
-30.0823

> <Gold.PLP.part.repulsive>
0.2755

> <Gold.PLP.ligand.clash>
0.0000

> <Gold.PLP.ligand.torsion>
0.9354

> <Gold.PLP.Chemscore.Hbond>
3.5223

> <Gold.PLP.Chemscore.CHOScore>
0.0000

> <Gold.PLP.Chemscore.Metal>
0.0000

> <Gold.Chemscore.Hbonds>
donor molecule, donor type, donor heavy atom, donor atom, acceptor molecule, acceptor atom, score
      L1  H     3    22       P1  7948  0.50
      L1  H    15    39       P1  7948  1.00
      P1  H  7989  7998       L1    14  1.00
      P1  H 10752 10764       L1     1  1.00

> <Gold.PLP.Chemscore.Internal.Correction>
0.0004

> <Gold.Rescore>
     Score         DG    S(hbond)    S(metal)    S(lipo)     H(rot)  DE(clash)    DE(int)     intcor
     18.61     -21.15       2.61        0.00      87.34       1.27       0.44       2.10       ----

> <Gold.Chemscore.Fitness>
18.6053

> <Gold.Chemscore.DG>
-21.1546

> <Gold.Chemscore.ZeroCoef>
-5.4800

> <Gold.Chemscore.Hbond>
2.6066

> <Gold.Chemscore.Metal>
0.0000

> <Gold.Chemscore.Lipo>
87.3400

> <Gold.Chemscore.Internal_Hbond>
0.0000

> <Gold.Chemscore.DEClash>
0.4450

> <Gold.Chemscore.DEInternal>
2.1043

> <Gold.Chemscore.Rot>
1.2696

> <Gold.Chemscore.Internal.Correction>
   9.000000E+99

> <Gold.Chemscore.Hbonds>
donor molecule, donor type, donor heavy atom, donor atom, acceptor molecule, acceptor atom, score
      L1  H     3    22       P1  7948  0.13
      L1  H    15    39       P1  7948  0.38
      P1  H  7989  7998       L1    14  0.68
      P1  H 10752 10764       L1     1  0.30

> <Gold.Chemscore.Hbond.Weighted>
-8.7060

> <Gold.Chemscore.Metal.Weighted>
-0.0000

> <Gold.Chemscore.Lipo.Weighted>
-10.2188

> <Gold.Chemscore.Internal_Hbond.Weighted>
0.0000

> <Gold.Chemscore.DEClash.Weighted>
0.4450

> <Gold.Chemscore.DEInternal.Weighted>
2.1043

> <Gold.Chemscore.Rot.Weighted>
3.2502

> <Gold.Chemscore.Internal.Correction.Weighted>
   9.000000E+99

> <Gold.Protein.RotatedTorsions>
[ 6907 6896 6895 6894 ] final -135.42 input  -60.11 | X-H torsion
[ 7974 7965 7964 7962 ] final -111.08 input  175.53 | X-H torsion
[ 8008 7997 7996 7995 ] final  128.95 input   59.86 | X-H torsion
[ 10167 10162 10161 10158 ] final  -21.22 input  -65.29 | X-H torsion
[ 10718 10713 10712 10709 ] final -123.93 input   66.30 | X-H torsion
[ 10763 10752 10751 10750 ] final  -47.14 input  -60.55 | X-H torsion
[ 11005 11000 10999 10996 ] final -151.92 input  -57.11 | X-H torsion

> <Gold.Protein.ActiveResidues>
 VAL166  LYS551  ARG553  GLY616  TRP617  ASP618  TYR619  PRO620  LYS621  CYS622 
 ASP623  PHE694  ASN695  SER759  ASP760  ASP761  ALA762  ILE779  LEU786  VAL792 
 PHE793  MET794  SER795  GLU796  ALA797  LYS798  CYS799  TRP800  GLU811  SER814 

> <Gold.Protein.RotatedAtoms>
  150.9977  133.6087  159.2699 H   0  0  0  0  0  0  0  0  0  0  0  0  # atno 6907 bound_to 6896
  151.3285  135.0835  159.9340 H   0  0  0  0  0  0  0  0  0  0  0  0  # atno 6908 bound_to 6896
  152.5264  133.9611  159.7771 H   0  0  0  0  0  0  0  0  0  0  0  0  # atno 6909 bound_to 6896
  145.1604  140.8875  143.3594 H   0  0  0  0  0  0  0  0  0  0  0  0  # atno 7974 bound_to 7965
  156.2926  140.2632  156.2520 H   0  0  0  0  0  0  0  0  0  0  0  0  # atno 8008 bound_to 7997
  154.9873  140.0389  157.2323 H   0  0  0  0  0  0  0  0  0  0  0  0  # atno 8009 bound_to 7997
  154.7717  140.2779  155.6137 H   0  0  0  0  0  0  0  0  0  0  0  0  # atno 8010 bound_to 7997
  140.7281  143.4648  151.0329 H   0  0  0  0  0  0  0  0  0  0  0  0  # atno 10167 bound_to 10162
  156.1544  130.6558  150.9961 H   0  0  0  0  0  0  0  0  0  0  0  0  # atno 10718 bound_to 10713
  154.0566  135.6624  153.4806 H   0  0  0  0  0  0  0  0  0  0  0  0  # atno 10763 bound_to 10752
  153.0443  135.5125  154.7700 H   0  0  0  0  0  0  0  0  0  0  0  0  # atno 10764 bound_to 10752
  154.6723  135.3031  154.9692 H   0  0  0  0  0  0  0  0  0  0  0  0  # atno 10765 bound_to 10752
  140.7244  134.3691  157.5178 H   0  0  0  0  0  0  0  0  0  0  0  0  # atno 11005 bound_to 11000
  145.0337  139.3319  143.6012 LP  0  0  0  0  0  0  0  0  0  0  0  0  # atno 17320 bound_to 7965
  146.3483  139.9684  142.8709 LP  0  0  0  0  0  0  0  0  0  0  0  0  # atno 17321 bound_to 7965
  139.8335  143.7659  152.3180 LP  0  0  0  0  0  0  0  0  0  0  0  0  # atno 17342 bound_to 10162
  139.7783  144.7453  151.0125 LP  0  0  0  0  0  0  0  0  0  0  0  0  # atno 17343 bound_to 10162
  157.6683  131.0867  150.7674 LP  0  0  0  0  0  0  0  0  0  0  0  0  # atno 17370 bound_to 10713
  156.7740  130.4838  149.5413 LP  0  0  0  0  0  0  0  0  0  0  0  0  # atno 17371 bound_to 10713
  139.8840  134.8976  156.2727 LP  0  0  0  0  0  0  0  0  0  0  0  0  # atno 17394 bound_to 11000
  140.9976  133.7171  156.0909 LP  0  0  0  0  0  0  0  0  0  0  0  0  # atno 17395 bound_to 11000

$$$$
