AV-unprocessed.smi:2564|AV-procd|sdf|10062|dock10
  -GOLD-   2272014103D 1   1.00000     0.00000
 Structure written by MMmdl.
 29 30  0  0  0  0  0  0  0  0  2 V2000
  152.3892  144.2077  158.8459 C   0  0  0  0  0  0  0  0  0  0  0  0
  152.3252  143.2762  159.8983 C   0  0  0  0  0  0  0  0  0  0  0  0
  151.6131  142.1300  159.8134 N   0  0  0  0  0  0  0  0  0  0  0  0
  150.9332  141.8451  158.6972 N   0  0  0  0  0  0  0  0  0  0  0  0
  150.9507  142.6980  157.6419 C   0  0  0  0  0  0  0  0  0  0  0  0
  150.2252  142.3710  156.4886 N   0  0  0  0  0  0  0  0  0  0  0  0
  150.6141  141.2313  155.6699 C   0  0  0  0  0  0  0  0  0  0  0  0
  149.3973  140.5567  155.0223 C   0  0  2  0  0  0  0  0  0  0  0  0
  149.8069  139.3314  154.1810 C   0  0  0  0  0  0  0  0  0  0  0  0
  148.6263  138.7597  153.5041 N   0  3  0  0  0  0  0  0  0  0  0  0
  147.9187  139.7733  152.6980 C   0  0  0  0  0  0  0  0  0  0  0  0
  147.5735  140.9917  153.5702 C   0  0  0  0  0  0  0  0  0  0  0  0
  148.7627  141.5024  154.1638 O   0  0  0  0  0  0  0  0  0  0  0  0
  151.6747  143.9064  157.6735 C   0  0  0  0  0  0  0  0  0  0  0  0
  152.9641  145.1174  158.9360 H   0  0  0  0  0  0  0  0  0  0  0  0
  152.8525  143.4518  160.8241 H   0  0  0  0  0  0  0  0  0  0  0  0
  149.5173  143.0039  156.1453 H   0  0  0  0  0  0  0  0  0  0  0  0
  151.3212  141.5517  154.9033 H   0  0  0  0  0  0  0  0  0  0  0  0
  151.1318  140.5118  156.3056 H   0  0  0  0  0  0  0  0  0  0  0  0
  148.7021  140.2438  155.8040 H   0  0  0  0  0  0  0  0  0  0  0  0
  150.5474  139.6133  153.4311 H   0  0  0  0  0  0  0  0  0  0  0  0
  150.2622  138.5667  154.8109 H   0  0  0  0  0  0  0  0  0  0  0  0
  148.9157  137.9973  152.9080 H   0  0  0  0  0  0  0  0  0  0  0  0
  148.5531  140.0748  151.8634 H   0  0  0  0  0  0  0  0  0  0  0  0
  147.0153  139.3341  152.2744 H   0  0  0  0  0  0  0  0  0  0  0  0
  147.1164  141.7726  152.9622 H   0  0  0  0  0  0  0  0  0  0  0  0
  146.8515  140.7268  154.3443 H   0  0  0  0  0  0  0  0  0  0  0  0
  151.6832  144.5810  156.8299 H   0  0  0  0  0  0  0  0  0  0  0  0
  147.9925  138.4060  154.2067 H   0  0  0  0  0  0  0  0  0  0  0  0
  1 14  1  0  0  0  0
  1  2  2  0  0  0  0
  1 15  1  0  0  0  0
  2  3  1  0  0  0  0
  2 16  1  0  0  0  0
  3  4  2  0  0  0  0
  4  5  1  0  0  0  0
  5  6  1  0  0  0  0
  5 14  2  0  0  0  0
  6  7  1  0  0  0  0
  6 17  1  0  0  0  0
  7  8  1  0  0  0  0
  7 18  1  0  0  0  0
  7 19  1  0  0  0  0
  8 13  1  0  0  0  0
  8  9  1  0  0  0  0
  8 20  1  0  0  0  0
  9 10  1  0  0  0  0
  9 21  1  0  0  0  0
  9 22  1  0  0  0  0
 10 11  1  0  0  0  0
 10 23  1  0  0  0  0
 10 29  1  0  0  0  0
 11 12  1  0  0  0  0
 11 24  1  0  0  0  0
 11 25  1  0  0  0  0
 12 13  1  0  0  0  0
 12 26  1  0  0  0  0
 12 27  1  0  0  0  0
 14 28  1  0  0  0  0
M  CHG  1  10   1
M  END
> <s_m_source_file>
AV-unprocessed.smi

> <i_m_source_file_index>
2564

> <i_lp_mmshare_version>
43012

> <i_f3d_flags>
0

> <s_epik_input>
W2NIXTFbY0hdW2NIXW5uYzFbTkhdW0NIMl1bQ0BASF0yW0NIMl1bTkhdW0NIMl1bQ0gyXU8y

> <s_epik_cmdline>
J2VwaWtfcHl0aG9uJywgJy1waCcsICc3LjAnLCAnLXRuJywgJzgnLCAnLW1hJywgJzIwMCcsICctbWV0YWxfYmluZGluZycsICctaW1hZScsICc8aW5maWxlLm1hZT4nLCAnLW9tYWUnLCAnPG91dGZpbGUubWFlPic=

> <r_lp_tautomer_probability>
0.999978

> <r_epik_Ionization_Penalty>
0.0278973

> <r_epik_Ionization_Penalty_Charging>
0.00959556

> <r_epik_Ionization_Penalty_Neutral>
0.0183017

> <r_epik_State_Penalty>
0.0323017

> <r_epik_Charging_Adjusted_Penalty>
0.0418973

> <i_epik_Tot_Q>
1

> <i_epik_Tot_abs_Q>
1

> <r_epik_Metal_State_Penalty>
0.0301524

> <b_epik_Metal_Only>
0

> <s_lp_Force_Field>
OPLS_2005

> <r_lp_Energy>
19.9275

> <b_lp_Chiralities_Consistent>
1

> <s_lp_Variant>
AV-unprocessed.smi:2564-1

> <Gold.Version>
5.8.1

> <Gold.Id.Protein>
6NUR|6NUR_protein|mol2

> <Gold.PLP.Fitness>
38.1830

> <Gold.PLP.PLP>
-29.7830

> <Gold.PLP.part.hbond>
-4.2774

> <Gold.PLP.part.metal>
0.0000

> <Gold.PLP.part.buried>
3.2506

> <Gold.PLP.part.nonpolar>
-28.2696

> <Gold.PLP.part.repulsive>
0.3242

> <Gold.PLP.ligand.clash>
0.0000

> <Gold.PLP.ligand.torsion>
0.8156

> <Gold.PLP.Chemscore.Hbond>
3.3432

> <Gold.PLP.Chemscore.CHOScore>
0.0000

> <Gold.PLP.Chemscore.Metal>
0.0000

> <Gold.Chemscore.Hbonds>
donor molecule, donor type, donor heavy atom, donor atom, acceptor molecule, acceptor atom, score
      L1  H     6    17       P1  8028  1.00
      L1  H    10    23       P1  7948  2.00
      P1  H  8011  8017       L1    13  0.23

> <Gold.PLP.Chemscore.Internal.Correction>
0.0015

> <Gold.Rescore>
     Score         DG    S(hbond)    S(metal)    S(lipo)     H(rot)  DE(clash)    DE(int)     intcor
     15.59     -18.18       2.13        0.00      76.76       1.33       1.88       0.71       ----

> <Gold.Chemscore.Fitness>
15.5932

> <Gold.Chemscore.DG>
-18.1847

> <Gold.Chemscore.ZeroCoef>
-5.4800

> <Gold.Chemscore.Hbond>
2.1307

> <Gold.Chemscore.Metal>
0.0000

> <Gold.Chemscore.Lipo>
76.7560

> <Gold.Chemscore.Internal_Hbond>
0.0000

> <Gold.Chemscore.DEClash>
1.8840

> <Gold.Chemscore.DEInternal>
0.7074

> <Gold.Chemscore.Rot>
1.3251

> <Gold.Chemscore.Internal.Correction>
   9.000000E+99

> <Gold.Chemscore.Hbonds>
donor molecule, donor type, donor heavy atom, donor atom, acceptor molecule, acceptor atom, score
      L1  H     6    17       P1  8028  0.97
      L1  H    10    23       P1  7948  0.93
      P1  H  8011  8017       L1    13  0.07

> <Gold.Chemscore.Hbond.Weighted>
-7.1166

> <Gold.Chemscore.Metal.Weighted>
-0.0000

> <Gold.Chemscore.Lipo.Weighted>
-8.9805

> <Gold.Chemscore.Internal_Hbond.Weighted>
0.0000

> <Gold.Chemscore.DEClash.Weighted>
1.8840

> <Gold.Chemscore.DEInternal.Weighted>
0.7074

> <Gold.Chemscore.Rot.Weighted>
3.3924

> <Gold.Chemscore.Internal.Correction.Weighted>
   9.000000E+99

> <Gold.Protein.RotatedTorsions>
[ 6907 6896 6895 6894 ] final   97.79 input  -60.11 | X-H torsion
[ 7974 7965 7964 7962 ] final  127.84 input  175.53 | X-H torsion
[ 8008 7997 7996 7995 ] final   -6.13 input   59.86 | X-H torsion
[ 10167 10162 10161 10158 ] final    6.59 input  -65.29 | X-H torsion
[ 10718 10713 10712 10709 ] final   42.20 input   66.30 | X-H torsion
[ 10763 10752 10751 10750 ] final   27.71 input  -60.55 | X-H torsion
[ 11005 11000 10999 10996 ] final -167.57 input  -57.11 | X-H torsion

> <Gold.Protein.ActiveResidues>
 VAL166  LYS551  ARG553  GLY616  TRP617  ASP618  TYR619  PRO620  LYS621  CYS622 
 ASP623  PHE694  ASN695  SER759  ASP760  ASP761  ALA762  ILE779  LEU786  VAL792 
 PHE793  MET794  SER795  GLU796  ALA797  LYS798  CYS799  TRP800  GLU811  SER814 

> <Gold.Protein.RotatedAtoms>
  152.5418  134.0679  159.8180 H   0  0  0  0  0  0  0  0  0  0  0  0  # atno 6907 bound_to 6896
  151.0798  133.5392  159.2628 H   0  0  0  0  0  0  0  0  0  0  0  0  # atno 6908 bound_to 6896
  151.2223  135.0531  159.9009 H   0  0  0  0  0  0  0  0  0  0  0  0  # atno 6909 bound_to 6896
  145.0462  139.3921  143.5077 H   0  0  0  0  0  0  0  0  0  0  0  0  # atno 7974 bound_to 7965
  154.5969  140.2441  155.7845 H   0  0  0  0  0  0  0  0  0  0  0  0  # atno 8008 bound_to 7997
  156.2285  140.2974  156.0080 H   0  0  0  0  0  0  0  0  0  0  0  0  # atno 8009 bound_to 7997
  155.2278  140.0402  157.2948 H   0  0  0  0  0  0  0  0  0  0  0  0  # atno 8010 bound_to 7997
  140.6419  143.7754  150.7441 H   0  0  0  0  0  0  0  0  0  0  0  0  # atno 10167 bound_to 10162
  157.4021  130.7866  149.7357 H   0  0  0  0  0  0  0  0  0  0  0  0  # atno 10718 bound_to 10713
  153.0538  135.6530  154.0627 H   0  0  0  0  0  0  0  0  0  0  0  0  # atno 10763 bound_to 10752
  154.0310  135.2911  155.3370 H   0  0  0  0  0  0  0  0  0  0  0  0  # atno 10764 bound_to 10752
  154.6842  135.5308  153.8371 H   0  0  0  0  0  0  0  0  0  0  0  0  # atno 10765 bound_to 10752
  140.5517  134.5421  157.5124 H   0  0  0  0  0  0  0  0  0  0  0  0  # atno 11005 bound_to 11000
  146.3514  140.0088  142.8669 LP  0  0  0  0  0  0  0  0  0  0  0  0  # atno 17320 bound_to 7965
  145.1585  140.9660  143.4391 LP  0  0  0  0  0  0  0  0  0  0  0  0  # atno 17321 bound_to 7965
  140.1387  143.4460  152.2207 LP  0  0  0  0  0  0  0  0  0  0  0  0  # atno 17342 bound_to 10162
  139.5628  144.7416  151.4106 LP  0  0  0  0  0  0  0  0  0  0  0  0  # atno 17343 bound_to 10162
  155.9826  130.4008  150.3407 LP  0  0  0  0  0  0  0  0  0  0  0  0  # atno 17370 bound_to 10713
  157.1536  131.0327  151.2874 LP  0  0  0  0  0  0  0  0  0  0  0  0  # atno 17371 bound_to 10713
  139.9452  134.7716  156.0581 LP  0  0  0  0  0  0  0  0  0  0  0  0  # atno 17394 bound_to 11000
  141.1167  133.6625  156.3112 LP  0  0  0  0  0  0  0  0  0  0  0  0  # atno 17395 bound_to 11000

$$$$
