AV-unprocessed.smi:290|AV-procd|sdf|2220|dock3
  -GOLD-   2262022 63D 1   1.00000     0.00000
 Structure written by MMmdl.
 59 62  0  0  0  0  0  0  0  0  2 V2000
  149.9117  139.1028  153.6590 C   0  0  0  0  0  0  0  0  0  0  0  0
  149.2173  140.0118  154.6862 C   0  0  1  0  0  0  0  0  0  0  0  0
  150.1774  140.6245  155.5355 O   0  0  0  0  0  0  0  0  0  0  0  0
  149.5470  141.7364  156.1449 C   0  0  0  0  0  0  0  0  0  0  0  0
  148.8033  142.3750  154.9791 C   0  0  0  0  0  0  0  0  0  0  0  0
  148.3609  141.1809  154.1287 C   0  0  1  0  0  0  0  0  0  0  0  0
  148.6711  141.4644  152.7744 O   0  0  0  0  0  0  0  0  0  0  0  0
  146.8374  140.9246  154.2394 C   0  0  0  0  0  0  0  0  0  0  0  0
  146.4478  139.5687  153.8828 N   0  0  0  0  0  0  0  0  0  0  0  0
  146.3827  139.0327  152.6154 C   0  0  0  0  0  0  0  0  0  0  0  0
  145.9975  137.7869  152.5547 N   0  0  0  0  0  0  0  0  0  0  0  0
  145.7925  137.4361  153.8822 C   0  0  0  0  0  0  0  0  0  0  0  0
  145.3801  136.2449  154.5327 C   0  0  0  0  0  0  0  0  0  0  0  0
  145.0917  135.1213  153.8373 N   0  0  0  0  0  0  0  0  0  0  0  0
  146.1720  134.6327  153.0014 C   0  0  0  0  0  0  0  0  0  0  0  0
  145.5237  133.6395  152.0384 C   0  0  0  0  0  0  0  0  0  0  0  0
  144.0081  133.9288  152.0847 C   0  0  2  0  0  0  0  0  0  0  0  0
  143.4353  134.0545  150.7069 N   0  3  1  0  0  0  0  0  0  0  0  0
  143.8788  135.3165  150.0586 C   0  0  0  0  0  0  0  0  0  0  0  0
  143.6244  132.8682  149.8233 C   0  0  0  0  0  0  0  0  0  0  0  0
  143.2798  133.1303  148.3448 C   0  0  0  0  0  0  0  0  0  0  0  0
  141.8820  133.2501  148.1804 O   0  0  0  0  0  0  0  0  0  0  0  0
  143.9042  135.1785  152.9938 C   0  0  1  0  0  0  0  0  0  0  0  0
  142.6302  135.2199  153.8666 C   0  0  0  0  0  0  0  0  0  0  0  0
  145.2994  136.2547  155.8898 N   0  0  0  0  0  0  0  0  0  0  0  0
  145.5998  137.3678  156.5668 C   0  0  0  0  0  0  0  0  0  0  0  0
  145.9965  138.5516  156.0937 N   0  0  0  0  0  0  0  0  0  0  0  0
  146.0783  138.5403  154.7319 C   0  0  0  0  0  0  0  0  0  0  0  0
  143.5142  133.0979  152.5923 H   0  0  0  0  0  0  0  0  0  0  0  0
  143.9647  136.0794  152.3812 H   0  0  0  0  0  0  0  0  0  0  0  0
  149.1863  138.6402  152.9891 H   0  0  0  0  0  0  0  0  0  0  0  0
  150.4579  138.3028  154.1586 H   0  0  0  0  0  0  0  0  0  0  0  0
  150.6269  139.6582  153.0516 H   0  0  0  0  0  0  0  0  0  0  0  0
  148.6004  139.3899  155.3362 H   0  0  0  0  0  0  0  0  0  0  0  0
  148.8527  141.3937  156.9141 H   0  0  0  0  0  0  0  0  0  0  0  0
  150.2704  142.4099  156.6046 H   0  0  0  0  0  0  0  0  0  0  0  0
  147.9779  143.0072  155.3086 H   0  0  0  0  0  0  0  0  0  0  0  0
  149.4992  143.0104  154.4287 H   0  0  0  0  0  0  0  0  0  0  0  0
  148.2093  140.8497  152.2248 H   0  0  0  0  0  0  0  0  0  0  0  0
  146.4973  141.1187  155.2576 H   0  0  0  0  0  0  0  0  0  0  0  0
  146.2882  141.6169  153.5995 H   0  0  0  0  0  0  0  0  0  0  0  0
  146.6268  139.5995  151.7286 H   0  0  0  0  0  0  0  0  0  0  0  0
  146.6323  135.4487  152.4420 H   0  0  0  0  0  0  0  0  0  0  0  0
  146.9478  134.1578  153.6030 H   0  0  0  0  0  0  0  0  0  0  0  0
  145.9513  133.7581  151.0417 H   0  0  0  0  0  0  0  0  0  0  0  0
  145.7174  132.6143  152.3566 H   0  0  0  0  0  0  0  0  0  0  0  0
  144.9233  135.2500  149.7516 H   0  0  0  0  0  0  0  0  0  0  0  0
  143.7847  136.1714  150.7275 H   0  0  0  0  0  0  0  0  0  0  0  0
  143.2766  135.5515  149.1825 H   0  0  0  0  0  0  0  0  0  0  0  0
  144.6546  132.5190  149.9067 H   0  0  0  0  0  0  0  0  0  0  0  0
  142.9840  132.0490  150.1441 H   0  0  0  0  0  0  0  0  0  0  0  0
  143.7799  134.0132  147.9492 H   0  0  0  0  0  0  0  0  0  0  0  0
  143.6198  132.2922  147.7359 H   0  0  0  0  0  0  0  0  0  0  0  0
  141.6151  132.7152  147.4480 H   0  0  0  0  0  0  0  0  0  0  0  0
  141.7144  135.2048  153.2796 H   0  0  0  0  0  0  0  0  0  0  0  0
  142.5998  136.1226  154.4774 H   0  0  0  0  0  0  0  0  0  0  0  0
  142.5922  134.3666  154.5446 H   0  0  0  0  0  0  0  0  0  0  0  0
  145.5099  137.3009  157.6409 H   0  0  0  0  0  0  0  0  0  0  0  0
  142.4363  134.1338  150.8363 H   0  0  0  0  0  0  0  0  0  0  0  0
  1  2  1  0  0  0  0
  1 31  1  0  0  0  0
  1 32  1  0  0  0  0
  1 33  1  0  0  0  0
  2  6  1  0  0  0  0
  2  3  1  0  0  0  0
  2 34  1  0  0  0  0
  3  4  1  0  0  0  0
  4  5  1  0  0  0  0
  4 35  1  0  0  0  0
  4 36  1  0  0  0  0
  5  6  1  0  0  0  0
  5 37  1  0  0  0  0
  5 38  1  0  0  0  0
  6  7  1  0  0  0  0
  6  8  1  0  0  0  0
  7 39  1  0  0  0  0
  8  9  1  0  0  0  0
  8 40  1  0  0  0  0
  8 41  1  0  0  0  0
  9 28  1  0  0  0  0
  9 10  1  0  0  0  0
 10 11  2  0  0  0  0
 10 42  1  0  0  0  0
 11 12  1  0  0  0  0
 12 28  2  0  0  0  0
 12 13  1  0  0  0  0
 13 14  1  0  0  0  0
 13 25  2  0  0  0  0
 14 23  1  0  0  0  0
 14 15  1  0  0  0  0
 15 16  1  0  0  0  0
 15 43  1  0  0  0  0
 15 44  1  0  0  0  0
 16 17  1  0  0  0  0
 16 45  1  0  0  0  0
 16 46  1  0  0  0  0
 17 29  1  0  0  0  0
 17 18  1  0  0  0  0
 17 23  1  0  0  0  0
 18 19  1  0  0  0  0
 18 20  1  0  0  0  0
 18 59  1  0  0  0  0
 19 47  1  0  0  0  0
 19 48  1  0  0  0  0
 19 49  1  0  0  0  0
 20 21  1  0  0  0  0
 20 50  1  0  0  0  0
 20 51  1  0  0  0  0
 21 22  1  0  0  0  0
 21 52  1  0  0  0  0
 21 53  1  0  0  0  0
 22 54  1  0  0  0  0
 23 30  1  0  0  0  0
 23 24  1  0  0  0  0
 24 55  1  0  0  0  0
 24 56  1  0  0  0  0
 24 57  1  0  0  0  0
 25 26  1  0  0  0  0
 26 27  2  0  0  0  0
 26 58  1  0  0  0  0
 27 28  1  0  0  0  0
M  CHG  1  18   1
M  END
> <s_m_source_file>
AV-unprocessed.smi

> <i_m_source_file_index>
290

> <i_lp_mmshare_version>
43012

> <i_f3d_flags>
0

> <s_epik_input>
W0NIMl0xW0NIMl1PW0NAQEhdKFtDSDNdKVtDQEBdMShbT0hdKVtDSDJdbihbY0hdbjIpYyhjMjMpbltjSF1uYzNONFtDSDJdW0NIMl1bQ0BIXShbQ0BIXTRbQ0gzXSlOKFtDSDNdKVtDSDJdW0NIMl1bT0hd

> <s_epik_cmdline>
J2VwaWtfcHl0aG9uJywgJy1waCcsICc3LjAnLCAnLXRuJywgJzgnLCAnLW1hJywgJzIwMCcsICctbWV0YWxfYmluZGluZycsICctaW1hZScsICc8aW5maWxlLm1hZT4nLCAnLW9tYWUnLCAnPG91dGZpbGUubWFlPic=

> <r_lp_tautomer_probability>
1

> <r_epik_Ionization_Penalty>
0.0036983

> <r_epik_Ionization_Penalty_Charging>
0.0032725

> <r_epik_Ionization_Penalty_Neutral>
0.000425798

> <r_epik_State_Penalty>
-0

> <r_epik_Charging_Adjusted_Penalty>
0.0032725

> <i_epik_Tot_Q>
1

> <i_epik_Tot_abs_Q>
1

> <r_epik_Metal_State_Penalty>
-0

> <b_epik_Metal_Only>
0

> <s_lp_Force_Field>
OPLS_2005

> <r_lp_Energy>
65.0723

> <b_lp_Chiralities_Consistent>
1

> <s_lp_Variant>
AV-unprocessed.smi:290-6

> <Gold.Version>
5.8.1

> <Gold.Id.Protein>
6NUR|6NUR_protein|mol2

> <Gold.PLP.Fitness>
53.7394

> <Gold.PLP.PLP>
-36.9625

> <Gold.PLP.part.hbond>
-5.1732

> <Gold.PLP.part.metal>
0.0000

> <Gold.PLP.part.buried>
-0.0073

> <Gold.PLP.part.nonpolar>
-33.3190

> <Gold.PLP.part.repulsive>
1.1719

> <Gold.PLP.ligand.clash>
0.0000

> <Gold.PLP.ligand.torsion>
0.7790

> <Gold.PLP.Chemscore.Hbond>
5.0374

> <Gold.PLP.Chemscore.CHOScore>
1.0000

> <Gold.PLP.Chemscore.Metal>
0.0000

> <Gold.Chemscore.Hbonds>
donor molecule, donor type, donor heavy atom, donor atom, acceptor molecule, acceptor atom, score
      L1  H     7    39       P1  7957  0.10
      L1  H    18    59       P1 10186  1.28
      L1  H    22    54       P1 10195  0.53
      P1  H  8011  8017       L1     7  0.89
      P1  H 10192 10197       L1    22  0.30

> <Gold.PLP.Chemscore.Internal.Correction>
0.2226

> <Gold.Rescore>
     Score         DG    S(hbond)    S(metal)    S(lipo)     H(rot)  DE(clash)    DE(int)     intcor
     11.57     -15.55       2.48        0.00      95.46       3.67       2.54       1.44       ----

> <Gold.Chemscore.Fitness>
11.5677

> <Gold.Chemscore.DG>
-15.5504

> <Gold.Chemscore.ZeroCoef>
-5.4800

> <Gold.Chemscore.Hbond>
2.4807

> <Gold.Chemscore.Metal>
0.0000

> <Gold.Chemscore.Lipo>
95.4641

> <Gold.Chemscore.Internal_Hbond>
0.0000

> <Gold.Chemscore.DEClash>
2.5444

> <Gold.Chemscore.DEInternal>
1.4382

> <Gold.Chemscore.Rot>
3.6658

> <Gold.Chemscore.Internal.Correction>
   9.000000E+99

> <Gold.Chemscore.Hbonds>
donor molecule, donor type, donor heavy atom, donor atom, acceptor molecule, acceptor atom, score
      L1  H     7    39       P1  7957  0.10
      L1  H    18    59       P1 10186  0.25
      L1  H    22    54       P1 10195  0.40
      P1  H  8011  8017       L1     7  0.81
      P1  H 10192 10197       L1    22  0.01

> <Gold.Chemscore.Hbond.Weighted>
-8.2855

> <Gold.Chemscore.Metal.Weighted>
-0.0000

> <Gold.Chemscore.Lipo.Weighted>
-11.1693

> <Gold.Chemscore.Internal_Hbond.Weighted>
0.0000

> <Gold.Chemscore.DEClash.Weighted>
2.5444

> <Gold.Chemscore.DEInternal.Weighted>
1.4382

> <Gold.Chemscore.Rot.Weighted>
9.3844

> <Gold.Chemscore.Internal.Correction.Weighted>
   9.000000E+99

> <Gold.Protein.RotatedTorsions>
[ 6907 6896 6895 6894 ] final -122.31 input  -60.11 | X-H torsion
[ 7974 7965 7964 7962 ] final  -56.88 input  175.53 | X-H torsion
[ 8008 7997 7996 7995 ] final -137.21 input   59.86 | X-H torsion
[ 10167 10162 10161 10158 ] final  130.91 input  -65.29 | X-H torsion
[ 10718 10713 10712 10709 ] final -156.48 input   66.30 | X-H torsion
[ 10763 10752 10751 10750 ] final   43.94 input  -60.55 | X-H torsion
[ 11005 11000 10999 10996 ] final -100.37 input  -57.11 | X-H torsion

> <Gold.Protein.ActiveResidues>
 VAL166  LYS551  ARG553  GLY616  TRP617  ASP618  TYR619  PRO620  LYS621  CYS622 
 ASP623  PHE694  ASN695  SER759  ASP760  ASP761  ALA762  ILE779  LEU786  VAL792 
 PHE793  MET794  SER795  GLU796  ALA797  LYS798  CYS799  TRP800  GLU811  SER814 

> <Gold.Protein.RotatedAtoms>
  150.8564  133.7708  159.3007 H   0  0  0  0  0  0  0  0  0  0  0  0  # atno 6907 bound_to 6896
  151.5364  135.1067  159.9925 H   0  0  0  0  0  0  0  0  0  0  0  0  # atno 6908 bound_to 6896
  152.4593  133.7745  159.6873 H   0  0  0  0  0  0  0  0  0  0  0  0  # atno 6909 bound_to 6896
  145.8576  140.8308  142.9953 H   0  0  0  0  0  0  0  0  0  0  0  0  # atno 7974 bound_to 7965
  155.4081  140.0510  157.3033 H   0  0  0  0  0  0  0  0  0  0  0  0  # atno 8008 bound_to 7997
  154.4959  140.2138  155.9408 H   0  0  0  0  0  0  0  0  0  0  0  0  # atno 8009 bound_to 7997
  156.1404  140.3155  155.8492 H   0  0  0  0  0  0  0  0  0  0  0  0  # atno 8010 bound_to 7997
  139.5408  144.6728  151.4631 H   0  0  0  0  0  0  0  0  0  0  0  0  # atno 10167 bound_to 10162
  156.5272  130.8504  151.2703 H   0  0  0  0  0  0  0  0  0  0  0  0  # atno 10718 bound_to 10713
  152.9850  135.6086  154.3194 H   0  0  0  0  0  0  0  0  0  0  0  0  # atno 10763 bound_to 10752
  154.2904  135.2775  155.2659 H   0  0  0  0  0  0  0  0  0  0  0  0  # atno 10764 bound_to 10752
  154.4957  135.5880  153.6549 H   0  0  0  0  0  0  0  0  0  0  0  0  # atno 10765 bound_to 10752
  141.1273  133.8394  157.1093 H   0  0  0  0  0  0  0  0  0  0  0  0  # atno 11005 bound_to 11000
  144.6727  140.1046  143.7458 LP  0  0  0  0  0  0  0  0  0  0  0  0  # atno 17320 bound_to 7965
  145.9286  139.2591  143.1339 LP  0  0  0  0  0  0  0  0  0  0  0  0  # atno 17321 bound_to 7965
  140.6637  143.8444  150.6917 LP  0  0  0  0  0  0  0  0  0  0  0  0  # atno 17342 bound_to 10162
  140.1847  143.4086  152.1907 LP  0  0  0  0  0  0  0  0  0  0  0  0  # atno 17343 bound_to 10162
  157.7427  130.9897  150.2540 LP  0  0  0  0  0  0  0  0  0  0  0  0  # atno 17370 bound_to 10713
  156.3094  130.3769  149.7676 LP  0  0  0  0  0  0  0  0  0  0  0  0  # atno 17371 bound_to 10713
  140.0285  134.9912  157.0733 LP  0  0  0  0  0  0  0  0  0  0  0  0  # atno 17394 bound_to 11000
  140.4324  134.1767  155.7169 LP  0  0  0  0  0  0  0  0  0  0  0  0  # atno 17395 bound_to 11000

$$$$
