AV-unprocessed.smi:977|AV-procd|sdf|4306|dock5
  -GOLD-   22720 2213D 1   1.00000     0.00000
 Structure written by MMmdl.
 37 38  0  0  0  0  0  0  0  0  1 V2000
  147.7451  139.9513  153.9165 C   0  0  0  0  0  0  0  0  0  0  0  0
  149.1737  139.8182  154.3661 C   0  0  0  0  0  0  0  0  0  0  0  0
  149.8432  140.9058  154.7190 N   0  0  0  0  0  0  0  0  0  0  0  0
  151.1513  140.4947  155.0187 O   0  0  0  0  0  0  0  0  0  0  0  0
  151.2424  139.1510  154.8383 C   0  0  0  0  0  0  0  0  0  0  0  0
  152.5702  138.5209  155.0916 C   0  0  0  0  0  0  0  0  0  0  0  0
  150.0221  138.6760  154.4584 C   0  0  0  0  0  0  0  0  0  0  0  0
  149.7393  137.3212  154.1544 N   0  0  0  0  0  0  0  0  0  0  0  0
  149.7993  136.2832  155.0020 C   0  0  0  0  0  0  0  0  0  0  0  0
  150.1770  136.3544  156.1713 O   0  0  0  0  0  0  0  0  0  0  0  0
  149.4148  135.1435  154.4096 N   0  0  0  0  0  0  0  0  0  0  0  0
  149.3568  133.8323  155.0529 C   0  0  2  0  0  0  0  0  0  0  0  0
  150.6211  133.6533  155.9080 C   0  0  0  0  0  0  0  0  0  0  0  0
  149.2058  132.7215  153.9901 C   0  0  1  0  0  0  0  0  0  0  0  0
  149.4477  131.3039  154.5192 C   0  0  0  0  0  0  0  0  0  0  0  0
  148.5825  130.4681  153.6047 C   0  0  0  0  0  0  0  0  0  0  0  0
  147.3667  131.3700  153.4412 C   0  0  0  0  0  0  0  0  0  0  0  0
  147.8788  132.6975  153.4607 O   0  0  0  0  0  0  0  0  0  0  0  0
  147.5026  139.2161  153.1491 H   0  0  0  0  0  0  0  0  0  0  0  0
  147.5499  140.9372  153.4934 H   0  0  0  0  0  0  0  0  0  0  0  0
  147.0571  139.8072  154.7496 H   0  0  0  0  0  0  0  0  0  0  0  0
  152.5821  137.4825  154.7601 H   0  0  0  0  0  0  0  0  0  0  0  0
  152.8074  138.5389  156.1551 H   0  0  0  0  0  0  0  0  0  0  0  0
  153.3587  139.0534  154.5595 H   0  0  0  0  0  0  0  0  0  0  0  0
  149.5457  137.1121  153.1860 H   0  0  0  0  0  0  0  0  0  0  0  0
  149.1257  135.1860  153.4434 H   0  0  0  0  0  0  0  0  0  0  0  0
  148.4963  133.7970  155.7235 H   0  0  0  0  0  0  0  0  0  0  0  0
  150.5990  132.7139  156.4603 H   0  0  0  0  0  0  0  0  0  0  0  0
  150.7163  134.4563  156.6397 H   0  0  0  0  0  0  0  0  0  0  0  0
  151.5208  133.6559  155.2917 H   0  0  0  0  0  0  0  0  0  0  0  0
  149.8820  132.9078  153.1541 H   0  0  0  0  0  0  0  0  0  0  0  0
  150.4984  131.0139  154.4936 H   0  0  0  0  0  0  0  0  0  0  0  0
  149.0928  131.2094  155.5465 H   0  0  0  0  0  0  0  0  0  0  0  0
  149.0786  130.3219  152.6443 H   0  0  0  0  0  0  0  0  0  0  0  0
  148.3358  129.4904  154.0193 H   0  0  0  0  0  0  0  0  0  0  0  0
  146.8115  131.1677  152.5252 H   0  0  0  0  0  0  0  0  0  0  0  0
  146.6870  131.2486  154.2853 H   0  0  0  0  0  0  0  0  0  0  0  0
  1  2  1  0  0  0  0
  1 19  1  0  0  0  0
  1 20  1  0  0  0  0
  1 21  1  0  0  0  0
  2  7  1  0  0  0  0
  2  3  2  0  0  0  0
  3  4  1  0  0  0  0
  4  5  1  0  0  0  0
  5  6  1  0  0  0  0
  5  7  2  0  0  0  0
  6 22  1  0  0  0  0
  6 23  1  0  0  0  0
  6 24  1  0  0  0  0
  7  8  1  0  0  0  0
  8  9  1  0  0  0  0
  8 25  1  0  0  0  0
  9 10  2  0  0  0  0
  9 11  1  0  0  0  0
 11 12  1  0  0  0  0
 11 26  1  0  0  0  0
 12 13  1  0  0  0  0
 12 14  1  0  0  0  0
 12 27  1  0  0  0  0
 13 28  1  0  0  0  0
 13 29  1  0  0  0  0
 13 30  1  0  0  0  0
 14 18  1  0  0  0  0
 14 15  1  0  0  0  0
 14 31  1  0  0  0  0
 15 16  1  0  0  0  0
 15 32  1  0  0  0  0
 15 33  1  0  0  0  0
 16 17  1  0  0  0  0
 16 34  1  0  0  0  0
 16 35  1  0  0  0  0
 17 18  1  0  0  0  0
 17 36  1  0  0  0  0
 17 37  1  0  0  0  0
M  END
> <s_m_source_file>
AV-unprocessed.smi

> <i_m_source_file_index>
977

> <i_lp_mmshare_version>
43012

> <i_f3d_flags>
0

> <s_epik_input>
W0NIM11jMW5vYyhbQ0gzXSljMVtOSF1DKD1PKVtOSF1bQ0BIXShbQ0gzXSlbQ0BASF0yW0NIMl1bQ0gyXVtDSDJdTzI=

> <s_epik_cmdline>
J2VwaWtfcHl0aG9uJywgJy1waCcsICc3LjAnLCAnLXRuJywgJzgnLCAnLW1hJywgJzIwMCcsICctbWV0YWxfYmluZGluZycsICctaW1hZScsICc8aW5maWxlLm1hZT4nLCAnLW9tYWUnLCAnPG91dGZpbGUubWFlPic=

> <r_lp_tautomer_probability>
1

> <r_epik_Ionization_Penalty>
3.41601e-05

> <r_epik_Ionization_Penalty_Charging>
0

> <r_epik_Ionization_Penalty_Neutral>
3.41601e-05

> <r_epik_State_Penalty>
-0

> <r_epik_Charging_Adjusted_Penalty>
0

> <i_epik_Tot_Q>
0

> <i_epik_Tot_abs_Q>
0

> <r_epik_Metal_State_Penalty>
-0

> <b_epik_Metal_Only>
0

> <s_lp_Force_Field>
OPLS_2005

> <r_lp_Energy>
19.7512

> <b_lp_Chiralities_Consistent>
1

> <s_lp_Variant>
AV-unprocessed.smi:977-3

> <Gold.Version>
5.8.1

> <Gold.Id.Protein>
6NUR|6NUR_protein|mol2

> <Gold.PLP.Fitness>
37.8699

> <Gold.PLP.PLP>
-32.2435

> <Gold.PLP.part.hbond>
-4.1944

> <Gold.PLP.part.metal>
0.0000

> <Gold.PLP.part.buried>
-2.8417

> <Gold.PLP.part.nonpolar>
-25.5426

> <Gold.PLP.part.repulsive>
0.3848

> <Gold.PLP.ligand.clash>
0.0000

> <Gold.PLP.ligand.torsion>
0.9823

> <Gold.PLP.Chemscore.Hbond>
2.4436

> <Gold.PLP.Chemscore.CHOScore>
0.0000

> <Gold.PLP.Chemscore.Metal>
0.0000

> <Gold.Chemscore.Hbonds>
donor molecule, donor type, donor heavy atom, donor atom, acceptor molecule, acceptor atom, score
      L1  H     8    25       P1  7948  1.00
      L1  H    11    26       P1  7948  0.96
      P1  H  7989  7998       L1     4  0.41

> <Gold.PLP.Chemscore.Internal.Correction>
0.2602

> <Gold.Rescore>
     Score         DG    S(hbond)    S(metal)    S(lipo)     H(rot)  DE(clash)    DE(int)     intcor
     13.59     -15.51       1.74        0.00      62.71       1.22       0.02       1.91       ----

> <Gold.Chemscore.Fitness>
13.5875

> <Gold.Chemscore.DG>
-15.5109

> <Gold.Chemscore.ZeroCoef>
-5.4800

> <Gold.Chemscore.Hbond>
1.7415

> <Gold.Chemscore.Metal>
0.0000

> <Gold.Chemscore.Lipo>
62.7126

> <Gold.Chemscore.Internal_Hbond>
0.0000

> <Gold.Chemscore.DEClash>
0.0156

> <Gold.Chemscore.DEInternal>
1.9078

> <Gold.Chemscore.Rot>
1.2200

> <Gold.Chemscore.Internal.Correction>
   9.000000E+99

> <Gold.Chemscore.Hbonds>
donor molecule, donor type, donor heavy atom, donor atom, acceptor molecule, acceptor atom, score
      L1  H     8    25       P1  7948  0.78
      L1  H    11    26       P1  7948  0.28

> <Gold.Chemscore.Hbond.Weighted>
-5.8166

> <Gold.Chemscore.Metal.Weighted>
-0.0000

> <Gold.Chemscore.Lipo.Weighted>
-7.3374

> <Gold.Chemscore.Internal_Hbond.Weighted>
0.0000

> <Gold.Chemscore.DEClash.Weighted>
0.0156

> <Gold.Chemscore.DEInternal.Weighted>
1.9078

> <Gold.Chemscore.Rot.Weighted>
3.1232

> <Gold.Chemscore.Internal.Correction.Weighted>
   9.000000E+99

> <Gold.Protein.RotatedTorsions>
[ 6907 6896 6895 6894 ] final -134.90 input  -60.11 | X-H torsion
[ 7974 7965 7964 7962 ] final  136.95 input  175.53 | X-H torsion
[ 8008 7997 7996 7995 ] final -153.15 input   59.86 | X-H torsion
[ 10167 10162 10161 10158 ] final   89.74 input  -65.29 | X-H torsion
[ 10718 10713 10712 10709 ] final  -38.33 input   66.30 | X-H torsion
[ 10763 10752 10751 10750 ] final  -62.73 input  -60.55 | X-H torsion
[ 11005 11000 10999 10996 ] final -156.90 input  -57.11 | X-H torsion

> <Gold.Protein.ActiveResidues>
 VAL166  LYS551  ARG553  GLY616  TRP617  ASP618  TYR619  PRO620  LYS621  CYS622 
 ASP623  PHE694  ASN695  SER759  ASP760  ASP761  ALA762  ILE779  LEU786  VAL792 
 PHE793  MET794  SER795  GLU796  ALA797  LYS798  CYS799  TRP800  GLU811  SER814 

> <Gold.Protein.RotatedAtoms>
  150.9914  133.6146  159.2707 H   0  0  0  0  0  0  0  0  0  0  0  0  # atno 6907 bound_to 6896
  151.3365  135.0853  159.9366 H   0  0  0  0  0  0  0  0  0  0  0  0  # atno 6908 bound_to 6896
  152.5247  133.9534  159.7737 H   0  0  0  0  0  0  0  0  0  0  0  0  # atno 6909 bound_to 6896
  144.9515  139.4813  143.5523 H   0  0  0  0  0  0  0  0  0  0  0  0  # atno 7974 bound_to 7965
  155.6663  140.0728  157.2536 H   0  0  0  0  0  0  0  0  0  0  0  0  # atno 8008 bound_to 7997
  154.4132  140.1707  156.1882 H   0  0  0  0  0  0  0  0  0  0  0  0  # atno 8009 bound_to 7997
  155.9654  140.3366  155.6531 H   0  0  0  0  0  0  0  0  0  0  0  0  # atno 8010 bound_to 7997
  139.8543  144.6577  150.9133 H   0  0  0  0  0  0  0  0  0  0  0  0  # atno 10167 bound_to 10162
  156.3050  130.4245  149.8106 H   0  0  0  0  0  0  0  0  0  0  0  0  # atno 10718 bound_to 10713
  154.3043  135.6228  153.5438 H   0  0  0  0  0  0  0  0  0  0  0  0  # atno 10763 bound_to 10752
  152.9837  135.5686  154.5248 H   0  0  0  0  0  0  0  0  0  0  0  0  # atno 10764 bound_to 10752
  154.4885  135.2866  155.1491 H   0  0  0  0  0  0  0  0  0  0  0  0  # atno 10765 bound_to 10752
  140.6705  134.4252  157.5232 H   0  0  0  0  0  0  0  0  0  0  0  0  # atno 11005 bound_to 11000
  146.3322  139.8603  142.8857 LP  0  0  0  0  0  0  0  0  0  0  0  0  # atno 17320 bound_to 7965
  145.2837  141.0146  143.3703 LP  0  0  0  0  0  0  0  0  0  0  0  0  # atno 17321 bound_to 7965
  140.7783  143.3800  151.1494 LP  0  0  0  0  0  0  0  0  0  0  0  0  # atno 17342 bound_to 10162
  139.7435  143.8888  152.3057 LP  0  0  0  0  0  0  0  0  0  0  0  0  # atno 17343 bound_to 10162
  156.5470  130.8325  151.3287 LP  0  0  0  0  0  0  0  0  0  0  0  0  # atno 17370 bound_to 10713
  157.7377  130.9801  150.2210 LP  0  0  0  0  0  0  0  0  0  0  0  0  # atno 17371 bound_to 10713
  139.8983  134.8616  156.2007 LP  0  0  0  0  0  0  0  0  0  0  0  0  # atno 17394 bound_to 11000
  141.0396  133.6945  156.1573 LP  0  0  0  0  0  0  0  0  0  0  0  0  # atno 17395 bound_to 11000

$$$$
