AV-unprocessed.smi:258|AV-procd|sdf|1967|dock3
  -GOLD-   2262021123D 1   1.00000     0.00000
 Structure written by MMmdl.
 57 60  0  0  0  0  0  0  0  0  1 V2000
  156.1798  139.3484  159.2156 O   0  0  0  0  0  0  0  0  0  0  0  0
  155.6982  140.3512  160.0850 C   0  0  0  0  0  0  0  0  0  0  0  0
  154.4439  139.8603  160.8184 C   0  0  0  0  0  0  0  0  0  0  0  0
  153.6407  140.9813  161.1587 O   0  0  0  0  0  0  0  0  0  0  0  0
  153.1946  141.7497  160.0490 C   0  0  2  0  0  0  0  0  0  0  0  0
  152.2382  142.8738  160.4942 C   0  0  0  0  0  0  0  0  0  0  0  0
  151.6596  143.5929  159.2667 C   0  0  0  0  0  0  0  0  0  0  0  0
  150.9763  142.6001  158.3127 C   0  0  0  0  0  0  0  0  0  0  0  0
  151.8812  141.5039  157.9615 N   0  0  0  0  0  0  0  0  0  0  0  0
  151.5670  140.8106  156.8356 C   0  0  0  0  0  0  0  0  0  0  0  0
  152.4639  139.8842  156.4067 N   0  0  0  0  0  0  0  0  0  0  0  0
  152.2206  139.1567  155.3135 C   0  0  0  0  0  0  0  0  0  0  0  0
  151.1583  139.1918  154.5086 N   0  0  0  0  0  0  0  0  0  0  0  0
  150.2522  140.1205  154.9264 C   0  0  0  0  0  0  0  0  0  0  0  0
  150.3726  140.9668  156.0674 C   0  0  0  0  0  0  0  0  0  0  0  0
  149.2517  141.7874  156.1539 N   0  0  0  0  0  0  0  0  0  0  0  0
  148.5125  141.4400  155.1373 C   0  0  0  0  0  0  0  0  0  0  0  0
  149.0339  140.4397  154.3516 N   0  0  0  0  0  0  0  0  0  0  0  0
  148.4206  139.8655  153.1662 C   0  0  0  0  0  0  0  0  0  0  0  0
  147.1266  139.0723  153.4734 C   0  0  1  0  0  0  0  0  0  0  0  0
  146.4239  138.6496  152.1617 C   0  0  0  0  0  0  0  0  0  0  0  0
  147.3205  137.9544  151.3203 O   0  0  0  0  0  0  0  0  0  0  0  0
  147.3707  137.8923  154.4560 C   0  0  2  0  0  0  0  0  0  0  0  0
  146.1598  137.0161  154.7620 C   0  0  0  0  0  0  0  0  0  0  0  0
  146.4710  136.5072  156.1619 C   0  0  0  0  0  0  0  0  0  0  0  0
  147.0346  137.6479  156.7869 O   0  0  0  0  0  0  0  0  0  0  0  0
  147.8920  138.2892  155.8491 C   0  0  0  0  0  0  0  0  0  0  0  0
  152.4745  140.7865  159.0889 C   0  0  0  0  0  0  0  0  0  0  0  0
  156.0662  138.5085  159.6338 H   0  0  0  0  0  0  0  0  0  0  0  0
  156.4863  140.5668  160.8067 H   0  0  0  0  0  0  0  0  0  0  0  0
  155.5023  141.2727  159.5355 H   0  0  0  0  0  0  0  0  0  0  0  0
  153.9021  139.1312  160.2155 H   0  0  0  0  0  0  0  0  0  0  0  0
  154.7469  139.3580  161.7382 H   0  0  0  0  0  0  0  0  0  0  0  0
  154.0506  142.1789  159.5244 H   0  0  0  0  0  0  0  0  0  0  0  0
  151.4273  142.4543  161.0908 H   0  0  0  0  0  0  0  0  0  0  0  0
  152.7514  143.5964  161.1279 H   0  0  0  0  0  0  0  0  0  0  0  0
  150.9487  144.3576  159.5805 H   0  0  0  0  0  0  0  0  0  0  0  0
  152.4602  144.1116  158.7378 H   0  0  0  0  0  0  0  0  0  0  0  0
  150.0891  142.1795  158.7877 H   0  0  0  0  0  0  0  0  0  0  0  0
  150.6325  143.1381  157.4291 H   0  0  0  0  0  0  0  0  0  0  0  0
  152.9863  138.4434  155.0466 H   0  0  0  0  0  0  0  0  0  0  0  0
  147.5584  141.9039  154.9328 H   0  0  0  0  0  0  0  0  0  0  0  0
  148.2114  140.6842  152.4769 H   0  0  0  0  0  0  0  0  0  0  0  0
  149.1479  139.2245  152.6670 H   0  0  0  0  0  0  0  0  0  0  0  0
  146.4482  139.7533  153.9904 H   0  0  0  0  0  0  0  0  0  0  0  0
  145.5659  138.0084  152.3624 H   0  0  0  0  0  0  0  0  0  0  0  0
  146.0534  139.5109  151.6076 H   0  0  0  0  0  0  0  0  0  0  0  0
  147.7795  137.3099  151.8372 H   0  0  0  0  0  0  0  0  0  0  0  0
  148.1377  137.2419  154.0343 H   0  0  0  0  0  0  0  0  0  0  0  0
  145.2388  137.5965  154.7919 H   0  0  0  0  0  0  0  0  0  0  0  0
  146.0242  136.2090  154.0421 H   0  0  0  0  0  0  0  0  0  0  0  0
  145.5853  136.1535  156.6899 H   0  0  0  0  0  0  0  0  0  0  0  0
  147.2051  135.7002  156.1331 H   0  0  0  0  0  0  0  0  0  0  0  0
  148.9120  137.9286  155.9891 H   0  0  0  0  0  0  0  0  0  0  0  0
  147.9030  139.3645  156.0243 H   0  0  0  0  0  0  0  0  0  0  0  0
  153.1886  140.0450  158.7282 H   0  0  0  0  0  0  0  0  0  0  0  0
  151.6882  140.2514  159.6227 H   0  0  0  0  0  0  0  0  0  0  0  0
  1  2  1  0  0  0  0
  1 29  1  0  0  0  0
  2  3  1  0  0  0  0
  2 30  1  0  0  0  0
  2 31  1  0  0  0  0
  3  4  1  0  0  0  0
  3 32  1  0  0  0  0
  3 33  1  0  0  0  0
  4  5  1  0  0  0  0
  5 28  1  0  0  0  0
  5  6  1  0  0  0  0
  5 34  1  0  0  0  0
  6  7  1  0  0  0  0
  6 35  1  0  0  0  0
  6 36  1  0  0  0  0
  7  8  1  0  0  0  0
  7 37  1  0  0  0  0
  7 38  1  0  0  0  0
  8  9  1  0  0  0  0
  8 39  1  0  0  0  0
  8 40  1  0  0  0  0
  9 10  1  0  0  0  0
  9 28  1  0  0  0  0
 10 15  1  0  0  0  0
 10 11  2  0  0  0  0
 11 12  1  0  0  0  0
 12 13  2  0  0  0  0
 12 41  1  0  0  0  0
 13 14  1  0  0  0  0
 14 18  1  0  0  0  0
 14 15  2  0  0  0  0
 15 16  1  0  0  0  0
 16 17  2  0  0  0  0
 17 18  1  0  0  0  0
 17 42  1  0  0  0  0
 18 19  1  0  0  0  0
 19 20  1  0  0  0  0
 19 43  1  0  0  0  0
 19 44  1  0  0  0  0
 20 21  1  0  0  0  0
 20 23  1  0  0  0  0
 20 45  1  0  0  0  0
 21 22  1  0  0  0  0
 21 46  1  0  0  0  0
 21 47  1  0  0  0  0
 22 48  1  0  0  0  0
 23 27  1  0  0  0  0
 23 24  1  0  0  0  0
 23 49  1  0  0  0  0
 24 25  1  0  0  0  0
 24 50  1  0  0  0  0
 24 51  1  0  0  0  0
 25 26  1  0  0  0  0
 25 52  1  0  0  0  0
 25 53  1  0  0  0  0
 26 27  1  0  0  0  0
 27 54  1  0  0  0  0
 27 55  1  0  0  0  0
 28 56  1  0  0  0  0
 28 57  1  0  0  0  0
M  END
> <s_m_source_file>
AV-unprocessed.smi

> <i_m_source_file_index>
258

> <i_lp_mmshare_version>
43012

> <i_f3d_flags>
0

> <s_epik_input>
W09IXVtDSDJdW0NIMl1PW0NAQEhdMVtDSDJdW0NIMl1bQ0gyXU4oW0NIMl0xKWMobltjSF1uMiljKGMyMyluW2NIXW4zW0NIMl1bQ0BIXShbQ0gyXVtPSF0pW0NAQEhdNFtDSDJdW0NIMl1PW0NIMl00

> <s_epik_cmdline>
J2VwaWtfcHl0aG9uJywgJy1waCcsICc3LjAnLCAnLXRuJywgJzgnLCAnLW1hJywgJzIwMCcsICctbWV0YWxfYmluZGluZycsICctaW1hZScsICc8aW5maWxlLm1hZT4nLCAnLW9tYWUnLCAnPG91dGZpbGUubWFlPic=

> <r_lp_tautomer_probability>
1

> <r_epik_Ionization_Penalty>
0.00349036

> <r_epik_Ionization_Penalty_Charging>
0

> <r_epik_Ionization_Penalty_Neutral>
0.00349036

> <r_epik_State_Penalty>
0.00229798

> <r_epik_Charging_Adjusted_Penalty>
0.00229798

> <i_epik_Tot_Q>
0

> <i_epik_Tot_abs_Q>
0

> <r_epik_Metal_State_Penalty>
-0

> <b_epik_Metal_Only>
0

> <s_lp_Force_Field>
OPLS_2005

> <r_lp_Energy>
47.4534

> <b_lp_Chiralities_Consistent>
1

> <s_lp_Variant>
AV-unprocessed.smi:258-3

> <Gold.Version>
5.8.1

> <Gold.Id.Protein>
6NUR|6NUR_protein|mol2

> <Gold.PLP.Fitness>
56.5331

> <Gold.PLP.PLP>
-45.5159

> <Gold.PLP.part.hbond>
-5.5202

> <Gold.PLP.part.metal>
0.0000

> <Gold.PLP.part.buried>
0.5699

> <Gold.PLP.part.nonpolar>
-41.7030

> <Gold.PLP.part.repulsive>
0.8180

> <Gold.PLP.ligand.clash>
0.0000

> <Gold.PLP.ligand.torsion>
0.6768

> <Gold.PLP.Chemscore.Hbond>
3.8760

> <Gold.PLP.Chemscore.CHOScore>
0.0000

> <Gold.PLP.Chemscore.Metal>
0.0000

> <Gold.Chemscore.Hbonds>
donor molecule, donor type, donor heavy atom, donor atom, acceptor molecule, acceptor atom, score
      L1  H    22    48       P1  7948  0.88
      P1  H  7954  7966       L1    22  1.00
      P1  H  7997  8008       L1    11  1.00
      P1  H  7997  8010       L1     1  0.75

> <Gold.PLP.Chemscore.Internal.Correction>
0.7428

> <Gold.Rescore>
     Score         DG    S(hbond)    S(metal)    S(lipo)     H(rot)  DE(clash)    DE(int)     intcor
     10.09     -14.88       2.55        0.00      93.81       3.94       1.54       3.25       ----

> <Gold.Chemscore.Fitness>
10.0861

> <Gold.Chemscore.DG>
-14.8827

> <Gold.Chemscore.ZeroCoef>
-5.4800

> <Gold.Chemscore.Hbond>
2.5454

> <Gold.Chemscore.Metal>
0.0000

> <Gold.Chemscore.Lipo>
93.8135

> <Gold.Chemscore.Internal_Hbond>
0.0000

> <Gold.Chemscore.DEClash>
1.5434

> <Gold.Chemscore.DEInternal>
3.2532

> <Gold.Chemscore.Rot>
3.9356

> <Gold.Chemscore.Internal.Correction>
   9.000000E+99

> <Gold.Chemscore.Hbonds>
donor molecule, donor type, donor heavy atom, donor atom, acceptor molecule, acceptor atom, score
      L1  H    22    48       P1  7948  0.84
      P1  H  7954  7966       L1    22  0.26
      P1  H  7997  8008       L1    11  0.45
      P1  H  7997  8010       L1     1  0.41

> <Gold.Chemscore.Hbond.Weighted>
-8.5016

> <Gold.Chemscore.Metal.Weighted>
-0.0000

> <Gold.Chemscore.Lipo.Weighted>
-10.9762

> <Gold.Chemscore.Internal_Hbond.Weighted>
0.0000

> <Gold.Chemscore.DEClash.Weighted>
1.5434

> <Gold.Chemscore.DEInternal.Weighted>
3.2532

> <Gold.Chemscore.Rot.Weighted>
10.0751

> <Gold.Chemscore.Internal.Correction.Weighted>
   9.000000E+99

> <Gold.Protein.RotatedTorsions>
[ 6907 6896 6895 6894 ] final -158.88 input  -60.11 | X-H torsion
[ 7974 7965 7964 7962 ] final  148.44 input  175.53 | X-H torsion
[ 8008 7997 7996 7995 ] final  -44.96 input   59.86 | X-H torsion
[ 10167 10162 10161 10158 ] final  -44.18 input  -65.29 | X-H torsion
[ 10718 10713 10712 10709 ] final   40.00 input   66.30 | X-H torsion
[ 10763 10752 10751 10750 ] final   20.19 input  -60.55 | X-H torsion
[ 11005 11000 10999 10996 ] final  -27.83 input  -57.11 | X-H torsion

> <Gold.Protein.ActiveResidues>
 VAL166  LYS551  ARG553  GLY616  TRP617  ASP618  TYR619  PRO620  LYS621  CYS622 
 ASP623  PHE694  ASN695  SER759  ASP760  ASP761  ALA762  ILE779  LEU786  VAL792 
 PHE793  MET794  SER795  GLU796  ALA797  LYS798  CYS799  TRP800  GLU811  SER814 

> <Gold.Protein.RotatedAtoms>
  151.3250  133.4024  159.2657 H   0  0  0  0  0  0  0  0  0  0  0  0  # atno 6907 bound_to 6896
  151.0003  134.9317  159.7960 H   0  0  0  0  0  0  0  0  0  0  0  0  # atno 6908 bound_to 6896
  152.5273  134.3215  159.9202 H   0  0  0  0  0  0  0  0  0  0  0  0  # atno 6909 bound_to 6896
  144.8514  139.6154  143.5972 H   0  0  0  0  0  0  0  0  0  0  0  0  # atno 7974 bound_to 7965
  154.3999  140.1409  156.3768 H   0  0  0  0  0  0  0  0  0  0  0  0  # atno 8008 bound_to 7997
  155.8041  140.3475  155.5399 H   0  0  0  0  0  0  0  0  0  0  0  0  # atno 8009 bound_to 7997
  155.8454  140.0933  157.1699 H   0  0  0  0  0  0  0  0  0  0  0  0  # atno 8010 bound_to 7997
  140.6906  143.2944  151.3458 H   0  0  0  0  0  0  0  0  0  0  0  0  # atno 10167 bound_to 10162
  157.3771  130.7733  149.7164 H   0  0  0  0  0  0  0  0  0  0  0  0  # atno 10718 bound_to 10713
  153.1098  135.6694  153.9521 H   0  0  0  0  0  0  0  0  0  0  0  0  # atno 10763 bound_to 10752
  153.9068  135.3029  155.3450 H   0  0  0  0  0  0  0  0  0  0  0  0  # atno 10764 bound_to 10752
  154.7518  135.5031  153.9379 H   0  0  0  0  0  0  0  0  0  0  0  0  # atno 10765 bound_to 10752
  140.9154  133.7433  156.0728 H   0  0  0  0  0  0  0  0  0  0  0  0  # atno 11005 bound_to 11000
  146.2787  139.6821  142.9244 LP  0  0  0  0  0  0  0  0  0  0  0  0  # atno 17320 bound_to 7965
  145.4493  141.0427  143.2813 LP  0  0  0  0  0  0  0  0  0  0  0  0  # atno 17321 bound_to 7965
  139.6306  144.0728  152.2473 LP  0  0  0  0  0  0  0  0  0  0  0  0  # atno 17342 bound_to 10162
  140.0201  144.6159  150.7573 LP  0  0  0  0  0  0  0  0  0  0  0  0  # atno 17343 bound_to 10162
  155.9768  130.4071  150.3757 LP  0  0  0  0  0  0  0  0  0  0  0  0  # atno 17370 bound_to 10713
  157.1856  131.0403  151.2726 LP  0  0  0  0  0  0  0  0  0  0  0  0  # atno 17371 bound_to 10713
  140.8056  134.3458  157.5427 LP  0  0  0  0  0  0  0  0  0  0  0  0  # atno 17394 bound_to 11000
  139.8765  134.9224  156.3299 LP  0  0  0  0  0  0  0  0  0  0  0  0  # atno 17395 bound_to 11000

$$$$
