AV-unprocessed.smi:3036|AV-procd|sdf|11584|dock4
  -GOLD-   2272016553D 1   1.00000     0.00000
 Structure written by MMmdl.
 41 42  0  0  0  0  0  0  0  0  1 V2000
  144.2284  135.5959  153.1188 C   0  0  0  0  0  0  0  0  0  0  0  0
  145.4985  136.1441  152.4446 C   0  0  2  0  0  0  0  0  0  0  0  0
  145.5525  135.7361  150.9582 C   0  0  0  0  0  0  0  0  0  0  0  0
  145.3865  134.3064  150.7597 N   0  0  0  0  0  0  0  0  0  0  0  0
  144.2994  133.6341  150.2415 C   0  0  0  0  0  0  0  0  0  0  0  0
  144.6067  132.3037  150.2406 C   0  0  0  0  0  0  0  0  0  0  0  0
  145.9234  132.2608  150.7785 C   0  0  0  0  0  0  0  0  0  0  0  0
  146.3889  133.4610  151.0845 N   0  0  0  0  0  0  0  0  0  0  0  0
  146.6827  135.6239  153.1202 N   0  0  0  0  0  0  0  0  0  0  0  0
  146.7802  136.1049  154.4937 C   0  0  0  0  0  0  0  0  0  0  0  0
  148.0899  136.8876  154.7232 C   0  0  0  0  0  0  0  0  0  0  0  0
  147.9589  138.4227  154.6502 C   0  0  0  0  0  0  0  0  0  0  0  0
  146.8527  138.9386  154.8194 O   0  0  0  0  0  0  0  0  0  0  0  0
  149.0640  139.1645  154.3953 N   0  0  0  0  0  0  0  0  0  0  0  0
  150.3919  138.5778  154.1897 C   0  0  0  0  0  0  0  0  0  0  0  0
  151.3075  139.0248  155.3431 C   0  0  0  0  0  0  0  0  0  0  0  0
  151.3629  140.4484  155.3842 O   0  0  0  0  0  0  0  0  0  0  0  0
  150.0832  141.0511  155.5595 C   0  0  0  0  0  0  0  0  0  0  0  0
  149.1460  140.6292  154.4130 C   0  0  0  0  0  0  0  0  0  0  0  0
  143.3351  135.9323  152.5921 H   0  0  0  0  0  0  0  0  0  0  0  0
  144.1343  135.9307  154.1514 H   0  0  0  0  0  0  0  0  0  0  0  0
  144.2190  134.5051  153.1206 H   0  0  0  0  0  0  0  0  0  0  0  0
  145.4942  137.2336  152.5027 H   0  0  0  0  0  0  0  0  0  0  0  0
  144.7865  136.2622  150.3864 H   0  0  0  0  0  0  0  0  0  0  0  0
  146.5123  136.0225  150.5258 H   0  0  0  0  0  0  0  0  0  0  0  0
  143.4074  134.1525  149.9214 H   0  0  0  0  0  0  0  0  0  0  0  0
  143.9868  131.4858  149.9048 H   0  0  0  0  0  0  0  0  0  0  0  0
  146.5514  131.3995  150.9528 H   0  0  0  0  0  0  0  0  0  0  0  0
  147.5063  135.9212  152.6169 H   0  0  0  0  0  0  0  0  0  0  0  0
  145.9282  136.7531  154.7026 H   0  0  0  0  0  0  0  0  0  0  0  0
  146.7247  135.2745  155.1971 H   0  0  0  0  0  0  0  0  0  0  0  0
  148.4910  136.6081  155.6981 H   0  0  0  0  0  0  0  0  0  0  0  0
  148.8205  136.5746  153.9766 H   0  0  0  0  0  0  0  0  0  0  0  0
  150.3738  137.4887  154.1345 H   0  0  0  0  0  0  0  0  0  0  0  0
  150.7941  138.9204  153.2351 H   0  0  0  0  0  0  0  0  0  0  0  0
  150.9486  138.6369  156.2977 H   0  0  0  0  0  0  0  0  0  0  0  0
  152.3157  138.6362  155.1985 H   0  0  0  0  0  0  0  0  0  0  0  0
  149.6663  140.7663  156.5270 H   0  0  0  0  0  0  0  0  0  0  0  0
  150.2031  142.1346  155.5700 H   0  0  0  0  0  0  0  0  0  0  0  0
  149.5420  140.9772  153.4579 H   0  0  0  0  0  0  0  0  0  0  0  0
  148.1853  141.1254  154.5359 H   0  0  0  0  0  0  0  0  0  0  0  0
  1  2  1  0  0  0  0
  1 20  1  0  0  0  0
  1 21  1  0  0  0  0
  1 22  1  0  0  0  0
  2  3  1  0  0  0  0
  2  9  1  0  0  0  0
  2 23  1  0  0  0  0
  3  4  1  0  0  0  0
  3 24  1  0  0  0  0
  3 25  1  0  0  0  0
  4  8  1  0  0  0  0
  4  5  1  0  0  0  0
  5  6  2  0  0  0  0
  5 26  1  0  0  0  0
  6  7  1  0  0  0  0
  6 27  1  0  0  0  0
  7  8  2  0  0  0  0
  7 28  1  0  0  0  0
  9 10  1  0  0  0  0
  9 29  1  0  0  0  0
 10 11  1  0  0  0  0
 10 30  1  0  0  0  0
 10 31  1  0  0  0  0
 11 12  1  0  0  0  0
 11 32  1  0  0  0  0
 11 33  1  0  0  0  0
 12 13  2  0  0  0  0
 12 14  1  0  0  0  0
 14 19  1  0  0  0  0
 14 15  1  0  0  0  0
 15 16  1  0  0  0  0
 15 34  1  0  0  0  0
 15 35  1  0  0  0  0
 16 17  1  0  0  0  0
 16 36  1  0  0  0  0
 16 37  1  0  0  0  0
 17 18  1  0  0  0  0
 18 19  1  0  0  0  0
 18 38  1  0  0  0  0
 18 39  1  0  0  0  0
 19 40  1  0  0  0  0
 19 41  1  0  0  0  0
M  END
> <s_m_source_file>
AV-unprocessed.smi

> <i_m_source_file_index>
3036

> <i_lp_mmshare_version>
43012

> <i_f3d_flags>
0

> <s_epik_input>
bjFbY0hdW2NIXVtjSF1uMVtDSDJdW0NAQEhdKFtDSDNdKVtOSF1bQ0gyXVtDSDJdQyg9TylOMltDSDJdW0NIMl1PW0NIMl1bQ0gyXTI=

> <s_epik_cmdline>
J2VwaWtfcHl0aG9uJywgJy1waCcsICc3LjAnLCAnLXRuJywgJzgnLCAnLW1hJywgJzIwMCcsICctbWV0YWxfYmluZGluZycsICctaW1hZScsICc8aW5maWxlLm1hZT4nLCAnLW9tYWUnLCAnPG91dGZpbGUubWFlPic=

> <r_lp_tautomer_probability>
1

> <r_epik_Ionization_Penalty>
2.55703

> <r_epik_Ionization_Penalty_Charging>
0

> <r_epik_Ionization_Penalty_Neutral>
2.55703

> <r_epik_State_Penalty>
2.726

> <r_epik_Charging_Adjusted_Penalty>
2.726

> <i_epik_Tot_Q>
0

> <i_epik_Tot_abs_Q>
0

> <r_epik_Metal_State_Penalty>
2.72597

> <b_epik_Metal_Only>
0

> <s_lp_Force_Field>
OPLS_2005

> <r_lp_Energy>
22.7119

> <b_lp_Chiralities_Consistent>
1

> <s_lp_Variant>
AV-unprocessed.smi:3036-3

> <Gold.Version>
5.8.1

> <Gold.Id.Protein>
6NUR|6NUR_protein|mol2

> <Gold.PLP.Fitness>
42.2967

> <Gold.PLP.PLP>
-32.7963

> <Gold.PLP.part.hbond>
-2.0000

> <Gold.PLP.part.metal>
0.0000

> <Gold.PLP.part.buried>
-4.1024

> <Gold.PLP.part.nonpolar>
-27.2995

> <Gold.PLP.part.repulsive>
0.2950

> <Gold.PLP.ligand.clash>
0.0000

> <Gold.PLP.ligand.torsion>
1.1448

> <Gold.PLP.Chemscore.Hbond>
1.8960

> <Gold.PLP.Chemscore.CHOScore>
2.0000

> <Gold.PLP.Chemscore.Metal>
0.0000

> <Gold.Chemscore.Hbonds>
donor molecule, donor type, donor heavy atom, donor atom, acceptor molecule, acceptor atom, score
      L1  H     9    29       P1  7948  1.00
      P1  H  7989  7998       L1    17  0.85
      L1  C     5    26       P1 10186  1.00
      L1  C     7    28       P1 10747  0.89

> <Gold.PLP.Chemscore.Internal.Correction>
0.1019

> <Gold.Rescore>
     Score         DG    S(hbond)    S(metal)    S(lipo)     H(rot)  DE(clash)    DE(int)     intcor
     11.72     -13.20       1.21        0.00      74.98       1.99       0.28       1.20       ----

> <Gold.Chemscore.Fitness>
11.7176

> <Gold.Chemscore.DG>
-13.1967

> <Gold.Chemscore.ZeroCoef>
-5.4800

> <Gold.Chemscore.Hbond>
1.2090

> <Gold.Chemscore.Metal>
0.0000

> <Gold.Chemscore.Lipo>
74.9836

> <Gold.Chemscore.Internal_Hbond>
0.0000

> <Gold.Chemscore.DEClash>
0.2810

> <Gold.Chemscore.DEInternal>
1.1982

> <Gold.Chemscore.Rot>
1.9900

> <Gold.Chemscore.Internal.Correction>
   9.000000E+99

> <Gold.Chemscore.Hbonds>
donor molecule, donor type, donor heavy atom, donor atom, acceptor molecule, acceptor atom, score
      L1  H     9    29       P1  7948  1.00
      P1  H  7989  7998       L1    17  0.07

> <Gold.Chemscore.Hbond.Weighted>
-4.0380

> <Gold.Chemscore.Metal.Weighted>
-0.0000

> <Gold.Chemscore.Lipo.Weighted>
-8.7731

> <Gold.Chemscore.Internal_Hbond.Weighted>
0.0000

> <Gold.Chemscore.DEClash.Weighted>
0.2810

> <Gold.Chemscore.DEInternal.Weighted>
1.1982

> <Gold.Chemscore.Rot.Weighted>
5.0944

> <Gold.Chemscore.Internal.Correction.Weighted>
   9.000000E+99

> <Gold.Protein.RotatedTorsions>
[ 6907 6896 6895 6894 ] final -141.64 input  -60.11 | X-H torsion
[ 7974 7965 7964 7962 ] final   95.26 input  175.53 | X-H torsion
[ 8008 7997 7996 7995 ] final  178.48 input   59.86 | X-H torsion
[ 10167 10162 10161 10158 ] final  -83.82 input  -65.29 | X-H torsion
[ 10718 10713 10712 10709 ] final  -66.18 input   66.30 | X-H torsion
[ 10763 10752 10751 10750 ] final -121.00 input  -60.55 | X-H torsion
[ 11005 11000 10999 10996 ] final -164.94 input  -57.11 | X-H torsion

> <Gold.Protein.ActiveResidues>
 VAL166  LYS551  ARG553  GLY616  TRP617  ASP618  TYR619  PRO620  LYS621  CYS622 
 ASP623  PHE694  ASN695  SER759  ASP760  ASP761  ALA762  ILE779  LEU786  VAL792 
 PHE793  MET794  SER795  GLU796  ALA797  LYS798  CYS799  TRP800  GLU811  SER814 

> <Gold.Protein.RotatedAtoms>
  151.0765  133.5424  159.2623 H   0  0  0  0  0  0  0  0  0  0  0  0  # atno 6907 bound_to 6896
  151.2343  135.0565  159.9010 H   0  0  0  0  0  0  0  0  0  0  0  0  # atno 6908 bound_to 6896
  152.5418  134.0549  159.8180 H   0  0  0  0  0  0  0  0  0  0  0  0  # atno 6909 bound_to 6896
  145.4546  139.2291  143.3021 H   0  0  0  0  0  0  0  0  0  0  0  0  # atno 7974 bound_to 7965
  156.0542  140.1332  157.0016 H   0  0  0  0  0  0  0  0  0  0  0  0  # atno 8008 bound_to 7997
  154.4449  140.1004  156.6491 H   0  0  0  0  0  0  0  0  0  0  0  0  # atno 8009 bound_to 7997
  155.5477  140.3462  155.4463 H   0  0  0  0  0  0  0  0  0  0  0  0  # atno 8010 bound_to 7997
  140.4191  143.2592  151.8914 H   0  0  0  0  0  0  0  0  0  0  0  0  # atno 10167 bound_to 10162
  156.0627  130.4258  150.1671 H   0  0  0  0  0  0  0  0  0  0  0  0  # atno 10718 bound_to 10713
  154.8658  135.4183  154.2550 H   0  0  0  0  0  0  0  0  0  0  0  0  # atno 10763 bound_to 10752
  153.3489  135.6997  153.6810 H   0  0  0  0  0  0  0  0  0  0  0  0  # atno 10764 bound_to 10752
  153.5758  135.3582  155.2828 H   0  0  0  0  0  0  0  0  0  0  0  0  # atno 10765 bound_to 10752
  140.5812  134.5139  157.5178 H   0  0  0  0  0  0  0  0  0  0  0  0  # atno 11005 bound_to 11000
  146.2485  140.5308  142.8903 LP  0  0  0  0  0  0  0  0  0  0  0  0  # atno 17320 bound_to 7965
  144.8040  140.6266  143.6459 LP  0  0  0  0  0  0  0  0  0  0  0  0  # atno 17321 bound_to 7965
  139.4782  144.5456  151.8463 LP  0  0  0  0  0  0  0  0  0  0  0  0  # atno 17342 bound_to 10162
  140.4553  144.1797  150.5901 LP  0  0  0  0  0  0  0  0  0  0  0  0  # atno 17343 bound_to 10162
  156.9737  130.9842  151.3453 LP  0  0  0  0  0  0  0  0  0  0  0  0  # atno 17370 bound_to 10713
  157.5647  130.8269  149.8312 LP  0  0  0  0  0  0  0  0  0  0  0  0  # atno 17371 bound_to 10713
  139.9316  134.7953  156.0915 LP  0  0  0  0  0  0  0  0  0  0  0  0  # atno 17394 bound_to 11000
  141.0995  133.6683  156.2721 LP  0  0  0  0  0  0  0  0  0  0  0  0  # atno 17395 bound_to 11000

$$$$
