AV-unprocessed.smi:1115|AV-procd|sdf|4804|dock1
  -GOLD-   22720 3353D 1   1.00000     0.00000
 Structure written by MMmdl.
 52 53  0  0  0  0  0  0  0  0  3 V2000
  151.4944  144.6738  158.2940 C   0  0  0  0  0  0  0  0  0  0  0  0
  151.8718  143.3438  158.7544 N   0  0  0  0  0  0  0  0  0  0  0  0
  151.7304  142.1909  157.8720 C   0  0  0  0  0  0  0  0  0  0  0  0
  152.4287  143.1781  160.0409 C   0  0  0  0  0  0  0  0  0  0  0  0
  153.2845  142.1026  160.3833 C   0  0  0  0  0  0  0  0  0  0  0  0
  153.8025  142.0074  161.6911 C   0  0  0  0  0  0  0  0  0  0  0  0
  153.4610  142.9783  162.6555 C   0  0  0  0  0  0  0  0  0  0  0  0
  154.0212  142.8445  163.9554 N   0  0  0  0  0  0  0  0  0  0  0  0
  155.0045  142.0253  164.3669 C   0  0  0  0  0  0  0  0  0  0  0  0
  155.6349  141.2517  163.6471 O   0  0  0  0  0  0  0  0  0  0  0  0
  155.2387  142.1703  165.6792 N   0  0  0  0  0  0  0  0  0  0  0  0
  156.2363  141.4301  166.4516 C   0  0  0  0  0  0  0  0  0  0  0  0
  156.2669  141.8171  167.9612 C   0  0  0  0  0  0  0  0  0  0  0  0
  154.8272  141.9009  168.5286 C   0  0  0  0  0  0  0  0  0  0  0  0
  156.9818  140.7058  168.7697 C   0  0  0  0  0  0  0  0  0  0  0  0
  156.9732  143.1321  168.1756 N   0  3  0  0  0  0  0  0  0  0  0  0
  156.6840  143.8211  169.4656 C   0  0  0  0  0  0  0  0  0  0  0  0
  157.3102  145.2253  169.4831 C   0  0  0  0  0  0  0  0  0  0  0  0
  158.7113  145.1256  169.2731 O   0  0  0  0  0  0  0  0  0  0  0  0
  159.0117  144.5547  168.0077 C   0  0  0  0  0  0  0  0  0  0  0  0
  158.4444  143.1270  167.9332 C   0  0  0  0  0  0  0  0  0  0  0  0
  152.6100  144.0390  162.2625 C   0  0  0  0  0  0  0  0  0  0  0  0
  152.1374  144.0921  160.9986 N   0  3  0  0  0  0  0  0  0  0  0  0
  150.7660  145.1224  158.9702 H   0  0  0  0  0  0  0  0  0  0  0  0
  151.0455  144.6368  157.3011 H   0  0  0  0  0  0  0  0  0  0  0  0
  152.3695  145.3224  158.2417 H   0  0  0  0  0  0  0  0  0  0  0  0
  151.0653  141.4488  158.3144 H   0  0  0  0  0  0  0  0  0  0  0  0
  152.6997  141.7247  157.6918 H   0  0  0  0  0  0  0  0  0  0  0  0
  151.3143  142.4786  156.9062 H   0  0  0  0  0  0  0  0  0  0  0  0
  153.5549  141.3453  159.6629 H   0  0  0  0  0  0  0  0  0  0  0  0
  154.4566  141.1871  161.9491 H   0  0  0  0  0  0  0  0  0  0  0  0
  153.6489  143.4727  164.6524 H   0  0  0  0  0  0  0  0  0  0  0  0
  154.6760  142.8352  166.1897 H   0  0  0  0  0  0  0  0  0  0  0  0
  155.9847  140.3768  166.3343 H   0  0  0  0  0  0  0  0  0  0  0  0
  157.2194  141.5517  165.9964 H   0  0  0  0  0  0  0  0  0  0  0  0
  154.3586  140.9184  168.5928 H   0  0  0  0  0  0  0  0  0  0  0  0
  154.1713  142.5077  167.9044 H   0  0  0  0  0  0  0  0  0  0  0  0
  154.8194  142.3215  169.5349 H   0  0  0  0  0  0  0  0  0  0  0  0
  156.3956  139.7866  168.7974 H   0  0  0  0  0  0  0  0  0  0  0  0
  157.1467  141.0104  169.8039 H   0  0  0  0  0  0  0  0  0  0  0  0
  157.9464  140.4348  168.3414 H   0  0  0  0  0  0  0  0  0  0  0  0
  155.6140  143.9314  169.6302 H   0  0  0  0  0  0  0  0  0  0  0  0
  157.0816  143.2440  170.3005 H   0  0  0  0  0  0  0  0  0  0  0  0
  156.8578  145.8647  168.7233 H   0  0  0  0  0  0  0  0  0  0  0  0
  157.1326  145.7029  170.4470 H   0  0  0  0  0  0  0  0  0  0  0  0
  158.6085  145.1776  167.2075 H   0  0  0  0  0  0  0  0  0  0  0  0
  160.0941  144.5345  167.8791 H   0  0  0  0  0  0  0  0  0  0  0  0
  158.9478  142.5006  168.6697 H   0  0  0  0  0  0  0  0  0  0  0  0
  158.6888  142.7281  166.9508 H   0  0  0  0  0  0  0  0  0  0  0  0
  152.2942  144.8546  162.8949 H   0  0  0  0  0  0  0  0  0  0  0  0
  151.5263  144.8703  160.7499 H   0  0  0  0  0  0  0  0  0  0  0  0
  156.5951  143.7403  167.4633 H   0  0  0  0  0  0  0  0  0  0  0  0
  1  2  1  0  0  0  0
  1 24  1  0  0  0  0
  1 25  1  0  0  0  0
  1 26  1  0  0  0  0
  2  3  1  0  0  0  0
  2  4  1  0  0  0  0
  3 27  1  0  0  0  0
  3 28  1  0  0  0  0
  3 29  1  0  0  0  0
  4 23  1  0  0  0  0
  4  5  2  0  0  0  0
  5  6  1  0  0  0  0
  5 30  1  0  0  0  0
  6  7  2  0  0  0  0
  6 31  1  0  0  0  0
  7  8  1  0  0  0  0
  7 22  1  0  0  0  0
  8  9  1  0  0  0  0
  8 32  1  0  0  0  0
  9 10  2  0  0  0  0
  9 11  1  0  0  0  0
 11 12  1  0  0  0  0
 11 33  1  0  0  0  0
 12 13  1  0  0  0  0
 12 34  1  0  0  0  0
 12 35  1  0  0  0  0
 13 14  1  0  0  0  0
 13 15  1  0  0  0  0
 13 16  1  0  0  0  0
 14 36  1  0  0  0  0
 14 37  1  0  0  0  0
 14 38  1  0  0  0  0
 15 39  1  0  0  0  0
 15 40  1  0  0  0  0
 15 41  1  0  0  0  0
 16 21  1  0  0  0  0
 16 17  1  0  0  0  0
 16 52  1  0  0  0  0
 17 18  1  0  0  0  0
 17 42  1  0  0  0  0
 17 43  1  0  0  0  0
 18 19  1  0  0  0  0
 18 44  1  0  0  0  0
 18 45  1  0  0  0  0
 19 20  1  0  0  0  0
 20 21  1  0  0  0  0
 20 46  1  0  0  0  0
 20 47  1  0  0  0  0
 21 48  1  0  0  0  0
 21 49  1  0  0  0  0
 22 23  2  0  0  0  0
 22 50  1  0  0  0  0
 23 51  1  0  0  0  0
M  CHG  1  16   1
M  CHG  1  23   1
M  END
> <s_m_source_file>
AV-unprocessed.smi

> <i_m_source_file_index>
1115

> <i_lp_mmshare_version>
43012

> <i_f3d_flags>
0

> <s_epik_input>
W0NIM11OKFtDSDNdKWMxW2NIXVtjSF1jKFtjSF1uMSlbTkhdQyg9TylbTkhdW0NIMl1DKFtDSDNdKShbQ0gzXSlOMltDSDJdW0NIMl1PW0NIMl1bQ0gyXTI=

> <s_epik_cmdline>
J2VwaWtfcHl0aG9uJywgJy1waCcsICc3LjAnLCAnLXRuJywgJzgnLCAnLW1hJywgJzIwMCcsICctbWV0YWxfYmluZGluZycsICctaW1hZScsICc8aW5maWxlLm1hZT4nLCAnLW9tYWUnLCAnPG91dGZpbGUubWFlPic=

> <r_lp_tautomer_probability>
0.999994

> <r_epik_Ionization_Penalty>
0.90424

> <r_epik_Ionization_Penalty_Charging>
0.90422

> <r_epik_Ionization_Penalty_Neutral>
2.023e-05

> <r_epik_State_Penalty>
0.905868

> <r_epik_Charging_Adjusted_Penalty>
1.81009

> <i_epik_Tot_Q>
2

> <i_epik_Tot_abs_Q>
2

> <r_epik_Metal_State_Penalty>
1.19318

> <b_epik_Metal_Only>
0

> <s_lp_Force_Field>
OPLS_2005

> <r_lp_Energy>
35.8961

> <b_lp_Chiralities_Consistent>
1

> <s_lp_Variant>
AV-unprocessed.smi:1115-3

> <Gold.Version>
5.8.1

> <Gold.Id.Protein>
6NUR|6NUR_protein|mol2

> <Gold.PLP.Fitness>
41.7374

> <Gold.PLP.PLP>
-43.3006

> <Gold.PLP.part.hbond>
-1.0000

> <Gold.PLP.part.metal>
0.0000

> <Gold.PLP.part.buried>
-6.8312

> <Gold.PLP.part.nonpolar>
-34.5201

> <Gold.PLP.part.repulsive>
0.2841

> <Gold.PLP.ligand.clash>
0.0000

> <Gold.PLP.ligand.torsion>
0.8482

> <Gold.PLP.Chemscore.Hbond>
0.0000

> <Gold.PLP.Chemscore.CHOScore>
0.0000

> <Gold.PLP.Chemscore.Metal>
0.0000

> <Gold.PLP.Chemscore.Internal.Correction>
0.1331

> <Gold.Rescore>
     Score         DG    S(hbond)    S(metal)    S(lipo)     H(rot)  DE(clash)    DE(int)     intcor
     10.55     -12.35       0.00        0.00      91.25       1.49       0.03       1.76       ----

> <Gold.Chemscore.Fitness>
10.5530

> <Gold.Chemscore.DG>
-12.3468

> <Gold.Chemscore.ZeroCoef>
-5.4800

> <Gold.Chemscore.Hbond>
0.0000

> <Gold.Chemscore.Metal>
0.0000

> <Gold.Chemscore.Lipo>
91.2452

> <Gold.Chemscore.Internal_Hbond>
0.0000

> <Gold.Chemscore.DEClash>
0.0331

> <Gold.Chemscore.DEInternal>
1.7607

> <Gold.Chemscore.Rot>
1.4878

> <Gold.Chemscore.Internal.Correction>
   9.000000E+99

> <Gold.Chemscore.Hbond.Weighted>
-0.0000

> <Gold.Chemscore.Metal.Weighted>
-0.0000

> <Gold.Chemscore.Lipo.Weighted>
-10.6757

> <Gold.Chemscore.Internal_Hbond.Weighted>
0.0000

> <Gold.Chemscore.DEClash.Weighted>
0.0331

> <Gold.Chemscore.DEInternal.Weighted>
1.7607

> <Gold.Chemscore.Rot.Weighted>
3.8089

> <Gold.Chemscore.Internal.Correction.Weighted>
   9.000000E+99

> <Gold.Protein.RotatedTorsions>
[ 6907 6896 6895 6894 ] final  -46.95 input  -60.11 | X-H torsion
[ 7974 7965 7964 7962 ] final -116.97 input  175.53 | X-H torsion
[ 8008 7997 7996 7995 ] final -171.14 input   59.86 | X-H torsion
[ 10167 10162 10161 10158 ] final  165.12 input  -65.29 | X-H torsion
[ 10718 10713 10712 10709 ] final  169.96 input   66.30 | X-H torsion
[ 10763 10752 10751 10750 ] final -146.69 input  -60.55 | X-H torsion
[ 11005 11000 10999 10996 ] final  -23.81 input  -57.11 | X-H torsion

> <Gold.Protein.ActiveResidues>
 VAL166  LYS551  ARG553  GLY616  TRP617  ASP618  TYR619  PRO620  LYS621  CYS622 
 ASP623  PHE694  ASN695  SER759  ASP760  ASP761  ALA762  ILE779  LEU786  VAL792 
 PHE793  MET794  SER795  GLU796  ALA797  LYS798  CYS799  TRP800  GLU811  SER814 

> <Gold.Protein.RotatedAtoms>
  150.9059  134.8473  159.7391 H   0  0  0  0  0  0  0  0  0  0  0  0  # atno 6907 bound_to 6896
  152.4918  134.4432  159.9560 H   0  0  0  0  0  0  0  0  0  0  0  0  # atno 6908 bound_to 6896
  151.4480  133.3586  159.2826 H   0  0  0  0  0  0  0  0  0  0  0  0  # atno 6909 bound_to 6896
  145.0905  140.8487  143.3985 H   0  0  0  0  0  0  0  0  0  0  0  0  # atno 7974 bound_to 7965
  155.9276  140.1085  157.1158 H   0  0  0  0  0  0  0  0  0  0  0  0  # atno 8008 bound_to 7997
  154.4065  140.1244  156.4826 H   0  0  0  0  0  0  0  0  0  0  0  0  # atno 8009 bound_to 7997
  155.7120  140.3471  155.4980 H   0  0  0  0  0  0  0  0  0  0  0  0  # atno 8010 bound_to 7997
  139.4900  144.4164  151.9238 H   0  0  0  0  0  0  0  0  0  0  0  0  # atno 10167 bound_to 10162
  157.0150  131.0215  151.2792 H   0  0  0  0  0  0  0  0  0  0  0  0  # atno 10718 bound_to 10713
  154.8323  135.3380  154.6701 H   0  0  0  0  0  0  0  0  0  0  0  0  # atno 10763 bound_to 10752
  153.7320  135.6951  153.4991 H   0  0  0  0  0  0  0  0  0  0  0  0  # atno 10764 bound_to 10752
  153.2305  135.4418  155.0542 H   0  0  0  0  0  0  0  0  0  0  0  0  # atno 10765 bound_to 10752
  140.8787  133.7669  156.0275 H   0  0  0  0  0  0  0  0  0  0  0  0  # atno 11005 bound_to 11000
  145.1071  139.2782  143.5656 LP  0  0  0  0  0  0  0  0  0  0  0  0  # atno 17320 bound_to 7965
  146.3531  140.0655  142.8626 LP  0  0  0  0  0  0  0  0  0  0  0  0  # atno 17321 bound_to 7965
  140.3607  144.2976  150.5934 LP  0  0  0  0  0  0  0  0  0  0  0  0  # atno 17342 bound_to 10162
  140.5405  143.2224  151.8092 LP  0  0  0  0  0  0  0  0  0  0  0  0  # atno 17343 bound_to 10162
  157.5292  130.8047  149.7897 LP  0  0  0  0  0  0  0  0  0  0  0  0  # atno 17370 bound_to 10713
  156.0122  130.3828  150.2226 LP  0  0  0  0  0  0  0  0  0  0  0  0  # atno 17371 bound_to 10713
  140.8487  134.2980  157.5284 LP  0  0  0  0  0  0  0  0  0  0  0  0  # atno 17394 bound_to 11000
  139.8718  134.9456  156.3914 LP  0  0  0  0  0  0  0  0  0  0  0  0  # atno 17395 bound_to 11000

$$$$
