AV-unprocessed.smi:2592|AV-procd|sdf|10161|dock2
  -GOLD-   2272014173D 1   1.00000     0.00000
 Structure written by MMmdl.
 42 43  0  0  0  0  0  0  0  0  3 V2000
  146.4633  137.1005  162.2374 C   0  0  0  0  0  0  0  0  0  0  0  0
  146.9397  135.9822  161.3624 C   0  0  0  0  0  0  0  0  0  0  0  0
  147.8277  136.2513  160.3178 N   0  0  0  0  0  0  0  0  0  0  0  0
  148.1810  135.1666  159.6212 C   0  0  0  0  0  0  0  0  0  0  0  0
  149.0229  135.2082  158.5756 N   0  5  0  0  0  0  0  0  0  0  0  0
  148.9830  134.2366  157.6364 C   0  0  0  0  0  0  0  0  0  0  0  0
  148.2820  133.2221  157.6623 O   0  0  0  0  0  0  0  0  0  0  0  0
  149.8003  134.4577  156.5967 N   0  0  0  0  0  0  0  0  0  0  0  0
  149.9464  133.5972  155.4280 C   0  0  0  0  0  0  0  0  0  0  0  0
  149.4519  134.2967  154.1514 C   0  0  0  0  0  0  0  0  0  0  0  0
  147.9184  134.3629  154.0748 C   0  0  0  0  0  0  0  0  0  0  0  0
  147.4235  134.3426  152.6757 N   0  3  0  0  0  0  0  0  0  0  0  0
  147.6284  133.0279  152.0217 C   0  0  0  0  0  0  0  0  0  0  0  0
  147.1512  133.0719  150.5601 C   0  0  0  0  0  0  0  0  0  0  0  0
  145.7845  133.4617  150.5161 O   0  0  0  0  0  0  0  0  0  0  0  0
  145.5845  134.7601  151.0605 C   0  0  0  0  0  0  0  0  0  0  0  0
  146.0095  134.7731  152.5385 C   0  0  0  0  0  0  0  0  0  0  0  0
  147.3929  133.7102  160.2284 S   0  0  0  0  0  0  0  0  0  0  0  0
  146.5975  134.6561  161.4581 C   0  0  0  0  0  0  0  0  0  0  0  0
  145.6804  134.0160  162.4462 C   0  0  0  0  0  0  0  0  0  0  0  0
  145.3991  137.2858  162.0911 H   0  0  0  0  0  0  0  0  0  0  0  0
  146.9916  138.0310  162.0269 H   0  0  0  0  0  0  0  0  0  0  0  0
  146.6174  136.8676  163.2912 H   0  0  0  0  0  0  0  0  0  0  0  0
  150.3594  135.2980  156.6195 H   0  0  0  0  0  0  0  0  0  0  0  0
  151.0012  133.3408  155.3288 H   0  0  0  0  0  0  0  0  0  0  0  0
  149.4119  132.6587  155.5851 H   0  0  0  0  0  0  0  0  0  0  0  0
  149.8709  135.3018  154.1132 H   0  0  0  0  0  0  0  0  0  0  0  0
  149.8371  133.7683  153.2783 H   0  0  0  0  0  0  0  0  0  0  0  0
  147.5166  133.4989  154.6062 H   0  0  0  0  0  0  0  0  0  0  0  0
  147.5415  135.2469  154.5917 H   0  0  0  0  0  0  0  0  0  0  0  0
  148.6847  132.7579  152.0526 H   0  0  0  0  0  0  0  0  0  0  0  0
  147.0836  132.2580  152.5704 H   0  0  0  0  0  0  0  0  0  0  0  0
  147.7587  133.7611  149.9715 H   0  0  0  0  0  0  0  0  0  0  0  0
  147.2524  132.0877  150.1021 H   0  0  0  0  0  0  0  0  0  0  0  0
  146.1462  135.4994  150.4871 H   0  0  0  0  0  0  0  0  0  0  0  0
  144.5302  135.0221  150.9704 H   0  0  0  0  0  0  0  0  0  0  0  0
  145.3654  134.1084  153.1163 H   0  0  0  0  0  0  0  0  0  0  0  0
  145.8737  135.7768  152.9392 H   0  0  0  0  0  0  0  0  0  0  0  0
  146.1577  133.9449  163.4237 H   0  0  0  0  0  0  0  0  0  0  0  0
  145.4029  133.0097  162.1320 H   0  0  0  0  0  0  0  0  0  0  0  0
  144.7642  134.5960  162.5584 H   0  0  0  0  0  0  0  0  0  0  0  0
  147.9862  135.0057  152.1619 H   0  0  0  0  0  0  0  0  0  0  0  0
  1  2  1  0  0  0  0
  1 21  1  0  0  0  0
  1 22  1  0  0  0  0
  1 23  1  0  0  0  0
  2 19  2  0  0  0  0
  2  3  1  0  0  0  0
  3  4  2  0  0  0  0
  4  5  1  0  0  0  0
  4 18  1  0  0  0  0
  5  6  1  0  0  0  0
  6  7  2  0  0  0  0
  6  8  1  0  0  0  0
  8  9  1  0  0  0  0
  8 24  1  0  0  0  0
  9 10  1  0  0  0  0
  9 25  1  0  0  0  0
  9 26  1  0  0  0  0
 10 11  1  0  0  0  0
 10 27  1  0  0  0  0
 10 28  1  0  0  0  0
 11 12  1  0  0  0  0
 11 29  1  0  0  0  0
 11 30  1  0  0  0  0
 12 17  1  0  0  0  0
 12 13  1  0  0  0  0
 12 42  1  0  0  0  0
 13 14  1  0  0  0  0
 13 31  1  0  0  0  0
 13 32  1  0  0  0  0
 14 15  1  0  0  0  0
 14 33  1  0  0  0  0
 14 34  1  0  0  0  0
 15 16  1  0  0  0  0
 16 17  1  0  0  0  0
 16 35  1  0  0  0  0
 16 36  1  0  0  0  0
 17 37  1  0  0  0  0
 17 38  1  0  0  0  0
 18 19  1  0  0  0  0
 19 20  1  0  0  0  0
 20 39  1  0  0  0  0
 20 40  1  0  0  0  0
 20 41  1  0  0  0  0
M  CHG  1   5  -1
M  CHG  1  12   1
M  END
> <s_m_source_file>
AV-unprocessed.smi

> <i_m_source_file_index>
2592

> <i_lp_mmshare_version>
43012

> <i_f3d_flags>
0

> <s_epik_input>
W0NIM11jMW5jKHNjMVtDSDNdKVtOSF1DKD1PKVtOSF1bQ0gyXVtDSDJdW0NIMl1OMltDSDJdW0NIMl1PW0NIMl1bQ0gyXTI=

> <s_epik_cmdline>
J2VwaWtfcHl0aG9uJywgJy1waCcsICc3LjAnLCAnLXRuJywgJzgnLCAnLW1hJywgJzIwMCcsICctbWV0YWxfYmluZGluZycsICctaW1hZScsICc8aW5maWxlLm1hZT4nLCAnLW9tYWUnLCAnPG91dGZpbGUubWFlPic=

> <r_lp_tautomer_probability>
0.999

> <r_epik_Ionization_Penalty>
7.73516

> <r_epik_Ionization_Penalty_Charging>
6.31615

> <r_epik_Ionization_Penalty_Neutral>
1.41901

> <r_epik_State_Penalty>
6.31054

> <r_epik_Charging_Adjusted_Penalty>
12.6267

> <i_epik_Tot_Q>
0

> <i_epik_Tot_abs_Q>
2

> <r_epik_Metal_State_Penalty>
2.25864

> <b_epik_Metal_Only>
1

> <s_lp_Force_Field>
OPLS_2005

> <r_lp_Energy>
6.70997

> <b_lp_Chiralities_Consistent>
1

> <s_lp_Variant>
AV-unprocessed.smi:2592-3

> <Gold.Version>
5.8.1

> <Gold.Id.Protein>
6NUR|6NUR_protein|mol2

> <Gold.PLP.Fitness>
43.2825

> <Gold.PLP.PLP>
-32.1410

> <Gold.PLP.part.hbond>
-2.0000

> <Gold.PLP.part.metal>
0.0000

> <Gold.PLP.part.buried>
-4.3584

> <Gold.PLP.part.nonpolar>
-26.3536

> <Gold.PLP.part.repulsive>
0.2159

> <Gold.PLP.ligand.clash>
0.0000

> <Gold.PLP.ligand.torsion>
0.4660

> <Gold.PLP.Chemscore.Hbond>
4.0000

> <Gold.PLP.Chemscore.CHOScore>
0.0000

> <Gold.PLP.Chemscore.Metal>
0.0000

> <Gold.Chemscore.Hbonds>
donor molecule, donor type, donor heavy atom, donor atom, acceptor molecule, acceptor atom, score
      L1  H    12    42       P1  7948  2.00
      P1  H  6896  6909       L1     5  0.70

> <Gold.PLP.Chemscore.Internal.Correction>
0.0734

> <Gold.Rescore>
     Score         DG    S(hbond)    S(metal)    S(lipo)     H(rot)  DE(clash)    DE(int)     intcor
     13.11     -14.93       1.78        0.00      67.49       1.72       0.00       1.82       ----

> <Gold.Chemscore.Fitness>
13.1125

> <Gold.Chemscore.DG>
-14.9290

> <Gold.Chemscore.ZeroCoef>
-5.4800

> <Gold.Chemscore.Hbond>
1.7797

> <Gold.Chemscore.Metal>
0.0000

> <Gold.Chemscore.Lipo>
67.4876

> <Gold.Chemscore.Internal_Hbond>
0.0000

> <Gold.Chemscore.DEClash>
0.0000

> <Gold.Chemscore.DEInternal>
1.8166

> <Gold.Chemscore.Rot>
1.7154

> <Gold.Chemscore.Internal.Correction>
   9.000000E+99

> <Gold.Chemscore.Hbonds>
donor molecule, donor type, donor heavy atom, donor atom, acceptor molecule, acceptor atom, score
      L1  H    12    42       P1  7948  0.66

> <Gold.Chemscore.Hbond.Weighted>
-5.9444

> <Gold.Chemscore.Metal.Weighted>
-0.0000

> <Gold.Chemscore.Lipo.Weighted>
-7.8960

> <Gold.Chemscore.Internal_Hbond.Weighted>
0.0000

> <Gold.Chemscore.DEClash.Weighted>
0.0000

> <Gold.Chemscore.DEInternal.Weighted>
1.8166

> <Gold.Chemscore.Rot.Weighted>
4.3914

> <Gold.Chemscore.Internal.Correction.Weighted>
   9.000000E+99

> <Gold.Protein.RotatedTorsions>
[ 6907 6896 6895 6894 ] final   26.24 input  -60.11 | X-H torsion
[ 7974 7965 7964 7962 ] final   30.16 input  175.53 | X-H torsion
[ 8008 7997 7996 7995 ] final -131.18 input   59.86 | X-H torsion
[ 10167 10162 10161 10158 ] final  -59.68 input  -65.29 | X-H torsion
[ 10718 10713 10712 10709 ] final  -33.79 input   66.30 | X-H torsion
[ 10763 10752 10751 10750 ] final  112.02 input  -60.55 | X-H torsion
[ 11005 11000 10999 10996 ] final -112.17 input  -57.11 | X-H torsion

> <Gold.Protein.ActiveResidues>
 VAL166  LYS551  ARG553  GLY616  TRP617  ASP618  TYR619  PRO620  LYS621  CYS622 
 ASP623  PHE694  ASN695  SER759  ASP760  ASP761  ALA762  ILE779  LEU786  VAL792 
 PHE793  MET794  SER795  GLU796  ALA797  LYS798  CYS799  TRP800  GLU811  SER814 

> <Gold.Protein.RotatedAtoms>
  151.9845  135.0011  160.0558 H   0  0  0  0  0  0  0  0  0  0  0  0  # atno 6907 bound_to 6896
  152.1665  133.4611  159.4896 H   0  0  0  0  0  0  0  0  0  0  0  0  # atno 6908 bound_to 6896
  150.6895  134.1924  159.4333 H   0  0  0  0  0  0  0  0  0  0  0  0  # atno 6909 bound_to 6896
  146.1628  139.6825  142.9021 H   0  0  0  0  0  0  0  0  0  0  0  0  # atno 7974 bound_to 7965
  155.3081  140.0456  157.3033 H   0  0  0  0  0  0  0  0  0  0  0  0  # atno 8008 bound_to 7997
  154.5448  140.2299  155.8548 H   0  0  0  0  0  0  0  0  0  0  0  0  # atno 8009 bound_to 7997
  156.1914  140.3049  155.9347 H   0  0  0  0  0  0  0  0  0  0  0  0  # atno 8010 bound_to 7997
  140.6120  143.2390  151.5687 H   0  0  0  0  0  0  0  0  0  0  0  0  # atno 10167 bound_to 10162
  156.3584  130.4319  149.7645 H   0  0  0  0  0  0  0  0  0  0  0  0  # atno 10718 bound_to 10713
  153.4718  135.3699  155.2395 H   0  0  0  0  0  0  0  0  0  0  0  0  # atno 10763 bound_to 10752
  154.8757  135.3933  154.3803 H   0  0  0  0  0  0  0  0  0  0  0  0  # atno 10764 bound_to 10752
  153.4393  135.7084  153.6244 H   0  0  0  0  0  0  0  0  0  0  0  0  # atno 10765 bound_to 10752
  141.0691  133.9410  157.2521 H   0  0  0  0  0  0  0  0  0  0  0  0  # atno 11005 bound_to 11000
  145.4544  141.0430  143.2786 LP  0  0  0  0  0  0  0  0  0  0  0  0  # atno 17320 bound_to 7965
  144.8051  139.6067  143.7054 LP  0  0  0  0  0  0  0  0  0  0  0  0  # atno 17321 bound_to 7965
  139.5368  144.2757  152.1269 LP  0  0  0  0  0  0  0  0  0  0  0  0  # atno 17342 bound_to 10162
  140.1959  144.4706  150.6456 LP  0  0  0  0  0  0  0  0  0  0  0  0  # atno 17343 bound_to 10162
  156.4818  130.8044  151.3058 LP  0  0  0  0  0  0  0  0  0  0  0  0  # atno 17370 bound_to 10713
  157.7470  131.0003  150.2922 LP  0  0  0  0  0  0  0  0  0  0  0  0  # atno 17371 bound_to 10713
  139.9505  135.0176  156.8980 LP  0  0  0  0  0  0  0  0  0  0  0  0  # atno 17394 bound_to 11000
  140.5712  134.0442  155.7431 LP  0  0  0  0  0  0  0  0  0  0  0  0  # atno 17395 bound_to 11000

$$$$
