AV-unprocessed.smi:528|AV-procd|sdf|2833|dock9
  -GOLD-   2262023323D 1   1.00000     0.00000
 Structure written by MMmdl.
 45 47  0  0  0  0  0  0  0  0  1 V2000
  151.2766  140.6220  158.2352 C   0  0  0  0  0  0  0  0  0  0  0  0
  150.1973  141.7051  158.0617 C   0  0  2  0  0  0  0  0  0  0  0  0
  149.5214  141.4856  156.7837 N   0  0  0  0  0  0  0  0  0  0  0  0
  150.1202  141.1831  155.6217 C   0  0  0  0  0  0  0  0  0  0  0  0
  151.3374  141.0322  155.5071 O   0  0  0  0  0  0  0  0  0  0  0  0
  149.1852  141.0206  154.4141 C   0  0  0  0  0  0  0  0  0  0  0  0
  147.7654  140.8788  154.7797 N   0  0  0  0  0  0  0  0  0  0  0  0
  146.9904  142.0550  154.8092 C   0  0  0  0  0  0  0  0  0  0  0  0
  145.6782  142.0614  155.1132 C   0  0  0  0  0  0  0  0  0  0  0  0
  144.8806  143.3541  155.1905 C   0  0  0  0  0  0  0  0  0  0  0  0
  145.0238  144.0738  154.0775 F   0  0  0  0  0  0  0  0  0  0  0  0
  143.5816  143.1099  155.3675 F   0  0  0  0  0  0  0  0  0  0  0  0
  145.3077  144.0882  156.2171 F   0  0  0  0  0  0  0  0  0  0  0  0
  145.0885  140.7810  155.4515 C   0  0  0  0  0  0  0  0  0  0  0  0
  145.8181  139.6483  155.4405 C   0  0  0  0  0  0  0  0  0  0  0  0
  147.2392  139.6550  155.0861 C   0  0  0  0  0  0  0  0  0  0  0  0
  147.9149  138.6257  155.0671 O   0  0  0  0  0  0  0  0  0  0  0  0
  150.7698  143.1438  158.1037 C   0  0  1  0  0  0  0  0  0  0  0  0
  150.1513  144.0228  159.2205 C   0  0  0  0  0  0  0  0  0  0  0  0
  151.3804  144.5441  159.9860 C   0  0  2  0  0  0  0  0  0  0  0  0
  152.1489  145.5459  159.1055 C   0  0  0  0  0  0  0  0  0  0  0  0
  152.7962  144.6354  158.0457 C   0  0  0  0  0  0  0  0  0  0  0  0
  152.2809  143.2369  158.4374 C   0  0  1  0  0  0  0  0  0  0  0  0
  152.2951  143.3277  159.9601 C   0  0  0  0  0  0  0  0  0  0  0  0
  151.7529  140.6755  159.2130 H   0  0  0  0  0  0  0  0  0  0  0  0
  152.0559  140.7134  157.4780 H   0  0  0  0  0  0  0  0  0  0  0  0
  150.8462  139.6237  158.1475 H   0  0  0  0  0  0  0  0  0  0  0  0
  149.4775  141.6000  158.8749 H   0  0  0  0  0  0  0  0  0  0  0  0
  148.5163  141.5830  156.7834 H   0  0  0  0  0  0  0  0  0  0  0  0
  149.3272  141.8796  153.7569 H   0  0  0  0  0  0  0  0  0  0  0  0
  149.5073  140.1580  153.8273 H   0  0  0  0  0  0  0  0  0  0  0  0
  147.5352  142.9581  154.5746 H   0  0  0  0  0  0  0  0  0  0  0  0
  144.0426  140.7285  155.7163 H   0  0  0  0  0  0  0  0  0  0  0  0
  145.3451  138.7120  155.6976 H   0  0  0  0  0  0  0  0  0  0  0  0
  150.5839  143.6068  157.1329 H   0  0  0  0  0  0  0  0  0  0  0  0
  149.5385  144.8309  158.8199 H   0  0  0  0  0  0  0  0  0  0  0  0
  149.5228  143.4360  159.8922 H   0  0  0  0  0  0  0  0  0  0  0  0
  151.1470  144.9240  160.9811 H   0  0  0  0  0  0  0  0  0  0  0  0
  151.4914  146.2962  158.6650 H   0  0  0  0  0  0  0  0  0  0  0  0
  152.9140  146.0665  159.6827 H   0  0  0  0  0  0  0  0  0  0  0  0
  152.5195  144.9147  157.0286 H   0  0  0  0  0  0  0  0  0  0  0  0
  153.8837  144.6798  158.1179 H   0  0  0  0  0  0  0  0  0  0  0  0
  152.8921  142.4354  158.0249 H   0  0  0  0  0  0  0  0  0  0  0  0
  153.2866  143.5243  160.3724 H   0  0  0  0  0  0  0  0  0  0  0  0
  151.8703  142.4532  160.4556 H   0  0  0  0  0  0  0  0  0  0  0  0
  1  2  1  0  0  0  0
  1 25  1  0  0  0  0
  1 26  1  0  0  0  0
  1 27  1  0  0  0  0
  2  3  1  0  0  0  0
  2 18  1  0  0  0  0
  2 28  1  0  0  0  0
  3  4  1  0  0  0  0
  3 29  1  0  0  0  0
  4  5  2  0  0  0  0
  4  6  1  0  0  0  0
  6  7  1  0  0  0  0
  6 30  1  0  0  0  0
  6 31  1  0  0  0  0
  7 16  1  0  0  0  0
  7  8  1  0  0  0  0
  8  9  2  0  0  0  0
  8 32  1  0  0  0  0
  9 10  1  0  0  0  0
  9 14  1  0  0  0  0
 10 11  1  0  0  0  0
 10 12  1  0  0  0  0
 10 13  1  0  0  0  0
 14 15  2  0  0  0  0
 14 33  1  0  0  0  0
 15 16  1  0  0  0  0
 15 34  1  0  0  0  0
 16 17  2  0  0  0  0
 18 23  1  0  0  0  0
 18 19  1  0  0  0  0
 18 35  1  0  0  0  0
 19 20  1  0  0  0  0
 19 36  1  0  0  0  0
 19 37  1  0  0  0  0
 20 24  1  0  0  0  0
 20 21  1  0  0  0  0
 20 38  1  0  0  0  0
 21 22  1  0  0  0  0
 21 39  1  0  0  0  0
 21 40  1  0  0  0  0
 22 23  1  0  0  0  0
 22 41  1  0  0  0  0
 22 42  1  0  0  0  0
 23 24  1  0  0  0  0
 23 43  1  0  0  0  0
 24 44  1  0  0  0  0
 24 45  1  0  0  0  0
M  END
> <s_m_source_file>
AV-unprocessed.smi

> <i_m_source_file_index>
528

> <i_lp_mmshare_version>
43012

> <i_f3d_flags>
0

> <s_epik_input>
W0NIMl0xW0NIMl1bQ0BASF0oW0NIMl0yKVtDQEBIXShbQ0gyXVtDQEhdMTIpW0NASF0oW0NIM10pW05IXUMoPU8pW0NIMl1uM1tjSF1jKEMoRikoRilGKVtjSF1bY0hdYzM9Tw==

> <s_epik_cmdline>
J2VwaWtfcHl0aG9uJywgJy1waCcsICc3LjAnLCAnLXRuJywgJzgnLCAnLW1hJywgJzIwMCcsICctbWV0YWxfYmluZGluZycsICctaW1hZScsICc8aW5maWxlLm1hZT4nLCAnLW9tYWUnLCAnPG91dGZpbGUubWFlPic=

> <r_lp_tautomer_probability>
1

> <r_epik_Ionization_Penalty>
4.09479e-08

> <r_epik_Ionization_Penalty_Charging>
1.9321e-08

> <r_epik_Ionization_Penalty_Neutral>
2.16269e-08

> <r_epik_State_Penalty>
-0

> <r_epik_Charging_Adjusted_Penalty>
1.9321e-08

> <i_epik_Tot_Q>
0

> <i_epik_Tot_abs_Q>
0

> <r_epik_Metal_State_Penalty>
-0

> <b_epik_Metal_Only>
0

> <s_lp_Force_Field>
OPLS_2005

> <r_lp_Energy>
62.8308

> <b_lp_Chiralities_Consistent>
1

> <s_lp_Variant>
AV-unprocessed.smi:528-3

> <Gold.Version>
5.8.1

> <Gold.Id.Protein>
6NUR|6NUR_protein|mol2

> <Gold.PLP.Fitness>
45.4545

> <Gold.PLP.PLP>
-45.6669

> <Gold.PLP.part.hbond>
-1.0000

> <Gold.PLP.part.metal>
0.0000

> <Gold.PLP.part.buried>
-4.0673

> <Gold.PLP.part.nonpolar>
-39.5427

> <Gold.PLP.part.repulsive>
0.1291

> <Gold.PLP.ligand.clash>
0.0000

> <Gold.PLP.ligand.torsion>
2.5278

> <Gold.PLP.Chemscore.Hbond>
0.5868

> <Gold.PLP.Chemscore.CHOScore>
1.0000

> <Gold.PLP.Chemscore.Metal>
0.0000

> <Gold.Chemscore.Hbonds>
donor molecule, donor type, donor heavy atom, donor atom, acceptor molecule, acceptor atom, score
      P1  H  7989  7998       L1     5  0.61
      L1  C     8    32       P1  8028  1.00

> <Gold.PLP.Chemscore.Internal.Correction>
0.0828

> <Gold.Rescore>
     Score         DG    S(hbond)    S(metal)    S(lipo)     H(rot)  DE(clash)    DE(int)     intcor
     11.66     -15.68       0.41        0.00     112.90       1.71       0.27       3.76       ----

> <Gold.Chemscore.Fitness>
11.6569

> <Gold.Chemscore.DG>
-15.6834

> <Gold.Chemscore.ZeroCoef>
-5.4800

> <Gold.Chemscore.Hbond>
0.4125

> <Gold.Chemscore.Metal>
0.0000

> <Gold.Chemscore.Lipo>
112.9025

> <Gold.Chemscore.Internal_Hbond>
0.0000

> <Gold.Chemscore.DEClash>
0.2660

> <Gold.Chemscore.DEInternal>
3.7605

> <Gold.Chemscore.Rot>
1.7125

> <Gold.Chemscore.Internal.Correction>
   9.000000E+99

> <Gold.Chemscore.Hbonds>
donor molecule, donor type, donor heavy atom, donor atom, acceptor molecule, acceptor atom, score
      P1  H  7989  7998       L1     5  0.28

> <Gold.Chemscore.Hbond.Weighted>
-1.3778

> <Gold.Chemscore.Metal.Weighted>
-0.0000

> <Gold.Chemscore.Lipo.Weighted>
-13.2096

> <Gold.Chemscore.Internal_Hbond.Weighted>
0.0000

> <Gold.Chemscore.DEClash.Weighted>
0.2660

> <Gold.Chemscore.DEInternal.Weighted>
3.7605

> <Gold.Chemscore.Rot.Weighted>
4.3840

> <Gold.Chemscore.Internal.Correction.Weighted>
   9.000000E+99

> <Gold.Protein.RotatedTorsions>
[ 6907 6896 6895 6894 ] final   -0.78 input  -60.11 | X-H torsion
[ 7974 7965 7964 7962 ] final   79.69 input  175.53 | X-H torsion
[ 8008 7997 7996 7995 ] final   52.98 input   59.86 | X-H torsion
[ 10167 10162 10161 10158 ] final  -63.25 input  -65.29 | X-H torsion
[ 10718 10713 10712 10709 ] final  103.24 input   66.30 | X-H torsion
[ 10763 10752 10751 10750 ] final   94.62 input  -60.55 | X-H torsion
[ 11005 11000 10999 10996 ] final -101.50 input  -57.11 | X-H torsion

> <Gold.Protein.ActiveResidues>
 VAL166  LYS551  ARG553  GLY616  TRP617  ASP618  TYR619  PRO620  LYS621  CYS622 
 ASP623  PHE694  ASN695  SER759  ASP760  ASP761  ALA762  ILE779  LEU786  VAL792 
 PHE793  MET794  SER795  GLU796  ALA797  LYS798  CYS799  TRP800  GLU811  SER814 

> <Gold.Protein.RotatedAtoms>
  151.5568  135.1066  159.9962 H   0  0  0  0  0  0  0  0  0  0  0  0  # atno 6907 bound_to 6896
  152.4466  133.7543  159.6722 H   0  0  0  0  0  0  0  0  0  0  0  0  # atno 6908 bound_to 6896
  150.8383  133.7910  159.3095 H   0  0  0  0  0  0  0  0  0  0  0  0  # atno 6909 bound_to 6896
  145.6610  139.2471  143.1923 H   0  0  0  0  0  0  0  0  0  0  0  0  # atno 7974 bound_to 7965
  155.4608  140.3461  155.4312 H   0  0  0  0  0  0  0  0  0  0  0  0  # atno 8008 bound_to 7997
  156.1162  140.1474  156.9299 H   0  0  0  0  0  0  0  0  0  0  0  0  # atno 8009 bound_to 7997
  154.4790  140.0875  156.7312 H   0  0  0  0  0  0  0  0  0  0  0  0  # atno 8010 bound_to 7997
  140.5884  143.2337  151.6193 H   0  0  0  0  0  0  0  0  0  0  0  0  # atno 10167 bound_to 10162
  157.6778  131.0774  150.5525 H   0  0  0  0  0  0  0  0  0  0  0  0  # atno 10718 bound_to 10713
  153.2437  135.4283  155.0725 H   0  0  0  0  0  0  0  0  0  0  0  0  # atno 10763 bound_to 10752
  154.8352  135.3409  154.6612 H   0  0  0  0  0  0  0  0  0  0  0  0  # atno 10764 bound_to 10752
  153.7035  135.7027  153.5113 H   0  0  0  0  0  0  0  0  0  0  0  0  # atno 10765 bound_to 10752
  141.1228  133.8483  157.1240 H   0  0  0  0  0  0  0  0  0  0  0  0  # atno 11005 bound_to 11000
  146.1125  140.7410  142.9496 LP  0  0  0  0  0  0  0  0  0  0  0  0  # atno 17320 bound_to 7965
  144.7089  140.3962  143.7096 LP  0  0  0  0  0  0  0  0  0  0  0  0  # atno 17321 bound_to 7965
  139.5212  144.3201  152.0918 LP  0  0  0  0  0  0  0  0  0  0  0  0  # atno 17342 bound_to 10162
  140.2361  144.4318  150.6279 LP  0  0  0  0  0  0  0  0  0  0  0  0  # atno 17343 bound_to 10162
  156.5829  130.4309  149.5969 LP  0  0  0  0  0  0  0  0  0  0  0  0  # atno 17370 bound_to 10713
  156.2646  130.6982  151.1761 LP  0  0  0  0  0  0  0  0  0  0  0  0  # atno 17371 bound_to 10713
  140.0200  134.9950  157.0571 LP  0  0  0  0  0  0  0  0  0  0  0  0  # atno 17394 bound_to 11000
  140.4456  134.1635  155.7177 LP  0  0  0  0  0  0  0  0  0  0  0  0  # atno 17395 bound_to 11000

$$$$
