AV-unprocessed.smi:2886|AV-procd|sdf|11094|dock6
  -GOLD-   2272015563D 1   1.00000     0.00000
 Structure written by MMmdl.
 28 30  0  0  0  0  0  0  0  0  3 V2000
  152.9693  136.1314  156.9242 O   0  0  0  0  0  0  0  0  0  0  0  0
  152.8292  136.9464  157.8340 C   0  0  0  0  0  0  0  0  0  0  0  0
  152.9798  136.6280  159.1542 N   0  5  0  0  0  0  0  0  0  0  0  0
  152.8238  137.5203  160.1068 N   0  3  0  0  0  0  0  0  0  0  0  0
  152.5107  138.7922  159.8797 C   0  0  0  0  0  0  0  0  0  0  0  0
  152.3192  139.2539  158.5476 C   0  0  0  0  0  0  0  0  0  0  0  0
  151.9941  140.5740  158.2615 N   0  0  0  0  0  0  0  0  0  0  0  0
  151.7947  141.6825  159.1850 C   0  0  1  0  0  0  0  0  0  0  0  0
  153.1089  142.2076  159.7685 C   0  0  0  0  0  0  0  0  0  0  0  0
  153.0473  143.6927  159.3891 C   0  0  2  0  0  0  0  0  0  0  0  0
  151.9554  144.4469  160.1615 C   0  0  0  0  0  0  0  0  0  0  0  0
  150.6834  143.9376  159.4834 C   0  0  0  0  0  0  0  0  0  0  0  0
  151.2467  142.9299  158.4726 C   0  0  1  0  0  0  0  0  0  0  0  0
  152.4459  143.5958  158.1102 O   0  0  0  0  0  0  0  0  0  0  0  0
  152.4809  138.3488  157.5396 C   0  0  0  0  0  0  0  0  0  0  0  0
  152.2747  138.8175  155.8842 Cl  0  0  0  0  0  0  0  0  0  0  0  0
  152.9485  137.2580  161.0971 H   0  0  0  0  0  0  0  0  0  0  0  0
  152.4177  139.4374  160.7440 H   0  0  0  0  0  0  0  0  0  0  0  0
  151.7174  140.7714  157.3097 H   0  0  0  0  0  0  0  0  0  0  0  0
  151.1021  141.3884  159.9735 H   0  0  0  0  0  0  0  0  0  0  0  0
  153.1821  142.0544  160.8455 H   0  0  0  0  0  0  0  0  0  0  0  0
  153.9728  141.7339  159.2996 H   0  0  0  0  0  0  0  0  0  0  0  0
  154.0175  144.1902  159.3930 H   0  0  0  0  0  0  0  0  0  0  0  0
  151.9814  144.2312  161.2302 H   0  0  0  0  0  0  0  0  0  0  0  0
  152.0551  145.5247  160.0268 H   0  0  0  0  0  0  0  0  0  0  0  0
  149.9813  143.4823  160.1826 H   0  0  0  0  0  0  0  0  0  0  0  0
  150.1726  144.7527  158.9696 H   0  0  0  0  0  0  0  0  0  0  0  0
  150.5720  142.7189  157.6420 H   0  0  0  0  0  0  0  0  0  0  0  0
  1  2  2  0  0  0  0
  2  3  1  0  0  0  0
  2 15  1  0  0  0  0
  3  4  1  0  0  0  0
  4  5  2  0  0  0  0
  4 17  1  0  0  0  0
  5  6  1  0  0  0  0
  5 18  1  0  0  0  0
  6 15  2  0  0  0  0
  6  7  1  0  0  0  0
  7  8  1  0  0  0  0
  7 19  1  0  0  0  0
  8 13  1  0  0  0  0
  8  9  1  0  0  0  0
  8 20  1  0  0  0  0
  9 10  1  0  0  0  0
  9 21  1  0  0  0  0
  9 22  1  0  0  0  0
 10 14  1  0  0  0  0
 10 11  1  0  0  0  0
 10 23  1  0  0  0  0
 11 12  1  0  0  0  0
 11 24  1  0  0  0  0
 11 25  1  0  0  0  0
 12 13  1  0  0  0  0
 12 26  1  0  0  0  0
 12 27  1  0  0  0  0
 13 14  1  0  0  0  0
 13 28  1  0  0  0  0
 15 16  1  0  0  0  0
M  CHG  1   3  -1
M  CHG  1   4   1
M  END
> <s_m_source_file>
AV-unprocessed.smi

> <i_m_source_file_index>
2886

> <i_lp_mmshare_version>
43012

> <i_f3d_flags>
0

> <s_epik_input>
Tz1jMVtuSF1uW2NIXWMoYzFDbClbTkhdW0NASF0oW0NIMl1bQ0BASF0yMylbQ0BASF0oTzMpW0NIMl1bQ0gyXTI=

> <s_epik_cmdline>
J2VwaWtfcHl0aG9uJywgJy1waCcsICc3LjAnLCAnLXRuJywgJzgnLCAnLW1hJywgJzIwMCcsICctbWV0YWxfYmluZGluZycsICctaW1hZScsICc8aW5maWxlLm1hZT4nLCAnLW9tYWUnLCAnPG91dGZpbGUubWFlPic=

> <r_lp_tautomer_probability>
0.0138196

> <r_epik_Ionization_Penalty>
2.43027

> <r_epik_Ionization_Penalty_Charging>
2.43027

> <r_epik_Ionization_Penalty_Neutral>
1.33267e-06

> <r_epik_State_Penalty>
2.7044

> <r_epik_Charging_Adjusted_Penalty>
5.13467

> <i_epik_Tot_Q>
0

> <i_epik_Tot_abs_Q>
2

> <r_epik_Metal_State_Penalty>
2.98589

> <b_epik_Metal_Only>
0

> <s_lp_Force_Field>
OPLS_2005

> <r_lp_Energy>
57.4962

> <b_lp_Chiralities_Consistent>
1

> <s_lp_Variant>
AV-unprocessed.smi:2886-8

> <Gold.Version>
5.8.1

> <Gold.Id.Protein>
6NUR|6NUR_protein|mol2

> <Gold.PLP.Fitness>
34.1253

> <Gold.PLP.PLP>
-25.3990

> <Gold.PLP.part.hbond>
-2.0000

> <Gold.PLP.part.metal>
0.0000

> <Gold.PLP.part.buried>
-4.2100

> <Gold.PLP.part.nonpolar>
-20.3043

> <Gold.PLP.part.repulsive>
0.2447

> <Gold.PLP.ligand.clash>
0.0000

> <Gold.PLP.ligand.torsion>
0.1222

> <Gold.PLP.Chemscore.Hbond>
2.9840

> <Gold.PLP.Chemscore.CHOScore>
0.0000

> <Gold.PLP.Chemscore.Metal>
0.0000

> <Gold.Chemscore.Hbonds>
donor molecule, donor type, donor heavy atom, donor atom, acceptor molecule, acceptor atom, score
      P1  H  6896  6907       L1     3  1.93
      P1  H 10752 10764       L1     1  1.00

> <Gold.PLP.Chemscore.Internal.Correction>
0.0188

> <Gold.Rescore>
     Score         DG    S(hbond)    S(metal)    S(lipo)     H(rot)  DE(clash)    DE(int)     intcor
     17.29     -17.39       1.34        0.00      85.35       1.00       0.02       0.08       ----

> <Gold.Chemscore.Fitness>
17.2902

> <Gold.Chemscore.DG>
-17.3852

> <Gold.Chemscore.ZeroCoef>
-5.4800

> <Gold.Chemscore.Hbond>
1.3411

> <Gold.Chemscore.Metal>
0.0000

> <Gold.Chemscore.Lipo>
85.3494

> <Gold.Chemscore.Internal_Hbond>
0.0000

> <Gold.Chemscore.DEClash>
0.0164

> <Gold.Chemscore.DEInternal>
0.0786

> <Gold.Chemscore.Rot>
1.0000

> <Gold.Chemscore.Internal.Correction>
   9.000000E+99

> <Gold.Chemscore.Hbonds>
donor molecule, donor type, donor heavy atom, donor atom, acceptor molecule, acceptor atom, score
      P1  H  6896  6907       L1     3  0.22
      P1  H 10752 10764       L1     1  1.00

> <Gold.Chemscore.Hbond.Weighted>
-4.4793

> <Gold.Chemscore.Metal.Weighted>
-0.0000

> <Gold.Chemscore.Lipo.Weighted>
-9.9859

> <Gold.Chemscore.Internal_Hbond.Weighted>
0.0000

> <Gold.Chemscore.DEClash.Weighted>
0.0164

> <Gold.Chemscore.DEInternal.Weighted>
0.0786

> <Gold.Chemscore.Rot.Weighted>
2.5600

> <Gold.Chemscore.Internal.Correction.Weighted>
   9.000000E+99

> <Gold.Protein.RotatedTorsions>
[ 6907 6896 6895 6894 ] final   29.18 input  -60.11 | X-H torsion
[ 7974 7965 7964 7962 ] final  -58.38 input  175.53 | X-H torsion
[ 8008 7997 7996 7995 ] final   96.06 input   59.86 | X-H torsion
[ 10167 10162 10161 10158 ] final  177.12 input  -65.29 | X-H torsion
[ 10718 10713 10712 10709 ] final -116.37 input   66.30 | X-H torsion
[ 10763 10752 10751 10750 ] final   -5.42 input  -60.55 | X-H torsion
[ 11005 11000 10999 10996 ] final  -92.46 input  -57.11 | X-H torsion

> <Gold.Protein.ActiveResidues>
 VAL166  LYS551  ARG553  GLY616  TRP617  ASP618  TYR619  PRO620  LYS621  CYS622 
 ASP623  PHE694  ASN695  SER759  ASP760  ASP761  ALA762  ILE779  LEU786  VAL792 
 PHE793  MET794  SER795  GLU796  ALA797  LYS798  CYS799  TRP800  GLU811  SER814 

> <Gold.Protein.RotatedAtoms>
  152.0277  134.9786  160.0571 H   0  0  0  0  0  0  0  0  0  0  0  0  # atno 6907 bound_to 6896
  152.1275  133.4384  159.4713 H   0  0  0  0  0  0  0  0  0  0  0  0  # atno 6908 bound_to 6896
  150.6853  134.2379  159.4504 H   0  0  0  0  0  0  0  0  0  0  0  0  # atno 6909 bound_to 6896
  145.8400  140.8423  143.0039 H   0  0  0  0  0  0  0  0  0  0  0  0  # atno 7974 bound_to 7965
  156.0756  140.3278  155.7629 H   0  0  0  0  0  0  0  0  0  0  0  0  # atno 8008 bound_to 7997
  155.5236  140.0587  157.2919 H   0  0  0  0  0  0  0  0  0  0  0  0  # atno 8009 bound_to 7997
  154.4553  140.1939  156.0414 H   0  0  0  0  0  0  0  0  0  0  0  0  # atno 8010 bound_to 7997
  139.5240  144.2836  152.0525 H   0  0  0  0  0  0  0  0  0  0  0  0  # atno 10167 bound_to 10162
  156.0959  130.6132  150.9027 H   0  0  0  0  0  0  0  0  0  0  0  0  # atno 10718 bound_to 10713
  153.3983  135.7004  153.6444 H   0  0  0  0  0  0  0  0  0  0  0  0  # atno 10763 bound_to 10752
  153.4988  135.3656  155.2530 H   0  0  0  0  0  0  0  0  0  0  0  0  # atno 10764 bound_to 10752
  154.8708  135.4107  154.3313 H   0  0  0  0  0  0  0  0  0  0  0  0  # atno 10765 bound_to 10752
  141.1521  133.7822  157.0022 H   0  0  0  0  0  0  0  0  0  0  0  0  # atno 11005 bound_to 11000
  144.6734  140.0799  143.7469 LP  0  0  0  0  0  0  0  0  0  0  0  0  # atno 17320 bound_to 7965
  145.9475  139.2711  143.1232 LP  0  0  0  0  0  0  0  0  0  0  0  0  # atno 17321 bound_to 7965
  140.2290  144.4388  150.6308 LP  0  0  0  0  0  0  0  0  0  0  0  0  # atno 17342 bound_to 10162
  140.6368  143.2196  151.6377 LP  0  0  0  0  0  0  0  0  0  0  0  0  # atno 17343 bound_to 10162
  157.6120  131.0936  150.8778 LP  0  0  0  0  0  0  0  0  0  0  0  0  # atno 17370 bound_to 10713
  156.8916  130.5215  149.5286 LP  0  0  0  0  0  0  0  0  0  0  0  0  # atno 17371 bound_to 10713
  140.0932  134.9580  157.1809 LP  0  0  0  0  0  0  0  0  0  0  0  0  # atno 17394 bound_to 11000
  140.3417  134.2696  155.7211 LP  0  0  0  0  0  0  0  0  0  0  0  0  # atno 17395 bound_to 11000

$$$$
