AV-unprocessed.smi:1040|AV-procd|sdf|4524|dock7
  -GOLD-   22720 2543D 1   1.00000     0.00000
 Structure written by MMmdl.
 54 55  0  0  0  0  0  0  0  0  1 V2000
  147.1875  134.0610  157.2302 C   0  0  0  0  0  0  0  0  0  0  0  0
  146.8657  135.3405  158.0206 C   0  0  2  0  0  0  0  0  0  0  0  0
  147.4638  136.4720  157.3138 N   0  0  0  0  0  0  0  0  0  0  0  0
  148.7666  136.6025  157.0217 C   0  0  0  0  0  0  0  0  0  0  0  0
  149.6160  135.7701  157.3376 O   0  0  0  0  0  0  0  0  0  0  0  0
  148.9921  137.7422  156.3464 N   0  0  0  0  0  0  0  0  0  0  0  0
  150.2081  138.2902  155.8379 C   0  0  0  0  0  0  0  0  0  0  0  0
  151.4956  137.8136  156.1910 C   0  0  0  0  0  0  0  0  0  0  0  0
  152.6322  138.4146  155.6208 C   0  0  0  0  0  0  0  0  0  0  0  0
  152.4470  139.4733  154.7156 C   0  0  0  0  0  0  0  0  0  0  0  0
  151.2318  139.9447  154.3729 N   0  0  0  0  0  0  0  0  0  0  0  0
  150.1308  139.3736  154.9199 C   0  0  0  0  0  0  0  0  0  0  0  0
  148.8800  139.9113  154.5566 N   0  0  0  0  0  0  0  0  0  0  0  0
  148.9419  141.3228  154.1820 C   0  0  0  0  0  0  0  0  0  0  0  0
  147.5324  141.9377  154.1414 C   0  0  0  0  0  0  0  0  0  0  0  0
  146.6027  141.1241  153.2266 C   0  0  0  0  0  0  0  0  0  0  0  0
  146.6011  139.6449  153.6458 C   0  0  0  0  0  0  0  0  0  0  0  0
  148.0333  139.0856  153.6962 C   0  0  0  0  0  0  0  0  0  0  0  0
  147.4740  135.1996  159.4248 C   0  0  0  0  0  0  0  0  0  0  0  0
  148.6881  135.0451  159.5633 O   0  0  0  0  0  0  0  0  0  0  0  0
  146.6013  135.2398  160.4473 N   0  0  0  0  0  0  0  0  0  0  0  0
  146.8735  135.1274  161.8851 C   0  0  0  0  0  0  0  0  0  0  0  0
  147.7348  133.8673  162.0804 C   0  0  0  0  0  0  0  0  0  0  0  0
  145.5603  134.9633  162.6795 C   0  0  0  0  0  0  0  0  0  0  0  0
  147.6619  136.3562  162.3843 C   0  0  0  0  0  0  0  0  0  0  0  0
  146.7672  133.1793  157.7159 H   0  0  0  0  0  0  0  0  0  0  0  0
  148.2627  133.9042  157.1296 H   0  0  0  0  0  0  0  0  0  0  0  0
  146.7672  134.1082  156.2253 H   0  0  0  0  0  0  0  0  0  0  0  0
  145.7833  135.4693  158.0841 H   0  0  0  0  0  0  0  0  0  0  0  0
  146.8336  137.1987  157.0083 H   0  0  0  0  0  0  0  0  0  0  0  0
  148.1711  138.2942  156.1452 H   0  0  0  0  0  0  0  0  0  0  0  0
  151.6470  137.0044  156.8862 H   0  0  0  0  0  0  0  0  0  0  0  0
  153.6244  138.0700  155.8719 H   0  0  0  0  0  0  0  0  0  0  0  0
  153.2966  139.9574  154.2573 H   0  0  0  0  0  0  0  0  0  0  0  0
  149.5668  141.8814  154.8794 H   0  0  0  0  0  0  0  0  0  0  0  0
  149.4135  141.4065  153.2018 H   0  0  0  0  0  0  0  0  0  0  0  0
  147.1188  141.9665  155.1505 H   0  0  0  0  0  0  0  0  0  0  0  0
  147.5851  142.9713  153.7983 H   0  0  0  0  0  0  0  0  0  0  0  0
  145.5905  141.5277  153.2624 H   0  0  0  0  0  0  0  0  0  0  0  0
  146.9387  141.2112  152.1925 H   0  0  0  0  0  0  0  0  0  0  0  0
  146.1363  139.5439  154.6274 H   0  0  0  0  0  0  0  0  0  0  0  0
  145.9956  139.0591  152.9540 H   0  0  0  0  0  0  0  0  0  0  0  0
  148.4538  139.0577  152.6898 H   0  0  0  0  0  0  0  0  0  0  0  0
  148.0171  138.0600  154.0677 H   0  0  0  0  0  0  0  0  0  0  0  0
  145.6307  135.3692  160.2006 H   0  0  0  0  0  0  0  0  0  0  0  0
  147.9740  133.7087  163.1326 H   0  0  0  0  0  0  0  0  0  0  0  0
  148.6786  133.9412  161.5386 H   0  0  0  0  0  0  0  0  0  0  0  0
  147.2203  132.9739  161.7238 H   0  0  0  0  0  0  0  0  0  0  0  0
  144.9754  134.1201  162.3099 H   0  0  0  0  0  0  0  0  0  0  0  0
  144.9311  135.8514  162.6229 H   0  0  0  0  0  0  0  0  0  0  0  0
  145.7615  134.7839  163.7362 H   0  0  0  0  0  0  0  0  0  0  0  0
  147.9504  136.2391  163.4294 H   0  0  0  0  0  0  0  0  0  0  0  0
  147.0777  137.2739  162.3156 H   0  0  0  0  0  0  0  0  0  0  0  0
  148.5754  136.5029  161.8068 H   0  0  0  0  0  0  0  0  0  0  0  0
  1  2  1  0  0  0  0
  1 26  1  0  0  0  0
  1 27  1  0  0  0  0
  1 28  1  0  0  0  0
  2  3  1  0  0  0  0
  2 19  1  0  0  0  0
  2 29  1  0  0  0  0
  3  4  1  0  0  0  0
  3 30  1  0  0  0  0
  4  5  2  0  0  0  0
  4  6  1  0  0  0  0
  6  7  1  0  0  0  0
  6 31  1  0  0  0  0
  7 12  1  0  0  0  0
  7  8  2  0  0  0  0
  8  9  1  0  0  0  0
  8 32  1  0  0  0  0
  9 10  2  0  0  0  0
  9 33  1  0  0  0  0
 10 11  1  0  0  0  0
 10 34  1  0  0  0  0
 11 12  2  0  0  0  0
 12 13  1  0  0  0  0
 13 18  1  0  0  0  0
 13 14  1  0  0  0  0
 14 15  1  0  0  0  0
 14 35  1  0  0  0  0
 14 36  1  0  0  0  0
 15 16  1  0  0  0  0
 15 37  1  0  0  0  0
 15 38  1  0  0  0  0
 16 17  1  0  0  0  0
 16 39  1  0  0  0  0
 16 40  1  0  0  0  0
 17 18  1  0  0  0  0
 17 41  1  0  0  0  0
 17 42  1  0  0  0  0
 18 43  1  0  0  0  0
 18 44  1  0  0  0  0
 19 20  2  0  0  0  0
 19 21  1  0  0  0  0
 21 22  1  0  0  0  0
 21 45  1  0  0  0  0
 22 23  1  0  0  0  0
 22 24  1  0  0  0  0
 22 25  1  0  0  0  0
 23 46  1  0  0  0  0
 23 47  1  0  0  0  0
 23 48  1  0  0  0  0
 24 49  1  0  0  0  0
 24 50  1  0  0  0  0
 24 51  1  0  0  0  0
 25 52  1  0  0  0  0
 25 53  1  0  0  0  0
 25 54  1  0  0  0  0
M  END
> <s_m_source_file>
AV-unprocessed.smi

> <i_m_source_file_index>
1040

> <i_lp_mmshare_version>
43012

> <i_f3d_flags>
0

> <s_epik_input>
W0NIM11DKFtDSDNdKShbQ0gzXSlbTkhdQyg9TylbQ0BIXShbQ0gzXSlbTkhdQyg9TylbTkhdYzFbY0hdW2NIXVtjSF1uYzFOMltDSDJdW0NIMl1bQ0gyXVtDSDJdW0NIMl0y

> <s_epik_cmdline>
J2VwaWtfcHl0aG9uJywgJy1waCcsICc3LjAnLCAnLXRuJywgJzgnLCAnLW1hJywgJzIwMCcsICctbWV0YWxfYmluZGluZycsICctaW1hZScsICc8aW5maWxlLm1hZT4nLCAnLW9tYWUnLCAnPG91dGZpbGUubWFlPic=

> <r_lp_tautomer_probability>
1

> <r_epik_Ionization_Penalty>
0.0878593

> <r_epik_Ionization_Penalty_Charging>
0

> <r_epik_Ionization_Penalty_Neutral>
0.0878593

> <r_epik_State_Penalty>
0.07381

> <r_epik_Charging_Adjusted_Penalty>
0.07381

> <i_epik_Tot_Q>
0

> <i_epik_Tot_abs_Q>
0

> <r_epik_Metal_State_Penalty>
0.0646628

> <b_epik_Metal_Only>
0

> <s_lp_Force_Field>
OPLS_2005

> <r_lp_Energy>
21.1097

> <b_lp_Chiralities_Consistent>
1

> <s_lp_Variant>
AV-unprocessed.smi:1040-1

> <Gold.Version>
5.8.1

> <Gold.Id.Protein>
6NUR|6NUR_protein|mol2

> <Gold.PLP.Fitness>
41.5161

> <Gold.PLP.PLP>
-36.5888

> <Gold.PLP.part.hbond>
-2.0000

> <Gold.PLP.part.metal>
0.0000

> <Gold.PLP.part.buried>
-3.0767

> <Gold.PLP.part.nonpolar>
-31.9755

> <Gold.PLP.part.repulsive>
0.1660

> <Gold.PLP.ligand.clash>
0.0000

> <Gold.PLP.ligand.torsion>
0.6431

> <Gold.PLP.Chemscore.Hbond>
1.9760

> <Gold.PLP.Chemscore.CHOScore>
0.0000

> <Gold.PLP.Chemscore.Metal>
0.0000

> <Gold.Chemscore.Hbonds>
donor molecule, donor type, donor heavy atom, donor atom, acceptor molecule, acceptor atom, score
      P1  H  6896  6909       L1    20  1.00
      P1  H  7989  7998       L1    11  0.43

> <Gold.PLP.Chemscore.Internal.Correction>
0.2856

> <Gold.Rescore>
     Score         DG    S(hbond)    S(metal)    S(lipo)     H(rot)  DE(clash)    DE(int)     intcor
      9.73     -18.82       1.79        0.00      98.13       1.61       1.71       7.38       ----

> <Gold.Chemscore.Fitness>
9.7267

> <Gold.Chemscore.DG>
-18.8155

> <Gold.Chemscore.ZeroCoef>
-5.4800

> <Gold.Chemscore.Hbond>
1.7924

> <Gold.Chemscore.Metal>
0.0000

> <Gold.Chemscore.Lipo>
98.1329

> <Gold.Chemscore.Internal_Hbond>
0.0000

> <Gold.Chemscore.DEClash>
1.7057

> <Gold.Chemscore.DEInternal>
7.3831

> <Gold.Chemscore.Rot>
1.6143

> <Gold.Chemscore.Internal.Correction>
   9.000000E+99

> <Gold.Chemscore.Hbonds>
donor molecule, donor type, donor heavy atom, donor atom, acceptor molecule, acceptor atom, score
      P1  H  6896  6909       L1    20  0.91
      P1  H  7989  7998       L1    11  0.07

> <Gold.Chemscore.Hbond.Weighted>
-5.9865

> <Gold.Chemscore.Metal.Weighted>
-0.0000

> <Gold.Chemscore.Lipo.Weighted>
-11.4815

> <Gold.Chemscore.Internal_Hbond.Weighted>
0.0000

> <Gold.Chemscore.DEClash.Weighted>
1.7057

> <Gold.Chemscore.DEInternal.Weighted>
7.3831

> <Gold.Chemscore.Rot.Weighted>
4.1326

> <Gold.Chemscore.Internal.Correction.Weighted>
   9.000000E+99

> <Gold.Protein.RotatedTorsions>
[ 6907 6896 6895 6894 ] final   43.44 input  -60.11 | X-H torsion
[ 7974 7965 7964 7962 ] final -133.34 input  175.53 | X-H torsion
[ 8008 7997 7996 7995 ] final  102.71 input   59.86 | X-H torsion
[ 10167 10162 10161 10158 ] final -175.97 input  -65.29 | X-H torsion
[ 10718 10713 10712 10709 ] final   33.22 input   66.30 | X-H torsion
[ 10763 10752 10751 10750 ] final   57.93 input  -60.55 | X-H torsion
[ 11005 11000 10999 10996 ] final  -48.04 input  -57.11 | X-H torsion

> <Gold.Protein.ActiveResidues>
 VAL166  LYS551  ARG553  GLY616  TRP617  ASP618  TYR619  PRO620  LYS621  CYS622 
 ASP623  PHE694  ASN695  SER759  ASP760  ASP761  ALA762  ILE779  LEU786  VAL792 
 PHE793  MET794  SER795  GLU796  ALA797  LYS798  CYS799  TRP800  GLU811  SER814 

> <Gold.Protein.RotatedAtoms>
  152.2203  134.8419  160.0486 H   0  0  0  0  0  0  0  0  0  0  0  0  # atno 6907 bound_to 6896
  151.9205  133.3579  159.3903 H   0  0  0  0  0  0  0  0  0  0  0  0  # atno 6908 bound_to 6896
  150.6998  134.4565  159.5404 H   0  0  0  0  0  0  0  0  0  0  0  0  # atno 6909 bound_to 6896
  144.9202  140.7004  143.4970 H   0  0  0  0  0  0  0  0  0  0  0  0  # atno 7974 bound_to 7965
  156.1418  140.3177  155.8507 H   0  0  0  0  0  0  0  0  0  0  0  0  # atno 8008 bound_to 7997
  155.4140  140.0508  157.3047 H   0  0  0  0  0  0  0  0  0  0  0  0  # atno 8009 bound_to 7997
  154.4983  140.2119  155.9413 H   0  0  0  0  0  0  0  0  0  0  0  0  # atno 8010 bound_to 7997
  139.5553  144.2004  152.1149 H   0  0  0  0  0  0  0  0  0  0  0  0  # atno 10167 bound_to 10162
  157.2951  130.7322  149.6633 H   0  0  0  0  0  0  0  0  0  0  0  0  # atno 10718 bound_to 10713
  152.9860  135.5624  154.5471 H   0  0  0  0  0  0  0  0  0  0  0  0  # atno 10763 bound_to 10752
  154.4915  135.2793  155.1495 H   0  0  0  0  0  0  0  0  0  0  0  0  # atno 10764 bound_to 10752
  154.2963  135.6316  153.5459 H   0  0  0  0  0  0  0  0  0  0  0  0  # atno 10765 bound_to 10752
  141.0677  133.6688  156.3384 H   0  0  0  0  0  0  0  0  0  0  0  0  # atno 11005 bound_to 11000
  145.3309  139.1760  143.4537 LP  0  0  0  0  0  0  0  0  0  0  0  0  # atno 17320 bound_to 7965
  146.3201  140.3338  142.8642 LP  0  0  0  0  0  0  0  0  0  0  0  0  # atno 17321 bound_to 7965
  140.1507  144.5117  150.6689 LP  0  0  0  0  0  0  0  0  0  0  0  0  # atno 17342 bound_to 10162
  140.6825  143.2333  151.5347 LP  0  0  0  0  0  0  0  0  0  0  0  0  # atno 17343 bound_to 10162
  155.9669  130.4297  150.4844 LP  0  0  0  0  0  0  0  0  0  0  0  0  # atno 17370 bound_to 10713
  157.2814  131.0607  151.2195 LP  0  0  0  0  0  0  0  0  0  0  0  0  # atno 17371 bound_to 10713
  140.5739  134.5813  157.5464 LP  0  0  0  0  0  0  0  0  0  0  0  0  # atno 17394 bound_to 11000
  139.9492  134.7646  156.0488 LP  0  0  0  0  0  0  0  0  0  0  0  0  # atno 17395 bound_to 11000

$$$$
