AV-unprocessed.smi:1244|AV-procd|sdf|5231|dock7
  -GOLD-   22720 4333D 1   1.00000     0.00000
 Structure written by MMmdl.
 56 58  0  0  0  0  0  0  0  0  3 V2000
  144.6184  132.0028  149.9414 C   0  0  0  0  0  0  0  0  0  0  0  0
  144.5956  132.2290  151.4639 C   0  0  2  0  0  0  0  0  0  0  0  0
  143.7957  133.4761  151.8904 C   0  0  0  0  0  0  0  0  0  0  0  0
  144.5344  134.7222  151.5758 N   0  3  1  0  0  0  0  0  0  0  0  0
  143.7585  135.9414  151.9146 C   0  0  0  0  0  0  0  0  0  0  0  0
  144.1092  136.4903  153.3109 C   0  0  0  0  0  0  0  0  0  0  0  0
  144.6743  137.8328  153.2377 N   0  0  0  0  0  0  0  0  0  0  0  0
  145.9449  138.1464  153.5283 C   0  0  0  0  0  0  0  0  0  0  0  0
  146.7907  137.3148  153.8573 O   0  0  0  0  0  0  0  0  0  0  0  0
  146.1568  139.4697  153.4327 N   0  0  0  0  0  0  0  0  0  0  0  0
  147.3476  140.1883  153.7383 C   0  0  0  0  0  0  0  0  0  0  0  0
  148.6230  139.5764  153.6306 C   0  0  0  0  0  0  0  0  0  0  0  0
  149.7822  140.3031  153.9609 C   0  0  0  0  0  0  0  0  0  0  0  0
  149.6502  141.6343  154.3910 C   0  0  0  0  0  0  0  0  0  0  0  0
  148.4256  142.1948  154.4641 N   0  3  0  0  0  0  0  0  0  0  0  0
  147.2738  141.5527  154.1454 C   0  0  0  0  0  0  0  0  0  0  0  0
  146.0639  142.2747  154.2597 N   0  0  0  0  0  0  0  0  0  0  0  0
  145.5993  142.7369  155.5626 C   0  0  0  0  0  0  0  0  0  0  0  0
  144.4940  143.7430  155.2541 C   0  0  0  0  0  0  0  0  0  0  0  0
  144.9995  144.4019  153.9741 C   0  0  0  0  0  0  0  0  0  0  0  0
  145.7302  143.2691  153.2450 C   0  0  0  0  0  0  0  0  0  0  0  0
  145.8838  134.6856  152.1888 C   0  0  0  0  0  0  0  0  0  0  0  0
  146.6561  133.4423  151.7127 C   0  0  1  0  0  0  0  0  0  0  0  0
  148.0258  133.3220  152.3900 C   0  0  0  0  0  0  0  0  0  0  0  0
  145.9080  132.2698  152.0243 O   0  0  0  0  0  0  0  0  0  0  0  0
  143.6099  131.8410  149.5594 H   0  0  0  0  0  0  0  0  0  0  0  0
  145.2099  131.1228  149.6881 H   0  0  0  0  0  0  0  0  0  0  0  0
  145.0351  132.8528  149.4019 H   0  0  0  0  0  0  0  0  0  0  0  0
  144.1085  131.3576  151.9026 H   0  0  0  0  0  0  0  0  0  0  0  0
  142.8227  133.4783  151.3971 H   0  0  0  0  0  0  0  0  0  0  0  0
  143.6045  133.4395  152.9642 H   0  0  0  0  0  0  0  0  0  0  0  0
  143.9798  136.7132  151.1760 H   0  0  0  0  0  0  0  0  0  0  0  0
  142.6898  135.7358  151.8350 H   0  0  0  0  0  0  0  0  0  0  0  0
  143.2209  136.5515  153.9385 H   0  0  0  0  0  0  0  0  0  0  0  0
  144.8037  135.8203  153.8210 H   0  0  0  0  0  0  0  0  0  0  0  0
  144.0453  138.5777  152.9740 H   0  0  0  0  0  0  0  0  0  0  0  0
  145.3434  140.0366  153.2425 H   0  0  0  0  0  0  0  0  0  0  0  0
  148.7310  138.5566  153.2936 H   0  0  0  0  0  0  0  0  0  0  0  0
  150.7574  139.8446  153.8873 H   0  0  0  0  0  0  0  0  0  0  0  0
  150.4806  142.2670  154.6696 H   0  0  0  0  0  0  0  0  0  0  0  0
  145.2358  141.9099  156.1729 H   0  0  0  0  0  0  0  0  0  0  0  0
  146.4067  143.2349  156.1011 H   0  0  0  0  0  0  0  0  0  0  0  0
  143.5562  143.2210  155.0589 H   0  0  0  0  0  0  0  0  0  0  0  0
  144.3259  144.4528  156.0643 H   0  0  0  0  0  0  0  0  0  0  0  0
  144.2010  144.8436  153.3777 H   0  0  0  0  0  0  0  0  0  0  0  0
  145.7075  145.1928  154.2253 H   0  0  0  0  0  0  0  0  0  0  0  0
  146.6144  143.6389  152.7239 H   0  0  0  0  0  0  0  0  0  0  0  0
  145.0670  142.8119  152.5101 H   0  0  0  0  0  0  0  0  0  0  0  0
  146.4482  135.5784  151.9219 H   0  0  0  0  0  0  0  0  0  0  0  0
  145.7903  134.6804  153.2760 H   0  0  0  0  0  0  0  0  0  0  0  0
  146.8176  133.5022  150.6363 H   0  0  0  0  0  0  0  0  0  0  0  0
  148.6473  134.1924  152.1781 H   0  0  0  0  0  0  0  0  0  0  0  0
  148.5593  132.4398  152.0355 H   0  0  0  0  0  0  0  0  0  0  0  0
  147.9261  133.2376  153.4725 H   0  0  0  0  0  0  0  0  0  0  0  0
  144.6621  134.7297  150.5738 H   0  0  0  0  0  0  0  0  0  0  0  0
  148.3640  143.1657  154.7712 H   0  0  0  0  0  0  0  0  0  0  0  0
  1  2  1  0  0  0  0
  1 26  1  0  0  0  0
  1 27  1  0  0  0  0
  1 28  1  0  0  0  0
  2 25  1  0  0  0  0
  2  3  1  0  0  0  0
  2 29  1  0  0  0  0
  3  4  1  0  0  0  0
  3 30  1  0  0  0  0
  3 31  1  0  0  0  0
  4  5  1  0  0  0  0
  4 22  1  0  0  0  0
  4 55  1  0  0  0  0
  5  6  1  0  0  0  0
  5 32  1  0  0  0  0
  5 33  1  0  0  0  0
  6  7  1  0  0  0  0
  6 34  1  0  0  0  0
  6 35  1  0  0  0  0
  7  8  1  0  0  0  0
  7 36  1  0  0  0  0
  8  9  2  0  0  0  0
  8 10  1  0  0  0  0
 10 11  1  0  0  0  0
 10 37  1  0  0  0  0
 11 16  1  0  0  0  0
 11 12  2  0  0  0  0
 12 13  1  0  0  0  0
 12 38  1  0  0  0  0
 13 14  2  0  0  0  0
 13 39  1  0  0  0  0
 14 15  1  0  0  0  0
 14 40  1  0  0  0  0
 15 16  2  0  0  0  0
 15 56  1  0  0  0  0
 16 17  1  0  0  0  0
 17 21  1  0  0  0  0
 17 18  1  0  0  0  0
 18 19  1  0  0  0  0
 18 41  1  0  0  0  0
 18 42  1  0  0  0  0
 19 20  1  0  0  0  0
 19 43  1  0  0  0  0
 19 44  1  0  0  0  0
 20 21  1  0  0  0  0
 20 45  1  0  0  0  0
 20 46  1  0  0  0  0
 21 47  1  0  0  0  0
 21 48  1  0  0  0  0
 22 23  1  0  0  0  0
 22 49  1  0  0  0  0
 22 50  1  0  0  0  0
 23 24  1  0  0  0  0
 23 25  1  0  0  0  0
 23 51  1  0  0  0  0
 24 52  1  0  0  0  0
 24 53  1  0  0  0  0
 24 54  1  0  0  0  0
M  CHG  1   4   1
M  CHG  1  15   1
M  END
> <s_m_source_file>
AV-unprocessed.smi

> <i_m_source_file_index>
1244

> <i_lp_mmshare_version>
43012

> <i_f3d_flags>
0

> <s_epik_input>
W0NIM11bQ0BASF0xW0NIMl1OKFtDSDJdW0NASF0oTzEpW0NIM10pW0NIMl1bQ0gyXVtOSF1DKD1PKVtOSF1jMltjSF1bY0hdW2NIXW5jMk4zW0NIMl1bQ0gyXVtDSDJdW0NIMl0z

> <s_epik_cmdline>
J2VwaWtfcHl0aG9uJywgJy1waCcsICc3LjAnLCAnLXRuJywgJzgnLCAnLW1hJywgJzIwMCcsICctbWV0YWxfYmluZGluZycsICctaW1hZScsICc8aW5maWxlLm1hZT4nLCAnLW9tYWUnLCAnPG91dGZpbGUubWFlPic=

> <r_lp_tautomer_probability>
0.999994

> <r_epik_Ionization_Penalty>
1.81601

> <r_epik_Ionization_Penalty_Charging>
1.81599

> <r_epik_Ionization_Penalty_Neutral>
2.01972e-05

> <r_epik_State_Penalty>
1.85672

> <r_epik_Charging_Adjusted_Penalty>
3.6727

> <i_epik_Tot_Q>
2

> <i_epik_Tot_abs_Q>
2

> <r_epik_Metal_State_Penalty>
1.93796

> <b_epik_Metal_Only>
0

> <s_lp_Force_Field>
OPLS_2005

> <r_lp_Energy>
54.4997

> <b_lp_Chiralities_Consistent>
1

> <s_lp_Variant>
AV-unprocessed.smi:1244-11

> <Gold.Version>
5.8.1

> <Gold.Id.Protein>
6NUR|6NUR_protein|mol2

> <Gold.PLP.Fitness>
53.0213

> <Gold.PLP.PLP>
-43.0051

> <Gold.PLP.part.hbond>
-3.0000

> <Gold.PLP.part.metal>
0.0000

> <Gold.PLP.part.buried>
-7.5206

> <Gold.PLP.part.nonpolar>
-32.4064

> <Gold.PLP.part.repulsive>
0.5590

> <Gold.PLP.ligand.clash>
0.0000

> <Gold.PLP.ligand.torsion>
1.2003

> <Gold.PLP.Chemscore.Hbond>
4.0000

> <Gold.PLP.Chemscore.CHOScore>
0.0000

> <Gold.PLP.Chemscore.Metal>
0.0000

> <Gold.Chemscore.Hbonds>
donor molecule, donor type, donor heavy atom, donor atom, acceptor molecule, acceptor atom, score
      L1  H     7    36       P1 10175  1.00
      L1  H    10    37       P1 10175  1.00
      L1  H    15    56       P1  8028  2.00

> <Gold.PLP.Chemscore.Internal.Correction>
0.4169

> <Gold.Rescore>
     Score         DG    S(hbond)    S(metal)    S(lipo)     H(rot)  DE(clash)    DE(int)     intcor
     19.78     -22.39       2.90        0.00      97.24       1.63       0.25       2.36       ----

> <Gold.Chemscore.Fitness>
19.7775

> <Gold.Chemscore.DG>
-22.3860

> <Gold.Chemscore.ZeroCoef>
-5.4800

> <Gold.Chemscore.Hbond>
2.9040

> <Gold.Chemscore.Metal>
0.0000

> <Gold.Chemscore.Lipo>
97.2438

> <Gold.Chemscore.Internal_Hbond>
0.0000

> <Gold.Chemscore.DEClash>
0.2503

> <Gold.Chemscore.DEInternal>
2.3582

> <Gold.Chemscore.Rot>
1.6293

> <Gold.Chemscore.Internal.Correction>
   9.000000E+99

> <Gold.Chemscore.Hbonds>
donor molecule, donor type, donor heavy atom, donor atom, acceptor molecule, acceptor atom, score
      L1  H     7    36       P1 10175  0.95
      L1  H    10    37       P1 10175  0.99
      L1  H    15    56       P1  8028  0.99

> <Gold.Chemscore.Hbond.Weighted>
-9.6994

> <Gold.Chemscore.Metal.Weighted>
-0.0000

> <Gold.Chemscore.Lipo.Weighted>
-11.3775

> <Gold.Chemscore.Internal_Hbond.Weighted>
0.0000

> <Gold.Chemscore.DEClash.Weighted>
0.2503

> <Gold.Chemscore.DEInternal.Weighted>
2.3582

> <Gold.Chemscore.Rot.Weighted>
4.1709

> <Gold.Chemscore.Internal.Correction.Weighted>
   9.000000E+99

> <Gold.Protein.RotatedTorsions>
[ 6907 6896 6895 6894 ] final  -51.68 input  -60.11 | X-H torsion
[ 7974 7965 7964 7962 ] final  146.82 input  175.53 | X-H torsion
[ 8008 7997 7996 7995 ] final  -29.03 input   59.86 | X-H torsion
[ 10167 10162 10161 10158 ] final -174.51 input  -65.29 | X-H torsion
[ 10718 10713 10712 10709 ] final  171.26 input   66.30 | X-H torsion
[ 10763 10752 10751 10750 ] final  -15.30 input  -60.55 | X-H torsion
[ 11005 11000 10999 10996 ] final   20.95 input  -57.11 | X-H torsion

> <Gold.Protein.ActiveResidues>
 VAL166  LYS551  ARG553  GLY616  TRP617  ASP618  TYR619  PRO620  LYS621  CYS622 
 ASP623  PHE694  ASN695  SER759  ASP760  ASP761  ALA762  ILE779  LEU786  VAL792 
 PHE793  MET794  SER795  GLU796  ALA797  LYS798  CYS799  TRP800  GLU811  SER814 

> <Gold.Protein.RotatedAtoms>
  150.8588  134.7934  159.7066 H   0  0  0  0  0  0  0  0  0  0  0  0  # atno 6907 bound_to 6896
  152.4631  134.5134  159.9770 H   0  0  0  0  0  0  0  0  0  0  0  0  # atno 6908 bound_to 6896
  151.5242  133.3423  159.2942 H   0  0  0  0  0  0  0  0  0  0  0  0  # atno 6909 bound_to 6896
  144.8640  139.5952  143.5917 H   0  0  0  0  0  0  0  0  0  0  0  0  # atno 7974 bound_to 7965
  154.4307  140.1829  156.1183 H   0  0  0  0  0  0  0  0  0  0  0  0  # atno 8008 bound_to 7997
  156.0163  140.3345  155.6967 H   0  0  0  0  0  0  0  0  0  0  0  0  # atno 8009 bound_to 7997
  155.6039  140.0643  157.2716 H   0  0  0  0  0  0  0  0  0  0  0  0  # atno 8010 bound_to 7997
  139.5630  144.1824  152.1268 H   0  0  0  0  0  0  0  0  0  0  0  0  # atno 10167 bound_to 10162
  156.9962  131.0162  151.2843 H   0  0  0  0  0  0  0  0  0  0  0  0  # atno 10718 bound_to 10713
  153.5413  135.7013  153.5635 H   0  0  0  0  0  0  0  0  0  0  0  0  # atno 10763 bound_to 10752
  153.3600  135.3972  155.1711 H   0  0  0  0  0  0  0  0  0  0  0  0  # atno 10764 bound_to 10752
  154.8673  135.3786  154.4917 H   0  0  0  0  0  0  0  0  0  0  0  0  # atno 10765 bound_to 10752
  140.3970  134.1759  155.7663 H   0  0  0  0  0  0  0  0  0  0  0  0  # atno 11005 bound_to 11000
  146.2882  139.7064  142.9180 LP  0  0  0  0  0  0  0  0  0  0  0  0  # atno 17320 bound_to 7965
  145.4256  141.0410  143.2939 LP  0  0  0  0  0  0  0  0  0  0  0  0  # atno 17321 bound_to 7965
  140.1341  144.5261  150.6784 LP  0  0  0  0  0  0  0  0  0  0  0  0  # atno 17342 bound_to 10162
  140.6911  143.2377  151.5128 LP  0  0  0  0  0  0  0  0  0  0  0  0  # atno 17343 bound_to 10162
  157.5423  130.8128  149.8044 LP  0  0  0  0  0  0  0  0  0  0  0  0  # atno 17370 bound_to 10713
  156.0188  130.3803  150.2026 LP  0  0  0  0  0  0  0  0  0  0  0  0  # atno 17371 bound_to 10713
  141.1871  133.8289  157.1046 LP  0  0  0  0  0  0  0  0  0  0  0  0  # atno 17394 bound_to 11000
  140.0365  134.9876  157.0880 LP  0  0  0  0  0  0  0  0  0  0  0  0  # atno 17395 bound_to 11000

$$$$
