AV-unprocessed.smi:1047|AV-procd|sdf|4584|dock3
  -GOLD-   22720 3 53D 1   1.00000     0.00000
 Structure written by MMmdl.
 58 60  0  0  0  0  0  0  0  0  4 V2000
  150.2473  130.7379  155.9613 C   0  0  0  0  0  0  0  0  0  0  0  0
  148.9012  131.4312  156.2147 C   0  0  0  0  0  0  0  0  0  0  0  0
  149.0608  132.8204  156.7137 N   0  3  1  0  0  0  0  0  0  0  0  0
  149.6625  132.8657  158.0675 C   0  0  0  0  0  0  0  0  0  0  0  0
  149.7541  134.3160  158.5702 C   0  0  0  0  0  0  0  0  0  0  0  0
  150.5090  135.0957  157.6504 O   0  0  0  0  0  0  0  0  0  0  0  0
  149.9123  135.1329  156.3585 C   0  0  1  0  0  0  0  0  0  0  0  0
  150.7178  136.0947  155.4677 C   0  0  0  0  0  0  0  0  0  0  0  0
  149.9176  137.2626  155.0440 N   0  3  0  0  0  0  0  0  0  0  0  0
  150.7220  138.4203  154.6041 C   0  0  0  0  0  0  0  0  0  0  0  0
  152.0007  138.5654  155.4462 C   0  0  1  0  0  0  0  0  0  0  0  0
  152.9202  139.3710  154.7344 O   0  0  0  0  0  0  0  0  0  0  0  0
  151.7111  139.1979  156.8220 C   0  0  0  0  0  0  0  0  0  0  0  0
  151.3157  140.6117  156.7342 N   0  0  0  0  0  0  0  0  0  0  0  0
  150.4248  141.2136  155.8993 C   0  0  0  0  0  0  0  0  0  0  0  0
  150.4145  142.5422  156.1971 N   0  3  0  0  0  0  0  0  0  0  0  0
  151.3128  142.7943  157.2358 C   0  0  0  0  0  0  0  0  0  0  0  0
  151.6494  143.9792  157.8793 C   0  0  0  0  0  0  0  0  0  0  0  0
  152.6088  143.9013  158.9139 C   0  0  0  0  0  0  0  0  0  0  0  0
  152.9972  145.1777  159.6404 C   0  0  0  0  0  0  0  0  0  0  0  0
  153.1984  142.6609  159.2706 C   0  0  0  0  0  0  0  0  0  0  0  0
  154.2251  142.5886  160.3880 C   0  0  0  0  0  0  0  0  0  0  0  0
  152.8456  141.4675  158.6009 C   0  0  0  0  0  0  0  0  0  0  0  0
  151.8967  141.5607  157.5850 C   0  0  0  0  0  0  0  0  0  0  0  0
  149.8106  133.7030  155.7853 C   0  0  0  0  0  0  0  0  0  0  0  0
  150.0930  129.7568  155.5114 H   0  0  0  0  0  0  0  0  0  0  0  0
  150.8093  130.5841  156.8821 H   0  0  0  0  0  0  0  0  0  0  0  0
  150.8683  131.3187  155.2786 H   0  0  0  0  0  0  0  0  0  0  0  0
  148.3550  131.4530  155.2705 H   0  0  0  0  0  0  0  0  0  0  0  0
  148.2938  130.8491  156.9093 H   0  0  0  0  0  0  0  0  0  0  0  0
  149.0601  132.2772  158.7608 H   0  0  0  0  0  0  0  0  0  0  0  0
  150.6557  132.4145  158.0433 H   0  0  0  0  0  0  0  0  0  0  0  0
  148.7602  134.7466  158.7025 H   0  0  0  0  0  0  0  0  0  0  0  0
  150.2449  134.3460  159.5429 H   0  0  0  0  0  0  0  0  0  0  0  0
  148.9050  135.5423  156.4564 H   0  0  0  0  0  0  0  0  0  0  0  0
  151.6038  136.4389  156.0027 H   0  0  0  0  0  0  0  0  0  0  0  0
  151.0682  135.5661  154.5802 H   0  0  0  0  0  0  0  0  0  0  0  0
  149.3142  136.9820  154.2840 H   0  0  0  0  0  0  0  0  0  0  0  0
  150.9725  138.3154  153.5473 H   0  0  0  0  0  0  0  0  0  0  0  0
  150.1130  139.3203  154.7000 H   0  0  0  0  0  0  0  0  0  0  0  0
  152.4514  137.5830  155.5951 H   0  0  0  0  0  0  0  0  0  0  0  0
  152.6128  139.4643  153.8450 H   0  0  0  0  0  0  0  0  0  0  0  0
  150.9438  138.6428  157.3623 H   0  0  0  0  0  0  0  0  0  0  0  0
  152.6074  139.1580  157.4427 H   0  0  0  0  0  0  0  0  0  0  0  0
  149.8350  140.7274  155.1355 H   0  0  0  0  0  0  0  0  0  0  0  0
  151.1962  144.9200  157.6025 H   0  0  0  0  0  0  0  0  0  0  0  0
  154.0662  145.3666  159.5389 H   0  0  0  0  0  0  0  0  0  0  0  0
  152.7575  145.1026  160.7016 H   0  0  0  0  0  0  0  0  0  0  0  0
  152.4668  146.0422  159.2394 H   0  0  0  0  0  0  0  0  0  0  0  0
  154.5754  141.5677  160.5440 H   0  0  0  0  0  0  0  0  0  0  0  0
  153.7945  142.9393  161.3263 H   0  0  0  0  0  0  0  0  0  0  0  0
  155.0924  143.2056  160.1525 H   0  0  0  0  0  0  0  0  0  0  0  0
  153.2943  140.5247  158.8768 H   0  0  0  0  0  0  0  0  0  0  0  0
  150.8047  133.2850  155.6195 H   0  0  0  0  0  0  0  0  0  0  0  0
  149.3139  133.7397  154.8161 H   0  0  0  0  0  0  0  0  0  0  0  0
  149.3420  137.5610  155.8187 H   0  0  0  0  0  0  0  0  0  0  0  0
  148.1299  133.2027  156.8045 H   0  0  0  0  0  0  0  0  0  0  0  0
  149.8381  143.2257  155.7223 H   0  0  0  0  0  0  0  0  0  0  0  0
  1  2  1  0  0  0  0
  1 26  1  0  0  0  0
  1 27  1  0  0  0  0
  1 28  1  0  0  0  0
  2  3  1  0  0  0  0
  2 29  1  0  0  0  0
  2 30  1  0  0  0  0
  3 25  1  0  0  0  0
  3  4  1  0  0  0  0
  3 57  1  0  0  0  0
  4  5  1  0  0  0  0
  4 31  1  0  0  0  0
  4 32  1  0  0  0  0
  5  6  1  0  0  0  0
  5 33  1  0  0  0  0
  5 34  1  0  0  0  0
  6  7  1  0  0  0  0
  7  8  1  0  0  0  0
  7 25  1  0  0  0  0
  7 35  1  0  0  0  0
  8  9  1  0  0  0  0
  8 36  1  0  0  0  0
  8 37  1  0  0  0  0
  9 10  1  0  0  0  0
  9 38  1  0  0  0  0
  9 56  1  0  0  0  0
 10 11  1  0  0  0  0
 10 39  1  0  0  0  0
 10 40  1  0  0  0  0
 11 12  1  0  0  0  0
 11 13  1  0  0  0  0
 11 41  1  0  0  0  0
 12 42  1  0  0  0  0
 13 14  1  0  0  0  0
 13 43  1  0  0  0  0
 13 44  1  0  0  0  0
 14 24  1  0  0  0  0
 14 15  1  0  0  0  0
 15 16  2  0  0  0  0
 15 45  1  0  0  0  0
 16 17  1  0  0  0  0
 16 58  1  0  0  0  0
 17 24  2  0  0  0  0
 17 18  1  0  0  0  0
 18 19  2  0  0  0  0
 18 46  1  0  0  0  0
 19 20  1  0  0  0  0
 19 21  1  0  0  0  0
 20 47  1  0  0  0  0
 20 48  1  0  0  0  0
 20 49  1  0  0  0  0
 21 22  1  0  0  0  0
 21 23  2  0  0  0  0
 22 50  1  0  0  0  0
 22 51  1  0  0  0  0
 22 52  1  0  0  0  0
 23 24  1  0  0  0  0
 23 53  1  0  0  0  0
 25 54  1  0  0  0  0
 25 55  1  0  0  0  0
M  CHG  1   3   1
M  CHG  1   9   1
M  CHG  1  16   1
M  END
> <s_m_source_file>
AV-unprocessed.smi

> <i_m_source_file_index>
1047

> <i_lp_mmshare_version>
43012

> <i_f3d_flags>
0

> <s_epik_input>
W0NIM11bQ0gyXU4xW0NIMl1bQ0gyXU9bQ0BIXShbQ0gyXTEpW0NIMl1bTkhdW0NIMl1bQ0BIXShbT0hdKVtDSDJdbihbY0hdbjIpYyhjMjMpW2NIXWMoW0NIM10pYyhbY0hdMylbQ0gzXQ==

> <s_epik_cmdline>
J2VwaWtfcHl0aG9uJywgJy1waCcsICc3LjAnLCAnLXRuJywgJzgnLCAnLW1hJywgJzIwMCcsICctbWV0YWxfYmluZGluZycsICctaW1hZScsICc8aW5maWxlLm1hZT4nLCAnLW9tYWUnLCAnPG91dGZpbGUubWFlPic=

> <r_epik_Ionization_Penalty>
1.6114

> <r_epik_Ionization_Penalty_Charging>
1.61139

> <r_epik_Ionization_Penalty_Neutral>
5.04732e-06

> <r_epik_State_Penalty>
1.63724

> <r_epik_Charging_Adjusted_Penalty>
3.24864

> <i_epik_Tot_Q>
3

> <i_epik_Tot_abs_Q>
3

> <r_epik_Metal_State_Penalty>
5.64594

> <b_epik_Metal_Only>
0

> <s_lp_Force_Field>
OPLS_2005

> <r_lp_Energy>
40.2566

> <b_lp_Chiralities_Consistent>
1

> <s_lp_Variant>
AV-unprocessed.smi:1047-25

> <Gold.Version>
5.8.1

> <Gold.Id.Protein>
6NUR|6NUR_protein|mol2

> <Gold.PLP.Fitness>
64.7354

> <Gold.PLP.PLP>
-52.2862

> <Gold.PLP.part.hbond>
-4.0000

> <Gold.PLP.part.metal>
0.0000

> <Gold.PLP.part.buried>
-6.7807

> <Gold.PLP.part.nonpolar>
-41.6357

> <Gold.PLP.part.repulsive>
0.1628

> <Gold.PLP.ligand.clash>
0.0000

> <Gold.PLP.ligand.torsion>
1.3370

> <Gold.PLP.Chemscore.Hbond>
4.9840

> <Gold.PLP.Chemscore.CHOScore>
0.0000

> <Gold.PLP.Chemscore.Metal>
0.0000

> <Gold.Chemscore.Hbonds>
donor molecule, donor type, donor heavy atom, donor atom, acceptor molecule, acceptor atom, score
      L1  H    16    58       P1  8028  2.00
      P1  H  7997  8009       L1    12  0.80

> <Gold.PLP.Chemscore.Internal.Correction>
0.1712

> <Gold.Rescore>
     Score         DG    S(hbond)    S(metal)    S(lipo)     H(rot)  DE(clash)    DE(int)     intcor
     21.72     -23.02       2.75        0.00     132.25       2.78       0.08       1.23       ----

> <Gold.Chemscore.Fitness>
21.7209

> <Gold.Chemscore.DG>
-23.0244

> <Gold.Chemscore.ZeroCoef>
-5.4800

> <Gold.Chemscore.Hbond>
2.7547

> <Gold.Chemscore.Metal>
0.0000

> <Gold.Chemscore.Lipo>
132.2454

> <Gold.Chemscore.Internal_Hbond>
0.0000

> <Gold.Chemscore.DEClash>
0.0754

> <Gold.Chemscore.DEInternal>
1.2281

> <Gold.Chemscore.Rot>
2.7848

> <Gold.Chemscore.Internal.Correction>
   9.000000E+99

> <Gold.Chemscore.Hbonds>
donor molecule, donor type, donor heavy atom, donor atom, acceptor molecule, acceptor atom, score
      L1  H    16    58       P1  8028  0.97
      P1  H  7997  8009       L1    12  0.64

> <Gold.Chemscore.Hbond.Weighted>
-9.2008

> <Gold.Chemscore.Metal.Weighted>
-0.0000

> <Gold.Chemscore.Lipo.Weighted>
-15.4727

> <Gold.Chemscore.Internal_Hbond.Weighted>
0.0000

> <Gold.Chemscore.DEClash.Weighted>
0.0754

> <Gold.Chemscore.DEInternal.Weighted>
1.2281

> <Gold.Chemscore.Rot.Weighted>
7.1291

> <Gold.Chemscore.Internal.Correction.Weighted>
   9.000000E+99

> <Gold.Protein.RotatedTorsions>
[ 6907 6896 6895 6894 ] final  -99.82 input  -60.11 | X-H torsion
[ 7974 7965 7964 7962 ] final  144.96 input  175.53 | X-H torsion
[ 8008 7997 7996 7995 ] final -144.29 input   59.86 | X-H torsion
[ 10167 10162 10161 10158 ] final -140.67 input  -65.29 | X-H torsion
[ 10718 10713 10712 10709 ] final -168.52 input   66.30 | X-H torsion
[ 10763 10752 10751 10750 ] final  -30.33 input  -60.55 | X-H torsion
[ 11005 11000 10999 10996 ] final  -76.47 input  -57.11 | X-H torsion

> <Gold.Protein.ActiveResidues>
 VAL166  LYS551  ARG553  GLY616  TRP617  ASP618  TYR619  PRO620  LYS621  CYS622 
 ASP623  PHE694  ASN695  SER759  ASP760  ASP761  ALA762  ILE779  LEU786  VAL792 
 PHE793  MET794  SER795  GLU796  ALA797  LYS798  CYS799  TRP800  GLU811  SER814 

> <Gold.Protein.RotatedAtoms>
  150.7093  134.0982  159.3956 H   0  0  0  0  0  0  0  0  0  0  0  0  # atno 6907 bound_to 6896
  151.8969  135.0392  160.0512 H   0  0  0  0  0  0  0  0  0  0  0  0  # atno 6908 bound_to 6896
  152.2446  133.5128  159.5326 H   0  0  0  0  0  0  0  0  0  0  0  0  # atno 6909 bound_to 6896
  144.8792  139.5725  143.5850 H   0  0  0  0  0  0  0  0  0  0  0  0  # atno 7974 bound_to 7965
  155.5245  140.0594  157.2900 H   0  0  0  0  0  0  0  0  0  0  0  0  # atno 8008 bound_to 7997
  154.4506  140.1947  156.0477 H   0  0  0  0  0  0  0  0  0  0  0  0  # atno 8009 bound_to 7997
  156.0696  140.3262  155.7563 H   0  0  0  0  0  0  0  0  0  0  0  0  # atno 8010 bound_to 7997
  139.8259  143.7511  152.2666 H   0  0  0  0  0  0  0  0  0  0  0  0  # atno 10167 bound_to 10162
  156.6981  130.9186  151.3077 H   0  0  0  0  0  0  0  0  0  0  0  0  # atno 10718 bound_to 10713
  153.7793  135.6906  153.4891 H   0  0  0  0  0  0  0  0  0  0  0  0  # atno 10763 bound_to 10752
  153.1822  135.4502  155.0041 H   0  0  0  0  0  0  0  0  0  0  0  0  # atno 10764 bound_to 10752
  154.8088  135.3368  154.7297 H   0  0  0  0  0  0  0  0  0  0  0  0  # atno 10765 bound_to 10752
  141.1654  133.6985  156.7674 H   0  0  0  0  0  0  0  0  0  0  0  0  # atno 11005 bound_to 11000
  146.2983  139.7347  142.9110 LP  0  0  0  0  0  0  0  0  0  0  0  0  # atno 17320 bound_to 7965
  145.3985  141.0382  143.3084 LP  0  0  0  0  0  0  0  0  0  0  0  0  # atno 17321 bound_to 7965
  139.7704  144.7478  151.0233 LP  0  0  0  0  0  0  0  0  0  0  0  0  # atno 17342 bound_to 10162
  140.7810  143.4651  151.0223 LP  0  0  0  0  0  0  0  0  0  0  0  0  # atno 17343 bound_to 10162
  157.6983  130.9306  150.0710 LP  0  0  0  0  0  0  0  0  0  0  0  0  # atno 17370 bound_to 10713
  156.1749  130.3648  149.9115 LP  0  0  0  0  0  0  0  0  0  0  0  0  # atno 17371 bound_to 10713
  140.2489  134.8556  157.3648 LP  0  0  0  0  0  0  0  0  0  0  0  0  # atno 17394 bound_to 11000
  140.1722  134.4594  155.7824 LP  0  0  0  0  0  0  0  0  0  0  0  0  # atno 17395 bound_to 11000

$$$$
