AV-unprocessed.smi:2797|AV-procd|sdf|10783|dock4
  -GOLD-   2272015213D 1   1.00000     0.00000
 Structure written by MMmdl.
 37 38  0  0  0  0  0  0  0  0  1 V2000
  145.7006  139.4784  155.4753 C   0  0  0  0  0  0  0  0  0  0  0  0
  146.9706  138.9300  155.1423 O   0  0  0  0  0  0  0  0  0  0  0  0
  147.5596  139.3455  153.9049 C   0  0  0  0  0  0  0  0  0  0  0  0
  146.6880  138.9559  152.7036 C   0  0  0  0  0  0  0  0  0  0  0  0
  146.8664  137.5488  152.3590 N   0  0  0  0  0  0  0  0  0  0  0  0
  145.8851  136.6459  152.2235 C   0  0  0  0  0  0  0  0  0  0  0  0
  144.6967  136.8957  152.4223 O   0  0  0  0  0  0  0  0  0  0  0  0
  146.3785  135.4484  151.8645 N   0  0  0  0  0  0  0  0  0  0  0  0
  145.6805  134.2342  151.6114 C   0  0  0  0  0  0  0  0  0  0  0  0
  144.3746  134.1835  151.0668 C   0  0  0  0  0  0  0  0  0  0  0  0
  143.7851  132.9256  150.8381 C   0  0  0  0  0  0  0  0  0  0  0  0
  144.4035  131.7568  151.1031 N   0  0  0  0  0  0  0  0  0  0  0  0
  145.6555  131.8009  151.6086 C   0  0  0  0  0  0  0  0  0  0  0  0
  146.3028  130.4551  151.8766 C   0  0  0  0  0  0  0  0  0  0  0  0
  146.3395  133.0103  151.8757 C   0  0  0  0  0  0  0  0  0  0  0  0
  147.9483  132.9912  152.5178 Cl  0  0  0  0  0  0  0  0  0  0  0  0
  147.9291  140.8320  154.0733 C   0  0  0  0  0  0  0  0  0  0  0  0
  149.3076  140.4034  154.5793 C   0  0  0  0  0  0  0  0  0  0  0  0
  149.0795  139.0717  153.8624 C   0  0  0  0  0  0  0  0  0  0  0  0
  145.3935  139.0880  156.4452 H   0  0  0  0  0  0  0  0  0  0  0  0
  144.9289  139.2018  154.7588 H   0  0  0  0  0  0  0  0  0  0  0  0
  145.7225  140.5633  155.5594 H   0  0  0  0  0  0  0  0  0  0  0  0
  145.6353  139.0896  152.9538 H   0  0  0  0  0  0  0  0  0  0  0  0
  146.8604  139.6085  151.8477 H   0  0  0  0  0  0  0  0  0  0  0  0
  147.8131  137.2468  152.1824 H   0  0  0  0  0  0  0  0  0  0  0  0
  147.3848  135.3796  151.8241 H   0  0  0  0  0  0  0  0  0  0  0  0
  143.8225  135.0738  150.8089 H   0  0  0  0  0  0  0  0  0  0  0  0
  142.7902  132.8568  150.4236 H   0  0  0  0  0  0  0  0  0  0  0  0
  146.5722  130.3664  152.9293 H   0  0  0  0  0  0  0  0  0  0  0  0
  147.2072  130.3447  151.2780 H   0  0  0  0  0  0  0  0  0  0  0  0
  145.6321  129.6306  151.6303 H   0  0  0  0  0  0  0  0  0  0  0  0
  147.9830  141.3649  153.1224 H   0  0  0  0  0  0  0  0  0  0  0  0
  147.3256  141.3783  154.7991 H   0  0  0  0  0  0  0  0  0  0  0  0
  150.1406  140.9934  154.1962 H   0  0  0  0  0  0  0  0  0  0  0  0
  149.3469  140.2985  155.6648 H   0  0  0  0  0  0  0  0  0  0  0  0
  149.4379  138.2016  154.4100 H   0  0  0  0  0  0  0  0  0  0  0  0
  149.4763  139.0793  152.8460 H   0  0  0  0  0  0  0  0  0  0  0  0
  1  2  1  0  0  0  0
  1 20  1  0  0  0  0
  1 21  1  0  0  0  0
  1 22  1  0  0  0  0
  2  3  1  0  0  0  0
  3 19  1  0  0  0  0
  3  4  1  0  0  0  0
  3 17  1  0  0  0  0
  4  5  1  0  0  0  0
  4 23  1  0  0  0  0
  4 24  1  0  0  0  0
  5  6  1  0  0  0  0
  5 25  1  0  0  0  0
  6  7  2  0  0  0  0
  6  8  1  0  0  0  0
  8  9  1  0  0  0  0
  8 26  1  0  0  0  0
  9 15  1  0  0  0  0
  9 10  2  0  0  0  0
 10 11  1  0  0  0  0
 10 27  1  0  0  0  0
 11 12  2  0  0  0  0
 11 28  1  0  0  0  0
 12 13  1  0  0  0  0
 13 14  1  0  0  0  0
 13 15  2  0  0  0  0
 14 29  1  0  0  0  0
 14 30  1  0  0  0  0
 14 31  1  0  0  0  0
 15 16  1  0  0  0  0
 17 18  1  0  0  0  0
 17 32  1  0  0  0  0
 17 33  1  0  0  0  0
 18 19  1  0  0  0  0
 18 34  1  0  0  0  0
 18 35  1  0  0  0  0
 19 36  1  0  0  0  0
 19 37  1  0  0  0  0
M  END
> <s_m_source_file>
AV-unprocessed.smi

> <i_m_source_file_index>
2797

> <i_lp_mmshare_version>
43012

> <i_f3d_flags>
0

> <s_epik_input>
W0NIMl0xW0NIMl1bQ0gyXUMxKE9bQ0gzXSlbQ0gyXVtOSF1DKD1PKVtOSF1jMltjSF1bY0hdbmMoW0NIM10pYzJDbA==

> <s_epik_cmdline>
J2VwaWtfcHl0aG9uJywgJy1waCcsICc3LjAnLCAnLXRuJywgJzgnLCAnLW1hJywgJzIwMCcsICctbWV0YWxfYmluZGluZycsICctaW1hZScsICc8aW5maWxlLm1hZT4nLCAnLW9tYWUnLCAnPG91dGZpbGUubWFlPic=

> <r_epik_Ionization_Penalty>
0.0099818

> <r_epik_Ionization_Penalty_Charging>
0

> <r_epik_Ionization_Penalty_Neutral>
0.0099818

> <r_epik_State_Penalty>
0.00758124

> <r_epik_Charging_Adjusted_Penalty>
0.00758124

> <i_epik_Tot_Q>
0

> <i_epik_Tot_abs_Q>
0

> <r_epik_Metal_State_Penalty>
0.00745574

> <b_epik_Metal_Only>
0

> <s_lp_Force_Field>
OPLS_2005

> <r_lp_Energy>
22.2651

> <b_lp_Chiralities_Consistent>
1

> <s_lp_Variant>
AV-unprocessed.smi:2797-1

> <Gold.Version>
5.8.1

> <Gold.Id.Protein>
6NUR|6NUR_protein|mol2

> <Gold.PLP.Fitness>
39.9802

> <Gold.PLP.PLP>
-31.8580

> <Gold.PLP.part.hbond>
-1.8912

> <Gold.PLP.part.metal>
0.0000

> <Gold.PLP.part.buried>
-1.9341

> <Gold.PLP.part.nonpolar>
-29.7963

> <Gold.PLP.part.repulsive>
1.1656

> <Gold.PLP.ligand.clash>
0.0000

> <Gold.PLP.ligand.torsion>
0.5426

> <Gold.PLP.Chemscore.Hbond>
1.9760

> <Gold.PLP.Chemscore.CHOScore>
1.0000

> <Gold.PLP.Chemscore.Metal>
0.0000

> <Gold.Chemscore.Hbonds>
donor molecule, donor type, donor heavy atom, donor atom, acceptor molecule, acceptor atom, score
      L1  H     5    25       P1  7948  1.00
      L1  H     8    26       P1  7948  0.98
      L1  C    11    28       P1 10186  1.00

> <Gold.PLP.Chemscore.Internal.Correction>
0.2795

> <Gold.Rescore>
     Score         DG    S(hbond)    S(metal)    S(lipo)     H(rot)  DE(clash)    DE(int)     intcor
     16.08     -17.58       1.93        0.00      79.13       1.41       0.24       1.25       ----

> <Gold.Chemscore.Fitness>
16.0820

> <Gold.Chemscore.DG>
-17.5765

> <Gold.Chemscore.ZeroCoef>
-5.4800

> <Gold.Chemscore.Hbond>
1.9298

> <Gold.Chemscore.Metal>
0.0000

> <Gold.Chemscore.Lipo>
79.1322

> <Gold.Chemscore.Internal_Hbond>
0.0000

> <Gold.Chemscore.DEClash>
0.2416

> <Gold.Chemscore.DEInternal>
1.2529

> <Gold.Chemscore.Rot>
1.4092

> <Gold.Chemscore.Internal.Correction>
   9.000000E+99

> <Gold.Chemscore.Hbonds>
donor molecule, donor type, donor heavy atom, donor atom, acceptor molecule, acceptor atom, score
      L1  H     5    25       P1  7948  0.93
      L1  H     8    26       P1  7948  0.92

> <Gold.Chemscore.Hbond.Weighted>
-6.4455

> <Gold.Chemscore.Metal.Weighted>
-0.0000

> <Gold.Chemscore.Lipo.Weighted>
-9.2585

> <Gold.Chemscore.Internal_Hbond.Weighted>
0.0000

> <Gold.Chemscore.DEClash.Weighted>
0.2416

> <Gold.Chemscore.DEInternal.Weighted>
1.2529

> <Gold.Chemscore.Rot.Weighted>
3.6075

> <Gold.Chemscore.Internal.Correction.Weighted>
   9.000000E+99

> <Gold.Protein.RotatedTorsions>
[ 6907 6896 6895 6894 ] final  176.68 input  -60.11 | X-H torsion
[ 7974 7965 7964 7962 ] final -152.60 input  175.53 | X-H torsion
[ 8008 7997 7996 7995 ] final -179.59 input   59.86 | X-H torsion
[ 10167 10162 10161 10158 ] final  173.35 input  -65.29 | X-H torsion
[ 10718 10713 10712 10709 ] final    2.86 input   66.30 | X-H torsion
[ 10763 10752 10751 10750 ] final  -93.00 input  -60.55 | X-H torsion
[ 11005 11000 10999 10996 ] final -152.57 input  -57.11 | X-H torsion

> <Gold.Protein.ActiveResidues>
 VAL166  LYS551  ARG553  GLY616  TRP617  ASP618  TYR619  PRO620  LYS621  CYS622 
 ASP623  PHE694  ASN695  SER759  ASP760  ASP761  ALA762  ILE779  LEU786  VAL792 
 PHE793  MET794  SER795  GLU796  ALA797  LYS798  CYS799  TRP800  GLU811  SER814 

> <Gold.Protein.RotatedAtoms>
  151.7161  133.3313  159.3303 H   0  0  0  0  0  0  0  0  0  0  0  0  # atno 6907 bound_to 6896
  150.7673  134.6489  159.6287 H   0  0  0  0  0  0  0  0  0  0  0  0  # atno 6908 bound_to 6896
  152.3681  134.6777  160.0237 H   0  0  0  0  0  0  0  0  0  0  0  0  # atno 6909 bound_to 6896
  144.7785  140.4640  143.5856 H   0  0  0  0  0  0  0  0  0  0  0  0  # atno 7974 bound_to 7965
  156.0322  140.1284  157.0246 H   0  0  0  0  0  0  0  0  0  0  0  0  # atno 8008 bound_to 7997
  154.4355  140.1047  156.6186 H   0  0  0  0  0  0  0  0  0  0  0  0  # atno 8009 bound_to 7997
  155.5790  140.3467  155.4537 H   0  0  0  0  0  0  0  0  0  0  0  0  # atno 8010 bound_to 7997
  139.5105  144.3270  152.0148 H   0  0  0  0  0  0  0  0  0  0  0  0  # atno 10167 bound_to 10162
  156.8693  130.5614  149.5658 H   0  0  0  0  0  0  0  0  0  0  0  0  # atno 10718 bound_to 10713
  154.6916  135.5211  153.8400 H   0  0  0  0  0  0  0  0  0  0  0  0  # atno 10763 bound_to 10752
  153.0636  135.6577  154.0415 H   0  0  0  0  0  0  0  0  0  0  0  0  # atno 10764 bound_to 10752
  154.0288  135.2987  155.3351 H   0  0  0  0  0  0  0  0  0  0  0  0  # atno 10765 bound_to 10752
  140.7175  134.3764  157.5188 H   0  0  0  0  0  0  0  0  0  0  0  0  # atno 11005 bound_to 11000
  145.6116  139.1514  143.3073 LP  0  0  0  0  0  0  0  0  0  0  0  0  # atno 17320 bound_to 7965
  146.1980  140.6231  142.9115 LP  0  0  0  0  0  0  0  0  0  0  0  0  # atno 17321 bound_to 7965
  140.2711  144.3963  150.6151 LP  0  0  0  0  0  0  0  0  0  0  0  0  # atno 17342 bound_to 10162
  140.6088  143.2168  151.6928 LP  0  0  0  0  0  0  0  0  0  0  0  0  # atno 17343 bound_to 10162
  156.0735  130.5762  150.9428 LP  0  0  0  0  0  0  0  0  0  0  0  0  # atno 17370 bound_to 10713
  157.6205  131.0930  150.8631 LP  0  0  0  0  0  0  0  0  0  0  0  0  # atno 17371 bound_to 10713
  139.8856  134.8932  156.2632 LP  0  0  0  0  0  0  0  0  0  0  0  0  # atno 17394 bound_to 11000
  141.0032  133.7139  156.0993 LP  0  0  0  0  0  0  0  0  0  0  0  0  # atno 17395 bound_to 11000

$$$$
