AV-unprocessed.smi:1475|AV-procd|sdf|5979|dock2
  -GOLD-   22720 6 73D 1   1.00000     0.00000
 Structure written by MMmdl.
 50 51  0  0  0  0  0  0  0  0  2 V2000
  145.6255  128.9880  151.8192 C   0  0  0  0  0  0  0  0  0  0  0  0
  145.8296  130.4726  151.7446 C   0  0  0  0  0  0  0  0  0  0  0  0
  145.1189  131.4220  150.9583 C   0  0  0  0  0  0  0  0  0  0  0  0
  145.7026  132.6190  151.2639 C   0  0  0  0  0  0  0  0  0  0  0  0
  145.4000  133.9922  150.7600 C   0  0  0  0  0  0  0  0  0  0  0  0
  146.7025  132.3548  152.1841 N   0  0  0  0  0  0  0  0  0  0  0  0
  147.6308  133.2759  152.8274 C   0  0  0  0  0  0  0  0  0  0  0  0
  146.9309  134.2286  153.8039 C   0  0  0  0  0  0  0  0  0  0  0  0
  146.2575  133.7719  154.7268 O   0  0  0  0  0  0  0  0  0  0  0  0
  147.0782  135.5452  153.5897 N   0  0  0  0  0  0  0  0  0  0  0  0
  146.5014  136.5880  154.4249 C   0  0  0  0  0  0  0  0  0  0  0  0
  147.6141  137.4192  155.0830 C   0  0  0  0  0  0  0  0  0  0  0  0
  148.4506  138.1399  154.0861 N   0  3  1  0  0  0  0  0  0  0  0  0
  147.7643  139.3060  153.4703 C   0  0  0  0  0  0  0  0  0  0  0  0
  147.6930  140.5125  154.4299 C   0  0  2  0  0  0  0  0  0  0  0  0
  146.9789  141.7049  153.7779 C   0  0  0  0  0  0  0  0  0  0  0  0
  149.1071  140.8953  154.9009 C   0  0  0  0  0  0  0  0  0  0  0  0
  149.8255  139.6882  155.5292 C   0  0  2  0  0  0  0  0  0  0  0  0
  151.2538  140.0508  155.9591 C   0  0  0  0  0  0  0  0  0  0  0  0
  149.8202  138.4916  154.5521 C   0  0  0  0  0  0  0  0  0  0  0  0
  146.7770  131.0374  152.4746 N   0  0  0  0  0  0  0  0  0  0  0  0
  144.6821  128.6969  151.3573 H   0  0  0  0  0  0  0  0  0  0  0  0
  145.6078  128.6424  152.8533 H   0  0  0  0  0  0  0  0  0  0  0  0
  146.4260  128.4572  151.3039 H   0  0  0  0  0  0  0  0  0  0  0  0
  144.3019  131.2495  150.2731 H   0  0  0  0  0  0  0  0  0  0  0  0
  144.6042  133.9665  150.0153 H   0  0  0  0  0  0  0  0  0  0  0  0
  146.2788  134.4401  150.2958 H   0  0  0  0  0  0  0  0  0  0  0  0
  145.0758  134.6417  151.5731 H   0  0  0  0  0  0  0  0  0  0  0  0
  148.3948  132.7099  153.3604 H   0  0  0  0  0  0  0  0  0  0  0  0
  148.1460  133.8503  152.0558 H   0  0  0  0  0  0  0  0  0  0  0  0
  147.6457  135.8382  152.8076 H   0  0  0  0  0  0  0  0  0  0  0  0
  145.8595  137.2084  153.7998 H   0  0  0  0  0  0  0  0  0  0  0  0
  145.8705  136.1377  155.1933 H   0  0  0  0  0  0  0  0  0  0  0  0
  147.1395  138.1502  155.7394 H   0  0  0  0  0  0  0  0  0  0  0  0
  148.2311  136.7919  155.7262 H   0  0  0  0  0  0  0  0  0  0  0  0
  148.3119  139.5872  152.5695 H   0  0  0  0  0  0  0  0  0  0  0  0
  146.7663  139.0184  153.1370 H   0  0  0  0  0  0  0  0  0  0  0  0
  147.1081  140.2256  155.3049 H   0  0  0  0  0  0  0  0  0  0  0  0
  147.5154  142.0557  152.8957 H   0  0  0  0  0  0  0  0  0  0  0  0
  146.8982  142.5417  154.4724 H   0  0  0  0  0  0  0  0  0  0  0  0
  145.9684  141.4367  153.4684 H   0  0  0  0  0  0  0  0  0  0  0  0
  149.6874  141.2696  154.0560 H   0  0  0  0  0  0  0  0  0  0  0  0
  149.0507  141.7110  155.6229 H   0  0  0  0  0  0  0  0  0  0  0  0
  149.2850  139.4052  156.4325 H   0  0  0  0  0  0  0  0  0  0  0  0
  151.8644  140.3442  155.1045 H   0  0  0  0  0  0  0  0  0  0  0  0
  151.7437  139.2059  156.4442 H   0  0  0  0  0  0  0  0  0  0  0  0
  151.2522  140.8803  156.6668 H   0  0  0  0  0  0  0  0  0  0  0  0
  150.3078  137.6287  155.0036 H   0  0  0  0  0  0  0  0  0  0  0  0
  150.4171  138.7416  153.6739 H   0  0  0  0  0  0  0  0  0  0  0  0
  148.5755  137.4790  153.3323 H   0  0  0  0  0  0  0  0  0  0  0  0
  1  2  1  0  0  0  0
  1 22  1  0  0  0  0
  1 23  1  0  0  0  0
  1 24  1  0  0  0  0
  2 21  2  0  0  0  0
  2  3  1  0  0  0  0
  3  4  2  0  0  0  0
  3 25  1  0  0  0  0
  4  5  1  0  0  0  0
  4  6  1  0  0  0  0
  5 26  1  0  0  0  0
  5 27  1  0  0  0  0
  5 28  1  0  0  0  0
  6  7  1  0  0  0  0
  6 21  1  0  0  0  0
  7  8  1  0  0  0  0
  7 29  1  0  0  0  0
  7 30  1  0  0  0  0
  8  9  2  0  0  0  0
  8 10  1  0  0  0  0
 10 11  1  0  0  0  0
 10 31  1  0  0  0  0
 11 12  1  0  0  0  0
 11 32  1  0  0  0  0
 11 33  1  0  0  0  0
 12 13  1  0  0  0  0
 12 34  1  0  0  0  0
 12 35  1  0  0  0  0
 13 20  1  0  0  0  0
 13 14  1  0  0  0  0
 13 50  1  0  0  0  0
 14 15  1  0  0  0  0
 14 36  1  0  0  0  0
 14 37  1  0  0  0  0
 15 16  1  0  0  0  0
 15 17  1  0  0  0  0
 15 38  1  0  0  0  0
 16 39  1  0  0  0  0
 16 40  1  0  0  0  0
 16 41  1  0  0  0  0
 17 18  1  0  0  0  0
 17 42  1  0  0  0  0
 17 43  1  0  0  0  0
 18 19  1  0  0  0  0
 18 20  1  0  0  0  0
 18 44  1  0  0  0  0
 19 45  1  0  0  0  0
 19 46  1  0  0  0  0
 19 47  1  0  0  0  0
 20 48  1  0  0  0  0
 20 49  1  0  0  0  0
M  CHG  1  13   1
M  END
> <s_m_source_file>
AV-unprocessed.smi

> <i_m_source_file_index>
1475

> <i_lp_mmshare_version>
43012

> <i_f3d_flags>
0

> <s_epik_input>
W0NIM11jMVtjSF1jKFtDSDNdKW4objEpW0NIMl1DKD1PKVtOSF1bQ0gyXVtDSDJdTjJbQ0gyXVtDQEBIXShbQ0gzXSlbQ0gyXVtDQEBIXShbQ0gzXSlbQ0gyXTI=

> <s_epik_cmdline>
J2VwaWtfcHl0aG9uJywgJy1waCcsICc3LjAnLCAnLXRuJywgJzgnLCAnLW1hJywgJzIwMCcsICctbWV0YWxfYmluZGluZycsICctaW1hZScsICc8aW5maWxlLm1hZT4nLCAnLW9tYWUnLCAnPG91dGZpbGUubWFlPic=

> <r_lp_tautomer_probability>
1

> <r_epik_Ionization_Penalty>
0.00206431

> <r_epik_Ionization_Penalty_Charging>
0.00187095

> <r_epik_Ionization_Penalty_Neutral>
0.000193364

> <r_epik_State_Penalty>
-0

> <r_epik_Charging_Adjusted_Penalty>
0.00187095

> <i_epik_Tot_Q>
1

> <i_epik_Tot_abs_Q>
1

> <r_epik_Metal_State_Penalty>
-0

> <b_epik_Metal_Only>
0

> <s_lp_Force_Field>
OPLS_2005

> <r_lp_Energy>
18.0361

> <b_lp_Chiralities_Consistent>
1

> <s_lp_Variant>
AV-unprocessed.smi:1475-4

> <Gold.Version>
5.8.1

> <Gold.Id.Protein>
6NUR|6NUR_protein|mol2

> <Gold.PLP.Fitness>
46.8885

> <Gold.PLP.PLP>
-38.3364

> <Gold.PLP.part.hbond>
-1.9437

> <Gold.PLP.part.metal>
0.0000

> <Gold.PLP.part.buried>
-2.9151

> <Gold.PLP.part.nonpolar>
-33.9736

> <Gold.PLP.part.repulsive>
0.2489

> <Gold.PLP.ligand.clash>
0.0000

> <Gold.PLP.ligand.torsion>
0.2502

> <Gold.PLP.Chemscore.Hbond>
3.0000

> <Gold.PLP.Chemscore.CHOScore>
0.0000

> <Gold.PLP.Chemscore.Metal>
0.0000

> <Gold.Chemscore.Hbonds>
donor molecule, donor type, donor heavy atom, donor atom, acceptor molecule, acceptor atom, score
      L1  H    10    31       P1  7948  1.00
      L1  H    13    50       P1  7948  2.00

> <Gold.PLP.Chemscore.Internal.Correction>
0.0526

> <Gold.Rescore>
     Score         DG    S(hbond)    S(metal)    S(lipo)     H(rot)  DE(clash)    DE(int)     intcor
     18.75     -19.08       1.96        0.00      96.31       1.64       0.13       0.21       ----

> <Gold.Chemscore.Fitness>
18.7466

> <Gold.Chemscore.DG>
-19.0841

> <Gold.Chemscore.ZeroCoef>
-5.4800

> <Gold.Chemscore.Hbond>
1.9564

> <Gold.Chemscore.Metal>
0.0000

> <Gold.Chemscore.Lipo>
96.3068

> <Gold.Chemscore.Internal_Hbond>
0.0000

> <Gold.Chemscore.DEClash>
0.1312

> <Gold.Chemscore.DEInternal>
0.2063

> <Gold.Chemscore.Rot>
1.6399

> <Gold.Chemscore.Internal.Correction>
   9.000000E+99

> <Gold.Chemscore.Hbonds>
donor molecule, donor type, donor heavy atom, donor atom, acceptor molecule, acceptor atom, score
      L1  H    10    31       P1  7948  1.00
      L1  H    13    50       P1  7948  0.99

> <Gold.Chemscore.Hbond.Weighted>
-6.5344

> <Gold.Chemscore.Metal.Weighted>
-0.0000

> <Gold.Chemscore.Lipo.Weighted>
-11.2679

> <Gold.Chemscore.Internal_Hbond.Weighted>
0.0000

> <Gold.Chemscore.DEClash.Weighted>
0.1312

> <Gold.Chemscore.DEInternal.Weighted>
0.2063

> <Gold.Chemscore.Rot.Weighted>
4.1982

> <Gold.Chemscore.Internal.Correction.Weighted>
   9.000000E+99

> <Gold.Protein.RotatedTorsions>
[ 6907 6896 6895 6894 ] final  139.73 input  -60.11 | X-H torsion
[ 7974 7965 7964 7962 ] final  168.50 input  175.53 | X-H torsion
[ 8008 7997 7996 7995 ] final  -18.54 input   59.86 | X-H torsion
[ 10167 10162 10161 10158 ] final  101.83 input  -65.29 | X-H torsion
[ 10718 10713 10712 10709 ] final   10.40 input   66.30 | X-H torsion
[ 10763 10752 10751 10750 ] final -163.67 input  -60.55 | X-H torsion
[ 11005 11000 10999 10996 ] final  -89.95 input  -57.11 | X-H torsion

> <Gold.Protein.ActiveResidues>
 VAL166  LYS551  ARG553  GLY616  TRP617  ASP618  TYR619  PRO620  LYS621  CYS622 
 ASP623  PHE694  ASN695  SER759  ASP760  ASP761  ALA762  ILE779  LEU786  VAL792 
 PHE793  MET794  SER795  GLU796  ALA797  LYS798  CYS799  TRP800  GLU811  SER814 

> <Gold.Protein.RotatedAtoms>
  152.2514  133.5218  159.5327 H   0  0  0  0  0  0  0  0  0  0  0  0  # atno 6907 bound_to 6896
  150.7095  134.0955  159.3956 H   0  0  0  0  0  0  0  0  0  0  0  0  # atno 6908 bound_to 6896
  151.8874  135.0430  160.0545 H   0  0  0  0  0  0  0  0  0  0  0  0  # atno 6909 bound_to 6896
  144.7386  139.8916  143.6403 H   0  0  0  0  0  0  0  0  0  0  0  0  # atno 7974 bound_to 7965
  154.4899  140.2113  155.9572 H   0  0  0  0  0  0  0  0  0  0  0  0  # atno 8008 bound_to 7997
  156.1290  140.3200  155.8289 H   0  0  0  0  0  0  0  0  0  0  0  0  # atno 8009 bound_to 7997
  155.4331  140.0505  157.3007 H   0  0  0  0  0  0  0  0  0  0  0  0  # atno 8010 bound_to 7997
  139.7403  144.7013  151.0585 H   0  0  0  0  0  0  0  0  0  0  0  0  # atno 10167 bound_to 10162
  156.9804  130.6003  149.5676 H   0  0  0  0  0  0  0  0  0  0  0  0  # atno 10718 bound_to 10713
  154.7100  135.3004  154.9211 H   0  0  0  0  0  0  0  0  0  0  0  0  # atno 10763 bound_to 10752
  154.0115  135.6694  153.4770 H   0  0  0  0  0  0  0  0  0  0  0  0  # atno 10764 bound_to 10752
  153.0748  135.5041  154.8294 H   0  0  0  0  0  0  0  0  0  0  0  0  # atno 10765 bound_to 10752
  141.1575  133.7661  156.9668 H   0  0  0  0  0  0  0  0  0  0  0  0  # atno 11005 bound_to 11000
  146.1137  139.4146  143.0271 LP  0  0  0  0  0  0  0  0  0  0  0  0  # atno 17320 bound_to 7965
  145.7405  141.0010  143.1303 LP  0  0  0  0  0  0  0  0  0  0  0  0  # atno 17321 bound_to 7965
  140.7785  143.4932  150.9866 LP  0  0  0  0  0  0  0  0  0  0  0  0  # atno 17342 bound_to 10162
  139.8620  143.7302  152.3172 LP  0  0  0  0  0  0  0  0  0  0  0  0  # atno 17343 bound_to 10162
  156.0247  130.5341  150.8373 LP  0  0  0  0  0  0  0  0  0  0  0  0  # atno 17370 bound_to 10713
  157.5530  131.0944  150.9668 LP  0  0  0  0  0  0  0  0  0  0  0  0  # atno 17371 bound_to 10713
  140.1156  134.9449  157.2129 LP  0  0  0  0  0  0  0  0  0  0  0  0  # atno 17394 bound_to 11000
  140.3137  134.2994  155.7261 LP  0  0  0  0  0  0  0  0  0  0  0  0  # atno 17395 bound_to 11000

$$$$
