AV-unprocessed.smi:1912|AV-procd|sdf|7750|dock9
  -GOLD-   22720 9493D 1   1.00000     0.00000
 Structure written by MMmdl.
 44 46  0  0  0  0  0  0  0  0  2 V2000
  154.9556  140.0989  162.1526 C   0  0  0  0  0  0  0  0  0  0  0  0
  154.0828  139.6409  161.1305 O   0  0  0  0  0  0  0  0  0  0  0  0
  153.4758  140.5811  160.3261 C   0  0  0  0  0  0  0  0  0  0  0  0
  153.7352  141.9701  160.3891 C   0  0  0  0  0  0  0  0  0  0  0  0
  153.0755  142.8587  159.5205 C   0  0  0  0  0  0  0  0  0  0  0  0
  152.1383  142.3843  158.5694 C   0  0  0  0  0  0  0  0  0  0  0  0
  151.4808  143.2093  157.6792 O   0  0  0  0  0  0  0  0  0  0  0  0
  151.7707  144.5987  157.7029 C   0  0  0  0  0  0  0  0  0  0  0  0
  151.8687  140.9944  158.5108 C   0  0  0  0  0  0  0  0  0  0  0  0
  150.8866  140.4365  157.4810 C   0  0  2  0  0  0  0  0  0  0  0  0
  150.5439  139.0883  157.7313 O   0  0  0  0  0  0  0  0  0  0  0  0
  151.4272  140.5286  156.0384 C   0  0  0  0  0  0  0  0  0  0  0  0
  150.4867  139.9841  155.0460 N   0  0  0  0  0  0  0  0  0  0  0  0
  150.5663  138.8449  154.3012 C   0  0  0  0  0  0  0  0  0  0  0  0
  151.6794  137.8521  154.3074 C   0  0  0  0  0  0  0  0  0  0  0  0
  149.4295  138.7696  153.5538 N   0  3  0  0  0  0  0  0  0  0  0  0
  148.6141  139.8695  153.8226 C   0  0  0  0  0  0  0  0  0  0  0  0
  147.3666  140.2221  153.3175 C   0  0  0  0  0  0  0  0  0  0  0  0
  146.7980  141.4145  153.8113 C   0  0  0  0  0  0  0  0  0  0  0  0
  147.4677  142.2064  154.7660 C   0  0  0  0  0  0  0  0  0  0  0  0
  148.7345  141.8414  155.2665 C   0  0  0  0  0  0  0  0  0  0  0  0
  149.2889  140.6585  154.7770 C   0  0  0  0  0  0  0  0  0  0  0  0
  152.5422  140.1112  159.3837 C   0  0  0  0  0  0  0  0  0  0  0  0
  155.3497  139.2420  162.6990 H   0  0  0  0  0  0  0  0  0  0  0  0
  154.4323  140.7343  162.8686 H   0  0  0  0  0  0  0  0  0  0  0  0
  155.8046  140.6440  161.7379 H   0  0  0  0  0  0  0  0  0  0  0  0
  154.4412  142.3811  161.0945 H   0  0  0  0  0  0  0  0  0  0  0  0
  153.3116  143.9084  159.6050 H   0  0  0  0  0  0  0  0  0  0  0  0
  151.2196  145.0929  156.9028 H   0  0  0  0  0  0  0  0  0  0  0  0
  152.8322  144.7872  157.5358 H   0  0  0  0  0  0  0  0  0  0  0  0
  151.4641  145.0545  158.6452 H   0  0  0  0  0  0  0  0  0  0  0  0
  149.9480  140.9868  157.5450 H   0  0  0  0  0  0  0  0  0  0  0  0
  150.9767  138.5450  157.0902 H   0  0  0  0  0  0  0  0  0  0  0  0
  151.6929  141.5520  155.7730 H   0  0  0  0  0  0  0  0  0  0  0  0
  152.3455  139.9466  155.9501 H   0  0  0  0  0  0  0  0  0  0  0  0
  151.4891  137.0585  153.5845 H   0  0  0  0  0  0  0  0  0  0  0  0
  151.7787  137.4041  155.2961 H   0  0  0  0  0  0  0  0  0  0  0  0
  152.6199  138.3383  154.0477 H   0  0  0  0  0  0  0  0  0  0  0  0
  146.8512  139.6164  152.5866 H   0  0  0  0  0  0  0  0  0  0  0  0
  145.8287  141.7273  153.4512 H   0  0  0  0  0  0  0  0  0  0  0  0
  147.0004  143.1123  155.1239 H   0  0  0  0  0  0  0  0  0  0  0  0
  149.2331  142.4546  156.0021 H   0  0  0  0  0  0  0  0  0  0  0  0
  152.3513  139.0495  159.3276 H   0  0  0  0  0  0  0  0  0  0  0  0
  149.2262  138.0161  152.9098 H   0  0  0  0  0  0  0  0  0  0  0  0
  1  2  1  0  0  0  0
  1 24  1  0  0  0  0
  1 25  1  0  0  0  0
  1 26  1  0  0  0  0
  2  3  1  0  0  0  0
  3 23  1  0  0  0  0
  3  4  2  0  0  0  0
  4  5  1  0  0  0  0
  4 27  1  0  0  0  0
  5  6  2  0  0  0  0
  5 28  1  0  0  0  0
  6  7  1  0  0  0  0
  6  9  1  0  0  0  0
  7  8  1  0  0  0  0
  8 29  1  0  0  0  0
  8 30  1  0  0  0  0
  8 31  1  0  0  0  0
  9 10  1  0  0  0  0
  9 23  2  0  0  0  0
 10 11  1  0  0  0  0
 10 12  1  0  0  0  0
 10 32  1  0  0  0  0
 11 33  1  0  0  0  0
 12 13  1  0  0  0  0
 12 34  1  0  0  0  0
 12 35  1  0  0  0  0
 13 22  1  0  0  0  0
 13 14  1  0  0  0  0
 14 15  1  0  0  0  0
 14 16  2  0  0  0  0
 15 36  1  0  0  0  0
 15 37  1  0  0  0  0
 15 38  1  0  0  0  0
 16 17  1  0  0  0  0
 16 44  1  0  0  0  0
 17 22  2  0  0  0  0
 17 18  1  0  0  0  0
 18 19  2  0  0  0  0
 18 39  1  0  0  0  0
 19 20  1  0  0  0  0
 19 40  1  0  0  0  0
 20 21  2  0  0  0  0
 20 41  1  0  0  0  0
 21 22  1  0  0  0  0
 21 42  1  0  0  0  0
 23 43  1  0  0  0  0
M  CHG  1  16   1
M  END
> <s_m_source_file>
AV-unprocessed.smi

> <i_m_source_file_index>
1912

> <i_lp_mmshare_version>
43012

> <i_f3d_flags>
0

> <s_epik_input>
W0NIM11PYzFbY0hdW2NIXWMoT1tDSDNdKWMoW2NIXTEpW0NASF0oW09IXSlbQ0gyXW4oYyhuMilbQ0gzXSljKGMyMylbY0hdW2NIXVtjSF1bY0hdMw==

> <s_epik_cmdline>
J2VwaWtfcHl0aG9uJywgJy1waCcsICc3LjAnLCAnLXRuJywgJzgnLCAnLW1hJywgJzIwMCcsICctbWV0YWxfYmluZGluZycsICctaW1hZScsICc8aW5maWxlLm1hZT4nLCAnLW9tYWUnLCAnPG91dGZpbGUubWFlPic=

> <r_lp_tautomer_probability>
1

> <r_epik_Ionization_Penalty>
0.963869

> <r_epik_Ionization_Penalty_Charging>
0.963868

> <r_epik_Ionization_Penalty_Neutral>
1.34362e-06

> <r_epik_State_Penalty>
1.00924

> <r_epik_Charging_Adjusted_Penalty>
1.9731

> <i_epik_Tot_Q>
1

> <i_epik_Tot_abs_Q>
1

> <r_epik_Metal_State_Penalty>
4.98304

> <b_epik_Metal_Only>
0

> <s_lp_Force_Field>
OPLS_2005

> <r_lp_Energy>
21.5299

> <b_lp_Chiralities_Consistent>
1

> <s_lp_Variant>
AV-unprocessed.smi:1912-3

> <Gold.Version>
5.8.1

> <Gold.Id.Protein>
6NUR|6NUR_protein|mol2

> <Gold.PLP.Fitness>
55.7310

> <Gold.PLP.PLP>
-50.4197

> <Gold.PLP.part.hbond>
-2.0000

> <Gold.PLP.part.metal>
0.0000

> <Gold.PLP.part.buried>
-0.3869

> <Gold.PLP.part.nonpolar>
-48.0199

> <Gold.PLP.part.repulsive>
0.1776

> <Gold.PLP.ligand.clash>
0.0000

> <Gold.PLP.ligand.torsion>
0.3609

> <Gold.PLP.Chemscore.Hbond>
2.0000

> <Gold.PLP.Chemscore.CHOScore>
0.0000

> <Gold.PLP.Chemscore.Metal>
0.0000

> <Gold.Chemscore.Hbonds>
donor molecule, donor type, donor heavy atom, donor atom, acceptor molecule, acceptor atom, score
      L1  H    16    44       P1  7948  1.89

> <Gold.PLP.Chemscore.Internal.Correction>
0.0332

> <Gold.Rescore>
     Score         DG    S(hbond)    S(metal)    S(lipo)     H(rot)  DE(clash)    DE(int)     intcor
     17.81     -19.03       0.96        0.00     137.55       2.24       0.80       0.42       ----

> <Gold.Chemscore.Fitness>
17.8091

> <Gold.Chemscore.DG>
-19.0343

> <Gold.Chemscore.ZeroCoef>
-5.4800

> <Gold.Chemscore.Hbond>
0.9605

> <Gold.Chemscore.Metal>
0.0000

> <Gold.Chemscore.Lipo>
137.5454

> <Gold.Chemscore.Internal_Hbond>
0.0000

> <Gold.Chemscore.DEClash>
0.8016

> <Gold.Chemscore.DEInternal>
0.4236

> <Gold.Chemscore.Rot>
2.2448

> <Gold.Chemscore.Internal.Correction>
   9.000000E+99

> <Gold.Chemscore.Hbonds>
donor molecule, donor type, donor heavy atom, donor atom, acceptor molecule, acceptor atom, score
      L1  H    16    44       P1  7948  0.88

> <Gold.Chemscore.Hbond.Weighted>
-3.2082

> <Gold.Chemscore.Metal.Weighted>
-0.0000

> <Gold.Chemscore.Lipo.Weighted>
-16.0928

> <Gold.Chemscore.Internal_Hbond.Weighted>
0.0000

> <Gold.Chemscore.DEClash.Weighted>
0.8016

> <Gold.Chemscore.DEInternal.Weighted>
0.4236

> <Gold.Chemscore.Rot.Weighted>
5.7467

> <Gold.Chemscore.Internal.Correction.Weighted>
   9.000000E+99

> <Gold.Protein.RotatedTorsions>
[ 6907 6896 6895 6894 ] final -117.23 input  -60.11 | X-H torsion
[ 7974 7965 7964 7962 ] final   25.58 input  175.53 | X-H torsion
[ 8008 7997 7996 7995 ] final  -52.58 input   59.86 | X-H torsion
[ 10167 10162 10161 10158 ] final -157.86 input  -65.29 | X-H torsion
[ 10718 10713 10712 10709 ] final  113.52 input   66.30 | X-H torsion
[ 10763 10752 10751 10750 ] final   61.33 input  -60.55 | X-H torsion
[ 11005 11000 10999 10996 ] final   57.01 input  -57.11 | X-H torsion

> <Gold.Protein.ActiveResidues>
 VAL166  LYS551  ARG553  GLY616  TRP617  ASP618  TYR619  PRO620  LYS621  CYS622 
 ASP623  PHE694  ASN695  SER759  ASP760  ASP761  ALA762  ILE779  LEU786  VAL792 
 PHE793  MET794  SER795  GLU796  ALA797  LYS798  CYS799  TRP800  GLU811  SER814 

> <Gold.Protein.RotatedAtoms>
  150.8120  133.8405  159.3177 H   0  0  0  0  0  0  0  0  0  0  0  0  # atno 6907 bound_to 6896
  151.6188  135.1032  160.0106 H   0  0  0  0  0  0  0  0  0  0  0  0  # atno 6908 bound_to 6896
  152.4211  133.7078  159.6518 H   0  0  0  0  0  0  0  0  0  0  0  0  # atno 6909 bound_to 6896
  146.1881  139.7447  142.8851 H   0  0  0  0  0  0  0  0  0  0  0  0  # atno 7974 bound_to 7965
  154.4110  140.1220  156.5015 H   0  0  0  0  0  0  0  0  0  0  0  0  # atno 8008 bound_to 7997
  155.6890  140.3495  155.4866 H   0  0  0  0  0  0  0  0  0  0  0  0  # atno 8009 bound_to 7997
  155.9485  140.1100  157.0986 H   0  0  0  0  0  0  0  0  0  0  0  0  # atno 8010 bound_to 7997
  139.6737  143.9700  152.2298 H   0  0  0  0  0  0  0  0  0  0  0  0  # atno 10167 bound_to 10162
  157.6333  131.0985  150.7053 H   0  0  0  0  0  0  0  0  0  0  0  0  # atno 10718 bound_to 10713
  152.9947  135.5504  154.6017 H   0  0  0  0  0  0  0  0  0  0  0  0  # atno 10763 bound_to 10752
  154.5357  135.2816  155.1143 H   0  0  0  0  0  0  0  0  0  0  0  0  # atno 10764 bound_to 10752
  154.2440  135.6411  153.5270 H   0  0  0  0  0  0  0  0  0  0  0  0  # atno 10765 bound_to 10752
  140.0485  134.5771  155.9293 H   0  0  0  0  0  0  0  0  0  0  0  0  # atno 11005 bound_to 11000
  145.3875  141.0367  143.3142 LP  0  0  0  0  0  0  0  0  0  0  0  0  # atno 17320 bound_to 7965
  144.8436  139.5433  143.6889 LP  0  0  0  0  0  0  0  0  0  0  0  0  # atno 17321 bound_to 7965
  139.9471  144.6644  150.8208 LP  0  0  0  0  0  0  0  0  0  0  0  0  # atno 17342 bound_to 10162
  140.7628  143.3206  151.2631 LP  0  0  0  0  0  0  0  0  0  0  0  0  # atno 17343 bound_to 10162
  156.7388  130.4732  149.5482 LP  0  0  0  0  0  0  0  0  0  0  0  0  # atno 17370 bound_to 10713
  156.1553  130.6337  151.0649 LP  0  0  0  0  0  0  0  0  0  0  0  0  # atno 17371 bound_to 10713
  141.1919  133.6573  156.5476 LP  0  0  0  0  0  0  0  0  0  0  0  0  # atno 17394 bound_to 11000
  140.3955  134.7403  157.4748 LP  0  0  0  0  0  0  0  0  0  0  0  0  # atno 17395 bound_to 11000

$$$$
