AV-unprocessed.smi:1324|AV-procd|sdf|5470|dock6
  -GOLD-   22720 5 43D 1   1.00000     0.00000
 Structure written by MMmdl.
 43 44  0  0  0  0  0  0  0  0  1 V2000
  146.0991  138.0942  152.7478 C   0  0  0  0  0  0  0  0  0  0  0  0
  147.0609  139.1023  153.3387 C   0  0  0  0  0  0  0  0  0  0  0  0
  146.5197  140.3690  153.4836 N   0  0  0  0  0  0  0  0  0  0  0  0
  147.3220  141.3576  154.0253 C   0  0  0  0  0  0  0  0  0  0  0  0
  146.6515  142.7140  154.1548 C   0  0  0  0  0  0  0  0  0  0  0  0
  148.6018  141.0991  154.3961 C   0  0  0  0  0  0  0  0  0  0  0  0
  149.5223  142.1617  154.9967 C   0  0  0  0  0  0  0  0  0  0  0  0
  149.7833  142.0641  156.5024 C   0  0  0  0  0  0  0  0  0  0  0  0
  149.1641  141.2583  157.1977 O   0  0  0  0  0  0  0  0  0  0  0  0
  150.7106  142.9017  156.9918 N   0  0  0  0  0  0  0  0  0  0  0  0
  151.1249  142.9893  158.3907 C   0  0  0  0  0  0  0  0  0  0  0  0
  151.1970  144.4778  158.8040 C   0  0  0  0  0  0  0  0  0  0  0  0
  151.9789  144.8154  160.0861 C   0  0  0  0  0  0  0  0  0  0  0  0
  151.8686  143.7913  161.2260 C   0  0  0  0  0  0  0  0  0  0  0  0
  152.8995  142.6572  161.1017 C   0  0  0  0  0  0  0  0  0  0  0  0
  152.5926  141.6278  160.0049 C   0  0  0  0  0  0  0  0  0  0  0  0
  152.4383  142.2041  158.5854 C   0  0  0  0  0  0  0  0  0  0  0  0
  149.1302  139.7283  154.2011 C   0  0  0  0  0  0  0  0  0  0  0  0
  150.2886  139.4370  154.4959 O   0  0  0  0  0  0  0  0  0  0  0  0
  148.2710  138.7581  153.6598 N   0  0  0  0  0  0  0  0  0  0  0  0
  145.5738  140.6048  153.2197 H   0  0  0  0  0  0  0  0  0  0  0  0
  146.5010  137.0828  152.8210 H   0  0  0  0  0  0  0  0  0  0  0  0
  145.9195  138.3153  151.6953 H   0  0  0  0  0  0  0  0  0  0  0  0
  145.1455  138.1190  153.2764 H   0  0  0  0  0  0  0  0  0  0  0  0
  146.5936  143.0118  155.2018 H   0  0  0  0  0  0  0  0  0  0  0  0
  145.6370  142.7012  153.7543 H   0  0  0  0  0  0  0  0  0  0  0  0
  147.2162  143.4710  153.6099 H   0  0  0  0  0  0  0  0  0  0  0  0
  149.1438  143.1595  154.7716 H   0  0  0  0  0  0  0  0  0  0  0  0
  150.4868  142.1112  154.4914 H   0  0  0  0  0  0  0  0  0  0  0  0
  151.1655  143.5300  156.3455 H   0  0  0  0  0  0  0  0  0  0  0  0
  150.3570  142.4995  158.9924 H   0  0  0  0  0  0  0  0  0  0  0  0
  151.6268  145.0653  157.9913 H   0  0  0  0  0  0  0  0  0  0  0  0
  150.1761  144.8450  158.9165 H   0  0  0  0  0  0  0  0  0  0  0  0
  153.0303  144.9685  159.8396 H   0  0  0  0  0  0  0  0  0  0  0  0
  151.6278  145.7836  160.4450 H   0  0  0  0  0  0  0  0  0  0  0  0
  152.0640  144.3116  162.1642 H   0  0  0  0  0  0  0  0  0  0  0  0
  150.8542  143.3992  161.3082 H   0  0  0  0  0  0  0  0  0  0  0  0
  153.8936  143.0770  160.9444 H   0  0  0  0  0  0  0  0  0  0  0  0
  152.9520  142.1302  162.0549 H   0  0  0  0  0  0  0  0  0  0  0  0
  153.4002  140.8951  159.9950 H   0  0  0  0  0  0  0  0  0  0  0  0
  151.6956  141.0676  160.2713 H   0  0  0  0  0  0  0  0  0  0  0  0
  152.4481  141.3560  157.8990 H   0  0  0  0  0  0  0  0  0  0  0  0
  153.3012  142.8135  158.3144 H   0  0  0  0  0  0  0  0  0  0  0  0
  1 22  1  0  0  0  0
  1 23  1  0  0  0  0
  1 24  1  0  0  0  0
  1  2  1  0  0  0  0
  2  3  1  0  0  0  0
  2 20  2  0  0  0  0
  3  4  1  0  0  0  0
  3 21  1  0  0  0  0
  4  6  2  0  0  0  0
  4  5  1  0  0  0  0
  5 25  1  0  0  0  0
  5 26  1  0  0  0  0
  5 27  1  0  0  0  0
  6 18  1  0  0  0  0
  6  7  1  0  0  0  0
  7  8  1  0  0  0  0
  7 28  1  0  0  0  0
  7 29  1  0  0  0  0
  8  9  2  0  0  0  0
  8 10  1  0  0  0  0
 10 11  1  0  0  0  0
 10 30  1  0  0  0  0
 11 17  1  0  0  0  0
 11 12  1  0  0  0  0
 11 31  1  0  0  0  0
 12 13  1  0  0  0  0
 12 32  1  0  0  0  0
 12 33  1  0  0  0  0
 13 14  1  0  0  0  0
 13 34  1  0  0  0  0
 13 35  1  0  0  0  0
 14 15  1  0  0  0  0
 14 36  1  0  0  0  0
 14 37  1  0  0  0  0
 15 16  1  0  0  0  0
 15 38  1  0  0  0  0
 15 39  1  0  0  0  0
 16 17  1  0  0  0  0
 16 40  1  0  0  0  0
 16 41  1  0  0  0  0
 17 42  1  0  0  0  0
 17 43  1  0  0  0  0
 18 19  2  0  0  0  0
 18 20  1  0  0  0  0
M  END
> <s_m_source_file>
AV-unprocessed.smi

> <i_m_source_file_index>
1324

> <i_lp_mmshare_version>
43012

> <i_f3d_flags>
0

> <s_epik_input>
W0NIM11jMW5jKFtDSDNdKWMoYyg9TylbbkhdMSlbQ0gyXUMoPU8pW05IXVtDSF0yW0NIMl1bQ0gyXVtDSDJdW0NIMl1bQ0gyXVtDSDJdMg==

> <s_epik_cmdline>
J2VwaWtfcHl0aG9uJywgJy1waCcsICc3LjAnLCAnLXRuJywgJzgnLCAnLW1hJywgJzIwMCcsICctbWV0YWxfYmluZGluZycsICctaW1hZScsICc8aW5maWxlLm1hZT4nLCAnLW9tYWUnLCAnPG91dGZpbGUubWFlPic=

> <r_lp_tautomer_probability>
0.156392

> <r_epik_Ionization_Penalty>
0.0140222

> <r_epik_Ionization_Penalty_Charging>
0.0138986

> <r_epik_Ionization_Penalty_Neutral>
0.000123575

> <r_epik_State_Penalty>
1.53084

> <r_epik_Charging_Adjusted_Penalty>
1.54474

> <i_epik_Tot_Q>
0

> <i_epik_Tot_abs_Q>
0

> <r_epik_Metal_State_Penalty>
1.70646

> <b_epik_Metal_Only>
0

> <s_lp_Force_Field>
OPLS_2005

> <r_lp_Energy>
20.3035

> <b_lp_Chiralities_Consistent>
1

> <s_lp_Variant>
AV-unprocessed.smi:1324-2

> <Gold.Version>
5.8.1

> <Gold.Id.Protein>
6NUR|6NUR_protein|mol2

> <Gold.PLP.Fitness>
45.8064

> <Gold.PLP.PLP>
-40.8106

> <Gold.PLP.part.hbond>
-3.0000

> <Gold.PLP.part.metal>
0.0000

> <Gold.PLP.part.buried>
0.6596

> <Gold.PLP.part.nonpolar>
-39.8256

> <Gold.PLP.part.repulsive>
1.4097

> <Gold.PLP.ligand.clash>
0.0000

> <Gold.PLP.ligand.torsion>
0.4742

> <Gold.PLP.Chemscore.Hbond>
1.9750

> <Gold.PLP.Chemscore.CHOScore>
0.0000

> <Gold.PLP.Chemscore.Metal>
0.0000

> <Gold.Chemscore.Hbonds>
donor molecule, donor type, donor heavy atom, donor atom, acceptor molecule, acceptor atom, score
      L1  H     3    21       P1 10175  0.99
      P1  H  7989  7998       L1    19  0.59

> <Gold.PLP.Chemscore.Internal.Correction>
0.0191

> <Gold.Rescore>
     Score         DG    S(hbond)    S(metal)    S(lipo)     H(rot)  DE(clash)    DE(int)     intcor
     17.83     -21.00       1.91        0.00     110.44       1.48       2.64       0.53       ----

> <Gold.Chemscore.Fitness>
17.8296

> <Gold.Chemscore.DG>
-20.9976

> <Gold.Chemscore.ZeroCoef>
-5.4800

> <Gold.Chemscore.Hbond>
1.9117

> <Gold.Chemscore.Metal>
0.0000

> <Gold.Chemscore.Lipo>
110.4405

> <Gold.Chemscore.Internal_Hbond>
0.0000

> <Gold.Chemscore.DEClash>
2.6399

> <Gold.Chemscore.DEInternal>
0.5281

> <Gold.Chemscore.Rot>
1.4801

> <Gold.Chemscore.Internal.Correction>
   9.000000E+99

> <Gold.Chemscore.Hbonds>
donor molecule, donor type, donor heavy atom, donor atom, acceptor molecule, acceptor atom, score
      L1  H     3    21       P1 10175  0.79
      P1  H  7989  7998       L1    19  0.38

> <Gold.Chemscore.Hbond.Weighted>
-6.3852

> <Gold.Chemscore.Metal.Weighted>
-0.0000

> <Gold.Chemscore.Lipo.Weighted>
-12.9215

> <Gold.Chemscore.Internal_Hbond.Weighted>
0.0000

> <Gold.Chemscore.DEClash.Weighted>
2.6399

> <Gold.Chemscore.DEInternal.Weighted>
0.5281

> <Gold.Chemscore.Rot.Weighted>
3.7891

> <Gold.Chemscore.Internal.Correction.Weighted>
   9.000000E+99

> <Gold.Protein.RotatedTorsions>
[ 6907 6896 6895 6894 ] final   33.09 input  -60.11 | X-H torsion
[ 7974 7965 7964 7962 ] final -122.70 input  175.53 | X-H torsion
[ 8008 7997 7996 7995 ] final  -26.50 input   59.86 | X-H torsion
[ 10167 10162 10161 10158 ] final  159.10 input  -65.29 | X-H torsion
[ 10718 10713 10712 10709 ] final  -30.01 input   66.30 | X-H torsion
[ 10763 10752 10751 10750 ] final  175.94 input  -60.55 | X-H torsion
[ 11005 11000 10999 10996 ] final  165.06 input  -57.11 | X-H torsion

> <Gold.Protein.ActiveResidues>
 VAL166  LYS551  ARG553  GLY616  TRP617  ASP618  TYR619  PRO620  LYS621  CYS622 
 ASP623  PHE694  ASN695  SER759  ASP760  ASP761  ALA762  ILE779  LEU786  VAL792 
 PHE793  MET794  SER795  GLU796  ALA797  LYS798  CYS799  TRP800  GLU811  SER814 

> <Gold.Protein.RotatedAtoms>
  152.0836  134.9454  160.0572 H   0  0  0  0  0  0  0  0  0  0  0  0  # atno 6907 bound_to 6896
  152.0733  133.4112  159.4477 H   0  0  0  0  0  0  0  0  0  0  0  0  # atno 6908 bound_to 6896
  150.6836  134.2986  159.4740 H   0  0  0  0  0  0  0  0  0  0  0  0  # atno 6909 bound_to 6896
  145.0266  140.8033  143.4349 H   0  0  0  0  0  0  0  0  0  0  0  0  # atno 7974 bound_to 7965
  154.4422  140.1897  156.0785 H   0  0  0  0  0  0  0  0  0  0  0  0  # atno 8008 bound_to 7997
  156.0457  140.3314  155.7267 H   0  0  0  0  0  0  0  0  0  0  0  0  # atno 8009 bound_to 7997
  155.5633  140.0606  157.2814 H   0  0  0  0  0  0  0  0  0  0  0  0  # atno 8010 bound_to 7997
  139.4830  144.4762  151.8508 H   0  0  0  0  0  0  0  0  0  0  0  0  # atno 10167 bound_to 10162
  156.4052  130.4397  149.7293 H   0  0  0  0  0  0  0  0  0  0  0  0  # atno 10718 bound_to 10713
  154.4743  135.2772  155.1619 H   0  0  0  0  0  0  0  0  0  0  0  0  # atno 10763 bound_to 10752
  154.3355  135.6181  153.5575 H   0  0  0  0  0  0  0  0  0  0  0  0  # atno 10764 bound_to 10752
  152.9868  135.5776  154.5131 H   0  0  0  0  0  0  0  0  0  0  0  0  # atno 10765 bound_to 10752
  140.2522  134.7968  157.3513 H   0  0  0  0  0  0  0  0  0  0  0  0  # atno 11005 bound_to 11000
  145.1826  139.2344  143.5285 LP  0  0  0  0  0  0  0  0  0  0  0  0  # atno 17320 bound_to 7965
  146.3493  140.1603  142.8591 LP  0  0  0  0  0  0  0  0  0  0  0  0  # atno 17321 bound_to 7965
  140.4234  144.2212  150.5887 LP  0  0  0  0  0  0  0  0  0  0  0  0  # atno 17342 bound_to 10162
  140.4851  143.2366  151.8899 LP  0  0  0  0  0  0  0  0  0  0  0  0  # atno 17343 bound_to 10162
  156.4294  130.7807  151.2827 LP  0  0  0  0  0  0  0  0  0  0  0  0  # atno 17370 bound_to 10713
  157.7505  131.0159  150.3521 LP  0  0  0  0  0  0  0  0  0  0  0  0  # atno 17371 bound_to 10713
  140.1546  134.4806  155.7937 LP  0  0  0  0  0  0  0  0  0  0  0  0  # atno 17394 bound_to 11000
  141.2200  133.6876  156.7439 LP  0  0  0  0  0  0  0  0  0  0  0  0  # atno 17395 bound_to 11000

$$$$
