AV-unprocessed.smi:379|AV-procd|sdf|2459|dock2
  -GOLD-   2262022403D 1   1.00000     0.00000
 Structure written by MMmdl.
 39 40  0  0  0  0  0  0  0  0  1 V2000
  148.2349  136.2634  160.2845 C   0  0  0  0  0  0  0  0  0  0  0  0
  148.9777  137.2009  159.3211 C   0  0  0  0  0  0  0  0  0  0  0  0
  149.8754  136.4753  158.2982 C   0  0  1  0  0  0  0  0  0  0  0  0
  149.0417  135.7393  157.2401 C   0  0  0  0  0  0  0  0  0  0  0  0
  150.7708  137.4176  157.6289 N   0  0  0  0  0  0  0  0  0  0  0  0
  151.7441  137.0991  156.7609 C   0  0  0  0  0  0  0  0  0  0  0  0
  151.9873  135.9441  156.4084 O   0  0  0  0  0  0  0  0  0  0  0  0
  152.5608  138.2772  156.2096 C   0  0  0  0  0  0  0  0  0  0  0  0
  151.8476  139.5702  156.2973 N   0  0  0  0  0  0  0  0  0  0  0  0
  150.8401  139.8493  155.3384 C   0  0  0  0  0  0  0  0  0  0  0  0
  150.5817  139.0483  154.4380 O   0  0  0  0  0  0  0  0  0  0  0  0
  150.1429  141.1215  155.5102 C   0  0  0  0  0  0  0  0  0  0  0  0
  149.1014  141.4231  154.5852 C   0  0  0  0  0  0  0  0  0  0  0  0
  148.2555  141.6444  153.8269 N   0  0  0  0  0  0  0  0  0  0  0  0
  150.4737  141.9657  156.5089 C   0  0  0  0  0  0  0  0  0  0  0  0
  151.4824  141.6928  157.4069 N   0  0  0  0  0  0  0  0  0  0  0  0
  151.7113  142.5285  158.5517 C   0  0  0  0  0  0  0  0  0  0  0  0
  150.8547  143.7610  158.7435 C   0  0  0  0  0  0  0  0  0  0  0  0
  152.3125  143.9103  158.3823 C   0  0  0  0  0  0  0  0  0  0  0  0
  152.1632  140.4565  157.3555 C   0  0  0  0  0  0  0  0  0  0  0  0
  152.9982  140.1522  158.2110 O   0  0  0  0  0  0  0  0  0  0  0  0
  147.5604  136.8277  160.9285 H   0  0  0  0  0  0  0  0  0  0  0  0
  148.9259  135.7216  160.9309 H   0  0  0  0  0  0  0  0  0  0  0  0
  147.6394  135.5303  159.7400 H   0  0  0  0  0  0  0  0  0  0  0  0
  148.2393  137.7964  158.7828 H   0  0  0  0  0  0  0  0  0  0  0  0
  149.5729  137.9095  159.8986 H   0  0  0  0  0  0  0  0  0  0  0  0
  150.4583  135.7214  158.8303 H   0  0  0  0  0  0  0  0  0  0  0  0
  148.3847  135.0020  157.7023 H   0  0  0  0  0  0  0  0  0  0  0  0
  149.6816  135.2109  156.5326 H   0  0  0  0  0  0  0  0  0  0  0  0
  148.4177  136.4311  156.6729 H   0  0  0  0  0  0  0  0  0  0  0  0
  150.6467  138.3939  157.8549 H   0  0  0  0  0  0  0  0  0  0  0  0
  153.5140  138.3067  156.7388 H   0  0  0  0  0  0  0  0  0  0  0  0
  152.8395  138.0689  155.1749 H   0  0  0  0  0  0  0  0  0  0  0  0
  149.9318  142.8953  156.6084 H   0  0  0  0  0  0  0  0  0  0  0  0
  151.9896  142.0004  159.4621 H   0  0  0  0  0  0  0  0  0  0  0  0
  150.1244  144.0037  157.9738 H   0  0  0  0  0  0  0  0  0  0  0  0
  150.5601  144.0133  159.7602 H   0  0  0  0  0  0  0  0  0  0  0  0
  152.9905  144.2601  159.1580 H   0  0  0  0  0  0  0  0  0  0  0  0
  152.5416  144.2533  157.3749 H   0  0  0  0  0  0  0  0  0  0  0  0
  1  2  1  0  0  0  0
  1 22  1  0  0  0  0
  1 23  1  0  0  0  0
  1 24  1  0  0  0  0
  2  3  1  0  0  0  0
  2 25  1  0  0  0  0
  2 26  1  0  0  0  0
  3  4  1  0  0  0  0
  3  5  1  0  0  0  0
  3 27  1  0  0  0  0
  4 28  1  0  0  0  0
  4 29  1  0  0  0  0
  4 30  1  0  0  0  0
  5  6  1  0  0  0  0
  5 31  1  0  0  0  0
  6  7  2  0  0  0  0
  6  8  1  0  0  0  0
  8  9  1  0  0  0  0
  8 32  1  0  0  0  0
  8 33  1  0  0  0  0
  9 20  1  0  0  0  0
  9 10  1  0  0  0  0
 10 11  2  0  0  0  0
 10 12  1  0  0  0  0
 12 13  1  0  0  0  0
 12 15  2  0  0  0  0
 13 14  3  0  0  0  0
 15 16  1  0  0  0  0
 15 34  1  0  0  0  0
 16 17  1  0  0  0  0
 16 20  1  0  0  0  0
 17 19  1  0  0  0  0
 17 18  1  0  0  0  0
 17 35  1  0  0  0  0
 18 19  1  0  0  0  0
 18 36  1  0  0  0  0
 18 37  1  0  0  0  0
 19 38  1  0  0  0  0
 19 39  1  0  0  0  0
 20 21  2  0  0  0  0
M  END
> <s_m_source_file>
AV-unprocessed.smi

> <i_m_source_file_index>
379

> <i_lp_mmshare_version>
43012

> <i_f3d_flags>
0

> <s_epik_input>
W0NIM11bQ0gyXVtDQEhdKFtDSDNdKVtOSF1DKD1PKVtDSDJdbjFjKD1PKWMoQyNOKVtjSF1uKGMxPU8pW0NIXTJbQ0gyXVtDSDJdMg==

> <s_epik_cmdline>
J2VwaWtfcHl0aG9uJywgJy1waCcsICc3LjAnLCAnLXRuJywgJzgnLCAnLW1hJywgJzIwMCcsICctbWV0YWxfYmluZGluZycsICctaW1hZScsICc8aW5maWxlLm1hZT4nLCAnLW9tYWUnLCAnPG91dGZpbGUubWFlPic=

> <r_lp_tautomer_probability>
1

> <r_epik_Ionization_Penalty>
1.93863e-08

> <r_epik_Ionization_Penalty_Charging>
8.45512e-11

> <r_epik_Ionization_Penalty_Neutral>
1.93017e-08

> <r_epik_State_Penalty>
-0

> <r_epik_Charging_Adjusted_Penalty>
8.45512e-11

> <i_epik_Tot_Q>
0

> <i_epik_Tot_abs_Q>
0

> <r_epik_Metal_State_Penalty>
-0

> <b_epik_Metal_Only>
0

> <s_lp_Force_Field>
OPLS_2005

> <r_lp_Energy>
29.1248

> <b_lp_Chiralities_Consistent>
1

> <s_lp_Variant>
AV-unprocessed.smi:379-2

> <Gold.Version>
5.8.1

> <Gold.Id.Protein>
6NUR|6NUR_protein|mol2

> <Gold.PLP.Fitness>
43.2481

> <Gold.PLP.PLP>
-35.1251

> <Gold.PLP.part.hbond>
-3.3584

> <Gold.PLP.part.metal>
0.0000

> <Gold.PLP.part.buried>
-2.1457

> <Gold.PLP.part.nonpolar>
-29.7626

> <Gold.PLP.part.repulsive>
0.3804

> <Gold.PLP.ligand.clash>
0.0000

> <Gold.PLP.ligand.torsion>
0.7732

> <Gold.PLP.Chemscore.Hbond>
2.1459

> <Gold.PLP.Chemscore.CHOScore>
1.0000

> <Gold.PLP.Chemscore.Metal>
0.0000

> <Gold.Chemscore.Hbonds>
donor molecule, donor type, donor heavy atom, donor atom, acceptor molecule, acceptor atom, score
      P1  H  7997  8010       L1    21  0.94
      P1  H  8011  8017       L1    14  0.12
      P1  H 10752 10764       L1     7  1.00
      L1  C    15    34       P1  8028  1.00

> <Gold.PLP.Chemscore.Internal.Correction>
0.2318

> <Gold.Rescore>
     Score         DG    S(hbond)    S(metal)    S(lipo)     H(rot)  DE(clash)    DE(int)     intcor
     13.81     -14.81       1.90        0.00      68.70       1.98       0.06       0.95       ----

> <Gold.Chemscore.Fitness>
13.8091

> <Gold.Chemscore.DG>
-14.8136

> <Gold.Chemscore.ZeroCoef>
-5.4800

> <Gold.Chemscore.Hbond>
1.9034

> <Gold.Chemscore.Metal>
0.0000

> <Gold.Chemscore.Lipo>
68.7046

> <Gold.Chemscore.Internal_Hbond>
0.0000

> <Gold.Chemscore.DEClash>
0.0582

> <Gold.Chemscore.DEInternal>
0.9463

> <Gold.Chemscore.Rot>
1.9774

> <Gold.Chemscore.Internal.Correction>
   9.000000E+99

> <Gold.Chemscore.Hbonds>
donor molecule, donor type, donor heavy atom, donor atom, acceptor molecule, acceptor atom, score
      P1  H  7997  8010       L1    21  0.20
      P1  H  8011  8017       L1    14  0.01
      P1  H 10752 10764       L1     7  1.00

> <Gold.Chemscore.Hbond.Weighted>
-6.3575

> <Gold.Chemscore.Metal.Weighted>
-0.0000

> <Gold.Chemscore.Lipo.Weighted>
-8.0384

> <Gold.Chemscore.Internal_Hbond.Weighted>
0.0000

> <Gold.Chemscore.DEClash.Weighted>
0.0582

> <Gold.Chemscore.DEInternal.Weighted>
0.9463

> <Gold.Chemscore.Rot.Weighted>
5.0623

> <Gold.Chemscore.Internal.Correction.Weighted>
   9.000000E+99

> <Gold.Protein.RotatedTorsions>
[ 6907 6896 6895 6894 ] final  -84.70 input  -60.11 | X-H torsion
[ 7974 7965 7964 7962 ] final  118.05 input  175.53 | X-H torsion
[ 8008 7997 7996 7995 ] final   33.51 input   59.86 | X-H torsion
[ 10167 10162 10161 10158 ] final  137.41 input  -65.29 | X-H torsion
[ 10718 10713 10712 10709 ] final  179.36 input   66.30 | X-H torsion
[ 10763 10752 10751 10750 ] final  -32.51 input  -60.55 | X-H torsion
[ 11005 11000 10999 10996 ] final -173.68 input  -57.11 | X-H torsion

> <Gold.Protein.ActiveResidues>
 VAL166  LYS551  ARG553  GLY616  TRP617  ASP618  TYR619  PRO620  LYS621  CYS622 
 ASP623  PHE694  ASN695  SER759  ASP760  ASP761  ALA762  ILE779  LEU786  VAL792 
 PHE793  MET794  SER795  GLU796  ALA797  LYS798  CYS799  TRP800  GLU811  SER814 

> <Gold.Protein.RotatedAtoms>
  150.6874  134.3318  159.4830 H   0  0  0  0  0  0  0  0  0  0  0  0  # atno 6907 bound_to 6896
  152.1182  134.9222  160.0573 H   0  0  0  0  0  0  0  0  0  0  0  0  # atno 6908 bound_to 6896
  152.0438  133.3954  159.4385 H   0  0  0  0  0  0  0  0  0  0  0  0  # atno 6909 bound_to 6896
  145.1600  139.3161  143.4522 H   0  0  0  0  0  0  0  0  0  0  0  0  # atno 7974 bound_to 7965
  155.1398  140.3265  155.4455 H   0  0  0  0  0  0  0  0  0  0  0  0  # atno 8008 bound_to 7997
  156.2608  140.1995  156.6464 H   0  0  0  0  0  0  0  0  0  0  0  0  # atno 8009 bound_to 7997
  154.6551  140.0554  156.9986 H   0  0  0  0  0  0  0  0  0  0  0  0  # atno 8010 bound_to 7997
  139.5145  144.6411  151.5566 H   0  0  0  0  0  0  0  0  0  0  0  0  # atno 10167 bound_to 10162
  156.8770  130.9803  151.3066 H   0  0  0  0  0  0  0  0  0  0  0  0  # atno 10718 bound_to 10713
  153.8150  135.6879  153.4835 H   0  0  0  0  0  0  0  0  0  0  0  0  # atno 10763 bound_to 10752
  153.1605  135.4582  154.9763 H   0  0  0  0  0  0  0  0  0  0  0  0  # atno 10764 bound_to 10752
  154.7952  135.3316  154.7627 H   0  0  0  0  0  0  0  0  0  0  0  0  # atno 10765 bound_to 10752
  140.4830  134.6057  157.4926 H   0  0  0  0  0  0  0  0  0  0  0  0  # atno 11005 bound_to 11000
  146.3483  140.1706  142.8589 LP  0  0  0  0  0  0  0  0  0  0  0  0  # atno 17320 bound_to 7965
  145.0341  140.8894  143.5092 LP  0  0  0  0  0  0  0  0  0  0  0  0  # atno 17321 bound_to 7965
  140.6178  143.9315  150.6502 LP  0  0  0  0  0  0  0  0  0  0  0  0  # atno 17342 bound_to 10162
  140.2579  143.3545  152.1348 LP  0  0  0  0  0  0  0  0  0  0  0  0  # atno 17343 bound_to 10162
  157.6163  130.8621  149.9033 LP  0  0  0  0  0  0  0  0  0  0  0  0  # atno 17370 bound_to 10713
  156.0697  130.3687  150.0802 LP  0  0  0  0  0  0  0  0  0  0  0  0  # atno 17371 bound_to 10713
  139.9815  134.7130  155.9852 LP  0  0  0  0  0  0  0  0  0  0  0  0  # atno 17394 bound_to 11000
  141.1522  133.6547  156.4047 LP  0  0  0  0  0  0  0  0  0  0  0  0  # atno 17395 bound_to 11000

$$$$
