AV-unprocessed.smi:1304|AV-procd|sdf|5430|dock9
  -GOLD-   22720 4593D 1   1.00000     0.00000
 Structure written by MMmdl.
 47 48  0  0  0  0  0  0  0  0  1 V2000
  151.5335  136.1309  154.9653 C   0  0  0  0  0  0  0  0  0  0  0  0
  150.0778  136.5928  154.7799 C   0  0  0  0  0  0  0  0  0  0  0  0
  149.7799  138.0651  155.2182 C   0  0  2  0  0  0  0  0  0  0  0  0
  151.0603  138.8864  154.9103 C   0  0  0  0  0  0  0  0  0  0  0  0
  149.5638  138.0888  156.7661 C   0  0  0  0  0  0  0  0  0  0  0  0
  148.6880  137.0243  157.2391 N   0  0  0  0  0  0  0  0  0  0  0  0
  148.8526  136.3192  158.3683 C   0  0  0  0  0  0  0  0  0  0  0  0
  149.8151  136.4759  159.1181 O   0  0  0  0  0  0  0  0  0  0  0  0
  147.7741  135.2827  158.7300 C   0  0  0  0  0  0  0  0  0  0  0  0
  147.3158  135.3388  160.1309 N   0  0  0  0  0  0  0  0  0  0  0  0
  147.3840  134.1438  160.8746 C   0  0  0  0  0  0  0  0  0  0  0  0
  146.9683  134.0757  162.1491 C   0  0  0  0  0  0  0  0  0  0  0  0
  146.4413  135.2730  162.7599 C   0  0  0  0  0  0  0  0  0  0  0  0
  146.3690  136.4208  162.0571 C   0  0  0  0  0  0  0  0  0  0  0  0
  146.8162  136.4982  160.6618 C   0  0  0  0  0  0  0  0  0  0  0  0
  146.7352  137.5371  160.0065 O   0  0  0  0  0  0  0  0  0  0  0  0
  148.5780  138.6077  154.5169 N   0  0  0  0  0  0  0  0  0  0  0  0
  148.0821  139.8909  155.0333 C   0  0  0  0  0  0  0  0  0  0  0  0
  146.7776  140.3335  154.3488 C   0  0  0  0  0  0  0  0  0  0  0  0
  146.9716  140.4028  152.9422 O   0  0  0  0  0  0  0  0  0  0  0  0
  147.3826  139.1573  152.3942 C   0  0  0  0  0  0  0  0  0  0  0  0
  148.6965  138.7091  153.0558 C   0  0  0  0  0  0  0  0  0  0  0  0
  151.6403  135.0844  154.6803 H   0  0  0  0  0  0  0  0  0  0  0  0
  151.8572  136.2224  156.0020 H   0  0  0  0  0  0  0  0  0  0  0  0
  152.2214  136.7053  154.3450 H   0  0  0  0  0  0  0  0  0  0  0  0
  149.8107  136.4439  153.7335 H   0  0  0  0  0  0  0  0  0  0  0  0
  149.4197  135.8983  155.3002 H   0  0  0  0  0  0  0  0  0  0  0  0
  151.9364  138.4626  155.4023 H   0  0  0  0  0  0  0  0  0  0  0  0
  150.9794  139.9175  155.2539 H   0  0  0  0  0  0  0  0  0  0  0  0
  151.2895  138.9094  153.8457 H   0  0  0  0  0  0  0  0  0  0  0  0
  150.5085  137.9633  157.2954 H   0  0  0  0  0  0  0  0  0  0  0  0
  149.1580  139.0529  157.0770 H   0  0  0  0  0  0  0  0  0  0  0  0
  147.8720  136.8301  156.6772 H   0  0  0  0  0  0  0  0  0  0  0  0
  146.9304  135.4248  158.0532 H   0  0  0  0  0  0  0  0  0  0  0  0
  148.1567  134.2876  158.4968 H   0  0  0  0  0  0  0  0  0  0  0  0
  147.7834  133.2927  160.3418 H   0  0  0  0  0  0  0  0  0  0  0  0
  147.0233  133.1492  162.7019 H   0  0  0  0  0  0  0  0  0  0  0  0
  146.1026  135.2484  163.7853 H   0  0  0  0  0  0  0  0  0  0  0  0
  145.9710  137.3065  162.5302 H   0  0  0  0  0  0  0  0  0  0  0  0
  147.8804  139.8326  156.1008 H   0  0  0  0  0  0  0  0  0  0  0  0
  148.8325  140.6690  154.8929 H   0  0  0  0  0  0  0  0  0  0  0  0
  145.9660  139.6414  154.5783 H   0  0  0  0  0  0  0  0  0  0  0  0
  146.4741  141.3148  154.7137 H   0  0  0  0  0  0  0  0  0  0  0  0
  146.6011  138.4099  152.5407 H   0  0  0  0  0  0  0  0  0  0  0  0
  147.5201  139.2698  151.3187 H   0  0  0  0  0  0  0  0  0  0  0  0
  149.4816  139.4158  152.7872 H   0  0  0  0  0  0  0  0  0  0  0  0
  148.9661  137.7513  152.6161 H   0  0  0  0  0  0  0  0  0  0  0  0
  1  2  1  0  0  0  0
  1 23  1  0  0  0  0
  1 24  1  0  0  0  0
  1 25  1  0  0  0  0
  2  3  1  0  0  0  0
  2 26  1  0  0  0  0
  2 27  1  0  0  0  0
  3  4  1  0  0  0  0
  3  5  1  0  0  0  0
  3 17  1  0  0  0  0
  4 28  1  0  0  0  0
  4 29  1  0  0  0  0
  4 30  1  0  0  0  0
  5  6  1  0  0  0  0
  5 31  1  0  0  0  0
  5 32  1  0  0  0  0
  6  7  1  0  0  0  0
  6 33  1  0  0  0  0
  7  8  2  0  0  0  0
  7  9  1  0  0  0  0
  9 10  1  0  0  0  0
  9 34  1  0  0  0  0
  9 35  1  0  0  0  0
 10 15  1  0  0  0  0
 10 11  1  0  0  0  0
 11 12  2  0  0  0  0
 11 36  1  0  0  0  0
 12 13  1  0  0  0  0
 12 37  1  0  0  0  0
 13 14  2  0  0  0  0
 13 38  1  0  0  0  0
 14 15  1  0  0  0  0
 14 39  1  0  0  0  0
 15 16  2  0  0  0  0
 17 22  1  0  0  0  0
 17 18  1  0  0  0  0
 18 19  1  0  0  0  0
 18 40  1  0  0  0  0
 18 41  1  0  0  0  0
 19 20  1  0  0  0  0
 19 42  1  0  0  0  0
 19 43  1  0  0  0  0
 20 21  1  0  0  0  0
 21 22  1  0  0  0  0
 21 44  1  0  0  0  0
 21 45  1  0  0  0  0
 22 46  1  0  0  0  0
 22 47  1  0  0  0  0
M  END
> <s_m_source_file>
AV-unprocessed.smi

> <i_m_source_file_index>
1304

> <i_lp_mmshare_version>
43012

> <i_f3d_flags>
0

> <s_epik_input>
W0NIMl0xW0NIMl1PW0NIMl1bQ0gyXU4xW0NAQF0oW0NIM10pKFtDSDJdW0NIM10pW0NIMl1bTkhdQyg9TylbQ0gyXW4yW2NIXVtjSF1bY0hdW2NIXWMyPU8=

> <s_epik_cmdline>
J2VwaWtfcHl0aG9uJywgJy1waCcsICc3LjAnLCAnLXRuJywgJzgnLCAnLW1hJywgJzIwMCcsICctbWV0YWxfYmluZGluZycsICctaW1hZScsICc8aW5maWxlLm1hZT4nLCAnLW9tYWUnLCAnPG91dGZpbGUubWFlPic=

> <r_lp_tautomer_probability>
1

> <r_epik_Ionization_Penalty>
0.318667

> <r_epik_Ionization_Penalty_Charging>
3.55364e-07

> <r_epik_Ionization_Penalty_Neutral>
0.318667

> <r_epik_State_Penalty>
0.313095

> <r_epik_Charging_Adjusted_Penalty>
0.313095

> <i_epik_Tot_Q>
0

> <i_epik_Tot_abs_Q>
0

> <r_epik_Metal_State_Penalty>
0.313065

> <b_epik_Metal_Only>
0

> <s_lp_Force_Field>
OPLS_2005

> <r_lp_Energy>
51.8872

> <b_lp_Chiralities_Consistent>
1

> <s_lp_Variant>
AV-unprocessed.smi:1304-2

> <Gold.Version>
5.8.1

> <Gold.Id.Protein>
6NUR|6NUR_protein|mol2

> <Gold.PLP.Fitness>
43.2425

> <Gold.PLP.PLP>
-37.1262

> <Gold.PLP.part.hbond>
-2.8283

> <Gold.PLP.part.metal>
0.0000

> <Gold.PLP.part.buried>
-5.2022

> <Gold.PLP.part.nonpolar>
-30.9228

> <Gold.PLP.part.repulsive>
1.7463

> <Gold.PLP.ligand.clash>
0.0000

> <Gold.PLP.ligand.torsion>
1.0053

> <Gold.PLP.Chemscore.Hbond>
2.6720

> <Gold.PLP.Chemscore.CHOScore>
0.0000

> <Gold.PLP.Chemscore.Metal>
0.0000

> <Gold.Chemscore.Hbonds>
donor molecule, donor type, donor heavy atom, donor atom, acceptor molecule, acceptor atom, score
      P1  H  6896  6908       L1     8  1.00
      P1  H  6934  6947       L1    16  1.00

> <Gold.PLP.Chemscore.Internal.Correction>
0.1108

> <Gold.Rescore>
     Score         DG    S(hbond)    S(metal)    S(lipo)     H(rot)  DE(clash)    DE(int)     intcor
     15.67     -16.44       1.96        0.00      80.30       1.95       0.19       0.57       ----

> <Gold.Chemscore.Fitness>
15.6716

> <Gold.Chemscore.DG>
-16.4352

> <Gold.Chemscore.ZeroCoef>
-5.4800

> <Gold.Chemscore.Hbond>
1.9628

> <Gold.Chemscore.Metal>
0.0000

> <Gold.Chemscore.Lipo>
80.3012

> <Gold.Chemscore.Internal_Hbond>
0.0000

> <Gold.Chemscore.DEClash>
0.1941

> <Gold.Chemscore.DEInternal>
0.5695

> <Gold.Chemscore.Rot>
1.9515

> <Gold.Chemscore.Internal.Correction>
   9.000000E+99

> <Gold.Chemscore.Hbonds>
donor molecule, donor type, donor heavy atom, donor atom, acceptor molecule, acceptor atom, score
      P1  H  6896  6908       L1     8  0.96
      P1  H  6934  6947       L1    16  0.90

> <Gold.Chemscore.Hbond.Weighted>
-6.5558

> <Gold.Chemscore.Metal.Weighted>
-0.0000

> <Gold.Chemscore.Lipo.Weighted>
-9.3952

> <Gold.Chemscore.Internal_Hbond.Weighted>
0.0000

> <Gold.Chemscore.DEClash.Weighted>
0.1941

> <Gold.Chemscore.DEInternal.Weighted>
0.5695

> <Gold.Chemscore.Rot.Weighted>
4.9958

> <Gold.Chemscore.Internal.Correction.Weighted>
   9.000000E+99

> <Gold.Protein.RotatedTorsions>
[ 6907 6896 6895 6894 ] final -163.39 input  -60.11 | X-H torsion
[ 7974 7965 7964 7962 ] final  -44.94 input  175.53 | X-H torsion
[ 8008 7997 7996 7995 ] final   88.48 input   59.86 | X-H torsion
[ 10167 10162 10161 10158 ] final -137.65 input  -65.29 | X-H torsion
[ 10718 10713 10712 10709 ] final -123.56 input   66.30 | X-H torsion
[ 10763 10752 10751 10750 ] final -119.33 input  -60.55 | X-H torsion
[ 11005 11000 10999 10996 ] final  -96.82 input  -57.11 | X-H torsion

> <Gold.Protein.ActiveResidues>
 VAL166  LYS551  ARG553  GLY616  TRP617  ASP618  TYR619  PRO620  LYS621  CYS622 
 ASP623  PHE694  ASN695  SER759  ASP760  ASP761  ALA762  ILE779  LEU786  VAL792 
 PHE793  MET794  SER795  GLU796  ALA797  LYS798  CYS799  TRP800  GLU811  SER814 

> <Gold.Protein.RotatedAtoms>
  151.3953  133.3775  159.2725 H   0  0  0  0  0  0  0  0  0  0  0  0  # atno 6907 bound_to 6896
  150.9474  134.8878  159.7661 H   0  0  0  0  0  0  0  0  0  0  0  0  # atno 6908 bound_to 6896
  152.5097  134.3907  159.9435 H   0  0  0  0  0  0  0  0  0  0  0  0  # atno 6909 bound_to 6896
  145.9870  140.7222  142.9335 H   0  0  0  0  0  0  0  0  0  0  0  0  # atno 7974 bound_to 7965
  155.9882  140.3371  155.6728 H   0  0  0  0  0  0  0  0  0  0  0  0  # atno 8008 bound_to 7997
  155.6456  140.0700  157.2622 H   0  0  0  0  0  0  0  0  0  0  0  0  # atno 8009 bound_to 7997
  154.4211  140.1735  156.1607 H   0  0  0  0  0  0  0  0  0  0  0  0  # atno 8010 bound_to 7997
  139.8556  143.7142  152.2654 H   0  0  0  0  0  0  0  0  0  0  0  0  # atno 10167 bound_to 10162
  156.1512  130.6536  150.9916 H   0  0  0  0  0  0  0  0  0  0  0  0  # atno 10718 bound_to 10713
  154.8614  135.4242  154.2282 H   0  0  0  0  0  0  0  0  0  0  0  0  # atno 10763 bound_to 10752
  153.3272  135.6986  153.6984 H   0  0  0  0  0  0  0  0  0  0  0  0  # atno 10764 bound_to 10752
  153.6015  135.3536  155.2920 H   0  0  0  0  0  0  0  0  0  0  0  0  # atno 10765 bound_to 10752
  141.1399  133.8125  157.0623 H   0  0  0  0  0  0  0  0  0  0  0  0  # atno 11005 bound_to 11000
  144.6878  140.3005  143.7264 LP  0  0  0  0  0  0  0  0  0  0  0  0  # atno 17320 bound_to 7965
  145.7686  139.1849  143.2226 LP  0  0  0  0  0  0  0  0  0  0  0  0  # atno 17321 bound_to 7965
  139.7423  144.7556  151.0633 LP  0  0  0  0  0  0  0  0  0  0  0  0  # atno 17342 bound_to 10162
  140.7782  143.4958  150.9835 LP  0  0  0  0  0  0  0  0  0  0  0  0  # atno 17343 bound_to 10162
  157.6658  131.0872  150.7731 LP  0  0  0  0  0  0  0  0  0  0  0  0  # atno 17370 bound_to 10713
  156.7799  130.4856  149.5403 LP  0  0  0  0  0  0  0  0  0  0  0  0  # atno 17371 bound_to 10713
  140.0564  134.9778  157.1227 LP  0  0  0  0  0  0  0  0  0  0  0  0  # atno 17394 bound_to 11000
  140.3914  134.2181  155.7166 LP  0  0  0  0  0  0  0  0  0  0  0  0  # atno 17395 bound_to 11000

$$$$
