AV-unprocessed.smi:1355|AV-procd|sdf|5538|dock1
  -GOLD-   22720 5133D 1   1.00000     0.00000
 Structure written by MMmdl.
 33 34  0  0  0  0  0  0  0  0  2 V2000
  153.6046  137.8179  157.2538 C   0  0  0  0  0  0  0  0  0  0  0  0
  153.3487  138.8141  156.2802 O   0  0  0  0  0  0  0  0  0  0  0  0
  151.9983  138.8207  155.8468 C   0  0  0  0  0  0  0  0  0  0  0  0
  151.1082  139.3976  156.9564 C   0  0  0  0  0  0  0  0  0  0  0  0
  150.9672  140.8586  156.8519 N   0  0  0  0  0  0  0  0  0  0  0  0
  150.2790  141.6280  155.9563 C   0  0  0  0  0  0  0  0  0  0  0  0
  149.4512  141.1626  154.7973 C   0  0  2  0  0  0  0  0  0  0  0  0
  148.1849  140.4399  155.2775 C   0  0  0  0  0  0  0  0  0  0  0  0
  150.1757  140.2919  153.9546 O   0  0  0  0  0  0  0  0  0  0  0  0
  150.4789  142.9299  156.3105 N   0  3  0  0  0  0  0  0  0  0  0  0
  151.3098  142.9968  157.4280 C   0  0  0  0  0  0  0  0  0  0  0  0
  151.7935  144.0907  158.1388 C   0  0  0  0  0  0  0  0  0  0  0  0
  152.6292  143.8101  159.2396 C   0  0  0  0  0  0  0  0  0  0  0  0
  152.9552  142.4849  159.5944 C   0  0  0  0  0  0  0  0  0  0  0  0
  152.4592  141.3843  158.8651 C   0  0  0  0  0  0  0  0  0  0  0  0
  151.6306  141.6701  157.7799 C   0  0  0  0  0  0  0  0  0  0  0  0
  154.6561  137.8487  157.5393 H   0  0  0  0  0  0  0  0  0  0  0  0
  153.3895  136.8215  156.8655 H   0  0  0  0  0  0  0  0  0  0  0  0
  153.0069  137.9816  158.1515 H   0  0  0  0  0  0  0  0  0  0  0  0
  151.8989  139.4223  154.9423 H   0  0  0  0  0  0  0  0  0  0  0  0
  151.6792  137.8067  155.6009 H   0  0  0  0  0  0  0  0  0  0  0  0
  150.1132  138.9559  156.9106 H   0  0  0  0  0  0  0  0  0  0  0  0
  151.5012  139.1461  157.9416 H   0  0  0  0  0  0  0  0  0  0  0  0
  149.1539  142.0217  154.1975 H   0  0  0  0  0  0  0  0  0  0  0  0
  147.5782  141.0902  155.9081 H   0  0  0  0  0  0  0  0  0  0  0  0
  148.4273  139.5480  155.8567 H   0  0  0  0  0  0  0  0  0  0  0  0
  147.5658  140.1305  154.4349 H   0  0  0  0  0  0  0  0  0  0  0  0
  149.6799  140.1603  153.1607 H   0  0  0  0  0  0  0  0  0  0  0  0
  151.5461  145.1064  157.8667 H   0  0  0  0  0  0  0  0  0  0  0  0
  153.0284  144.6273  159.8228 H   0  0  0  0  0  0  0  0  0  0  0  0
  153.5991  142.3086  160.4438 H   0  0  0  0  0  0  0  0  0  0  0  0
  152.7179  140.3742  159.1456 H   0  0  0  0  0  0  0  0  0  0  0  0
  150.0719  143.7135  155.8166 H   0  0  0  0  0  0  0  0  0  0  0  0
  1  2  1  0  0  0  0
  1 17  1  0  0  0  0
  1 18  1  0  0  0  0
  1 19  1  0  0  0  0
  2  3  1  0  0  0  0
  3  4  1  0  0  0  0
  3 20  1  0  0  0  0
  3 21  1  0  0  0  0
  4  5  1  0  0  0  0
  4 22  1  0  0  0  0
  4 23  1  0  0  0  0
  5 16  1  0  0  0  0
  5  6  1  0  0  0  0
  6  7  1  0  0  0  0
  6 10  2  0  0  0  0
  7  8  1  0  0  0  0
  7  9  1  0  0  0  0
  7 24  1  0  0  0  0
  8 25  1  0  0  0  0
  8 26  1  0  0  0  0
  8 27  1  0  0  0  0
  9 28  1  0  0  0  0
 10 11  1  0  0  0  0
 10 33  1  0  0  0  0
 11 16  2  0  0  0  0
 11 12  1  0  0  0  0
 12 13  2  0  0  0  0
 12 29  1  0  0  0  0
 13 14  1  0  0  0  0
 13 30  1  0  0  0  0
 14 15  2  0  0  0  0
 14 31  1  0  0  0  0
 15 16  1  0  0  0  0
 15 32  1  0  0  0  0
M  CHG  1  10   1
M  END
> <s_m_source_file>
AV-unprocessed.smi

> <i_m_source_file_index>
1355

> <i_lp_mmshare_version>
43012

> <i_f3d_flags>
0

> <s_epik_input>
W0NIM11PW0NIMl1bQ0gyXW4oYyhuMSlbQ0BIXShbQ0gzXSlbT0hdKWMoYzEyKVtjSF1bY0hdW2NIXVtjSF0y

> <s_epik_cmdline>
J2VwaWtfcHl0aG9uJywgJy1waCcsICc3LjAnLCAnLXRuJywgJzgnLCAnLW1hJywgJzIwMCcsICctbWV0YWxfYmluZGluZycsICctaW1hZScsICc8aW5maWxlLm1hZT4nLCAnLW9tYWUnLCAnPG91dGZpbGUubWFlPic=

> <r_epik_Ionization_Penalty>
1.43426

> <r_epik_Ionization_Penalty_Charging>
1.43423

> <r_epik_Ionization_Penalty_Neutral>
2.92192e-05

> <r_epik_State_Penalty>
1.51908

> <r_epik_Charging_Adjusted_Penalty>
2.95331

> <i_epik_Tot_Q>
1

> <i_epik_Tot_abs_Q>
1

> <r_epik_Metal_State_Penalty>
5.5644

> <b_epik_Metal_Only>
0

> <s_lp_Force_Field>
OPLS_2005

> <r_lp_Energy>
10.4801

> <b_lp_Chiralities_Consistent>
1

> <s_lp_Variant>
AV-unprocessed.smi:1355-3

> <Gold.Version>
5.8.1

> <Gold.Id.Protein>
6NUR|6NUR_protein|mol2

> <Gold.PLP.Fitness>
49.8568

> <Gold.PLP.PLP>
-36.2720

> <Gold.PLP.part.hbond>
-3.7021

> <Gold.PLP.part.metal>
0.0000

> <Gold.PLP.part.buried>
-4.8058

> <Gold.PLP.part.nonpolar>
-28.8312

> <Gold.PLP.part.repulsive>
0.1031

> <Gold.PLP.ligand.clash>
0.0000

> <Gold.PLP.ligand.torsion>
0.4726

> <Gold.PLP.Chemscore.Hbond>
4.8160

> <Gold.PLP.Chemscore.CHOScore>
0.0000

> <Gold.PLP.Chemscore.Metal>
0.0000

> <Gold.Chemscore.Hbonds>
donor molecule, donor type, donor heavy atom, donor atom, acceptor molecule, acceptor atom, score
      L1  H     9    28       P1  7957  0.99
      L1  H    10    33       P1  8028  1.98
      P1  H  7989  7998       L1     9  0.85
      P1  H  7997  8010       L1     2  0.99

> <Gold.PLP.Chemscore.Internal.Correction>
0.0820

> <Gold.Rescore>
     Score         DG    S(hbond)    S(metal)    S(lipo)     H(rot)  DE(clash)    DE(int)     intcor
     21.08     -21.54       3.30        0.00      89.17       2.10       0.00       0.46       ----

> <Gold.Chemscore.Fitness>
21.0811

> <Gold.Chemscore.DG>
-21.5395

> <Gold.Chemscore.ZeroCoef>
-5.4800

> <Gold.Chemscore.Hbond>
3.2954

> <Gold.Chemscore.Metal>
0.0000

> <Gold.Chemscore.Lipo>
89.1729

> <Gold.Chemscore.Internal_Hbond>
0.0000

> <Gold.Chemscore.DEClash>
0.0004

> <Gold.Chemscore.DEInternal>
0.4579

> <Gold.Chemscore.Rot>
2.1017

> <Gold.Chemscore.Internal.Correction>
   9.000000E+99

> <Gold.Chemscore.Hbonds>
donor molecule, donor type, donor heavy atom, donor atom, acceptor molecule, acceptor atom, score
      L1  H     9    28       P1  7957  0.90
      L1  H    10    33       P1  8028  0.90
      P1  H  7989  7998       L1     9  0.36
      P1  H  7997  8010       L1     2  0.65

> <Gold.Chemscore.Hbond.Weighted>
-11.0065

> <Gold.Chemscore.Metal.Weighted>
-0.0000

> <Gold.Chemscore.Lipo.Weighted>
-10.4332

> <Gold.Chemscore.Internal_Hbond.Weighted>
0.0000

> <Gold.Chemscore.DEClash.Weighted>
0.0004

> <Gold.Chemscore.DEInternal.Weighted>
0.4579

> <Gold.Chemscore.Rot.Weighted>
5.3803

> <Gold.Chemscore.Internal.Correction.Weighted>
   9.000000E+99

> <Gold.Protein.RotatedTorsions>
[ 6907 6896 6895 6894 ] final   25.09 input  -60.11 | X-H torsion
[ 7974 7965 7964 7962 ] final  153.41 input  175.53 | X-H torsion
[ 8008 7997 7996 7995 ] final   65.17 input   59.86 | X-H torsion
[ 10167 10162 10161 10158 ] final  117.87 input  -65.29 | X-H torsion
[ 10718 10713 10712 10709 ] final  -56.45 input   66.30 | X-H torsion
[ 10763 10752 10751 10750 ] final  -25.96 input  -60.55 | X-H torsion
[ 11005 11000 10999 10996 ] final  155.27 input  -57.11 | X-H torsion

> <Gold.Protein.ActiveResidues>
 VAL166  LYS551  ARG553  GLY616  TRP617  ASP618  TYR619  PRO620  LYS621  CYS622 
 ASP623  PHE694  ASN695  SER759  ASP760  ASP761  ALA762  ILE779  LEU786  VAL792 
 PHE793  MET794  SER795  GLU796  ALA797  LYS798  CYS799  TRP800  GLU811  SER814 

> <Gold.Protein.RotatedAtoms>
  151.9673  135.0094  160.0550 H   0  0  0  0  0  0  0  0  0  0  0  0  # atno 6907 bound_to 6896
  152.1815  133.4705  159.4968 H   0  0  0  0  0  0  0  0  0  0  0  0  # atno 6908 bound_to 6896
  150.6918  134.1745  159.4268 H   0  0  0  0  0  0  0  0  0  0  0  0  # atno 6909 bound_to 6896
  144.8156  139.6797  143.6122 H   0  0  0  0  0  0  0  0  0  0  0  0  # atno 7974 bound_to 7965
  155.6575  140.3497  155.4770 H   0  0  0  0  0  0  0  0  0  0  0  0  # atno 8008 bound_to 7997
  155.9796  140.1172  157.0761 H   0  0  0  0  0  0  0  0  0  0  0  0  # atno 8009 bound_to 7997
  154.4188  140.1141  156.5404 H   0  0  0  0  0  0  0  0  0  0  0  0  # atno 8010 bound_to 7997
  139.6150  144.7090  151.2760 H   0  0  0  0  0  0  0  0  0  0  0  0  # atno 10167 bound_to 10162
  156.1288  130.4161  150.0307 H   0  0  0  0  0  0  0  0  0  0  0  0  # atno 10718 bound_to 10713
  153.7083  135.6952  153.5044 H   0  0  0  0  0  0  0  0  0  0  0  0  # atno 10763 bound_to 10752
  153.2291  135.4343  155.0574 H   0  0  0  0  0  0  0  0  0  0  0  0  # atno 10764 bound_to 10752
  154.8323  135.3480  154.6621 H   0  0  0  0  0  0  0  0  0  0  0  0  # atno 10765 bound_to 10752
  140.1566  134.8638  157.2521 H   0  0  0  0  0  0  0  0  0  0  0  0  # atno 11005 bound_to 11000
  146.2459  139.6097  142.9460 LP  0  0  0  0  0  0  0  0  0  0  0  0  # atno 17320 bound_to 7965
  145.5221  141.0431  143.2429 LP  0  0  0  0  0  0  0  0  0  0  0  0  # atno 17321 bound_to 7965
  140.7344  143.6765  150.8037 LP  0  0  0  0  0  0  0  0  0  0  0  0  # atno 17342 bound_to 10162
  140.0366  143.5388  152.2736 LP  0  0  0  0  0  0  0  0  0  0  0  0  # atno 17343 bound_to 10162
  156.8225  130.9363  151.3640 LP  0  0  0  0  0  0  0  0  0  0  0  0  # atno 17370 bound_to 10713
  157.6467  130.8850  149.9553 LP  0  0  0  0  0  0  0  0  0  0  0  0  # atno 17371 bound_to 10713
  140.2540  134.3649  155.7431 LP  0  0  0  0  0  0  0  0  0  0  0  0  # atno 17394 bound_to 11000
  141.2205  133.7332  156.8979 LP  0  0  0  0  0  0  0  0  0  0  0  0  # atno 17395 bound_to 11000

$$$$
