AV-unprocessed.smi:1512|AV-procd|sdf|6103|dock3
  -GOLD-   22720 6233D 1   1.00000     0.00000
 Structure written by MMmdl.
 44 46  0  0  0  0  0  0  0  0  3 V2000
  151.4508  140.0121  157.5103 C   0  0  0  0  0  0  0  0  0  0  0  0
  151.1521  141.4890  157.2008 C   0  0  1  0  0  0  0  0  0  0  0  0
  149.9160  141.5908  156.4330 N   0  0  0  0  0  0  0  0  0  0  0  0
  149.7112  141.1197  155.1915 C   0  0  0  0  0  0  0  0  0  0  0  0
  150.5673  140.4979  154.5638 O   0  0  0  0  0  0  0  0  0  0  0  0
  148.3470  141.3887  154.5323 C   0  0  0  0  0  0  0  0  0  0  0  0
  147.6124  140.1775  154.1199 N   0  0  0  0  0  0  0  0  0  0  0  0
  147.4558  139.9759  152.7357 C   0  0  0  0  0  0  0  0  0  0  0  0
  146.7928  138.9201  152.2436 C   0  0  0  0  0  0  0  0  0  0  0  0
  146.2238  137.9770  153.1751 C   0  0  0  0  0  0  0  0  0  0  0  0
  146.3552  138.1525  154.5103 C   0  0  0  0  0  0  0  0  0  0  0  0
  145.7447  137.1789  155.3866 N   0  3  0  0  0  0  0  0  0  0  0  0
  145.8493  137.3254  156.6005 O   0  0  0  0  0  0  0  0  0  0  0  0
  145.1265  136.2448  154.8845 O   0  5  0  0  0  0  0  0  0  0  0  0
  147.0969  139.3123  155.0482 C   0  0  0  0  0  0  0  0  0  0  0  0
  147.2511  139.5064  156.2552 O   0  0  0  0  0  0  0  0  0  0  0  0
  151.0223  142.3354  158.4888 C   0  0  1  0  0  0  0  0  0  0  0  0
  152.3021  142.4075  159.3512 C   0  0  0  0  0  0  0  0  0  0  0  0
  152.4618  143.9179  159.6079 C   0  0  1  0  0  0  0  0  0  0  0  0
  152.9514  144.5984  158.3164 C   0  0  0  0  0  0  0  0  0  0  0  0
  151.7005  144.5607  157.4199 C   0  0  0  0  0  0  0  0  0  0  0  0
  150.6672  143.8333  158.3050 C   0  0  2  0  0  0  0  0  0  0  0  0
  151.0139  144.3890  159.6825 C   0  0  0  0  0  0  0  0  0  0  0  0
  152.3793  139.9045  158.0711 H   0  0  0  0  0  0  0  0  0  0  0  0
  151.5563  139.4295  156.5945 H   0  0  0  0  0  0  0  0  0  0  0  0
  150.6524  139.5604  158.0999 H   0  0  0  0  0  0  0  0  0  0  0  0
  151.9753  141.8817  156.6024 H   0  0  0  0  0  0  0  0  0  0  0  0
  149.1562  142.0872  156.8749 H   0  0  0  0  0  0  0  0  0  0  0  0
  147.7433  141.9679  155.2326 H   0  0  0  0  0  0  0  0  0  0  0  0
  148.5006  142.0556  153.6823 H   0  0  0  0  0  0  0  0  0  0  0  0
  147.9015  140.7332  152.1067 H   0  0  0  0  0  0  0  0  0  0  0  0
  146.6804  138.7834  151.1782 H   0  0  0  0  0  0  0  0  0  0  0  0
  145.6749  137.1312  152.7870 H   0  0  0  0  0  0  0  0  0  0  0  0
  150.2303  141.8920  159.0960 H   0  0  0  0  0  0  0  0  0  0  0  0
  152.1631  141.8631  160.2860 H   0  0  0  0  0  0  0  0  0  0  0  0
  153.1778  141.9893  158.8533 H   0  0  0  0  0  0  0  0  0  0  0  0
  153.0705  144.1511  160.4820 H   0  0  0  0  0  0  0  0  0  0  0  0
  153.2539  145.6286  158.5085 H   0  0  0  0  0  0  0  0  0  0  0  0
  153.7998  144.0780  157.8703 H   0  0  0  0  0  0  0  0  0  0  0  0
  151.3643  145.5746  157.1997 H   0  0  0  0  0  0  0  0  0  0  0  0
  151.8787  144.0665  156.4656 H   0  0  0  0  0  0  0  0  0  0  0  0
  149.6345  144.0043  157.9983 H   0  0  0  0  0  0  0  0  0  0  0  0
  150.4487  143.9267  160.4938 H   0  0  0  0  0  0  0  0  0  0  0  0
  150.9149  145.4740  159.7512 H   0  0  0  0  0  0  0  0  0  0  0  0
  1  2  1  0  0  0  0
  1 24  1  0  0  0  0
  1 25  1  0  0  0  0
  1 26  1  0  0  0  0
  2  3  1  0  0  0  0
  2 17  1  0  0  0  0
  2 27  1  0  0  0  0
  3  4  1  0  0  0  0
  3 28  1  0  0  0  0
  4  5  2  0  0  0  0
  4  6  1  0  0  0  0
  6  7  1  0  0  0  0
  6 29  1  0  0  0  0
  6 30  1  0  0  0  0
  7 15  1  0  0  0  0
  7  8  1  0  0  0  0
  8  9  2  0  0  0  0
  8 31  1  0  0  0  0
  9 10  1  0  0  0  0
  9 32  1  0  0  0  0
 10 11  2  0  0  0  0
 10 33  1  0  0  0  0
 11 12  1  0  0  0  0
 11 15  1  0  0  0  0
 12 13  2  0  0  0  0
 12 14  1  0  0  0  0
 15 16  2  0  0  0  0
 17 22  1  0  0  0  0
 17 18  1  0  0  0  0
 17 34  1  0  0  0  0
 18 19  1  0  0  0  0
 18 35  1  0  0  0  0
 18 36  1  0  0  0  0
 19 23  1  0  0  0  0
 19 20  1  0  0  0  0
 19 37  1  0  0  0  0
 20 21  1  0  0  0  0
 20 38  1  0  0  0  0
 20 39  1  0  0  0  0
 21 22  1  0  0  0  0
 21 40  1  0  0  0  0
 21 41  1  0  0  0  0
 22 23  1  0  0  0  0
 22 42  1  0  0  0  0
 23 43  1  0  0  0  0
 23 44  1  0  0  0  0
M  CHG  1  12   1
M  CHG  1  14  -1
M  END
> <s_m_source_file>
AV-unprocessed.smi

> <i_m_source_file_index>
1512

> <i_lp_mmshare_version>
43012

> <i_f3d_flags>
0

> <s_epik_input>
W0NIMl0xW0NIMl1bQ0BIXShbQ0gyXTIpW0NAQEhdKFtDSDJdW0NAQEhdMTIpW0NASF0oW0NIM10pW05IXUMoPU8pW0NIMl1uM1tjSF1bY0hdW2NIXWMoW04rXSg9TylbTy1dKWMzPU8=

> <s_epik_cmdline>
J2VwaWtfcHl0aG9uJywgJy1waCcsICc3LjAnLCAnLXRuJywgJzgnLCAnLW1hJywgJzIwMCcsICctbWV0YWxfYmluZGluZycsICctaW1hZScsICc8aW5maWxlLm1hZT4nLCAnLW9tYWUnLCAnPG91dGZpbGUubWFlPic=

> <r_lp_tautomer_probability>
1

> <r_epik_Ionization_Penalty>
2.17697e-08

> <r_epik_Ionization_Penalty_Charging>
1.42735e-10

> <r_epik_Ionization_Penalty_Neutral>
2.16269e-08

> <r_epik_State_Penalty>
-0

> <r_epik_Charging_Adjusted_Penalty>
1.42735e-10

> <i_epik_Tot_Q>
0

> <i_epik_Tot_abs_Q>
2

> <r_epik_Metal_State_Penalty>
-0

> <b_epik_Metal_Only>
0

> <s_lp_Force_Field>
OPLS_2005

> <r_lp_Energy>
64.3313

> <b_lp_Chiralities_Consistent>
1

> <s_lp_Variant>
AV-unprocessed.smi:1512-4

> <Gold.Version>
5.8.1

> <Gold.Id.Protein>
6NUR|6NUR_protein|mol2

> <Gold.PLP.Fitness>
45.3067

> <Gold.PLP.PLP>
-40.2613

> <Gold.PLP.part.hbond>
-1.0000

> <Gold.PLP.part.metal>
0.0000

> <Gold.PLP.part.buried>
-3.3676

> <Gold.PLP.part.nonpolar>
-36.5785

> <Gold.PLP.part.repulsive>
0.1503

> <Gold.PLP.ligand.clash>
0.0000

> <Gold.PLP.ligand.torsion>
0.1241

> <Gold.PLP.Chemscore.Hbond>
1.0000

> <Gold.PLP.Chemscore.CHOScore>
0.7446

> <Gold.PLP.Chemscore.Metal>
0.0000

> <Gold.Chemscore.Hbonds>
donor molecule, donor type, donor heavy atom, donor atom, acceptor molecule, acceptor atom, score
      P1  H  7989  7998       L1     5  1.00
      L1  C     8    31       P1  7957  0.65

> <Gold.PLP.Chemscore.Internal.Correction>
0.0598

> <Gold.Rescore>
     Score         DG    S(hbond)    S(metal)    S(lipo)     H(rot)  DE(clash)    DE(int)     intcor
     15.96     -18.35       0.98        0.00     120.37       1.75       0.62       1.76       ----

> <Gold.Chemscore.Fitness>
15.9617

> <Gold.Chemscore.DG>
-18.3470

> <Gold.Chemscore.ZeroCoef>
-5.4800

> <Gold.Chemscore.Hbond>
0.9750

> <Gold.Chemscore.Metal>
0.0000

> <Gold.Chemscore.Lipo>
120.3741

> <Gold.Chemscore.Internal_Hbond>
0.0000

> <Gold.Chemscore.DEClash>
0.6228

> <Gold.Chemscore.DEInternal>
1.7625

> <Gold.Chemscore.Rot>
1.7474

> <Gold.Chemscore.Internal.Correction>
   9.000000E+99

> <Gold.Chemscore.Hbonds>
donor molecule, donor type, donor heavy atom, donor atom, acceptor molecule, acceptor atom, score
      P1  H  7989  7998       L1     5  0.92

> <Gold.Chemscore.Hbond.Weighted>
-3.2566

> <Gold.Chemscore.Metal.Weighted>
-0.0000

> <Gold.Chemscore.Lipo.Weighted>
-14.0838

> <Gold.Chemscore.Internal_Hbond.Weighted>
0.0000

> <Gold.Chemscore.DEClash.Weighted>
0.6228

> <Gold.Chemscore.DEInternal.Weighted>
1.7625

> <Gold.Chemscore.Rot.Weighted>
4.4733

> <Gold.Chemscore.Internal.Correction.Weighted>
   9.000000E+99

> <Gold.Protein.RotatedTorsions>
[ 6907 6896 6895 6894 ] final  158.70 input  -60.11 | X-H torsion
[ 7974 7965 7964 7962 ] final    1.01 input  175.53 | X-H torsion
[ 8008 7997 7996 7995 ] final   47.03 input   59.86 | X-H torsion
[ 10167 10162 10161 10158 ] final  -40.40 input  -65.29 | X-H torsion
[ 10718 10713 10712 10709 ] final  -10.93 input   66.30 | X-H torsion
[ 10763 10752 10751 10750 ] final  156.14 input  -60.55 | X-H torsion
[ 11005 11000 10999 10996 ] final   20.42 input  -57.11 | X-H torsion

> <Gold.Protein.ActiveResidues>
 VAL166  LYS551  ARG553  GLY616  TRP617  ASP618  TYR619  PRO620  LYS621  CYS622 
 ASP623  PHE694  ASN695  SER759  ASP760  ASP761  ALA762  ILE779  LEU786  VAL792 
 PHE793  MET794  SER795  GLU796  ALA797  LYS798  CYS799  TRP800  GLU811  SER814 

> <Gold.Protein.RotatedAtoms>
  151.9966  133.3810  159.4164 H   0  0  0  0  0  0  0  0  0  0  0  0  # atno 6907 bound_to 6896
  150.6915  134.3879  159.5072 H   0  0  0  0  0  0  0  0  0  0  0  0  # atno 6908 bound_to 6896
  152.1620  134.8904  160.0591 H   0  0  0  0  0  0  0  0  0  0  0  0  # atno 6909 bound_to 6896
  146.2438  140.1051  142.8346 H   0  0  0  0  0  0  0  0  0  0  0  0  # atno 7974 bound_to 7965
  155.3624  140.3419  155.4241 H   0  0  0  0  0  0  0  0  0  0  0  0  # atno 8008 bound_to 7997
  156.1707  140.1630  156.8487 H   0  0  0  0  0  0  0  0  0  0  0  0  # atno 8009 bound_to 7997
  154.5230  140.0762  156.8189 H   0  0  0  0  0  0  0  0  0  0  0  0  # atno 8010 bound_to 7997
  140.7035  143.3156  151.2918 H   0  0  0  0  0  0  0  0  0  0  0  0  # atno 10167 bound_to 10162
  156.6664  130.4997  149.6014 H   0  0  0  0  0  0  0  0  0  0  0  0  # atno 10718 bound_to 10713
  154.1796  135.2800  155.3056 H   0  0  0  0  0  0  0  0  0  0  0  0  # atno 10763 bound_to 10752
  154.6013  135.5528  153.7380 H   0  0  0  0  0  0  0  0  0  0  0  0  # atno 10764 bound_to 10752
  153.0142  135.6392  154.1935 H   0  0  0  0  0  0  0  0  0  0  0  0  # atno 10765 bound_to 10752
  140.4028  134.1700  155.7664 H   0  0  0  0  0  0  0  0  0  0  0  0  # atno 11005 bound_to 11000
  145.0535  140.9035  143.4981 LP  0  0  0  0  0  0  0  0  0  0  0  0  # atno 17320 bound_to 7965
  145.1153  139.2729  143.5616 LP  0  0  0  0  0  0  0  0  0  0  0  0  # atno 17321 bound_to 7965
  139.6593  144.0218  152.2681 LP  0  0  0  0  0  0  0  0  0  0  0  0  # atno 17342 bound_to 10162
  139.9780  144.6448  150.7927 LP  0  0  0  0  0  0  0  0  0  0  0  0  # atno 17343 bound_to 10162
  156.1972  130.6597  151.1127 LP  0  0  0  0  0  0  0  0  0  0  0  0  # atno 17370 bound_to 10713
  157.7092  131.0742  150.6561 LP  0  0  0  0  0  0  0  0  0  0  0  0  # atno 17371 bound_to 10713
  141.1850  133.8332  157.1119 LP  0  0  0  0  0  0  0  0  0  0  0  0  # atno 17394 bound_to 11000
  140.0324  134.9895  157.0805 LP  0  0  0  0  0  0  0  0  0  0  0  0  # atno 17395 bound_to 11000

$$$$
