AV-unprocessed.smi:2069|AV-procd|sdf|8431|dock7
  -GOLD-   2272011123D 1   1.00000     0.00000
 Structure written by MMmdl.
 38 39  0  0  0  0  0  0  0  0  1 V2000
  150.3937  141.8243  156.3342 C   0  0  0  0  0  0  0  0  0  0  0  0
  150.1009  140.6062  155.5270 C   0  0  0  0  0  0  0  0  0  0  0  0
  151.0147  140.0130  154.7492 N   0  0  0  0  0  0  0  0  0  0  0  0
  150.5060  138.8998  154.0950 N   0  0  0  0  0  0  0  0  0  0  0  0
  149.2189  138.6855  154.4004 C   0  0  0  0  0  0  0  0  0  0  0  0
  148.4485  137.6168  153.8709 N   0  0  0  0  0  0  0  0  0  0  0  0
  147.2548  137.1618  154.2901 C   0  0  0  0  0  0  0  0  0  0  0  0
  146.6125  137.6177  155.2363 O   0  0  0  0  0  0  0  0  0  0  0  0
  146.8376  136.1351  153.5346 N   0  0  0  0  0  0  0  0  0  0  0  0
  145.5864  135.4012  153.7119 C   0  0  0  0  0  0  0  0  0  0  0  0
  145.7109  133.8903  153.3647 C   0  0  2  0  0  0  0  0  0  0  0  0
  147.0196  133.3330  153.9812 C   0  0  0  0  0  0  0  0  0  0  0  0
  145.6007  133.6181  151.9120 N   0  0  0  0  0  0  0  0  0  0  0  0
  144.2351  133.7942  151.4037 C   0  0  0  0  0  0  0  0  0  0  0  0
  144.1096  133.4832  149.9022 C   0  0  0  0  0  0  0  0  0  0  0  0
  144.5585  132.1598  149.6476 O   0  0  0  0  0  0  0  0  0  0  0  0
  145.9076  131.9699  150.0497 C   0  0  0  0  0  0  0  0  0  0  0  0
  146.0468  132.2666  151.5528 C   0  0  0  0  0  0  0  0  0  0  0  0
  148.5184  139.8376  155.5243 S   0  0  0  0  0  0  0  0  0  0  0  0
  151.4084  142.1764  156.1463 H   0  0  0  0  0  0  0  0  0  0  0  0
  150.2924  141.6007  157.3962 H   0  0  0  0  0  0  0  0  0  0  0  0
  149.6949  142.6196  156.0739 H   0  0  0  0  0  0  0  0  0  0  0  0
  148.8542  137.1438  153.0770 H   0  0  0  0  0  0  0  0  0  0  0  0
  147.4325  135.8334  152.7770 H   0  0  0  0  0  0  0  0  0  0  0  0
  145.3352  135.5449  154.7608 H   0  0  0  0  0  0  0  0  0  0  0  0
  144.7731  135.8498  153.1385 H   0  0  0  0  0  0  0  0  0  0  0  0
  144.8850  133.3809  153.8640 H   0  0  0  0  0  0  0  0  0  0  0  0
  147.1069  133.5567  155.0435 H   0  0  0  0  0  0  0  0  0  0  0  0
  147.8970  133.7495  153.4855 H   0  0  0  0  0  0  0  0  0  0  0  0
  147.0795  132.2475  153.9197 H   0  0  0  0  0  0  0  0  0  0  0  0
  143.5472  133.1590  151.9638 H   0  0  0  0  0  0  0  0  0  0  0  0
  143.9018  134.8210  151.5397 H   0  0  0  0  0  0  0  0  0  0  0  0
  143.0712  133.5743  149.5836 H   0  0  0  0  0  0  0  0  0  0  0  0
  144.6893  134.1933  149.3103 H   0  0  0  0  0  0  0  0  0  0  0  0
  146.2003  130.9414  149.8379 H   0  0  0  0  0  0  0  0  0  0  0  0
  146.5648  132.6161  149.4654 H   0  0  0  0  0  0  0  0  0  0  0  0
  147.0963  132.1285  151.8059 H   0  0  0  0  0  0  0  0  0  0  0  0
  145.4820  131.5267  152.1220 H   0  0  0  0  0  0  0  0  0  0  0  0
  1  2  1  0  0  0  0
  1 20  1  0  0  0  0
  1 21  1  0  0  0  0
  1 22  1  0  0  0  0
  2 19  1  0  0  0  0
  2  3  2  0  0  0  0
  3  4  1  0  0  0  0
  4  5  2  0  0  0  0
  5  6  1  0  0  0  0
  5 19  1  0  0  0  0
  6  7  1  0  0  0  0
  6 23  1  0  0  0  0
  7  8  2  0  0  0  0
  7  9  1  0  0  0  0
  9 10  1  0  0  0  0
  9 24  1  0  0  0  0
 10 11  1  0  0  0  0
 10 25  1  0  0  0  0
 10 26  1  0  0  0  0
 11 12  1  0  0  0  0
 11 13  1  0  0  0  0
 11 27  1  0  0  0  0
 12 28  1  0  0  0  0
 12 29  1  0  0  0  0
 12 30  1  0  0  0  0
 13 18  1  0  0  0  0
 13 14  1  0  0  0  0
 14 15  1  0  0  0  0
 14 31  1  0  0  0  0
 14 32  1  0  0  0  0
 15 16  1  0  0  0  0
 15 33  1  0  0  0  0
 15 34  1  0  0  0  0
 16 17  1  0  0  0  0
 17 18  1  0  0  0  0
 17 35  1  0  0  0  0
 17 36  1  0  0  0  0
 18 37  1  0  0  0  0
 18 38  1  0  0  0  0
M  END
> <s_m_source_file>
AV-unprocessed.smi

> <i_m_source_file_index>
2069

> <i_lp_mmshare_version>
43012

> <i_f3d_flags>
0

> <s_epik_input>
W0NIM11jMW5uYyhzMSlbTkhdQyg9TylbTkhdW0NIMl1bQ0BIXShbQ0gzXSlOMltDSDJdW0NIMl1PW0NIMl1bQ0gyXTI=

> <s_epik_cmdline>
J2VwaWtfcHl0aG9uJywgJy1waCcsICc3LjAnLCAnLXRuJywgJzgnLCAnLW1hJywgJzIwMCcsICctbWV0YWxfYmluZGluZycsICctaW1hZScsICc8aW5maWxlLm1hZT4nLCAnLW9tYWUnLCAnPG91dGZpbGUubWFlPic=

> <r_lp_tautomer_probability>
1

> <r_epik_Ionization_Penalty>
0.221104

> <r_epik_Ionization_Penalty_Charging>
0

> <r_epik_Ionization_Penalty_Neutral>
0.221104

> <r_epik_State_Penalty>
0.209349

> <r_epik_Charging_Adjusted_Penalty>
0.209349

> <i_epik_Tot_Q>
0

> <i_epik_Tot_abs_Q>
0

> <r_epik_Metal_State_Penalty>
0.561068

> <b_epik_Metal_Only>
0

> <s_lp_Force_Field>
OPLS_2005

> <r_lp_Energy>
28.2762

> <b_lp_Chiralities_Consistent>
1

> <s_lp_Variant>
AV-unprocessed.smi:2069-1

> <Gold.Version>
5.8.1

> <Gold.Id.Protein>
6NUR|6NUR_protein|mol2

> <Gold.PLP.Fitness>
31.2867

> <Gold.PLP.PLP>
-23.8957

> <Gold.PLP.part.hbond>
-3.0127

> <Gold.PLP.part.metal>
0.0000

> <Gold.PLP.part.buried>
-4.8297

> <Gold.PLP.part.nonpolar>
-17.3266

> <Gold.PLP.part.repulsive>
0.5926

> <Gold.PLP.ligand.clash>
0.0000

> <Gold.PLP.ligand.torsion>
0.6237

> <Gold.PLP.Chemscore.Hbond>
2.8710

> <Gold.PLP.Chemscore.CHOScore>
0.0000

> <Gold.PLP.Chemscore.Metal>
0.0000

> <Gold.Chemscore.Hbonds>
donor molecule, donor type, donor heavy atom, donor atom, acceptor molecule, acceptor atom, score
      L1  H     6    23       P1  7948  0.94
      L1  H     9    24       P1  7948  0.90
      P1  H  7989  7998       L1     3  1.00

> <Gold.PLP.Chemscore.Internal.Correction>
0.0254

> <Gold.Rescore>
     Score         DG    S(hbond)    S(metal)    S(lipo)     H(rot)  DE(clash)    DE(int)     intcor
     13.67     -15.50       2.25        0.00      56.36       1.60       0.04       1.79       ----

> <Gold.Chemscore.Fitness>
13.6656

> <Gold.Chemscore.DG>
-15.4969

> <Gold.Chemscore.ZeroCoef>
-5.4800

> <Gold.Chemscore.Hbond>
2.2525

> <Gold.Chemscore.Metal>
0.0000

> <Gold.Chemscore.Lipo>
56.3574

> <Gold.Chemscore.Internal_Hbond>
0.0000

> <Gold.Chemscore.DEClash>
0.0383

> <Gold.Chemscore.DEInternal>
1.7931

> <Gold.Chemscore.Rot>
1.6016

> <Gold.Chemscore.Internal.Correction>
   9.000000E+99

> <Gold.Chemscore.Hbonds>
donor molecule, donor type, donor heavy atom, donor atom, acceptor molecule, acceptor atom, score
      L1  H     6    23       P1  7948  0.90
      L1  H     9    24       P1  7948  0.88
      P1  H  7989  7998       L1     3  0.29

> <Gold.Chemscore.Hbond.Weighted>
-7.5232

> <Gold.Chemscore.Metal.Weighted>
-0.0000

> <Gold.Chemscore.Lipo.Weighted>
-6.5938

> <Gold.Chemscore.Internal_Hbond.Weighted>
0.0000

> <Gold.Chemscore.DEClash.Weighted>
0.0383

> <Gold.Chemscore.DEInternal.Weighted>
1.7931

> <Gold.Chemscore.Rot.Weighted>
4.1001

> <Gold.Chemscore.Internal.Correction.Weighted>
   9.000000E+99

> <Gold.Protein.RotatedTorsions>
[ 6907 6896 6895 6894 ] final  123.40 input  -60.11 | X-H torsion
[ 7974 7965 7964 7962 ] final  179.14 input  175.53 | X-H torsion
[ 8008 7997 7996 7995 ] final  -48.18 input   59.86 | X-H torsion
[ 10167 10162 10161 10158 ] final  -51.01 input  -65.29 | X-H torsion
[ 10718 10713 10712 10709 ] final -147.50 input   66.30 | X-H torsion
[ 10763 10752 10751 10750 ] final  123.91 input  -60.55 | X-H torsion
[ 11005 11000 10999 10996 ] final -156.02 input  -57.11 | X-H torsion

> <Gold.Protein.ActiveResidues>
 VAL166  LYS551  ARG553  GLY616  TRP617  ASP618  TYR619  PRO620  LYS621  CYS622 
 ASP623  PHE694  ASN695  SER759  ASP760  ASP761  ALA762  ILE779  LEU786  VAL792 
 PHE793  MET794  SER795  GLU796  ALA797  LYS798  CYS799  TRP800  GLU811  SER814 

> <Gold.Protein.RotatedAtoms>
  152.4165  133.7046  159.6443 H   0  0  0  0  0  0  0  0  0  0  0  0  # atno 6907 bound_to 6896
  150.8042  133.8531  159.3219 H   0  0  0  0  0  0  0  0  0  0  0  0  # atno 6908 bound_to 6896
  151.6259  135.1029  160.0163 H   0  0  0  0  0  0  0  0  0  0  0  0  # atno 6909 bound_to 6896
  144.7148  140.0503  143.6435 H   0  0  0  0  0  0  0  0  0  0  0  0  # atno 7974 bound_to 7965
  154.4025  140.1328  156.4296 H   0  0  0  0  0  0  0  0  0  0  0  0  # atno 8008 bound_to 7997
  155.7564  140.3487  155.5156 H   0  0  0  0  0  0  0  0  0  0  0  0  # atno 8009 bound_to 7997
  155.8901  140.1002  157.1415 H   0  0  0  0  0  0  0  0  0  0  0  0  # atno 8010 bound_to 7997
  140.6610  143.2636  151.4441 H   0  0  0  0  0  0  0  0  0  0  0  0  # atno 10167 bound_to 10162
  156.4083  130.7969  151.2184 H   0  0  0  0  0  0  0  0  0  0  0  0  # atno 10718 bound_to 10713
  153.6530  135.3359  155.3105 H   0  0  0  0  0  0  0  0  0  0  0  0  # atno 10763 bound_to 10752
  154.8533  135.4345  154.1884 H   0  0  0  0  0  0  0  0  0  0  0  0  # atno 10764 bound_to 10752
  153.2831  135.7010  153.7440 H   0  0  0  0  0  0  0  0  0  0  0  0  # atno 10765 bound_to 10752
  140.6801  134.4153  157.5227 H   0  0  0  0  0  0  0  0  0  0  0  0  # atno 11005 bound_to 11000
  145.9949  139.3044  143.0962 LP  0  0  0  0  0  0  0  0  0  0  0  0  # atno 17320 bound_to 7965
  145.8860  140.9333  143.0577 LP  0  0  0  0  0  0  0  0  0  0  0  0  # atno 17321 bound_to 7965
  139.5843  144.1638  152.2009 LP  0  0  0  0  0  0  0  0  0  0  0  0  # atno 17342 bound_to 10162
  140.0973  144.5569  150.7013 LP  0  0  0  0  0  0  0  0  0  0  0  0  # atno 17343 bound_to 10162
  157.7506  131.0265  150.3966 LP  0  0  0  0  0  0  0  0  0  0  0  0  # atno 17370 bound_to 10713
  156.4259  130.3962  149.6793 LP  0  0  0  0  0  0  0  0  0  0  0  0  # atno 17371 bound_to 10713
  139.8954  134.8683  156.2132 LP  0  0  0  0  0  0  0  0  0  0  0  0  # atno 17394 bound_to 11000
  141.0324  133.6981  156.1453 LP  0  0  0  0  0  0  0  0  0  0  0  0  # atno 17395 bound_to 11000

$$$$
