AV-unprocessed.smi:2451|AV-procd|sdf|9673|dock2
  -GOLD-   2272013313D 1   1.00000     0.00000
 Structure written by MMmdl.
 38 39  0  0  0  0  0  0  0  0  1 V2000
  152.1962  143.2422  161.2393 C   0  0  0  0  0  0  0  0  0  0  0  0
  153.0960  143.0447  160.0017 C   0  0  2  0  0  0  0  0  0  0  0  0
  152.4444  143.6269  158.7313 C   0  0  0  0  0  0  0  0  0  0  0  0
  151.2644  142.7729  158.2422 C   0  0  0  0  0  0  0  0  0  0  0  0
  151.7000  141.3220  157.9973 C   0  0  0  0  0  0  0  0  0  0  0  0
  152.3678  140.7028  159.2400 C   0  0  1  0  0  0  0  0  0  0  0  0
  152.8534  139.3642  158.8911 N   0  0  0  0  0  0  0  0  0  0  0  0
  151.7030  138.1354  158.5168 S   0  0  0  0  0  0  0  0  0  0  0  0
  151.7572  137.1324  159.5919 O   0  0  0  0  0  0  0  0  0  0  0  0
  150.4313  138.8021  158.1982 O   0  0  0  0  0  0  0  0  0  0  0  0
  152.4001  137.3908  156.9830 C   0  0  0  0  0  0  0  0  0  0  0  0
  151.6998  137.9610  155.7831 C   0  0  0  0  0  0  0  0  0  0  0  0
  151.0207  137.2667  154.7437 C   0  0  0  0  0  0  0  0  0  0  0  0
  150.5829  138.2675  153.9251 C   0  0  0  0  0  0  0  0  0  0  0  0
  150.9606  139.4773  154.4104 O   0  0  0  0  0  0  0  0  0  0  0  0
  151.6746  139.2711  155.5963 N   0  0  0  0  0  0  0  0  0  0  0  0
  153.5373  141.5749  159.7629 C   0  0  2  0  0  0  0  0  0  0  0  0
  154.2205  140.9665  161.0040 C   0  0  0  0  0  0  0  0  0  0  0  0
  151.2902  142.6389  161.1906 H   0  0  0  0  0  0  0  0  0  0  0  0
  151.8904  144.2844  161.3345 H   0  0  0  0  0  0  0  0  0  0  0  0
  152.7173  142.9819  162.1603 H   0  0  0  0  0  0  0  0  0  0  0  0
  153.9987  143.6285  160.1870 H   0  0  0  0  0  0  0  0  0  0  0  0
  152.1148  144.6509  158.9110 H   0  0  0  0  0  0  0  0  0  0  0  0
  153.1921  143.6866  157.9393 H   0  0  0  0  0  0  0  0  0  0  0  0
  150.4543  142.7978  158.9716 H   0  0  0  0  0  0  0  0  0  0  0  0
  150.8590  143.1962  157.3229 H   0  0  0  0  0  0  0  0  0  0  0  0
  150.8371  140.7251  157.6990 H   0  0  0  0  0  0  0  0  0  0  0  0
  152.3950  141.2985  157.1563 H   0  0  0  0  0  0  0  0  0  0  0  0
  151.6179  140.6105  160.0265 H   0  0  0  0  0  0  0  0  0  0  0  0
  153.5913  139.4093  158.1887 H   0  0  0  0  0  0  0  0  0  0  0  0
  153.4715  137.5912  156.9567 H   0  0  0  0  0  0  0  0  0  0  0  0
  152.2639  136.3107  157.0344 H   0  0  0  0  0  0  0  0  0  0  0  0
  150.8745  136.2037  154.6217 H   0  0  0  0  0  0  0  0  0  0  0  0
  150.0183  138.2801  153.0045 H   0  0  0  0  0  0  0  0  0  0  0  0
  154.2934  141.6037  158.9763 H   0  0  0  0  0  0  0  0  0  0  0  0
  153.5074  140.7867  161.8086 H   0  0  0  0  0  0  0  0  0  0  0  0
  155.0004  141.6252  161.3865 H   0  0  0  0  0  0  0  0  0  0  0  0
  154.6917  140.0114  160.7709 H   0  0  0  0  0  0  0  0  0  0  0  0
  1  2  1  0  0  0  0
  1 19  1  0  0  0  0
  1 20  1  0  0  0  0
  1 21  1  0  0  0  0
  2 17  1  0  0  0  0
  2  3  1  0  0  0  0
  2 22  1  0  0  0  0
  3  4  1  0  0  0  0
  3 23  1  0  0  0  0
  3 24  1  0  0  0  0
  4  5  1  0  0  0  0
  4 25  1  0  0  0  0
  4 26  1  0  0  0  0
  5  6  1  0  0  0  0
  5 27  1  0  0  0  0
  5 28  1  0  0  0  0
  6  7  1  0  0  0  0
  6 17  1  0  0  0  0
  6 29  1  0  0  0  0
  7  8  1  0  0  0  0
  7 30  1  0  0  0  0
  8  9  2  0  0  0  0
  8 10  2  0  0  0  0
  8 11  1  0  0  0  0
 11 12  1  0  0  0  0
 11 31  1  0  0  0  0
 11 32  1  0  0  0  0
 12 16  2  0  0  0  0
 12 13  1  0  0  0  0
 13 14  2  0  0  0  0
 13 33  1  0  0  0  0
 14 15  1  0  0  0  0
 14 34  1  0  0  0  0
 15 16  1  0  0  0  0
 17 18  1  0  0  0  0
 17 35  1  0  0  0  0
 18 36  1  0  0  0  0
 18 37  1  0  0  0  0
 18 38  1  0  0  0  0
M  END
> <s_m_source_file>
AV-unprocessed.smi

> <i_m_source_file_index>
2451

> <i_lp_mmshare_version>
43012

> <i_f3d_flags>
0

> <s_epik_input>
W0NIM11bQ0BASF0xW0NIMl1bQ0gyXVtDSDJdW0NASF0oW0NASF0xW0NIM10pW05IXVMoPU8pKD1PKVtDSDJdYzJbY0hdW2NIXW9uMg==

> <s_epik_cmdline>
J2VwaWtfcHl0aG9uJywgJy1waCcsICc3LjAnLCAnLXRuJywgJzgnLCAnLW1hJywgJzIwMCcsICctbWV0YWxfYmluZGluZycsICctaW1hZScsICc8aW5maWxlLm1hZT4nLCAnLW9tYWUnLCAnPG91dGZpbGUubWFlPic=

> <r_lp_tautomer_probability>
1

> <r_epik_Ionization_Penalty>
8.73668e-05

> <r_epik_Ionization_Penalty_Charging>
0

> <r_epik_Ionization_Penalty_Neutral>
8.73668e-05

> <r_epik_State_Penalty>
-0

> <r_epik_Charging_Adjusted_Penalty>
0

> <i_epik_Tot_Q>
0

> <i_epik_Tot_abs_Q>
0

> <r_epik_Metal_State_Penalty>
0.0716439

> <b_epik_Metal_Only>
0

> <s_lp_Force_Field>
OPLS_2005

> <r_lp_Energy>
8.38809

> <b_lp_Chiralities_Consistent>
1

> <s_lp_Variant>
AV-unprocessed.smi:2451-5

> <Gold.Version>
5.8.1

> <Gold.Id.Protein>
6NUR|6NUR_protein|mol2

> <Gold.PLP.Fitness>
46.5227

> <Gold.PLP.PLP>
-36.1658

> <Gold.PLP.part.hbond>
-2.0000

> <Gold.PLP.part.metal>
0.0000

> <Gold.PLP.part.buried>
-5.6555

> <Gold.PLP.part.nonpolar>
-29.1949

> <Gold.PLP.part.repulsive>
0.1326

> <Gold.PLP.ligand.clash>
0.0000

> <Gold.PLP.ligand.torsion>
0.7104

> <Gold.PLP.Chemscore.Hbond>
2.0000

> <Gold.PLP.Chemscore.CHOScore>
1.8806

> <Gold.PLP.Chemscore.Metal>
0.0000

> <Gold.Chemscore.Hbonds>
donor molecule, donor type, donor heavy atom, donor atom, acceptor molecule, acceptor atom, score
      P1  H  6896  6909       L1     9  1.00
      P1  H  7989  7998       L1    15  1.00
      L1  C    14    34       P1  7948  0.92
      L1  C    14    34       P1  7957  0.93

> <Gold.PLP.Chemscore.Internal.Correction>
0.1359

> <Gold.Rescore>
     Score         DG    S(hbond)    S(metal)    S(lipo)     H(rot)  DE(clash)    DE(int)     intcor
     17.06     -20.33       1.96        0.00     107.22       1.66       0.02       3.25       ----

> <Gold.Chemscore.Fitness>
17.0594

> <Gold.Chemscore.DG>
-20.3325

> <Gold.Chemscore.ZeroCoef>
-5.4800

> <Gold.Chemscore.Hbond>
1.9624

> <Gold.Chemscore.Metal>
0.0000

> <Gold.Chemscore.Lipo>
107.2191

> <Gold.Chemscore.Internal_Hbond>
0.0000

> <Gold.Chemscore.DEClash>
0.0202

> <Gold.Chemscore.DEInternal>
3.2529

> <Gold.Chemscore.Rot>
1.6588

> <Gold.Chemscore.Internal.Correction>
   9.000000E+99

> <Gold.Chemscore.Hbonds>
donor molecule, donor type, donor heavy atom, donor atom, acceptor molecule, acceptor atom, score
      P1  H  6896  6909       L1     9  0.95
      P1  H  7989  7998       L1    15  0.78

> <Gold.Chemscore.Hbond.Weighted>
-6.5545

> <Gold.Chemscore.Metal.Weighted>
-0.0000

> <Gold.Chemscore.Lipo.Weighted>
-12.5446

> <Gold.Chemscore.Internal_Hbond.Weighted>
0.0000

> <Gold.Chemscore.DEClash.Weighted>
0.0202

> <Gold.Chemscore.DEInternal.Weighted>
3.2529

> <Gold.Chemscore.Rot.Weighted>
4.2466

> <Gold.Chemscore.Internal.Correction.Weighted>
   9.000000E+99

> <Gold.Protein.RotatedTorsions>
[ 6907 6896 6895 6894 ] final  115.17 input  -60.11 | X-H torsion
[ 7974 7965 7964 7962 ] final  -36.82 input  175.53 | X-H torsion
[ 8008 7997 7996 7995 ] final   76.56 input   59.86 | X-H torsion
[ 10167 10162 10161 10158 ] final -152.17 input  -65.29 | X-H torsion
[ 10718 10713 10712 10709 ] final  164.82 input   66.30 | X-H torsion
[ 10763 10752 10751 10750 ] final   15.38 input  -60.55 | X-H torsion
[ 11005 11000 10999 10996 ] final  135.79 input  -57.11 | X-H torsion

> <Gold.Protein.ActiveResidues>
 VAL166  LYS551  ARG553  GLY616  TRP617  ASP618  TYR619  PRO620  LYS621  CYS622 
 ASP623  PHE694  ASN695  SER759  ASP760  ASP761  ALA762  ILE779  LEU786  VAL792 
 PHE793  MET794  SER795  GLU796  ALA797  LYS798  CYS799  TRP800  GLU811  SER814 

> <Gold.Protein.RotatedAtoms>
  152.4758  133.8134  159.7015 H   0  0  0  0  0  0  0  0  0  0  0  0  # atno 6907 bound_to 6896
  150.8774  133.7411  159.2949 H   0  0  0  0  0  0  0  0  0  0  0  0  # atno 6908 bound_to 6896
  151.4926  135.1061  159.9859 H   0  0  0  0  0  0  0  0  0  0  0  0  # atno 6909 bound_to 6896
  146.0628  140.6324  142.8989 H   0  0  0  0  0  0  0  0  0  0  0  0  # atno 7974 bound_to 7965
  155.8291  140.3467  155.5561 H   0  0  0  0  0  0  0  0  0  0  0  0  # atno 8008 bound_to 7997
  155.8261  140.0920  157.1840 H   0  0  0  0  0  0  0  0  0  0  0  0  # atno 8009 bound_to 7997
  154.4004  140.1421  156.3545 H   0  0  0  0  0  0  0  0  0  0  0  0  # atno 8010 bound_to 7997
  139.7204  143.8966  152.2501 H   0  0  0  0  0  0  0  0  0  0  0  0  # atno 10167 bound_to 10162
  157.0889  131.0412  151.2545 H   0  0  0  0  0  0  0  0  0  0  0  0  # atno 10718 bound_to 10713
  153.1531  135.6782  153.8853 H   0  0  0  0  0  0  0  0  0  0  0  0  # atno 10763 bound_to 10752
  153.8273  135.3122  155.3417 H   0  0  0  0  0  0  0  0  0  0  0  0  # atno 10764 bound_to 10752
  154.7877  135.4853  154.0069 H   0  0  0  0  0  0  0  0  0  0  0  0  # atno 10765 bound_to 10752
  140.0003  134.9481  157.0056 H   0  0  0  0  0  0  0  0  0  0  0  0  # atno 11005 bound_to 11000
  144.7185  140.4292  143.7026 LP  0  0  0  0  0  0  0  0  0  0  0  0  # atno 17320 bound_to 7965
  145.6529  139.1568  143.2851 LP  0  0  0  0  0  0  0  0  0  0  0  0  # atno 17321 bound_to 7965
  139.8860  144.6991  150.8823 LP  0  0  0  0  0  0  0  0  0  0  0  0  # atno 17342 bound_to 10162
  140.7752  143.3623  151.1805 LP  0  0  0  0  0  0  0  0  0  0  0  0  # atno 17343 bound_to 10162
  157.4738  130.7724  149.7348 LP  0  0  0  0  0  0  0  0  0  0  0  0  # atno 17370 bound_to 10713
  155.9903  130.3945  150.3033 LP  0  0  0  0  0  0  0  0  0  0  0  0  # atno 17371 bound_to 10713
  140.4741  134.1356  155.7207 LP  0  0  0  0  0  0  0  0  0  0  0  0  # atno 17394 bound_to 11000
  141.1636  133.8745  157.1778 LP  0  0  0  0  0  0  0  0  0  0  0  0  # atno 17395 bound_to 11000

$$$$
