AV-unprocessed.smi:1830|AV-procd|sdf|7436|dock8
  -GOLD-   22720 9123D 1   1.00000     0.00000
 Structure written by MMmdl.
 53 56  0  0  0  0  0  0  0  0  2 V2000
  146.8537  138.4485  155.1521 O   0  0  0  0  0  0  0  0  0  0  0  0
  147.3162  137.9071  154.1481 C   0  0  0  0  0  0  0  0  0  0  0  0
  146.6007  137.1151  153.3372 N   0  0  0  0  0  0  0  0  0  0  0  0
  145.1975  136.7654  153.5308 C   0  0  0  0  0  0  0  0  0  0  0  0
  144.9519  135.2611  153.3174 C   0  0  2  0  0  0  0  0  0  0  0  0
  145.5645  134.4168  154.4471 C   0  0  0  0  0  0  0  0  0  0  0  0
  145.3617  132.9639  154.2145 N   0  3  2  0  0  0  0  0  0  0  0  0
  146.1876  132.1314  155.1164 C   0  0  0  0  0  0  0  0  0  0  0  0
  147.4548  131.7525  154.3280 C   0  0  0  0  0  0  0  0  0  0  0  0
  147.2326  132.2794  152.9055 C   0  0  0  0  0  0  0  0  0  0  0  0
  145.7269  132.5387  152.8457 C   0  0  2  0  0  0  0  0  0  0  0  0
  145.2541  133.5221  151.7564 C   0  0  0  0  0  0  0  0  0  0  0  0
  145.5760  134.8599  152.1043 O   0  0  0  0  0  0  0  0  0  0  0  0
  148.5895  138.0035  153.7317 N   0  0  0  0  0  0  0  0  0  0  0  0
  149.6683  138.6919  154.3552 C   0  0  0  0  0  0  0  0  0  0  0  0
  150.9741  138.1447  154.3972 C   0  0  0  0  0  0  0  0  0  0  0  0
  152.0085  138.8742  155.0079 C   0  0  0  0  0  0  0  0  0  0  0  0
  151.7005  140.1283  155.5605 C   0  0  0  0  0  0  0  0  0  0  0  0
  150.4594  140.6540  155.5468 N   0  0  0  0  0  0  0  0  0  0  0  0
  149.4477  139.9553  154.9752 C   0  0  0  0  0  0  0  0  0  0  0  0
  148.1636  140.5457  155.0098 N   0  0  0  0  0  0  0  0  0  0  0  0
  147.7903  141.5639  154.0336 C   0  0  0  0  0  0  0  0  0  0  0  0
  146.5468  142.2310  154.6145 C   0  0  0  0  0  0  0  0  0  0  0  0
  146.8380  142.2114  156.1117 C   0  0  0  0  0  0  0  0  0  0  0  0
  147.6105  140.9036  156.3125 C   0  0  0  0  0  0  0  0  0  0  0  0
  147.0638  136.7149  152.5343 H   0  0  0  0  0  0  0  0  0  0  0  0
  144.8507  137.0789  154.5170 H   0  0  0  0  0  0  0  0  0  0  0  0
  144.6175  137.3376  152.8061 H   0  0  0  0  0  0  0  0  0  0  0  0
  143.8760  135.0824  153.2636 H   0  0  0  0  0  0  0  0  0  0  0  0
  146.6318  134.6336  154.5214 H   0  0  0  0  0  0  0  0  0  0  0  0
  145.1205  134.6866  155.4061 H   0  0  0  0  0  0  0  0  0  0  0  0
  146.4137  132.6312  156.0597 H   0  0  0  0  0  0  0  0  0  0  0  0
  145.6246  131.2289  155.3571 H   0  0  0  0  0  0  0  0  0  0  0  0
  148.3491  132.1941  154.7687 H   0  0  0  0  0  0  0  0  0  0  0  0
  147.5898  130.6703  154.3266 H   0  0  0  0  0  0  0  0  0  0  0  0
  147.7823  133.2114  152.7668 H   0  0  0  0  0  0  0  0  0  0  0  0
  147.5677  131.5790  152.1400 H   0  0  0  0  0  0  0  0  0  0  0  0
  145.2394  131.5785  152.6686 H   0  0  0  0  0  0  0  0  0  0  0  0
  145.7166  133.2788  150.7996 H   0  0  0  0  0  0  0  0  0  0  0  0
  144.1761  133.4372  151.6105 H   0  0  0  0  0  0  0  0  0  0  0  0
  148.8449  137.4259  152.9444 H   0  0  0  0  0  0  0  0  0  0  0  0
  151.1969  137.1755  153.9778 H   0  0  0  0  0  0  0  0  0  0  0  0
  153.0138  138.4818  155.0499 H   0  0  0  0  0  0  0  0  0  0  0  0
  152.4682  140.7225  156.0332 H   0  0  0  0  0  0  0  0  0  0  0  0
  148.5812  142.3070  153.9246 H   0  0  0  0  0  0  0  0  0  0  0  0
  147.5951  141.1239  153.0552 H   0  0  0  0  0  0  0  0  0  0  0  0
  146.3802  143.2348  154.2237 H   0  0  0  0  0  0  0  0  0  0  0  0
  145.6631  141.6290  154.3981 H   0  0  0  0  0  0  0  0  0  0  0  0
  147.4756  143.0579  156.3703 H   0  0  0  0  0  0  0  0  0  0  0  0
  145.9371  142.2699  156.7229 H   0  0  0  0  0  0  0  0  0  0  0  0
  146.9272  140.1160  156.6309 H   0  0  0  0  0  0  0  0  0  0  0  0
  148.3841  141.0110  157.0740 H   0  0  0  0  0  0  0  0  0  0  0  0
  144.3837  132.7650  154.3701 H   0  0  0  0  0  0  0  0  0  0  0  0
  1  2  2  0  0  0  0
  2  3  1  0  0  0  0
  2 14  1  0  0  0  0
  3  4  1  0  0  0  0
  3 26  1  0  0  0  0
  4  5  1  0  0  0  0
  4 27  1  0  0  0  0
  4 28  1  0  0  0  0
  5 13  1  0  0  0  0
  5  6  1  0  0  0  0
  5 29  1  0  0  0  0
  6  7  1  0  0  0  0
  6 30  1  0  0  0  0
  6 31  1  0  0  0  0
  7 11  1  0  0  0  0
  7  8  1  0  0  0  0
  7 53  1  0  0  0  0
  8  9  1  0  0  0  0
  8 32  1  0  0  0  0
  8 33  1  0  0  0  0
  9 10  1  0  0  0  0
  9 34  1  0  0  0  0
  9 35  1  0  0  0  0
 10 11  1  0  0  0  0
 10 36  1  0  0  0  0
 10 37  1  0  0  0  0
 11 12  1  0  0  0  0
 11 38  1  0  0  0  0
 12 13  1  0  0  0  0
 12 39  1  0  0  0  0
 12 40  1  0  0  0  0
 14 15  1  0  0  0  0
 14 41  1  0  0  0  0
 15 20  1  0  0  0  0
 15 16  2  0  0  0  0
 16 17  1  0  0  0  0
 16 42  1  0  0  0  0
 17 18  2  0  0  0  0
 17 43  1  0  0  0  0
 18 19  1  0  0  0  0
 18 44  1  0  0  0  0
 19 20  2  0  0  0  0
 20 21  1  0  0  0  0
 21 25  1  0  0  0  0
 21 22  1  0  0  0  0
 22 23  1  0  0  0  0
 22 45  1  0  0  0  0
 22 46  1  0  0  0  0
 23 24  1  0  0  0  0
 23 47  1  0  0  0  0
 23 48  1  0  0  0  0
 24 25  1  0  0  0  0
 24 49  1  0  0  0  0
 24 50  1  0  0  0  0
 25 51  1  0  0  0  0
 25 52  1  0  0  0  0
M  CHG  1   7   1
M  END
> <s_m_source_file>
AV-unprocessed.smi

> <i_m_source_file_index>
1830

> <i_lp_mmshare_version>
43012

> <i_f3d_flags>
0

> <s_epik_input>
W0NIMl0xW0NIMl1bQ0gyXVtDQEhdKE4xMilbQ0gyXU9bQ0BASF0oW0NIMl0yKVtDSDJdW05IXUMoPU8pW05IXWMzW2NIXVtjSF1bY0hdbmMzTjRbQ0gyXVtDSDJdW0NIMl1bQ0gyXTQ=

> <s_epik_cmdline>
J2VwaWtfcHl0aG9uJywgJy1waCcsICc3LjAnLCAnLXRuJywgJzgnLCAnLW1hJywgJzIwMCcsICctbWV0YWxfYmluZGluZycsICctaW1hZScsICc8aW5maWxlLm1hZT4nLCAnLW9tYWUnLCAnPG91dGZpbGUubWFlPic=

> <r_lp_tautomer_probability>
1

> <r_epik_Ionization_Penalty>
0.193547

> <r_epik_Ionization_Penalty_Charging>
0.10673

> <r_epik_Ionization_Penalty_Neutral>
0.0868166

> <r_epik_State_Penalty>
0.173595

> <r_epik_Charging_Adjusted_Penalty>
0.280326

> <i_epik_Tot_Q>
1

> <i_epik_Tot_abs_Q>
1

> <r_epik_Metal_State_Penalty>
0.164683

> <b_epik_Metal_Only>
0

> <s_lp_Force_Field>
OPLS_2005

> <r_lp_Energy>
65.0875

> <b_lp_Chiralities_Consistent>
1

> <s_lp_Variant>
AV-unprocessed.smi:1830-5

> <Gold.Version>
5.8.1

> <Gold.Id.Protein>
6NUR|6NUR_protein|mol2

> <Gold.PLP.Fitness>
42.3298

> <Gold.PLP.PLP>
-32.9838

> <Gold.PLP.part.hbond>
-3.3120

> <Gold.PLP.part.metal>
0.0000

> <Gold.PLP.part.buried>
-5.4650

> <Gold.PLP.part.nonpolar>
-26.1961

> <Gold.PLP.part.repulsive>
0.3206

> <Gold.PLP.ligand.clash>
0.9257

> <Gold.PLP.ligand.torsion>
0.7767

> <Gold.PLP.Chemscore.Hbond>
3.8320

> <Gold.PLP.Chemscore.CHOScore>
0.0000

> <Gold.PLP.Chemscore.Metal>
0.0000

> <Gold.Chemscore.Hbonds>
donor molecule, donor type, donor heavy atom, donor atom, acceptor molecule, acceptor atom, score
      L1  H     3    26       P1  7948  0.78
      L1  H     7    53       P1 10957  2.00
      L1  H    14    41       P1  7948  1.00

> <Gold.PLP.Chemscore.Internal.Correction>
0.3291

> <Gold.Rescore>
     Score         DG    S(hbond)    S(metal)    S(lipo)     H(rot)  DE(clash)    DE(int)     intcor
     13.24     -19.69       2.79        0.00      72.54       1.41       0.10       6.34       ----

> <Gold.Chemscore.Fitness>
13.2437

> <Gold.Chemscore.DG>
-19.6866

> <Gold.Chemscore.ZeroCoef>
-5.4800

> <Gold.Chemscore.Hbond>
2.7904

> <Gold.Chemscore.Metal>
0.0000

> <Gold.Chemscore.Lipo>
72.5449

> <Gold.Chemscore.Internal_Hbond>
0.0000

> <Gold.Chemscore.DEClash>
0.1007

> <Gold.Chemscore.DEInternal>
6.3421

> <Gold.Chemscore.Rot>
1.4067

> <Gold.Chemscore.Internal.Correction>
   9.000000E+99

> <Gold.Chemscore.Hbonds>
donor molecule, donor type, donor heavy atom, donor atom, acceptor molecule, acceptor atom, score
      L1  H     3    26       P1  7948  0.73
      L1  H     7    53       P1 10957  0.89
      L1  H    14    41       P1  7948  0.98

> <Gold.Chemscore.Hbond.Weighted>
-9.3199

> <Gold.Chemscore.Metal.Weighted>
-0.0000

> <Gold.Chemscore.Lipo.Weighted>
-8.4878

> <Gold.Chemscore.Internal_Hbond.Weighted>
0.0000

> <Gold.Chemscore.DEClash.Weighted>
0.1007

> <Gold.Chemscore.DEInternal.Weighted>
6.3421

> <Gold.Chemscore.Rot.Weighted>
3.6011

> <Gold.Chemscore.Internal.Correction.Weighted>
   9.000000E+99

> <Gold.Protein.RotatedTorsions>
[ 6907 6896 6895 6894 ] final  156.37 input  -60.11 | X-H torsion
[ 7974 7965 7964 7962 ] final  -59.66 input  175.53 | X-H torsion
[ 8008 7997 7996 7995 ] final  124.94 input   59.86 | X-H torsion
[ 10167 10162 10161 10158 ] final   72.64 input  -65.29 | X-H torsion
[ 10718 10713 10712 10709 ] final   15.39 input   66.30 | X-H torsion
[ 10763 10752 10751 10750 ] final  150.39 input  -60.55 | X-H torsion
[ 11005 11000 10999 10996 ] final  -16.84 input  -57.11 | X-H torsion

> <Gold.Protein.ActiveResidues>
 VAL166  LYS551  ARG553  GLY616  TRP617  ASP618  TYR619  PRO620  LYS621  CYS622 
 ASP623  PHE694  ASN695  SER759  ASP760  ASP761  ALA762  ILE779  LEU786  VAL792 
 PHE793  MET794  SER795  GLU796  ALA797  LYS798  CYS799  TRP800  GLU811  SER814 

> <Gold.Protein.RotatedAtoms>
  152.0307  133.3936  159.4295 H   0  0  0  0  0  0  0  0  0  0  0  0  # atno 6907 bound_to 6896
  150.6882  134.3524  159.4924 H   0  0  0  0  0  0  0  0  0  0  0  0  # atno 6908 bound_to 6896
  152.1310  134.9134  160.0609 H   0  0  0  0  0  0  0  0  0  0  0  0  # atno 6909 bound_to 6896
  145.8248  140.8517  143.0114 H   0  0  0  0  0  0  0  0  0  0  0  0  # atno 7974 bound_to 7965
  156.2818  140.2728  156.1868 H   0  0  0  0  0  0  0  0  0  0  0  0  # atno 8008 bound_to 7997
  155.0499  140.0386  157.2558 H   0  0  0  0  0  0  0  0  0  0  0  0  # atno 8009 bound_to 7997
  154.7204  140.2686  155.6552 H   0  0  0  0  0  0  0  0  0  0  0  0  # atno 8010 bound_to 7997
  140.0331  144.5450  150.7492 H   0  0  0  0  0  0  0  0  0  0  0  0  # atno 10167 bound_to 10162
  157.0528  130.6277  149.5771 H   0  0  0  0  0  0  0  0  0  0  0  0  # atno 10718 bound_to 10713
  154.0867  135.2855  155.3280 H   0  0  0  0  0  0  0  0  0  0  0  0  # atno 10763 bound_to 10752
  154.6648  135.5321  153.8066 H   0  0  0  0  0  0  0  0  0  0  0  0  # atno 10764 bound_to 10752
  153.0429  135.6543  154.1038 H   0  0  0  0  0  0  0  0  0  0  0  0  # atno 10765 bound_to 10752
  140.8108  133.8142  155.9562 H   0  0  0  0  0  0  0  0  0  0  0  0  # atno 11005 bound_to 11000
  144.6744  140.0586  143.7477 LP  0  0  0  0  0  0  0  0  0  0  0  0  # atno 17320 bound_to 7965
  145.9635  139.2818  143.1141 LP  0  0  0  0  0  0  0  0  0  0  0  0  # atno 17321 bound_to 7965
  140.7293  143.2671  151.4008 LP  0  0  0  0  0  0  0  0  0  0  0  0  # atno 17342 bound_to 10162
  139.6063  144.1190  152.2252 LP  0  0  0  0  0  0  0  0  0  0  0  0  # atno 17343 bound_to 10162
  156.0002  130.5080  150.7635 LP  0  0  0  0  0  0  0  0  0  0  0  0  # atno 17370 bound_to 10713
  157.5016  131.0919  151.0307 LP  0  0  0  0  0  0  0  0  0  0  0  0  # atno 17371 bound_to 10713
  140.9199  134.2154  157.4933 LP  0  0  0  0  0  0  0  0  0  0  0  0  # atno 17394 bound_to 11000
  139.8714  134.9788  156.5010 LP  0  0  0  0  0  0  0  0  0  0  0  0  # atno 17395 bound_to 11000

$$$$
