AV-unprocessed.smi:2410|AV-procd|sdf|9528|dock2
  -GOLD-   2272013163D 1   1.00000     0.00000
 Structure written by MMmdl.
 47 49  0  0  0  0  0  0  0  0  2 V2000
  152.1408  144.8648  160.3939 C   0  0  0  0  0  0  0  0  0  0  0  0
  151.9567  143.6833  159.4567 C   0  0  0  0  0  0  0  0  0  0  0  0
  151.2001  143.8692  158.2772 C   0  0  0  0  0  0  0  0  0  0  0  0
  151.0519  142.7705  157.4386 C   0  0  0  0  0  0  0  0  0  0  0  0
  150.3803  142.6287  156.2217 N   0  3  0  0  0  0  0  0  0  0  0  0
  150.5220  141.3512  155.7700 C   0  0  0  0  0  0  0  0  0  0  0  0
  151.2732  140.6764  156.6818 N   0  0  0  0  0  0  0  0  0  0  0  0
  151.7311  139.2818  156.6920 C   0  0  0  0  0  0  0  0  0  0  0  0
  151.0671  138.4521  157.8084 C   0  0  2  0  0  0  0  0  0  0  0  0
  152.0792  137.7352  158.4881 O   0  0  0  0  0  0  0  0  0  0  0  0
  150.0305  137.4533  157.2488 C   0  0  0  0  0  0  0  0  0  0  0  0
  149.1281  136.9553  158.2996 N   0  0  0  0  0  0  0  0  0  0  0  0
  148.3709  137.9216  158.9810 C   0  0  0  0  0  0  0  0  0  0  0  0
  147.5450  137.5972  159.9214 N   0  0  0  0  0  0  0  0  0  0  0  0
  147.3865  136.2547  160.2782 C   0  0  0  0  0  0  0  0  0  0  0  0
  146.3971  135.9863  161.3984 C   0  0  0  0  0  0  0  0  0  0  0  0
  148.0821  135.2687  159.6483 C   0  0  0  0  0  0  0  0  0  0  0  0
  147.9510  133.7905  159.9936 C   0  0  0  0  0  0  0  0  0  0  0  0
  149.0204  135.6219  158.5709 C   0  0  0  0  0  0  0  0  0  0  0  0
  149.6672  134.7804  157.9430 O   0  0  0  0  0  0  0  0  0  0  0  0
  151.6245  141.5203  157.7402 C   0  0  0  0  0  0  0  0  0  0  0  0
  152.3708  141.3184  158.8986 C   0  0  0  0  0  0  0  0  0  0  0  0
  152.5345  142.4237  159.7633 C   0  0  0  0  0  0  0  0  0  0  0  0
  153.3486  142.2347  161.0321 C   0  0  0  0  0  0  0  0  0  0  0  0
  151.6549  145.7609  160.0066 H   0  0  0  0  0  0  0  0  0  0  0  0
  153.1996  145.0904  160.5236 H   0  0  0  0  0  0  0  0  0  0  0  0
  151.7099  144.6484  161.3717 H   0  0  0  0  0  0  0  0  0  0  0  0
  150.7578  144.8250  158.0373 H   0  0  0  0  0  0  0  0  0  0  0  0
  150.1162  140.9486  154.8531 H   0  0  0  0  0  0  0  0  0  0  0  0
  151.5215  138.8540  155.7108 H   0  0  0  0  0  0  0  0  0  0  0  0
  152.8162  139.2847  156.8041 H   0  0  0  0  0  0  0  0  0  0  0  0
  150.5942  139.1301  158.5195 H   0  0  0  0  0  0  0  0  0  0  0  0
  152.6381  137.3226  157.8474 H   0  0  0  0  0  0  0  0  0  0  0  0
  149.4192  137.9461  156.4903 H   0  0  0  0  0  0  0  0  0  0  0  0
  150.5238  136.6455  156.7041 H   0  0  0  0  0  0  0  0  0  0  0  0
  148.5263  138.9531  158.6603 H   0  0  0  0  0  0  0  0  0  0  0  0
  146.8954  135.5085  162.2422 H   0  0  0  0  0  0  0  0  0  0  0  0
  145.5942  135.3352  161.0515 H   0  0  0  0  0  0  0  0  0  0  0  0
  145.9442  136.9113  161.7579 H   0  0  0  0  0  0  0  0  0  0  0  0
  147.6258  133.2268  159.1185 H   0  0  0  0  0  0  0  0  0  0  0  0
  147.2351  133.5981  160.7911 H   0  0  0  0  0  0  0  0  0  0  0  0
  148.9145  133.3926  160.3144 H   0  0  0  0  0  0  0  0  0  0  0  0
  152.8125  140.3597  159.1296 H   0  0  0  0  0  0  0  0  0  0  0  0
  153.6924  141.2050  161.1360 H   0  0  0  0  0  0  0  0  0  0  0  0
  152.7511  142.4755  161.9116 H   0  0  0  0  0  0  0  0  0  0  0  0
  154.2274  142.8797  161.0217 H   0  0  0  0  0  0  0  0  0  0  0  0
  149.8648  143.3492  155.7322 H   0  0  0  0  0  0  0  0  0  0  0  0
  1  2  1  0  0  0  0
  1 25  1  0  0  0  0
  1 26  1  0  0  0  0
  1 27  1  0  0  0  0
  2 23  1  0  0  0  0
  2  3  2  0  0  0  0
  3  4  1  0  0  0  0
  3 28  1  0  0  0  0
  4 21  2  0  0  0  0
  4  5  1  0  0  0  0
  5  6  2  0  0  0  0
  5 47  1  0  0  0  0
  6  7  1  0  0  0  0
  6 29  1  0  0  0  0
  7  8  1  0  0  0  0
  7 21  1  0  0  0  0
  8  9  1  0  0  0  0
  8 30  1  0  0  0  0
  8 31  1  0  0  0  0
  9 10  1  0  0  0  0
  9 11  1  0  0  0  0
  9 32  1  0  0  0  0
 10 33  1  0  0  0  0
 11 12  1  0  0  0  0
 11 34  1  0  0  0  0
 11 35  1  0  0  0  0
 12 19  1  0  0  0  0
 12 13  1  0  0  0  0
 13 14  2  0  0  0  0
 13 36  1  0  0  0  0
 14 15  1  0  0  0  0
 15 16  1  0  0  0  0
 15 17  2  0  0  0  0
 16 37  1  0  0  0  0
 16 38  1  0  0  0  0
 16 39  1  0  0  0  0
 17 18  1  0  0  0  0
 17 19  1  0  0  0  0
 18 40  1  0  0  0  0
 18 41  1  0  0  0  0
 18 42  1  0  0  0  0
 19 20  2  0  0  0  0
 21 22  1  0  0  0  0
 22 23  2  0  0  0  0
 22 43  1  0  0  0  0
 23 24  1  0  0  0  0
 24 44  1  0  0  0  0
 24 45  1  0  0  0  0
 24 46  1  0  0  0  0
M  CHG  1   5   1
M  END
> <s_m_source_file>
AV-unprocessed.smi

> <i_m_source_file_index>
2410

> <i_lp_mmshare_version>
43012

> <i_f3d_flags>
0

> <s_epik_input>
W0NIM11jKFtjSF0xKWMoW0NIM10pW2NIXWMoYzEyKW4oW2NIXW4yKVtDSDJdW0NASF0oW09IXSlbQ0gyXW4zW2NIXW5jKFtDSDNdKWMoW0NIM10pYzM9Tw==

> <s_epik_cmdline>
J2VwaWtfcHl0aG9uJywgJy1waCcsICc3LjAnLCAnLXRuJywgJzgnLCAnLW1hJywgJzIwMCcsICctbWV0YWxfYmluZGluZycsICctaW1hZScsICc8aW5maWxlLm1hZT4nLCAnLW9tYWUnLCAnPG91dGZpbGUubWFlPic=

> <r_lp_tautomer_probability>
1

> <r_epik_Ionization_Penalty>
1.03571

> <r_epik_Ionization_Penalty_Charging>
1.03568

> <r_epik_Ionization_Penalty_Neutral>
3.18232e-05

> <r_epik_State_Penalty>
1.08724

> <r_epik_Charging_Adjusted_Penalty>
2.12292

> <i_epik_Tot_Q>
1

> <i_epik_Tot_abs_Q>
1

> <r_epik_Metal_State_Penalty>
1.18374

> <b_epik_Metal_Only>
0

> <s_lp_Force_Field>
OPLS_2005

> <r_lp_Energy>
24.5371

> <b_lp_Chiralities_Consistent>
1

> <s_lp_Variant>
AV-unprocessed.smi:2410-3

> <Gold.Version>
5.8.1

> <Gold.Id.Protein>
6NUR|6NUR_protein|mol2

> <Gold.PLP.Fitness>
50.9805

> <Gold.PLP.PLP>
-41.3523

> <Gold.PLP.part.hbond>
-3.2397

> <Gold.PLP.part.metal>
0.0000

> <Gold.PLP.part.buried>
-3.8721

> <Gold.PLP.part.nonpolar>
-35.4576

> <Gold.PLP.part.repulsive>
0.1125

> <Gold.PLP.ligand.clash>
0.0000

> <Gold.PLP.ligand.torsion>
0.8753

> <Gold.PLP.Chemscore.Hbond>
3.7760

> <Gold.PLP.Chemscore.CHOScore>
0.0000

> <Gold.PLP.Chemscore.Metal>
0.0000

> <Gold.Chemscore.Hbonds>
donor molecule, donor type, donor heavy atom, donor atom, acceptor molecule, acceptor atom, score
      L1  H     5    47       P1  8028  2.00
      P1  H  6896  6909       L1    20  0.98
      P1  H  6934  6947       L1    14  0.82

> <Gold.PLP.Chemscore.Internal.Correction>
0.0509

> <Gold.Rescore>
     Score         DG    S(hbond)    S(metal)    S(lipo)     H(rot)  DE(clash)    DE(int)     intcor
     19.10     -20.14       2.28        0.00     112.94       2.41       0.14       0.90       ----

> <Gold.Chemscore.Fitness>
19.1035

> <Gold.Chemscore.DG>
-20.1433

> <Gold.Chemscore.ZeroCoef>
-5.4800

> <Gold.Chemscore.Hbond>
2.2773

> <Gold.Chemscore.Metal>
0.0000

> <Gold.Chemscore.Lipo>
112.9441

> <Gold.Chemscore.Internal_Hbond>
0.0000

> <Gold.Chemscore.DEClash>
0.1363

> <Gold.Chemscore.DEInternal>
0.9035

> <Gold.Chemscore.Rot>
2.4052

> <Gold.Chemscore.Internal.Correction>
   9.000000E+99

> <Gold.Chemscore.Hbonds>
donor molecule, donor type, donor heavy atom, donor atom, acceptor molecule, acceptor atom, score
      L1  H     5    47       P1  8028  0.97
      P1  H  6896  6909       L1    20  0.24
      P1  H  6934  6947       L1    14  0.56

> <Gold.Chemscore.Hbond.Weighted>
-7.6062

> <Gold.Chemscore.Metal.Weighted>
-0.0000

> <Gold.Chemscore.Lipo.Weighted>
-13.2145

> <Gold.Chemscore.Internal_Hbond.Weighted>
0.0000

> <Gold.Chemscore.DEClash.Weighted>
0.1363

> <Gold.Chemscore.DEInternal.Weighted>
0.9035

> <Gold.Chemscore.Rot.Weighted>
6.1573

> <Gold.Chemscore.Internal.Correction.Weighted>
   9.000000E+99

> <Gold.Protein.RotatedTorsions>
[ 6907 6896 6895 6894 ] final   16.18 input  -60.11 | X-H torsion
[ 7974 7965 7964 7962 ] final  -74.71 input  175.53 | X-H torsion
[ 8008 7997 7996 7995 ] final  -18.49 input   59.86 | X-H torsion
[ 10167 10162 10161 10158 ] final    8.04 input  -65.29 | X-H torsion
[ 10718 10713 10712 10709 ] final -145.80 input   66.30 | X-H torsion
[ 10763 10752 10751 10750 ] final  111.26 input  -60.55 | X-H torsion
[ 11005 11000 10999 10996 ] final   24.09 input  -57.11 | X-H torsion

> <Gold.Protein.ActiveResidues>
 VAL166  LYS551  ARG553  GLY616  TRP617  ASP618  TYR619  PRO620  LYS621  CYS622 
 ASP623  PHE694  ASN695  SER759  ASP760  ASP761  ALA762  ILE779  LEU786  VAL792 
 PHE793  MET794  SER795  GLU796  ALA797  LYS798  CYS799  TRP800  GLU811  SER814 

> <Gold.Protein.RotatedAtoms>
  151.8298  135.0625  160.0435 H   0  0  0  0  0  0  0  0  0  0  0  0  # atno 6907 bound_to 6896
  152.2889  133.5537  159.5553 H   0  0  0  0  0  0  0  0  0  0  0  0  # atno 6908 bound_to 6896
  150.7221  134.0374  159.3796 H   0  0  0  0  0  0  0  0  0  0  0  0  # atno 6909 bound_to 6896
  145.6356  140.9325  143.1063 H   0  0  0  0  0  0  0  0  0  0  0  0  # atno 7974 bound_to 7965
  154.4902  140.2114  155.9564 H   0  0  0  0  0  0  0  0  0  0  0  0  # atno 8008 bound_to 7997
  156.1295  140.3199  155.8296 H   0  0  0  0  0  0  0  0  0  0  0  0  # atno 8009 bound_to 7997
  155.4323  140.0504  157.3008 H   0  0  0  0  0  0  0  0  0  0  0  0  # atno 8010 bound_to 7997
  140.6337  143.7935  150.7330 H   0  0  0  0  0  0  0  0  0  0  0  0  # atno 10167 bound_to 10162
  156.3870  130.7866  151.2064 H   0  0  0  0  0  0  0  0  0  0  0  0  # atno 10718 bound_to 10713
  153.4607  135.3722  155.2337 H   0  0  0  0  0  0  0  0  0  0  0  0  # atno 10763 bound_to 10752
  154.8757  135.3908  154.3928 H   0  0  0  0  0  0  0  0  0  0  0  0  # atno 10764 bound_to 10752
  153.4501  135.7085  153.6179 H   0  0  0  0  0  0  0  0  0  0  0  0  # atno 10765 bound_to 10752
  140.3625  134.2110  155.7671 H   0  0  0  0  0  0  0  0  0  0  0  0  # atno 11005 bound_to 11000
  144.7177  139.8139  143.7393 LP  0  0  0  0  0  0  0  0  0  0  0  0  # atno 17320 bound_to 7965
  146.1322  139.4360  143.0161 LP  0  0  0  0  0  0  0  0  0  0  0  0  # atno 17321 bound_to 7965
  140.1552  143.4323  152.2104 LP  0  0  0  0  0  0  0  0  0  0  0  0  # atno 17342 bound_to 10162
  139.5549  144.7365  151.4324 LP  0  0  0  0  0  0  0  0  0  0  0  0  # atno 17343 bound_to 10162
  157.7496  131.0327  150.4238 LP  0  0  0  0  0  0  0  0  0  0  0  0  # atno 17370 bound_to 10713
  156.4493  130.4008  149.6646 LP  0  0  0  0  0  0  0  0  0  0  0  0  # atno 17371 bound_to 10713
  141.1980  133.8047  157.0604 LP  0  0  0  0  0  0  0  0  0  0  0  0  # atno 17394 bound_to 11000
  140.0615  134.9752  157.1313 LP  0  0  0  0  0  0  0  0  0  0  0  0  # atno 17395 bound_to 11000

$$$$
