AV-unprocessed.smi:2410|AV-procd|sdf|9527|dock3
  -GOLD-   2272013153D 1   1.00000     0.00000
 Structure written by MMmdl.
 46 48  0  0  0  0  0  0  0  0  1 V2000
  151.6047  144.7599  158.4400 C   0  0  0  0  0  0  0  0  0  0  0  0
  151.6542  143.2701  158.1504 C   0  0  0  0  0  0  0  0  0  0  0  0
  151.2402  142.8025  156.8825 C   0  0  0  0  0  0  0  0  0  0  0  0
  151.2679  141.4247  156.5743 C   0  0  0  0  0  0  0  0  0  0  0  0
  150.9134  140.7543  155.4157 N   0  0  0  0  0  0  0  0  0  0  0  0
  151.1626  139.4912  155.7502 C   0  0  0  0  0  0  0  0  0  0  0  0
  151.6367  139.2643  156.9902 N   0  0  0  0  0  0  0  0  0  0  0  0
  151.9835  137.9855  157.5825 C   0  0  0  0  0  0  0  0  0  0  0  0
  151.6746  136.8038  156.6431 C   0  0  1  0  0  0  0  0  0  0  0  0
  152.8250  135.9838  156.5668 O   0  0  0  0  0  0  0  0  0  0  0  0
  150.4907  135.9563  157.1570 C   0  0  0  0  0  0  0  0  0  0  0  0
  150.0907  134.9219  156.1888 N   0  0  0  0  0  0  0  0  0  0  0  0
  149.1665  135.3127  155.2065 C   0  0  0  0  0  0  0  0  0  0  0  0
  148.7528  134.4908  154.2982 N   0  0  0  0  0  0  0  0  0  0  0  0
  149.2207  133.1736  154.2839 C   0  0  0  0  0  0  0  0  0  0  0  0
  148.6751  132.2957  153.1716 C   0  0  0  0  0  0  0  0  0  0  0  0
  150.1053  132.7276  155.2175 C   0  0  0  0  0  0  0  0  0  0  0  0
  150.6443  131.3031  155.2564 C   0  0  0  0  0  0  0  0  0  0  0  0
  150.5838  133.6513  156.2587 C   0  0  0  0  0  0  0  0  0  0  0  0
  151.3763  133.3133  157.1406 O   0  0  0  0  0  0  0  0  0  0  0  0
  151.7260  140.5212  157.5769 C   0  0  0  0  0  0  0  0  0  0  0  0
  152.1420  140.9739  158.8414 C   0  0  0  0  0  0  0  0  0  0  0  0
  152.1058  142.3533  159.1337 C   0  0  0  0  0  0  0  0  0  0  0  0
  152.5523  142.8319  160.5038 C   0  0  0  0  0  0  0  0  0  0  0  0
  151.2844  145.3254  157.5646 H   0  0  0  0  0  0  0  0  0  0  0  0
  152.5892  145.1267  158.7311 H   0  0  0  0  0  0  0  0  0  0  0  0
  150.9038  144.9678  159.2487 H   0  0  0  0  0  0  0  0  0  0  0  0
  150.8955  143.5003  156.1337 H   0  0  0  0  0  0  0  0  0  0  0  0
  150.9889  138.6837  155.0539 H   0  0  0  0  0  0  0  0  0  0  0  0
  153.0390  137.9955  157.8589 H   0  0  0  0  0  0  0  0  0  0  0  0
  151.4185  137.8858  158.5099 H   0  0  0  0  0  0  0  0  0  0  0  0
  151.4587  137.1928  155.6473 H   0  0  0  0  0  0  0  0  0  0  0  0
  152.8929  135.4846  157.3662 H   0  0  0  0  0  0  0  0  0  0  0  0
  150.7129  135.5411  158.1424 H   0  0  0  0  0  0  0  0  0  0  0  0
  149.6290  136.6034  157.3312 H   0  0  0  0  0  0  0  0  0  0  0  0
  148.8253  136.3477  155.2670 H   0  0  0  0  0  0  0  0  0  0  0  0
  149.4863  131.9236  152.5454 H   0  0  0  0  0  0  0  0  0  0  0  0
  147.9864  132.8481  152.5310 H   0  0  0  0  0  0  0  0  0  0  0  0
  148.1346  131.4444  153.5866 H   0  0  0  0  0  0  0  0  0  0  0  0
  150.3798  130.8270  156.2012 H   0  0  0  0  0  0  0  0  0  0  0  0
  151.7316  131.3099  155.1739 H   0  0  0  0  0  0  0  0  0  0  0  0
  150.2590  130.6758  154.4544 H   0  0  0  0  0  0  0  0  0  0  0  0
  152.4823  140.2637  159.5809 H   0  0  0  0  0  0  0  0  0  0  0  0
  152.8475  141.9973  161.1404 H   0  0  0  0  0  0  0  0  0  0  0  0
  151.7438  143.3645  161.0051 H   0  0  0  0  0  0  0  0  0  0  0  0
  153.4071  143.5024  160.4145 H   0  0  0  0  0  0  0  0  0  0  0  0
  1  2  1  0  0  0  0
  1 25  1  0  0  0  0
  1 26  1  0  0  0  0
  1 27  1  0  0  0  0
  2 23  1  0  0  0  0
  2  3  2  0  0  0  0
  3  4  1  0  0  0  0
  3 28  1  0  0  0  0
  4 21  2  0  0  0  0
  4  5  1  0  0  0  0
  5  6  2  0  0  0  0
  6  7  1  0  0  0  0
  6 29  1  0  0  0  0
  7  8  1  0  0  0  0
  7 21  1  0  0  0  0
  8  9  1  0  0  0  0
  8 30  1  0  0  0  0
  8 31  1  0  0  0  0
  9 10  1  0  0  0  0
  9 11  1  0  0  0  0
  9 32  1  0  0  0  0
 10 33  1  0  0  0  0
 11 12  1  0  0  0  0
 11 34  1  0  0  0  0
 11 35  1  0  0  0  0
 12 19  1  0  0  0  0
 12 13  1  0  0  0  0
 13 14  2  0  0  0  0
 13 36  1  0  0  0  0
 14 15  1  0  0  0  0
 15 16  1  0  0  0  0
 15 17  2  0  0  0  0
 16 37  1  0  0  0  0
 16 38  1  0  0  0  0
 16 39  1  0  0  0  0
 17 18  1  0  0  0  0
 17 19  1  0  0  0  0
 18 40  1  0  0  0  0
 18 41  1  0  0  0  0
 18 42  1  0  0  0  0
 19 20  2  0  0  0  0
 21 22  1  0  0  0  0
 22 23  2  0  0  0  0
 22 43  1  0  0  0  0
 23 24  1  0  0  0  0
 24 44  1  0  0  0  0
 24 45  1  0  0  0  0
 24 46  1  0  0  0  0
M  END
> <s_m_source_file>
AV-unprocessed.smi

> <i_m_source_file_index>
2410

> <i_lp_mmshare_version>
43012

> <i_f3d_flags>
0

> <s_epik_input>
W0NIM11jKFtjSF0xKWMoW0NIM10pW2NIXWMoYzEyKW4oW2NIXW4yKVtDSDJdW0NASF0oW09IXSlbQ0gyXW4zW2NIXW5jKFtDSDNdKWMoW0NIM10pYzM9Tw==

> <s_epik_cmdline>
J2VwaWtfcHl0aG9uJywgJy1waCcsICc3LjAnLCAnLXRuJywgJzgnLCAnLW1hJywgJzIwMCcsICctbWV0YWxfYmluZGluZycsICctaW1hZScsICc8aW5maWxlLm1hZT4nLCAnLW9tYWUnLCAnPG91dGZpbGUubWFlPic=

> <r_lp_tautomer_probability>
1

> <r_epik_Ionization_Penalty>
0.113377

> <r_epik_Ionization_Penalty_Charging>
7.56033e-08

> <r_epik_Ionization_Penalty_Neutral>
0.113377

> <r_epik_State_Penalty>
0.103025

> <r_epik_Charging_Adjusted_Penalty>
0.103025

> <i_epik_Tot_Q>
0

> <i_epik_Tot_abs_Q>
0

> <r_epik_Metal_State_Penalty>
0.0863476

> <b_epik_Metal_Only>
0

> <s_lp_Force_Field>
OPLS_2005

> <r_lp_Energy>
18.3765

> <b_lp_Chiralities_Consistent>
1

> <s_lp_Variant>
AV-unprocessed.smi:2410-2

> <Gold.Version>
5.8.1

> <Gold.Id.Protein>
6NUR|6NUR_protein|mol2

> <Gold.PLP.Fitness>
49.2662

> <Gold.PLP.PLP>
-43.7546

> <Gold.PLP.part.hbond>
-2.9919

> <Gold.PLP.part.metal>
0.0000

> <Gold.PLP.part.buried>
-5.9764

> <Gold.PLP.part.nonpolar>
-35.4807

> <Gold.PLP.part.repulsive>
0.9945

> <Gold.PLP.ligand.clash>
0.0000

> <Gold.PLP.ligand.torsion>
1.0960

> <Gold.PLP.Chemscore.Hbond>
2.5520

> <Gold.PLP.Chemscore.CHOScore>
0.0000

> <Gold.PLP.Chemscore.Metal>
0.0000

> <Gold.Chemscore.Hbonds>
donor molecule, donor type, donor heavy atom, donor atom, acceptor molecule, acceptor atom, score
      P1  H  6896  6908       L1    20  0.67
      P1  H  7989  7998       L1     5  0.81
      P1  H 10752 10763       L1    10  1.00

> <Gold.PLP.Chemscore.Internal.Correction>
0.0476

> <Gold.Rescore>
     Score         DG    S(hbond)    S(metal)    S(lipo)     H(rot)  DE(clash)    DE(int)     intcor
     19.51     -20.67       2.62        0.00     106.40       2.35       0.15       1.02       ----

> <Gold.Chemscore.Fitness>
19.5068

> <Gold.Chemscore.DG>
-20.6714

> <Gold.Chemscore.ZeroCoef>
-5.4800

> <Gold.Chemscore.Hbond>
2.6209

> <Gold.Chemscore.Metal>
0.0000

> <Gold.Chemscore.Lipo>
106.3959

> <Gold.Chemscore.Internal_Hbond>
0.0000

> <Gold.Chemscore.DEClash>
0.1482

> <Gold.Chemscore.DEInternal>
1.0164

> <Gold.Chemscore.Rot>
2.3479

> <Gold.Chemscore.Internal.Correction>
   9.000000E+99

> <Gold.Chemscore.Hbonds>
donor molecule, donor type, donor heavy atom, donor atom, acceptor molecule, acceptor atom, score
      P1  H  6896  6908       L1    20  0.64
      P1  H  7989  7998       L1     5  0.33
      P1  H 10752 10763       L1    10  0.91

> <Gold.Chemscore.Hbond.Weighted>
-8.7537

> <Gold.Chemscore.Metal.Weighted>
-0.0000

> <Gold.Chemscore.Lipo.Weighted>
-12.4483

> <Gold.Chemscore.Internal_Hbond.Weighted>
0.0000

> <Gold.Chemscore.DEClash.Weighted>
0.1482

> <Gold.Chemscore.DEInternal.Weighted>
1.0164

> <Gold.Chemscore.Rot.Weighted>
6.0106

> <Gold.Chemscore.Internal.Correction.Weighted>
   9.000000E+99

> <Gold.Protein.RotatedTorsions>
[ 6907 6896 6895 6894 ] final   81.18 input  -60.11 | X-H torsion
[ 7974 7965 7964 7962 ] final   46.76 input  175.53 | X-H torsion
[ 8008 7997 7996 7995 ] final  166.54 input   59.86 | X-H torsion
[ 10167 10162 10161 10158 ] final   34.21 input  -65.29 | X-H torsion
[ 10718 10713 10712 10709 ] final  148.58 input   66.30 | X-H torsion
[ 10763 10752 10751 10750 ] final  106.49 input  -60.55 | X-H torsion
[ 11005 11000 10999 10996 ] final    3.08 input  -57.11 | X-H torsion

> <Gold.Protein.ActiveResidues>
 VAL166  LYS551  ARG553  GLY616  TRP617  ASP618  TYR619  PRO620  LYS621  CYS622 
 ASP623  PHE694  ASN695  SER759  ASP760  ASP761  ALA762  ILE779  LEU786  VAL792 
 PHE793  MET794  SER795  GLU796  ALA797  LYS798  CYS799  TRP800  GLU811  SER814 

> <Gold.Protein.RotatedAtoms>
  152.5260  134.3244  159.9159 H   0  0  0  0  0  0  0  0  0  0  0  0  # atno 6907 bound_to 6896
  151.3193  133.4040  159.2661 H   0  0  0  0  0  0  0  0  0  0  0  0  # atno 6908 bound_to 6896
  150.9973  134.9310  159.7991 H   0  0  0  0  0  0  0  0  0  0  0  0  # atno 6909 bound_to 6896
  146.0361  139.4822  142.9808 H   0  0  0  0  0  0  0  0  0  0  0  0  # atno 7974 bound_to 7965
  156.1709  140.1640  156.8448 H   0  0  0  0  0  0  0  0  0  0  0  0  # atno 8008 bound_to 7997
  154.5256  140.0768  156.8287 H   0  0  0  0  0  0  0  0  0  0  0  0  # atno 8009 bound_to 7997
  155.3514  140.3390  155.4241 H   0  0  0  0  0  0  0  0  0  0  0  0  # atno 8010 bound_to 7997
  140.4336  144.1289  150.6163 H   0  0  0  0  0  0  0  0  0  0  0  0  # atno 10167 bound_to 10162
  157.3068  131.0880  151.1347 H   0  0  0  0  0  0  0  0  0  0  0  0  # atno 10718 bound_to 10713
  153.3937  135.3875  155.1940 H   0  0  0  0  0  0  0  0  0  0  0  0  # atno 10763 bound_to 10752
  154.8722  135.3754  154.4705 H   0  0  0  0  0  0  0  0  0  0  0  0  # atno 10764 bound_to 10752
  153.5195  135.7087  153.5800 H   0  0  0  0  0  0  0  0  0  0  0  0  # atno 10765 bound_to 10752
  140.5972  133.9870  155.8115 H   0  0  0  0  0  0  0  0  0  0  0  0  # atno 11005 bound_to 11000
  145.6962  141.0149  143.1529 LP  0  0  0  0  0  0  0  0  0  0  0  0  # atno 17320 bound_to 7965
  144.7052  139.8591  143.7432 LP  0  0  0  0  0  0  0  0  0  0  0  0  # atno 17321 bound_to 7965
  140.4399  143.2531  151.9486 LP  0  0  0  0  0  0  0  0  0  0  0  0  # atno 17342 bound_to 10162
  139.4786  144.5664  151.8158 LP  0  0  0  0  0  0  0  0  0  0  0  0  # atno 17343 bound_to 10162
  157.2685  130.6693  149.6008 LP  0  0  0  0  0  0  0  0  0  0  0  0  # atno 17370 bound_to 10713
  155.9675  130.4486  150.5627 LP  0  0  0  0  0  0  0  0  0  0  0  0  # atno 17371 bound_to 10713
  141.0896  133.9937  157.3258 LP  0  0  0  0  0  0  0  0  0  0  0  0  # atno 17394 bound_to 11000
  139.9248  135.0201  156.8196 LP  0  0  0  0  0  0  0  0  0  0  0  0  # atno 17395 bound_to 11000

$$$$
