AV-unprocessed.smi:653|AV-procd|sdf|3211|dock1
  -GOLD-   22720 0143D 1   1.00000     0.00000
 Structure written by MMmdl.
 45 46  0  0  0  0  0  0  0  0  2 V2000
  144.1479  131.6355  150.3374 C   0  0  0  0  0  0  0  0  0  0  0  0
  144.6901  132.9922  150.7348 C   0  0  0  0  0  0  0  0  0  0  0  0
  145.9412  133.1471  151.3696 C   0  0  0  0  0  0  0  0  0  0  0  0
  146.3872  134.4420  151.7059 C   0  0  0  0  0  0  0  0  0  0  0  0
  145.5750  135.5566  151.4000 C   0  0  0  0  0  0  0  0  0  0  0  0
  146.0294  136.9642  151.7434 C   0  0  0  0  0  0  0  0  0  0  0  0
  146.1923  137.1172  153.2559 C   0  0  0  0  0  0  0  0  0  0  0  0
  145.1973  137.1815  153.9769 O   0  0  0  0  0  0  0  0  0  0  0  0
  147.4496  137.1781  153.7209 N   0  0  0  0  0  0  0  0  0  0  0  0
  147.8169  137.3201  155.1256 C   0  0  0  0  0  0  0  0  0  0  0  0
  149.0935  138.1650  155.3034 C   0  0  1  0  0  0  0  0  0  0  0  0
  150.3604  137.4936  154.8084 C   0  0  0  0  0  0  0  0  0  0  0  0
  151.3013  138.6830  154.6620 C   0  0  0  0  0  0  0  0  0  0  0  0
  150.4787  139.7645  154.2380 O   0  0  0  0  0  0  0  0  0  0  0  0
  149.1049  139.4634  154.4812 C   0  0  2  0  0  0  0  0  0  0  0  0
  148.3701  140.6710  155.1076 C   0  0  0  0  0  0  0  0  0  0  0  0
  147.9281  141.6640  154.0212 C   0  0  0  0  0  0  0  0  0  0  0  0
  149.1899  141.3897  156.1952 C   0  0  0  0  0  0  0  0  0  0  0  0
  144.3319  135.3399  150.7665 C   0  0  0  0  0  0  0  0  0  0  0  0
  143.9409  134.0837  150.4600 N   0  3  0  0  0  0  0  0  0  0  0  0
  144.7044  130.8341  150.8243 H   0  0  0  0  0  0  0  0  0  0  0  0
  144.2259  131.4992  149.2584 H   0  0  0  0  0  0  0  0  0  0  0  0
  143.0995  131.5412  150.6224 H   0  0  0  0  0  0  0  0  0  0  0  0
  146.5540  132.2864  151.5956 H   0  0  0  0  0  0  0  0  0  0  0  0
  147.3439  134.5758  152.1898 H   0  0  0  0  0  0  0  0  0  0  0  0
  146.9785  137.1729  151.2473 H   0  0  0  0  0  0  0  0  0  0  0  0
  145.3117  137.6965  151.3706 H   0  0  0  0  0  0  0  0  0  0  0  0
  148.2076  137.1147  153.0570 H   0  0  0  0  0  0  0  0  0  0  0  0
  146.9808  137.7872  155.6468 H   0  0  0  0  0  0  0  0  0  0  0  0
  147.9475  136.3353  155.5770 H   0  0  0  0  0  0  0  0  0  0  0  0
  149.2303  138.3936  156.3600 H   0  0  0  0  0  0  0  0  0  0  0  0
  150.7420  136.7350  155.4925 H   0  0  0  0  0  0  0  0  0  0  0  0
  150.1936  137.0270  153.8364 H   0  0  0  0  0  0  0  0  0  0  0  0
  151.7419  138.9387  155.6265 H   0  0  0  0  0  0  0  0  0  0  0  0
  152.1109  138.4942  153.9569 H   0  0  0  0  0  0  0  0  0  0  0  0
  148.6641  139.2468  153.5067 H   0  0  0  0  0  0  0  0  0  0  0  0
  147.4609  140.2960  155.5787 H   0  0  0  0  0  0  0  0  0  0  0  0
  148.7867  142.0906  153.5014 H   0  0  0  0  0  0  0  0  0  0  0  0
  147.3564  142.4875  154.4498 H   0  0  0  0  0  0  0  0  0  0  0  0
  147.2959  141.1795  153.2768 H   0  0  0  0  0  0  0  0  0  0  0  0
  150.1333  141.7670  155.7989 H   0  0  0  0  0  0  0  0  0  0  0  0
  149.4191  140.7357  157.0355 H   0  0  0  0  0  0  0  0  0  0  0  0
  148.6398  142.2408  156.5974 H   0  0  0  0  0  0  0  0  0  0  0  0
  143.6461  136.1286  150.4920 H   0  0  0  0  0  0  0  0  0  0  0  0
  143.0399  133.9531  149.9990 H   0  0  0  0  0  0  0  0  0  0  0  0
  1  2  1  0  0  0  0
  1 21  1  0  0  0  0
  1 22  1  0  0  0  0
  1 23  1  0  0  0  0
  2 20  1  0  0  0  0
  2  3  2  0  0  0  0
  3  4  1  0  0  0  0
  3 24  1  0  0  0  0
  4  5  2  0  0  0  0
  4 25  1  0  0  0  0
  5  6  1  0  0  0  0
  5 19  1  0  0  0  0
  6  7  1  0  0  0  0
  6 26  1  0  0  0  0
  6 27  1  0  0  0  0
  7  8  2  0  0  0  0
  7  9  1  0  0  0  0
  9 10  1  0  0  0  0
  9 28  1  0  0  0  0
 10 11  1  0  0  0  0
 10 29  1  0  0  0  0
 10 30  1  0  0  0  0
 11 15  1  0  0  0  0
 11 12  1  0  0  0  0
 11 31  1  0  0  0  0
 12 13  1  0  0  0  0
 12 32  1  0  0  0  0
 12 33  1  0  0  0  0
 13 14  1  0  0  0  0
 13 34  1  0  0  0  0
 13 35  1  0  0  0  0
 14 15  1  0  0  0  0
 15 16  1  0  0  0  0
 15 36  1  0  0  0  0
 16 17  1  0  0  0  0
 16 18  1  0  0  0  0
 16 37  1  0  0  0  0
 17 38  1  0  0  0  0
 17 39  1  0  0  0  0
 17 40  1  0  0  0  0
 18 41  1  0  0  0  0
 18 42  1  0  0  0  0
 18 43  1  0  0  0  0
 19 20  2  0  0  0  0
 19 44  1  0  0  0  0
 20 45  1  0  0  0  0
M  CHG  1  20   1
M  END
> <s_m_source_file>
AV-unprocessed.smi

> <i_m_source_file_index>
653

> <i_lp_mmshare_version>
43012

> <i_f3d_flags>
0

> <s_epik_input>
W0NIM11jMVtjSF1bY0hdYyhbY0hdbjEpW0NIMl1DKD1PKVtOSF1bQ0gyXVtDQEBIXTJbQ0gyXVtDSDJdT1tDQEhdMltDSF0oW0NIM10pW0NIM10=

> <s_epik_cmdline>
J2VwaWtfcHl0aG9uJywgJy1waCcsICc3LjAnLCAnLXRuJywgJzgnLCAnLW1hJywgJzIwMCcsICctbWV0YWxfYmluZGluZycsICctaW1hZScsICc8aW5maWxlLm1hZT4nLCAnLW9tYWUnLCAnPG91dGZpbGUubWFlPic=

> <r_epik_Ionization_Penalty>
2.12486

> <r_epik_Ionization_Penalty_Charging>
2.12486

> <r_epik_Ionization_Penalty_Neutral>
9.0873e-08

> <r_epik_State_Penalty>
2.26279

> <r_epik_Charging_Adjusted_Penalty>
4.38765

> <i_epik_Tot_Q>
1

> <i_epik_Tot_abs_Q>
1

> <r_epik_Metal_State_Penalty>
2.27914

> <b_epik_Metal_Only>
0

> <s_lp_Force_Field>
OPLS_2005

> <r_lp_Energy>
26.1393

> <b_lp_Chiralities_Consistent>
1

> <s_lp_Variant>
AV-unprocessed.smi:653-8

> <Gold.Version>
5.8.1

> <Gold.Id.Protein>
6NUR|6NUR_protein|mol2

> <Gold.PLP.Fitness>
46.0389

> <Gold.PLP.PLP>
-35.5927

> <Gold.PLP.part.hbond>
-3.0000

> <Gold.PLP.part.metal>
0.0000

> <Gold.PLP.part.buried>
-3.7894

> <Gold.PLP.part.nonpolar>
-29.1852

> <Gold.PLP.part.repulsive>
0.4619

> <Gold.PLP.ligand.clash>
0.0000

> <Gold.PLP.ligand.torsion>
0.8098

> <Gold.PLP.Chemscore.Hbond>
4.0000

> <Gold.PLP.Chemscore.CHOScore>
0.0000

> <Gold.PLP.Chemscore.Metal>
0.0000

> <Gold.Chemscore.Hbonds>
donor molecule, donor type, donor heavy atom, donor atom, acceptor molecule, acceptor atom, score
      L1  H     9    28       P1  7948  0.96
      L1  H    20    45       P1 10186  1.50
      P1  H  7989  7998       L1    14  1.00

> <Gold.PLP.Chemscore.Internal.Correction>
0.0657

> <Gold.Rescore>
     Score         DG    S(hbond)    S(metal)    S(lipo)     H(rot)  DE(clash)    DE(int)     intcor
     20.99     -21.60       2.88        0.00      89.86       1.57       0.14       0.47       ----

> <Gold.Chemscore.Fitness>
20.9940

> <Gold.Chemscore.DG>
-21.6043

> <Gold.Chemscore.ZeroCoef>
-5.4800

> <Gold.Chemscore.Hbond>
2.8832

> <Gold.Chemscore.Metal>
0.0000

> <Gold.Chemscore.Lipo>
89.8633

> <Gold.Chemscore.Internal_Hbond>
0.0000

> <Gold.Chemscore.DEClash>
0.1397

> <Gold.Chemscore.DEInternal>
0.4706

> <Gold.Chemscore.Rot>
1.5701

> <Gold.Chemscore.Internal.Correction>
   9.000000E+99

> <Gold.Chemscore.Hbonds>
donor molecule, donor type, donor heavy atom, donor atom, acceptor molecule, acceptor atom, score
      L1  H     9    28       P1  7948  0.92
      L1  H    20    45       P1 10186  0.73
      P1  H  7989  7998       L1    14  0.40

> <Gold.Chemscore.Hbond.Weighted>
-9.6299

> <Gold.Chemscore.Metal.Weighted>
-0.0000

> <Gold.Chemscore.Lipo.Weighted>
-10.5140

> <Gold.Chemscore.Internal_Hbond.Weighted>
0.0000

> <Gold.Chemscore.DEClash.Weighted>
0.1397

> <Gold.Chemscore.DEInternal.Weighted>
0.4706

> <Gold.Chemscore.Rot.Weighted>
4.0196

> <Gold.Chemscore.Internal.Correction.Weighted>
   9.000000E+99

> <Gold.Protein.RotatedTorsions>
[ 6907 6896 6895 6894 ] final  -99.16 input  -60.11 | X-H torsion
[ 7974 7965 7964 7962 ] final   86.46 input  175.53 | X-H torsion
[ 8008 7997 7996 7995 ] final -120.43 input   59.86 | X-H torsion
[ 10167 10162 10161 10158 ] final   -9.79 input  -65.29 | X-H torsion
[ 10718 10713 10712 10709 ] final -148.29 input   66.30 | X-H torsion
[ 10763 10752 10751 10750 ] final   85.59 input  -60.55 | X-H torsion
[ 11005 11000 10999 10996 ] final    1.54 input  -57.11 | X-H torsion

> <Gold.Protein.ActiveResidues>
 VAL166  LYS551  ARG553  GLY616  TRP617  ASP618  TYR619  PRO620  LYS621  CYS622 
 ASP623  PHE694  ASN695  SER759  ASP760  ASP761  ALA762  ILE779  LEU786  VAL792 
 PHE793  MET794  SER795  GLU796  ALA797  LYS798  CYS799  TRP800  GLU811  SER814 

> <Gold.Protein.RotatedAtoms>
  150.7071  134.1083  159.3990 H   0  0  0  0  0  0  0  0  0  0  0  0  # atno 6907 bound_to 6896
  151.9069  135.0353  160.0520 H   0  0  0  0  0  0  0  0  0  0  0  0  # atno 6908 bound_to 6896
  152.2368  133.5067  159.5284 H   0  0  0  0  0  0  0  0  0  0  0  0  # atno 6909 bound_to 6896
  145.5719  139.2315  143.2401 H   0  0  0  0  0  0  0  0  0  0  0  0  # atno 7974 bound_to 7965
  155.1317  140.0400  157.2776 H   0  0  0  0  0  0  0  0  0  0  0  0  # atno 8008 bound_to 7997
  154.6538  140.2575  155.7158 H   0  0  0  0  0  0  0  0  0  0  0  0  # atno 8009 bound_to 7997
  156.2589  140.2831  156.0983 H   0  0  0  0  0  0  0  0  0  0  0  0  # atno 8010 bound_to 7997
  140.7097  143.5819  150.8983 H   0  0  0  0  0  0  0  0  0  0  0  0  # atno 10167 bound_to 10162
  156.4184  130.8016  151.2238 H   0  0  0  0  0  0  0  0  0  0  0  0  # atno 10718 bound_to 10713
  153.1489  135.4612  154.9607 H   0  0  0  0  0  0  0  0  0  0  0  0  # atno 10763 bound_to 10752
  154.7809  135.3188  154.7995 H   0  0  0  0  0  0  0  0  0  0  0  0  # atno 10764 bound_to 10752
  153.8504  135.6922  153.4847 H   0  0  0  0  0  0  0  0  0  0  0  0  # atno 10765 bound_to 10752
  140.6143  133.9720  155.8192 H   0  0  0  0  0  0  0  0  0  0  0  0  # atno 11005 bound_to 11000
  146.1778  140.6545  142.9203 LP  0  0  0  0  0  0  0  0  0  0  0  0  # atno 17320 bound_to 7965
  144.7434  140.5002  143.6853 LP  0  0  0  0  0  0  0  0  0  0  0  0  # atno 17321 bound_to 7965
  139.9545  143.6234  152.3020 LP  0  0  0  0  0  0  0  0  0  0  0  0  # atno 17342 bound_to 10162
  139.6764  144.7658  151.1688 LP  0  0  0  0  0  0  0  0  0  0  0  0  # atno 17343 bound_to 10162
  157.7508  131.0236  150.3840 LP  0  0  0  0  0  0  0  0  0  0  0  0  # atno 17370 bound_to 10713
  156.4152  130.3942  149.6863 LP  0  0  0  0  0  0  0  0  0  0  0  0  # atno 17371 bound_to 10713
  141.0787  134.0096  157.3419 LP  0  0  0  0  0  0  0  0  0  0  0  0  # atno 17394 bound_to 11000
  139.9179  135.0198  156.7953 LP  0  0  0  0  0  0  0  0  0  0  0  0  # atno 17395 bound_to 11000

$$$$
