AV-unprocessed.smi:3323|AV-procd|sdf|12780|dock5
  -GOLD-   2272019123D 1   1.00000     0.00000
 Structure written by MMmdl.
 37 38  0  0  0  0  0  0  0  0  1 V2000
  151.2189  138.1556  154.3987 C   0  0  0  0  0  0  0  0  0  0  0  0
  149.9592  138.9724  154.0912 C   0  0  1  0  0  0  0  0  0  0  0  0
  148.6998  138.3582  154.7337 C   0  0  0  0  0  0  0  0  0  0  0  0
  147.4510  139.2257  154.4776 C   0  0  2  0  0  0  0  0  0  0  0  0
  146.9156  139.1622  153.0275 C   0  0  0  0  0  0  0  0  0  0  0  0
  146.9836  137.8148  152.4684 N   0  0  0  0  0  0  0  0  0  0  0  0
  145.9435  136.9838  152.3066 C   0  0  0  0  0  0  0  0  0  0  0  0
  144.7857  137.2763  152.6046 O   0  0  0  0  0  0  0  0  0  0  0  0
  146.3347  135.8201  151.7597 N   0  0  0  0  0  0  0  0  0  0  0  0
  145.5451  134.6837  151.4352 C   0  0  0  0  0  0  0  0  0  0  0  0
  144.1680  134.5549  151.7394 C   0  0  0  0  0  0  0  0  0  0  0  0
  143.5010  133.3676  151.3805 C   0  0  0  0  0  0  0  0  0  0  0  0
  144.2347  132.3510  150.7388 C   0  0  0  0  0  0  0  0  0  0  0  0
  145.5500  132.4547  150.4551 N   0  0  0  0  0  0  0  0  0  0  0  0
  146.1830  133.5953  150.8028 C   0  0  0  0  0  0  0  0  0  0  0  0
  147.7680  140.6673  154.9127 C   0  0  0  0  0  0  0  0  0  0  0  0
  149.0787  141.1751  154.2849 C   0  0  0  0  0  0  0  0  0  0  0  0
  150.1484  140.2899  154.5994 O   0  0  0  0  0  0  0  0  0  0  0  0
  151.1284  137.1386  154.0163 H   0  0  0  0  0  0  0  0  0  0  0  0
  151.3998  138.0955  155.4722 H   0  0  0  0  0  0  0  0  0  0  0  0
  152.0974  138.6071  153.9373 H   0  0  0  0  0  0  0  0  0  0  0  0
  149.8417  139.0204  153.0078 H   0  0  0  0  0  0  0  0  0  0  0  0
  148.5499  137.3377  154.3826 H   0  0  0  0  0  0  0  0  0  0  0  0
  148.8576  138.2794  155.8101 H   0  0  0  0  0  0  0  0  0  0  0  0
  146.6528  138.8565  155.1233 H   0  0  0  0  0  0  0  0  0  0  0  0
  145.8668  139.4596  153.0175 H   0  0  0  0  0  0  0  0  0  0  0  0
  147.4299  139.8763  152.3839 H   0  0  0  0  0  0  0  0  0  0  0  0
  147.8967  137.4900  152.1854 H   0  0  0  0  0  0  0  0  0  0  0  0
  147.3064  135.7604  151.4927 H   0  0  0  0  0  0  0  0  0  0  0  0
  143.6163  135.3293  152.2491 H   0  0  0  0  0  0  0  0  0  0  0  0
  142.4509  133.2376  151.5970 H   0  0  0  0  0  0  0  0  0  0  0  0
  143.7535  131.4278  150.4514 H   0  0  0  0  0  0  0  0  0  0  0  0
  147.2353  133.6414  150.5623 H   0  0  0  0  0  0  0  0  0  0  0  0
  146.9438  141.3356  154.6610 H   0  0  0  0  0  0  0  0  0  0  0  0
  147.8650  140.6998  155.9985 H   0  0  0  0  0  0  0  0  0  0  0  0
  148.9857  141.2805  153.2034 H   0  0  0  0  0  0  0  0  0  0  0  0
  149.3185  142.1640  154.6759 H   0  0  0  0  0  0  0  0  0  0  0  0
  1  2  1  0  0  0  0
  1 19  1  0  0  0  0
  1 20  1  0  0  0  0
  1 21  1  0  0  0  0
  2 18  1  0  0  0  0
  2  3  1  0  0  0  0
  2 22  1  0  0  0  0
  3  4  1  0  0  0  0
  3 23  1  0  0  0  0
  3 24  1  0  0  0  0
  4  5  1  0  0  0  0
  4 16  1  0  0  0  0
  4 25  1  0  0  0  0
  5  6  1  0  0  0  0
  5 26  1  0  0  0  0
  5 27  1  0  0  0  0
  6  7  1  0  0  0  0
  6 28  1  0  0  0  0
  7  8  2  0  0  0  0
  7  9  1  0  0  0  0
  9 10  1  0  0  0  0
  9 29  1  0  0  0  0
 10 15  1  0  0  0  0
 10 11  2  0  0  0  0
 11 12  1  0  0  0  0
 11 30  1  0  0  0  0
 12 13  2  0  0  0  0
 12 31  1  0  0  0  0
 13 14  1  0  0  0  0
 13 32  1  0  0  0  0
 14 15  2  0  0  0  0
 15 33  1  0  0  0  0
 16 17  1  0  0  0  0
 16 34  1  0  0  0  0
 16 35  1  0  0  0  0
 17 18  1  0  0  0  0
 17 36  1  0  0  0  0
 17 37  1  0  0  0  0
M  END
> <s_m_source_file>
AV-unprocessed.smi

> <i_m_source_file_index>
3323

> <i_lp_mmshare_version>
43012

> <i_f3d_flags>
0

> <s_epik_input>
W0NIM11bQ0BASF0xW0NIMl1bQ0BIXShbQ0gyXVtDSDJdTzEpW0NIMl1bTkhdQyg9TylbTkhdYzJbY0hdW2NIXVtjSF1uW2NIXTI=

> <s_epik_cmdline>
J2VwaWtfcHl0aG9uJywgJy1waCcsICc3LjAnLCAnLXRuJywgJzgnLCAnLW1hJywgJzIwMCcsICctbWV0YWxfYmluZGluZycsICctaW1hZScsICc8aW5maWxlLm1hZT4nLCAnLW9tYWUnLCAnPG91dGZpbGUubWFlPic=

> <r_epik_Ionization_Penalty>
0.00485293

> <r_epik_Ionization_Penalty_Charging>
0

> <r_epik_Ionization_Penalty_Neutral>
0.00485293

> <r_epik_State_Penalty>
0.00349083

> <r_epik_Charging_Adjusted_Penalty>
0.00349083

> <i_epik_Tot_Q>
0

> <i_epik_Tot_abs_Q>
0

> <r_epik_Metal_State_Penalty>
-0

> <b_epik_Metal_Only>
0

> <s_lp_Force_Field>
OPLS_2005

> <r_lp_Energy>
13.6237

> <b_lp_Chiralities_Consistent>
1

> <s_lp_Variant>
AV-unprocessed.smi:3323-4

> <Gold.Version>
5.8.1

> <Gold.Id.Protein>
6NUR|6NUR_protein|mol2

> <Gold.PLP.Fitness>
40.1360

> <Gold.PLP.PLP>
-31.7476

> <Gold.PLP.part.hbond>
-3.0000

> <Gold.PLP.part.metal>
0.0000

> <Gold.PLP.part.buried>
-4.8451

> <Gold.PLP.part.nonpolar>
-24.9756

> <Gold.PLP.part.repulsive>
0.5653

> <Gold.PLP.ligand.clash>
0.0000

> <Gold.PLP.ligand.torsion>
0.2722

> <Gold.PLP.Chemscore.Hbond>
2.9760

> <Gold.PLP.Chemscore.CHOScore>
0.0000

> <Gold.PLP.Chemscore.Metal>
0.0000

> <Gold.Chemscore.Hbonds>
donor molecule, donor type, donor heavy atom, donor atom, acceptor molecule, acceptor atom, score
      L1  H     6    28       P1  7948  1.00
      L1  H     9    29       P1  7948  0.98
      P1  H  7989  7998       L1    18  1.00

> <Gold.PLP.Chemscore.Internal.Correction>
0.0048

> <Gold.Rescore>
     Score         DG    S(hbond)    S(metal)    S(lipo)     H(rot)  DE(clash)    DE(int)     intcor
     16.83     -18.48       2.20        0.00      75.30       1.23       0.14       1.52       ----

> <Gold.Chemscore.Fitness>
16.8277

> <Gold.Chemscore.DG>
-18.4824

> <Gold.Chemscore.ZeroCoef>
-5.4800

> <Gold.Chemscore.Hbond>
2.1957

> <Gold.Chemscore.Metal>
0.0000

> <Gold.Chemscore.Lipo>
75.3029

> <Gold.Chemscore.Internal_Hbond>
0.0000

> <Gold.Chemscore.DEClash>
0.1388

> <Gold.Chemscore.DEInternal>
1.5158

> <Gold.Chemscore.Rot>
1.2273

> <Gold.Chemscore.Internal.Correction>
   9.000000E+99

> <Gold.Chemscore.Hbonds>
donor molecule, donor type, donor heavy atom, donor atom, acceptor molecule, acceptor atom, score
      L1  H     6    28       P1  7948  0.95
      L1  H     9    29       P1  7948  0.92
      P1  H  7989  7998       L1    18  0.12

> <Gold.Chemscore.Hbond.Weighted>
-7.3338

> <Gold.Chemscore.Metal.Weighted>
-0.0000

> <Gold.Chemscore.Lipo.Weighted>
-8.8104

> <Gold.Chemscore.Internal_Hbond.Weighted>
0.0000

> <Gold.Chemscore.DEClash.Weighted>
0.1388

> <Gold.Chemscore.DEInternal.Weighted>
1.5158

> <Gold.Chemscore.Rot.Weighted>
3.1418

> <Gold.Chemscore.Internal.Correction.Weighted>
   9.000000E+99

> <Gold.Protein.RotatedTorsions>
[ 6907 6896 6895 6894 ] final   68.57 input  -60.11 | X-H torsion
[ 7974 7965 7964 7962 ] final   12.76 input  175.53 | X-H torsion
[ 8008 7997 7996 7995 ] final  -39.31 input   59.86 | X-H torsion
[ 10167 10162 10161 10158 ] final  -99.64 input  -65.29 | X-H torsion
[ 10718 10713 10712 10709 ] final   17.29 input   66.30 | X-H torsion
[ 10763 10752 10751 10750 ] final -174.31 input  -60.55 | X-H torsion
[ 11005 11000 10999 10996 ] final   26.12 input  -57.11 | X-H torsion

> <Gold.Protein.ActiveResidues>
 VAL166  LYS551  ARG553  GLY616  TRP617  ASP618  TYR619  PRO620  LYS621  CYS622 
 ASP623  PHE694  ASN695  SER759  ASP760  ASP761  ALA762  ILE779  LEU786  VAL792 
 PHE793  MET794  SER795  GLU796  ALA797  LYS798  CYS799  TRP800  GLU811  SER814 

> <Gold.Protein.RotatedAtoms>
  152.4629  134.5143  159.9763 H   0  0  0  0  0  0  0  0  0  0  0  0  # atno 6907 bound_to 6896
  151.5188  133.3465  159.2905 H   0  0  0  0  0  0  0  0  0  0  0  0  # atno 6908 bound_to 6896
  150.8600  134.7978  159.7137 H   0  0  0  0  0  0  0  0  0  0  0  0  # atno 6909 bound_to 6896
  146.2344  139.9289  142.8499 H   0  0  0  0  0  0  0  0  0  0  0  0  # atno 7974 bound_to 7965
  154.4024  140.1555  156.2843 H   0  0  0  0  0  0  0  0  0  0  0  0  # atno 8008 bound_to 7997
  155.8842  140.3442  155.5887 H   0  0  0  0  0  0  0  0  0  0  0  0  # atno 8009 bound_to 7997
  155.7633  140.0820  157.2135 H   0  0  0  0  0  0  0  0  0  0  0  0  # atno 8010 bound_to 7997
  140.2603  143.3412  152.0632 H   0  0  0  0  0  0  0  0  0  0  0  0  # atno 10167 bound_to 10162
  157.0799  130.6383  149.5824 H   0  0  0  0  0  0  0  0  0  0  0  0  # atno 10718 bound_to 10713
  154.5977  135.2851  155.0568 H   0  0  0  0  0  0  0  0  0  0  0  0  # atno 10763 bound_to 10752
  154.1845  135.6451  153.5047 H   0  0  0  0  0  0  0  0  0  0  0  0  # atno 10764 bound_to 10752
  153.0145  135.5431  154.6685 H   0  0  0  0  0  0  0  0  0  0  0  0  # atno 10765 bound_to 10752
  140.3404  134.2339  155.7691 H   0  0  0  0  0  0  0  0  0  0  0  0  # atno 11005 bound_to 11000
  145.2064  140.9877  143.4126 LP  0  0  0  0  0  0  0  0  0  0  0  0  # atno 17320 bound_to 7965
  144.9729  139.3861  143.6300 LP  0  0  0  0  0  0  0  0  0  0  0  0  # atno 17321 bound_to 7965
  139.5019  144.6723  151.6213 LP  0  0  0  0  0  0  0  0  0  0  0  0  # atno 17342 bound_to 10162
  140.5971  143.9677  150.6361 LP  0  0  0  0  0  0  0  0  0  0  0  0  # atno 17343 bound_to 10162
  155.9926  130.4985  150.7348 LP  0  0  0  0  0  0  0  0  0  0  0  0  # atno 17370 bound_to 10713
  157.4808  131.0902  151.0538 LP  0  0  0  0  0  0  0  0  0  0  0  0  # atno 17371 bound_to 10713
  141.2040  133.7898  157.0311 LP  0  0  0  0  0  0  0  0  0  0  0  0  # atno 17394 bound_to 11000
  140.0786  134.9661  157.1586 LP  0  0  0  0  0  0  0  0  0  0  0  0  # atno 17395 bound_to 11000

$$$$
