AV-unprocessed.smi:372|AV-procd|sdf|2443|dock6
  -GOLD-   2262022383D 1   1.00000     0.00000
 Structure written by MMmdl.
 23 24  0  0  0  0  0  0  0  0  1 V2000
  150.1469  140.7513  156.6732 C   0  0  0  0  0  0  0  0  0  0  0  0
  151.1073  140.1741  157.7309 C   0  0  1  0  0  0  0  0  0  0  0  0
  151.8508  141.2839  158.4949 C   0  0  0  0  0  0  0  0  0  0  0  0
  152.7012  140.9960  159.5913 C   0  0  0  0  0  0  0  0  0  0  0  0
  153.3449  142.0600  160.2519 C   0  0  0  0  0  0  0  0  0  0  0  0
  153.1207  143.3745  159.8038 C   0  0  0  0  0  0  0  0  0  0  0  0
  152.2545  143.5673  158.7113 C   0  0  0  0  0  0  0  0  0  0  0  0
  151.6319  142.5539  158.0734 N   0  0  0  0  0  0  0  0  0  0  0  0
  150.3829  139.2608  158.6066 N   0  0  0  0  0  0  0  0  0  0  0  0
  150.8708  138.0138  158.5907 C   0  0  0  0  0  0  0  0  0  0  0  0
  150.4624  137.0693  159.2619 O   0  0  0  0  0  0  0  0  0  0  0  0
  151.8698  137.9773  157.7058 N   0  0  0  0  0  0  0  0  0  0  0  0
  152.0776  139.1578  157.1250 C   0  0  0  0  0  0  0  0  0  0  0  0
  152.8951  139.3980  156.2374 O   0  0  0  0  0  0  0  0  0  0  0  0
  150.6732  141.3818  155.9555 H   0  0  0  0  0  0  0  0  0  0  0  0
  149.3734  141.3615  157.1406 H   0  0  0  0  0  0  0  0  0  0  0  0
  149.6470  139.9624  156.1094 H   0  0  0  0  0  0  0  0  0  0  0  0
  152.8679  139.9860  159.9340 H   0  0  0  0  0  0  0  0  0  0  0  0
  153.9993  141.8702  161.0899 H   0  0  0  0  0  0  0  0  0  0  0  0
  153.5983  144.2139  160.2870 H   0  0  0  0  0  0  0  0  0  0  0  0
  152.0548  144.5616  158.3402 H   0  0  0  0  0  0  0  0  0  0  0  0
  149.6181  139.5625  159.1925 H   0  0  0  0  0  0  0  0  0  0  0  0
  152.3949  137.1435  157.4861 H   0  0  0  0  0  0  0  0  0  0  0  0
  1  2  1  0  0  0  0
  1 15  1  0  0  0  0
  1 16  1  0  0  0  0
  1 17  1  0  0  0  0
  2 13  1  0  0  0  0
  2  3  1  0  0  0  0
  2  9  1  0  0  0  0
  3  8  1  0  0  0  0
  3  4  2  0  0  0  0
  4  5  1  0  0  0  0
  4 18  1  0  0  0  0
  5  6  2  0  0  0  0
  5 19  1  0  0  0  0
  6  7  1  0  0  0  0
  6 20  1  0  0  0  0
  7  8  2  0  0  0  0
  7 21  1  0  0  0  0
  9 10  1  0  0  0  0
  9 22  1  0  0  0  0
 10 11  2  0  0  0  0
 10 12  1  0  0  0  0
 12 13  1  0  0  0  0
 12 23  1  0  0  0  0
 13 14  2  0  0  0  0
M  END
> <s_m_source_file>
AV-unprocessed.smi

> <i_m_source_file_index>
372

> <i_lp_mmshare_version>
43012

> <i_f3d_flags>
0

> <s_epik_input>
Tz1DMVtOSF1DKD1PKVtOSF1bQ0BAXTEoW0NIM10pYzJbY0hdW2NIXVtjSF1bY0hdbjI=

> <s_epik_cmdline>
J2VwaWtfcHl0aG9uJywgJy1waCcsICc3LjAnLCAnLXRuJywgJzgnLCAnLW1hJywgJzIwMCcsICctbWV0YWxfYmluZGluZycsICctaW1hZScsICc8aW5maWxlLm1hZT4nLCAnLW9tYWUnLCAnPG91dGZpbGUubWFlPic=

> <r_lp_tautomer_probability>
1

> <r_epik_Ionization_Penalty>
0.0293563

> <r_epik_Ionization_Penalty_Charging>
0

> <r_epik_Ionization_Penalty_Neutral>
0.0293563

> <r_epik_State_Penalty>
0.034944

> <r_epik_Charging_Adjusted_Penalty>
0.034944

> <i_epik_Tot_Q>
0

> <i_epik_Tot_abs_Q>
0

> <r_epik_Metal_State_Penalty>
0.534399

> <b_epik_Metal_Only>
0

> <s_lp_Force_Field>
OPLS_2005

> <r_lp_Energy>
17.2904

> <b_lp_Chiralities_Consistent>
1

> <s_lp_Variant>
AV-unprocessed.smi:372-1

> <Gold.Version>
5.8.1

> <Gold.Id.Protein>
6NUR|6NUR_protein|mol2

> <Gold.PLP.Fitness>
30.5365

> <Gold.PLP.PLP>
-24.6435

> <Gold.PLP.part.hbond>
-1.9193

> <Gold.PLP.part.metal>
0.0000

> <Gold.PLP.part.buried>
-4.0729

> <Gold.PLP.part.nonpolar>
-19.1676

> <Gold.PLP.part.repulsive>
0.3050

> <Gold.PLP.ligand.clash>
0.0000

> <Gold.PLP.ligand.torsion>
0.1121

> <Gold.PLP.Chemscore.Hbond>
2.0000

> <Gold.PLP.Chemscore.CHOScore>
0.0000

> <Gold.PLP.Chemscore.Metal>
0.0000

> <Gold.Chemscore.Hbonds>
donor molecule, donor type, donor heavy atom, donor atom, acceptor molecule, acceptor atom, score
      P1  H  6896  6907       L1    11  0.63
      P1  H  7997  8010       L1    14  1.00

> <Gold.PLP.Chemscore.Internal.Correction>
0.1172

> <Gold.Rescore>
     Score         DG    S(hbond)    S(metal)    S(lipo)     H(rot)  DE(clash)    DE(int)     intcor
     16.83     -16.90       1.98        0.00      62.87       1.00       0.00       0.07       ----

> <Gold.Chemscore.Fitness>
16.8329

> <Gold.Chemscore.DG>
-16.8982

> <Gold.Chemscore.ZeroCoef>
-5.4800

> <Gold.Chemscore.Hbond>
1.9828

> <Gold.Chemscore.Metal>
0.0000

> <Gold.Chemscore.Lipo>
62.8689

> <Gold.Chemscore.Internal_Hbond>
0.0000

> <Gold.Chemscore.DEClash>
0.0000

> <Gold.Chemscore.DEInternal>
0.0653

> <Gold.Chemscore.Rot>
1.0000

> <Gold.Chemscore.Internal.Correction>
   9.000000E+99

> <Gold.Chemscore.Hbonds>
donor molecule, donor type, donor heavy atom, donor atom, acceptor molecule, acceptor atom, score
      P1  H  6896  6907       L1    11  0.65
      P1  H  7997  8010       L1    14  0.98

> <Gold.Chemscore.Hbond.Weighted>
-6.6225

> <Gold.Chemscore.Metal.Weighted>
-0.0000

> <Gold.Chemscore.Lipo.Weighted>
-7.3557

> <Gold.Chemscore.Internal_Hbond.Weighted>
0.0000

> <Gold.Chemscore.DEClash.Weighted>
0.0000

> <Gold.Chemscore.DEInternal.Weighted>
0.0653

> <Gold.Chemscore.Rot.Weighted>
2.5600

> <Gold.Chemscore.Internal.Correction.Weighted>
   9.000000E+99

> <Gold.Protein.RotatedTorsions>
[ 6907 6896 6895 6894 ] final  -29.42 input  -60.11 | X-H torsion
[ 7974 7965 7964 7962 ] final -135.57 input  175.53 | X-H torsion
[ 8008 7997 7996 7995 ] final   93.13 input   59.86 | X-H torsion
[ 10167 10162 10161 10158 ] final   51.93 input  -65.29 | X-H torsion
[ 10718 10713 10712 10709 ] final  -65.30 input   66.30 | X-H torsion
[ 10763 10752 10751 10750 ] final -113.84 input  -60.55 | X-H torsion
[ 11005 11000 10999 10996 ] final -153.87 input  -57.11 | X-H torsion

> <Gold.Protein.ActiveResidues>
 VAL166  LYS551  ARG553  GLY616  TRP617  ASP618  TYR619  PRO620  LYS621  CYS622 
 ASP623  PHE694  ASN695  SER759  ASP760  ASP761  ALA762  ILE779  LEU786  VAL792 
 PHE793  MET794  SER795  GLU796  ALA797  LYS798  CYS799  TRP800  GLU811  SER814 

> <Gold.Protein.RotatedAtoms>
  151.1194  135.0071  159.8530 H   0  0  0  0  0  0  0  0  0  0  0  0  # atno 6907 bound_to 6896
  152.5447  134.1741  159.8619 H   0  0  0  0  0  0  0  0  0  0  0  0  # atno 6908 bound_to 6896
  151.1798  133.4687  159.2627 H   0  0  0  0  0  0  0  0  0  0  0  0  # atno 6909 bound_to 6896
  144.9002  140.6761  143.5089 H   0  0  0  0  0  0  0  0  0  0  0  0  # atno 7974 bound_to 7965
  156.0433  140.3317  155.7268 H   0  0  0  0  0  0  0  0  0  0  0  0  # atno 8008 bound_to 7997
  155.5712  140.0628  157.2823 H   0  0  0  0  0  0  0  0  0  0  0  0  # atno 8009 bound_to 7997
  154.4402  140.1860  156.0869 H   0  0  0  0  0  0  0  0  0  0  0  0  # atno 8010 bound_to 7997
  140.2567  144.3418  150.6331 H   0  0  0  0  0  0  0  0  0  0  0  0  # atno 10167 bound_to 10162
  156.0678  130.4245  150.1544 H   0  0  0  0  0  0  0  0  0  0  0  0  # atno 10718 bound_to 10713
  154.8414  135.4439  154.1413 H   0  0  0  0  0  0  0  0  0  0  0  0  # atno 10763 bound_to 10752
  153.2597  135.6935  153.7597 H   0  0  0  0  0  0  0  0  0  0  0  0  # atno 10764 bound_to 10752
  153.6878  135.3392  155.3170 H   0  0  0  0  0  0  0  0  0  0  0  0  # atno 10765 bound_to 10752
  140.7034  134.3912  157.5207 H   0  0  0  0  0  0  0  0  0  0  0  0  # atno 11005 bound_to 11000
  145.3629  139.1677  143.4373 LP  0  0  0  0  0  0  0  0  0  0  0  0  # atno 17320 bound_to 7965
  146.3104  140.3693  142.8672 LP  0  0  0  0  0  0  0  0  0  0  0  0  # atno 17321 bound_to 7965
  140.5998  143.2167  151.7094 LP  0  0  0  0  0  0  0  0  0  0  0  0  # atno 17342 bound_to 10162
  139.5029  144.3811  152.0375 LP  0  0  0  0  0  0  0  0  0  0  0  0  # atno 17343 bound_to 10162
  156.9600  130.9802  151.3481 LP  0  0  0  0  0  0  0  0  0  0  0  0  # atno 17370 bound_to 10713
  157.5730  130.8324  149.8417 LP  0  0  0  0  0  0  0  0  0  0  0  0  # atno 17371 bound_to 10713
  139.8890  134.8840  156.2441 LP  0  0  0  0  0  0  0  0  0  0  0  0  # atno 17394 bound_to 11000
  141.0144  133.7077  156.1165 LP  0  0  0  0  0  0  0  0  0  0  0  0  # atno 17395 bound_to 11000

$$$$
