AV-unprocessed.smi:2579|AV-procd|sdf|10123|dock5
  -GOLD-   2272014143D 1   1.00000     0.00000
 Structure written by MMmdl.
 39 41  0  0  0  0  0  0  0  0  2 V2000
  148.7450  140.3039  153.3943 O   0  0  0  0  0  0  0  0  0  0  0  0
  147.9673  141.3776  153.8782 C   0  0  0  0  0  0  0  0  0  0  0  0
  148.7957  142.2261  154.8564 C   0  0  0  0  0  0  0  0  0  0  0  0
  149.5832  141.4105  155.7705 N   0  0  0  0  0  0  0  0  0  0  0  0
  150.2553  142.0109  156.8419 C   0  0  0  0  0  0  0  0  0  0  0  0
  150.0666  143.2779  157.2988 N   0  3  0  0  0  0  0  0  0  0  0  0
  150.9332  143.4916  158.3744 C   0  0  0  0  0  0  0  0  0  0  0  0
  151.1272  144.6135  159.1747 C   0  0  0  0  0  0  0  0  0  0  0  0
  152.0985  144.5065  160.1915 C   0  0  0  0  0  0  0  0  0  0  0  0
  152.8360  143.3202  160.3826 C   0  0  0  0  0  0  0  0  0  0  0  0
  152.6327  142.1876  159.5672 C   0  0  0  0  0  0  0  0  0  0  0  0
  151.6683  142.2968  158.5656 C   0  0  0  0  0  0  0  0  0  0  0  0
  151.2080  141.4000  157.5923 N   0  0  0  0  0  0  0  0  0  0  0  0
  151.7762  140.0475  157.5097 C   0  0  0  0  0  0  0  0  0  0  0  0
  152.2155  139.6912  156.0806 C   0  0  2  0  0  0  0  0  0  0  0  0
  151.2260  138.7935  155.3383 C   0  0  0  0  0  0  0  0  0  0  0  0
  152.1304  138.0824  154.3582 C   0  0  0  0  0  0  0  0  0  0  0  0
  153.3789  137.8595  155.2046 C   0  0  0  0  0  0  0  0  0  0  0  0
  153.4535  138.9815  156.0786 O   0  0  0  0  0  0  0  0  0  0  0  0
  149.0565  140.5227  152.5291 H   0  0  0  0  0  0  0  0  0  0  0  0
  147.5763  141.9681  153.0492 H   0  0  0  0  0  0  0  0  0  0  0  0
  147.1098  140.9522  154.3998 H   0  0  0  0  0  0  0  0  0  0  0  0
  149.4702  142.8751  154.2970 H   0  0  0  0  0  0  0  0  0  0  0  0
  148.1483  142.8897  155.4304 H   0  0  0  0  0  0  0  0  0  0  0  0
  149.8432  140.4780  155.4819 H   0  0  0  0  0  0  0  0  0  0  0  0
  150.5669  145.5256  159.0302 H   0  0  0  0  0  0  0  0  0  0  0  0
  152.2831  145.3525  160.8376 H   0  0  0  0  0  0  0  0  0  0  0  0
  153.5742  143.2776  161.1704 H   0  0  0  0  0  0  0  0  0  0  0  0
  153.2086  141.2866  159.7185 H   0  0  0  0  0  0  0  0  0  0  0  0
  152.6070  139.9689  158.2112 H   0  0  0  0  0  0  0  0  0  0  0  0
  151.0157  139.3460  157.8540 H   0  0  0  0  0  0  0  0  0  0  0  0
  152.3676  140.6045  155.5031 H   0  0  0  0  0  0  0  0  0  0  0  0
  150.7750  138.0688  156.0180 H   0  0  0  0  0  0  0  0  0  0  0  0
  150.4247  139.3530  154.8550 H   0  0  0  0  0  0  0  0  0  0  0  0
  151.7046  137.1555  153.9732 H   0  0  0  0  0  0  0  0  0  0  0  0
  152.3568  138.7352  153.5142 H   0  0  0  0  0  0  0  0  0  0  0  0
  153.2723  136.9576  155.8088 H   0  0  0  0  0  0  0  0  0  0  0  0
  154.2820  137.7599  154.6021 H   0  0  0  0  0  0  0  0  0  0  0  0
  149.4045  143.9363  156.9095 H   0  0  0  0  0  0  0  0  0  0  0  0
  1  2  1  0  0  0  0
  1 20  1  0  0  0  0
  2  3  1  0  0  0  0
  2 21  1  0  0  0  0
  2 22  1  0  0  0  0
  3  4  1  0  0  0  0
  3 23  1  0  0  0  0
  3 24  1  0  0  0  0
  4  5  1  0  0  0  0
  4 25  1  0  0  0  0
  5 13  1  0  0  0  0
  5  6  2  0  0  0  0
  6  7  1  0  0  0  0
  6 39  1  0  0  0  0
  7 12  2  0  0  0  0
  7  8  1  0  0  0  0
  8  9  2  0  0  0  0
  8 26  1  0  0  0  0
  9 10  1  0  0  0  0
  9 27  1  0  0  0  0
 10 11  2  0  0  0  0
 10 28  1  0  0  0  0
 11 12  1  0  0  0  0
 11 29  1  0  0  0  0
 12 13  1  0  0  0  0
 13 14  1  0  0  0  0
 14 15  1  0  0  0  0
 14 30  1  0  0  0  0
 14 31  1  0  0  0  0
 15 19  1  0  0  0  0
 15 16  1  0  0  0  0
 15 32  1  0  0  0  0
 16 17  1  0  0  0  0
 16 33  1  0  0  0  0
 16 34  1  0  0  0  0
 17 18  1  0  0  0  0
 17 35  1  0  0  0  0
 17 36  1  0  0  0  0
 18 19  1  0  0  0  0
 18 37  1  0  0  0  0
 18 38  1  0  0  0  0
M  CHG  1   6   1
M  END
> <s_m_source_file>
AV-unprocessed.smi

> <i_m_source_file_index>
2579

> <i_lp_mmshare_version>
43012

> <i_f3d_flags>
0

> <s_epik_input>
W09IXVtDSDJdW0NIMl1bTkhdYyhuMSluKGMoYzEyKVtjSF1bY0hdW2NIXVtjSF0yKVtDSDJdW0NAQEhdM1tDSDJdW0NIMl1bQ0gyXU8z

> <s_epik_cmdline>
J2VwaWtfcHl0aG9uJywgJy1waCcsICc3LjAnLCAnLXRuJywgJzgnLCAnLW1hJywgJzIwMCcsICctbWV0YWxfYmluZGluZycsICctaW1hZScsICc8aW5maWxlLm1hZT4nLCAnLW9tYWUnLCAnPG91dGZpbGUubWFlPic=

> <r_epik_Ionization_Penalty>
0.0735651

> <r_epik_Ionization_Penalty_Charging>
0.0735628

> <r_epik_Ionization_Penalty_Neutral>
2.35277e-06

> <r_epik_State_Penalty>
0.0647164

> <r_epik_Charging_Adjusted_Penalty>
0.138279

> <i_epik_Tot_Q>
1

> <i_epik_Tot_abs_Q>
1

> <r_epik_Metal_State_Penalty>
2.81856

> <b_epik_Metal_Only>
0

> <s_lp_Force_Field>
OPLS_2005

> <r_lp_Energy>
32.6829

> <b_lp_Chiralities_Consistent>
1

> <s_lp_Variant>
AV-unprocessed.smi:2579-1

> <Gold.Version>
5.8.1

> <Gold.Id.Protein>
6NUR|6NUR_protein|mol2

> <Gold.PLP.Fitness>
48.5952

> <Gold.PLP.PLP>
-38.2011

> <Gold.PLP.part.hbond>
-2.2742

> <Gold.PLP.part.metal>
0.0000

> <Gold.PLP.part.buried>
1.0490

> <Gold.PLP.part.nonpolar>
-37.7092

> <Gold.PLP.part.repulsive>
0.1061

> <Gold.PLP.ligand.clash>
0.0000

> <Gold.PLP.ligand.torsion>
0.7814

> <Gold.PLP.Chemscore.Hbond>
3.9840

> <Gold.PLP.Chemscore.CHOScore>
0.0000

> <Gold.PLP.Chemscore.Metal>
0.0000

> <Gold.Chemscore.Hbonds>
donor molecule, donor type, donor heavy atom, donor atom, acceptor molecule, acceptor atom, score
      L1  H     1    20       P1  7957  0.99
      L1  H     6    39       P1  8028  1.98
      P1  H  7997  8009       L1    19  0.78

> <Gold.PLP.Chemscore.Internal.Correction>
0.0049

> <Gold.Rescore>
     Score         DG    S(hbond)    S(metal)    S(lipo)     H(rot)  DE(clash)    DE(int)     intcor
     17.46     -21.15       2.33        0.00     115.96       2.22       2.74       0.95       ----

> <Gold.Chemscore.Fitness>
17.4624

> <Gold.Chemscore.DG>
-21.1480

> <Gold.Chemscore.ZeroCoef>
-5.4800

> <Gold.Chemscore.Hbond>
2.3308

> <Gold.Chemscore.Metal>
0.0000

> <Gold.Chemscore.Lipo>
115.9568

> <Gold.Chemscore.Internal_Hbond>
0.0000

> <Gold.Chemscore.DEClash>
2.7358

> <Gold.Chemscore.DEInternal>
0.9499

> <Gold.Chemscore.Rot>
2.2202

> <Gold.Chemscore.Internal.Correction>
   9.000000E+99

> <Gold.Chemscore.Hbonds>
donor molecule, donor type, donor heavy atom, donor atom, acceptor molecule, acceptor atom, score
      L1  H     1    20       P1  7957  0.89
      L1  H     6    39       P1  8028  0.66
      P1  H  7997  8009       L1    19  0.16

> <Gold.Chemscore.Hbond.Weighted>
-7.7848

> <Gold.Chemscore.Metal.Weighted>
-0.0000

> <Gold.Chemscore.Lipo.Weighted>
-13.5669

> <Gold.Chemscore.Internal_Hbond.Weighted>
0.0000

> <Gold.Chemscore.DEClash.Weighted>
2.7358

> <Gold.Chemscore.DEInternal.Weighted>
0.9499

> <Gold.Chemscore.Rot.Weighted>
5.6837

> <Gold.Chemscore.Internal.Correction.Weighted>
   9.000000E+99

> <Gold.Protein.RotatedTorsions>
[ 6907 6896 6895 6894 ] final  -18.95 input  -60.11 | X-H torsion
[ 7974 7965 7964 7962 ] final  -41.46 input  175.53 | X-H torsion
[ 8008 7997 7996 7995 ] final -167.78 input   59.86 | X-H torsion
[ 10167 10162 10161 10158 ] final   78.85 input  -65.29 | X-H torsion
[ 10718 10713 10712 10709 ] final  145.50 input   66.30 | X-H torsion
[ 10763 10752 10751 10750 ] final   -4.87 input  -60.55 | X-H torsion
[ 11005 11000 10999 10996 ] final -149.96 input  -57.11 | X-H torsion

> <Gold.Protein.ActiveResidues>
 VAL166  LYS551  ARG553  GLY616  TRP617  ASP618  TYR619  PRO620  LYS621  CYS622 
 ASP623  PHE694  ASN695  SER759  ASP760  ASP761  ALA762  ILE779  LEU786  VAL792 
 PHE793  MET794  SER795  GLU796  ALA797  LYS798  CYS799  TRP800  GLU811  SER814 

> <Gold.Protein.RotatedAtoms>
  151.2705  135.0683  159.9131 H   0  0  0  0  0  0  0  0  0  0  0  0  # atno 6907 bound_to 6896
  152.5351  134.0136  159.7960 H   0  0  0  0  0  0  0  0  0  0  0  0  # atno 6908 bound_to 6896
  151.0373  133.5687  159.2685 H   0  0  0  0  0  0  0  0  0  0  0  0  # atno 6909 bound_to 6896
  146.0208  140.6852  142.9179 H   0  0  0  0  0  0  0  0  0  0  0  0  # atno 7974 bound_to 7965
  155.8824  140.1011  157.1476 H   0  0  0  0  0  0  0  0  0  0  0  0  # atno 8008 bound_to 7997
  154.4006  140.1326  156.4276 H   0  0  0  0  0  0  0  0  0  0  0  0  # atno 8009 bound_to 7997
  155.7628  140.3462  155.5209 H   0  0  0  0  0  0  0  0  0  0  0  0  # atno 8010 bound_to 7997
  139.9666  144.5924  150.8023 H   0  0  0  0  0  0  0  0  0  0  0  0  # atno 10167 bound_to 10162
  157.3445  131.0941  151.1053 H   0  0  0  0  0  0  0  0  0  0  0  0  # atno 10718 bound_to 10713
  153.3908  135.7002  153.6496 H   0  0  0  0  0  0  0  0  0  0  0  0  # atno 10763 bound_to 10752
  153.5070  135.3640  155.2568 H   0  0  0  0  0  0  0  0  0  0  0  0  # atno 10764 bound_to 10752
  154.8702  135.4125  154.3224 H   0  0  0  0  0  0  0  0  0  0  0  0  # atno 10765 bound_to 10752
  140.7452  134.3469  157.5138 H   0  0  0  0  0  0  0  0  0  0  0  0  # atno 11005 bound_to 11000
  144.6989  140.3563  143.7172 LP  0  0  0  0  0  0  0  0  0  0  0  0  # atno 17320 bound_to 7965
  145.7195  139.1706  143.2492 LP  0  0  0  0  0  0  0  0  0  0  0  0  # atno 17321 bound_to 7965
  140.7536  143.3011  151.3078 LP  0  0  0  0  0  0  0  0  0  0  0  0  # atno 17342 bound_to 10162
  139.6513  144.0357  152.2628 LP  0  0  0  0  0  0  0  0  0  0  0  0  # atno 17343 bound_to 10162
  157.2253  130.6500  149.5827 LP  0  0  0  0  0  0  0  0  0  0  0  0  # atno 17370 bound_to 10713
  155.9712  130.4616  150.6116 LP  0  0  0  0  0  0  0  0  0  0  0  0  # atno 17371 bound_to 10713
  139.8798  134.9107  156.3019 LP  0  0  0  0  0  0  0  0  0  0  0  0  # atno 17394 bound_to 11000
  140.9800  133.7273  156.0658 LP  0  0  0  0  0  0  0  0  0  0  0  0  # atno 17395 bound_to 11000

$$$$
