AV-unprocessed.smi:1363|AV-procd|sdf|5566|dock3
  -GOLD-   22720 5163D 1   1.00000     0.00000
 Structure written by MMmdl.
 43 44  0  0  0  0  0  0  0  0  2 V2000
  148.3433  133.6964  158.5482 C   0  0  0  0  0  0  0  0  0  0  0  0
  148.9403  134.6294  157.5165 C   0  0  0  0  0  0  0  0  0  0  0  0
  148.1630  135.3085  156.7621 N   0  0  0  0  0  0  0  0  0  0  0  0
  148.7137  136.1779  155.8054 C   0  0  0  0  0  0  0  0  0  0  0  0
  147.7169  136.9507  154.9593 C   0  0  0  0  0  0  0  0  0  0  0  0
  150.0640  136.3078  155.6638 C   0  0  0  0  0  0  0  0  0  0  0  0
  150.7098  137.2482  154.6459 C   0  0  0  0  0  0  0  0  0  0  0  0
  151.6819  138.2865  155.2120 C   0  0  0  0  0  0  0  0  0  0  0  0
  152.8958  138.1637  155.0465 O   0  0  0  0  0  0  0  0  0  0  0  0
  151.1296  139.3131  155.8762 N   0  0  0  0  0  0  0  0  0  0  0  0
  151.8674  140.4198  156.4732 C   0  0  0  0  0  0  0  0  0  0  0  0
  150.9145  141.5172  156.9869 C   0  0  0  0  0  0  0  0  0  0  0  0
  151.5387  142.5599  157.9091 C   0  0  0  0  0  0  0  0  0  0  0  0
  151.4919  143.8923  157.6942 C   0  0  0  0  0  0  0  0  0  0  0  0
  152.0834  144.9305  158.6319 C   0  0  0  0  0  0  0  0  0  0  0  0
  152.4210  144.3490  160.0138 C   0  0  0  0  0  0  0  0  0  0  0  0
  153.1117  142.9876  159.8825 C   0  0  0  0  0  0  0  0  0  0  0  0
  152.2194  141.9756  159.1418 C   0  0  0  0  0  0  0  0  0  0  0  0
  150.9251  135.4998  156.5460 C   0  0  0  0  0  0  0  0  0  0  0  0
  152.1499  135.5656  156.4491 O   0  0  0  0  0  0  0  0  0  0  0  0
  150.3144  134.6879  157.4556 N   0  5  0  0  0  0  0  0  0  0  0  0
  147.2533  133.7338  158.5296 H   0  0  0  0  0  0  0  0  0  0  0  0
  148.6775  133.9747  159.5480 H   0  0  0  0  0  0  0  0  0  0  0  0
  148.6532  132.6694  158.3528 H   0  0  0  0  0  0  0  0  0  0  0  0
  147.8093  138.0210  155.1432 H   0  0  0  0  0  0  0  0  0  0  0  0
  146.6922  136.6580  155.1909 H   0  0  0  0  0  0  0  0  0  0  0  0
  147.8849  136.7632  153.8987 H   0  0  0  0  0  0  0  0  0  0  0  0
  151.2399  136.6382  153.9139 H   0  0  0  0  0  0  0  0  0  0  0  0
  149.9505  137.7743  154.0669 H   0  0  0  0  0  0  0  0  0  0  0  0
  150.1240  139.3331  155.9649 H   0  0  0  0  0  0  0  0  0  0  0  0
  152.4555  140.0166  157.2980 H   0  0  0  0  0  0  0  0  0  0  0  0
  152.5743  140.8268  155.7481 H   0  0  0  0  0  0  0  0  0  0  0  0
  150.4783  142.0456  156.1380 H   0  0  0  0  0  0  0  0  0  0  0  0
  150.0844  141.0504  157.5187 H   0  0  0  0  0  0  0  0  0  0  0  0
  151.0196  144.2947  156.8114 H   0  0  0  0  0  0  0  0  0  0  0  0
  152.9808  145.3354  158.1633 H   0  0  0  0  0  0  0  0  0  0  0  0
  151.3813  145.7575  158.7404 H   0  0  0  0  0  0  0  0  0  0  0  0
  153.0514  145.0448  160.5682 H   0  0  0  0  0  0  0  0  0  0  0  0
  151.5048  144.2314  160.5943 H   0  0  0  0  0  0  0  0  0  0  0  0
  154.0488  143.1133  159.3384 H   0  0  0  0  0  0  0  0  0  0  0  0
  153.3762  142.5995  160.8664 H   0  0  0  0  0  0  0  0  0  0  0  0
  151.4411  141.6081  159.8117 H   0  0  0  0  0  0  0  0  0  0  0  0
  152.8185  141.1113  158.8535 H   0  0  0  0  0  0  0  0  0  0  0  0
  1  2  1  0  0  0  0
  1 22  1  0  0  0  0
  1 23  1  0  0  0  0
  1 24  1  0  0  0  0
  2 21  1  0  0  0  0
  2  3  2  0  0  0  0
  3  4  1  0  0  0  0
  4  5  1  0  0  0  0
  4  6  2  0  0  0  0
  5 25  1  0  0  0  0
  5 26  1  0  0  0  0
  5 27  1  0  0  0  0
  6  7  1  0  0  0  0
  6 19  1  0  0  0  0
  7  8  1  0  0  0  0
  7 28  1  0  0  0  0
  7 29  1  0  0  0  0
  8  9  2  0  0  0  0
  8 10  1  0  0  0  0
 10 11  1  0  0  0  0
 10 30  1  0  0  0  0
 11 12  1  0  0  0  0
 11 31  1  0  0  0  0
 11 32  1  0  0  0  0
 12 13  1  0  0  0  0
 12 33  1  0  0  0  0
 12 34  1  0  0  0  0
 13 18  1  0  0  0  0
 13 14  2  0  0  0  0
 14 15  1  0  0  0  0
 14 35  1  0  0  0  0
 15 16  1  0  0  0  0
 15 36  1  0  0  0  0
 15 37  1  0  0  0  0
 16 17  1  0  0  0  0
 16 38  1  0  0  0  0
 16 39  1  0  0  0  0
 17 18  1  0  0  0  0
 17 40  1  0  0  0  0
 17 41  1  0  0  0  0
 18 42  1  0  0  0  0
 18 43  1  0  0  0  0
 19 20  2  0  0  0  0
 19 21  1  0  0  0  0
M  CHG  1  21  -1
M  END
> <s_m_source_file>
AV-unprocessed.smi

> <i_m_source_file_index>
1363

> <i_lp_mmshare_version>
43012

> <i_f3d_flags>
0

> <s_epik_input>
W0NIM11jMW5jKFtDSDNdKWMoYyg9TylbbkhdMSlbQ0gyXUMoPU8pW05IXVtDSDJdW0NIMl1DMj1bQ0hdW0NIMl1bQ0gyXVtDSDJdW0NIMl0y

> <s_epik_cmdline>
J2VwaWtfcHl0aG9uJywgJy1waCcsICc3LjAnLCAnLXRuJywgJzgnLCAnLW1hJywgJzIwMCcsICctbWV0YWxfYmluZGluZycsICctaW1hZScsICc8aW5maWxlLm1hZT4nLCAnLW9tYWUnLCAnPG91dGZpbGUubWFlPic=

> <r_lp_tautomer_probability>
0.839158

> <r_epik_Ionization_Penalty>
6.61902

> <r_epik_Ionization_Penalty_Charging>
7.01438e-08

> <r_epik_Ionization_Penalty_Neutral>
6.61902

> <r_epik_State_Penalty>
4.43873

> <r_epik_Charging_Adjusted_Penalty>
4.43873

> <i_epik_Tot_Q>
-1

> <i_epik_Tot_abs_Q>
1

> <r_epik_Metal_State_Penalty>
0.802113

> <b_epik_Metal_Only>
1

> <s_lp_Force_Field>
OPLS_2005

> <r_lp_Energy>
12.6483

> <b_lp_Chiralities_Consistent>
1

> <s_lp_Variant>
AV-unprocessed.smi:1363-3

> <Gold.Version>
5.8.1

> <Gold.Id.Protein>
6NUR|6NUR_protein|mol2

> <Gold.PLP.Fitness>
44.9462

> <Gold.PLP.PLP>
-37.7499

> <Gold.PLP.part.hbond>
-2.7013

> <Gold.PLP.part.metal>
0.0000

> <Gold.PLP.part.buried>
-6.0034

> <Gold.PLP.part.nonpolar>
-29.6020

> <Gold.PLP.part.repulsive>
0.1150

> <Gold.PLP.ligand.clash>
0.0000

> <Gold.PLP.ligand.torsion>
0.2679

> <Gold.PLP.Chemscore.Hbond>
2.5680

> <Gold.PLP.Chemscore.CHOScore>
0.0000

> <Gold.PLP.Chemscore.Metal>
0.0000

> <Gold.Chemscore.Hbonds>
donor molecule, donor type, donor heavy atom, donor atom, acceptor molecule, acceptor atom, score
      P1  H  6896  6908       L1    21  1.18
      P1  H 10752 10765       L1    20  0.99

> <Gold.PLP.Chemscore.Internal.Correction>
0.0282

> <Gold.Rescore>
     Score         DG    S(hbond)    S(metal)    S(lipo)     H(rot)  DE(clash)    DE(int)     intcor
     17.08     -17.37       1.52        0.00      97.74       1.80       0.02       0.26       ----

> <Gold.Chemscore.Fitness>
17.0785

> <Gold.Chemscore.DG>
-17.3660

> <Gold.Chemscore.ZeroCoef>
-5.4800

> <Gold.Chemscore.Hbond>
1.5158

> <Gold.Chemscore.Metal>
0.0000

> <Gold.Chemscore.Lipo>
97.7411

> <Gold.Chemscore.Internal_Hbond>
0.0000

> <Gold.Chemscore.DEClash>
0.0232

> <Gold.Chemscore.DEInternal>
0.2643

> <Gold.Chemscore.Rot>
1.8018

> <Gold.Chemscore.Internal.Correction>
   9.000000E+99

> <Gold.Chemscore.Hbonds>
donor molecule, donor type, donor heavy atom, donor atom, acceptor molecule, acceptor atom, score
      P1  H  6896  6908       L1    21  0.11
      P1  H 10752 10765       L1    20  0.94

> <Gold.Chemscore.Hbond.Weighted>
-5.0629

> <Gold.Chemscore.Metal.Weighted>
-0.0000

> <Gold.Chemscore.Lipo.Weighted>
-11.4357

> <Gold.Chemscore.Internal_Hbond.Weighted>
0.0000

> <Gold.Chemscore.DEClash.Weighted>
0.0232

> <Gold.Chemscore.DEInternal.Weighted>
0.2643

> <Gold.Chemscore.Rot.Weighted>
4.6126

> <Gold.Chemscore.Internal.Correction.Weighted>
   9.000000E+99

> <Gold.Protein.RotatedTorsions>
[ 6907 6896 6895 6894 ] final  144.83 input  -60.11 | X-H torsion
[ 7974 7965 7964 7962 ] final   26.38 input  175.53 | X-H torsion
[ 8008 7997 7996 7995 ] final  -46.30 input   59.86 | X-H torsion
[ 10167 10162 10161 10158 ] final  -50.06 input  -65.29 | X-H torsion
[ 10718 10713 10712 10709 ] final   -9.14 input   66.30 | X-H torsion
[ 10763 10752 10751 10750 ] final -160.94 input  -60.55 | X-H torsion
[ 11005 11000 10999 10996 ] final   23.78 input  -57.11 | X-H torsion

> <Gold.Protein.ActiveResidues>
 VAL166  LYS551  ARG553  GLY616  TRP617  ASP618  TYR619  PRO620  LYS621  CYS622 
 ASP623  PHE694  ASN695  SER759  ASP760  ASP761  ALA762  ILE779  LEU786  VAL792 
 PHE793  MET794  SER795  GLU796  ALA797  LYS798  CYS799  TRP800  GLU811  SER814 

> <Gold.Protein.RotatedAtoms>
  152.1887  133.4758  159.4996 H   0  0  0  0  0  0  0  0  0  0  0  0  # atno 6907 bound_to 6896
  150.6947  134.1740  159.4232 H   0  0  0  0  0  0  0  0  0  0  0  0  # atno 6908 bound_to 6896
  151.9654  135.0103  160.0600 H   0  0  0  0  0  0  0  0  0  0  0  0  # atno 6909 bound_to 6896
  146.1840  139.7337  142.8879 H   0  0  0  0  0  0  0  0  0  0  0  0  # atno 7974 bound_to 7965
  154.4006  140.1375  156.3989 H   0  0  0  0  0  0  0  0  0  0  0  0  # atno 8008 bound_to 7997
  155.7843  140.3480  155.5294 H   0  0  0  0  0  0  0  0  0  0  0  0  # atno 8009 bound_to 7997
  155.8642  140.0961  157.1583 H   0  0  0  0  0  0  0  0  0  0  0  0  # atno 8010 bound_to 7997
  140.6656  143.2673  151.4304 H   0  0  0  0  0  0  0  0  0  0  0  0  # atno 10167 bound_to 10162
  156.6924  130.5069  149.5940 H   0  0  0  0  0  0  0  0  0  0  0  0  # atno 10718 bound_to 10713
  154.7346  135.3054  154.8832 H   0  0  0  0  0  0  0  0  0  0  0  0  # atno 10763 bound_to 10752
  153.9665  135.6747  153.4750 H   0  0  0  0  0  0  0  0  0  0  0  0  # atno 10764 bound_to 10752
  153.0951  135.4940  154.8685 H   0  0  0  0  0  0  0  0  0  0  0  0  # atno 10765 bound_to 10752
  140.3659  134.2075  155.7669 H   0  0  0  0  0  0  0  0  0  0  0  0  # atno 11005 bound_to 11000
  145.3992  141.0383  143.3080 LP  0  0  0  0  0  0  0  0  0  0  0  0  # atno 17320 bound_to 7965
  144.8365  139.5541  143.6920 LP  0  0  0  0  0  0  0  0  0  0  0  0  # atno 17321 bound_to 7965
  139.5903  144.1513  152.2080 LP  0  0  0  0  0  0  0  0  0  0  0  0  # atno 17342 bound_to 10162
  140.0865  144.5656  150.7084 LP  0  0  0  0  0  0  0  0  0  0  0  0  # atno 17343 bound_to 10162
  156.1788  130.6485  151.0926 LP  0  0  0  0  0  0  0  0  0  0  0  0  # atno 17370 bound_to 10713
  157.7004  131.0778  150.6838 LP  0  0  0  0  0  0  0  0  0  0  0  0  # atno 17371 bound_to 10713
  141.1970  133.8070  157.0649 LP  0  0  0  0  0  0  0  0  0  0  0  0  # atno 17394 bound_to 11000
  140.0590  134.9765  157.1271 LP  0  0  0  0  0  0  0  0  0  0  0  0  # atno 17395 bound_to 11000

$$$$
