AV-unprocessed.smi:37|AV-procd|sdf|329|dock2
  -GOLD-   2262016153D 1   1.00000     0.00000
 Structure written by MMmdl.
 43 44  0  0  0  0  0  0  0  0  2 V2000
  146.8091  134.1582  162.4931 C   0  0  0  0  0  0  0  0  0  0  0  0
  148.0553  135.0380  162.3168 C   0  0  0  0  0  0  0  0  0  0  0  0
  147.9066  136.1013  161.2264 C   0  0  0  0  0  0  0  0  0  0  0  0
  147.9075  137.3090  161.4716 O   0  0  0  0  0  0  0  0  0  0  0  0
  147.7855  135.5506  160.0131 O   0  0  0  0  0  0  0  0  0  0  0  0
  147.7028  136.3708  158.8589 C   0  0  0  0  0  0  0  0  0  0  0  0
  148.8171  136.0345  157.8503 C   0  0  2  0  0  0  0  0  0  0  0  0
  150.1256  136.1175  158.4128 O   0  0  0  0  0  0  0  0  0  0  0  0
  151.0428  136.5777  157.4579 C   0  0  2  0  0  0  0  0  0  0  0  0
  151.5355  137.9599  157.8525 N   0  0  0  0  0  0  0  0  0  0  0  0
  151.1187  139.0985  157.1806 C   0  0  0  0  0  0  0  0  0  0  0  0
  151.5555  140.3237  157.5353 C   0  0  0  0  0  0  0  0  0  0  0  0
  151.1353  141.4056  156.8572 F   0  0  0  0  0  0  0  0  0  0  0  0
  152.4830  140.4641  158.6550 C   0  0  0  0  0  0  0  0  0  0  0  0
  152.9045  141.5803  158.9534 O   0  0  0  0  0  0  0  0  0  0  0  0
  152.8416  139.3340  159.3294 N   0  5  0  0  0  0  0  0  0  0  0  0
  152.3889  138.0935  158.9831 C   0  0  0  0  0  0  0  0  0  0  0  0
  152.6826  137.0742  159.6079 O   0  0  0  0  0  0  0  0  0  0  0  0
  150.2985  136.6179  156.1091 C   0  0  1  0  0  0  0  0  0  0  0  0
  150.4952  134.8572  155.1975 Br  0  0  0  0  0  0  0  0  0  0  0  0
  148.8488  136.8078  156.5248 C   0  0  2  0  0  0  0  0  0  0  0  0
  148.5528  138.1885  156.7077 O   0  0  0  0  0  0  0  0  0  0  0  0
  148.4540  139.0156  155.6509 C   0  0  0  0  0  0  0  0  0  0  0  0
  148.5663  138.6900  154.4691 O   0  0  0  0  0  0  0  0  0  0  0  0
  148.1500  140.4587  156.0504 C   0  0  0  0  0  0  0  0  0  0  0  0
  148.0822  141.4079  154.8462 C   0  0  0  0  0  0  0  0  0  0  0  0
  146.9662  133.4265  163.2855 H   0  0  0  0  0  0  0  0  0  0  0  0
  146.5776  133.6097  161.5793 H   0  0  0  0  0  0  0  0  0  0  0  0
  145.9352  134.7528  162.7623 H   0  0  0  0  0  0  0  0  0  0  0  0
  148.2852  135.5401  163.2570 H   0  0  0  0  0  0  0  0  0  0  0  0
  148.9155  134.4128  162.0759 H   0  0  0  0  0  0  0  0  0  0  0  0
  146.7276  136.2344  158.3900 H   0  0  0  0  0  0  0  0  0  0  0  0
  147.7787  137.4198  159.1490 H   0  0  0  0  0  0  0  0  0  0  0  0
  148.6919  134.9822  157.5916 H   0  0  0  0  0  0  0  0  0  0  0  0
  151.9420  135.9596  157.4516 H   0  0  0  0  0  0  0  0  0  0  0  0
  150.4251  139.0296  156.3595 H   0  0  0  0  0  0  0  0  0  0  0  0
  150.6713  137.3835  155.4292 H   0  0  0  0  0  0  0  0  0  0  0  0
  148.1530  136.3782  155.8024 H   0  0  0  0  0  0  0  0  0  0  0  0
  147.1963  140.4738  156.5788 H   0  0  0  0  0  0  0  0  0  0  0  0
  148.9071  140.8005  156.7562 H   0  0  0  0  0  0  0  0  0  0  0  0
  147.7082  142.3860  155.1481 H   0  0  0  0  0  0  0  0  0  0  0  0
  147.4201  141.0254  154.0682 H   0  0  0  0  0  0  0  0  0  0  0  0
  149.0688  141.5574  154.4079 H   0  0  0  0  0  0  0  0  0  0  0  0
  1  2  1  0  0  0  0
  1 27  1  0  0  0  0
  1 28  1  0  0  0  0
  1 29  1  0  0  0  0
  2  3  1  0  0  0  0
  2 30  1  0  0  0  0
  2 31  1  0  0  0  0
  3  4  2  0  0  0  0
  3  5  1  0  0  0  0
  5  6  1  0  0  0  0
  6  7  1  0  0  0  0
  6 32  1  0  0  0  0
  6 33  1  0  0  0  0
  7 21  1  0  0  0  0
  7  8  1  0  0  0  0
  7 34  1  0  0  0  0
  8  9  1  0  0  0  0
  9 10  1  0  0  0  0
  9 19  1  0  0  0  0
  9 35  1  0  0  0  0
 10 17  1  0  0  0  0
 10 11  1  0  0  0  0
 11 12  2  0  0  0  0
 11 36  1  0  0  0  0
 12 13  1  0  0  0  0
 12 14  1  0  0  0  0
 14 15  2  0  0  0  0
 14 16  1  0  0  0  0
 16 17  1  0  0  0  0
 17 18  2  0  0  0  0
 19 20  1  0  0  0  0
 19 21  1  0  0  0  0
 19 37  1  0  0  0  0
 21 22  1  0  0  0  0
 21 38  1  0  0  0  0
 22 23  1  0  0  0  0
 23 24  2  0  0  0  0
 23 25  1  0  0  0  0
 25 26  1  0  0  0  0
 25 39  1  0  0  0  0
 25 40  1  0  0  0  0
 26 41  1  0  0  0  0
 26 42  1  0  0  0  0
 26 43  1  0  0  0  0
M  CHG  1  16  -1
M  END
> <s_m_source_file>
AV-unprocessed.smi

> <i_m_source_file_index>
37

> <i_lp_mmshare_version>
43012

> <i_f3d_flags>
0

> <s_epik_input>
W0NIM11bQ0gyXUMoPU8pT1tDSDJdW0NAQEhdMU9bQ0BASF0objJbY0hdYyhGKWMoPU8pW25IXWMyPU8pW0NAQEhdKEJyKVtDQEhdMU9DKD1PKVtDSDJdW0NIM10=

> <s_epik_cmdline>
J2VwaWtfcHl0aG9uJywgJy1waCcsICc3LjAnLCAnLXRuJywgJzgnLCAnLW1hJywgJzIwMCcsICctbWV0YWxfYmluZGluZycsICctaW1hZScsICc8aW5maWxlLm1hZT4nLCAnLW9tYWUnLCAnPG91dGZpbGUubWFlPic=

> <r_epik_Ionization_Penalty>
1.08158

> <r_epik_Ionization_Penalty_Charging>
9.05154e-09

> <r_epik_Ionization_Penalty_Neutral>
1.08158

> <r_epik_State_Penalty>
1.13706

> <r_epik_Charging_Adjusted_Penalty>
1.13706

> <i_epik_Tot_Q>
-1

> <i_epik_Tot_abs_Q>
1

> <r_epik_Metal_State_Penalty>
0.00343535

> <b_epik_Metal_Only>
0

> <s_epik_Chemistry_Notes>
This compound has an ester and may undergo hydrolysis at high or low pH. This compound contains an acetal/aminal-like group ( X-CH(R)-Y where X, Y are N, S, or O) that may be acid/base labile, releasing an aldehyde.

> <s_lp_Force_Field>
OPLS_2005

> <r_lp_Energy>
30.7461

> <b_lp_Chiralities_Consistent>
1

> <s_lp_Variant>
AV-unprocessed.smi:37-27

> <Gold.Version>
5.8.1

> <Gold.Id.Protein>
6NUR|6NUR_protein|mol2

> <Gold.PLP.Fitness>
41.5325

> <Gold.PLP.PLP>
-31.9586

> <Gold.PLP.part.hbond>
-4.0000

> <Gold.PLP.part.metal>
0.0000

> <Gold.PLP.part.buried>
-6.4912

> <Gold.PLP.part.nonpolar>
-21.3770

> <Gold.PLP.part.repulsive>
0.1522

> <Gold.PLP.ligand.clash>
0.0000

> <Gold.PLP.ligand.torsion>
0.6754

> <Gold.PLP.Chemscore.Hbond>
3.5360

> <Gold.PLP.Chemscore.CHOScore>
0.0000

> <Gold.PLP.Chemscore.Metal>
0.0000

> <Gold.Chemscore.Hbonds>
donor molecule, donor type, donor heavy atom, donor atom, acceptor molecule, acceptor atom, score
      P1  H  6896  6907       L1     8  0.63
      P1  H  6896  6908       L1    18  0.52
      P1  H  6931  6943       L1     4  0.99
      P1  H  6934  6947       L1     4  0.66

> <Gold.PLP.Chemscore.Internal.Correction>
0.3168

> <Gold.Rescore>
     Score         DG    S(hbond)    S(metal)    S(lipo)     H(rot)  DE(clash)    DE(int)     intcor
     11.57     -14.19       3.38        0.00      49.46       3.27       0.02       2.60       ----

> <Gold.Chemscore.Fitness>
11.5739

> <Gold.Chemscore.DG>
-14.1933

> <Gold.Chemscore.ZeroCoef>
-5.4800

> <Gold.Chemscore.Hbond>
3.3803

> <Gold.Chemscore.Metal>
0.0000

> <Gold.Chemscore.Lipo>
49.4576

> <Gold.Chemscore.Internal_Hbond>
0.0000

> <Gold.Chemscore.DEClash>
0.0199

> <Gold.Chemscore.DEInternal>
2.5995

> <Gold.Chemscore.Rot>
3.2669

> <Gold.Chemscore.Internal.Correction>
   9.000000E+99

> <Gold.Chemscore.Hbonds>
donor molecule, donor type, donor heavy atom, donor atom, acceptor molecule, acceptor atom, score
      P1  H  6896  6907       L1     8  0.50
      P1  H  6896  6908       L1    18  0.49
      P1  H  6931  6943       L1     4  0.88
      P1  H  6934  6947       L1     4  0.66

> <Gold.Chemscore.Hbond.Weighted>
-11.2902

> <Gold.Chemscore.Metal.Weighted>
-0.0000

> <Gold.Chemscore.Lipo.Weighted>
-5.7865

> <Gold.Chemscore.Internal_Hbond.Weighted>
0.0000

> <Gold.Chemscore.DEClash.Weighted>
0.0199

> <Gold.Chemscore.DEInternal.Weighted>
2.5995

> <Gold.Chemscore.Rot.Weighted>
8.3634

> <Gold.Chemscore.Internal.Correction.Weighted>
   9.000000E+99

> <Gold.Protein.RotatedTorsions>
[ 6907 6896 6895 6894 ] final  -81.26 input  -60.11 | X-H torsion
[ 7974 7965 7964 7962 ] final  -80.49 input  175.53 | X-H torsion
[ 8008 7997 7996 7995 ] final -141.31 input   59.86 | X-H torsion
[ 10167 10162 10161 10158 ] final  -77.50 input  -65.29 | X-H torsion
[ 10718 10713 10712 10709 ] final  110.14 input   66.30 | X-H torsion
[ 10763 10752 10751 10750 ] final -159.50 input  -60.55 | X-H torsion
[ 11005 11000 10999 10996 ] final  125.15 input  -57.11 | X-H torsion

> <Gold.Protein.ActiveResidues>
 VAL166  LYS551  ARG553  GLY616  TRP617  ASP618  TYR619  PRO620  LYS621  CYS622 
 ASP623  PHE694  ASN695  SER759  ASP760  ASP761  ALA762  ILE779  LEU786  VAL792 
 PHE793  MET794  SER795  GLU796  ALA797  LYS798  CYS799  TRP800  GLU811  SER814 

> <Gold.Protein.RotatedAtoms>
  150.6915  134.3844  159.5048 H   0  0  0  0  0  0  0  0  0  0  0  0  # atno 6907 bound_to 6896
  152.1642  134.8885  160.0548 H   0  0  0  0  0  0  0  0  0  0  0  0  # atno 6908 bound_to 6896
  151.9935  133.3764  159.4190 H   0  0  0  0  0  0  0  0  0  0  0  0  # atno 6909 bound_to 6896
  145.5592  140.9485  143.1456 H   0  0  0  0  0  0  0  0  0  0  0  0  # atno 7974 bound_to 7965
  155.4757  140.0556  157.2974 H   0  0  0  0  0  0  0  0  0  0  0  0  # atno 8008 bound_to 7997
  154.4680  140.2027  156.0020 H   0  0  0  0  0  0  0  0  0  0  0  0  # atno 8009 bound_to 7997
  156.1008  140.3219  155.7944 H   0  0  0  0  0  0  0  0  0  0  0  0  # atno 8010 bound_to 7997
  140.4764  143.2413  151.8125 H   0  0  0  0  0  0  0  0  0  0  0  0  # atno 10167 bound_to 10162
  157.6508  131.0927  150.6557 H   0  0  0  0  0  0  0  0  0  0  0  0  # atno 10718 bound_to 10713
  154.7470  135.3082  154.8627 H   0  0  0  0  0  0  0  0  0  0  0  0  # atno 10763 bound_to 10752
  153.9425  135.6773  153.4748 H   0  0  0  0  0  0  0  0  0  0  0  0  # atno 10764 bound_to 10752
  153.1066  135.4886  154.8889 H   0  0  0  0  0  0  0  0  0  0  0  0  # atno 10765 bound_to 10752
  139.9393  134.9637  156.8516 H   0  0  0  0  0  0  0  0  0  0  0  0  # atno 11005 bound_to 11000
  144.7491  139.7241  143.7280 LP  0  0  0  0  0  0  0  0  0  0  0  0  # atno 17320 bound_to 7965
  146.1863  139.5080  142.9834 LP  0  0  0  0  0  0  0  0  0  0  0  0  # atno 17321 bound_to 7965
  139.4826  144.4827  151.9286 LP  0  0  0  0  0  0  0  0  0  0  0  0  # atno 17342 bound_to 10162
  140.3912  144.2612  150.5899 LP  0  0  0  0  0  0  0  0  0  0  0  0  # atno 17343 bound_to 10162
  156.6868  130.4583  149.5611 LP  0  0  0  0  0  0  0  0  0  0  0  0  # atno 17370 bound_to 10713
  156.1889  130.6547  151.1039 LP  0  0  0  0  0  0  0  0  0  0  0  0  # atno 17371 bound_to 10713
  140.5994  134.0186  155.7531 LP  0  0  0  0  0  0  0  0  0  0  0  0  # atno 17394 bound_to 11000
  141.1020  133.9753  157.3062 LP  0  0  0  0  0  0  0  0  0  0  0  0  # atno 17395 bound_to 11000

$$$$
