AV-unprocessed.smi:2124|AV-procd|sdf|8665|dock8
  -GOLD-   2272011413D 1   1.00000     0.00000
 Structure written by MMmdl.
 47 49  0  0  0  0  0  0  0  0  1 V2000
  141.5838  140.0848  155.4369 C   0  0  0  0  0  0  0  0  0  0  0  0
  142.5880  140.8938  156.2286 C   0  0  0  0  0  0  0  0  0  0  0  0
  143.6445  141.3672  155.4682 N   0  0  0  0  0  0  0  0  0  0  0  0
  144.6189  142.1131  156.1074 C   0  0  0  0  0  0  0  0  0  0  0  0
  145.7437  142.5888  155.2041 C   0  0  0  0  0  0  0  0  0  0  0  0
  144.5444  142.3739  157.4373 C   0  0  0  0  0  0  0  0  0  0  0  0
  145.6056  143.1841  158.1796 C   0  0  0  0  0  0  0  0  0  0  0  0
  146.9008  142.4363  158.5045 C   0  0  0  0  0  0  0  0  0  0  0  0
  146.8664  141.2478  158.8236 O   0  0  0  0  0  0  0  0  0  0  0  0
  148.0345  143.1494  158.4157 N   0  0  0  0  0  0  0  0  0  0  0  0
  149.3885  142.6547  158.6607 C   0  0  1  0  0  0  0  0  0  0  0  0
  149.6198  141.4137  157.7850 C   0  0  0  0  0  0  0  0  0  0  0  0
  150.4146  143.7799  158.3809 C   0  0  1  0  0  0  0  0  0  0  0  0
  150.3307  144.9943  159.3353 C   0  0  0  0  0  0  0  0  0  0  0  0
  151.7944  145.1999  159.7669 C   0  0  1  0  0  0  0  0  0  0  0  0
  152.1833  144.0928  160.7635 C   0  0  0  0  0  0  0  0  0  0  0  0
  152.2883  142.8497  159.8617 C   0  0  0  0  0  0  0  0  0  0  0  0
  151.9142  143.4022  158.4706 C   0  0  2  0  0  0  0  0  0  0  0  0
  152.5619  144.7829  158.5179 C   0  0  0  0  0  0  0  0  0  0  0  0
  143.3892  141.8412  158.1980 C   0  0  0  0  0  0  0  0  0  0  0  0
  143.2669  142.0384  159.4061 O   0  0  0  0  0  0  0  0  0  0  0  0
  142.4273  141.0915  157.5017 N   0  0  0  0  0  0  0  0  0  0  0  0
  143.7419  141.1914  154.4787 H   0  0  0  0  0  0  0  0  0  0  0  0
  140.6950  139.8752  156.0335 H   0  0  0  0  0  0  0  0  0  0  0  0
  142.0220  139.1344  155.1311 H   0  0  0  0  0  0  0  0  0  0  0  0
  141.2728  140.6271  154.5434 H   0  0  0  0  0  0  0  0  0  0  0  0
  145.7918  143.6778  155.1959 H   0  0  0  0  0  0  0  0  0  0  0  0
  145.6026  142.2534  154.1758 H   0  0  0  0  0  0  0  0  0  0  0  0
  146.7021  142.2031  155.5524 H   0  0  0  0  0  0  0  0  0  0  0  0
  145.2054  143.5898  159.1090 H   0  0  0  0  0  0  0  0  0  0  0  0
  145.8468  144.0607  157.5773 H   0  0  0  0  0  0  0  0  0  0  0  0
  147.9545  144.1199  158.1487 H   0  0  0  0  0  0  0  0  0  0  0  0
  149.4735  142.3416  159.7015 H   0  0  0  0  0  0  0  0  0  0  0  0
  150.5935  140.9647  157.9812 H   0  0  0  0  0  0  0  0  0  0  0  0
  149.5739  141.6606  156.7238 H   0  0  0  0  0  0  0  0  0  0  0  0
  148.8670  140.6498  157.9830 H   0  0  0  0  0  0  0  0  0  0  0  0
  150.2354  144.1407  157.3662 H   0  0  0  0  0  0  0  0  0  0  0  0
  149.9487  145.8692  158.8082 H   0  0  0  0  0  0  0  0  0  0  0  0
  149.6840  144.8205  160.1959 H   0  0  0  0  0  0  0  0  0  0  0  0
  152.0070  146.2067  160.1272 H   0  0  0  0  0  0  0  0  0  0  0  0
  153.1444  144.3088  161.2317 H   0  0  0  0  0  0  0  0  0  0  0  0
  151.4446  143.9707  161.5566 H   0  0  0  0  0  0  0  0  0  0  0  0
  153.3124  142.4743  159.8573 H   0  0  0  0  0  0  0  0  0  0  0  0
  151.6485  142.0324  160.1921 H   0  0  0  0  0  0  0  0  0  0  0  0
  152.2570  142.7757  157.6467 H   0  0  0  0  0  0  0  0  0  0  0  0
  152.3377  145.4002  157.6460 H   0  0  0  0  0  0  0  0  0  0  0  0
  153.6432  144.7512  158.6641 H   0  0  0  0  0  0  0  0  0  0  0  0
  1 24  1  0  0  0  0
  1 25  1  0  0  0  0
  1 26  1  0  0  0  0
  1  2  1  0  0  0  0
  2  3  1  0  0  0  0
  2 22  2  0  0  0  0
  3  4  1  0  0  0  0
  3 23  1  0  0  0  0
  4  6  2  0  0  0  0
  4  5  1  0  0  0  0
  5 27  1  0  0  0  0
  5 28  1  0  0  0  0
  5 29  1  0  0  0  0
  6 20  1  0  0  0  0
  6  7  1  0  0  0  0
  7  8  1  0  0  0  0
  7 30  1  0  0  0  0
  7 31  1  0  0  0  0
  8  9  2  0  0  0  0
  8 10  1  0  0  0  0
 10 11  1  0  0  0  0
 10 32  1  0  0  0  0
 11 12  1  0  0  0  0
 11 13  1  0  0  0  0
 11 33  1  0  0  0  0
 12 34  1  0  0  0  0
 12 35  1  0  0  0  0
 12 36  1  0  0  0  0
 13 18  1  0  0  0  0
 13 14  1  0  0  0  0
 13 37  1  0  0  0  0
 14 15  1  0  0  0  0
 14 38  1  0  0  0  0
 14 39  1  0  0  0  0
 15 19  1  0  0  0  0
 15 16  1  0  0  0  0
 15 40  1  0  0  0  0
 16 17  1  0  0  0  0
 16 41  1  0  0  0  0
 16 42  1  0  0  0  0
 17 18  1  0  0  0  0
 17 43  1  0  0  0  0
 17 44  1  0  0  0  0
 18 19  1  0  0  0  0
 18 45  1  0  0  0  0
 19 46  1  0  0  0  0
 19 47  1  0  0  0  0
 20 21  2  0  0  0  0
 20 22  1  0  0  0  0
M  END
> <s_m_source_file>
AV-unprocessed.smi

> <i_m_source_file_index>
2124

> <i_lp_mmshare_version>
43012

> <i_f3d_flags>
0

> <s_epik_input>
W0NIM11jMW5jKFtDSDNdKWMoYyg9TylbbkhdMSlbQ0gyXUMoPU8pW05IXVtDQEhdKFtDSDNdKVtDQEhdKFtDSDJdW0NASF0yMylbQ0BIXShbQ0gyXTMpW0NIMl1bQ0gyXTI=

> <s_epik_cmdline>
J2VwaWtfcHl0aG9uJywgJy1waCcsICc3LjAnLCAnLXRuJywgJzgnLCAnLW1hJywgJzIwMCcsICctbWV0YWxfYmluZGluZycsICctaW1hZScsICc8aW5maWxlLm1hZT4nLCAnLW9tYWUnLCAnPG91dGZpbGUubWFlPic=

> <r_lp_tautomer_probability>
0.156392

> <r_epik_Ionization_Penalty>
0.0139374

> <r_epik_Ionization_Penalty_Charging>
0.0138122

> <r_epik_Ionization_Penalty_Neutral>
0.000125146

> <r_epik_State_Penalty>
1.15342

> <r_epik_Charging_Adjusted_Penalty>
1.16723

> <i_epik_Tot_Q>
0

> <i_epik_Tot_abs_Q>
0

> <r_epik_Metal_State_Penalty>
1.3173

> <b_epik_Metal_Only>
0

> <s_lp_Force_Field>
OPLS_2005

> <r_lp_Energy>
55.9992

> <b_lp_Chiralities_Consistent>
1

> <s_lp_Variant>
AV-unprocessed.smi:2124-16

> <Gold.Version>
5.8.1

> <Gold.Id.Protein>
6NUR|6NUR_protein|mol2

> <Gold.PLP.Fitness>
42.4396

> <Gold.PLP.PLP>
-36.9431

> <Gold.PLP.part.hbond>
-3.9055

> <Gold.PLP.part.metal>
0.0000

> <Gold.PLP.part.buried>
-4.3160

> <Gold.PLP.part.nonpolar>
-30.4672

> <Gold.PLP.part.repulsive>
0.1044

> <Gold.PLP.ligand.clash>
0.0000

> <Gold.PLP.ligand.torsion>
0.6220

> <Gold.PLP.Chemscore.Hbond>
2.2421

> <Gold.PLP.Chemscore.CHOScore>
0.0000

> <Gold.PLP.Chemscore.Metal>
0.0000

> <Gold.Chemscore.Hbonds>
donor molecule, donor type, donor heavy atom, donor atom, acceptor molecule, acceptor atom, score
      L1  H     3    23       P1 10175  0.86
      L1  H    10    32       P1  8029  1.00
      P1  H  6934  6946       L1     9  0.40

> <Gold.PLP.Chemscore.Internal.Correction>
0.0144

> <Gold.Rescore>
     Score         DG    S(hbond)    S(metal)    S(lipo)     H(rot)  DE(clash)    DE(int)     intcor
     16.77     -17.42       1.49        0.00      95.69       1.65       0.04       0.62       ----

> <Gold.Chemscore.Fitness>
16.7696

> <Gold.Chemscore.DG>
-17.4221

> <Gold.Chemscore.ZeroCoef>
-5.4800

> <Gold.Chemscore.Hbond>
1.4906

> <Gold.Chemscore.Metal>
0.0000

> <Gold.Chemscore.Lipo>
95.6921

> <Gold.Chemscore.Internal_Hbond>
0.0000

> <Gold.Chemscore.DEClash>
0.0375

> <Gold.Chemscore.DEInternal>
0.6151

> <Gold.Chemscore.Rot>
1.6534

> <Gold.Chemscore.Internal.Correction>
   9.000000E+99

> <Gold.Chemscore.Hbonds>
donor molecule, donor type, donor heavy atom, donor atom, acceptor molecule, acceptor atom, score
      L1  H     3    23       P1 10175  0.55
      L1  H    10    32       P1  8029  0.28
      P1  H  6934  6946       L1     9  0.38

> <Gold.Chemscore.Hbond.Weighted>
-4.9788

> <Gold.Chemscore.Metal.Weighted>
-0.0000

> <Gold.Chemscore.Lipo.Weighted>
-11.1960

> <Gold.Chemscore.Internal_Hbond.Weighted>
0.0000

> <Gold.Chemscore.DEClash.Weighted>
0.0375

> <Gold.Chemscore.DEInternal.Weighted>
0.6151

> <Gold.Chemscore.Rot.Weighted>
4.2326

> <Gold.Chemscore.Internal.Correction.Weighted>
   9.000000E+99

> <Gold.Protein.RotatedTorsions>
[ 6907 6896 6895 6894 ] final   62.08 input  -60.11 | X-H torsion
[ 7974 7965 7964 7962 ] final   25.43 input  175.53 | X-H torsion
[ 8008 7997 7996 7995 ] final  140.61 input   59.86 | X-H torsion
[ 10167 10162 10161 10158 ] final  -84.44 input  -65.29 | X-H torsion
[ 10718 10713 10712 10709 ] final  -38.04 input   66.30 | X-H torsion
[ 10763 10752 10751 10750 ] final  170.91 input  -60.55 | X-H torsion
[ 11005 11000 10999 10996 ] final    6.06 input  -57.11 | X-H torsion

> <Gold.Protein.ActiveResidues>
 VAL166  LYS551  ARG553  GLY616  TRP617  ASP618  TYR619  PRO620  LYS621  CYS622 
 ASP623  PHE694  ASN695  SER759  ASP760  ASP761  ALA762  ILE779  LEU786  VAL792 
 PHE793  MET794  SER795  GLU796  ALA797  LYS798  CYS799  TRP800  GLU811  SER814 

> <Gold.Protein.RotatedAtoms>
  152.4142  134.6071  160.0015 H   0  0  0  0  0  0  0  0  0  0  0  0  # atno 6907 bound_to 6896
  151.6239  133.3331  159.3102 H   0  0  0  0  0  0  0  0  0  0  0  0  # atno 6908 bound_to 6896
  150.8031  134.7178  159.6685 H   0  0  0  0  0  0  0  0  0  0  0  0  # atno 6909 bound_to 6896
  146.1889  139.7466  142.8846 H   0  0  0  0  0  0  0  0  0  0  0  0  # atno 7974 bound_to 7965
  156.2977  140.2337  156.4430 H   0  0  0  0  0  0  0  0  0  0  0  0  # atno 8008 bound_to 7997
  154.8169  140.0440  157.1403 H   0  0  0  0  0  0  0  0  0  0  0  0  # atno 8009 bound_to 7997
  154.9359  140.3023  155.5148 H   0  0  0  0  0  0  0  0  0  0  0  0  # atno 8010 bound_to 7997
  140.4132  143.2614  151.8989 H   0  0  0  0  0  0  0  0  0  0  0  0  # atno 10167 bound_to 10162
  156.3083  130.4249  149.8075 H   0  0  0  0  0  0  0  0  0  0  0  0  # atno 10718 bound_to 10713
  154.4043  135.2755  155.2077 H   0  0  0  0  0  0  0  0  0  0  0  0  # atno 10763 bound_to 10752
  154.4089  135.6027  153.5945 H   0  0  0  0  0  0  0  0  0  0  0  0  # atno 10764 bound_to 10752
  152.9831  135.5944  154.4315 H   0  0  0  0  0  0  0  0  0  0  0  0  # atno 10765 bound_to 10752
  140.5637  134.0168  155.7981 H   0  0  0  0  0  0  0  0  0  0  0  0  # atno 11005 bound_to 11000
  145.3855  141.0365  143.3153 LP  0  0  0  0  0  0  0  0  0  0  0  0  # atno 17320 bound_to 7965
  144.8448  139.5414  143.6883 LP  0  0  0  0  0  0  0  0  0  0  0  0  # atno 17321 bound_to 7965
  139.4782  144.5515  151.8378 LP  0  0  0  0  0  0  0  0  0  0  0  0  # atno 17342 bound_to 10162
  140.4615  144.1715  150.5907 LP  0  0  0  0  0  0  0  0  0  0  0  0  # atno 17343 bound_to 10162
  156.5428  130.8307  151.3274 LP  0  0  0  0  0  0  0  0  0  0  0  0  # atno 17370 bound_to 10713
  157.7385  130.9814  150.2255 LP  0  0  0  0  0  0  0  0  0  0  0  0  # atno 17371 bound_to 10713
  141.1099  133.9633  157.2929 LP  0  0  0  0  0  0  0  0  0  0  0  0  # atno 17394 bound_to 11000
  139.9395  135.0193  156.8664 LP  0  0  0  0  0  0  0  0  0  0  0  0  # atno 17395 bound_to 11000

$$$$
