AV-unprocessed.smi:1383|AV-procd|sdf|5622|dock10
  -GOLD-   22720 5233D 1   1.00000     0.00000
 Structure written by MMmdl.
 31 31  0  0  0  0  0  0  0  0  1 V2000
  153.3138  142.5369  162.3409 C   0  0  0  0  0  0  0  0  0  0  0  0
  152.3980  143.5337  161.6130 C   0  0  0  0  0  0  0  0  0  0  0  0
  152.6202  143.6019  160.0859 C   0  0  2  0  0  0  0  0  0  0  0  0
  151.9913  144.8757  159.4953 C   0  0  0  0  0  0  0  0  0  0  0  0
  152.0694  142.3585  159.3702 C   0  0  0  0  0  0  0  0  0  0  0  0
  150.8523  142.1797  159.3099 O   0  0  0  0  0  0  0  0  0  0  0  0
  152.9904  141.5270  158.8475 N   0  0  0  0  0  0  0  0  0  0  0  0
  152.7820  140.3134  158.1423 C   0  0  0  0  0  0  0  0  0  0  0  0
  152.9192  140.1762  156.8188 N   0  0  0  0  0  0  0  0  0  0  0  0
  152.6610  138.8693  156.3910 C   0  0  0  0  0  0  0  0  0  0  0  0
  152.7674  138.5200  154.9340 C   0  0  0  0  0  0  0  0  0  0  0  0
  151.3797  138.4367  154.2924 C   0  0  0  0  0  0  0  0  0  0  0  0
  150.9656  137.2358  153.8779 N   0  0  0  0  0  0  0  0  0  0  0  0
  150.6831  139.4432  154.1823 O   0  0  0  0  0  0  0  0  0  0  0  0
  152.3130  138.0237  157.4172 C   0  0  0  0  0  0  0  0  0  0  0  0
  152.3108  138.8330  158.9611 S   0  0  0  0  0  0  0  0  0  0  0  0
  153.1525  142.5820  163.4181 H   0  0  0  0  0  0  0  0  0  0  0  0
  154.3647  142.7587  162.1538 H   0  0  0  0  0  0  0  0  0  0  0  0
  153.1251  141.5104  162.0259 H   0  0  0  0  0  0  0  0  0  0  0  0
  151.3567  143.2907  161.8296 H   0  0  0  0  0  0  0  0  0  0  0  0
  152.5659  144.5237  162.0384 H   0  0  0  0  0  0  0  0  0  0  0  0
  153.6951  143.6562  159.9043 H   0  0  0  0  0  0  0  0  0  0  0  0
  152.1203  144.9188  158.4129 H   0  0  0  0  0  0  0  0  0  0  0  0
  152.4553  145.7693  159.9134 H   0  0  0  0  0  0  0  0  0  0  0  0
  150.9223  144.9306  159.7055 H   0  0  0  0  0  0  0  0  0  0  0  0
  153.9553  141.7957  158.9726 H   0  0  0  0  0  0  0  0  0  0  0  0
  153.3617  139.2630  154.4006 H   0  0  0  0  0  0  0  0  0  0  0  0
  153.2819  137.5666  154.8056 H   0  0  0  0  0  0  0  0  0  0  0  0
  150.0538  137.1328  153.4573 H   0  0  0  0  0  0  0  0  0  0  0  0
  151.5656  136.4322  153.9960 H   0  0  0  0  0  0  0  0  0  0  0  0
  152.0610  136.9753  157.3584 H   0  0  0  0  0  0  0  0  0  0  0  0
  1  2  1  0  0  0  0
  1 17  1  0  0  0  0
  1 18  1  0  0  0  0
  1 19  1  0  0  0  0
  2  3  1  0  0  0  0
  2 20  1  0  0  0  0
  2 21  1  0  0  0  0
  3  4  1  0  0  0  0
  3  5  1  0  0  0  0
  3 22  1  0  0  0  0
  4 23  1  0  0  0  0
  4 24  1  0  0  0  0
  4 25  1  0  0  0  0
  5  6  2  0  0  0  0
  5  7  1  0  0  0  0
  7  8  1  0  0  0  0
  7 26  1  0  0  0  0
  8 16  1  0  0  0  0
  8  9  2  0  0  0  0
  9 10  1  0  0  0  0
 10 11  1  0  0  0  0
 10 15  2  0  0  0  0
 11 12  1  0  0  0  0
 11 27  1  0  0  0  0
 11 28  1  0  0  0  0
 12 13  1  0  0  0  0
 12 14  2  0  0  0  0
 13 29  1  0  0  0  0
 13 30  1  0  0  0  0
 15 16  1  0  0  0  0
 15 31  1  0  0  0  0
M  END
> <s_m_source_file>
AV-unprocessed.smi

> <i_m_source_file_index>
1383

> <i_lp_mmshare_version>
43012

> <i_f3d_flags>
0

> <s_epik_input>
W0NIM11bQ0gyXVtDQEhdKFtDSDNdKUMoPU8pW05IXWMxbmMoW2NIXXMxKVtDSDJdQyg9TylbTkgyXQ==

> <s_epik_cmdline>
J2VwaWtfcHl0aG9uJywgJy1waCcsICc3LjAnLCAnLXRuJywgJzgnLCAnLW1hJywgJzIwMCcsICctbWV0YWxfYmluZGluZycsICctaW1hZScsICc8aW5maWxlLm1hZT4nLCAnLW9tYWUnLCAnPG91dGZpbGUubWFlPic=

> <r_lp_tautomer_probability>
1

> <r_epik_Ionization_Penalty>
0.00017492

> <r_epik_Ionization_Penalty_Charging>
0

> <r_epik_Ionization_Penalty_Neutral>
0.00017492

> <r_epik_State_Penalty>
-0

> <r_epik_Charging_Adjusted_Penalty>
0

> <i_epik_Tot_Q>
0

> <i_epik_Tot_abs_Q>
0

> <r_epik_Metal_State_Penalty>
0.109333

> <b_epik_Metal_Only>
0

> <s_lp_Force_Field>
OPLS_2005

> <r_lp_Energy>
2.98053

> <b_lp_Chiralities_Consistent>
1

> <s_lp_Variant>
AV-unprocessed.smi:1383-1

> <Gold.Version>
5.8.1

> <Gold.Id.Protein>
6NUR|6NUR_protein|mol2

> <Gold.PLP.Fitness>
42.0278

> <Gold.PLP.PLP>
-36.1026

> <Gold.PLP.part.hbond>
-4.7154

> <Gold.PLP.part.metal>
0.0000

> <Gold.PLP.part.buried>
-3.6529

> <Gold.PLP.part.nonpolar>
-27.9276

> <Gold.PLP.part.repulsive>
0.3605

> <Gold.PLP.ligand.clash>
0.0000

> <Gold.PLP.ligand.torsion>
1.2089

> <Gold.PLP.Chemscore.Hbond>
2.7670

> <Gold.PLP.Chemscore.CHOScore>
0.0000

> <Gold.PLP.Chemscore.Metal>
0.0000

> <Gold.Chemscore.Hbonds>
donor molecule, donor type, donor heavy atom, donor atom, acceptor molecule, acceptor atom, score
      L1  H    13    29       P1  7948  0.73
      P1  H  7989  7998       L1    14  1.00
      P1  H  7997  8010       L1     9  0.58

> <Gold.PLP.Chemscore.Internal.Correction>
0.0422

> <Gold.Rescore>
     Score         DG    S(hbond)    S(metal)    S(lipo)     H(rot)  DE(clash)    DE(int)     intcor
     15.18     -16.41       2.44        0.00      71.90       2.19       0.05       1.18       ----

> <Gold.Chemscore.Fitness>
15.1757

> <Gold.Chemscore.DG>
-16.4063

> <Gold.Chemscore.ZeroCoef>
-5.4800

> <Gold.Chemscore.Hbond>
2.4350

> <Gold.Chemscore.Metal>
0.0000

> <Gold.Chemscore.Lipo>
71.8976

> <Gold.Chemscore.Internal_Hbond>
0.0000

> <Gold.Chemscore.DEClash>
0.0494

> <Gold.Chemscore.DEInternal>
1.1812

> <Gold.Chemscore.Rot>
2.1948

> <Gold.Chemscore.Internal.Correction>
   9.000000E+99

> <Gold.Chemscore.Hbonds>
donor molecule, donor type, donor heavy atom, donor atom, acceptor molecule, acceptor atom, score
      L1  H    13    29       P1  7948  0.18
      P1  H  7989  7998       L1    14  0.82
      P1  H  7997  8010       L1     9  0.04

> <Gold.Chemscore.Hbond.Weighted>
-8.1330

> <Gold.Chemscore.Metal.Weighted>
-0.0000

> <Gold.Chemscore.Lipo.Weighted>
-8.4120

> <Gold.Chemscore.Internal_Hbond.Weighted>
0.0000

> <Gold.Chemscore.DEClash.Weighted>
0.0494

> <Gold.Chemscore.DEInternal.Weighted>
1.1812

> <Gold.Chemscore.Rot.Weighted>
5.6186

> <Gold.Chemscore.Internal.Correction.Weighted>
   9.000000E+99

> <Gold.Protein.RotatedTorsions>
[ 6907 6896 6895 6894 ] final  128.31 input  -60.11 | X-H torsion
[ 7974 7965 7964 7962 ] final -166.07 input  175.53 | X-H torsion
[ 8008 7997 7996 7995 ] final   71.67 input   59.86 | X-H torsion
[ 10167 10162 10161 10158 ] final  -74.49 input  -65.29 | X-H torsion
[ 10718 10713 10712 10709 ] final   77.03 input   66.30 | X-H torsion
[ 10763 10752 10751 10750 ] final  149.64 input  -60.55 | X-H torsion
[ 11005 11000 10999 10996 ] final  -49.00 input  -57.11 | X-H torsion

> <Gold.Protein.ActiveResidues>
 VAL166  LYS551  ARG553  GLY616  TRP617  ASP618  TYR619  PRO620  LYS621  CYS622 
 ASP623  PHE694  ASN695  SER759  ASP760  ASP761  ALA762  ILE779  LEU786  VAL792 
 PHE793  MET794  SER795  GLU796  ALA797  LYS798  CYS799  TRP800  GLU811  SER814 

> <Gold.Protein.RotatedAtoms>
  152.3731  133.6445  159.6102 H   0  0  0  0  0  0  0  0  0  0  0  0  # atno 6907 bound_to 6896
  150.7683  133.9237  159.3415 H   0  0  0  0  0  0  0  0  0  0  0  0  # atno 6908 bound_to 6896
  151.7057  135.0923  160.0310 H   0  0  0  0  0  0  0  0  0  0  0  0  # atno 6909 bound_to 6896
  144.7254  140.2720  143.6249 H   0  0  0  0  0  0  0  0  0  0  0  0  # atno 7974 bound_to 7965
  155.7574  140.3487  155.5181 H   0  0  0  0  0  0  0  0  0  0  0  0  # atno 8008 bound_to 7997
  155.8946  140.1023  157.1415 H   0  0  0  0  0  0  0  0  0  0  0  0  # atno 8009 bound_to 7997
  154.4037  140.1297  156.4346 H   0  0  0  0  0  0  0  0  0  0  0  0  # atno 8010 bound_to 7997
  140.5023  143.2359  151.7732 H   0  0  0  0  0  0  0  0  0  0  0  0  # atno 10167 bound_to 10162
  157.6696  130.9802  150.1583 H   0  0  0  0  0  0  0  0  0  0  0  0  # atno 10718 bound_to 10713
  154.0745  135.2864  155.3302 H   0  0  0  0  0  0  0  0  0  0  0  0  # atno 10763 bound_to 10752
  154.6724  135.5294  153.8159 H   0  0  0  0  0  0  0  0  0  0  0  0  # atno 10764 bound_to 10752
  153.0472  135.6561  154.0925 H   0  0  0  0  0  0  0  0  0  0  0  0  # atno 10765 bound_to 10752
  141.0734  133.6672  156.3522 H   0  0  0  0  0  0  0  0  0  0  0  0  # atno 11005 bound_to 11000
  145.8033  139.1973  143.2035 LP  0  0  0  0  0  0  0  0  0  0  0  0  # atno 17320 bound_to 7965
  146.0658  140.7922  142.9712 LP  0  0  0  0  0  0  0  0  0  0  0  0  # atno 17321 bound_to 7965
  139.4875  144.4506  151.9659 LP  0  0  0  0  0  0  0  0  0  0  0  0  # atno 17342 bound_to 10162
  140.3595  144.2990  150.5936 LP  0  0  0  0  0  0  0  0  0  0  0  0  # atno 17343 bound_to 10162
  156.2365  130.3687  149.8385 LP  0  0  0  0  0  0  0  0  0  0  0  0  # atno 17370 bound_to 10713
  156.6197  130.8621  151.3472 LP  0  0  0  0  0  0  0  0  0  0  0  0  # atno 17371 bound_to 10713
  140.5626  134.5919  157.5437 LP  0  0  0  0  0  0  0  0  0  0  0  0  # atno 17394 bound_to 11000
  139.9546  134.7557  156.0370 LP  0  0  0  0  0  0  0  0  0  0  0  0  # atno 17395 bound_to 11000

$$$$
