AV-unprocessed.smi:240|AV-procd|sdf|1832|dock5
  -GOLD-   2262020433D 1   1.00000     0.00000
 Structure written by MMmdl.
 55 59  0  0  0  0  0  0  0  0  1 V2000
  152.6260  140.1207  159.4481 O   0  0  0  0  0  0  0  0  0  0  0  0
  152.2998  141.0210  158.4099 C   0  0  2  0  0  0  0  0  0  0  0  0
  151.9571  142.4068  158.9565 C   0  0  0  0  0  0  0  0  0  0  0  0
  151.1284  143.0645  157.8476 C   0  0  0  0  0  0  0  0  0  0  0  0
  150.5404  141.9190  157.0073 C   0  0  0  0  0  0  0  0  0  0  0  0
  151.0247  140.6106  157.6597 C   0  0  1  0  0  0  0  0  0  0  0  0
  151.1506  139.3784  156.7123 C   0  0  2  0  0  0  0  0  0  0  0  0
  152.2159  139.5548  155.5994 C   0  0  0  0  0  0  0  0  0  0  0  0
  152.2796  138.3910  154.7829 O   0  0  0  0  0  0  0  0  0  0  0  0
  151.0466  138.1362  154.1242 C   0  0  0  0  0  0  0  0  0  0  0  0
  149.9656  137.8733  155.1800 C   0  0  0  0  0  0  0  0  0  0  0  0
  149.8690  139.0021  156.0982 N   0  0  0  0  0  0  0  0  0  0  0  0
  148.8056  138.8551  156.9207 C   0  0  0  0  0  0  0  0  0  0  0  0
  147.8343  139.7975  156.8418 N   0  0  0  0  0  0  0  0  0  0  0  0
  146.7567  139.7138  157.6275 C   0  0  0  0  0  0  0  0  0  0  0  0
  146.4559  138.7838  158.5366 N   0  0  0  0  0  0  0  0  0  0  0  0
  147.4253  137.8265  158.6069 C   0  0  0  0  0  0  0  0  0  0  0  0
  148.6244  137.7839  157.8413 C   0  0  0  0  0  0  0  0  0  0  0  0
  149.3648  136.6592  158.1843 N   0  0  0  0  0  0  0  0  0  0  0  0
  148.6460  136.0721  159.1017 C   0  0  0  0  0  0  0  0  0  0  0  0
  147.4604  136.7003  159.4108 N   0  0  0  0  0  0  0  0  0  0  0  0
  146.4727  136.2681  160.3885 C   0  0  0  0  0  0  0  0  0  0  0  0
  147.0328  136.1058  161.8247 C   0  0  2  0  0  0  0  0  0  0  0  0
  147.4682  137.3672  162.2983 O   0  0  0  0  0  0  0  0  0  0  0  0
  148.1819  135.1035  161.9403 C   0  0  0  0  0  0  0  0  0  0  0  0
  147.4716  133.8280  162.3659 C   0  0  0  0  0  0  0  0  0  0  0  0
  146.5160  134.3107  163.2937 O   0  0  0  0  0  0  0  0  0  0  0  0
  145.9734  135.5236  162.7835 C   0  0  0  0  0  0  0  0  0  0  0  0
  152.0900  139.3479  159.3561 H   0  0  0  0  0  0  0  0  0  0  0  0
  153.1476  141.1152  157.7327 H   0  0  0  0  0  0  0  0  0  0  0  0
  151.3447  142.3138  159.8548 H   0  0  0  0  0  0  0  0  0  0  0  0
  152.8428  142.9864  159.2190 H   0  0  0  0  0  0  0  0  0  0  0  0
  150.3505  143.7071  158.2607 H   0  0  0  0  0  0  0  0  0  0  0  0
  151.7678  143.6881  157.2220 H   0  0  0  0  0  0  0  0  0  0  0  0
  149.4515  141.9631  156.9772 H   0  0  0  0  0  0  0  0  0  0  0  0
  150.8888  142.0121  155.9799 H   0  0  0  0  0  0  0  0  0  0  0  0
  150.2959  140.3695  158.4353 H   0  0  0  0  0  0  0  0  0  0  0  0
  151.4796  138.5347  157.3192 H   0  0  0  0  0  0  0  0  0  0  0  0
  152.0116  140.4225  154.9722 H   0  0  0  0  0  0  0  0  0  0  0  0
  153.2063  139.6986  156.0284 H   0  0  0  0  0  0  0  0  0  0  0  0
  150.7753  138.9781  153.4853 H   0  0  0  0  0  0  0  0  0  0  0  0
  151.1612  137.2659  153.4779 H   0  0  0  0  0  0  0  0  0  0  0  0
  149.0057  137.7050  154.6892 H   0  0  0  0  0  0  0  0  0  0  0  0
  150.2051  136.9669  155.7383 H   0  0  0  0  0  0  0  0  0  0  0  0
  146.0306  140.5047  157.5098 H   0  0  0  0  0  0  0  0  0  0  0  0
  148.9603  135.1546  159.5779 H   0  0  0  0  0  0  0  0  0  0  0  0
  145.6549  136.9900  160.3844 H   0  0  0  0  0  0  0  0  0  0  0  0
  146.0446  135.3254  160.0451 H   0  0  0  0  0  0  0  0  0  0  0  0
  147.0440  137.5378  163.1256 H   0  0  0  0  0  0  0  0  0  0  0  0
  148.7697  134.9774  161.0325 H   0  0  0  0  0  0  0  0  0  0  0  0
  148.8716  135.3971  162.7333 H   0  0  0  0  0  0  0  0  0  0  0  0
  146.9666  133.3566  161.5212 H   0  0  0  0  0  0  0  0  0  0  0  0
  148.1443  133.1005  162.8204 H   0  0  0  0  0  0  0  0  0  0  0  0
  145.7285  136.1934  163.6089 H   0  0  0  0  0  0  0  0  0  0  0  0
  145.0428  135.2990  162.2607 H   0  0  0  0  0  0  0  0  0  0  0  0
  1  2  1  0  0  0  0
  1 29  1  0  0  0  0
  2  6  1  0  0  0  0
  2  3  1  0  0  0  0
  2 30  1  0  0  0  0
  3  4  1  0  0  0  0
  3 31  1  0  0  0  0
  3 32  1  0  0  0  0
  4  5  1  0  0  0  0
  4 33  1  0  0  0  0
  4 34  1  0  0  0  0
  5  6  1  0  0  0  0
  5 35  1  0  0  0  0
  5 36  1  0  0  0  0
  6  7  1  0  0  0  0
  6 37  1  0  0  0  0
  7 12  1  0  0  0  0
  7  8  1  0  0  0  0
  7 38  1  0  0  0  0
  8  9  1  0  0  0  0
  8 39  1  0  0  0  0
  8 40  1  0  0  0  0
  9 10  1  0  0  0  0
 10 11  1  0  0  0  0
 10 41  1  0  0  0  0
 10 42  1  0  0  0  0
 11 12  1  0  0  0  0
 11 43  1  0  0  0  0
 11 44  1  0  0  0  0
 12 13  1  0  0  0  0
 13 18  1  0  0  0  0
 13 14  2  0  0  0  0
 14 15  1  0  0  0  0
 15 16  2  0  0  0  0
 15 45  1  0  0  0  0
 16 17  1  0  0  0  0
 17 21  1  0  0  0  0
 17 18  2  0  0  0  0
 18 19  1  0  0  0  0
 19 20  2  0  0  0  0
 20 21  1  0  0  0  0
 20 46  1  0  0  0  0
 21 22  1  0  0  0  0
 22 23  1  0  0  0  0
 22 47  1  0  0  0  0
 22 48  1  0  0  0  0
 23 28  1  0  0  0  0
 23 24  1  0  0  0  0
 23 25  1  0  0  0  0
 24 49  1  0  0  0  0
 25 26  1  0  0  0  0
 25 50  1  0  0  0  0
 25 51  1  0  0  0  0
 26 27  1  0  0  0  0
 26 52  1  0  0  0  0
 26 53  1  0  0  0  0
 27 28  1  0  0  0  0
 28 54  1  0  0  0  0
 28 55  1  0  0  0  0
M  END
> <s_m_source_file>
AV-unprocessed.smi

> <i_m_source_file_index>
240

> <i_lp_mmshare_version>
43012

> <i_f3d_flags>
0

> <s_epik_input>
W09IXVtDQEBIXTFbQ0gyXVtDSDJdW0NIMl1bQ0BIXTFbQ0BASF0yW0NIMl1PW0NIMl1bQ0gyXU4yYyhuW2NIXW4zKWMoYzM0KW5bY0hdbjRbQ0gyXVtDQEBdNShbT0hdKVtDSDJdW0NIMl1PW0NIMl01

> <s_epik_cmdline>
J2VwaWtfcHl0aG9uJywgJy1waCcsICc3LjAnLCAnLXRuJywgJzgnLCAnLW1hJywgJzIwMCcsICctbWV0YWxfYmluZGluZycsICctaW1hZScsICc8aW5maWxlLm1hZT4nLCAnLW9tYWUnLCAnPG91dGZpbGUubWFlPic=

> <r_lp_tautomer_probability>
1

> <r_epik_Ionization_Penalty>
0.000130618

> <r_epik_Ionization_Penalty_Charging>
0

> <r_epik_Ionization_Penalty_Neutral>
0.000130618

> <r_epik_State_Penalty>
-0

> <r_epik_Charging_Adjusted_Penalty>
0

> <i_epik_Tot_Q>
0

> <i_epik_Tot_abs_Q>
0

> <r_epik_Metal_State_Penalty>
-0

> <b_epik_Metal_Only>
0

> <s_lp_Force_Field>
OPLS_2005

> <r_lp_Energy>
62.3789

> <b_lp_Chiralities_Consistent>
1

> <s_lp_Variant>
AV-unprocessed.smi:240-9

> <Gold.Version>
5.8.1

> <Gold.Id.Protein>
6NUR|6NUR_protein|mol2

> <Gold.PLP.Fitness>
42.9523

> <Gold.PLP.PLP>
-39.0623

> <Gold.PLP.part.hbond>
-3.8347

> <Gold.PLP.part.metal>
0.0000

> <Gold.PLP.part.buried>
-6.8647

> <Gold.PLP.part.nonpolar>
-28.3501

> <Gold.PLP.part.repulsive>
0.0635

> <Gold.PLP.ligand.clash>
0.0000

> <Gold.PLP.ligand.torsion>
0.1391

> <Gold.PLP.Chemscore.Hbond>
1.3221

> <Gold.PLP.Chemscore.CHOScore>
0.0000

> <Gold.PLP.Chemscore.Metal>
0.0000

> <Gold.Chemscore.Hbonds>
donor molecule, donor type, donor heavy atom, donor atom, acceptor molecule, acceptor atom, score
      P1  H  6931  6943       L1    24  0.78
      P1  H  6934  6947       L1    24  0.38

> <Gold.PLP.Chemscore.Internal.Correction>
0.2019

> <Gold.Rescore>
     Score         DG    S(hbond)    S(metal)    S(lipo)     H(rot)  DE(clash)    DE(int)     intcor
     12.26     -13.64       1.19        0.00     101.53       3.00       0.05       1.34       ----

> <Gold.Chemscore.Fitness>
12.2567

> <Gold.Chemscore.DG>
-13.6412

> <Gold.Chemscore.ZeroCoef>
-5.4800

> <Gold.Chemscore.Hbond>
1.1892

> <Gold.Chemscore.Metal>
0.0000

> <Gold.Chemscore.Lipo>
101.5322

> <Gold.Chemscore.Internal_Hbond>
0.0000

> <Gold.Chemscore.DEClash>
0.0465

> <Gold.Chemscore.DEInternal>
1.3380

> <Gold.Chemscore.Rot>
3.0039

> <Gold.Chemscore.Internal.Correction>
   9.000000E+99

> <Gold.Chemscore.Hbonds>
donor molecule, donor type, donor heavy atom, donor atom, acceptor molecule, acceptor atom, score
      P1  H  6931  6943       L1    24  0.74
      P1  H  6934  6947       L1    24  0.27

> <Gold.Chemscore.Hbond.Weighted>
-3.9718

> <Gold.Chemscore.Metal.Weighted>
-0.0000

> <Gold.Chemscore.Lipo.Weighted>
-11.8793

> <Gold.Chemscore.Internal_Hbond.Weighted>
0.0000

> <Gold.Chemscore.DEClash.Weighted>
0.0465

> <Gold.Chemscore.DEInternal.Weighted>
1.3380

> <Gold.Chemscore.Rot.Weighted>
7.6899

> <Gold.Chemscore.Internal.Correction.Weighted>
   9.000000E+99

> <Gold.Protein.RotatedTorsions>
[ 6907 6896 6895 6894 ] final   93.33 input  -60.11 | X-H torsion
[ 7974 7965 7964 7962 ] final -103.98 input  175.53 | X-H torsion
[ 8008 7997 7996 7995 ] final  130.82 input   59.86 | X-H torsion
[ 10167 10162 10161 10158 ] final  139.28 input  -65.29 | X-H torsion
[ 10718 10713 10712 10709 ] final  -79.89 input   66.30 | X-H torsion
[ 10763 10752 10751 10750 ] final -121.96 input  -60.55 | X-H torsion
[ 11005 11000 10999 10996 ] final  101.98 input  -57.11 | X-H torsion

> <Gold.Protein.ActiveResidues>
 VAL166  LYS551  ARG553  GLY616  TRP617  ASP618  TYR619  PRO620  LYS621  CYS622 
 ASP623  PHE694  ASN695  SER759  ASP760  ASP761  ALA762  ILE779  LEU786  VAL792 
 PHE793  MET794  SER795  GLU796  ALA797  LYS798  CYS799  TRP800  GLU811  SER814 

> <Gold.Protein.RotatedAtoms>
  152.5452  134.1365  159.8460 H   0  0  0  0  0  0  0  0  0  0  0  0  # atno 6907 bound_to 6896
  151.1405  133.4967  159.2604 H   0  0  0  0  0  0  0  0  0  0  0  0  # atno 6908 bound_to 6896
  151.1578  135.0269  159.8752 H   0  0  0  0  0  0  0  0  0  0  0  0  # atno 6909 bound_to 6896
  145.2490  140.9231  143.3106 H   0  0  0  0  0  0  0  0  0  0  0  0  # atno 7974 bound_to 7965
  156.2960  140.2586  156.2824 H   0  0  0  0  0  0  0  0  0  0  0  0  # atno 8008 bound_to 7997
  154.9589  140.0393  157.2199 H   0  0  0  0  0  0  0  0  0  0  0  0  # atno 8009 bound_to 7997
  154.7965  140.2821  155.5957 H   0  0  0  0  0  0  0  0  0  0  0  0  # atno 8010 bound_to 7997
  139.5084  144.6304  151.5832 H   0  0  0  0  0  0  0  0  0  0  0  0  # atno 10167 bound_to 10162
  156.0082  130.4559  150.3718 H   0  0  0  0  0  0  0  0  0  0  0  0  # atno 10718 bound_to 10713
  154.8679  135.4149  154.2705 H   0  0  0  0  0  0  0  0  0  0  0  0  # atno 10763 bound_to 10752
  153.3616  135.7003  153.6713 H   0  0  0  0  0  0  0  0  0  0  0  0  # atno 10764 bound_to 10752
  153.5612  135.3609  155.2772 H   0  0  0  0  0  0  0  0  0  0  0  0  # atno 10765 bound_to 10752
  139.8775  134.9205  156.4988 H   0  0  0  0  0  0  0  0  0  0  0  0  # atno 11005 bound_to 11000
  144.9520  139.4072  143.6398 LP  0  0  0  0  0  0  0  0  0  0  0  0  # atno 17320 bound_to 7965
  146.3308  139.8532  142.8869 LP  0  0  0  0  0  0  0  0  0  0  0  0  # atno 17321 bound_to 7965
  140.6034  143.9567  150.6402 LP  0  0  0  0  0  0  0  0  0  0  0  0  # atno 17342 bound_to 10162
  140.2787  143.3405  152.1171 LP  0  0  0  0  0  0  0  0  0  0  0  0  # atno 17343 bound_to 10162
  157.1802  131.0390  151.2752 LP  0  0  0  0  0  0  0  0  0  0  0  0  # atno 17370 bound_to 10713
  157.4153  130.7407  149.6870 LP  0  0  0  0  0  0  0  0  0  0  0  0  # atno 17371 bound_to 10713
  140.8605  133.8063  155.9260 LP  0  0  0  0  0  0  0  0  0  0  0  0  # atno 17394 bound_to 11000
  140.9054  134.2326  157.5017 LP  0  0  0  0  0  0  0  0  0  0  0  0  # atno 17395 bound_to 11000

$$$$
