AV-unprocessed.smi:2083|AV-procd|sdf|8509|dock4
  -GOLD-   2272011223D 1   1.00000     0.00000
 Structure written by MMmdl.
 44 45  0  0  0  0  0  0  0  0  3 V2000
  146.8107  133.7024  161.5399 C   0  0  0  0  0  0  0  0  0  0  0  0
  147.2846  135.0367  161.0750 C   0  0  0  0  0  0  0  0  0  0  0  0
  147.9470  135.4483  159.9531 C   0  0  0  0  0  0  0  0  0  0  0  0
  148.0753  136.8490  160.1515 C   0  0  0  0  0  0  0  0  0  0  0  0
  148.7200  137.6609  159.1814 N   0  0  0  0  0  0  0  0  0  0  0  0
  148.7873  137.4887  157.8487 C   0  0  0  0  0  0  0  0  0  0  0  0
  148.2270  136.5246  157.3134 O   0  0  0  0  0  0  0  0  0  0  0  0
  149.5061  138.4706  157.2372 N   0  5  0  0  0  0  0  0  0  0  0  0
  149.7293  139.8085  157.7878 C   0  0  0  0  0  0  0  0  0  0  0  0
  151.2397  140.1736  157.7784 C   0  0  1  0  0  0  0  0  0  0  0  0
  151.9030  140.1037  156.3798 C   0  0  0  0  0  0  0  0  0  0  0  0
  151.4670  141.4839  158.4646 N   0  3  2  0  0  0  0  0  0  0  0  0
  150.9179  142.6912  157.7792 C   0  0  0  0  0  0  0  0  0  0  0  0
  150.9811  143.9172  158.7021 C   0  0  0  0  0  0  0  0  0  0  0  0
  152.4185  144.1680  159.1800 C   0  0  0  0  0  0  0  0  0  0  0  0
  153.0241  142.9058  159.8225 C   0  0  1  0  0  0  0  0  0  0  0  0
  152.4554  142.6206  161.2238 C   0  0  0  0  0  0  0  0  0  0  0  0
  152.8811  141.6918  158.8806 C   0  0  0  0  0  0  0  0  0  0  0  0
  147.5404  137.2545  161.2939 N   0  0  0  0  0  0  0  0  0  0  0  0
  147.0304  136.0955  161.8907 O   0  0  0  0  0  0  0  0  0  0  0  0
  147.3745  132.9017  161.0610 H   0  0  0  0  0  0  0  0  0  0  0  0
  145.7563  133.5640  161.3010 H   0  0  0  0  0  0  0  0  0  0  0  0
  146.9304  133.6006  162.6186 H   0  0  0  0  0  0  0  0  0  0  0  0
  148.2827  134.8441  159.1234 H   0  0  0  0  0  0  0  0  0  0  0  0
  149.2002  138.4720  159.5419 H   0  0  0  0  0  0  0  0  0  0  0  0
  149.1789  140.5640  157.2270 H   0  0  0  0  0  0  0  0  0  0  0  0
  149.3541  139.8869  158.8095 H   0  0  0  0  0  0  0  0  0  0  0  0
  151.7307  139.4153  158.3901 H   0  0  0  0  0  0  0  0  0  0  0  0
  151.8640  139.0955  155.9633 H   0  0  0  0  0  0  0  0  0  0  0  0
  152.9579  140.3728  156.4370 H   0  0  0  0  0  0  0  0  0  0  0  0
  151.4339  140.7709  155.6548 H   0  0  0  0  0  0  0  0  0  0  0  0
  151.4824  142.8932  156.8680 H   0  0  0  0  0  0  0  0  0  0  0  0
  149.8825  142.5279  157.4798 H   0  0  0  0  0  0  0  0  0  0  0  0
  150.6075  144.7965  158.1765 H   0  0  0  0  0  0  0  0  0  0  0  0
  150.3212  143.7694  159.5575 H   0  0  0  0  0  0  0  0  0  0  0  0
  153.0294  144.4644  158.3263 H   0  0  0  0  0  0  0  0  0  0  0  0
  152.4455  145.0047  159.8790 H   0  0  0  0  0  0  0  0  0  0  0  0
  154.0907  143.0905  159.9567 H   0  0  0  0  0  0  0  0  0  0  0  0
  151.3896  142.3937  161.1936 H   0  0  0  0  0  0  0  0  0  0  0  0
  152.5938  143.4766  161.8846 H   0  0  0  0  0  0  0  0  0  0  0  0
  152.9583  141.7691  161.6833 H   0  0  0  0  0  0  0  0  0  0  0  0
  153.2643  140.8042  159.3856 H   0  0  0  0  0  0  0  0  0  0  0  0
  153.4968  141.8342  157.9913 H   0  0  0  0  0  0  0  0  0  0  0  0
  150.9534  141.4000  159.3306 H   0  0  0  0  0  0  0  0  0  0  0  0
  1  2  1  0  0  0  0
  1 21  1  0  0  0  0
  1 22  1  0  0  0  0
  1 23  1  0  0  0  0
  2 20  1  0  0  0  0
  2  3  2  0  0  0  0
  3  4  1  0  0  0  0
  3 24  1  0  0  0  0
  4  5  1  0  0  0  0
  4 19  2  0  0  0  0
  5  6  1  0  0  0  0
  5 25  1  0  0  0  0
  6  7  2  0  0  0  0
  6  8  1  0  0  0  0
  8  9  1  0  0  0  0
  9 10  1  0  0  0  0
  9 26  1  0  0  0  0
  9 27  1  0  0  0  0
 10 11  1  0  0  0  0
 10 12  1  0  0  0  0
 10 28  1  0  0  0  0
 11 29  1  0  0  0  0
 11 30  1  0  0  0  0
 11 31  1  0  0  0  0
 12 18  1  0  0  0  0
 12 13  1  0  0  0  0
 12 44  1  0  0  0  0
 13 14  1  0  0  0  0
 13 32  1  0  0  0  0
 13 33  1  0  0  0  0
 14 15  1  0  0  0  0
 14 34  1  0  0  0  0
 14 35  1  0  0  0  0
 15 16  1  0  0  0  0
 15 36  1  0  0  0  0
 15 37  1  0  0  0  0
 16 17  1  0  0  0  0
 16 18  1  0  0  0  0
 16 38  1  0  0  0  0
 17 39  1  0  0  0  0
 17 40  1  0  0  0  0
 17 41  1  0  0  0  0
 18 42  1  0  0  0  0
 18 43  1  0  0  0  0
 19 20  1  0  0  0  0
M  CHG  1   8  -1
M  CHG  1  12   1
M  END
> <s_m_source_file>
AV-unprocessed.smi

> <i_m_source_file_index>
2083

> <i_lp_mmshare_version>
43012

> <i_f3d_flags>
0

> <s_epik_input>
W0NIM11jMVtjSF1jKG5vMSlbTkhdQyg9TylbTkhdW0NIMl1bQ0BIXShbQ0gzXSlOMltDSDJdW0NIMl1bQ0gyXVtDQEBIXShbQ0gzXSlbQ0gyXTI=

> <s_epik_cmdline>
J2VwaWtfcHl0aG9uJywgJy1waCcsICc3LjAnLCAnLXRuJywgJzgnLCAnLW1hJywgJzIwMCcsICctbWV0YWxfYmluZGluZycsICctaW1hZScsICc8aW5maWxlLm1hZT4nLCAnLW9tYWUnLCAnPG91dGZpbGUubWFlPic=

> <r_epik_Ionization_Penalty>
6.76934

> <r_epik_Ionization_Penalty_Charging>
6.76934

> <r_epik_Ionization_Penalty_Neutral>
5.77849e-06

> <r_epik_State_Penalty>
6.79457

> <r_epik_Charging_Adjusted_Penalty>
13.5639

> <i_epik_Tot_Q>
0

> <i_epik_Tot_abs_Q>
2

> <r_epik_Metal_State_Penalty>
2.72837

> <b_epik_Metal_Only>
1

> <s_lp_Force_Field>
OPLS_2005

> <r_lp_Energy>
19.7061

> <b_lp_Chiralities_Consistent>
1

> <s_lp_Variant>
AV-unprocessed.smi:2083-20

> <Gold.Version>
5.8.1

> <Gold.Id.Protein>
6NUR|6NUR_protein|mol2

> <Gold.PLP.Fitness>
40.1163

> <Gold.PLP.PLP>
-35.5151

> <Gold.PLP.part.hbond>
-2.0000

> <Gold.PLP.part.metal>
0.0000

> <Gold.PLP.part.buried>
-4.7507

> <Gold.PLP.part.nonpolar>
-28.7233

> <Gold.PLP.part.repulsive>
0.3324

> <Gold.PLP.ligand.clash>
0.0000

> <Gold.PLP.ligand.torsion>
0.4766

> <Gold.PLP.Chemscore.Hbond>
1.8000

> <Gold.PLP.Chemscore.CHOScore>
0.0000

> <Gold.PLP.Chemscore.Metal>
0.0000

> <Gold.Chemscore.Hbonds>
donor molecule, donor type, donor heavy atom, donor atom, acceptor molecule, acceptor atom, score
      P1  H  6931  6943       L1    19  0.76
      P1  H  6934  6947       L1    19  0.90

> <Gold.PLP.Chemscore.Internal.Correction>
0.1544

> <Gold.Rescore>
     Score         DG    S(hbond)    S(metal)    S(lipo)     H(rot)  DE(clash)    DE(int)     intcor
     15.36     -17.19       1.31        0.00      95.77       1.52       0.00       1.82       ----

> <Gold.Chemscore.Fitness>
15.3596

> <Gold.Chemscore.DG>
-17.1870

> <Gold.Chemscore.ZeroCoef>
-5.4800

> <Gold.Chemscore.Hbond>
1.3144

> <Gold.Chemscore.Metal>
0.0000

> <Gold.Chemscore.Lipo>
95.7731

> <Gold.Chemscore.Internal_Hbond>
0.0000

> <Gold.Chemscore.DEClash>
0.0048

> <Gold.Chemscore.DEInternal>
1.8226

> <Gold.Chemscore.Rot>
1.5190

> <Gold.Chemscore.Internal.Correction>
   9.000000E+99

> <Gold.Chemscore.Hbonds>
donor molecule, donor type, donor heavy atom, donor atom, acceptor molecule, acceptor atom, score
      P1  H  6931  6943       L1    19  0.13
      P1  H  6934  6947       L1    19  0.31

> <Gold.Chemscore.Hbond.Weighted>
-4.3901

> <Gold.Chemscore.Metal.Weighted>
-0.0000

> <Gold.Chemscore.Lipo.Weighted>
-11.2055

> <Gold.Chemscore.Internal_Hbond.Weighted>
0.0000

> <Gold.Chemscore.DEClash.Weighted>
0.0048

> <Gold.Chemscore.DEInternal.Weighted>
1.8226

> <Gold.Chemscore.Rot.Weighted>
3.8886

> <Gold.Chemscore.Internal.Correction.Weighted>
   9.000000E+99

> <Gold.Protein.RotatedTorsions>
[ 6907 6896 6895 6894 ] final  154.26 input  -60.11 | X-H torsion
[ 7974 7965 7964 7962 ] final  124.00 input  175.53 | X-H torsion
[ 8008 7997 7996 7995 ] final  161.29 input   59.86 | X-H torsion
[ 10167 10162 10161 10158 ] final -169.78 input  -65.29 | X-H torsion
[ 10718 10713 10712 10709 ] final -158.02 input   66.30 | X-H torsion
[ 10763 10752 10751 10750 ] final   10.36 input  -60.55 | X-H torsion
[ 11005 11000 10999 10996 ] final   37.01 input  -57.11 | X-H torsion

> <Gold.Protein.ActiveResidues>
 VAL166  LYS551  ARG553  GLY616  TRP617  ASP618  TYR619  PRO620  LYS621  CYS622 
 ASP623  PHE694  ASN695  SER759  ASP760  ASP761  ALA762  ILE779  LEU786  VAL792 
 PHE793  MET794  SER795  GLU796  ALA797  LYS798  CYS799  TRP800  GLU811  SER814 

> <Gold.Protein.RotatedAtoms>
  152.0609  133.4062  159.4417 H   0  0  0  0  0  0  0  0  0  0  0  0  # atno 6907 bound_to 6896
  150.6866  134.3201  159.4792 H   0  0  0  0  0  0  0  0  0  0  0  0  # atno 6908 bound_to 6896
  152.1022  134.9333  160.0620 H   0  0  0  0  0  0  0  0  0  0  0  0  # atno 6909 bound_to 6896
  145.0895  139.3597  143.4868 H   0  0  0  0  0  0  0  0  0  0  0  0  # atno 7974 bound_to 7965
  156.2113  140.1781  156.7688 H   0  0  0  0  0  0  0  0  0  0  0  0  # atno 8008 bound_to 7997
  154.5727  140.0680  156.9017 H   0  0  0  0  0  0  0  0  0  0  0  0  # atno 8009 bound_to 7997
  155.2644  140.3338  155.4273 H   0  0  0  0  0  0  0  0  0  0  0  0  # atno 8010 bound_to 7997
  139.5901  144.1231  152.1624 H   0  0  0  0  0  0  0  0  0  0  0  0  # atno 10167 bound_to 10162
  156.5484  130.8594  151.2772 H   0  0  0  0  0  0  0  0  0  0  0  0  # atno 10718 bound_to 10713
  153.2040  135.6860  153.8195 H   0  0  0  0  0  0  0  0  0  0  0  0  # atno 10763 bound_to 10752
  153.7452  135.3232  155.3312 H   0  0  0  0  0  0  0  0  0  0  0  0  # atno 10764 bound_to 10752
  154.8187  135.4667  154.0819 H   0  0  0  0  0  0  0  0  0  0  0  0  # atno 10765 bound_to 10752
  140.2269  134.3574  155.7980 H   0  0  0  0  0  0  0  0  0  0  0  0  # atno 11005 bound_to 11000
  146.3531  140.0722  142.8622 LP  0  0  0  0  0  0  0  0  0  0  0  0  # atno 17320 bound_to 7965
  145.1083  140.9389  143.4671 LP  0  0  0  0  0  0  0  0  0  0  0  0  # atno 17321 bound_to 7965
  140.0803  144.5706  150.7127 LP  0  0  0  0  0  0  0  0  0  0  0  0  # atno 17342 bound_to 10162
  140.7166  143.2550  151.4414 LP  0  0  0  0  0  0  0  0  0  0  0  0  # atno 17343 bound_to 10162
  157.7392  130.9827  150.2300 LP  0  0  0  0  0  0  0  0  0  0  0  0  # atno 17370 bound_to 10713
  156.2907  130.3745  149.7844 LP  0  0  0  0  0  0  0  0  0  0  0  0  # atno 17371 bound_to 10713
  141.2220  133.7224  156.8667 LP  0  0  0  0  0  0  0  0  0  0  0  0  # atno 17394 bound_to 11000
  140.1791  134.9046  157.2927 LP  0  0  0  0  0  0  0  0  0  0  0  0  # atno 17395 bound_to 11000

$$$$
