AV-unprocessed.smi:1961|AV-procd|sdf|7919|dock4
  -GOLD-   2272010 83D 1   1.00000     0.00000
 Structure written by MMmdl.
 36 37  0  0  0  0  0  0  0  0  1 V2000
  145.0621  132.0519  151.8432 C   0  0  0  0  0  0  0  0  0  0  0  0
  143.9922  132.9144  151.1582 C   0  0  0  0  0  0  0  0  0  0  0  0
  144.0905  132.8909  149.6258 C   0  0  0  0  0  0  0  0  0  0  0  0
  143.9575  134.3098  151.7002 C   0  0  0  0  0  0  0  0  0  0  0  0
  142.9234  134.7960  152.4001 N   0  0  0  0  0  0  0  0  0  0  0  0
  143.1255  136.1099  152.7983 N   0  0  0  0  0  0  0  0  0  0  0  0
  144.3116  136.5795  152.3885 C   0  0  0  0  0  0  0  0  0  0  0  0
  144.7802  137.8912  152.6648 N   0  0  0  0  0  0  0  0  0  0  0  0
  145.9871  138.2663  153.1239 C   0  0  0  0  0  0  0  0  0  0  0  0
  146.9076  137.5018  153.4139 O   0  0  0  0  0  0  0  0  0  0  0  0
  146.0687  139.6001  153.2355 N   0  0  0  0  0  0  0  0  0  0  0  0
  147.2353  140.3417  153.7040 C   0  0  0  0  0  0  0  0  0  0  0  0
  146.8370  141.6617  154.3859 C   0  0  1  0  0  0  0  0  0  0  0  0
  146.2117  142.7070  153.4618 C   0  0  0  0  0  0  0  0  0  0  0  0
  145.4189  143.5408  154.4415 C   0  0  0  0  0  0  0  0  0  0  0  0
  144.8916  142.4771  155.4000 C   0  0  0  0  0  0  0  0  0  0  0  0
  145.8507  141.4219  155.3863 O   0  0  0  0  0  0  0  0  0  0  0  0
  145.2846  135.4436  151.4700 S   0  0  0  0  0  0  0  0  0  0  0  0
  144.9097  132.0216  152.9226 H   0  0  0  0  0  0  0  0  0  0  0  0
  146.0641  132.4405  151.6585 H   0  0  0  0  0  0  0  0  0  0  0  0
  145.0316  131.0256  151.4763 H   0  0  0  0  0  0  0  0  0  0  0  0
  143.0311  132.4640  151.4096 H   0  0  0  0  0  0  0  0  0  0  0  0
  143.2657  133.4408  149.1715 H   0  0  0  0  0  0  0  0  0  0  0  0
  144.0551  131.8696  149.2456 H   0  0  0  0  0  0  0  0  0  0  0  0
  145.0221  133.3409  149.2811 H   0  0  0  0  0  0  0  0  0  0  0  0
  144.1208  138.6329  152.4819 H   0  0  0  0  0  0  0  0  0  0  0  0
  145.2617  140.1479  152.9756 H   0  0  0  0  0  0  0  0  0  0  0  0
  147.8483  139.7344  154.3723 H   0  0  0  0  0  0  0  0  0  0  0  0
  147.8573  140.5578  152.8353 H   0  0  0  0  0  0  0  0  0  0  0  0
  147.7038  142.0982  154.8853 H   0  0  0  0  0  0  0  0  0  0  0  0
  146.9518  143.2848  152.9073 H   0  0  0  0  0  0  0  0  0  0  0  0
  145.5385  142.2342  152.7450 H   0  0  0  0  0  0  0  0  0  0  0  0
  146.0814  144.2284  154.9689 H   0  0  0  0  0  0  0  0  0  0  0  0
  144.6262  144.1222  153.9698 H   0  0  0  0  0  0  0  0  0  0  0  0
  144.7410  142.8655  156.4076 H   0  0  0  0  0  0  0  0  0  0  0  0
  143.9396  142.0818  155.0441 H   0  0  0  0  0  0  0  0  0  0  0  0
  1  2  1  0  0  0  0
  1 19  1  0  0  0  0
  1 20  1  0  0  0  0
  1 21  1  0  0  0  0
  2  3  1  0  0  0  0
  2  4  1  0  0  0  0
  2 22  1  0  0  0  0
  3 23  1  0  0  0  0
  3 24  1  0  0  0  0
  3 25  1  0  0  0  0
  4 18  1  0  0  0  0
  4  5  2  0  0  0  0
  5  6  1  0  0  0  0
  6  7  2  0  0  0  0
  7  8  1  0  0  0  0
  7 18  1  0  0  0  0
  8  9  1  0  0  0  0
  8 26  1  0  0  0  0
  9 10  2  0  0  0  0
  9 11  1  0  0  0  0
 11 12  1  0  0  0  0
 11 27  1  0  0  0  0
 12 13  1  0  0  0  0
 12 28  1  0  0  0  0
 12 29  1  0  0  0  0
 13 17  1  0  0  0  0
 13 14  1  0  0  0  0
 13 30  1  0  0  0  0
 14 15  1  0  0  0  0
 14 31  1  0  0  0  0
 14 32  1  0  0  0  0
 15 16  1  0  0  0  0
 15 33  1  0  0  0  0
 15 34  1  0  0  0  0
 16 17  1  0  0  0  0
 16 35  1  0  0  0  0
 16 36  1  0  0  0  0
M  END
> <s_m_source_file>
AV-unprocessed.smi

> <i_m_source_file_index>
1961

> <i_lp_mmshare_version>
43012

> <i_f3d_flags>
0

> <s_epik_input>
W0NIM11bQ0hdKFtDSDNdKWMxbm5jKHMxKVtOSF1DKD1PKVtOSF1bQ0gyXVtDQEBIXTJbQ0gyXVtDSDJdW0NIMl1PMg==

> <s_epik_cmdline>
J2VwaWtfcHl0aG9uJywgJy1waCcsICc3LjAnLCAnLXRuJywgJzgnLCAnLW1hJywgJzIwMCcsICctbWV0YWxfYmluZGluZycsICctaW1hZScsICc8aW5maWxlLm1hZT4nLCAnLW9tYWUnLCAnPG91dGZpbGUubWFlPic=

> <r_lp_tautomer_probability>
1

> <r_epik_Ionization_Penalty>
0.000505257

> <r_epik_Ionization_Penalty_Charging>
0

> <r_epik_Ionization_Penalty_Neutral>
0.000505257

> <r_epik_State_Penalty>
-0

> <r_epik_Charging_Adjusted_Penalty>
0

> <i_epik_Tot_Q>
0

> <i_epik_Tot_abs_Q>
0

> <r_epik_Metal_State_Penalty>
0.219912

> <b_epik_Metal_Only>
0

> <s_lp_Force_Field>
OPLS_2005

> <r_lp_Energy>
10.2881

> <b_lp_Chiralities_Consistent>
1

> <s_lp_Variant>
AV-unprocessed.smi:1961-2

> <Gold.Version>
5.8.1

> <Gold.Id.Protein>
6NUR|6NUR_protein|mol2

> <Gold.PLP.Fitness>
35.1977

> <Gold.PLP.PLP>
-30.4469

> <Gold.PLP.part.hbond>
-3.0000

> <Gold.PLP.part.metal>
0.0000

> <Gold.PLP.part.buried>
-6.3173

> <Gold.PLP.part.nonpolar>
-23.4669

> <Gold.PLP.part.repulsive>
2.5676

> <Gold.PLP.ligand.clash>
0.0000

> <Gold.PLP.ligand.torsion>
0.6697

> <Gold.PLP.Chemscore.Hbond>
2.0000

> <Gold.PLP.Chemscore.CHOScore>
0.0000

> <Gold.PLP.Chemscore.Metal>
0.0000

> <Gold.Chemscore.Hbonds>
donor molecule, donor type, donor heavy atom, donor atom, acceptor molecule, acceptor atom, score
      L1  H     8    26       P1 10175  1.00
      L1  H    11    27       P1 10175  1.00

> <Gold.PLP.Chemscore.Internal.Correction>
0.0901

> <Gold.Rescore>
     Score         DG    S(hbond)    S(metal)    S(lipo)     H(rot)  DE(clash)    DE(int)     intcor
     13.94     -15.81       1.95        0.00      64.32       1.45       1.33       0.54       ----

> <Gold.Chemscore.Fitness>
13.9417

> <Gold.Chemscore.DG>
-15.8139

> <Gold.Chemscore.ZeroCoef>
-5.4800

> <Gold.Chemscore.Hbond>
1.9493

> <Gold.Chemscore.Metal>
0.0000

> <Gold.Chemscore.Lipo>
64.3174

> <Gold.Chemscore.Internal_Hbond>
0.0000

> <Gold.Chemscore.DEClash>
1.3342

> <Gold.Chemscore.DEInternal>
0.5380

> <Gold.Chemscore.Rot>
1.4461

> <Gold.Chemscore.Internal.Correction>
   9.000000E+99

> <Gold.Chemscore.Hbonds>
donor molecule, donor type, donor heavy atom, donor atom, acceptor molecule, acceptor atom, score
      L1  H     8    26       P1 10175  0.96
      L1  H    11    27       P1 10175  0.99

> <Gold.Chemscore.Hbond.Weighted>
-6.5107

> <Gold.Chemscore.Metal.Weighted>
-0.0000

> <Gold.Chemscore.Lipo.Weighted>
-7.5251

> <Gold.Chemscore.Internal_Hbond.Weighted>
0.0000

> <Gold.Chemscore.DEClash.Weighted>
1.3342

> <Gold.Chemscore.DEInternal.Weighted>
0.5380

> <Gold.Chemscore.Rot.Weighted>
3.7019

> <Gold.Chemscore.Internal.Correction.Weighted>
   9.000000E+99

> <Gold.Protein.RotatedTorsions>
[ 6907 6896 6895 6894 ] final   89.42 input  -60.11 | X-H torsion
[ 7974 7965 7964 7962 ] final   69.98 input  175.53 | X-H torsion
[ 8008 7997 7996 7995 ] final -150.53 input   59.86 | X-H torsion
[ 10167 10162 10161 10158 ] final -119.53 input  -65.29 | X-H torsion
[ 10718 10713 10712 10709 ] final -153.41 input   66.30 | X-H torsion
[ 10763 10752 10751 10750 ] final   72.72 input  -60.55 | X-H torsion
[ 11005 11000 10999 10996 ] final   35.47 input  -57.11 | X-H torsion

> <Gold.Protein.ActiveResidues>
 VAL166  LYS551  ARG553  GLY616  TRP617  ASP618  TYR619  PRO620  LYS621  CYS622 
 ASP623  PHE694  ASN695  SER759  ASP760  ASP761  ALA762  ILE779  LEU786  VAL792 
 PHE793  MET794  SER795  GLU796  ALA797  LYS798  CYS799  TRP800  GLU811  SER814 

> <Gold.Protein.RotatedAtoms>
  152.5436  134.1969  159.8696 H   0  0  0  0  0  0  0  0  0  0  0  0  # atno 6907 bound_to 6896
  151.1960  133.4632  159.2603 H   0  0  0  0  0  0  0  0  0  0  0  0  # atno 6908 bound_to 6896
  151.1036  134.9998  159.8516 H   0  0  0  0  0  0  0  0  0  0  0  0  # atno 6909 bound_to 6896
  145.7838  139.2900  143.1250 H   0  0  0  0  0  0  0  0  0  0  0  0  # atno 7974 bound_to 7965
  155.6250  140.0685  157.2666 H   0  0  0  0  0  0  0  0  0  0  0  0  # atno 8008 bound_to 7997
  154.4220  140.1777  156.1461 H   0  0  0  0  0  0  0  0  0  0  0  0  # atno 8009 bound_to 7997
  155.9979  140.3339  155.6820 H   0  0  0  0  0  0  0  0  0  0  0  0  # atno 8010 bound_to 7997
  140.0457  143.5110  152.2108 H   0  0  0  0  0  0  0  0  0  0  0  0  # atno 10167 bound_to 10162
  156.4854  130.8322  151.2548 H   0  0  0  0  0  0  0  0  0  0  0  0  # atno 10718 bound_to 10713
  153.0476  135.5089  154.7787 H   0  0  0  0  0  0  0  0  0  0  0  0  # atno 10763 bound_to 10752
  154.6674  135.2948  154.9790 H   0  0  0  0  0  0  0  0  0  0  0  0  # atno 10764 bound_to 10752
  154.0620  135.6689  153.4865 H   0  0  0  0  0  0  0  0  0  0  0  0  # atno 10765 bound_to 10752
  140.2423  134.3400  155.7921 H   0  0  0  0  0  0  0  0  0  0  0  0  # atno 11005 bound_to 11000
  146.0047  140.8489  143.0001 LP  0  0  0  0  0  0  0  0  0  0  0  0  # atno 17320 bound_to 7965
  144.6792  140.2403  143.7344 LP  0  0  0  0  0  0  0  0  0  0  0  0  # atno 17321 bound_to 7965
  139.5985  144.7575  151.3228 LP  0  0  0  0  0  0  0  0  0  0  0  0  # atno 17342 bound_to 10162
  140.7240  143.7056  150.7810 LP  0  0  0  0  0  0  0  0  0  0  0  0  # atno 17343 bound_to 10162
  157.7479  131.0031  150.3026 LP  0  0  0  0  0  0  0  0  0  0  0  0  # atno 17370 bound_to 10713
  156.3480  130.3826  149.7353 LP  0  0  0  0  0  0  0  0  0  0  0  0  # atno 17371 bound_to 10713
  141.2209  133.7306  156.8905 LP  0  0  0  0  0  0  0  0  0  0  0  0  # atno 17394 bound_to 11000
  140.1641  134.9145  157.2751 LP  0  0  0  0  0  0  0  0  0  0  0  0  # atno 17395 bound_to 11000

$$$$
