AV-unprocessed.smi:1246|AV-procd|sdf|5242|dock5
  -GOLD-   22720 4353D 1   1.00000     0.00000
 Structure written by MMmdl.
 35 36  0  0  0  0  0  0  0  0  1 V2000
  150.7811  142.0442  156.5859 C   0  0  0  0  0  0  0  0  0  0  0  0
  150.4868  140.8615  155.7110 C   0  0  0  0  0  0  0  0  0  0  0  0
  149.3136  140.6072  154.9423 C   0  0  0  0  0  0  0  0  0  0  0  0
  149.5935  139.4036  154.3550 C   0  0  0  0  0  0  0  0  0  0  0  0
  148.8268  138.6640  153.5104 N   0  0  0  0  0  0  0  0  0  0  0  0
  147.5104  138.7681  153.2594 C   0  0  0  0  0  0  0  0  0  0  0  0
  146.7494  139.5949  153.7629 O   0  0  0  0  0  0  0  0  0  0  0  0
  147.1137  137.8428  152.3743 N   0  0  0  0  0  0  0  0  0  0  0  0
  145.7460  137.6697  151.8985 C   0  0  0  0  0  0  0  0  0  0  0  0
  145.2869  136.2068  152.0136 C   0  0  1  0  0  0  0  0  0  0  0  0
  143.7929  136.0098  151.7770 C   0  0  0  0  0  0  0  0  0  0  0  0
  143.7351  134.5384  151.4319 C   0  0  0  0  0  0  0  0  0  0  0  0
  145.0306  134.3309  150.6474 C   0  0  0  0  0  0  0  0  0  0  0  0
  145.8975  135.4044  151.0086 O   0  0  0  0  0  0  0  0  0  0  0  0
  150.8439  138.9917  154.7589 N   0  0  0  0  0  0  0  0  0  0  0  0
  151.5727  137.7875  154.4122 C   0  0  0  0  0  0  0  0  0  0  0  0
  151.3928  139.8967  155.5976 N   0  0  0  0  0  0  0  0  0  0  0  0
  149.9266  142.7194  156.6369 H   0  0  0  0  0  0  0  0  0  0  0  0
  151.6300  142.6121  156.2047 H   0  0  0  0  0  0  0  0  0  0  0  0
  151.0172  141.7323  157.6036 H   0  0  0  0  0  0  0  0  0  0  0  0
  148.4274  141.2173  154.8530 H   0  0  0  0  0  0  0  0  0  0  0  0
  149.3176  137.9389  153.0083 H   0  0  0  0  0  0  0  0  0  0  0  0
  147.8037  137.2003  152.0134 H   0  0  0  0  0  0  0  0  0  0  0  0
  145.0751  138.3218  152.4602 H   0  0  0  0  0  0  0  0  0  0  0  0
  145.6985  137.9976  150.8597 H   0  0  0  0  0  0  0  0  0  0  0  0
  145.5493  135.7949  152.9898 H   0  0  0  0  0  0  0  0  0  0  0  0
  143.1863  136.2700  152.6449 H   0  0  0  0  0  0  0  0  0  0  0  0
  143.4550  136.6071  150.9288 H   0  0  0  0  0  0  0  0  0  0  0  0
  143.7525  133.9430  152.3456 H   0  0  0  0  0  0  0  0  0  0  0  0
  142.8446  134.2656  150.8650 H   0  0  0  0  0  0  0  0  0  0  0  0
  145.4878  133.3669  150.8706 H   0  0  0  0  0  0  0  0  0  0  0  0
  144.8473  134.3771  149.5736 H   0  0  0  0  0  0  0  0  0  0  0  0
  151.5939  137.6704  153.3284 H   0  0  0  0  0  0  0  0  0  0  0  0
  151.0799  136.9220  154.8559 H   0  0  0  0  0  0  0  0  0  0  0  0
  152.5984  137.8399  154.7800 H   0  0  0  0  0  0  0  0  0  0  0  0
  1  2  1  0  0  0  0
  1 18  1  0  0  0  0
  1 19  1  0  0  0  0
  1 20  1  0  0  0  0
  2 17  2  0  0  0  0
  2  3  1  0  0  0  0
  3  4  2  0  0  0  0
  3 21  1  0  0  0  0
  4  5  1  0  0  0  0
  4 15  1  0  0  0  0
  5  6  1  0  0  0  0
  5 22  1  0  0  0  0
  6  7  2  0  0  0  0
  6  8  1  0  0  0  0
  8  9  1  0  0  0  0
  8 23  1  0  0  0  0
  9 10  1  0  0  0  0
  9 24  1  0  0  0  0
  9 25  1  0  0  0  0
 10 14  1  0  0  0  0
 10 11  1  0  0  0  0
 10 26  1  0  0  0  0
 11 12  1  0  0  0  0
 11 27  1  0  0  0  0
 11 28  1  0  0  0  0
 12 13  1  0  0  0  0
 12 29  1  0  0  0  0
 12 30  1  0  0  0  0
 13 14  1  0  0  0  0
 13 31  1  0  0  0  0
 13 32  1  0  0  0  0
 15 16  1  0  0  0  0
 15 17  1  0  0  0  0
 16 33  1  0  0  0  0
 16 34  1  0  0  0  0
 16 35  1  0  0  0  0
M  END
> <s_m_source_file>
AV-unprocessed.smi

> <i_m_source_file_index>
1246

> <i_lp_mmshare_version>
43012

> <i_f3d_flags>
0

> <s_epik_input>
W0NIM11jMVtjSF1jKG4objEpW0NIM10pW05IXUMoPU8pW05IXVtDSDJdW0NAQEhdMltDSDJdW0NIMl1bQ0gyXU8y

> <s_epik_cmdline>
J2VwaWtfcHl0aG9uJywgJy1waCcsICc3LjAnLCAnLXRuJywgJzgnLCAnLW1hJywgJzIwMCcsICctbWV0YWxfYmluZGluZycsICctaW1hZScsICc8aW5maWxlLm1hZT4nLCAnLW9tYWUnLCAnPG91dGZpbGUubWFlPic=

> <r_lp_tautomer_probability>
1

> <r_epik_Ionization_Penalty>
9.6187e-05

> <r_epik_Ionization_Penalty_Charging>
0

> <r_epik_Ionization_Penalty_Neutral>
9.6187e-05

> <r_epik_State_Penalty>
-0

> <r_epik_Charging_Adjusted_Penalty>
0

> <i_epik_Tot_Q>
0

> <i_epik_Tot_abs_Q>
0

> <r_epik_Metal_State_Penalty>
-0

> <b_epik_Metal_Only>
0

> <s_lp_Force_Field>
OPLS_2005

> <r_lp_Energy>
18.0702

> <b_lp_Chiralities_Consistent>
1

> <s_lp_Variant>
AV-unprocessed.smi:1246-2

> <Gold.Version>
5.8.1

> <Gold.Id.Protein>
6NUR|6NUR_protein|mol2

> <Gold.PLP.Fitness>
37.3310

> <Gold.PLP.PLP>
-32.2818

> <Gold.PLP.part.hbond>
-3.7666

> <Gold.PLP.part.metal>
0.0000

> <Gold.PLP.part.buried>
-2.7418

> <Gold.PLP.part.nonpolar>
-27.3341

> <Gold.PLP.part.repulsive>
0.5241

> <Gold.PLP.ligand.clash>
0.0000

> <Gold.PLP.ligand.torsion>
0.1787

> <Gold.PLP.Chemscore.Hbond>
1.8008

> <Gold.PLP.Chemscore.CHOScore>
0.0000

> <Gold.PLP.Chemscore.Metal>
0.0000

> <Gold.Chemscore.Hbonds>
donor molecule, donor type, donor heavy atom, donor atom, acceptor molecule, acceptor atom, score
      L1  H     5    22       P1  7948  0.80
      L1  H     8    23       P1  7948  0.89

> <Gold.PLP.Chemscore.Internal.Correction>
0.0043

> <Gold.Rescore>
     Score         DG    S(hbond)    S(metal)    S(lipo)     H(rot)  DE(clash)    DE(int)     intcor
     13.61     -15.16       1.93        0.00      54.99       1.25       0.55       1.01       ----

> <Gold.Chemscore.Fitness>
13.6058

> <Gold.Chemscore.DG>
-15.1619

> <Gold.Chemscore.ZeroCoef>
-5.4800

> <Gold.Chemscore.Hbond>
1.9288

> <Gold.Chemscore.Metal>
0.0000

> <Gold.Chemscore.Lipo>
54.9936

> <Gold.Chemscore.Internal_Hbond>
0.0000

> <Gold.Chemscore.DEClash>
0.5510

> <Gold.Chemscore.DEInternal>
1.0052

> <Gold.Chemscore.Rot>
1.2478

> <Gold.Chemscore.Internal.Correction>
   9.000000E+99

> <Gold.Chemscore.Hbonds>
donor molecule, donor type, donor heavy atom, donor atom, acceptor molecule, acceptor atom, score
      L1  H     5    22       P1  7948  0.72
      L1  H     8    23       P1  7948  0.87

> <Gold.Chemscore.Hbond.Weighted>
-6.4421

> <Gold.Chemscore.Metal.Weighted>
-0.0000

> <Gold.Chemscore.Lipo.Weighted>
-6.4342

> <Gold.Chemscore.Internal_Hbond.Weighted>
0.0000

> <Gold.Chemscore.DEClash.Weighted>
0.5510

> <Gold.Chemscore.DEInternal.Weighted>
1.0052

> <Gold.Chemscore.Rot.Weighted>
3.1944

> <Gold.Chemscore.Internal.Correction.Weighted>
   9.000000E+99

> <Gold.Protein.RotatedTorsions>
[ 6907 6896 6895 6894 ] final  138.17 input  -60.11 | X-H torsion
[ 7974 7965 7964 7962 ] final   15.82 input  175.53 | X-H torsion
[ 8008 7997 7996 7995 ] final   54.81 input   59.86 | X-H torsion
[ 10167 10162 10161 10158 ] final   88.27 input  -65.29 | X-H torsion
[ 10718 10713 10712 10709 ] final  -64.95 input   66.30 | X-H torsion
[ 10763 10752 10751 10750 ] final  -65.71 input  -60.55 | X-H torsion
[ 11005 11000 10999 10996 ] final -135.85 input  -57.11 | X-H torsion

> <Gold.Protein.ActiveResidues>
 VAL166  LYS551  ARG553  GLY616  TRP617  ASP618  TYR619  PRO620  LYS621  CYS622 
 ASP623  PHE694  ASN695  SER759  ASP760  ASP761  ALA762  ILE779  LEU786  VAL792 
 PHE793  MET794  SER795  GLU796  ALA797  LYS798  CYS799  TRP800  GLU811  SER814 

> <Gold.Protein.RotatedAtoms>
  152.2696  133.5371  159.5431 H   0  0  0  0  0  0  0  0  0  0  0  0  # atno 6907 bound_to 6896
  150.7154  134.0716  159.3875 H   0  0  0  0  0  0  0  0  0  0  0  0  # atno 6908 bound_to 6896
  151.8631  135.0517  160.0522 H   0  0  0  0  0  0  0  0  0  0  0  0  # atno 6909 bound_to 6896
  146.2267  139.8838  142.8566 H   0  0  0  0  0  0  0  0  0  0  0  0  # atno 7974 bound_to 7965
  155.4908  140.3471  155.4354 H   0  0  0  0  0  0  0  0  0  0  0  0  # atno 8008 bound_to 7997
  156.0978  140.1427  156.9536 H   0  0  0  0  0  0  0  0  0  0  0  0  # atno 8009 bound_to 7997
  154.4674  140.0912  156.7035 H   0  0  0  0  0  0  0  0  0  0  0  0  # atno 8010 bound_to 7997
  139.8689  144.6503  150.8972 H   0  0  0  0  0  0  0  0  0  0  0  0  # atno 10167 bound_to 10162
  156.0698  130.4240  150.1494 H   0  0  0  0  0  0  0  0  0  0  0  0  # atno 10718 bound_to 10713
  154.3491  135.6140  153.5634 H   0  0  0  0  0  0  0  0  0  0  0  0  # atno 10763 bound_to 10752
  152.9799  135.5788  154.4764 H   0  0  0  0  0  0  0  0  0  0  0  0  # atno 10764 bound_to 10752
  154.4482  135.2852  155.1777 H   0  0  0  0  0  0  0  0  0  0  0  0  # atno 10765 bound_to 10752
  140.8860  134.1872  157.4560 H   0  0  0  0  0  0  0  0  0  0  0  0  # atno 11005 bound_to 11000
  145.2485  141.0035  143.3894 LP  0  0  0  0  0  0  0  0  0  0  0  0  # atno 17320 bound_to 7965
  144.9393  139.4207  143.6456 LP  0  0  0  0  0  0  0  0  0  0  0  0  # atno 17321 bound_to 7965
  140.7764  143.3680  151.1702 LP  0  0  0  0  0  0  0  0  0  0  0  0  # atno 17342 bound_to 10162
  139.7302  143.9084  152.3017 LP  0  0  0  0  0  0  0  0  0  0  0  0  # atno 17343 bound_to 10162
  156.9547  130.9786  151.3491 LP  0  0  0  0  0  0  0  0  0  0  0  0  # atno 17370 bound_to 10713
  157.5762  130.8344  149.8459 LP  0  0  0  0  0  0  0  0  0  0  0  0  # atno 17371 bound_to 10713
  139.8724  134.9838  156.5212 LP  0  0  0  0  0  0  0  0  0  0  0  0  # atno 17394 bound_to 11000
  140.8405  133.8209  155.9070 LP  0  0  0  0  0  0  0  0  0  0  0  0  # atno 17395 bound_to 11000

$$$$
