AV-unprocessed.smi:1019|AV-procd|sdf|4444|dock8
  -GOLD-   22720 2403D 1   1.00000     0.00000
 Structure written by MMmdl.
 44 46  0  0  0  0  0  0  0  0  2 V2000
  147.1548  135.0840  154.4619 C   0  0  0  0  0  0  0  0  0  0  0  0
  148.4542  134.5199  154.0171 N   0  3  2  0  0  0  0  0  0  0  0  0
  148.4148  133.0429  153.8654 C   0  0  0  0  0  0  0  0  0  0  0  0
  147.4290  132.6003  152.7982 C   0  0  0  0  0  0  0  0  0  0  0  0
  146.9952  131.2583  152.7542 C   0  0  0  0  0  0  0  0  0  0  0  0
  146.0830  130.8415  151.7655 C   0  0  0  0  0  0  0  0  0  0  0  0
  145.5991  131.7649  150.8189 C   0  0  0  0  0  0  0  0  0  0  0  0
  146.0275  133.1060  150.8615 C   0  0  0  0  0  0  0  0  0  0  0  0
  146.9402  133.5238  151.8495 C   0  0  0  0  0  0  0  0  0  0  0  0
  149.5903  134.9674  154.8639 C   0  0  0  0  0  0  0  0  0  0  0  0
  149.9763  136.4431  154.6101 C   0  0  2  0  0  0  0  0  0  0  0  0
  151.2108  136.4879  153.9227 O   0  0  0  0  0  0  0  0  0  0  0  0
  150.1349  137.2697  155.9027 C   0  0  0  0  0  0  0  0  0  0  0  0
  150.2373  138.6953  155.6469 N   0  0  0  0  0  0  0  0  0  0  0  0
  150.0177  139.3275  154.4775 C   0  0  0  0  0  0  0  0  0  0  0  0
  150.1855  140.6462  154.4570 N   0  0  0  0  0  0  0  0  0  0  0  0
  150.5409  140.9039  155.7697 C   0  0  0  0  0  0  0  0  0  0  0  0
  150.8601  142.1219  156.4111 C   0  0  0  0  0  0  0  0  0  0  0  0
  151.1973  142.1413  157.7806 C   0  0  0  0  0  0  0  0  0  0  0  0
  151.2181  140.9464  158.5289 C   0  0  0  0  0  0  0  0  0  0  0  0
  150.9050  139.7202  157.9114 C   0  0  0  0  0  0  0  0  0  0  0  0
  150.5739  139.7044  156.5435 C   0  0  0  0  0  0  0  0  0  0  0  0
  146.8712  134.6862  155.4373 H   0  0  0  0  0  0  0  0  0  0  0  0
  146.3593  134.8474  153.7555 H   0  0  0  0  0  0  0  0  0  0  0  0
  147.1923  136.1696  154.5408 H   0  0  0  0  0  0  0  0  0  0  0  0
  149.3968  132.6700  153.5710 H   0  0  0  0  0  0  0  0  0  0  0  0
  148.1791  132.5744  154.8226 H   0  0  0  0  0  0  0  0  0  0  0  0
  147.3619  130.5449  153.4777 H   0  0  0  0  0  0  0  0  0  0  0  0
  145.7538  129.8132  151.7334 H   0  0  0  0  0  0  0  0  0  0  0  0
  144.8987  131.4452  150.0614 H   0  0  0  0  0  0  0  0  0  0  0  0
  145.6547  133.8143  150.1361 H   0  0  0  0  0  0  0  0  0  0  0  0
  147.2643  134.5541  151.8746 H   0  0  0  0  0  0  0  0  0  0  0  0
  149.3219  134.7997  155.9077 H   0  0  0  0  0  0  0  0  0  0  0  0
  150.4716  134.3506  154.6811 H   0  0  0  0  0  0  0  0  0  0  0  0
  149.2313  136.9303  153.9833 H   0  0  0  0  0  0  0  0  0  0  0  0
  151.0493  136.6644  153.0088 H   0  0  0  0  0  0  0  0  0  0  0  0
  149.2864  137.0983  156.5673 H   0  0  0  0  0  0  0  0  0  0  0  0
  151.0266  136.9565  156.4475 H   0  0  0  0  0  0  0  0  0  0  0  0
  149.7297  138.7879  153.5870 H   0  0  0  0  0  0  0  0  0  0  0  0
  150.8441  143.0441  155.8491 H   0  0  0  0  0  0  0  0  0  0  0  0
  151.4385  143.0788  158.2601 H   0  0  0  0  0  0  0  0  0  0  0  0
  151.4733  140.9725  159.5782 H   0  0  0  0  0  0  0  0  0  0  0  0
  150.9182  138.8050  158.4840 H   0  0  0  0  0  0  0  0  0  0  0  0
  148.6358  134.8839  153.0927 H   0  0  0  0  0  0  0  0  0  0  0  0
  1  2  1  0  0  0  0
  1 23  1  0  0  0  0
  1 24  1  0  0  0  0
  1 25  1  0  0  0  0
  2  3  1  0  0  0  0
  2 10  1  0  0  0  0
  2 44  1  0  0  0  0
  3  4  1  0  0  0  0
  3 26  1  0  0  0  0
  3 27  1  0  0  0  0
  4  9  1  0  0  0  0
  4  5  2  0  0  0  0
  5  6  1  0  0  0  0
  5 28  1  0  0  0  0
  6  7  2  0  0  0  0
  6 29  1  0  0  0  0
  7  8  1  0  0  0  0
  7 30  1  0  0  0  0
  8  9  2  0  0  0  0
  8 31  1  0  0  0  0
  9 32  1  0  0  0  0
 10 11  1  0  0  0  0
 10 33  1  0  0  0  0
 10 34  1  0  0  0  0
 11 12  1  0  0  0  0
 11 13  1  0  0  0  0
 11 35  1  0  0  0  0
 12 36  1  0  0  0  0
 13 14  1  0  0  0  0
 13 37  1  0  0  0  0
 13 38  1  0  0  0  0
 14 22  1  0  0  0  0
 14 15  1  0  0  0  0
 15 16  2  0  0  0  0
 15 39  1  0  0  0  0
 16 17  1  0  0  0  0
 17 22  2  0  0  0  0
 17 18  1  0  0  0  0
 18 19  2  0  0  0  0
 18 40  1  0  0  0  0
 19 20  1  0  0  0  0
 19 41  1  0  0  0  0
 20 21  2  0  0  0  0
 20 42  1  0  0  0  0
 21 22  1  0  0  0  0
 21 43  1  0  0  0  0
M  CHG  1   2   1
M  END
> <s_m_source_file>
AV-unprocessed.smi

> <i_m_source_file_index>
1019

> <i_lp_mmshare_version>
43012

> <i_f3d_flags>
0

> <s_epik_input>
W2NIXTFbY0hdW2NIXVtjSF1bY0hdYzFbQ0gyXU4oW0NIM10pW0NIMl1bQ0BIXShbT0hdKVtDSDJdbihbY0hdbjIpYyhjMjMpW2NIXVtjSF1bY0hdW2NIXTM=

> <s_epik_cmdline>
J2VwaWtfcHl0aG9uJywgJy1waCcsICc3LjAnLCAnLXRuJywgJzgnLCAnLW1hJywgJzIwMCcsICctbWV0YWxfYmluZGluZycsICctaW1hZScsICc8aW5maWxlLm1hZT4nLCAnLW9tYWUnLCAnPG91dGZpbGUubWFlPic=

> <r_epik_Ionization_Penalty>
0.0996557

> <r_epik_Ionization_Penalty_Charging>
0.0475377

> <r_epik_Ionization_Penalty_Neutral>
0.0521179

> <r_epik_State_Penalty>
0.0851777

> <r_epik_Charging_Adjusted_Penalty>
0.132715

> <i_epik_Tot_Q>
1

> <i_epik_Tot_abs_Q>
1

> <r_epik_Metal_State_Penalty>
0.0423478

> <b_epik_Metal_Only>
0

> <s_lp_Force_Field>
OPLS_2005

> <r_lp_Energy>
17.6047

> <b_lp_Chiralities_Consistent>
1

> <s_lp_Variant>
AV-unprocessed.smi:1019-2

> <Gold.Version>
5.8.1

> <Gold.Id.Protein>
6NUR|6NUR_protein|mol2

> <Gold.PLP.Fitness>
52.9106

> <Gold.PLP.PLP>
-39.5072

> <Gold.PLP.part.hbond>
-4.3011

> <Gold.PLP.part.metal>
0.0000

> <Gold.PLP.part.buried>
-1.9109

> <Gold.PLP.part.nonpolar>
-32.1152

> <Gold.PLP.part.repulsive>
0.1221

> <Gold.PLP.ligand.clash>
0.0000

> <Gold.PLP.ligand.torsion>
1.2358

> <Gold.PLP.Chemscore.Hbond>
4.9600

> <Gold.PLP.Chemscore.CHOScore>
0.2342

> <Gold.PLP.Chemscore.Metal>
0.0000

> <Gold.Chemscore.Hbonds>
donor molecule, donor type, donor heavy atom, donor atom, acceptor molecule, acceptor atom, score
      L1  H     2    44       P1  7948  2.00
      L1  H    12    36       P1  7949  0.85
      P1  H  7989  7998       L1    16  0.83
      P1  H 10752 10764       L1    12  1.00
      L1  C    15    39       P1  7957  0.43

> <Gold.PLP.Chemscore.Internal.Correction>
0.2924

> <Gold.Rescore>
     Score         DG    S(hbond)    S(metal)    S(lipo)     H(rot)  DE(clash)    DE(int)     intcor
     18.76     -20.71       2.91        0.00      98.72       2.36       0.33       1.63       ----

> <Gold.Chemscore.Fitness>
18.7606

> <Gold.Chemscore.DG>
-20.7144

> <Gold.Chemscore.ZeroCoef>
-5.4800

> <Gold.Chemscore.Hbond>
2.9131

> <Gold.Chemscore.Metal>
0.0000

> <Gold.Chemscore.Lipo>
98.7200

> <Gold.Chemscore.Internal_Hbond>
0.0000

> <Gold.Chemscore.DEClash>
0.3263

> <Gold.Chemscore.DEInternal>
1.6275

> <Gold.Chemscore.Rot>
2.3616

> <Gold.Chemscore.Internal.Correction>
   9.000000E+99

> <Gold.Chemscore.Hbonds>
donor molecule, donor type, donor heavy atom, donor atom, acceptor molecule, acceptor atom, score
      L1  H     2    44       P1  7948  0.44
      L1  H    12    36       P1  7949  0.25
      P1  H  7989  7998       L1    16  0.25
      P1  H 10752 10764       L1    12  0.74

> <Gold.Chemscore.Hbond.Weighted>
-9.7299

> <Gold.Chemscore.Metal.Weighted>
-0.0000

> <Gold.Chemscore.Lipo.Weighted>
-11.5502

> <Gold.Chemscore.Internal_Hbond.Weighted>
0.0000

> <Gold.Chemscore.DEClash.Weighted>
0.3263

> <Gold.Chemscore.DEInternal.Weighted>
1.6275

> <Gold.Chemscore.Rot.Weighted>
6.0457

> <Gold.Chemscore.Internal.Correction.Weighted>
   9.000000E+99

> <Gold.Protein.RotatedTorsions>
[ 6907 6896 6895 6894 ] final  115.59 input  -60.11 | X-H torsion
[ 7974 7965 7964 7962 ] final    7.34 input  175.53 | X-H torsion
[ 8008 7997 7996 7995 ] final -159.52 input   59.86 | X-H torsion
[ 10167 10162 10161 10158 ] final -144.00 input  -65.29 | X-H torsion
[ 10718 10713 10712 10709 ] final  109.12 input   66.30 | X-H torsion
[ 10763 10752 10751 10750 ] final  -86.91 input  -60.55 | X-H torsion
[ 11005 11000 10999 10996 ] final   62.64 input  -57.11 | X-H torsion

> <Gold.Protein.ActiveResidues>
 VAL166  LYS551  ARG553  GLY616  TRP617  ASP618  TYR619  PRO620  LYS621  CYS622 
 ASP623  PHE694  ASN695  SER759  ASP760  ASP761  ALA762  ILE779  LEU786  VAL792 
 PHE793  MET794  SER795  GLU796  ALA797  LYS798  CYS799  TRP800  GLU811  SER814 

> <Gold.Protein.RotatedAtoms>
  152.4732  133.8078  159.6986 H   0  0  0  0  0  0  0  0  0  0  0  0  # atno 6907 bound_to 6896
  150.8733  133.7465  159.2961 H   0  0  0  0  0  0  0  0  0  0  0  0  # atno 6908 bound_to 6896
  151.4992  135.1064  159.9876 H   0  0  0  0  0  0  0  0  0  0  0  0  # atno 6909 bound_to 6896
  146.2427  140.0098  142.8408 H   0  0  0  0  0  0  0  0  0  0  0  0  # atno 7974 bound_to 7965
  155.7637  140.0842  157.2142 H   0  0  0  0  0  0  0  0  0  0  0  0  # atno 8008 bound_to 7997
  154.4001  140.1538  156.2919 H   0  0  0  0  0  0  0  0  0  0  0  0  # atno 8009 bound_to 7997
  155.8814  140.3420  155.5893 H   0  0  0  0  0  0  0  0  0  0  0  0  # atno 8010 bound_to 7997
  139.7940  143.7926  152.2652 H   0  0  0  0  0  0  0  0  0  0  0  0  # atno 10167 bound_to 10162
  157.6556  131.0907  150.6407 H   0  0  0  0  0  0  0  0  0  0  0  0  # atno 10718 bound_to 10713
  154.6277  135.5432  153.7645 H   0  0  0  0  0  0  0  0  0  0  0  0  # atno 10763 bound_to 10752
  153.0269  135.6428  154.1347 H   0  0  0  0  0  0  0  0  0  0  0  0  # atno 10764 bound_to 10752
  154.1279  135.2916  155.3172 H   0  0  0  0  0  0  0  0  0  0  0  0  # atno 10765 bound_to 10752
  140.0078  134.6342  155.9827 H   0  0  0  0  0  0  0  0  0  0  0  0  # atno 11005 bound_to 11000
  145.1339  140.9533  143.4528 LP  0  0  0  0  0  0  0  0  0  0  0  0  # atno 17320 bound_to 7965
  145.0361  139.3299  143.6000 LP  0  0  0  0  0  0  0  0  0  0  0  0  # atno 17321 bound_to 7965
  139.8026  144.7368  150.9804 LP  0  0  0  0  0  0  0  0  0  0  0  0  # atno 17342 bound_to 10162
  140.7820  143.4330  151.0666 LP  0  0  0  0  0  0  0  0  0  0  0  0  # atno 17343 bound_to 10162
  156.6713  130.4540  149.5656 LP  0  0  0  0  0  0  0  0  0  0  0  0  # atno 17370 bound_to 10713
  156.1995  130.6611  151.1152 LP  0  0  0  0  0  0  0  0  0  0  0  0  # atno 17371 bound_to 10713
  141.1689  133.6537  156.4581 LP  0  0  0  0  0  0  0  0  0  0  0  0  # atno 17394 bound_to 11000
  140.4609  134.6842  157.5085 LP  0  0  0  0  0  0  0  0  0  0  0  0  # atno 17395 bound_to 11000

$$$$
