AV-unprocessed.smi:2446|AV-procd|sdf|9644|dock1
  -GOLD-   2272013273D 1   1.00000     0.00000
 Structure written by MMmdl.
 39 40  0  0  0  0  0  0  0  0  1 V2000
  146.5905  142.4830  154.9460 C   0  0  0  0  0  0  0  0  0  0  0  0
  147.4694  141.2707  154.6905 C   0  0  0  0  0  0  0  0  0  0  0  0
  146.9611  140.1737  153.9622 C   0  0  0  0  0  0  0  0  0  0  0  0
  147.6741  139.0601  153.6962 N   0  0  0  0  0  0  0  0  0  0  0  0
  148.9392  138.9978  154.1594 C   0  0  0  0  0  0  0  0  0  0  0  0
  149.5474  140.0333  154.8955 C   0  0  0  0  0  0  0  0  0  0  0  0
  148.8037  141.2086  155.1610 C   0  0  0  0  0  0  0  0  0  0  0  0
  149.3126  142.3087  155.9067 N   0  0  0  0  0  0  0  0  0  0  0  0
  150.5504  142.5051  156.4018 C   0  0  0  0  0  0  0  0  0  0  0  0
  151.4815  141.7088  156.3052 O   0  0  0  0  0  0  0  0  0  0  0  0
  150.7126  143.6882  157.0221 N   0  0  0  0  0  0  0  0  0  0  0  0
  151.9134  144.2279  157.6700 C   0  0  1  0  0  0  0  0  0  0  0  0
  151.5160  145.2675  158.7351 C   0  0  0  0  0  0  0  0  0  0  0  0
  150.8527  144.6189  159.9618 C   0  0  0  0  0  0  0  0  0  0  0  0
  151.7421  143.5210  160.5650 C   0  0  0  0  0  0  0  0  0  0  0  0
  152.1109  142.4476  159.5196 C   0  0  2  0  0  0  0  0  0  0  0  0
  152.9893  141.3318  160.1220 C   0  0  0  0  0  0  0  0  0  0  0  0
  152.5882  141.0256  161.3561 F   0  0  0  0  0  0  0  0  0  0  0  0
  152.9222  140.2379  159.3632 F   0  0  0  0  0  0  0  0  0  0  0  0
  154.2611  141.7283  160.1686 F   0  0  0  0  0  0  0  0  0  0  0  0
  152.7790  143.1092  158.2931 C   0  0  0  0  0  0  0  0  0  0  0  0
  145.5883  142.3373  154.5420 H   0  0  0  0  0  0  0  0  0  0  0  0
  147.0185  143.3688  154.4761 H   0  0  0  0  0  0  0  0  0  0  0  0
  146.4977  142.6691  156.0164 H   0  0  0  0  0  0  0  0  0  0  0  0
  145.9503  140.1866  153.5817 H   0  0  0  0  0  0  0  0  0  0  0  0
  149.4834  138.0905  153.9428 H   0  0  0  0  0  0  0  0  0  0  0  0
  150.5581  139.8981  155.2474 H   0  0  0  0  0  0  0  0  0  0  0  0
  148.6756  143.0846  156.0112 H   0  0  0  0  0  0  0  0  0  0  0  0
  149.8997  144.2864  157.0527 H   0  0  0  0  0  0  0  0  0  0  0  0
  152.5054  144.7504  156.9167 H   0  0  0  0  0  0  0  0  0  0  0  0
  152.4079  145.8060  159.0580 H   0  0  0  0  0  0  0  0  0  0  0  0
  150.8512  146.0165  158.3032 H   0  0  0  0  0  0  0  0  0  0  0  0
  150.6445  145.3800  160.7142 H   0  0  0  0  0  0  0  0  0  0  0  0
  149.8880  144.1951  159.6806 H   0  0  0  0  0  0  0  0  0  0  0  0
  152.6497  143.9711  160.9693 H   0  0  0  0  0  0  0  0  0  0  0  0
  151.2254  143.0620  161.4082 H   0  0  0  0  0  0  0  0  0  0  0  0
  151.1838  141.9802  159.1844 H   0  0  0  0  0  0  0  0  0  0  0  0
  153.0137  142.3535  157.5437 H   0  0  0  0  0  0  0  0  0  0  0  0
  153.7374  143.5343  158.5940 H   0  0  0  0  0  0  0  0  0  0  0  0
  1  2  1  0  0  0  0
  1 22  1  0  0  0  0
  1 23  1  0  0  0  0
  1 24  1  0  0  0  0
  2  7  1  0  0  0  0
  2  3  2  0  0  0  0
  3  4  1  0  0  0  0
  3 25  1  0  0  0  0
  4  5  2  0  0  0  0
  5  6  1  0  0  0  0
  5 26  1  0  0  0  0
  6  7  2  0  0  0  0
  6 27  1  0  0  0  0
  7  8  1  0  0  0  0
  8  9  1  0  0  0  0
  8 28  1  0  0  0  0
  9 10  2  0  0  0  0
  9 11  1  0  0  0  0
 11 12  1  0  0  0  0
 11 29  1  0  0  0  0
 12 21  1  0  0  0  0
 12 13  1  0  0  0  0
 12 30  1  0  0  0  0
 13 14  1  0  0  0  0
 13 31  1  0  0  0  0
 13 32  1  0  0  0  0
 14 15  1  0  0  0  0
 14 33  1  0  0  0  0
 14 34  1  0  0  0  0
 15 16  1  0  0  0  0
 15 35  1  0  0  0  0
 15 36  1  0  0  0  0
 16 17  1  0  0  0  0
 16 21  1  0  0  0  0
 16 37  1  0  0  0  0
 17 18  1  0  0  0  0
 17 19  1  0  0  0  0
 17 20  1  0  0  0  0
 21 38  1  0  0  0  0
 21 39  1  0  0  0  0
M  END
> <s_m_source_file>
AV-unprocessed.smi

> <i_m_source_file_index>
2446

> <i_lp_mmshare_version>
43012

> <i_f3d_flags>
0

> <s_epik_input>
W0NIM11jMVtjSF1uW2NIXVtjSF1jMVtOSF1DKD1PKVtOSF1bQ0BASF0yW0NIMl1bQ0gyXVtDSDJdW0NAQEhdKEMoRikoRilGKVtDSDJdMg==

> <s_epik_cmdline>
J2VwaWtfcHl0aG9uJywgJy1waCcsICc3LjAnLCAnLXRuJywgJzgnLCAnLW1hJywgJzIwMCcsICctbWV0YWxfYmluZGluZycsICctaW1hZScsICc8aW5maWxlLm1hZT4nLCAnLW9tYWUnLCAnPG91dGZpbGUubWFlPic=

> <r_epik_Ionization_Penalty>
0.20168

> <r_epik_Ionization_Penalty_Charging>
0

> <r_epik_Ionization_Penalty_Neutral>
0.20168

> <r_epik_State_Penalty>
0.191514

> <r_epik_Charging_Adjusted_Penalty>
0.191514

> <i_epik_Tot_Q>
0

> <i_epik_Tot_abs_Q>
0

> <r_epik_Metal_State_Penalty>
0.142371

> <b_epik_Metal_Only>
0

> <s_lp_Force_Field>
OPLS_2005

> <r_lp_Energy>
25.5489

> <b_lp_Chiralities_Consistent>
1

> <s_lp_Variant>
AV-unprocessed.smi:2446-4

> <Gold.Version>
5.8.1

> <Gold.Id.Protein>
6NUR|6NUR_protein|mol2

> <Gold.PLP.Fitness>
42.4823

> <Gold.PLP.PLP>
-36.8209

> <Gold.PLP.part.hbond>
-1.6710

> <Gold.PLP.part.metal>
0.0000

> <Gold.PLP.part.buried>
-1.3924

> <Gold.PLP.part.nonpolar>
-34.4120

> <Gold.PLP.part.repulsive>
0.3713

> <Gold.PLP.ligand.clash>
0.0000

> <Gold.PLP.ligand.torsion>
0.8704

> <Gold.PLP.Chemscore.Hbond>
1.1040

> <Gold.PLP.Chemscore.CHOScore>
1.3550

> <Gold.PLP.Chemscore.Metal>
0.0000

> <Gold.Chemscore.Hbonds>
donor molecule, donor type, donor heavy atom, donor atom, acceptor molecule, acceptor atom, score
      L1  H     8    28       P1  8028  0.62
      L1  H    11    29       P1  8028  0.53
      L1  C     3    25       P1 10175  0.98
      L1  C     5    26       P1  7948  0.28

> <Gold.PLP.Chemscore.Internal.Correction>
0.0251

> <Gold.Rescore>
     Score         DG    S(hbond)    S(metal)    S(lipo)     H(rot)  DE(clash)    DE(int)     intcor
     15.97     -21.99       1.63        0.00     116.34       1.00       2.65       3.37       ----

> <Gold.Chemscore.Fitness>
15.9713

> <Gold.Chemscore.DG>
-21.9920

> <Gold.Chemscore.ZeroCoef>
-5.4800

> <Gold.Chemscore.Hbond>
1.6348

> <Gold.Chemscore.Metal>
0.0000

> <Gold.Chemscore.Lipo>
116.3391

> <Gold.Chemscore.Internal_Hbond>
0.0000

> <Gold.Chemscore.DEClash>
2.6539

> <Gold.Chemscore.DEInternal>
3.3668

> <Gold.Chemscore.Rot>
1.0000

> <Gold.Chemscore.Internal.Correction>
   9.000000E+99

> <Gold.Chemscore.Hbonds>
donor molecule, donor type, donor heavy atom, donor atom, acceptor molecule, acceptor atom, score
      L1  H     8    28       P1  8028  0.62
      L1  H    11    29       P1  8028  0.38

> <Gold.Chemscore.Hbond.Weighted>
-5.4603

> <Gold.Chemscore.Metal.Weighted>
-0.0000

> <Gold.Chemscore.Lipo.Weighted>
-13.6117

> <Gold.Chemscore.Internal_Hbond.Weighted>
0.0000

> <Gold.Chemscore.DEClash.Weighted>
2.6539

> <Gold.Chemscore.DEInternal.Weighted>
3.3668

> <Gold.Chemscore.Rot.Weighted>
2.5600

> <Gold.Chemscore.Internal.Correction.Weighted>
   9.000000E+99

> <Gold.Protein.RotatedTorsions>
[ 6907 6896 6895 6894 ] final  -82.23 input  -60.11 | X-H torsion
[ 7974 7965 7964 7962 ] final  115.73 input  175.53 | X-H torsion
[ 8008 7997 7996 7995 ] final  -46.11 input   59.86 | X-H torsion
[ 10167 10162 10161 10158 ] final -100.56 input  -65.29 | X-H torsion
[ 10718 10713 10712 10709 ] final  -23.59 input   66.30 | X-H torsion
[ 10763 10752 10751 10750 ] final -159.52 input  -60.55 | X-H torsion
[ 11005 11000 10999 10996 ] final   -3.07 input  -57.11 | X-H torsion

> <Gold.Protein.ActiveResidues>
 VAL166  LYS551  ARG553  GLY616  TRP617  ASP618  TYR619  PRO620  LYS621  CYS622 
 ASP623  PHE694  ASN695  SER759  ASP760  ASP761  ALA762  ILE779  LEU786  VAL792 
 PHE793  MET794  SER795  GLU796  ALA797  LYS798  CYS799  TRP800  GLU811  SER814 

> <Gold.Protein.RotatedAtoms>
  150.6900  134.3696  159.4986 H   0  0  0  0  0  0  0  0  0  0  0  0  # atno 6907 bound_to 6896
  152.1514  134.8983  160.0557 H   0  0  0  0  0  0  0  0  0  0  0  0  # atno 6908 bound_to 6896
  152.0079  133.3815  159.4245 H   0  0  0  0  0  0  0  0  0  0  0  0  # atno 6909 bound_to 6896
  145.1883  139.3013  143.4381 H   0  0  0  0  0  0  0  0  0  0  0  0  # atno 7974 bound_to 7965
  154.4005  140.1380  156.3957 H   0  0  0  0  0  0  0  0  0  0  0  0  # atno 8008 bound_to 7997
  155.7872  140.3480  155.5309 H   0  0  0  0  0  0  0  0  0  0  0  0  # atno 8009 bound_to 7997
  155.8615  140.0957  157.1600 H   0  0  0  0  0  0  0  0  0  0  0  0  # atno 8010 bound_to 7997
  140.2506  143.3475  152.0718 H   0  0  0  0  0  0  0  0  0  0  0  0  # atno 10167 bound_to 10162
  156.4890  130.4562  149.6767 H   0  0  0  0  0  0  0  0  0  0  0  0  # atno 10718 bound_to 10713
  154.7468  135.3082  154.8631 H   0  0  0  0  0  0  0  0  0  0  0  0  # atno 10763 bound_to 10752
  153.9429  135.6772  153.4748 H   0  0  0  0  0  0  0  0  0  0  0  0  # atno 10764 bound_to 10752
  153.1064  135.4887  154.8885 H   0  0  0  0  0  0  0  0  0  0  0  0  # atno 10765 bound_to 10752
  140.6653  133.9284  155.8461 H   0  0  0  0  0  0  0  0  0  0  0  0  # atno 11005 bound_to 11000
  146.3441  140.2087  142.8590 LP  0  0  0  0  0  0  0  0  0  0  0  0  # atno 17320 bound_to 7965
  145.0066  140.8678  143.5249 LP  0  0  0  0  0  0  0  0  0  0  0  0  # atno 17321 bound_to 7965
  139.5047  144.6781  151.6077 LP  0  0  0  0  0  0  0  0  0  0  0  0  # atno 17342 bound_to 10162
  140.6043  143.9552  150.6408 LP  0  0  0  0  0  0  0  0  0  0  0  0  # atno 17343 bound_to 10162
  156.3446  130.7400  151.2350 LP  0  0  0  0  0  0  0  0  0  0  0  0  # atno 17370 bound_to 10713
  157.7476  131.0394  150.4549 LP  0  0  0  0  0  0  0  0  0  0  0  0  # atno 17371 bound_to 10713
  141.0434  134.0589  157.3874 LP  0  0  0  0  0  0  0  0  0  0  0  0  # atno 17394 bound_to 11000
  139.8999  135.0160  156.7218 LP  0  0  0  0  0  0  0  0  0  0  0  0  # atno 17395 bound_to 11000

$$$$
