AV-unprocessed.smi:1|AV-procd|sdf|11|dock4
  -GOLD-   2262015103D 1   1.00000     0.00000
 Structure written by MMmdl.
 57 62  0  0  0  0  0  0  0  0  1 V2000
  153.7017  139.8810  158.9232 O   0  0  0  0  0  0  0  0  0  0  0  0
  152.5700  140.1698  159.3220 C   0  0  0  0  0  0  0  0  0  0  0  0
  151.3783  139.4813  159.1341 N   0  0  0  0  0  0  0  0  0  0  0  0
  151.0448  139.0687  157.9486 C   0  0  0  0  0  0  0  0  0  0  0  0
  151.6740  139.1688  156.7004 N   0  0  0  0  0  0  0  0  0  0  0  0
  151.1755  138.6761  155.4844 C   0  0  0  0  0  0  0  0  0  0  0  0
  150.0397  138.0464  155.3429 N   0  0  0  0  0  0  0  0  0  0  0  0
  149.3770  137.9175  156.5550 C   0  0  0  0  0  0  0  0  0  0  0  0
  149.7601  138.3493  157.8062 C   0  0  0  0  0  0  0  0  0  0  0  0
  148.8062  138.0081  158.7597 N   0  0  0  0  0  0  0  0  0  0  0  0
  147.8802  137.3841  158.0353 C   0  0  0  0  0  0  0  0  0  0  0  0
  148.1460  137.2929  156.7178 N   0  0  0  0  0  0  0  0  0  0  0  0
  147.3117  136.6593  155.6523 C   0  0  2  0  0  0  0  0  0  0  0  0
  146.1394  136.1765  156.2279 O   0  0  0  0  0  0  0  0  0  0  0  0
  145.6676  135.1197  155.4075 C   0  0  2  0  0  0  0  0  0  0  0  0
  144.5781  134.3019  156.1132 C   0  0  0  0  0  0  0  0  0  0  0  0
  144.9558  134.1074  157.4659 O   0  0  0  0  0  0  0  0  0  0  0  0
  144.0385  133.7378  158.3789 C   0  0  0  0  0  0  0  0  0  0  0  0
  142.8419  133.5884  158.1234 O   0  0  0  0  0  0  0  0  0  0  0  0
  144.6250  133.5258  159.7338 C   0  0  0  0  0  0  0  0  0  0  0  0
  145.9972  133.7959  159.9454 C   0  0  0  0  0  0  0  0  0  0  0  0
  146.5782  133.6060  161.2142 C   0  0  0  0  0  0  0  0  0  0  0  0
  145.7946  133.1419  162.2868 C   0  0  0  0  0  0  0  0  0  0  0  0
  144.4288  132.8681  162.0891 C   0  0  0  0  0  0  0  0  0  0  0  0
  143.8454  133.0587  160.8212 C   0  0  0  0  0  0  0  0  0  0  0  0
  146.9487  134.3548  155.0640 C   0  0  2  0  0  0  0  0  0  0  0  0
  147.2844  133.4588  156.1103 O   0  0  0  0  0  0  0  0  0  0  0  0
  148.8916  133.6597  156.5113 S   0  0  0  0  0  0  0  0  0  0  0  0
  148.9738  133.9629  157.9479 O   0  0  0  0  0  0  0  0  0  0  0  0
  149.6591  132.5710  155.8877 O   0  0  0  0  0  0  0  0  0  0  0  0
  149.1948  135.0628  155.6583 O   0  0  0  0  0  0  0  0  0  0  0  0
  148.0134  135.4622  154.9804 C   0  0  2  0  0  0  0  0  0  0  0  0
  152.4148  141.4080  160.1431 C   0  0  0  0  0  0  0  0  0  0  0  0
  151.8295  142.5619  159.5799 C   0  0  0  0  0  0  0  0  0  0  0  0
  151.6852  143.7298  160.3543 C   0  0  0  0  0  0  0  0  0  0  0  0
  152.1277  143.7484  161.6912 C   0  0  0  0  0  0  0  0  0  0  0  0
  152.7163  142.5994  162.2544 C   0  0  0  0  0  0  0  0  0  0  0  0
  152.8603  141.4305  161.4817 C   0  0  0  0  0  0  0  0  0  0  0  0
  151.8275  138.8627  154.6299 H   0  0  0  0  0  0  0  0  0  0  0  0
  146.9831  136.9775  158.4788 H   0  0  0  0  0  0  0  0  0  0  0  0
  147.0797  137.4647  154.9538 H   0  0  0  0  0  0  0  0  0  0  0  0
  145.2561  135.5635  154.4987 H   0  0  0  0  0  0  0  0  0  0  0  0
  143.6141  134.8091  156.0557 H   0  0  0  0  0  0  0  0  0  0  0  0
  144.4668  133.3332  155.6244 H   0  0  0  0  0  0  0  0  0  0  0  0
  146.6193  134.1531  159.1374 H   0  0  0  0  0  0  0  0  0  0  0  0
  147.6268  133.8172  161.3641 H   0  0  0  0  0  0  0  0  0  0  0  0
  146.2404  132.9959  163.2596 H   0  0  0  0  0  0  0  0  0  0  0  0
  143.8266  132.5111  162.9114 H   0  0  0  0  0  0  0  0  0  0  0  0
  142.7942  132.8383  160.7045 H   0  0  0  0  0  0  0  0  0  0  0  0
  146.8576  133.7944  154.1331 H   0  0  0  0  0  0  0  0  0  0  0  0
  148.2425  135.7255  153.9476 H   0  0  0  0  0  0  0  0  0  0  0  0
  151.4887  142.5556  158.5546 H   0  0  0  0  0  0  0  0  0  0  0  0
  151.2351  144.6113  159.9223 H   0  0  0  0  0  0  0  0  0  0  0  0
  152.0173  144.6444  162.2841 H   0  0  0  0  0  0  0  0  0  0  0  0
  153.0576  142.6145  163.2790 H   0  0  0  0  0  0  0  0  0  0  0  0
  153.3136  140.5529  161.9202 H   0  0  0  0  0  0  0  0  0  0  0  0
  152.5663  139.6413  156.6746 H   0  0  0  0  0  0  0  0  0  0  0  0
  1  2  2  0  0  0  0
  2  3  1  0  0  0  0
  2 33  1  0  0  0  0
  3  4  2  0  0  0  0
  4  9  1  0  0  0  0
  4  5  1  0  0  0  0
  5  6  1  0  0  0  0
  5 57  1  0  0  0  0
  6  7  2  0  0  0  0
  6 39  1  0  0  0  0
  7  8  1  0  0  0  0
  8 12  1  0  0  0  0
  8  9  2  0  0  0  0
  9 10  1  0  0  0  0
 10 11  2  0  0  0  0
 11 12  1  0  0  0  0
 11 40  1  0  0  0  0
 12 13  1  0  0  0  0
 13 32  1  0  0  0  0
 13 14  1  0  0  0  0
 13 41  1  0  0  0  0
 14 15  1  0  0  0  0
 15 16  1  0  0  0  0
 15 26  1  0  0  0  0
 15 42  1  0  0  0  0
 16 17  1  0  0  0  0
 16 43  1  0  0  0  0
 16 44  1  0  0  0  0
 17 18  1  0  0  0  0
 18 19  2  0  0  0  0
 18 20  1  0  0  0  0
 20 25  1  0  0  0  0
 20 21  2  0  0  0  0
 21 22  1  0  0  0  0
 21 45  1  0  0  0  0
 22 23  2  0  0  0  0
 22 46  1  0  0  0  0
 23 24  1  0  0  0  0
 23 47  1  0  0  0  0
 24 25  2  0  0  0  0
 24 48  1  0  0  0  0
 25 49  1  0  0  0  0
 26 32  1  0  0  0  0
 26 27  1  0  0  0  0
 26 50  1  0  0  0  0
 27 28  1  0  0  0  0
 28 29  2  0  0  0  0
 28 30  2  0  0  0  0
 28 31  1  0  0  0  0
 31 32  1  0  0  0  0
 32 51  1  0  0  0  0
 33 38  1  0  0  0  0
 33 34  2  0  0  0  0
 34 35  1  0  0  0  0
 34 52  1  0  0  0  0
 35 36  2  0  0  0  0
 35 53  1  0  0  0  0
 36 37  1  0  0  0  0
 36 54  1  0  0  0  0
 37 38  2  0  0  0  0
 37 55  1  0  0  0  0
 38 56  1  0  0  0  0
M  END
> <s_m_source_file>
AV-unprocessed.smi

> <i_m_source_file_index>
1

> <i_lp_mmshare_version>
43012

> <i_f3d_flags>
0

> <s_epik_input>
W2NIXTFbY0hdW2NIXVtjSF1bY0hdYzFDKD1PKVtOSF1jKG5bY0hdbjIpYyhjMjMpbltjSF1uM1tDQEBIXShbQ0BIXShbQ0BIXTQ1KU9TKE81KSg9Tyk9TylPW0NASF00W0NIMl1PQyg9TyljNltjSF1bY0hdW2NIXVtjSF1bY0hdNg==

> <s_epik_cmdline>
J2VwaWtfcHl0aG9uJywgJy1waCcsICc3LjAnLCAnLXRuJywgJzgnLCAnLW1hJywgJzIwMCcsICctbWV0YWxfYmluZGluZycsICctaW1hZScsICc8aW5maWxlLm1hZT4nLCAnLW9tYWUnLCAnPG91dGZpbGUubWFlPic=

> <r_epik_Ionization_Penalty>
0.122545

> <r_epik_Ionization_Penalty_Charging>
0.122545

> <r_epik_Ionization_Penalty_Neutral>
7.8935e-16

> <r_epik_State_Penalty>
2.69178

> <r_epik_Charging_Adjusted_Penalty>
2.81433

> <i_epik_Tot_Q>
0

> <i_epik_Tot_abs_Q>
0

> <r_epik_Metal_State_Penalty>
3.02665

> <b_epik_Metal_Only>
0

> <s_epik_Chemistry_Notes>
This compound has an ester and may undergo hydrolysis at high or low pH. This compound contains an acetal/aminal-like group ( X-CH(R)-Y where X, Y are N, S, or O) that may be acid/base labile, releasing an aldehyde.

> <s_lp_Force_Field>
OPLS_2005

> <r_lp_Energy>
59.7171

> <b_lp_Chiralities_Consistent>
1

> <s_lp_Variant>
AV-unprocessed.smi:1-11

> <Gold.Version>
5.8.1

> <Gold.Id.Protein>
6NUR|6NUR_protein|mol2

> <Gold.PLP.Fitness>
48.5959

> <Gold.PLP.PLP>
-43.9609

> <Gold.PLP.part.hbond>
-3.4917

> <Gold.PLP.part.metal>
0.0000

> <Gold.PLP.part.buried>
-7.0522

> <Gold.PLP.part.nonpolar>
-33.4449

> <Gold.PLP.part.repulsive>
0.3068

> <Gold.PLP.ligand.clash>
0.0000

> <Gold.PLP.ligand.torsion>
2.0346

> <Gold.PLP.Chemscore.Hbond>
2.8218

> <Gold.PLP.Chemscore.CHOScore>
0.0000

> <Gold.PLP.Chemscore.Metal>
0.0000

> <Gold.Chemscore.Hbonds>
donor molecule, donor type, donor heavy atom, donor atom, acceptor molecule, acceptor atom, score
      P1  H  6896  6908       L1    29  0.54
      P1  H  7997  8008       L1     1  0.93
      P1  H 11000 11005       L1    19  1.00

> <Gold.PLP.Chemscore.Internal.Correction>
0.2389

> <Gold.Rescore>
     Score         DG    S(hbond)    S(metal)    S(lipo)     H(rot)  DE(clash)    DE(int)     intcor
     17.61     -22.07       2.96        0.00     103.97       2.13       0.02       4.43       ----

> <Gold.Chemscore.Fitness>
17.6108

> <Gold.Chemscore.DG>
-22.0678

> <Gold.Chemscore.ZeroCoef>
-5.4800

> <Gold.Chemscore.Hbond>
2.9595

> <Gold.Chemscore.Metal>
0.0000

> <Gold.Chemscore.Lipo>
103.9695

> <Gold.Chemscore.Internal_Hbond>
0.0000

> <Gold.Chemscore.DEClash>
0.0234

> <Gold.Chemscore.DEInternal>
4.4335

> <Gold.Chemscore.Rot>
2.1333

> <Gold.Chemscore.Internal.Correction>
   9.000000E+99

> <Gold.Chemscore.Hbonds>
donor molecule, donor type, donor heavy atom, donor atom, acceptor molecule, acceptor atom, score
      P1  H  6896  6908       L1    29  0.54
      P1  H  7997  8008       L1     1  0.86
      P1  H 11000 11005       L1    19  0.99

> <Gold.Chemscore.Hbond.Weighted>
-9.8847

> <Gold.Chemscore.Metal.Weighted>
-0.0000

> <Gold.Chemscore.Lipo.Weighted>
-12.1644

> <Gold.Chemscore.Internal_Hbond.Weighted>
0.0000

> <Gold.Chemscore.DEClash.Weighted>
0.0234

> <Gold.Chemscore.DEInternal.Weighted>
4.4335

> <Gold.Chemscore.Rot.Weighted>
5.4614

> <Gold.Chemscore.Internal.Correction.Weighted>
   9.000000E+99

> <Gold.Protein.RotatedTorsions>
[ 6907 6896 6895 6894 ] final  124.36 input  -60.11 | X-H torsion
[ 7974 7965 7964 7962 ] final   29.18 input  175.53 | X-H torsion
[ 8008 7997 7996 7995 ] final -110.31 input   59.86 | X-H torsion
[ 10167 10162 10161 10158 ] final -161.40 input  -65.29 | X-H torsion
[ 10718 10713 10712 10709 ] final   57.11 input   66.30 | X-H torsion
[ 10763 10752 10751 10750 ] final  -67.67 input  -60.55 | X-H torsion
[ 11005 11000 10999 10996 ] final -105.98 input  -57.11 | X-H torsion

> <Gold.Protein.ActiveResidues>
 VAL166  LYS551  ARG553  GLY616  TRP617  ASP618  TYR619  PRO620  LYS621  CYS622 
 ASP623  PHE694  ASN695  SER759  ASP760  ASP761  ALA762  ILE779  LEU786  VAL792 
 PHE793  MET794  SER795  GLU796  ALA797  LYS798  CYS799  TRP800  GLU811  SER814 

> <Gold.Protein.RotatedAtoms>
  152.4084  133.6925  159.6376 H   0  0  0  0  0  0  0  0  0  0  0  0  # atno 6907 bound_to 6896
  150.7967  133.8668  159.3256 H   0  0  0  0  0  0  0  0  0  0  0  0  # atno 6908 bound_to 6896
  151.6416  135.1014  160.0194 H   0  0  0  0  0  0  0  0  0  0  0  0  # atno 6909 bound_to 6896
  146.1686  139.6956  142.8983 H   0  0  0  0  0  0  0  0  0  0  0  0  # atno 7974 bound_to 7965
  154.9726  140.0397  157.2241 H   0  0  0  0  0  0  0  0  0  0  0  0  # atno 8008 bound_to 7997
  154.7787  140.2815  155.6058 H   0  0  0  0  0  0  0  0  0  0  0  0  # atno 8009 bound_to 7997
  156.2933  140.2596  156.2607 H   0  0  0  0  0  0  0  0  0  0  0  0  # atno 8010 bound_to 7997
  139.6468  144.0158  152.2133 H   0  0  0  0  0  0  0  0  0  0  0  0  # atno 10167 bound_to 10162
  157.5487  130.8749  149.8930 H   0  0  0  0  0  0  0  0  0  0  0  0  # atno 10718 bound_to 10713
  154.3778  135.6081  153.5774 H   0  0  0  0  0  0  0  0  0  0  0  0  # atno 10763 bound_to 10752
  152.9788  135.5853  154.4446 H   0  0  0  0  0  0  0  0  0  0  0  0  # atno 10764 bound_to 10752
  154.4210  135.2846  155.1953 H   0  0  0  0  0  0  0  0  0  0  0  0  # atno 10765 bound_to 10752
  141.1027  133.8854  157.1800 H   0  0  0  0  0  0  0  0  0  0  0  0  # atno 11005 bound_to 11000
  145.4401  141.0422  143.2862 LP  0  0  0  0  0  0  0  0  0  0  0  0  # atno 17320 bound_to 7965
  144.8129  139.5929  143.7021 LP  0  0  0  0  0  0  0  0  0  0  0  0  # atno 17321 bound_to 7965
  139.9861  144.6394  150.7856 LP  0  0  0  0  0  0  0  0  0  0  0  0  # atno 17342 bound_to 10162
  140.7518  143.2979  151.3155 LP  0  0  0  0  0  0  0  0  0  0  0  0  # atno 17343 bound_to 10162
  156.0558  130.3709  150.1096 LP  0  0  0  0  0  0  0  0  0  0  0  0  # atno 17370 bound_to 10713
  156.9270  130.9701  151.3539 LP  0  0  0  0  0  0  0  0  0  0  0  0  # atno 17371 bound_to 10713
  139.9885  135.0073  156.9919 LP  0  0  0  0  0  0  0  0  0  0  0  0  # atno 17394 bound_to 11000
  140.4981  134.1125  155.7245 LP  0  0  0  0  0  0  0  0  0  0  0  0  # atno 17395 bound_to 11000

$$$$
