AV-unprocessed.smi:772|AV-procd|sdf|3686|dock3
  -GOLD-   22720 1103D 1   1.00000     0.00000
 Structure written by MMmdl.
 46 47  0  0  0  0  0  0  0  0  1 V2000
  144.2376  132.4959  150.2576 C   0  0  0  0  0  0  0  0  0  0  0  0
  144.4562  133.8221  150.9551 C   0  0  0  0  0  0  0  0  0  0  0  0
  143.5568  134.2781  151.9417 C   0  0  0  0  0  0  0  0  0  0  0  0
  143.8092  135.5194  152.5562 C   0  0  0  0  0  0  0  0  0  0  0  0
  144.9455  136.2554  152.1617 C   0  0  0  0  0  0  0  0  0  0  0  0
  145.2531  137.6099  152.7756 C   0  0  0  0  0  0  0  0  0  0  0  0
  146.5182  138.2733  152.2003 C   0  0  0  0  0  0  0  0  0  0  0  0
  146.9052  139.4626  152.9551 N   0  0  0  0  0  0  0  0  0  0  0  0
  148.0224  139.6002  153.6912 C   0  0  0  0  0  0  0  0  0  0  0  0
  148.8364  138.6858  153.8269 O   0  0  0  0  0  0  0  0  0  0  0  0
  148.1867  140.8267  154.2491 N   0  0  0  0  0  0  0  0  0  0  0  0
  147.1266  141.8198  154.4857 C   0  0  0  0  0  0  0  0  0  0  0  0
  146.6588  141.7104  155.9448 C   0  0  0  0  0  0  0  0  0  0  0  0
  148.0158  142.0993  157.0928 S   0  0  0  0  0  0  0  0  0  0  0  0
  149.3331  141.0254  156.4172 C   0  0  2  0  0  0  0  0  0  0  0  0
  150.6830  141.2155  157.1541 C   0  0  0  0  0  0  0  0  0  0  0  0
  151.0911  142.6964  157.2360 C   0  0  0  0  0  0  0  0  0  0  0  0
  151.8315  140.3607  156.5860 C   0  0  0  0  0  0  0  0  0  0  0  0
  149.4487  141.2187  154.8885 C   0  0  0  0  0  0  0  0  0  0  0  0
  145.7823  135.7085  151.1662 C   0  0  0  0  0  0  0  0  0  0  0  0
  145.5491  134.5184  150.5725 N   0  0  0  0  0  0  0  0  0  0  0  0
  143.3309  132.0059  150.6134 H   0  0  0  0  0  0  0  0  0  0  0  0
  145.0793  131.8276  150.4411 H   0  0  0  0  0  0  0  0  0  0  0  0
  144.1437  132.6445  149.1815 H   0  0  0  0  0  0  0  0  0  0  0  0
  142.6926  133.6940  152.2216 H   0  0  0  0  0  0  0  0  0  0  0  0
  143.1364  135.9013  153.3100 H   0  0  0  0  0  0  0  0  0  0  0  0
  144.3960  138.2690  152.6312 H   0  0  0  0  0  0  0  0  0  0  0  0
  145.3620  137.4877  153.8539 H   0  0  0  0  0  0  0  0  0  0  0  0
  147.3471  137.5662  152.2318 H   0  0  0  0  0  0  0  0  0  0  0  0
  146.3673  138.5139  151.1465 H   0  0  0  0  0  0  0  0  0  0  0  0
  146.2871  140.2582  152.8922 H   0  0  0  0  0  0  0  0  0  0  0  0
  147.5073  142.8238  154.2919 H   0  0  0  0  0  0  0  0  0  0  0  0
  146.2770  141.7098  153.8117 H   0  0  0  0  0  0  0  0  0  0  0  0
  145.8346  142.3985  156.1329 H   0  0  0  0  0  0  0  0  0  0  0  0
  146.2912  140.7051  156.1537 H   0  0  0  0  0  0  0  0  0  0  0  0
  149.0114  139.9972  156.5911 H   0  0  0  0  0  0  0  0  0  0  0  0
  150.5278  140.8881  158.1830 H   0  0  0  0  0  0  0  0  0  0  0  0
  151.3086  143.1106  156.2514 H   0  0  0  0  0  0  0  0  0  0  0  0
  151.9841  142.8225  157.8488 H   0  0  0  0  0  0  0  0  0  0  0  0
  150.3008  143.2991  157.6841 H   0  0  0  0  0  0  0  0  0  0  0  0
  152.0686  140.6319  155.5573 H   0  0  0  0  0  0  0  0  0  0  0  0
  151.5925  139.2981  156.6052 H   0  0  0  0  0  0  0  0  0  0  0  0
  152.7397  140.4940  157.1742 H   0  0  0  0  0  0  0  0  0  0  0  0
  150.2910  140.6450  154.4982 H   0  0  0  0  0  0  0  0  0  0  0  0
  149.6741  142.2577  154.6460 H   0  0  0  0  0  0  0  0  0  0  0  0
  146.6593  136.2431  150.8322 H   0  0  0  0  0  0  0  0  0  0  0  0
  1  2  1  0  0  0  0
  1 22  1  0  0  0  0
  1 23  1  0  0  0  0
  1 24  1  0  0  0  0
  2 21  1  0  0  0  0
  2  3  2  0  0  0  0
  3  4  1  0  0  0  0
  3 25  1  0  0  0  0
  4  5  2  0  0  0  0
  4 26  1  0  0  0  0
  5  6  1  0  0  0  0
  5 20  1  0  0  0  0
  6  7  1  0  0  0  0
  6 27  1  0  0  0  0
  6 28  1  0  0  0  0
  7  8  1  0  0  0  0
  7 29  1  0  0  0  0
  7 30  1  0  0  0  0
  8  9  1  0  0  0  0
  8 31  1  0  0  0  0
  9 10  2  0  0  0  0
  9 11  1  0  0  0  0
 11 19  1  0  0  0  0
 11 12  1  0  0  0  0
 12 13  1  0  0  0  0
 12 32  1  0  0  0  0
 12 33  1  0  0  0  0
 13 14  1  0  0  0  0
 13 34  1  0  0  0  0
 13 35  1  0  0  0  0
 14 15  1  0  0  0  0
 15 16  1  0  0  0  0
 15 19  1  0  0  0  0
 15 36  1  0  0  0  0
 16 17  1  0  0  0  0
 16 18  1  0  0  0  0
 16 37  1  0  0  0  0
 17 38  1  0  0  0  0
 17 39  1  0  0  0  0
 17 40  1  0  0  0  0
 18 41  1  0  0  0  0
 18 42  1  0  0  0  0
 18 43  1  0  0  0  0
 19 44  1  0  0  0  0
 19 45  1  0  0  0  0
 20 21  2  0  0  0  0
 20 46  1  0  0  0  0
M  END
> <s_m_source_file>
AV-unprocessed.smi

> <i_m_source_file_index>
772

> <i_lp_mmshare_version>
43012

> <i_f3d_flags>
0

> <s_epik_input>
W0NIM11jMVtjSF1bY0hdYyhbY0hdbjEpW0NIMl1bQ0gyXVtOSF1DKD1PKU4yW0NIMl1bQ0gyXVNbQ0BIXShbQ0gyXTIpW0NIXShbQ0gzXSlbQ0gzXQ==

> <s_epik_cmdline>
J2VwaWtfcHl0aG9uJywgJy1waCcsICc3LjAnLCAnLXRuJywgJzgnLCAnLW1hJywgJzIwMCcsICctbWV0YWxfYmluZGluZycsICctaW1hZScsICc8aW5maWxlLm1hZT4nLCAnLW9tYWUnLCAnPG91dGZpbGUubWFlPic=

> <r_epik_Ionization_Penalty>
0.0566916

> <r_epik_Ionization_Penalty_Charging>
0

> <r_epik_Ionization_Penalty_Neutral>
0.0566916

> <r_epik_State_Penalty>
0.0488669

> <r_epik_Charging_Adjusted_Penalty>
0.0488669

> <i_epik_Tot_Q>
0

> <i_epik_Tot_abs_Q>
0

> <r_epik_Metal_State_Penalty>
0.0445784

> <b_epik_Metal_Only>
0

> <s_lp_Force_Field>
OPLS_2005

> <r_lp_Energy>
25.5588

> <b_lp_Chiralities_Consistent>
1

> <s_lp_Variant>
AV-unprocessed.smi:772-2

> <Gold.Version>
5.8.1

> <Gold.Id.Protein>
6NUR|6NUR_protein|mol2

> <Gold.PLP.Fitness>
40.0802

> <Gold.PLP.PLP>
-37.5789

> <Gold.PLP.part.hbond>
-0.1824

> <Gold.PLP.part.metal>
0.0000

> <Gold.PLP.part.buried>
-3.8091

> <Gold.PLP.part.nonpolar>
-35.6961

> <Gold.PLP.part.repulsive>
2.0973

> <Gold.PLP.ligand.clash>
0.0000

> <Gold.PLP.ligand.torsion>
0.2340

> <Gold.PLP.Chemscore.Hbond>
0.0000

> <Gold.PLP.Chemscore.CHOScore>
0.9569

> <Gold.PLP.Chemscore.Metal>
0.0000

> <Gold.Chemscore.Hbonds>
donor molecule, donor type, donor heavy atom, donor atom, acceptor molecule, acceptor atom, score
      L1  C    20    46       P1  7948  0.97

> <Gold.PLP.Chemscore.Internal.Correction>
0.0987

> <Gold.Rescore>
     Score         DG    S(hbond)    S(metal)    S(lipo)     H(rot)  DE(clash)    DE(int)     intcor
     12.37     -12.80       0.00        0.00      91.56       1.32       0.16       0.28       ----

> <Gold.Chemscore.Fitness>
12.3716

> <Gold.Chemscore.DG>
-12.8046

> <Gold.Chemscore.ZeroCoef>
-5.4800

> <Gold.Chemscore.Hbond>
0.0000

> <Gold.Chemscore.Metal>
0.0000

> <Gold.Chemscore.Lipo>
91.5575

> <Gold.Chemscore.Internal_Hbond>
0.0000

> <Gold.Chemscore.DEClash>
0.1550

> <Gold.Chemscore.DEInternal>
0.2780

> <Gold.Chemscore.Rot>
1.3233

> <Gold.Chemscore.Internal.Correction>
   9.000000E+99

> <Gold.Chemscore.Hbond.Weighted>
-0.0000

> <Gold.Chemscore.Metal.Weighted>
-0.0000

> <Gold.Chemscore.Lipo.Weighted>
-10.7122

> <Gold.Chemscore.Internal_Hbond.Weighted>
0.0000

> <Gold.Chemscore.DEClash.Weighted>
0.1550

> <Gold.Chemscore.DEInternal.Weighted>
0.2780

> <Gold.Chemscore.Rot.Weighted>
3.3876

> <Gold.Chemscore.Internal.Correction.Weighted>
   9.000000E+99

> <Gold.Protein.RotatedTorsions>
[ 6907 6896 6895 6894 ] final -169.09 input  -60.11 | X-H torsion
[ 7974 7965 7964 7962 ] final  143.12 input  175.53 | X-H torsion
[ 8008 7997 7996 7995 ] final  -64.09 input   59.86 | X-H torsion
[ 10167 10162 10161 10158 ] final   33.44 input  -65.29 | X-H torsion
[ 10718 10713 10712 10709 ] final  170.50 input   66.30 | X-H torsion
[ 10763 10752 10751 10750 ] final   73.06 input  -60.55 | X-H torsion
[ 11005 11000 10999 10996 ] final  -31.35 input  -57.11 | X-H torsion

> <Gold.Protein.ActiveResidues>
 VAL166  LYS551  ARG553  GLY616  TRP617  ASP618  TYR619  PRO620  LYS621  CYS622 
 ASP623  PHE694  ASN695  SER759  ASP760  ASP761  ALA762  ILE779  LEU786  VAL792 
 PHE793  MET794  SER795  GLU796  ALA797  LYS798  CYS799  TRP800  GLU811  SER814 

> <Gold.Protein.RotatedAtoms>
  151.4861  133.3535  159.2845 H   0  0  0  0  0  0  0  0  0  0  0  0  # atno 6907 bound_to 6896
  150.8865  134.8266  159.7274 H   0  0  0  0  0  0  0  0  0  0  0  0  # atno 6908 bound_to 6896
  152.4796  134.4765  159.9704 H   0  0  0  0  0  0  0  0  0  0  0  0  # atno 6909 bound_to 6896
  144.8948  139.5506  143.5781 H   0  0  0  0  0  0  0  0  0  0  0  0  # atno 7974 bound_to 7965
  154.4591  140.0961  156.6843 H   0  0  0  0  0  0  0  0  0  0  0  0  # atno 8008 bound_to 7997
  155.5047  140.3474  155.4359 H   0  0  0  0  0  0  0  0  0  0  0  0  # atno 8009 bound_to 7997
  156.0836  140.1379  156.9670 H   0  0  0  0  0  0  0  0  0  0  0  0  # atno 8010 bound_to 7997
  140.4407  144.1191  150.6173 H   0  0  0  0  0  0  0  0  0  0  0  0  # atno 10167 bound_to 10162
  157.0072  131.0193  151.2813 H   0  0  0  0  0  0  0  0  0  0  0  0  # atno 10718 bound_to 10713
  153.0498  135.5077  154.7838 H   0  0  0  0  0  0  0  0  0  0  0  0  # atno 10763 bound_to 10752
  154.6709  135.2953  154.9745 H   0  0  0  0  0  0  0  0  0  0  0  0  # atno 10764 bound_to 10752
  154.0564  135.6697  153.4859 H   0  0  0  0  0  0  0  0  0  0  0  0  # atno 10765 bound_to 10752
  140.9460  133.7249  156.1148 H   0  0  0  0  0  0  0  0  0  0  0  0  # atno 11005 bound_to 11000
  146.3075  139.7630  142.9045 LP  0  0  0  0  0  0  0  0  0  0  0  0  # atno 17320 bound_to 7965
  145.3719  141.0344  143.3226 LP  0  0  0  0  0  0  0  0  0  0  0  0  # atno 17321 bound_to 7965
  140.4321  143.2563  151.9582 LP  0  0  0  0  0  0  0  0  0  0  0  0  # atno 17342 bound_to 10162
  139.4789  144.5734  151.8051 LP  0  0  0  0  0  0  0  0  0  0  0  0  # atno 17343 bound_to 10162
  157.5347  130.8081  149.7957 LP  0  0  0  0  0  0  0  0  0  0  0  0  # atno 17370 bound_to 10713
  156.0149  130.3818  150.2143 LP  0  0  0  0  0  0  0  0  0  0  0  0  # atno 17371 bound_to 10713
  140.7668  134.3877  157.5515 LP  0  0  0  0  0  0  0  0  0  0  0  0  # atno 17394 bound_to 11000
  139.8833  134.8996  156.2771 LP  0  0  0  0  0  0  0  0  0  0  0  0  # atno 17395 bound_to 11000

$$$$
