AV-unprocessed.smi:2083|AV-procd|sdf|8496|dock9
  -GOLD-   2272011203D 1   1.00000     0.00000
 Structure written by MMmdl.
 45 46  0  0  0  0  0  0  0  0  2 V2000
  146.7974  133.9770  162.3894 C   0  0  0  0  0  0  0  0  0  0  0  0
  147.2965  135.1414  161.6046 C   0  0  0  0  0  0  0  0  0  0  0  0
  147.9758  135.2443  160.4233 C   0  0  0  0  0  0  0  0  0  0  0  0
  148.1318  136.6469  160.2656 C   0  0  0  0  0  0  0  0  0  0  0  0
  148.8010  137.1819  159.1357 N   0  0  0  0  0  0  0  0  0  0  0  0
  149.6252  136.5365  158.2932 C   0  0  0  0  0  0  0  0  0  0  0  0
  149.9237  135.3440  158.3652 O   0  0  0  0  0  0  0  0  0  0  0  0
  150.0971  137.3572  157.3435 N   0  0  0  0  0  0  0  0  0  0  0  0
  151.0063  136.9558  156.2732 C   0  0  0  0  0  0  0  0  0  0  0  0
  150.3870  137.1103  154.8544 C   0  0  2  0  0  0  0  0  0  0  0  0
  149.8172  138.5360  154.6761 C   0  0  0  0  0  0  0  0  0  0  0  0
  149.3321  136.0936  154.5272 N   0  3  2  0  0  0  0  0  0  0  0  0
  148.0179  136.2752  155.2110 C   0  0  0  0  0  0  0  0  0  0  0  0
  146.9740  135.2596  154.7174 C   0  0  0  0  0  0  0  0  0  0  0  0
  147.4714  133.8210  154.8813 C   0  0  0  0  0  0  0  0  0  0  0  0
  148.8238  133.6546  154.1741 C   0  0  2  0  0  0  0  0  0  0  0  0
  149.3627  132.2250  154.3261 C   0  0  0  0  0  0  0  0  0  0  0  0
  149.8269  134.6971  154.7058 C   0  0  0  0  0  0  0  0  0  0  0  0
  147.5932  137.3382  161.2585 N   0  0  0  0  0  0  0  0  0  0  0  0
  147.0559  136.3765  162.1223 O   0  0  0  0  0  0  0  0  0  0  0  0
  146.8900  133.0535  161.8179 H   0  0  0  0  0  0  0  0  0  0  0  0
  145.7476  134.1078  162.6521 H   0  0  0  0  0  0  0  0  0  0  0  0
  147.3662  133.8619  163.3119 H   0  0  0  0  0  0  0  0  0  0  0  0
  148.3076  134.4432  159.7796 H   0  0  0  0  0  0  0  0  0  0  0  0
  148.6333  138.1597  158.9509 H   0  0  0  0  0  0  0  0  0  0  0  0
  149.8019  138.3227  157.3558 H   0  0  0  0  0  0  0  0  0  0  0  0
  151.9120  137.5540  156.3815 H   0  0  0  0  0  0  0  0  0  0  0  0
  151.2900  135.9175  156.4487 H   0  0  0  0  0  0  0  0  0  0  0  0
  151.1975  136.9747  154.1364 H   0  0  0  0  0  0  0  0  0  0  0  0
  150.5759  139.2996  154.8476 H   0  0  0  0  0  0  0  0  0  0  0  0
  149.0018  138.7215  155.3757 H   0  0  0  0  0  0  0  0  0  0  0  0
  149.4349  138.7144  153.6727 H   0  0  0  0  0  0  0  0  0  0  0  0
  148.1506  136.1891  156.2908 H   0  0  0  0  0  0  0  0  0  0  0  0
  147.6079  137.2641  155.0096 H   0  0  0  0  0  0  0  0  0  0  0  0
  146.0391  135.3935  155.2626 H   0  0  0  0  0  0  0  0  0  0  0  0
  146.7480  135.4501  153.6676 H   0  0  0  0  0  0  0  0  0  0  0  0
  147.5691  133.5830  155.9416 H   0  0  0  0  0  0  0  0  0  0  0  0
  146.7386  133.1255  154.4701 H   0  0  0  0  0  0  0  0  0  0  0  0
  148.6769  133.8381  153.1085 H   0  0  0  0  0  0  0  0  0  0  0  0
  149.5377  131.9758  155.3731 H   0  0  0  0  0  0  0  0  0  0  0  0
  150.3052  132.1011  153.7923 H   0  0  0  0  0  0  0  0  0  0  0  0
  148.6591  131.4956  153.9236 H   0  0  0  0  0  0  0  0  0  0  0  0
  150.7746  134.5567  154.1890 H   0  0  0  0  0  0  0  0  0  0  0  0
  150.0248  134.5183  155.7641 H   0  0  0  0  0  0  0  0  0  0  0  0
  149.1385  136.2090  153.5427 H   0  0  0  0  0  0  0  0  0  0  0  0
  1  2  1  0  0  0  0
  1 21  1  0  0  0  0
  1 22  1  0  0  0  0
  1 23  1  0  0  0  0
  2 20  1  0  0  0  0
  2  3  2  0  0  0  0
  3  4  1  0  0  0  0
  3 24  1  0  0  0  0
  4  5  1  0  0  0  0
  4 19  2  0  0  0  0
  5  6  1  0  0  0  0
  5 25  1  0  0  0  0
  6  7  2  0  0  0  0
  6  8  1  0  0  0  0
  8  9  1  0  0  0  0
  8 26  1  0  0  0  0
  9 10  1  0  0  0  0
  9 27  1  0  0  0  0
  9 28  1  0  0  0  0
 10 11  1  0  0  0  0
 10 12  1  0  0  0  0
 10 29  1  0  0  0  0
 11 30  1  0  0  0  0
 11 31  1  0  0  0  0
 11 32  1  0  0  0  0
 12 18  1  0  0  0  0
 12 13  1  0  0  0  0
 12 45  1  0  0  0  0
 13 14  1  0  0  0  0
 13 33  1  0  0  0  0
 13 34  1  0  0  0  0
 14 15  1  0  0  0  0
 14 35  1  0  0  0  0
 14 36  1  0  0  0  0
 15 16  1  0  0  0  0
 15 37  1  0  0  0  0
 15 38  1  0  0  0  0
 16 17  1  0  0  0  0
 16 18  1  0  0  0  0
 16 39  1  0  0  0  0
 17 40  1  0  0  0  0
 17 41  1  0  0  0  0
 17 42  1  0  0  0  0
 18 43  1  0  0  0  0
 18 44  1  0  0  0  0
 19 20  1  0  0  0  0
M  CHG  1  12   1
M  END
> <s_m_source_file>
AV-unprocessed.smi

> <i_m_source_file_index>
2083

> <i_lp_mmshare_version>
43012

> <i_f3d_flags>
0

> <s_epik_input>
W0NIM11jMVtjSF1jKG5vMSlbTkhdQyg9TylbTkhdW0NIMl1bQ0BIXShbQ0gzXSlOMltDSDJdW0NIMl1bQ0gyXVtDQEBIXShbQ0gzXSlbQ0gyXTI=

> <s_epik_cmdline>
J2VwaWtfcHl0aG9uJywgJy1waCcsICc3LjAnLCAnLXRuJywgJzgnLCAnLW1hJywgJzIwMCcsICctbWV0YWxfYmluZGluZycsICctaW1hZScsICc8aW5maWxlLm1hZT4nLCAnLW9tYWUnLCAnPG91dGZpbGUubWFlPic=

> <r_epik_Ionization_Penalty>
0.00216453

> <r_epik_Ionization_Penalty_Charging>
0.00212879

> <r_epik_Ionization_Penalty_Neutral>
3.57418e-05

> <r_epik_State_Penalty>
0.00146033

> <r_epik_Charging_Adjusted_Penalty>
0.00358912

> <i_epik_Tot_Q>
1

> <i_epik_Tot_abs_Q>
1

> <r_epik_Metal_State_Penalty>
0.0215827

> <b_epik_Metal_Only>
0

> <s_lp_Force_Field>
OPLS_2005

> <r_lp_Energy>
18.748

> <b_lp_Chiralities_Consistent>
1

> <s_lp_Variant>
AV-unprocessed.smi:2083-7

> <Gold.Version>
5.8.1

> <Gold.Id.Protein>
6NUR|6NUR_protein|mol2

> <Gold.PLP.Fitness>
43.7360

> <Gold.PLP.PLP>
-29.5148

> <Gold.PLP.part.hbond>
-3.9308

> <Gold.PLP.part.metal>
0.0000

> <Gold.PLP.part.buried>
-4.8496

> <Gold.PLP.part.nonpolar>
-22.2501

> <Gold.PLP.part.repulsive>
0.2409

> <Gold.PLP.ligand.clash>
0.0000

> <Gold.PLP.ligand.torsion>
0.1986

> <Gold.PLP.Chemscore.Hbond>
4.8560

> <Gold.PLP.Chemscore.CHOScore>
0.0000

> <Gold.PLP.Chemscore.Metal>
0.0000

> <Gold.Chemscore.Hbonds>
donor molecule, donor type, donor heavy atom, donor atom, acceptor molecule, acceptor atom, score
      L1  H    12    45       P1  7948  2.00
      P1  H  6896  6908       L1     7  1.00
      P1  H  6931  6943       L1    19  0.86
      P1  H  6934  6947       L1    19  0.86

> <Gold.PLP.Chemscore.Internal.Correction>
0.0504

> <Gold.Rescore>
     Score         DG    S(hbond)    S(metal)    S(lipo)     H(rot)  DE(clash)    DE(int)     intcor
     18.53     -20.09       3.47        0.00      59.77       1.55       0.03       1.53       ----

> <Gold.Chemscore.Fitness>
18.5307

> <Gold.Chemscore.DG>
-20.0946

> <Gold.Chemscore.ZeroCoef>
-5.4800

> <Gold.Chemscore.Hbond>
3.4678

> <Gold.Chemscore.Metal>
0.0000

> <Gold.Chemscore.Lipo>
59.7736

> <Gold.Chemscore.Internal_Hbond>
0.0000

> <Gold.Chemscore.DEClash>
0.0310

> <Gold.Chemscore.DEInternal>
1.5329

> <Gold.Chemscore.Rot>
1.5474

> <Gold.Chemscore.Internal.Correction>
   9.000000E+99

> <Gold.Chemscore.Hbonds>
donor molecule, donor type, donor heavy atom, donor atom, acceptor molecule, acceptor atom, score
      L1  H    12    45       P1  7948  0.94
      P1  H  6896  6908       L1     7  0.94
      P1  H  6931  6943       L1    19  0.27
      P1  H  6934  6947       L1    19  0.80

> <Gold.Chemscore.Hbond.Weighted>
-11.5823

> <Gold.Chemscore.Metal.Weighted>
-0.0000

> <Gold.Chemscore.Lipo.Weighted>
-6.9935

> <Gold.Chemscore.Internal_Hbond.Weighted>
0.0000

> <Gold.Chemscore.DEClash.Weighted>
0.0310

> <Gold.Chemscore.DEInternal.Weighted>
1.5329

> <Gold.Chemscore.Rot.Weighted>
3.9612

> <Gold.Chemscore.Internal.Correction.Weighted>
   9.000000E+99

> <Gold.Protein.RotatedTorsions>
[ 6907 6896 6895 6894 ] final  162.56 input  -60.11 | X-H torsion
[ 7974 7965 7964 7962 ] final -157.34 input  175.53 | X-H torsion
[ 8008 7997 7996 7995 ] final   64.11 input   59.86 | X-H torsion
[ 10167 10162 10161 10158 ] final -141.97 input  -65.29 | X-H torsion
[ 10718 10713 10712 10709 ] final -140.67 input   66.30 | X-H torsion
[ 10763 10752 10751 10750 ] final  127.96 input  -60.55 | X-H torsion
[ 11005 11000 10999 10996 ] final  166.53 input  -57.11 | X-H torsion

> <Gold.Protein.ActiveResidues>
 VAL166  LYS551  ARG553  GLY616  TRP617  ASP618  TYR619  PRO620  LYS621  CYS622 
 ASP623  PHE694  ASN695  SER759  ASP760  ASP761  ALA762  ILE779  LEU786  VAL792 
 PHE793  MET794  SER795  GLU796  ALA797  LYS798  CYS799  TRP800  GLU811  SER814 

> <Gold.Protein.RotatedAtoms>
  151.9385  133.3631  159.3956 H   0  0  0  0  0  0  0  0  0  0  0  0  # atno 6907 bound_to 6896
  150.7003  134.4464  159.5325 H   0  0  0  0  0  0  0  0  0  0  0  0  # atno 6908 bound_to 6896
  152.2116  134.8496  160.0547 H   0  0  0  0  0  0  0  0  0  0  0  0  # atno 6909 bound_to 6896
  144.7552  140.3982  143.6017 H   0  0  0  0  0  0  0  0  0  0  0  0  # atno 7974 bound_to 7965
  155.6409  140.3497  155.4715 H   0  0  0  0  0  0  0  0  0  0  0  0  # atno 8008 bound_to 7997
  155.9926  140.1197  157.0647 H   0  0  0  0  0  0  0  0  0  0  0  0  # atno 8009 bound_to 7997
  154.4224  140.1116  156.5573 H   0  0  0  0  0  0  0  0  0  0  0  0  # atno 8010 bound_to 7997
  139.8133  143.7672  152.2664 H   0  0  0  0  0  0  0  0  0  0  0  0  # atno 10167 bound_to 10162
  156.3250  130.7555  151.1661 H   0  0  0  0  0  0  0  0  0  0  0  0  # atno 10718 bound_to 10713
  153.7179  135.3258  155.3260 H   0  0  0  0  0  0  0  0  0  0  0  0  # atno 10763 bound_to 10752
  154.8365  135.4492  154.1248 H   0  0  0  0  0  0  0  0  0  0  0  0  # atno 10764 bound_to 10752
  153.2360  135.6965  153.7916 H   0  0  0  0  0  0  0  0  0  0  0  0  # atno 10765 bound_to 10752
  140.2674  134.7854  157.3644 H   0  0  0  0  0  0  0  0  0  0  0  0  # atno 11005 bound_to 11000
  145.6803  139.1617  143.2704 LP  0  0  0  0  0  0  0  0  0  0  0  0  # atno 17320 bound_to 7965
  146.1554  140.6865  142.9302 LP  0  0  0  0  0  0  0  0  0  0  0  0  # atno 17321 bound_to 7965
  139.7828  144.7438  151.0064 LP  0  0  0  0  0  0  0  0  0  0  0  0  # atno 17342 bound_to 10162
  140.7817  143.4524  151.0394 LP  0  0  0  0  0  0  0  0  0  0  0  0  # atno 17343 bound_to 10162
  157.7419  131.0497  150.5061 LP  0  0  0  0  0  0  0  0  0  0  0  0  # atno 17370 bound_to 10713
  156.5218  130.4164  149.6246 LP  0  0  0  0  0  0  0  0  0  0  0  0  # atno 17371 bound_to 10713
  140.1406  134.4977  155.8034 LP  0  0  0  0  0  0  0  0  0  0  0  0  # atno 17394 bound_to 11000
  141.2182  133.6824  156.7203 LP  0  0  0  0  0  0  0  0  0  0  0  0  # atno 17395 bound_to 11000

$$$$
