AV-unprocessed.smi:2790|AV-procd|sdf|10770|dock7
  -GOLD-   2272015203D 1   1.00000     0.00000
 Structure written by MMmdl.
 46 47  0  0  0  0  0  0  0  0  4 V2000
  146.2986  136.7568  159.3367 C   0  0  0  0  0  0  0  0  0  0  0  0
  147.1826  135.5771  159.4670 N   0  3  0  0  0  0  0  0  0  0  0  0
  148.0332  135.6462  160.6747 C   0  0  0  0  0  0  0  0  0  0  0  0
  147.9511  135.2862  158.2299 C   0  0  0  0  0  0  0  0  0  0  0  0
  149.0495  136.3382  158.0517 C   0  0  0  0  0  0  0  0  0  0  0  0
  150.0315  136.2935  158.7984 O   0  0  0  0  0  0  0  0  0  0  0  0
  148.7448  137.1955  157.0402 N   0  5  0  0  0  0  0  0  0  0  0  0
  149.2451  138.5689  156.9465 C   0  0  0  0  0  0  0  0  0  0  0  0
  149.6782  138.9321  155.4730 C   0  0  0  0  0  0  0  0  0  0  0  0
  148.4075  139.3068  154.6544 C   0  0  0  0  0  0  0  0  0  0  0  0
  147.4170  138.3348  154.3406 C   0  0  0  0  0  0  0  0  0  0  0  0
  146.2798  138.6935  153.5906 C   0  0  0  0  0  0  0  0  0  0  0  0
  146.1282  139.9634  153.1641 N   0  3  0  0  0  0  0  0  0  0  0  0
  147.0334  140.9281  153.4233 C   0  0  0  0  0  0  0  0  0  0  0  0
  148.1900  140.6263  154.1693 C   0  0  0  0  0  0  0  0  0  0  0  0
  150.6538  140.1656  155.4626 C   0  0  0  0  0  0  0  0  0  0  0  0
  152.1006  139.9039  155.9387 C   0  0  0  0  0  0  0  0  0  0  0  0
  152.7510  138.7551  155.1649 C   0  0  0  0  0  0  0  0  0  0  0  0
  151.8925  137.4927  155.2670 C   0  0  0  0  0  0  0  0  0  0  0  0
  150.4527  137.7526  154.7743 C   0  0  0  0  0  0  0  0  0  0  0  0
  146.8807  137.6682  159.1949 H   0  0  0  0  0  0  0  0  0  0  0  0
  145.6850  136.8777  160.2297 H   0  0  0  0  0  0  0  0  0  0  0  0
  145.6252  136.6443  158.4864 H   0  0  0  0  0  0  0  0  0  0  0  0
  148.7351  136.4786  160.6111 H   0  0  0  0  0  0  0  0  0  0  0  0
  148.6022  134.7237  160.7963 H   0  0  0  0  0  0  0  0  0  0  0  0
  147.4230  135.7792  161.5687 H   0  0  0  0  0  0  0  0  0  0  0  0
  148.3861  134.2849  158.2539 H   0  0  0  0  0  0  0  0  0  0  0  0
  147.3007  135.3080  157.3537 H   0  0  0  0  0  0  0  0  0  0  0  0
  148.5031  139.2986  157.2745 H   0  0  0  0  0  0  0  0  0  0  0  0
  150.0937  138.7100  157.6151 H   0  0  0  0  0  0  0  0  0  0  0  0
  147.5213  137.3070  154.6514 H   0  0  0  0  0  0  0  0  0  0  0  0
  145.4953  138.0036  153.3158 H   0  0  0  0  0  0  0  0  0  0  0  0
  146.8104  141.9070  153.0245 H   0  0  0  0  0  0  0  0  0  0  0  0
  148.9010  141.4181  154.3432 H   0  0  0  0  0  0  0  0  0  0  0  0
  150.7267  140.5297  154.4364 H   0  0  0  0  0  0  0  0  0  0  0  0
  150.2625  141.0084  156.0350 H   0  0  0  0  0  0  0  0  0  0  0  0
  152.6948  140.8090  155.8103 H   0  0  0  0  0  0  0  0  0  0  0  0
  152.1183  139.6853  157.0069 H   0  0  0  0  0  0  0  0  0  0  0  0
  152.8708  139.0363  154.1180 H   0  0  0  0  0  0  0  0  0  0  0  0
  153.7513  138.5610  155.5530 H   0  0  0  0  0  0  0  0  0  0  0  0
  152.3428  136.6983  154.6716 H   0  0  0  0  0  0  0  0  0  0  0  0
  151.8866  137.1291  156.2950 H   0  0  0  0  0  0  0  0  0  0  0  0
  149.9033  136.8106  154.8225 H   0  0  0  0  0  0  0  0  0  0  0  0
  150.5323  137.9816  153.7104 H   0  0  0  0  0  0  0  0  0  0  0  0
  146.5732  134.7811  159.5938 H   0  0  0  0  0  0  0  0  0  0  0  0
  145.2994  140.2020  152.6193 H   0  0  0  0  0  0  0  0  0  0  0  0
  1  2  1  0  0  0  0
  1 21  1  0  0  0  0
  1 22  1  0  0  0  0
  1 23  1  0  0  0  0
  2  3  1  0  0  0  0
  2  4  1  0  0  0  0
  2 45  1  0  0  0  0
  3 24  1  0  0  0  0
  3 25  1  0  0  0  0
  3 26  1  0  0  0  0
  4  5  1  0  0  0  0
  4 27  1  0  0  0  0
  4 28  1  0  0  0  0
  5  6  2  0  0  0  0
  5  7  1  0  0  0  0
  7  8  1  0  0  0  0
  8  9  1  0  0  0  0
  8 29  1  0  0  0  0
  8 30  1  0  0  0  0
  9 20  1  0  0  0  0
  9 10  1  0  0  0  0
  9 16  1  0  0  0  0
 10 15  1  0  0  0  0
 10 11  2  0  0  0  0
 11 12  1  0  0  0  0
 11 31  1  0  0  0  0
 12 13  2  0  0  0  0
 12 32  1  0  0  0  0
 13 14  1  0  0  0  0
 13 46  1  0  0  0  0
 14 15  2  0  0  0  0
 14 33  1  0  0  0  0
 15 34  1  0  0  0  0
 16 17  1  0  0  0  0
 16 35  1  0  0  0  0
 16 36  1  0  0  0  0
 17 18  1  0  0  0  0
 17 37  1  0  0  0  0
 17 38  1  0  0  0  0
 18 19  1  0  0  0  0
 18 39  1  0  0  0  0
 18 40  1  0  0  0  0
 19 20  1  0  0  0  0
 19 41  1  0  0  0  0
 19 42  1  0  0  0  0
 20 43  1  0  0  0  0
 20 44  1  0  0  0  0
M  CHG  1   2   1
M  CHG  1   7  -1
M  CHG  1  13   1
M  END
> <s_m_source_file>
AV-unprocessed.smi

> <i_m_source_file_index>
2790

> <i_lp_mmshare_version>
43012

> <i_f3d_flags>
0

> <s_epik_input>
W0NIM11OKFtDSDNdKVtDSDJdQyg9TylbTkhdW0NIMl1DMShbQ0gyXVtDSDJdW0NIMl1bQ0gyXVtDSDJdMSljMltjSF1bY0hdbltjSF1bY0hdMg==

> <s_epik_cmdline>
J2VwaWtfcHl0aG9uJywgJy1waCcsICc3LjAnLCAnLXRuJywgJzgnLCAnLW1hJywgJzIwMCcsICctbWV0YWxfYmluZGluZycsICctaW1hZScsICc8aW5maWxlLm1hZT4nLCAnLW9tYWUnLCAnPG91dGZpbGUubWFlPic=

> <r_epik_Ionization_Penalty>
6.72126

> <r_epik_Ionization_Penalty_Charging>
6.72126

> <r_epik_Ionization_Penalty_Neutral>
0

> <r_epik_State_Penalty>
7.43246

> <r_epik_Charging_Adjusted_Penalty>
14.1537

> <i_epik_Tot_Q>
1

> <i_epik_Tot_abs_Q>
3

> <r_epik_Metal_State_Penalty>
3.42758

> <b_epik_Metal_Only>
1

> <s_lp_Force_Field>
OPLS_2005

> <r_lp_Energy>
31.5627

> <b_lp_Chiralities_Consistent>
1

> <s_lp_Variant>
AV-unprocessed.smi:2790-5

> <Gold.Version>
5.8.1

> <Gold.Id.Protein>
6NUR|6NUR_protein|mol2

> <Gold.PLP.Fitness>
34.5140

> <Gold.PLP.PLP>
-27.1355

> <Gold.PLP.part.hbond>
-2.0000

> <Gold.PLP.part.metal>
0.0000

> <Gold.PLP.part.buried>
-1.2763

> <Gold.PLP.part.nonpolar>
-24.2630

> <Gold.PLP.part.repulsive>
0.0807

> <Gold.PLP.ligand.clash>
0.0000

> <Gold.PLP.ligand.torsion>
0.8509

> <Gold.PLP.Chemscore.Hbond>
3.0000

> <Gold.PLP.Chemscore.CHOScore>
0.0000

> <Gold.PLP.Chemscore.Metal>
0.0000

> <Gold.Chemscore.Hbonds>
donor molecule, donor type, donor heavy atom, donor atom, acceptor molecule, acceptor atom, score
      L1  H    13    46       P1 10175  2.00
      P1  H  6896  6908       L1     6  1.00

> <Gold.PLP.Chemscore.Internal.Correction>
0.0804

> <Gold.Rescore>
     Score         DG    S(hbond)    S(metal)    S(lipo)     H(rot)  DE(clash)    DE(int)     intcor
     14.74     -16.95       1.91        0.00      80.05       1.67       0.39       1.82       ----

> <Gold.Chemscore.Fitness>
14.7352

> <Gold.Chemscore.DG>
-16.9514

> <Gold.Chemscore.ZeroCoef>
-5.4800

> <Gold.Chemscore.Hbond>
1.9137

> <Gold.Chemscore.Metal>
0.0000

> <Gold.Chemscore.Lipo>
80.0479

> <Gold.Chemscore.Internal_Hbond>
0.0000

> <Gold.Chemscore.DEClash>
0.3913

> <Gold.Chemscore.DEInternal>
1.8249

> <Gold.Chemscore.Rot>
1.6741

> <Gold.Chemscore.Internal.Correction>
   9.000000E+99

> <Gold.Chemscore.Hbonds>
donor molecule, donor type, donor heavy atom, donor atom, acceptor molecule, acceptor atom, score
      L1  H    13    46       P1 10175  0.90
      P1  H  6896  6908       L1     6  1.00

> <Gold.Chemscore.Hbond.Weighted>
-6.3916

> <Gold.Chemscore.Metal.Weighted>
-0.0000

> <Gold.Chemscore.Lipo.Weighted>
-9.3656

> <Gold.Chemscore.Internal_Hbond.Weighted>
0.0000

> <Gold.Chemscore.DEClash.Weighted>
0.3913

> <Gold.Chemscore.DEInternal.Weighted>
1.8249

> <Gold.Chemscore.Rot.Weighted>
4.2858

> <Gold.Chemscore.Internal.Correction.Weighted>
   9.000000E+99

> <Gold.Protein.RotatedTorsions>
[ 6907 6896 6895 6894 ] final -167.50 input  -60.11 | X-H torsion
[ 7974 7965 7964 7962 ] final  -72.43 input  175.53 | X-H torsion
[ 8008 7997 7996 7995 ] final  177.46 input   59.86 | X-H torsion
[ 10167 10162 10161 10158 ] final -122.21 input  -65.29 | X-H torsion
[ 10718 10713 10712 10709 ] final   49.96 input   66.30 | X-H torsion
[ 10763 10752 10751 10750 ] final  104.47 input  -60.55 | X-H torsion
[ 11005 11000 10999 10996 ] final  113.61 input  -57.11 | X-H torsion

> <Gold.Protein.ActiveResidues>
 VAL166  LYS551  ARG553  GLY616  TRP617  ASP618  TYR619  PRO620  LYS621  CYS622 
 ASP623  PHE694  ASN695  SER759  ASP760  ASP761  ALA762  ILE779  LEU786  VAL792 
 PHE793  MET794  SER795  GLU796  ALA797  LYS798  CYS799  TRP800  GLU811  SER814 

> <Gold.Protein.RotatedAtoms>
  151.4606  133.3594  159.2808 H   0  0  0  0  0  0  0  0  0  0  0  0  # atno 6907 bound_to 6896
  150.9028  134.8443  159.7383 H   0  0  0  0  0  0  0  0  0  0  0  0  # atno 6908 bound_to 6896
  152.4889  134.4528  159.9632 H   0  0  0  0  0  0  0  0  0  0  0  0  # atno 6909 bound_to 6896
  145.6653  140.9239  143.0912 H   0  0  0  0  0  0  0  0  0  0  0  0  # atno 7974 bound_to 7965
  156.0654  140.1358  156.9892 H   0  0  0  0  0  0  0  0  0  0  0  0  # atno 8008 bound_to 7997
  154.4503  140.0983  156.6651 H   0  0  0  0  0  0  0  0  0  0  0  0  # atno 8009 bound_to 7997
  155.5312  140.3458  155.4429 H   0  0  0  0  0  0  0  0  0  0  0  0  # atno 8010 bound_to 7997
  140.0167  143.5385  152.2239 H   0  0  0  0  0  0  0  0  0  0  0  0  # atno 10167 bound_to 10162
  157.4838  130.8332  149.8123 H   0  0  0  0  0  0  0  0  0  0  0  0  # atno 10718 bound_to 10713
  153.3663  135.3942  155.1756 H   0  0  0  0  0  0  0  0  0  0  0  0  # atno 10763 bound_to 10752
  154.8687  135.3692  154.5034 H   0  0  0  0  0  0  0  0  0  0  0  0  # atno 10764 bound_to 10752
  153.5498  135.7083  153.5657 H   0  0  0  0  0  0  0  0  0  0  0  0  # atno 10765 bound_to 10752
  139.8958  134.9553  156.6766 H   0  0  0  0  0  0  0  0  0  0  0  0  # atno 11005 bound_to 11000
  144.7075  139.8501  143.7425 LP  0  0  0  0  0  0  0  0  0  0  0  0  # atno 17320 bound_to 7965
  146.1091  139.4094  143.0299 LP  0  0  0  0  0  0  0  0  0  0  0  0  # atno 17321 bound_to 7965
  139.6167  144.7621  151.2830 LP  0  0  0  0  0  0  0  0  0  0  0  0  # atno 17342 bound_to 10162
  140.7359  143.6723  150.8071 LP  0  0  0  0  0  0  0  0  0  0  0  0  # atno 17343 bound_to 10162
  156.0135  130.3823  150.2185 LP  0  0  0  0  0  0  0  0  0  0  0  0  # atno 17370 bound_to 10713
  157.0372  131.0024  151.3294 LP  0  0  0  0  0  0  0  0  0  0  0  0  # atno 17371 bound_to 10713
  140.7332  133.9041  155.8226 LP  0  0  0  0  0  0  0  0  0  0  0  0  # atno 17394 bound_to 11000
  141.0137  134.0986  157.4195 LP  0  0  0  0  0  0  0  0  0  0  0  0  # atno 17395 bound_to 11000

$$$$
