AV-unprocessed.smi:1945|AV-procd|sdf|7860|dock7
  -GOLD-   2272010 13D 1   1.00000     0.00000
 Structure written by MMmdl.
 47 48  0  0  0  0  0  0  0  0  1 V2000
  143.9713  142.6007  162.8616 C   0  0  0  0  0  0  0  0  0  0  0  0
  145.1437  142.9524  161.9946 C   0  0  0  0  0  0  0  0  0  0  0  0
  145.3652  142.5989  160.6321 C   0  0  0  0  0  0  0  0  0  0  0  0
  146.5754  143.1778  160.3626 C   0  0  0  0  0  0  0  0  0  0  0  0
  147.2865  143.1656  159.2035 N   0  0  0  0  0  0  0  0  0  0  0  0
  147.6322  142.1143  158.4404 C   0  0  0  0  0  0  0  0  0  0  0  0
  147.3207  140.9428  158.6560 O   0  0  0  0  0  0  0  0  0  0  0  0
  148.3817  142.5005  157.3977 N   0  0  0  0  0  0  0  0  0  0  0  0
  148.9840  141.6018  156.4181 C   0  0  0  0  0  0  0  0  0  0  0  0
  150.5148  141.5957  156.5367 C   0  0  0  0  0  0  0  0  0  0  0  0
  150.8793  141.0598  157.7999 O   0  0  0  0  0  0  0  0  0  0  0  0
  151.8299  141.8291  158.5228 C   0  0  1  0  0  0  0  0  0  0  0  0
  151.1365  143.0866  159.0897 C   0  0  0  0  0  0  0  0  0  0  0  0
  152.0726  143.8847  160.0087 C   0  0  0  0  0  0  0  0  0  0  0  0
  152.6146  143.0028  161.1419 C   0  0  0  0  0  0  0  0  0  0  0  0
  153.3148  141.7555  160.5823 C   0  0  0  0  0  0  0  0  0  0  0  0
  152.3840  140.9420  159.6606 C   0  0  2  0  0  0  0  0  0  0  0  0
  153.1092  139.7012  159.1151 C   0  0  0  0  0  0  0  0  0  0  0  0
  147.0190  143.8272  161.4949 N   0  0  0  0  0  0  0  0  0  0  0  0
  148.2346  144.5844  161.7243 C   0  0  0  0  0  0  0  0  0  0  0  0
  146.1309  143.6820  162.5013 N   0  0  0  0  0  0  0  0  0  0  0  0
  143.2360  142.0139  162.3109 H   0  0  0  0  0  0  0  0  0  0  0  0
  143.4718  143.4971  163.2294 H   0  0  0  0  0  0  0  0  0  0  0  0
  144.2844  142.0137  163.7253 H   0  0  0  0  0  0  0  0  0  0  0  0
  144.7297  142.0169  159.9818 H   0  0  0  0  0  0  0  0  0  0  0  0
  147.6220  144.0664  158.8961 H   0  0  0  0  0  0  0  0  0  0  0  0
  148.5826  143.4843  157.2940 H   0  0  0  0  0  0  0  0  0  0  0  0
  148.5843  140.5906  156.5123 H   0  0  0  0  0  0  0  0  0  0  0  0
  148.6985  141.9550  155.4272 H   0  0  0  0  0  0  0  0  0  0  0  0
  150.9463  140.9767  155.7491 H   0  0  0  0  0  0  0  0  0  0  0  0
  150.9012  142.6062  156.4020 H   0  0  0  0  0  0  0  0  0  0  0  0
  152.6562  142.1207  157.8713 H   0  0  0  0  0  0  0  0  0  0  0  0
  150.7907  143.7331  158.2838 H   0  0  0  0  0  0  0  0  0  0  0  0
  150.2473  142.7908  159.6480 H   0  0  0  0  0  0  0  0  0  0  0  0
  152.9027  144.2865  159.4264 H   0  0  0  0  0  0  0  0  0  0  0  0
  151.5423  144.7415  160.4254 H   0  0  0  0  0  0  0  0  0  0  0  0
  153.3084  143.5745  161.7588 H   0  0  0  0  0  0  0  0  0  0  0  0
  151.7953  142.7010  161.7955 H   0  0  0  0  0  0  0  0  0  0  0  0
  154.2067  142.0577  160.0313 H   0  0  0  0  0  0  0  0  0  0  0  0
  153.6597  141.1320  161.4079 H   0  0  0  0  0  0  0  0  0  0  0  0
  151.5408  140.5951  160.2600 H   0  0  0  0  0  0  0  0  0  0  0  0
  153.9642  139.9808  158.4987 H   0  0  0  0  0  0  0  0  0  0  0  0
  152.4452  139.0886  158.5046 H   0  0  0  0  0  0  0  0  0  0  0  0
  153.4755  139.0731  159.9276 H   0  0  0  0  0  0  0  0  0  0  0  0
  148.7597  144.7637  160.7861 H   0  0  0  0  0  0  0  0  0  0  0  0
  148.8897  144.0295  162.3963 H   0  0  0  0  0  0  0  0  0  0  0  0
  147.9909  145.5458  162.1775 H   0  0  0  0  0  0  0  0  0  0  0  0
  1  2  1  0  0  0  0
  1 22  1  0  0  0  0
  1 23  1  0  0  0  0
  1 24  1  0  0  0  0
  2 21  2  0  0  0  0
  2  3  1  0  0  0  0
  3  4  2  0  0  0  0
  3 25  1  0  0  0  0
  4  5  1  0  0  0  0
  4 19  1  0  0  0  0
  5  6  1  0  0  0  0
  5 26  1  0  0  0  0
  6  7  2  0  0  0  0
  6  8  1  0  0  0  0
  8  9  1  0  0  0  0
  8 27  1  0  0  0  0
  9 10  1  0  0  0  0
  9 28  1  0  0  0  0
  9 29  1  0  0  0  0
 10 11  1  0  0  0  0
 10 30  1  0  0  0  0
 10 31  1  0  0  0  0
 11 12  1  0  0  0  0
 12 17  1  0  0  0  0
 12 13  1  0  0  0  0
 12 32  1  0  0  0  0
 13 14  1  0  0  0  0
 13 33  1  0  0  0  0
 13 34  1  0  0  0  0
 14 15  1  0  0  0  0
 14 35  1  0  0  0  0
 14 36  1  0  0  0  0
 15 16  1  0  0  0  0
 15 37  1  0  0  0  0
 15 38  1  0  0  0  0
 16 17  1  0  0  0  0
 16 39  1  0  0  0  0
 16 40  1  0  0  0  0
 17 18  1  0  0  0  0
 17 41  1  0  0  0  0
 18 42  1  0  0  0  0
 18 43  1  0  0  0  0
 18 44  1  0  0  0  0
 19 20  1  0  0  0  0
 19 21  1  0  0  0  0
 20 45  1  0  0  0  0
 20 46  1  0  0  0  0
 20 47  1  0  0  0  0
M  END
> <s_m_source_file>
AV-unprocessed.smi

> <i_m_source_file_index>
1945

> <i_lp_mmshare_version>
43012

> <i_f3d_flags>
0

> <s_epik_input>
W0NIM11jMVtjSF1jKG4objEpW0NIM10pW05IXUMoPU8pW05IXVtDSDJdW0NIMl1PW0NAQEhdMltDSDJdW0NIMl1bQ0gyXVtDSDJdW0NASF0yW0NIM10=

> <s_epik_cmdline>
J2VwaWtfcHl0aG9uJywgJy1waCcsICc3LjAnLCAnLXRuJywgJzgnLCAnLW1hJywgJzIwMCcsICctbWV0YWxfYmluZGluZycsICctaW1hZScsICc8aW5maWxlLm1hZT4nLCAnLW9tYWUnLCAnPG91dGZpbGUubWFlPic=

> <r_lp_tautomer_probability>
1

> <r_epik_Ionization_Penalty>
9.47735e-05

> <r_epik_Ionization_Penalty_Charging>
0

> <r_epik_Ionization_Penalty_Neutral>
9.47735e-05

> <r_epik_State_Penalty>
-0

> <r_epik_Charging_Adjusted_Penalty>
0

> <i_epik_Tot_Q>
0

> <i_epik_Tot_abs_Q>
0

> <r_epik_Metal_State_Penalty>
-0

> <b_epik_Metal_Only>
0

> <s_lp_Force_Field>
OPLS_2005

> <r_lp_Energy>
11.6834

> <b_lp_Chiralities_Consistent>
1

> <s_lp_Variant>
AV-unprocessed.smi:1945-4

> <Gold.Version>
5.8.1

> <Gold.Id.Protein>
6NUR|6NUR_protein|mol2

> <Gold.PLP.Fitness>
50.8250

> <Gold.PLP.PLP>
-46.2244

> <Gold.PLP.part.hbond>
-4.0791

> <Gold.PLP.part.metal>
0.0000

> <Gold.PLP.part.buried>
-7.2048

> <Gold.PLP.part.nonpolar>
-35.6512

> <Gold.PLP.part.repulsive>
0.5258

> <Gold.PLP.ligand.clash>
0.0000

> <Gold.PLP.ligand.torsion>
0.9292

> <Gold.PLP.Chemscore.Hbond>
2.1452

> <Gold.PLP.Chemscore.CHOScore>
0.0000

> <Gold.PLP.Chemscore.Metal>
0.0000

> <Gold.Chemscore.Hbonds>
donor molecule, donor type, donor heavy atom, donor atom, acceptor molecule, acceptor atom, score
      L1  H     8    27       P1  8028  0.52
      P1  H  6934  6946       L1     7  0.10

> <Gold.PLP.Chemscore.Internal.Correction>
0.0236

> <Gold.Rescore>
     Score         DG    S(hbond)    S(metal)    S(lipo)     H(rot)  DE(clash)    DE(int)     intcor
     17.47     -18.45       1.33        0.00     108.72       1.63       0.04       0.94       ----

> <Gold.Chemscore.Fitness>
17.4732

> <Gold.Chemscore.DG>
-18.4509

> <Gold.Chemscore.ZeroCoef>
-5.4800

> <Gold.Chemscore.Hbond>
1.3256

> <Gold.Chemscore.Metal>
0.0000

> <Gold.Chemscore.Lipo>
108.7204

> <Gold.Chemscore.Internal_Hbond>
0.0000

> <Gold.Chemscore.DEClash>
0.0378

> <Gold.Chemscore.DEInternal>
0.9400

> <Gold.Chemscore.Rot>
1.6316

> <Gold.Chemscore.Internal.Correction>
   9.000000E+99

> <Gold.Chemscore.Hbonds>
donor molecule, donor type, donor heavy atom, donor atom, acceptor molecule, acceptor atom, score
      L1  H     5    26       P1  8029  0.02
      L1  H     8    27       P1  8028  0.07
      P1  H  6934  6946       L1     7  0.06

> <Gold.Chemscore.Hbond.Weighted>
-4.4274

> <Gold.Chemscore.Metal.Weighted>
-0.0000

> <Gold.Chemscore.Lipo.Weighted>
-12.7203

> <Gold.Chemscore.Internal_Hbond.Weighted>
0.0000

> <Gold.Chemscore.DEClash.Weighted>
0.0378

> <Gold.Chemscore.DEInternal.Weighted>
0.9400

> <Gold.Chemscore.Rot.Weighted>
4.1768

> <Gold.Chemscore.Internal.Correction.Weighted>
   9.000000E+99

> <Gold.Protein.RotatedTorsions>
[ 6907 6896 6895 6894 ] final -130.10 input  -60.11 | X-H torsion
[ 7974 7965 7964 7962 ] final  178.44 input  175.53 | X-H torsion
[ 8008 7997 7996 7995 ] final  -31.02 input   59.86 | X-H torsion
[ 10167 10162 10161 10158 ] final  115.08 input  -65.29 | X-H torsion
[ 10718 10713 10712 10709 ] final   38.69 input   66.30 | X-H torsion
[ 10763 10752 10751 10750 ] final -144.17 input  -60.55 | X-H torsion
[ 11005 11000 10999 10996 ] final -123.51 input  -57.11 | X-H torsion

> <Gold.Protein.ActiveResidues>
 VAL166  LYS551  ARG553  GLY616  TRP617  ASP618  TYR619  PRO620  LYS621  CYS622 
 ASP623  PHE694  ASN695  SER759  ASP760  ASP761  ALA762  ILE779  LEU786  VAL792 
 PHE793  MET794  SER795  GLU796  ALA797  LYS798  CYS799  TRP800  GLU811  SER814 

> <Gold.Protein.RotatedAtoms>
  150.9360  133.6711  159.2800 H   0  0  0  0  0  0  0  0  0  0  0  0  # atno 6907 bound_to 6896
  151.4117  135.0984  159.9596 H   0  0  0  0  0  0  0  0  0  0  0  0  # atno 6908 bound_to 6896
  152.5048  133.8832  159.7411 H   0  0  0  0  0  0  0  0  0  0  0  0  # atno 6909 bound_to 6896
  144.7156  140.0398  143.6437 H   0  0  0  0  0  0  0  0  0  0  0  0  # atno 7974 bound_to 7965
  154.4229  140.1775  156.1500 H   0  0  0  0  0  0  0  0  0  0  0  0  # atno 8008 bound_to 7997
  155.9923  140.3368  155.6740 H   0  0  0  0  0  0  0  0  0  0  0  0  # atno 8009 bound_to 7997
  155.6356  140.0674  157.2626 H   0  0  0  0  0  0  0  0  0  0  0  0  # atno 8010 bound_to 7997
  139.6342  144.7118  151.2369 H   0  0  0  0  0  0  0  0  0  0  0  0  # atno 10167 bound_to 10162
  157.3617  130.7653  149.7053 H   0  0  0  0  0  0  0  0  0  0  0  0  # atno 10718 bound_to 10713
  154.8439  135.3447  154.6304 H   0  0  0  0  0  0  0  0  0  0  0  0  # atno 10763 bound_to 10752
  153.6914  135.6974  153.5093 H   0  0  0  0  0  0  0  0  0  0  0  0  # atno 10764 bound_to 10752
  153.2592  135.4328  155.0832 H   0  0  0  0  0  0  0  0  0  0  0  0  # atno 10765 bound_to 10752
  140.9913  134.0535  157.3651 H   0  0  0  0  0  0  0  0  0  0  0  0  # atno 11005 bound_to 11000
  146.0033  139.3109  143.0914 LP  0  0  0  0  0  0  0  0  0  0  0  0  # atno 17320 bound_to 7965
  145.8768  140.9387  143.0622 LP  0  0  0  0  0  0  0  0  0  0  0  0  # atno 17321 bound_to 7965
  140.7456  143.6425  150.8321 LP  0  0  0  0  0  0  0  0  0  0  0  0  # atno 17342 bound_to 10162
  140.0054  143.5699  152.2859 LP  0  0  0  0  0  0  0  0  0  0  0  0  # atno 17343 bound_to 10162
  155.9739  130.4112  150.3968 LP  0  0  0  0  0  0  0  0  0  0  0  0  # atno 17370 bound_to 10713
  157.2046  131.0446  151.2632 LP  0  0  0  0  0  0  0  0  0  0  0  0  # atno 17371 bound_to 10713
  139.8993  135.0158  156.7191 LP  0  0  0  0  0  0  0  0  0  0  0  0  # atno 17394 bound_to 11000
  140.7036  133.9285  155.8039 LP  0  0  0  0  0  0  0  0  0  0  0  0  # atno 17395 bound_to 11000

$$$$
