AV-unprocessed.smi:1218|AV-procd|sdf|5106|dock1
  -GOLD-   22720 4153D 1   1.00000     0.00000
 Structure written by MMmdl.
 45 46  0  0  0  0  0  0  0  0  2 V2000
  149.3777  135.2577  154.9854 C   0  0  0  0  0  0  0  0  0  0  0  0
  148.2909  135.9388  155.8309 C   0  0  0  0  0  0  0  0  0  0  0  0
  147.8847  135.0386  157.0099 C   0  0  0  0  0  0  0  0  0  0  0  0
  147.0786  136.3161  154.9524 C   0  0  0  0  0  0  0  0  0  0  0  0
  147.3682  137.4185  153.9995 N   0  3  1  0  0  0  0  0  0  0  0  0
  146.2785  137.6592  153.0217 C   0  0  0  0  0  0  0  0  0  0  0  0
  146.6617  138.7939  152.0591 C   0  0  0  0  0  0  0  0  0  0  0  0
  146.9681  139.9635  152.8052 O   0  0  0  0  0  0  0  0  0  0  0  0
  148.0852  139.7807  153.6692 C   0  0  1  0  0  0  0  0  0  0  0  0
  148.4075  141.1169  154.3623 C   0  0  0  0  0  0  0  0  0  0  0  0
  149.0001  140.9171  155.6812 N   0  0  0  0  0  0  0  0  0  0  0  0
  150.2912  140.6334  155.9133 C   0  0  0  0  0  0  0  0  0  0  0  0
  151.1235  140.5057  155.0141 O   0  0  0  0  0  0  0  0  0  0  0  0
  150.6868  140.4628  157.3849 C   0  0  0  0  0  0  0  0  0  0  0  0
  151.4143  141.6099  157.9033 N   0  0  0  0  0  0  0  0  0  0  0  0
  151.2988  142.9356  157.5381 C   0  0  0  0  0  0  0  0  0  0  0  0
  152.1844  143.6452  158.2973 C   0  0  0  0  0  0  0  0  0  0  0  0
  152.8022  142.6542  159.1106 C   0  0  0  0  0  0  0  0  0  0  0  0
  152.3376  141.4379  158.8745 N   0  0  0  0  0  0  0  0  0  0  0  0
  147.7326  138.6796  154.6892 C   0  0  0  0  0  0  0  0  0  0  0  0
  149.0138  134.3300  154.5425 H   0  0  0  0  0  0  0  0  0  0  0  0
  150.2533  135.0165  155.5890 H   0  0  0  0  0  0  0  0  0  0  0  0
  149.7089  135.9064  154.1737 H   0  0  0  0  0  0  0  0  0  0  0  0
  148.7359  136.8460  156.2387 H   0  0  0  0  0  0  0  0  0  0  0  0
  147.4342  134.1084  156.6617 H   0  0  0  0  0  0  0  0  0  0  0  0
  147.1650  135.5339  157.6616 H   0  0  0  0  0  0  0  0  0  0  0  0
  148.7495  134.7787  157.6212 H   0  0  0  0  0  0  0  0  0  0  0  0
  146.7208  135.4481  154.3962 H   0  0  0  0  0  0  0  0  0  0  0  0
  146.2597  136.6113  155.6104 H   0  0  0  0  0  0  0  0  0  0  0  0
  146.0716  136.7571  152.4473 H   0  0  0  0  0  0  0  0  0  0  0  0
  145.3606  137.9185  153.5516 H   0  0  0  0  0  0  0  0  0  0  0  0
  147.5109  138.5096  151.4356 H   0  0  0  0  0  0  0  0  0  0  0  0
  145.8317  139.0121  151.3868 H   0  0  0  0  0  0  0  0  0  0  0  0
  148.9519  139.4695  153.0826 H   0  0  0  0  0  0  0  0  0  0  0  0
  149.0549  141.7319  153.7346 H   0  0  0  0  0  0  0  0  0  0  0  0
  147.4886  141.6869  154.5026 H   0  0  0  0  0  0  0  0  0  0  0  0
  148.3842  141.0033  156.4768 H   0  0  0  0  0  0  0  0  0  0  0  0
  149.7955  140.3186  157.9971 H   0  0  0  0  0  0  0  0  0  0  0  0
  151.2986  139.5654  157.4908 H   0  0  0  0  0  0  0  0  0  0  0  0
  150.6064  143.2581  156.7744 H   0  0  0  0  0  0  0  0  0  0  0  0
  152.3642  144.7097  158.2748 H   0  0  0  0  0  0  0  0  0  0  0  0
  153.5688  142.7814  159.8608 H   0  0  0  0  0  0  0  0  0  0  0  0
  146.9021  139.0016  155.3201 H   0  0  0  0  0  0  0  0  0  0  0  0
  148.5854  138.5029  155.3461 H   0  0  0  0  0  0  0  0  0  0  0  0
  148.1839  137.1386  153.4736 H   0  0  0  0  0  0  0  0  0  0  0  0
  1  2  1  0  0  0  0
  1 21  1  0  0  0  0
  1 22  1  0  0  0  0
  1 23  1  0  0  0  0
  2  3  1  0  0  0  0
  2  4  1  0  0  0  0
  2 24  1  0  0  0  0
  3 25  1  0  0  0  0
  3 26  1  0  0  0  0
  3 27  1  0  0  0  0
  4  5  1  0  0  0  0
  4 28  1  0  0  0  0
  4 29  1  0  0  0  0
  5 20  1  0  0  0  0
  5  6  1  0  0  0  0
  5 45  1  0  0  0  0
  6  7  1  0  0  0  0
  6 30  1  0  0  0  0
  6 31  1  0  0  0  0
  7  8  1  0  0  0  0
  7 32  1  0  0  0  0
  7 33  1  0  0  0  0
  8  9  1  0  0  0  0
  9 10  1  0  0  0  0
  9 20  1  0  0  0  0
  9 34  1  0  0  0  0
 10 11  1  0  0  0  0
 10 35  1  0  0  0  0
 10 36  1  0  0  0  0
 11 12  1  0  0  0  0
 11 37  1  0  0  0  0
 12 13  2  0  0  0  0
 12 14  1  0  0  0  0
 14 15  1  0  0  0  0
 14 38  1  0  0  0  0
 14 39  1  0  0  0  0
 15 19  1  0  0  0  0
 15 16  1  0  0  0  0
 16 17  2  0  0  0  0
 16 40  1  0  0  0  0
 17 18  1  0  0  0  0
 17 41  1  0  0  0  0
 18 19  2  0  0  0  0
 18 42  1  0  0  0  0
 20 43  1  0  0  0  0
 20 44  1  0  0  0  0
M  CHG  1   5   1
M  END
> <s_m_source_file>
AV-unprocessed.smi

> <i_m_source_file_index>
1218

> <i_lp_mmshare_version>
43012

> <i_f3d_flags>
0

> <s_epik_input>
W0NIM11bQ0hdKFtDSDNdKVtDSDJdTjFbQ0gyXVtDSDJdT1tDQEhdKFtDSDJdMSlbQ0gyXVtOSF1DKD1PKVtDSDJdbjJbY0hdW2NIXVtjSF1uMg==

> <s_epik_cmdline>
J2VwaWtfcHl0aG9uJywgJy1waCcsICc3LjAnLCAnLXRuJywgJzgnLCAnLW1hJywgJzIwMCcsICctbWV0YWxfYmluZGluZycsICctaW1hZScsICc8aW5maWxlLm1hZT4nLCAnLW9tYWUnLCAnPG91dGZpbGUubWFlPic=

> <r_lp_tautomer_probability>
1

> <r_epik_Ionization_Penalty>
0.0995066

> <r_epik_Ionization_Penalty_Charging>
0.0994921

> <r_epik_Ionization_Penalty_Neutral>
1.44634e-05

> <r_epik_State_Penalty>
0.0895432

> <r_epik_Charging_Adjusted_Penalty>
0.189035

> <i_epik_Tot_Q>
1

> <i_epik_Tot_abs_Q>
1

> <r_epik_Metal_State_Penalty>
0.0895432

> <b_epik_Metal_Only>
0

> <s_lp_Force_Field>
OPLS_2005

> <r_lp_Energy>
18.9521

> <b_lp_Chiralities_Consistent>
1

> <s_lp_Variant>
AV-unprocessed.smi:1218-1

> <Gold.Version>
5.8.1

> <Gold.Id.Protein>
6NUR|6NUR_protein|mol2

> <Gold.PLP.Fitness>
39.6803

> <Gold.PLP.PLP>
-29.8975

> <Gold.PLP.part.hbond>
-2.0000

> <Gold.PLP.part.metal>
0.0000

> <Gold.PLP.part.buried>
-2.1257

> <Gold.PLP.part.nonpolar>
-26.9615

> <Gold.PLP.part.repulsive>
0.7008

> <Gold.PLP.ligand.clash>
0.0000

> <Gold.PLP.ligand.torsion>
1.1699

> <Gold.PLP.Chemscore.Hbond>
2.9840

> <Gold.PLP.Chemscore.CHOScore>
1.0000

> <Gold.PLP.Chemscore.Metal>
0.0000

> <Gold.Chemscore.Hbonds>
donor molecule, donor type, donor heavy atom, donor atom, acceptor molecule, acceptor atom, score
      L1  H     5    45       P1  7948  1.98
      P1  H  7989  7998       L1    13  0.99
      L1  C    16    40       P1  8028  1.00

> <Gold.PLP.Chemscore.Internal.Correction>
0.1707

> <Gold.Rescore>
     Score         DG    S(hbond)    S(metal)    S(lipo)     H(rot)  DE(clash)    DE(int)     intcor
     14.39     -15.67       1.93        0.00      75.11       1.96       0.21       1.07       ----

> <Gold.Chemscore.Fitness>
14.3910

> <Gold.Chemscore.DG>
-15.6745

> <Gold.Chemscore.ZeroCoef>
-5.4800

> <Gold.Chemscore.Hbond>
1.9253

> <Gold.Chemscore.Metal>
0.0000

> <Gold.Chemscore.Lipo>
75.1089

> <Gold.Chemscore.Internal_Hbond>
0.0000

> <Gold.Chemscore.DEClash>
0.2094

> <Gold.Chemscore.DEInternal>
1.0741

> <Gold.Chemscore.Rot>
1.9624

> <Gold.Chemscore.Internal.Correction>
   9.000000E+99

> <Gold.Chemscore.Hbonds>
donor molecule, donor type, donor heavy atom, donor atom, acceptor molecule, acceptor atom, score
      L1  H     5    45       P1  7948  0.90
      P1  H  7989  7998       L1    13  0.94

> <Gold.Chemscore.Hbond.Weighted>
-6.4305

> <Gold.Chemscore.Metal.Weighted>
-0.0000

> <Gold.Chemscore.Lipo.Weighted>
-8.7877

> <Gold.Chemscore.Internal_Hbond.Weighted>
0.0000

> <Gold.Chemscore.DEClash.Weighted>
0.2094

> <Gold.Chemscore.DEInternal.Weighted>
1.0741

> <Gold.Chemscore.Rot.Weighted>
5.0237

> <Gold.Chemscore.Internal.Correction.Weighted>
   9.000000E+99

> <Gold.Protein.RotatedTorsions>
[ 6907 6896 6895 6894 ] final  -34.61 input  -60.11 | X-H torsion
[ 7974 7965 7964 7962 ] final -138.53 input  175.53 | X-H torsion
[ 8008 7997 7996 7995 ] final -135.98 input   59.86 | X-H torsion
[ 10167 10162 10161 10158 ] final -173.47 input  -65.29 | X-H torsion
[ 10718 10713 10712 10709 ] final  -43.73 input   66.30 | X-H torsion
[ 10763 10752 10751 10750 ] final  132.07 input  -60.55 | X-H torsion
[ 11005 11000 10999 10996 ] final  -92.21 input  -57.11 | X-H torsion

> <Gold.Protein.ActiveResidues>
 VAL166  LYS551  ARG553  GLY616  TRP617  ASP618  TYR619  PRO620  LYS621  CYS622 
 ASP623  PHE694  ASN695  SER759  ASP760  ASP761  ALA762  ILE779  LEU786  VAL792 
 PHE793  MET794  SER795  GLU796  ALA797  LYS798  CYS799  TRP800  GLU811  SER814 

> <Gold.Protein.RotatedAtoms>
  151.0504  134.9669  159.8208 H   0  0  0  0  0  0  0  0  0  0  0  0  # atno 6907 bound_to 6896
  152.5379  134.2545  159.8921 H   0  0  0  0  0  0  0  0  0  0  0  0  # atno 6908 bound_to 6896
  151.2560  133.4283  159.2647 H   0  0  0  0  0  0  0  0  0  0  0  0  # atno 6909 bound_to 6896
  144.8751  140.6425  143.5242 H   0  0  0  0  0  0  0  0  0  0  0  0  # atno 7974 bound_to 7965
  155.3876  140.0498  157.3042 H   0  0  0  0  0  0  0  0  0  0  0  0  # atno 8008 bound_to 7997
  154.5052  140.2171  155.9227 H   0  0  0  0  0  0  0  0  0  0  0  0  # atno 8009 bound_to 7997
  156.1516  140.3134  155.8663 H   0  0  0  0  0  0  0  0  0  0  0  0  # atno 8010 bound_to 7997
  139.5686  144.1695  152.1351 H   0  0  0  0  0  0  0  0  0  0  0  0  # atno 10167 bound_to 10162
  156.2459  130.4184  149.8706 H   0  0  0  0  0  0  0  0  0  0  0  0  # atno 10718 bound_to 10713
  153.7847  135.3163  155.3370 H   0  0  0  0  0  0  0  0  0  0  0  0  # atno 10763 bound_to 10752
  154.8148  135.4643  154.0617 H   0  0  0  0  0  0  0  0  0  0  0  0  # atno 10764 bound_to 10752
  153.1917  135.6909  153.8430 H   0  0  0  0  0  0  0  0  0  0  0  0  # atno 10765 bound_to 10752
  141.1527  133.7806  156.9987 H   0  0  0  0  0  0  0  0  0  0  0  0  # atno 11005 bound_to 11000
  145.4057  139.1589  143.4153 LP  0  0  0  0  0  0  0  0  0  0  0  0  # atno 17320 bound_to 7965
  146.2957  140.4158  142.8722 LP  0  0  0  0  0  0  0  0  0  0  0  0  # atno 17321 bound_to 7965
  140.1223  144.5362  150.6855 LP  0  0  0  0  0  0  0  0  0  0  0  0  # atno 17342 bound_to 10162
  140.6971  143.2410  151.4971 LP  0  0  0  0  0  0  0  0  0  0  0  0  # atno 17343 bound_to 10162
  156.6271  130.8650  151.3487 LP  0  0  0  0  0  0  0  0  0  0  0  0  # atno 17370 bound_to 10713
  157.7195  130.9539  150.1382 LP  0  0  0  0  0  0  0  0  0  0  0  0  # atno 17371 bound_to 10713
  140.0954  134.9567  157.1841 LP  0  0  0  0  0  0  0  0  0  0  0  0  # atno 17394 bound_to 11000
  140.3389  134.2726  155.7215 LP  0  0  0  0  0  0  0  0  0  0  0  0  # atno 17395 bound_to 11000

$$$$
