AV-unprocessed.smi:104|AV-procd|sdf|996|dock3
  -GOLD-   2262017573D 1   1.00000     0.00000
 Structure written by MMmdl.
 47 49  0  0  0  0  0  0  0  0  1 V2000
  155.8223  136.0809  158.2430 C   0  0  0  0  0  0  0  0  0  0  0  0
  154.8990  137.2562  157.9476 C   0  0  0  0  0  0  0  0  0  0  0  0
  155.3050  138.4174  157.9923 O   0  0  0  0  0  0  0  0  0  0  0  0
  153.6499  136.8672  157.6515 O   0  0  0  0  0  0  0  0  0  0  0  0
  152.7040  137.8149  157.1776 C   0  0  0  0  0  0  0  0  0  0  0  0
  151.3093  137.1837  157.0232 C   0  0  1  0  0  0  0  0  0  0  0  0
  150.7763  136.7303  158.2657 O   0  0  0  0  0  0  0  0  0  0  0  0
  149.3830  136.8319  158.2356 C   0  0  2  0  0  0  0  0  0  0  0  0
  148.7758  135.5090  158.5716 N   0  0  0  0  0  0  0  0  0  0  0  0
  148.8597  134.3230  157.8789 C   0  0  0  0  0  0  0  0  0  0  0  0
  149.8529  134.1579  156.2621 Br  0  0  0  0  0  0  0  0  0  0  0  0
  148.2418  133.2924  158.3844 N   0  0  0  0  0  0  0  0  0  0  0  0
  147.6852  133.8101  159.5473 C   0  0  0  0  0  0  0  0  0  0  0  0
  146.8915  133.2632  160.5872 C   0  0  0  0  0  0  0  0  0  0  0  0
  146.4932  131.9839  160.6091 N   0  0  0  0  0  0  0  0  0  0  0  0
  146.5189  134.0693  161.6086 N   0  0  0  0  0  0  0  0  0  0  0  0
  146.9040  135.3494  161.6128 C   0  0  0  0  0  0  0  0  0  0  0  0
  147.6430  136.0028  160.7122 N   0  0  0  0  0  0  0  0  0  0  0  0
  148.0163  135.1909  159.6800 C   0  0  0  0  0  0  0  0  0  0  0  0
  148.9777  137.2571  156.8243 C   0  0  1  0  0  0  0  0  0  0  0  0
  147.7808  138.0239  156.8476 O   0  0  0  0  0  0  0  0  0  0  0  0
  146.6203  137.4505  157.2029 C   0  0  0  0  0  0  0  0  0  0  0  0
  145.4425  138.4091  157.0918 C   0  0  0  0  0  0  0  0  0  0  0  0
  146.4701  136.2860  157.5721 O   0  0  0  0  0  0  0  0  0  0  0  0
  150.2068  138.0359  156.3791 C   0  0  1  0  0  0  0  0  0  0  0  0
  150.2056  139.3564  156.9181 O   0  0  0  0  0  0  0  0  0  0  0  0
  150.6355  140.4007  156.1887 C   0  0  0  0  0  0  0  0  0  0  0  0
  150.3945  141.7337  156.8847 C   0  0  0  0  0  0  0  0  0  0  0  0
  151.1681  140.3437  155.0805 O   0  0  0  0  0  0  0  0  0  0  0  0
  155.2485  135.2006  158.5343 H   0  0  0  0  0  0  0  0  0  0  0  0
  156.5036  136.3310  159.0566 H   0  0  0  0  0  0  0  0  0  0  0  0
  156.4129  135.8346  157.3606 H   0  0  0  0  0  0  0  0  0  0  0  0
  152.6377  138.6627  157.8614 H   0  0  0  0  0  0  0  0  0  0  0  0
  153.0463  138.2014  156.2171 H   0  0  0  0  0  0  0  0  0  0  0  0
  151.4271  136.2966  156.3998 H   0  0  0  0  0  0  0  0  0  0  0  0
  149.0587  137.5228  159.0137 H   0  0  0  0  0  0  0  0  0  0  0  0
  146.7587  131.3605  159.8601 H   0  0  0  0  0  0  0  0  0  0  0  0
  145.9252  131.6462  161.3726 H   0  0  0  0  0  0  0  0  0  0  0  0
  146.5716  135.9338  162.4582 H   0  0  0  0  0  0  0  0  0  0  0  0
  148.8710  136.3582  156.2140 H   0  0  0  0  0  0  0  0  0  0  0  0
  145.7181  139.3978  157.4597 H   0  0  0  0  0  0  0  0  0  0  0  0
  144.5975  138.0463  157.6774 H   0  0  0  0  0  0  0  0  0  0  0  0
  145.1295  138.5004  156.0516 H   0  0  0  0  0  0  0  0  0  0  0  0
  150.3091  138.0451  155.2932 H   0  0  0  0  0  0  0  0  0  0  0  0
  149.7558  141.6066  157.7594 H   0  0  0  0  0  0  0  0  0  0  0  0
  149.9109  142.4335  156.2030 H   0  0  0  0  0  0  0  0  0  0  0  0
  151.3417  142.1645  157.2091 H   0  0  0  0  0  0  0  0  0  0  0  0
  1  2  1  0  0  0  0
  1 30  1  0  0  0  0
  1 31  1  0  0  0  0
  1 32  1  0  0  0  0
  2  3  2  0  0  0  0
  2  4  1  0  0  0  0
  4  5  1  0  0  0  0
  5  6  1  0  0  0  0
  5 33  1  0  0  0  0
  5 34  1  0  0  0  0
  6 25  1  0  0  0  0
  6  7  1  0  0  0  0
  6 35  1  0  0  0  0
  7  8  1  0  0  0  0
  8  9  1  0  0  0  0
  8 20  1  0  0  0  0
  8 36  1  0  0  0  0
  9 19  1  0  0  0  0
  9 10  1  0  0  0  0
 10 11  1  0  0  0  0
 10 12  2  0  0  0  0
 12 13  1  0  0  0  0
 13 19  2  0  0  0  0
 13 14  1  0  0  0  0
 14 15  1  0  0  0  0
 14 16  2  0  0  0  0
 15 37  1  0  0  0  0
 15 38  1  0  0  0  0
 16 17  1  0  0  0  0
 17 18  2  0  0  0  0
 17 39  1  0  0  0  0
 18 19  1  0  0  0  0
 20 21  1  0  0  0  0
 20 25  1  0  0  0  0
 20 40  1  0  0  0  0
 21 22  1  0  0  0  0
 22 23  1  0  0  0  0
 22 24  2  0  0  0  0
 23 41  1  0  0  0  0
 23 42  1  0  0  0  0
 23 43  1  0  0  0  0
 25 26  1  0  0  0  0
 25 44  1  0  0  0  0
 26 27  1  0  0  0  0
 27 28  1  0  0  0  0
 27 29  2  0  0  0  0
 28 45  1  0  0  0  0
 28 46  1  0  0  0  0
 28 47  1  0  0  0  0
M  END
> <s_m_source_file>
AV-unprocessed.smi

> <i_m_source_file_index>
104

> <i_lp_mmshare_version>
43012

> <i_f3d_flags>
0

> <s_epik_input>
W0NIM11DKD1PKU9bQ0gyXVtDQEBIXTFPW0NASF0oW0NAQEhdKE9DKD1PKVtDSDNdKVtDQEhdMU9DKD1PKVtDSDNdKW4oYyhCciluMiljKGMyMyluW2NIXW5jM1tOSDJd

> <s_epik_cmdline>
J2VwaWtfcHl0aG9uJywgJy1waCcsICc3LjAnLCAnLXRuJywgJzgnLCAnLW1hJywgJzIwMCcsICctbWV0YWxfYmluZGluZycsICctaW1hZScsICc8aW5maWxlLm1hZT4nLCAnLW9tYWUnLCAnPG91dGZpbGUubWFlPic=

> <r_lp_tautomer_probability>
1

> <r_epik_Ionization_Penalty>
7.36622e-05

> <r_epik_Ionization_Penalty_Charging>
0

> <r_epik_Ionization_Penalty_Neutral>
7.36622e-05

> <r_epik_State_Penalty>
-0

> <r_epik_Charging_Adjusted_Penalty>
0

> <i_epik_Tot_Q>
0

> <i_epik_Tot_abs_Q>
0

> <r_epik_Metal_State_Penalty>
-0

> <b_epik_Metal_Only>
0

> <s_epik_Chemistry_Notes>
This compound has an ester and may undergo hydrolysis at high or low pH. This compound contains an acetal/aminal-like group ( X-CH(R)-Y where X, Y are N, S, or O) that may be acid/base labile, releasing an aldehyde.

> <s_lp_Force_Field>
OPLS_2005

> <r_lp_Energy>
19.7206

> <b_lp_Chiralities_Consistent>
1

> <s_lp_Variant>
AV-unprocessed.smi:104-4

> <Gold.Version>
5.8.1

> <Gold.Id.Protein>
6NUR|6NUR_protein|mol2

> <Gold.PLP.Fitness>
40.7945

> <Gold.PLP.PLP>
-30.5718

> <Gold.PLP.part.hbond>
-4.2629

> <Gold.PLP.part.metal>
0.0000

> <Gold.PLP.part.buried>
-6.1310

> <Gold.PLP.part.nonpolar>
-20.2467

> <Gold.PLP.part.repulsive>
0.1134

> <Gold.PLP.ligand.clash>
0.0000

> <Gold.PLP.ligand.torsion>
0.8247

> <Gold.PLP.Chemscore.Hbond>
3.7588

> <Gold.PLP.Chemscore.CHOScore>
0.0000

> <Gold.PLP.Chemscore.Metal>
0.0000

> <Gold.Chemscore.Hbonds>
donor molecule, donor type, donor heavy atom, donor atom, acceptor molecule, acceptor atom, score
      P1  H  6896  6908       L1     7  0.26
      P1  H  7989  7998       L1    29  1.00
      P1  H  7997  8008       L1     3  0.82

> <Gold.PLP.Chemscore.Internal.Correction>
0.5956

> <Gold.Rescore>
     Score         DG    S(hbond)    S(metal)    S(lipo)     H(rot)  DE(clash)    DE(int)     intcor
      8.18      -9.68       3.56        0.00      28.55       4.31       0.04       1.46       ----

> <Gold.Chemscore.Fitness>
8.1799

> <Gold.Chemscore.DG>
-9.6772

> <Gold.Chemscore.ZeroCoef>
-5.4800

> <Gold.Chemscore.Hbond>
3.5578

> <Gold.Chemscore.Metal>
0.0000

> <Gold.Chemscore.Lipo>
28.5482

> <Gold.Chemscore.Internal_Hbond>
0.0000

> <Gold.Chemscore.DEClash>
0.0411

> <Gold.Chemscore.DEInternal>
1.4563

> <Gold.Chemscore.Rot>
4.3070

> <Gold.Chemscore.Internal.Correction>
   9.000000E+99

> <Gold.Chemscore.Hbonds>
donor molecule, donor type, donor heavy atom, donor atom, acceptor molecule, acceptor atom, score
      P1  H  6896  6908       L1     7  0.11
      P1  H  7989  7998       L1    29  0.97
      P1  H  7997  8008       L1     3  0.81

> <Gold.Chemscore.Hbond.Weighted>
-11.8830

> <Gold.Chemscore.Metal.Weighted>
-0.0000

> <Gold.Chemscore.Lipo.Weighted>
-3.3401

> <Gold.Chemscore.Internal_Hbond.Weighted>
0.0000

> <Gold.Chemscore.DEClash.Weighted>
0.0411

> <Gold.Chemscore.DEInternal.Weighted>
1.4563

> <Gold.Chemscore.Rot.Weighted>
11.0259

> <Gold.Chemscore.Internal.Correction.Weighted>
   9.000000E+99

> <Gold.Protein.RotatedTorsions>
[ 6907 6896 6895 6894 ] final -144.64 input  -60.11 | X-H torsion
[ 7974 7965 7964 7962 ] final   44.38 input  175.53 | X-H torsion
[ 8008 7997 7996 7995 ] final -125.81 input   59.86 | X-H torsion
[ 10167 10162 10161 10158 ] final -165.22 input  -65.29 | X-H torsion
[ 10718 10713 10712 10709 ] final  146.22 input   66.30 | X-H torsion
[ 10763 10752 10751 10750 ] final   30.20 input  -60.55 | X-H torsion
[ 11005 11000 10999 10996 ] final -135.35 input  -57.11 | X-H torsion

> <Gold.Protein.ActiveResidues>
 VAL166  LYS551  ARG553  GLY616  TRP617  ASP618  TYR619  PRO620  LYS621  CYS622 
 ASP623  PHE694  ASN695  SER759  ASP760  ASP761  ALA762  ILE779  LEU786  VAL792 
 PHE793  MET794  SER795  GLU796  ALA797  LYS798  CYS799  TRP800  GLU811  SER814 

> <Gold.Protein.RotatedAtoms>
  151.1169  133.5132  159.2603 H   0  0  0  0  0  0  0  0  0  0  0  0  # atno 6907 bound_to 6896
  151.1905  135.0400  159.8840 H   0  0  0  0  0  0  0  0  0  0  0  0  # atno 6908 bound_to 6896
  152.5453  134.1009  159.8371 H   0  0  0  0  0  0  0  0  0  0  0  0  # atno 6909 bound_to 6896
  146.0573  139.5081  142.9680 H   0  0  0  0  0  0  0  0  0  0  0  0  # atno 7974 bound_to 7965
  155.2194  140.0421  157.2946 H   0  0  0  0  0  0  0  0  0  0  0  0  # atno 8008 bound_to 7997
  154.5959  140.2439  155.7828 H   0  0  0  0  0  0  0  0  0  0  0  0  # atno 8009 bound_to 7997
  156.2290  140.2945  156.0148 H   0  0  0  0  0  0  0  0  0  0  0  0  # atno 8010 bound_to 7997
  139.6197  144.0649  152.1921 H   0  0  0  0  0  0  0  0  0  0  0  0  # atno 10167 bound_to 10162
  157.3358  131.0928  151.1124 H   0  0  0  0  0  0  0  0  0  0  0  0  # atno 10718 bound_to 10713
  153.0385  135.6470  154.1008 H   0  0  0  0  0  0  0  0  0  0  0  0  # atno 10763 bound_to 10752
  154.0719  135.2880  155.3308 H   0  0  0  0  0  0  0  0  0  0  0  0  # atno 10764 bound_to 10752
  154.6589  135.5399  153.8057 H   0  0  0  0  0  0  0  0  0  0  0  0  # atno 10765 bound_to 10752
  140.8906  134.1817  157.4530 H   0  0  0  0  0  0  0  0  0  0  0  0  # atno 11005 bound_to 11000
  145.6621  141.0238  143.1703 LP  0  0  0  0  0  0  0  0  0  0  0  0  # atno 17320 bound_to 7965
  144.7155  139.8213  143.7400 LP  0  0  0  0  0  0  0  0  0  0  0  0  # atno 17321 bound_to 7965
  140.0288  144.6097  150.7505 LP  0  0  0  0  0  0  0  0  0  0  0  0  # atno 17342 bound_to 10162
  140.7374  143.2765  151.3726 LP  0  0  0  0  0  0  0  0  0  0  0  0  # atno 17343 bound_to 10162
  157.2355  130.6545  149.5867 LP  0  0  0  0  0  0  0  0  0  0  0  0  # atno 17370 bound_to 10713
  155.9701  130.4585  150.6001 LP  0  0  0  0  0  0  0  0  0  0  0  0  # atno 17371 bound_to 10713
  139.8729  134.9857  156.5291 LP  0  0  0  0  0  0  0  0  0  0  0  0  # atno 17394 bound_to 11000
  140.8352  133.8248  155.9021 LP  0  0  0  0  0  0  0  0  0  0  0  0  # atno 17395 bound_to 11000

$$$$
