AV-unprocessed.smi:2784|AV-procd|sdf|10731|dock3
  -GOLD-   2272015173D 1   1.00000     0.00000
 Structure written by MMmdl.
 32 33  0  0  0  0  0  0  0  0  2 V2000
  148.3167  138.6542  157.1451 C   0  0  0  0  0  0  0  0  0  0  0  0
  148.5761  139.8645  156.4521 O   0  0  0  0  0  0  0  0  0  0  0  0
  148.9760  139.6804  155.0962 C   0  0  1  0  0  0  0  0  0  0  0  0
  147.8165  139.0633  154.3054 C   0  0  0  0  0  0  0  0  0  0  0  0
  146.9264  140.2528  153.9579 C   0  0  0  0  0  0  0  0  0  0  0  0
  147.9024  141.3973  153.6761 C   0  0  0  0  0  0  0  0  0  0  0  0
  149.2067  141.0538  154.4225 C   0  0  1  0  0  0  0  0  0  0  0  0
  149.5617  142.1050  155.3741 N   0  0  0  0  0  0  0  0  0  0  0  0
  150.4409  141.9634  156.3764 C   0  0  0  0  0  0  0  0  0  0  0  0
  151.0683  140.9262  156.5934 O   0  0  0  0  0  0  0  0  0  0  0  0
  150.5400  143.0833  157.1081 N   0  0  0  0  0  0  0  0  0  0  0  0
  151.3900  143.2679  158.2225 C   0  0  0  0  0  0  0  0  0  0  0  0
  151.4808  144.4050  158.9108 N   0  3  0  0  0  0  0  0  0  0  0  0
  152.3974  144.2374  159.9191 C   0  0  0  0  0  0  0  0  0  0  0  0
  152.8518  142.9458  159.8001 C   0  0  0  0  0  0  0  0  0  0  0  0
  152.2270  142.3231  158.7381 O   0  0  0  0  0  0  0  0  0  0  0  0
  148.0198  138.8791  158.1693 H   0  0  0  0  0  0  0  0  0  0  0  0
  149.2080  138.0271  157.1864 H   0  0  0  0  0  0  0  0  0  0  0  0
  147.5111  138.0852  156.6817 H   0  0  0  0  0  0  0  0  0  0  0  0
  149.8811  139.0724  155.0424 H   0  0  0  0  0  0  0  0  0  0  0  0
  148.2002  138.6186  153.3861 H   0  0  0  0  0  0  0  0  0  0  0  0
  147.2800  138.2830  154.8451 H   0  0  0  0  0  0  0  0  0  0  0  0
  146.2648  140.0499  153.1153 H   0  0  0  0  0  0  0  0  0  0  0  0
  146.3025  140.5043  154.8165 H   0  0  0  0  0  0  0  0  0  0  0  0
  148.1015  141.4555  152.6052 H   0  0  0  0  0  0  0  0  0  0  0  0
  147.4778  142.3572  153.9733 H   0  0  0  0  0  0  0  0  0  0  0  0
  150.0012  140.9580  153.6796 H   0  0  0  0  0  0  0  0  0  0  0  0
  149.0838  142.9882  155.2714 H   0  0  0  0  0  0  0  0  0  0  0  0
  150.9776  145.2687  158.7508 H   0  0  0  0  0  0  0  0  0  0  0  0
  152.6316  145.0379  160.6064 H   0  0  0  0  0  0  0  0  0  0  0  0
  153.5684  142.3528  160.3497 H   0  0  0  0  0  0  0  0  0  0  0  0
  149.9646  143.8687  156.8427 H   0  0  0  0  0  0  0  0  0  0  0  0
  1  2  1  0  0  0  0
  1 17  1  0  0  0  0
  1 18  1  0  0  0  0
  1 19  1  0  0  0  0
  2  3  1  0  0  0  0
  3  7  1  0  0  0  0
  3  4  1  0  0  0  0
  3 20  1  0  0  0  0
  4  5  1  0  0  0  0
  4 21  1  0  0  0  0
  4 22  1  0  0  0  0
  5  6  1  0  0  0  0
  5 23  1  0  0  0  0
  5 24  1  0  0  0  0
  6  7  1  0  0  0  0
  6 25  1  0  0  0  0
  6 26  1  0  0  0  0
  7  8  1  0  0  0  0
  7 27  1  0  0  0  0
  8 28  1  0  0  0  0
  8  9  1  0  0  0  0
  9 11  1  0  0  0  0
  9 10  2  0  0  0  0
 11 12  1  0  0  0  0
 11 32  1  0  0  0  0
 12 16  1  0  0  0  0
 12 13  2  0  0  0  0
 13 29  1  0  0  0  0
 13 14  1  0  0  0  0
 14 30  1  0  0  0  0
 14 15  2  0  0  0  0
 15 31  1  0  0  0  0
 15 16  1  0  0  0  0
M  CHG  1  13   1
M  END
> <s_m_source_file>
AV-unprocessed.smi

> <i_m_source_file_index>
2784

> <i_lp_mmshare_version>
43012

> <i_f3d_flags>
0

> <s_epik_input>
W0NIM11PW0NAQEhdMVtDSDJdW0NIMl1bQ0gyXVtDQEhdMVtOSF1DKD1PKVtOSF1jMm5bY0hdW2NIXW8y

> <s_epik_cmdline>
J2VwaWtfcHl0aG9uJywgJy1waCcsICc3LjAnLCAnLXRuJywgJzgnLCAnLW1hJywgJzIwMCcsICctbWV0YWxfYmluZGluZycsICctaW1hZScsICc8aW5maWxlLm1hZT4nLCAnLW9tYWUnLCAnPG91dGZpbGUubWFlPic=

> <r_epik_Ionization_Penalty>
6.73843

> <r_epik_Ionization_Penalty_Charging>
6.66704

> <r_epik_Ionization_Penalty_Neutral>
0.0713889

> <r_epik_State_Penalty>
1.94951

> <r_epik_Charging_Adjusted_Penalty>
8.61656

> <i_epik_Tot_Q>
1

> <i_epik_Tot_abs_Q>
1

> <r_epik_Metal_State_Penalty>
1.97013

> <b_epik_Metal_Only>
0

> <s_lp_Force_Field>
OPLS_2005

> <r_lp_Energy>
28.3285

> <b_lp_Chiralities_Consistent>
1

> <s_lp_Variant>
AV-unprocessed.smi:2784-6

> <Gold.Version>
5.8.1

> <Gold.Id.Protein>
6NUR|6NUR_protein|mol2

> <Gold.PLP.Fitness>
33.1530

> <Gold.PLP.PLP>
-27.5825

> <Gold.PLP.part.hbond>
-2.0000

> <Gold.PLP.part.metal>
0.0000

> <Gold.PLP.part.buried>
-5.6267

> <Gold.PLP.part.nonpolar>
-20.6995

> <Gold.PLP.part.repulsive>
0.3065

> <Gold.PLP.ligand.clash>
0.0000

> <Gold.PLP.ligand.torsion>
0.2208

> <Gold.PLP.Chemscore.Hbond>
2.0000

> <Gold.PLP.Chemscore.CHOScore>
0.0000

> <Gold.PLP.Chemscore.Metal>
0.0000

> <Gold.Chemscore.Hbonds>
donor molecule, donor type, donor heavy atom, donor atom, acceptor molecule, acceptor atom, score
      L1  H     8    28       P1  8028  1.00
      L1  H    11    32       P1  8028  1.00

> <Gold.PLP.Chemscore.Internal.Correction>
0.0120

> <Gold.Rescore>
     Score         DG    S(hbond)    S(metal)    S(lipo)     H(rot)  DE(clash)    DE(int)     intcor
     11.67     -14.89       1.82        0.00      57.85       1.34       0.21       3.01       ----

> <Gold.Chemscore.Fitness>
11.6711

> <Gold.Chemscore.DG>
-14.8927

> <Gold.Chemscore.ZeroCoef>
-5.4800

> <Gold.Chemscore.Hbond>
1.8150

> <Gold.Chemscore.Metal>
0.0000

> <Gold.Chemscore.Lipo>
57.8487

> <Gold.Chemscore.Internal_Hbond>
0.0000

> <Gold.Chemscore.DEClash>
0.2085

> <Gold.Chemscore.DEInternal>
3.0131

> <Gold.Chemscore.Rot>
1.3351

> <Gold.Chemscore.Internal.Correction>
   9.000000E+99

> <Gold.Chemscore.Hbonds>
donor molecule, donor type, donor heavy atom, donor atom, acceptor molecule, acceptor atom, score
      L1  H     8    28       P1  8028  0.96
      L1  H    11    32       P1  8028  0.95

> <Gold.Chemscore.Hbond.Weighted>
-6.0621

> <Gold.Chemscore.Metal.Weighted>
-0.0000

> <Gold.Chemscore.Lipo.Weighted>
-6.7683

> <Gold.Chemscore.Internal_Hbond.Weighted>
0.0000

> <Gold.Chemscore.DEClash.Weighted>
0.2085

> <Gold.Chemscore.DEInternal.Weighted>
3.0131

> <Gold.Chemscore.Rot.Weighted>
3.4177

> <Gold.Chemscore.Internal.Correction.Weighted>
   9.000000E+99

> <Gold.Protein.RotatedTorsions>
[ 6907 6896 6895 6894 ] final  -37.91 input  -60.11 | X-H torsion
[ 7974 7965 7964 7962 ] final   92.49 input  175.53 | X-H torsion
[ 8008 7997 7996 7995 ] final   66.43 input   59.86 | X-H torsion
[ 10167 10162 10161 10158 ] final -133.90 input  -65.29 | X-H torsion
[ 10718 10713 10712 10709 ] final  -82.87 input   66.30 | X-H torsion
[ 10763 10752 10751 10750 ] final -104.16 input  -60.55 | X-H torsion
[ 11005 11000 10999 10996 ] final  119.36 input  -57.11 | X-H torsion

> <Gold.Protein.ActiveResidues>
 VAL166  LYS551  ARG553  GLY616  TRP617  ASP618  TYR619  PRO620  LYS621  CYS622 
 ASP623  PHE694  ASN695  SER759  ASP760  ASP761  ALA762  ILE779  LEU786  VAL792 
 PHE793  MET794  SER795  GLU796  ALA797  LYS798  CYS799  TRP800  GLU811  SER814 

> <Gold.Protein.RotatedAtoms>
  151.0089  134.9381  159.7995 H   0  0  0  0  0  0  0  0  0  0  0  0  # atno 6907 bound_to 6896
  152.5297  134.3054  159.9104 H   0  0  0  0  0  0  0  0  0  0  0  0  # atno 6908 bound_to 6896
  151.3060  133.4059  159.2677 H   0  0  0  0  0  0  0  0  0  0  0  0  # atno 6909 bound_to 6896
  145.4916  139.2276  143.2826 H   0  0  0  0  0  0  0  0  0  0  0  0  # atno 7974 bound_to 7965
  155.6772  140.3497  155.4841 H   0  0  0  0  0  0  0  0  0  0  0  0  # atno 8008 bound_to 7997
  155.9638  140.1142  157.0895 H   0  0  0  0  0  0  0  0  0  0  0  0  # atno 8009 bound_to 7997
  154.4149  140.1170  156.5200 H   0  0  0  0  0  0  0  0  0  0  0  0  # atno 8010 bound_to 7997
  139.8935  143.6694  152.2608 H   0  0  0  0  0  0  0  0  0  0  0  0  # atno 10167 bound_to 10162
  156.0026  130.4648  150.4171 H   0  0  0  0  0  0  0  0  0  0  0  0  # atno 10718 bound_to 10713
  154.7859  135.4796  153.9944 H   0  0  0  0  0  0  0  0  0  0  0  0  # atno 10763 bound_to 10752
  153.1559  135.6800  153.8820 H   0  0  0  0  0  0  0  0  0  0  0  0  # atno 10764 bound_to 10752
  153.8450  135.3174  155.3407 H   0  0  0  0  0  0  0  0  0  0  0  0  # atno 10765 bound_to 10752
  139.9143  134.9628  156.7643 H   0  0  0  0  0  0  0  0  0  0  0  0  # atno 11005 bound_to 11000
  146.2280  140.5711  142.8988 LP  0  0  0  0  0  0  0  0  0  0  0  0  # atno 17320 bound_to 7965
  144.7830  140.5880  143.6592 LP  0  0  0  0  0  0  0  0  0  0  0  0  # atno 17321 bound_to 7965
  139.7088  144.7623  151.1147 LP  0  0  0  0  0  0  0  0  0  0  0  0  # atno 17342 bound_to 10162
  140.7722  143.5358  150.9370 LP  0  0  0  0  0  0  0  0  0  0  0  0  # atno 17343 bound_to 10162
  157.2229  131.0486  151.2536 LP  0  0  0  0  0  0  0  0  0  0  0  0  # atno 17370 bound_to 10713
  157.3783  130.7218  149.6612 LP  0  0  0  0  0  0  0  0  0  0  0  0  # atno 17371 bound_to 10713
  140.6672  133.9592  155.7837 LP  0  0  0  0  0  0  0  0  0  0  0  0  # atno 17394 bound_to 11000
  141.0602  134.0357  157.3668 LP  0  0  0  0  0  0  0  0  0  0  0  0  # atno 17395 bound_to 11000

$$$$
