AV-unprocessed.smi:3252|AV-procd|sdf|12443|dock6
  -GOLD-   2272018333D 1   1.00000     0.00000
 Structure written by MMmdl.
 36 37  0  0  0  0  0  0  0  0  1 V2000
  153.3772  142.8522  162.0510 C   0  0  0  0  0  0  0  0  0  0  0  0
  153.2879  142.2694  160.6332 C   0  0  0  0  0  0  0  0  0  0  0  0
  152.2630  142.8715  159.7822 N   0  0  0  0  0  0  0  0  0  0  0  0
  152.6698  144.1677  159.2457 C   0  0  0  0  0  0  0  0  0  0  0  0
  151.5956  144.7679  158.3232 C   0  0  0  0  0  0  0  0  0  0  0  0
  151.2935  143.8454  157.2826 O   0  0  0  0  0  0  0  0  0  0  0  0
  150.8267  142.5881  157.7665 C   0  0  1  0  0  0  0  0  0  0  0  0
  150.5172  141.6701  156.5716 C   0  0  0  0  0  0  0  0  0  0  0  0
  149.3511  142.1136  155.8159 N   0  0  0  0  0  0  0  0  0  0  0  0
  148.5412  141.2054  155.1184 C   0  0  0  0  0  0  0  0  0  0  0  0
  148.9992  139.8803  154.9604 C   0  0  0  0  0  0  0  0  0  0  0  0
  148.1943  138.9608  154.2595 C   0  0  0  0  0  0  0  0  0  0  0  0
  146.9604  139.3984  153.7393 C   0  0  0  0  0  0  0  0  0  0  0  0
  146.0939  138.4885  153.0102 C   0  0  0  0  0  0  0  0  0  0  0  0
  145.4035  137.7642  152.4292 N   0  0  0  0  0  0  0  0  0  0  0  0
  146.5888  140.7426  153.9437 C   0  0  0  0  0  0  0  0  0  0  0  0
  147.3578  141.6283  154.6127 N   0  0  0  0  0  0  0  0  0  0  0  0
  151.9194  141.9875  158.6731 C   0  0  0  0  0  0  0  0  0  0  0  0
  154.0821  142.2810  162.6552 H   0  0  0  0  0  0  0  0  0  0  0  0
  152.4093  142.8184  162.5518 H   0  0  0  0  0  0  0  0  0  0  0  0
  153.7203  143.8864  162.0461 H   0  0  0  0  0  0  0  0  0  0  0  0
  154.2626  142.3400  160.1485 H   0  0  0  0  0  0  0  0  0  0  0  0
  153.0797  141.2033  160.7322 H   0  0  0  0  0  0  0  0  0  0  0  0
  152.8651  144.8692  160.0561 H   0  0  0  0  0  0  0  0  0  0  0  0
  153.6031  144.0620  158.6900 H   0  0  0  0  0  0  0  0  0  0  0  0
  150.6902  145.0037  158.8848 H   0  0  0  0  0  0  0  0  0  0  0  0
  151.9510  145.6989  157.8819 H   0  0  0  0  0  0  0  0  0  0  0  0
  149.9175  142.7381  158.3521 H   0  0  0  0  0  0  0  0  0  0  0  0
  151.3914  141.5563  155.9300 H   0  0  0  0  0  0  0  0  0  0  0  0
  150.2865  140.6711  156.9419 H   0  0  0  0  0  0  0  0  0  0  0  0
  149.2844  143.0945  155.5860 H   0  0  0  0  0  0  0  0  0  0  0  0
  149.9496  139.5691  155.3692 H   0  0  0  0  0  0  0  0  0  0  0  0
  148.5239  137.9404  154.1268 H   0  0  0  0  0  0  0  0  0  0  0  0
  145.6523  141.1231  153.5617 H   0  0  0  0  0  0  0  0  0  0  0  0
  152.8102  141.7789  158.0783 H   0  0  0  0  0  0  0  0  0  0  0  0
  151.5747  141.0289  159.0628 H   0  0  0  0  0  0  0  0  0  0  0  0
  1  2  1  0  0  0  0
  1 19  1  0  0  0  0
  1 20  1  0  0  0  0
  1 21  1  0  0  0  0
  2  3  1  0  0  0  0
  2 22  1  0  0  0  0
  2 23  1  0  0  0  0
  3 18  1  0  0  0  0
  3  4  1  0  0  0  0
  4  5  1  0  0  0  0
  4 24  1  0  0  0  0
  4 25  1  0  0  0  0
  5  6  1  0  0  0  0
  5 26  1  0  0  0  0
  5 27  1  0  0  0  0
  6  7  1  0  0  0  0
  7  8  1  0  0  0  0
  7 18  1  0  0  0  0
  7 28  1  0  0  0  0
  8  9  1  0  0  0  0
  8 29  1  0  0  0  0
  8 30  1  0  0  0  0
  9 10  1  0  0  0  0
  9 31  1  0  0  0  0
 10 17  1  0  0  0  0
 10 11  2  0  0  0  0
 11 12  1  0  0  0  0
 11 32  1  0  0  0  0
 12 13  2  0  0  0  0
 12 33  1  0  0  0  0
 13 14  1  0  0  0  0
 13 16  1  0  0  0  0
 14 15  3  0  0  0  0
 16 17  2  0  0  0  0
 16 34  1  0  0  0  0
 18 35  1  0  0  0  0
 18 36  1  0  0  0  0
M  END
> <s_m_source_file>
AV-unprocessed.smi

> <i_m_source_file_index>
3252

> <i_lp_mmshare_version>
43012

> <i_f3d_flags>
0

> <s_epik_input>
W0NIM11bQ0gyXU4xW0NIMl1bQ0gyXU9bQ0BIXShbQ0gyXTEpW0NIMl1bTkhdYzJbY0hdW2NIXWMoQyNOKVtjSF1uMg==

> <s_epik_cmdline>
J2VwaWtfcHl0aG9uJywgJy1waCcsICc3LjAnLCAnLXRuJywgJzgnLCAnLW1hJywgJzIwMCcsICctbWV0YWxfYmluZGluZycsICctaW1hZScsICc8aW5maWxlLm1hZT4nLCAnLW9tYWUnLCAnPG91dGZpbGUubWFlPic=

> <r_epik_Ionization_Penalty>
0.797836

> <r_epik_Ionization_Penalty_Charging>
0

> <r_epik_Ionization_Penalty_Neutral>
0.797836

> <r_epik_State_Penalty>
0.828842

> <r_epik_Charging_Adjusted_Penalty>
0.828842

> <i_epik_Tot_Q>
0

> <i_epik_Tot_abs_Q>
0

> <r_epik_Metal_State_Penalty>
0.828842

> <b_epik_Metal_Only>
0

> <s_lp_Force_Field>
OPLS_2005

> <r_lp_Energy>
23.221

> <b_lp_Chiralities_Consistent>
1

> <s_lp_Variant>
AV-unprocessed.smi:3252-5

> <Gold.Version>
5.8.1

> <Gold.Id.Protein>
6NUR|6NUR_protein|mol2

> <Gold.PLP.Fitness>
45.1076

> <Gold.PLP.PLP>
-40.1478

> <Gold.PLP.part.hbond>
-1.0000

> <Gold.PLP.part.metal>
0.0000

> <Gold.PLP.part.buried>
-4.8781

> <Gold.PLP.part.nonpolar>
-37.2214

> <Gold.PLP.part.repulsive>
1.8216

> <Gold.PLP.ligand.clash>
0.0000

> <Gold.PLP.ligand.torsion>
0.4275

> <Gold.PLP.Chemscore.Hbond>
1.0000

> <Gold.PLP.Chemscore.CHOScore>
0.9346

> <Gold.PLP.Chemscore.Metal>
0.0000

> <Gold.Chemscore.Hbonds>
donor molecule, donor type, donor heavy atom, donor atom, acceptor molecule, acceptor atom, score
      L1  H     9    31       P1  8028  1.00
      L1  C    16    34       P1 10175  1.00

> <Gold.PLP.Chemscore.Internal.Correction>
0.0109

> <Gold.Rescore>
     Score         DG    S(hbond)    S(metal)    S(lipo)     H(rot)  DE(clash)    DE(int)     intcor
     15.39     -15.75       0.98        0.00      91.17       1.43       0.00       0.36       ----

> <Gold.Chemscore.Fitness>
15.3936

> <Gold.Chemscore.DG>
-15.7531

> <Gold.Chemscore.ZeroCoef>
-5.4800

> <Gold.Chemscore.Hbond>
0.9806

> <Gold.Chemscore.Metal>
0.0000

> <Gold.Chemscore.Lipo>
91.1679

> <Gold.Chemscore.Internal_Hbond>
0.0000

> <Gold.Chemscore.DEClash>
0.0000

> <Gold.Chemscore.DEInternal>
0.3595

> <Gold.Chemscore.Rot>
1.4331

> <Gold.Chemscore.Internal.Correction>
   9.000000E+99

> <Gold.Chemscore.Hbonds>
donor molecule, donor type, donor heavy atom, donor atom, acceptor molecule, acceptor atom, score
      L1  H     9    31       P1  8028  1.00

> <Gold.Chemscore.Hbond.Weighted>
-3.2753

> <Gold.Chemscore.Metal.Weighted>
-0.0000

> <Gold.Chemscore.Lipo.Weighted>
-10.6666

> <Gold.Chemscore.Internal_Hbond.Weighted>
0.0000

> <Gold.Chemscore.DEClash.Weighted>
0.0000

> <Gold.Chemscore.DEInternal.Weighted>
0.3595

> <Gold.Chemscore.Rot.Weighted>
3.6688

> <Gold.Chemscore.Internal.Correction.Weighted>
   9.000000E+99

> <Gold.Protein.RotatedTorsions>
[ 6907 6896 6895 6894 ] final    6.21 input  -60.11 | X-H torsion
[ 7974 7965 7964 7962 ] final  -74.40 input  175.53 | X-H torsion
[ 8008 7997 7996 7995 ] final -174.70 input   59.86 | X-H torsion
[ 10167 10162 10161 10158 ] final -109.03 input  -65.29 | X-H torsion
[ 10718 10713 10712 10709 ] final  -34.85 input   66.30 | X-H torsion
[ 10763 10752 10751 10750 ] final -140.85 input  -60.55 | X-H torsion
[ 11005 11000 10999 10996 ] final   48.97 input  -57.11 | X-H torsion

> <Gold.Protein.ActiveResidues>
 VAL166  LYS551  ARG553  GLY616  TRP617  ASP618  TYR619  PRO620  LYS621  CYS622 
 ASP623  PHE694  ASN695  SER759  ASP760  ASP761  ALA762  ILE779  LEU786  VAL792 
 PHE793  MET794  SER795  GLU796  ALA797  LYS798  CYS799  TRP800  GLU811  SER814 

> <Gold.Protein.RotatedAtoms>
  151.6700  135.0977  160.0195 H   0  0  0  0  0  0  0  0  0  0  0  0  # atno 6907 bound_to 6896
  152.3897  133.6657  159.6236 H   0  0  0  0  0  0  0  0  0  0  0  0  # atno 6908 bound_to 6896
  150.7815  133.8892  159.3349 H   0  0  0  0  0  0  0  0  0  0  0  0  # atno 6909 bound_to 6896
  145.6395  140.9315  143.1043 H   0  0  0  0  0  0  0  0  0  0  0  0  # atno 7974 bound_to 7965
  155.9734  140.1167  157.0792 H   0  0  0  0  0  0  0  0  0  0  0  0  # atno 8008 bound_to 7997
  154.4162  140.1159  156.5405 H   0  0  0  0  0  0  0  0  0  0  0  0  # atno 8009 bound_to 7997
  155.6566  140.3473  155.4770 H   0  0  0  0  0  0  0  0  0  0  0  0  # atno 8010 bound_to 7997
  140.1597  143.4130  152.1434 H   0  0  0  0  0  0  0  0  0  0  0  0  # atno 10167 bound_to 10162
  156.3457  130.4300  149.7748 H   0  0  0  0  0  0  0  0  0  0  0  0  # atno 10718 bound_to 10713
  154.8565  135.3541  154.5774 H   0  0  0  0  0  0  0  0  0  0  0  0  # atno 10763 bound_to 10752
  153.6386  135.6999  153.5254 H   0  0  0  0  0  0  0  0  0  0  0  0  # atno 10764 bound_to 10752
  153.2990  135.4212  155.1194 H   0  0  0  0  0  0  0  0  0  0  0  0  # atno 10765 bound_to 10752
  140.1144  134.4912  155.8650 H   0  0  0  0  0  0  0  0  0  0  0  0  # atno 11005 bound_to 11000
  144.7163  139.8187  143.7397 LP  0  0  0  0  0  0  0  0  0  0  0  0  # atno 17320 bound_to 7965
  146.1292  139.4324  143.0179 LP  0  0  0  0  0  0  0  0  0  0  0  0  # atno 17321 bound_to 7965
  139.5387  144.7235  151.4807 LP  0  0  0  0  0  0  0  0  0  0  0  0  # atno 17342 bound_to 10162
  140.6651  143.8416  150.6932 LP  0  0  0  0  0  0  0  0  0  0  0  0  # atno 17343 bound_to 10162
  156.4968  130.8110  151.3117 LP  0  0  0  0  0  0  0  0  0  0  0  0  # atno 17370 bound_to 10713
  157.7453  130.9957  150.2755 LP  0  0  0  0  0  0  0  0  0  0  0  0  # atno 17371 bound_to 10713
  141.2138  133.6738  156.6767 LP  0  0  0  0  0  0  0  0  0  0  0  0  # atno 17394 bound_to 11000
  140.3048  134.8134  157.4127 LP  0  0  0  0  0  0  0  0  0  0  0  0  # atno 17395 bound_to 11000

$$$$
