AV-unprocessed.smi:942|AV-procd|sdf|4222|dock1
  -GOLD-   22720 2133D 1   1.00000     0.00000
 Structure written by MMmdl.
 43 45  0  0  0  0  0  0  0  0  2 V2000
  153.2716  139.3268  157.2679 O   0  0  0  0  0  0  0  0  0  0  0  0
  152.2578  140.0199  157.3585 C   0  0  0  0  0  0  0  0  0  0  0  0
  151.3385  140.1085  156.3838 N   0  0  0  0  0  0  0  0  0  0  0  0
  151.3890  139.4083  155.0984 C   0  0  1  0  0  0  0  0  0  0  0  0
  151.8769  137.9590  155.3113 C   0  0  0  0  0  0  0  0  0  0  0  0
  150.7417  137.0299  154.8565 C   0  0  0  0  0  0  0  0  0  0  0  0
  149.4829  137.8948  154.8624 C   0  0  0  0  0  0  0  0  0  0  0  0
  150.0059  139.2652  154.4192 C   0  0  1  0  0  0  0  0  0  0  0  0
  149.0758  140.3980  154.5928 N   0  0  0  0  0  0  0  0  0  0  0  0
  147.7070  140.3158  154.6410 C   0  0  0  0  0  0  0  0  0  0  0  0
  147.2369  141.5975  154.7632 C   0  0  0  0  0  0  0  0  0  0  0  0
  148.3355  142.4124  154.7750 N   0  3  0  0  0  0  0  0  0  0  0  0
  149.4514  141.6847  154.6651 C   0  0  0  0  0  0  0  0  0  0  0  0
  152.0051  140.8625  158.6149 C   0  0  0  0  0  0  0  0  0  0  0  0
  151.6530  142.3175  158.2364 C   0  0  0  0  0  0  0  0  0  0  0  0
  151.4132  143.1792  159.4866 C   0  0  0  0  0  0  0  0  0  0  0  0
  152.6251  143.1396  160.4309 C   0  0  0  0  0  0  0  0  0  0  0  0
  152.9872  141.6947  160.8097 C   0  0  0  0  0  0  0  0  0  0  0  0
  153.2268  140.8341  159.5583 C   0  0  0  0  0  0  0  0  0  0  0  0
  150.5354  140.6988  156.5471 H   0  0  0  0  0  0  0  0  0  0  0  0
  152.0755  139.9285  154.4279 H   0  0  0  0  0  0  0  0  0  0  0  0
  152.7876  137.7594  154.7454 H   0  0  0  0  0  0  0  0  0  0  0  0
  152.1125  137.7703  156.3600 H   0  0  0  0  0  0  0  0  0  0  0  0
  150.9392  136.6844  153.8409 H   0  0  0  0  0  0  0  0  0  0  0  0
  150.6445  136.1476  155.4899 H   0  0  0  0  0  0  0  0  0  0  0  0
  148.7056  137.5064  154.2036 H   0  0  0  0  0  0  0  0  0  0  0  0
  149.0830  137.9277  155.8757 H   0  0  0  0  0  0  0  0  0  0  0  0
  150.1841  139.1945  153.3443 H   0  0  0  0  0  0  0  0  0  0  0  0
  147.1810  139.3739  154.5808 H   0  0  0  0  0  0  0  0  0  0  0  0
  146.2293  141.9808  154.8340 H   0  0  0  0  0  0  0  0  0  0  0  0
  150.4535  142.0717  154.6285 H   0  0  0  0  0  0  0  0  0  0  0  0
  151.1544  140.4357  159.1497 H   0  0  0  0  0  0  0  0  0  0  0  0
  152.4573  142.7591  157.6455 H   0  0  0  0  0  0  0  0  0  0  0  0
  150.7623  142.3370  157.6074 H   0  0  0  0  0  0  0  0  0  0  0  0
  151.2048  144.2087  159.1941 H   0  0  0  0  0  0  0  0  0  0  0  0
  150.5273  142.8218  160.0132 H   0  0  0  0  0  0  0  0  0  0  0  0
  153.4803  143.6153  159.9487 H   0  0  0  0  0  0  0  0  0  0  0  0
  152.4154  143.7190  161.3304 H   0  0  0  0  0  0  0  0  0  0  0  0
  153.8760  141.6881  161.4413 H   0  0  0  0  0  0  0  0  0  0  0  0
  152.1825  141.2596  161.4041 H   0  0  0  0  0  0  0  0  0  0  0  0
  153.4458  139.8086  159.8589 H   0  0  0  0  0  0  0  0  0  0  0  0
  154.1143  141.1988  159.0386 H   0  0  0  0  0  0  0  0  0  0  0  0
  148.3097  143.4219  154.8470 H   0  0  0  0  0  0  0  0  0  0  0  0
  1  2  2  0  0  0  0
  2  3  1  0  0  0  0
  2 14  1  0  0  0  0
  3  4  1  0  0  0  0
  3 20  1  0  0  0  0
  4  8  1  0  0  0  0
  4  5  1  0  0  0  0
  4 21  1  0  0  0  0
  5  6  1  0  0  0  0
  5 22  1  0  0  0  0
  5 23  1  0  0  0  0
  6  7  1  0  0  0  0
  6 24  1  0  0  0  0
  6 25  1  0  0  0  0
  7  8  1  0  0  0  0
  7 26  1  0  0  0  0
  7 27  1  0  0  0  0
  8  9  1  0  0  0  0
  8 28  1  0  0  0  0
  9 13  1  0  0  0  0
  9 10  1  0  0  0  0
 10 11  2  0  0  0  0
 10 29  1  0  0  0  0
 11 12  1  0  0  0  0
 11 30  1  0  0  0  0
 12 13  2  0  0  0  0
 12 43  1  0  0  0  0
 13 31  1  0  0  0  0
 14 19  1  0  0  0  0
 14 15  1  0  0  0  0
 14 32  1  0  0  0  0
 15 16  1  0  0  0  0
 15 33  1  0  0  0  0
 15 34  1  0  0  0  0
 16 17  1  0  0  0  0
 16 35  1  0  0  0  0
 16 36  1  0  0  0  0
 17 18  1  0  0  0  0
 17 37  1  0  0  0  0
 17 38  1  0  0  0  0
 18 19  1  0  0  0  0
 18 39  1  0  0  0  0
 18 40  1  0  0  0  0
 19 41  1  0  0  0  0
 19 42  1  0  0  0  0
M  CHG  1  12   1
M  END
> <s_m_source_file>
AV-unprocessed.smi

> <i_m_source_file_index>
942

> <i_lp_mmshare_version>
43012

> <i_f3d_flags>
0

> <s_epik_input>
W0NIMl0xW0NIMl1bQ0gyXVtDSDJdW0NIMl1bQ0hdMUMoPU8pW05IXVtDQEBIXTJbQ0gyXVtDSDJdW0NIMl1bQ0BIXTJuM1tjSF1bY0hdbltjSF0z

> <s_epik_cmdline>
J2VwaWtfcHl0aG9uJywgJy1waCcsICc3LjAnLCAnLXRuJywgJzgnLCAnLW1hJywgJzIwMCcsICctbWV0YWxfYmluZGluZycsICctaW1hZScsICc8aW5maWxlLm1hZT4nLCAnLW9tYWUnLCAnPG91dGZpbGUubWFlPic=

> <r_lp_tautomer_probability>
1

> <r_epik_Ionization_Penalty>
0.185467

> <r_epik_Ionization_Penalty_Charging>
0

> <r_epik_Ionization_Penalty_Neutral>
0.185467

> <r_epik_State_Penalty>
0.175036

> <r_epik_Charging_Adjusted_Penalty>
0.175036

> <i_epik_Tot_Q>
1

> <i_epik_Tot_abs_Q>
1

> <r_epik_Metal_State_Penalty>
0.487091

> <b_epik_Metal_Only>
0

> <s_lp_Force_Field>
OPLS_2005

> <r_lp_Energy>
34.4876

> <b_lp_Chiralities_Consistent>
1

> <s_lp_Variant>
AV-unprocessed.smi:942-2

> <Gold.Version>
5.8.1

> <Gold.Id.Protein>
6NUR|6NUR_protein|mol2

> <Gold.PLP.Fitness>
44.7323

> <Gold.PLP.PLP>
-38.2111

> <Gold.PLP.part.hbond>
-1.8581

> <Gold.PLP.part.metal>
0.0000

> <Gold.PLP.part.buried>
-2.9488

> <Gold.PLP.part.nonpolar>
-33.7181

> <Gold.PLP.part.repulsive>
0.3206

> <Gold.PLP.ligand.clash>
0.0035

> <Gold.PLP.ligand.torsion>
1.1450

> <Gold.PLP.Chemscore.Hbond>
2.9200

> <Gold.PLP.Chemscore.CHOScore>
0.0000

> <Gold.PLP.Chemscore.Metal>
0.0000

> <Gold.Chemscore.Hbonds>
donor molecule, donor type, donor heavy atom, donor atom, acceptor molecule, acceptor atom, score
      L1  H    12    43       P1  8028  1.89
      P1  H  7997  8008       L1     1  0.84

> <Gold.PLP.Chemscore.Internal.Correction>
0.0546

> <Gold.Rescore>
     Score         DG    S(hbond)    S(metal)    S(lipo)     H(rot)  DE(clash)    DE(int)     intcor
     15.32     -18.47       1.65        0.00      96.36       1.48       0.12       3.03       ----

> <Gold.Chemscore.Fitness>
15.3245

> <Gold.Chemscore.DG>
-18.4740

> <Gold.Chemscore.ZeroCoef>
-5.4800

> <Gold.Chemscore.Hbond>
1.6485

> <Gold.Chemscore.Metal>
0.0000

> <Gold.Chemscore.Lipo>
96.3612

> <Gold.Chemscore.Internal_Hbond>
0.0000

> <Gold.Chemscore.DEClash>
0.1213

> <Gold.Chemscore.DEInternal>
3.0282

> <Gold.Chemscore.Rot>
1.4790

> <Gold.Chemscore.Internal.Correction>
   9.000000E+99

> <Gold.Chemscore.Hbonds>
donor molecule, donor type, donor heavy atom, donor atom, acceptor molecule, acceptor atom, score
      L1  H    12    43       P1  8028  0.88
      P1  H  7997  8008       L1     1  0.69

> <Gold.Chemscore.Hbond.Weighted>
-5.5061

> <Gold.Chemscore.Metal.Weighted>
-0.0000

> <Gold.Chemscore.Lipo.Weighted>
-11.2743

> <Gold.Chemscore.Internal_Hbond.Weighted>
0.0000

> <Gold.Chemscore.DEClash.Weighted>
0.1213

> <Gold.Chemscore.DEInternal.Weighted>
3.0282

> <Gold.Chemscore.Rot.Weighted>
3.7863

> <Gold.Chemscore.Internal.Correction.Weighted>
   9.000000E+99

> <Gold.Protein.RotatedTorsions>
[ 6907 6896 6895 6894 ] final   17.60 input  -60.11 | X-H torsion
[ 7974 7965 7964 7962 ] final -101.90 input  175.53 | X-H torsion
[ 8008 7997 7996 7995 ] final  -60.85 input   59.86 | X-H torsion
[ 10167 10162 10161 10158 ] final -161.43 input  -65.29 | X-H torsion
[ 10718 10713 10712 10709 ] final  -45.71 input   66.30 | X-H torsion
[ 10763 10752 10751 10750 ] final   40.78 input  -60.55 | X-H torsion
[ 11005 11000 10999 10996 ] final  -86.63 input  -57.11 | X-H torsion

> <Gold.Protein.ActiveResidues>
 VAL166  LYS551  ARG553  GLY616  TRP617  ASP618  TYR619  PRO620  LYS621  CYS622 
 ASP623  PHE694  ASN695  SER759  ASP760  ASP761  ALA762  ILE779  LEU786  VAL792 
 PHE793  MET794  SER795  GLU796  ALA797  LYS798  CYS799  TRP800  GLU811  SER814 

> <Gold.Protein.RotatedAtoms>
  151.8522  135.0554  160.0459 H   0  0  0  0  0  0  0  0  0  0  0  0  # atno 6907 bound_to 6896
  152.2728  133.5393  159.5458 H   0  0  0  0  0  0  0  0  0  0  0  0  # atno 6908 bound_to 6896
  150.7158  134.0590  159.3867 H   0  0  0  0  0  0  0  0  0  0  0  0  # atno 6909 bound_to 6896
  145.2757  140.9312  143.2961 H   0  0  0  0  0  0  0  0  0  0  0  0  # atno 7974 bound_to 7965
  154.4419  140.1030  156.6338 H   0  0  0  0  0  0  0  0  0  0  0  0  # atno 8008 bound_to 7997
  155.5576  140.3487  155.4465 H   0  0  0  0  0  0  0  0  0  0  0  0  # atno 8009 bound_to 7997
  156.0484  140.1298  157.0067 H   0  0  0  0  0  0  0  0  0  0  0  0  # atno 8010 bound_to 7997
  139.6466  144.0161  152.2131 H   0  0  0  0  0  0  0  0  0  0  0  0  # atno 10167 bound_to 10162
  156.2256  130.4169  149.8938 H   0  0  0  0  0  0  0  0  0  0  0  0  # atno 10718 bound_to 10713
  152.9926  135.6181  154.2681 H   0  0  0  0  0  0  0  0  0  0  0  0  # atno 10763 bound_to 10752
  154.2415  135.2788  155.2853 H   0  0  0  0  0  0  0  0  0  0  0  0  # atno 10764 bound_to 10752
  154.5365  135.5773  153.6860 H   0  0  0  0  0  0  0  0  0  0  0  0  # atno 10765 bound_to 10752
  141.1627  133.7465  156.9189 H   0  0  0  0  0  0  0  0  0  0  0  0  # atno 11005 bound_to 11000
  144.9297  139.4314  143.6501 LP  0  0  0  0  0  0  0  0  0  0  0  0  # atno 17320 bound_to 7965
  146.3232  139.8201  142.8928 LP  0  0  0  0  0  0  0  0  0  0  0  0  # atno 17321 bound_to 7965
  139.9865  144.6392  150.7853 LP  0  0  0  0  0  0  0  0  0  0  0  0  # atno 17342 bound_to 10162
  140.7517  143.2978  151.3160 LP  0  0  0  0  0  0  0  0  0  0  0  0  # atno 17343 bound_to 10162
  156.6569  130.8766  151.3541 LP  0  0  0  0  0  0  0  0  0  0  0  0  # atno 17370 bound_to 10713
  157.7109  130.9439  150.1085 LP  0  0  0  0  0  0  0  0  0  0  0  0  # atno 17371 bound_to 10713
  140.1465  134.9259  157.2536 LP  0  0  0  0  0  0  0  0  0  0  0  0  # atno 17394 bound_to 11000
  140.2774  134.3390  155.7354 LP  0  0  0  0  0  0  0  0  0  0  0  0  # atno 17395 bound_to 11000

$$$$
