AV-unprocessed.smi:3|AV-procd|sdf|32|dock9
  -GOLD-   2262015143D 1   1.00000     0.00000
 Structure written by MMmdl.
 33 35  0  0  0  0  0  0  0  0  1 V2000
  149.0737  142.0341  156.7697 C   0  0  0  0  0  0  0  0  0  0  0  0
  150.2638  141.2591  156.4503 N   0  0  0  0  0  0  0  0  0  0  0  0
  151.4462  141.3950  157.2969 C   0  0  0  0  0  0  0  0  0  0  0  0
  151.4388  142.7014  158.0880 C   0  0  1  0  0  0  0  0  0  0  0  0
  152.6316  143.0610  158.9871 C   0  0  0  0  0  0  0  0  0  0  0  0
  152.5038  144.5204  158.5418 C   0  0  2  0  0  0  0  0  0  0  0  0
  151.8691  145.4101  159.4346 O   0  0  0  0  0  0  0  0  0  0  0  0
  151.6785  144.0256  157.3498 C   0  0  0  0  0  0  0  0  0  0  0  0
  150.1681  140.1118  155.6349 C   0  0  0  0  0  0  0  0  0  0  0  0
  148.9364  139.7912  155.1642 N   0  0  0  0  0  0  0  0  0  0  0  0
  148.8244  138.6920  154.3770 C   0  0  0  0  0  0  0  0  0  0  0  0
  149.8076  137.8487  153.9793 N   0  0  0  0  0  0  0  0  0  0  0  0
  151.0590  138.1573  154.4308 C   0  0  0  0  0  0  0  0  0  0  0  0
  152.1945  137.5151  154.1769 N   0  0  0  0  0  0  0  0  0  0  0  0
  153.1620  138.1972  154.8111 C   0  0  0  0  0  0  0  0  0  0  0  0
  152.6712  139.3545  155.5276 C   0  0  0  0  0  0  0  0  0  0  0  0
  151.2673  139.2855  155.2630 C   0  0  0  0  0  0  0  0  0  0  0  0
  150.5203  142.8034  158.6692 H   0  0  0  0  0  0  0  0  0  0  0  0
  153.4590  144.9452  158.2319 H   0  0  0  0  0  0  0  0  0  0  0  0
  148.3469  141.9996  155.9578 H   0  0  0  0  0  0  0  0  0  0  0  0
  149.3403  143.0795  156.9273 H   0  0  0  0  0  0  0  0  0  0  0  0
  148.6063  141.6674  157.6833 H   0  0  0  0  0  0  0  0  0  0  0  0
  151.5429  140.5410  157.9677 H   0  0  0  0  0  0  0  0  0  0  0  0
  152.3271  141.3595  156.6555 H   0  0  0  0  0  0  0  0  0  0  0  0
  152.4557  142.8854  160.0490 H   0  0  0  0  0  0  0  0  0  0  0  0
  153.5667  142.6043  158.6588 H   0  0  0  0  0  0  0  0  0  0  0  0
  151.0288  145.0345  159.6488 H   0  0  0  0  0  0  0  0  0  0  0  0
  152.2795  143.9077  156.4469 H   0  0  0  0  0  0  0  0  0  0  0  0
  150.7709  144.5968  157.1517 H   0  0  0  0  0  0  0  0  0  0  0  0
  147.8304  138.4628  154.0226 H   0  0  0  0  0  0  0  0  0  0  0  0
  154.1967  137.8814  154.7593 H   0  0  0  0  0  0  0  0  0  0  0  0
  153.2368  140.0741  156.1041 H   0  0  0  0  0  0  0  0  0  0  0  0
  149.5804  137.0654  153.3837 H   0  0  0  0  0  0  0  0  0  0  0  0
  1  2  1  0  0  0  0
  1 20  1  0  0  0  0
  1 21  1  0  0  0  0
  1 22  1  0  0  0  0
  2  3  1  0  0  0  0
  2  9  1  0  0  0  0
  3  4  1  0  0  0  0
  3 23  1  0  0  0  0
  3 24  1  0  0  0  0
  4 18  1  0  0  0  0
  4  8  1  0  0  0  0
  4  5  1  0  0  0  0
  5  6  1  0  0  0  0
  5 25  1  0  0  0  0
  5 26  1  0  0  0  0
  6 19  1  0  0  0  0
  6  7  1  0  0  0  0
  6  8  1  0  0  0  0
  7 27  1  0  0  0  0
  8 28  1  0  0  0  0
  8 29  1  0  0  0  0
  9 17  2  0  0  0  0
  9 10  1  0  0  0  0
 10 11  2  0  0  0  0
 11 12  1  0  0  0  0
 11 30  1  0  0  0  0
 12 13  1  0  0  0  0
 12 33  1  0  0  0  0
 13 17  1  0  0  0  0
 13 14  2  0  0  0  0
 14 15  1  0  0  0  0
 15 16  2  0  0  0  0
 15 31  1  0  0  0  0
 16 17  1  0  0  0  0
 16 32  1  0  0  0  0
M  END
> <s_m_source_file>
AV-unprocessed.smi

> <i_m_source_file_index>
3

> <i_lp_mmshare_version>
43012

> <i_f3d_flags>
0

> <s_epik_input>
W25IXTFbY0hdW2NIXWMoYzEyKWMobltjSF1uMilOKFtDSDNdKVtDSDJdW0NASF0zW0NIMl1bQ0BASF0oW09IXSlbQ0gyXTM=

> <s_epik_cmdline>
J2VwaWtfcHl0aG9uJywgJy1waCcsICc3LjAnLCAnLXRuJywgJzgnLCAnLW1hJywgJzIwMCcsICctbWV0YWxfYmluZGluZycsICctaW1hZScsICc8aW5maWxlLm1hZT4nLCAnLW9tYWUnLCAnPG91dGZpbGUubWFlPic=

> <r_lp_tautomer_probability>
1.75997e-05

> <r_epik_Ionization_Penalty>
5.52529

> <r_epik_Ionization_Penalty_Charging>
0

> <r_epik_Ionization_Penalty_Neutral>
5.52529

> <r_epik_State_Penalty>
8.99615

> <r_epik_Charging_Adjusted_Penalty>
8.99615

> <i_epik_Tot_Q>
0

> <i_epik_Tot_abs_Q>
0

> <r_epik_Metal_State_Penalty>
6.01519

> <b_epik_Metal_Only>
1

> <s_lp_Force_Field>
OPLS_2005

> <r_lp_Energy>
26.4435

> <b_lp_Chiralities_Consistent>
1

> <s_lp_Variant>
AV-unprocessed.smi:3-6

> <Gold.Version>
5.8.1

> <Gold.Id.Protein>
6NUR|6NUR_protein|mol2

> <Gold.PLP.Fitness>
40.9238

> <Gold.PLP.PLP>
-35.5961

> <Gold.PLP.part.hbond>
-2.1125

> <Gold.PLP.part.metal>
0.0000

> <Gold.PLP.part.buried>
-0.5014

> <Gold.PLP.part.nonpolar>
-34.3392

> <Gold.PLP.part.repulsive>
0.2430

> <Gold.PLP.ligand.clash>
1.1392

> <Gold.PLP.ligand.torsion>
0.2695

> <Gold.PLP.Chemscore.Hbond>
1.8247

> <Gold.PLP.Chemscore.CHOScore>
0.0000

> <Gold.PLP.Chemscore.Metal>
0.0000

> <Gold.Chemscore.Hbonds>
donor molecule, donor type, donor heavy atom, donor atom, acceptor molecule, acceptor atom, score
      L1  H    12    33       P1  7948  1.00
      P1  H 10752 10765       L1    14  0.83

> <Gold.PLP.Chemscore.Internal.Correction>
1.5319

> <Gold.Rescore>
     Score         DG    S(hbond)    S(metal)    S(lipo)     H(rot)  DE(clash)    DE(int)     intcor
     12.46     -14.34       1.04        0.00      86.20       1.84       0.44       1.44       ----

> <Gold.Chemscore.Fitness>
12.4585

> <Gold.Chemscore.DG>
-14.3383

> <Gold.Chemscore.ZeroCoef>
-5.4800

> <Gold.Chemscore.Hbond>
1.0426

> <Gold.Chemscore.Metal>
0.0000

> <Gold.Chemscore.Lipo>
86.2003

> <Gold.Chemscore.Internal_Hbond>
0.0000

> <Gold.Chemscore.DEClash>
0.4376

> <Gold.Chemscore.DEInternal>
1.4421

> <Gold.Chemscore.Rot>
1.8396

> <Gold.Chemscore.Internal.Correction>
   9.000000E+99

> <Gold.Chemscore.Hbonds>
donor molecule, donor type, donor heavy atom, donor atom, acceptor molecule, acceptor atom, score
      L1  H    12    33       P1  7948  0.77
      P1  H 10752 10765       L1    14  0.20

> <Gold.Chemscore.Hbond.Weighted>
-3.4823

> <Gold.Chemscore.Metal.Weighted>
-0.0000

> <Gold.Chemscore.Lipo.Weighted>
-10.0854

> <Gold.Chemscore.Internal_Hbond.Weighted>
0.0000

> <Gold.Chemscore.DEClash.Weighted>
0.4376

> <Gold.Chemscore.DEInternal.Weighted>
1.4421

> <Gold.Chemscore.Rot.Weighted>
4.7095

> <Gold.Chemscore.Internal.Correction.Weighted>
   9.000000E+99

> <Gold.Protein.RotatedTorsions>
[ 6907 6896 6895 6894 ] final  111.48 input  -60.11 | X-H torsion
[ 7974 7965 7964 7962 ] final    3.78 input  175.53 | X-H torsion
[ 8008 7997 7996 7995 ] final -104.26 input   59.86 | X-H torsion
[ 10167 10162 10161 10158 ] final  130.06 input  -65.29 | X-H torsion
[ 10718 10713 10712 10709 ] final -144.76 input   66.30 | X-H torsion
[ 10763 10752 10751 10750 ] final  149.82 input  -60.55 | X-H torsion
[ 11005 11000 10999 10996 ] final   55.60 input  -57.11 | X-H torsion

> <Gold.Protein.ActiveResidues>
 VAL166  LYS551  ARG553  GLY616  TRP617  ASP618  TYR619  PRO620  LYS621  CYS622 
 ASP623  PHE694  ASN695  SER759  ASP760  ASP761  ALA762  ILE779  LEU786  VAL792 
 PHE793  MET794  SER795  GLU796  ALA797  LYS798  CYS799  TRP800  GLU811  SER814 

> <Gold.Protein.RotatedAtoms>
  152.4967  133.8652  159.7270 H   0  0  0  0  0  0  0  0  0  0  0  0  # atno 6907 bound_to 6896
  150.9153  133.6938  159.2851 H   0  0  0  0  0  0  0  0  0  0  0  0  # atno 6908 bound_to 6896
  151.4333  135.1016  159.9701 H   0  0  0  0  0  0  0  0  0  0  0  0  # atno 6909 bound_to 6896
  146.2445  140.0634  142.8367 H   0  0  0  0  0  0  0  0  0  0  0  0  # atno 7974 bound_to 7965
  154.8828  140.0418  157.1792 H   0  0  0  0  0  0  0  0  0  0  0  0  # atno 8008 bound_to 7997
  154.8621  140.2945  155.5511 H   0  0  0  0  0  0  0  0  0  0  0  0  # atno 8009 bound_to 7997
  156.2998  140.2445  156.3597 H   0  0  0  0  0  0  0  0  0  0  0  0  # atno 8010 bound_to 7997
  139.5448  144.6763  151.4509 H   0  0  0  0  0  0  0  0  0  0  0  0  # atno 10167 bound_to 10162
  156.3741  130.7803  151.1987 H   0  0  0  0  0  0  0  0  0  0  0  0  # atno 10718 bound_to 10713
  154.0773  135.2862  155.3297 H   0  0  0  0  0  0  0  0  0  0  0  0  # atno 10763 bound_to 10752
  154.6707  135.5300  153.8137 H   0  0  0  0  0  0  0  0  0  0  0  0  # atno 10764 bound_to 10752
  153.0462  135.6557  154.0951 H   0  0  0  0  0  0  0  0  0  0  0  0  # atno 10765 bound_to 10752
  140.0595  134.5623  155.9169 H   0  0  0  0  0  0  0  0  0  0  0  0  # atno 11005 bound_to 11000
  145.0879  140.9265  143.4786 LP  0  0  0  0  0  0  0  0  0  0  0  0  # atno 17320 bound_to 7965
  145.0801  139.2966  143.5788 LP  0  0  0  0  0  0  0  0  0  0  0  0  # atno 17321 bound_to 7965
  140.6692  143.8331  150.6978 LP  0  0  0  0  0  0  0  0  0  0  0  0  # atno 17342 bound_to 10162
  140.1750  143.4162  152.1974 LP  0  0  0  0  0  0  0  0  0  0  0  0  # atno 17343 bound_to 10162
  157.7486  131.0363  150.4405 LP  0  0  0  0  0  0  0  0  0  0  0  0  # atno 17370 bound_to 10713
  156.4637  130.4037  149.6560 LP  0  0  0  0  0  0  0  0  0  0  0  0  # atno 17371 bound_to 10713
  141.1967  133.6592  156.5703 LP  0  0  0  0  0  0  0  0  0  0  0  0  # atno 17394 bound_to 11000
  140.3793  134.7538  157.4650 LP  0  0  0  0  0  0  0  0  0  0  0  0  # atno 17395 bound_to 11000

$$$$
