AV-unprocessed.smi:2693|AV-procd|sdf|10399|dock7
  -GOLD-   2272014433D 1   1.00000     0.00000
 Structure written by MMmdl.
 45 47  0  0  0  0  0  0  0  0  1 V2000
  143.7838  132.3950  149.7233 C   0  0  0  0  0  0  0  0  0  0  0  0
  144.7568  132.7399  150.7558 N   0  0  0  0  0  0  0  0  0  0  0  0
  145.6405  131.6806  151.2348 C   0  0  0  0  0  0  0  0  0  0  0  0
  144.8250  134.0328  151.2837 C   0  0  0  0  0  0  0  0  0  0  0  0
  143.8269  134.8743  150.9851 N   0  0  0  0  0  0  0  0  0  0  0  0
  143.8844  136.1250  151.4898 C   0  0  0  0  0  0  0  0  0  0  0  0
  144.9568  136.5457  152.3128 C   0  0  0  0  0  0  0  0  0  0  0  0
  145.1062  137.8423  152.8756 N   0  0  0  0  0  0  0  0  0  0  0  0
  145.9514  138.2489  153.8381 C   0  0  0  0  0  0  0  0  0  0  0  0
  146.7784  137.5399  154.4099 O   0  0  0  0  0  0  0  0  0  0  0  0
  145.7967  139.5539  154.0973 N   0  0  0  0  0  0  0  0  0  0  0  0
  146.5726  140.2937  155.0876 C   0  0  2  0  0  0  0  0  0  0  0  0
  145.7025  141.2366  155.9332 C   0  0  1  0  0  0  0  0  0  0  0  0
  145.5438  140.9886  157.4087 C   0  0  0  0  0  0  0  0  0  0  0  0
  146.6116  141.8971  158.0248 C   0  0  0  0  0  0  0  0  0  0  0  0
  147.5488  142.1152  156.9726 O   0  0  0  0  0  0  0  0  0  0  0  0
  146.8082  142.2674  155.7641 C   0  0  1  0  0  0  0  0  0  0  0  0
  147.3416  141.5169  154.5256 C   0  0  0  0  0  0  0  0  0  0  0  0
  148.8615  141.3738  154.4313 C   0  0  0  0  0  0  0  0  0  0  0  0
  146.8683  142.1000  153.1864 C   0  0  0  0  0  0  0  0  0  0  0  0
  145.9555  135.5812  152.5545 C   0  0  0  0  0  0  0  0  0  0  0  0
  145.8857  134.3338  152.0445 N   0  0  0  0  0  0  0  0  0  0  0  0
  143.9119  133.0346  148.8493 H   0  0  0  0  0  0  0  0  0  0  0  0
  142.7688  132.5263  150.1001 H   0  0  0  0  0  0  0  0  0  0  0  0
  143.8864  131.3609  149.3946 H   0  0  0  0  0  0  0  0  0  0  0  0
  145.5039  131.5263  152.3057 H   0  0  0  0  0  0  0  0  0  0  0  0
  146.6832  131.9450  151.0558 H   0  0  0  0  0  0  0  0  0  0  0  0
  145.4476  130.7308  150.7363 H   0  0  0  0  0  0  0  0  0  0  0  0
  143.0695  136.7717  151.2071 H   0  0  0  0  0  0  0  0  0  0  0  0
  144.5196  138.5576  152.4714 H   0  0  0  0  0  0  0  0  0  0  0  0
  145.0998  140.0694  153.5799 H   0  0  0  0  0  0  0  0  0  0  0  0
  147.2051  139.6595  155.7132 H   0  0  0  0  0  0  0  0  0  0  0  0
  144.7887  141.5422  155.4200 H   0  0  0  0  0  0  0  0  0  0  0  0
  144.5467  141.2391  157.7716 H   0  0  0  0  0  0  0  0  0  0  0  0
  145.7369  139.9430  157.6509 H   0  0  0  0  0  0  0  0  0  0  0  0
  146.1773  142.8543  158.3175 H   0  0  0  0  0  0  0  0  0  0  0  0
  147.0867  141.4557  158.9010 H   0  0  0  0  0  0  0  0  0  0  0  0
  146.4490  143.2837  155.5956 H   0  0  0  0  0  0  0  0  0  0  0  0
  149.3465  142.3407  154.2946 H   0  0  0  0  0  0  0  0  0  0  0  0
  149.1518  140.7359  153.5960 H   0  0  0  0  0  0  0  0  0  0  0  0
  149.2802  140.9273  155.3337 H   0  0  0  0  0  0  0  0  0  0  0  0
  147.3106  143.0794  153.0018 H   0  0  0  0  0  0  0  0  0  0  0  0
  145.7860  142.2297  153.1610 H   0  0  0  0  0  0  0  0  0  0  0  0
  147.1380  141.4569  152.3481 H   0  0  0  0  0  0  0  0  0  0  0  0
  146.8181  135.8084  153.1637 H   0  0  0  0  0  0  0  0  0  0  0  0
  1  2  1  0  0  0  0
  1 23  1  0  0  0  0
  1 24  1  0  0  0  0
  1 25  1  0  0  0  0
  2  3  1  0  0  0  0
  2  4  1  0  0  0  0
  3 26  1  0  0  0  0
  3 27  1  0  0  0  0
  3 28  1  0  0  0  0
  4 22  1  0  0  0  0
  4  5  2  0  0  0  0
  5  6  1  0  0  0  0
  6  7  2  0  0  0  0
  6 29  1  0  0  0  0
  7  8  1  0  0  0  0
  7 21  1  0  0  0  0
  8  9  1  0  0  0  0
  8 30  1  0  0  0  0
  9 10  2  0  0  0  0
  9 11  1  0  0  0  0
 11 12  1  0  0  0  0
 11 31  1  0  0  0  0
 12 18  1  0  0  0  0
 12 13  1  0  0  0  0
 12 32  1  0  0  0  0
 13 17  1  0  0  0  0
 13 14  1  0  0  0  0
 13 33  1  0  0  0  0
 14 15  1  0  0  0  0
 14 34  1  0  0  0  0
 14 35  1  0  0  0  0
 15 16  1  0  0  0  0
 15 36  1  0  0  0  0
 15 37  1  0  0  0  0
 16 17  1  0  0  0  0
 17 18  1  0  0  0  0
 17 38  1  0  0  0  0
 18 19  1  0  0  0  0
 18 20  1  0  0  0  0
 19 39  1  0  0  0  0
 19 40  1  0  0  0  0
 19 41  1  0  0  0  0
 20 42  1  0  0  0  0
 20 43  1  0  0  0  0
 20 44  1  0  0  0  0
 21 22  2  0  0  0  0
 21 45  1  0  0  0  0
M  END
> <s_m_source_file>
AV-unprocessed.smi

> <i_m_source_file_index>
2693

> <i_lp_mmshare_version>
43012

> <i_f3d_flags>
0

> <s_epik_input>
W0NIM11OKFtDSDNdKWMxbltjSF1jKFtjSF1uMSlbTkhdQyg9TylbTkhdW0NASF0yQyhbQ0gzXSkoW0NIM10pW0NAQEhdKFtDQEhdMjMpT1tDSDJdW0NIMl0z

> <s_epik_cmdline>
J2VwaWtfcHl0aG9uJywgJy1waCcsICc3LjAnLCAnLXRuJywgJzgnLCAnLW1hJywgJzIwMCcsICctbWV0YWxfYmluZGluZycsICctaW1hZScsICc8aW5maWxlLm1hZT4nLCAnLW9tYWUnLCAnPG91dGZpbGUubWFlPic=

> <r_lp_tautomer_probability>
1

> <r_epik_Ionization_Penalty>
0.00031779

> <r_epik_Ionization_Penalty_Charging>
0

> <r_epik_Ionization_Penalty_Neutral>
0.00031779

> <r_epik_State_Penalty>
-0

> <r_epik_Charging_Adjusted_Penalty>
0

> <i_epik_Tot_Q>
0

> <i_epik_Tot_abs_Q>
0

> <r_epik_Metal_State_Penalty>
-0

> <b_epik_Metal_Only>
0

> <s_lp_Force_Field>
OPLS_2005

> <r_lp_Energy>
29.3552

> <b_lp_Chiralities_Consistent>
1

> <s_lp_Variant>
AV-unprocessed.smi:2693-3

> <Gold.Version>
5.8.1

> <Gold.Id.Protein>
6NUR|6NUR_protein|mol2

> <Gold.PLP.Fitness>
36.8927

> <Gold.PLP.PLP>
-27.3279

> <Gold.PLP.part.hbond>
-2.0000

> <Gold.PLP.part.metal>
0.0000

> <Gold.PLP.part.buried>
-3.3544

> <Gold.PLP.part.nonpolar>
-21.7730

> <Gold.PLP.part.repulsive>
0.5798

> <Gold.PLP.ligand.clash>
0.0000

> <Gold.PLP.ligand.torsion>
0.2182

> <Gold.PLP.Chemscore.Hbond>
1.9750

> <Gold.PLP.Chemscore.CHOScore>
1.3000

> <Gold.PLP.Chemscore.Metal>
0.0000

> <Gold.Chemscore.Hbonds>
donor molecule, donor type, donor heavy atom, donor atom, acceptor molecule, acceptor atom, score
      L1  H     8    30       P1 10175  0.89
      L1  H    11    31       P1 10175  1.00
      L1  C     6    29       P1 10171  0.63
      L1  C    21    45       P1  7948  0.68

> <Gold.PLP.Chemscore.Internal.Correction>
0.1763

> <Gold.Rescore>
     Score         DG    S(hbond)    S(metal)    S(lipo)     H(rot)  DE(clash)    DE(int)     intcor
     13.56     -16.51       1.86        0.00      62.99       1.00       1.46       1.50       ----

> <Gold.Chemscore.Fitness>
13.5552

> <Gold.Chemscore.DG>
-16.5085

> <Gold.Chemscore.ZeroCoef>
-5.4800

> <Gold.Chemscore.Hbond>
1.8618

> <Gold.Chemscore.Metal>
0.0000

> <Gold.Chemscore.Lipo>
62.9909

> <Gold.Chemscore.Internal_Hbond>
0.0000

> <Gold.Chemscore.DEClash>
1.4568

> <Gold.Chemscore.DEInternal>
1.4965

> <Gold.Chemscore.Rot>
1.0000

> <Gold.Chemscore.Internal.Correction>
   9.000000E+99

> <Gold.Chemscore.Hbonds>
donor molecule, donor type, donor heavy atom, donor atom, acceptor molecule, acceptor atom, score
      L1  H     8    30       P1 10175  0.84
      L1  H    11    31       P1 10175  1.00

> <Gold.Chemscore.Hbond.Weighted>
-6.2185

> <Gold.Chemscore.Metal.Weighted>
-0.0000

> <Gold.Chemscore.Lipo.Weighted>
-7.3699

> <Gold.Chemscore.Internal_Hbond.Weighted>
0.0000

> <Gold.Chemscore.DEClash.Weighted>
1.4568

> <Gold.Chemscore.DEInternal.Weighted>
1.4965

> <Gold.Chemscore.Rot.Weighted>
2.5600

> <Gold.Chemscore.Internal.Correction.Weighted>
   9.000000E+99

> <Gold.Protein.RotatedTorsions>
[ 6907 6896 6895 6894 ] final  -56.25 input  -60.11 | X-H torsion
[ 7974 7965 7964 7962 ] final  116.30 input  175.53 | X-H torsion
[ 8008 7997 7996 7995 ] final  -90.91 input   59.86 | X-H torsion
[ 10167 10162 10161 10158 ] final    1.01 input  -65.29 | X-H torsion
[ 10718 10713 10712 10709 ] final -146.31 input   66.30 | X-H torsion
[ 10763 10752 10751 10750 ] final   -0.83 input  -60.55 | X-H torsion
[ 11005 11000 10999 10996 ] final -102.34 input  -57.11 | X-H torsion

> <Gold.Protein.ActiveResidues>
 VAL166  LYS551  ARG553  GLY616  TRP617  ASP618  TYR619  PRO620  LYS621  CYS622 
 ASP623  PHE694  ASN695  SER759  ASP760  ASP761  ALA762  ILE779  LEU786  VAL792 
 PHE793  MET794  SER795  GLU796  ALA797  LYS798  CYS799  TRP800  GLU811  SER814 

> <Gold.Protein.RotatedAtoms>
  150.8183  134.7377  159.6749 H   0  0  0  0  0  0  0  0  0  0  0  0  # atno 6907 bound_to 6896
  152.4301  134.5791  159.9952 H   0  0  0  0  0  0  0  0  0  0  0  0  # atno 6908 bound_to 6896
  151.5982  133.3322  159.3078 H   0  0  0  0  0  0  0  0  0  0  0  0  # atno 6909 bound_to 6896
  145.1813  139.3048  143.4416 H   0  0  0  0  0  0  0  0  0  0  0  0  # atno 7974 bound_to 7965
  154.7043  140.0525  157.0488 H   0  0  0  0  0  0  0  0  0  0  0  0  # atno 8008 bound_to 7997
  155.0642  140.3192  155.4632 H   0  0  0  0  0  0  0  0  0  0  0  0  # atno 8009 bound_to 7997
  156.2770  140.2093  156.5769 H   0  0  0  0  0  0  0  0  0  0  0  0  # atno 8010 bound_to 7997
  140.6702  143.7068  150.7908 H   0  0  0  0  0  0  0  0  0  0  0  0  # atno 10167 bound_to 10162
  156.3934  130.7897  151.2101 H   0  0  0  0  0  0  0  0  0  0  0  0  # atno 10718 bound_to 10713
  153.3369  135.6978  153.6900 H   0  0  0  0  0  0  0  0  0  0  0  0  # atno 10763 bound_to 10752
  153.5680  135.3522  155.2827 H   0  0  0  0  0  0  0  0  0  0  0  0  # atno 10764 bound_to 10752
  154.8629  135.4265  154.2572 H   0  0  0  0  0  0  0  0  0  0  0  0  # atno 10765 bound_to 10752
  141.1193  133.8550  157.1347 H   0  0  0  0  0  0  0  0  0  0  0  0  # atno 11005 bound_to 11000
  146.3452  140.1993  142.8589 LP  0  0  0  0  0  0  0  0  0  0  0  0  # atno 17320 bound_to 7965
  145.0133  140.8733  143.5211 LP  0  0  0  0  0  0  0  0  0  0  0  0  # atno 17321 bound_to 7965
  140.0753  143.5022  152.2559 LP  0  0  0  0  0  0  0  0  0  0  0  0  # atno 17342 bound_to 10162
  139.5968  144.7569  151.3268 LP  0  0  0  0  0  0  0  0  0  0  0  0  # atno 17343 bound_to 10162
  157.7500  131.0309  150.4156 LP  0  0  0  0  0  0  0  0  0  0  0  0  # atno 17370 bound_to 10713
  156.4422  130.3994  149.6690 LP  0  0  0  0  0  0  0  0  0  0  0  0  # atno 17371 bound_to 10713
  140.0138  134.9976  157.0452 LP  0  0  0  0  0  0  0  0  0  0  0  0  # atno 17394 bound_to 11000
  140.4554  134.1539  155.7185 LP  0  0  0  0  0  0  0  0  0  0  0  0  # atno 17395 bound_to 11000

$$$$
