AV-unprocessed.smi:34|AV-procd|sdf|241|dock3
  -GOLD-   2262015593D 1   1.00000     0.00000
 Structure written by MMmdl.
 54 58  0  0  0  0  0  0  0  0  2 V2000
  150.2042  131.6196  154.5415 O   0  0  0  0  0  0  0  0  0  0  0  0
  151.2157  132.0660  155.0872 C   0  0  0  0  0  0  0  0  0  0  0  0
  151.3923  133.2968  155.6317 N   0  5  0  0  0  0  0  0  0  0  0  0
  150.4084  134.2063  155.5612 C   0  0  0  0  0  0  0  0  0  0  0  0
  149.1403  133.8709  155.9117 N   0  0  0  0  0  0  0  0  0  0  0  0
  148.1566  134.7757  155.8408 C   0  0  0  0  0  0  0  0  0  0  0  0
  148.2156  136.0534  155.4510 N   0  0  0  0  0  0  0  0  0  0  0  0
  149.4851  136.3977  155.0876 C   0  0  0  0  0  0  0  0  0  0  0  0
  150.6206  135.5383  155.1100 C   0  0  0  0  0  0  0  0  0  0  0  0
  151.7519  136.2108  154.6717 N   0  0  0  0  0  0  0  0  0  0  0  0
  151.2632  137.4226  154.4145 C   0  0  0  0  0  0  0  0  0  0  0  0
  149.9480  137.6225  154.6412 N   0  0  0  0  0  0  0  0  0  0  0  0
  149.1226  138.8564  154.4392 C   0  0  2  0  0  0  0  0  0  0  0  0
  149.9503  139.8878  153.9793 O   0  0  0  0  0  0  0  0  0  0  0  0
  150.0505  140.9313  154.9449 C   0  0  2  0  0  0  0  0  0  0  0  0
  151.3165  140.7351  155.7952 C   0  0  0  0  0  0  0  0  0  0  0  0
  151.2152  141.5123  156.9773 O   0  0  0  0  0  0  0  0  0  0  0  0
  152.0752  141.3115  157.9940 C   0  0  0  0  0  0  0  0  0  0  0  0
  152.8703  140.3707  158.0395 O   0  0  0  0  0  0  0  0  0  0  0  0
  151.9621  142.3473  159.0613 C   0  0  0  0  0  0  0  0  0  0  0  0
  151.5332  143.6513  158.7193 C   0  0  0  0  0  0  0  0  0  0  0  0
  151.4210  144.6511  159.7050 C   0  0  0  0  0  0  0  0  0  0  0  0
  151.7362  144.3595  161.0449 C   0  0  0  0  0  0  0  0  0  0  0  0
  152.1637  143.0662  161.3980 C   0  0  0  0  0  0  0  0  0  0  0  0
  152.2766  142.0649  160.4137 C   0  0  0  0  0  0  0  0  0  0  0  0
  148.7464  140.8273  155.7378 C   0  0  1  0  0  0  0  0  0  0  0  0
  147.7814  141.4783  155.0859 F   0  0  0  0  0  0  0  0  0  0  0  0
  148.4407  139.3400  155.7394 C   0  0  2  0  0  0  0  0  0  0  0  0
  148.9232  138.7355  156.9270 O   0  0  0  0  0  0  0  0  0  0  0  0
  152.4549  131.2114  155.1275 C   0  0  0  0  0  0  0  0  0  0  0  0
  152.4658  129.9628  154.4645 C   0  0  0  0  0  0  0  0  0  0  0  0
  153.6043  129.1351  154.5128 C   0  0  0  0  0  0  0  0  0  0  0  0
  154.7429  129.5435  155.2319 C   0  0  0  0  0  0  0  0  0  0  0  0
  154.7401  130.7784  155.9066 C   0  0  0  0  0  0  0  0  0  0  0  0
  153.6015  131.6060  155.8599 C   0  0  0  0  0  0  0  0  0  0  0  0
  147.1806  134.4254  156.1421 H   0  0  0  0  0  0  0  0  0  0  0  0
  151.9033  138.2066  154.0387 H   0  0  0  0  0  0  0  0  0  0  0  0
  148.4128  138.5817  153.6578 H   0  0  0  0  0  0  0  0  0  0  0  0
  150.1189  141.8902  154.4296 H   0  0  0  0  0  0  0  0  0  0  0  0
  151.4571  139.6842  156.0493 H   0  0  0  0  0  0  0  0  0  0  0  0
  152.1937  141.0540  155.2307 H   0  0  0  0  0  0  0  0  0  0  0  0
  151.2867  143.8990  157.6968 H   0  0  0  0  0  0  0  0  0  0  0  0
  151.0932  145.6433  159.4316 H   0  0  0  0  0  0  0  0  0  0  0  0
  151.6506  145.1265  161.8003 H   0  0  0  0  0  0  0  0  0  0  0  0
  152.4064  142.8409  162.4261 H   0  0  0  0  0  0  0  0  0  0  0  0
  152.6092  141.0835  160.7188 H   0  0  0  0  0  0  0  0  0  0  0  0
  148.8006  141.2674  156.7345 H   0  0  0  0  0  0  0  0  0  0  0  0
  147.3687  139.1490  155.6783 H   0  0  0  0  0  0  0  0  0  0  0  0
  149.2258  137.8644  156.7182 H   0  0  0  0  0  0  0  0  0  0  0  0
  151.5993  129.6330  153.9097 H   0  0  0  0  0  0  0  0  0  0  0  0
  153.6022  128.1854  153.9990 H   0  0  0  0  0  0  0  0  0  0  0  0
  155.6156  128.9086  155.2697 H   0  0  0  0  0  0  0  0  0  0  0  0
  155.6104  131.0907  156.4648 H   0  0  0  0  0  0  0  0  0  0  0  0
  153.6169  132.5445  156.3952 H   0  0  0  0  0  0  0  0  0  0  0  0
  1  2  2  0  0  0  0
  2  3  1  0  0  0  0
  2 30  1  0  0  0  0
  3  4  1  0  0  0  0
  4  9  1  0  0  0  0
  4  5  2  0  0  0  0
  5  6  1  0  0  0  0
  6  7  2  0  0  0  0
  6 36  1  0  0  0  0
  7  8  1  0  0  0  0
  8 12  1  0  0  0  0
  8  9  2  0  0  0  0
  9 10  1  0  0  0  0
 10 11  2  0  0  0  0
 11 12  1  0  0  0  0
 11 37  1  0  0  0  0
 12 13  1  0  0  0  0
 13 28  1  0  0  0  0
 13 14  1  0  0  0  0
 13 38  1  0  0  0  0
 14 15  1  0  0  0  0
 15 16  1  0  0  0  0
 15 26  1  0  0  0  0
 15 39  1  0  0  0  0
 16 17  1  0  0  0  0
 16 40  1  0  0  0  0
 16 41  1  0  0  0  0
 17 18  1  0  0  0  0
 18 19  2  0  0  0  0
 18 20  1  0  0  0  0
 20 25  1  0  0  0  0
 20 21  2  0  0  0  0
 21 22  1  0  0  0  0
 21 42  1  0  0  0  0
 22 23  2  0  0  0  0
 22 43  1  0  0  0  0
 23 24  1  0  0  0  0
 23 44  1  0  0  0  0
 24 25  2  0  0  0  0
 24 45  1  0  0  0  0
 25 46  1  0  0  0  0
 26 27  1  0  0  0  0
 26 28  1  0  0  0  0
 26 47  1  0  0  0  0
 28 29  1  0  0  0  0
 28 48  1  0  0  0  0
 29 49  1  0  0  0  0
 30 35  1  0  0  0  0
 30 31  2  0  0  0  0
 31 32  1  0  0  0  0
 31 50  1  0  0  0  0
 32 33  2  0  0  0  0
 32 51  1  0  0  0  0
 33 34  1  0  0  0  0
 33 52  1  0  0  0  0
 34 35  2  0  0  0  0
 34 53  1  0  0  0  0
 35 54  1  0  0  0  0
M  CHG  1   3  -1
M  END
> <s_m_source_file>
AV-unprocessed.smi

> <i_m_source_file_index>
34

> <i_lp_mmshare_version>
43012

> <i_f3d_flags>
0

> <s_epik_input>
W2NIXTFbY0hdW2NIXVtjSF1bY0hdYzFDKD1PKVtOSF1jKG5bY0hdbjIpYyhjMjMpbltjSF1uM1tDQEBIXTRPW0NASF0oW0NAQEhdKEYpW0NASF00W09IXSlbQ0gyXU9DKD1PKWM1W2NIXVtjSF1bY0hdW2NIXVtjSF01

> <s_epik_cmdline>
J2VwaWtfcHl0aG9uJywgJy1waCcsICc3LjAnLCAnLXRuJywgJzgnLCAnLW1hJywgJzIwMCcsICctbWV0YWxfYmluZGluZycsICctaW1hZScsICc8aW5maWxlLm1hZT4nLCAnLW9tYWUnLCAnPG91dGZpbGUubWFlPic=

> <r_lp_tautomer_probability>
1

> <r_epik_Ionization_Penalty>
4.33227

> <r_epik_Ionization_Penalty_Charging>
3.41027

> <r_epik_Ionization_Penalty_Neutral>
0.922001

> <r_epik_State_Penalty>
3.41358

> <r_epik_Charging_Adjusted_Penalty>
6.82385

> <i_epik_Tot_Q>
-1

> <i_epik_Tot_abs_Q>
1

> <r_epik_Metal_State_Penalty>
0.496292

> <b_epik_Metal_Only>
1

> <s_epik_Chemistry_Notes>
This compound has an ester and may undergo hydrolysis at high or low pH. This compound contains an acetal/aminal-like group ( X-CH(R)-Y where X, Y are N, S, or O) that may be acid/base labile, releasing an aldehyde.

> <s_lp_Force_Field>
OPLS_2005

> <r_lp_Energy>
50.7645

> <b_lp_Chiralities_Consistent>
1

> <s_lp_Variant>
AV-unprocessed.smi:34-27

> <Gold.Version>
5.8.1

> <Gold.Id.Protein>
6NUR|6NUR_protein|mol2

> <Gold.PLP.Fitness>
60.3302

> <Gold.PLP.PLP>
-55.8835

> <Gold.PLP.part.hbond>
-3.0000

> <Gold.PLP.part.metal>
0.0000

> <Gold.PLP.part.buried>
-5.9125

> <Gold.PLP.part.nonpolar>
-47.6182

> <Gold.PLP.part.repulsive>
1.2972

> <Gold.PLP.ligand.clash>
0.0000

> <Gold.PLP.ligand.torsion>
1.0389

> <Gold.PLP.Chemscore.Hbond>
1.9760

> <Gold.PLP.Chemscore.CHOScore>
0.0000

> <Gold.PLP.Chemscore.Metal>
0.0000

> <Gold.Chemscore.Hbonds>
donor molecule, donor type, donor heavy atom, donor atom, acceptor molecule, acceptor atom, score
      P1  H  7997  8010       L1    19  0.90
      P1  H 10752 10764       L1    10  0.49

> <Gold.PLP.Chemscore.Internal.Correction>
0.5965

> <Gold.Rescore>
     Score         DG    S(hbond)    S(metal)    S(lipo)     H(rot)  DE(clash)    DE(int)     intcor
     15.97     -18.39       1.75        0.00     119.31       2.69       0.20       2.22       ----

> <Gold.Chemscore.Fitness>
15.9732

> <Gold.Chemscore.DG>
-18.3858

> <Gold.Chemscore.ZeroCoef>
-5.4800

> <Gold.Chemscore.Hbond>
1.7496

> <Gold.Chemscore.Metal>
0.0000

> <Gold.Chemscore.Lipo>
119.3134

> <Gold.Chemscore.Internal_Hbond>
0.0000

> <Gold.Chemscore.DEClash>
0.1963

> <Gold.Chemscore.DEInternal>
2.2162

> <Gold.Chemscore.Rot>
2.6944

> <Gold.Chemscore.Internal.Correction>
   9.000000E+99

> <Gold.Chemscore.Hbonds>
donor molecule, donor type, donor heavy atom, donor atom, acceptor molecule, acceptor atom, score
      P1  H  7997  8010       L1    19  0.83
      P1  H 10752 10764       L1    10  0.47

> <Gold.Chemscore.Hbond.Weighted>
-5.8436

> <Gold.Chemscore.Metal.Weighted>
-0.0000

> <Gold.Chemscore.Lipo.Weighted>
-13.9597

> <Gold.Chemscore.Internal_Hbond.Weighted>
0.0000

> <Gold.Chemscore.DEClash.Weighted>
0.1963

> <Gold.Chemscore.DEInternal.Weighted>
2.2162

> <Gold.Chemscore.Rot.Weighted>
6.8975

> <Gold.Chemscore.Internal.Correction.Weighted>
   9.000000E+99

> <Gold.Protein.RotatedTorsions>
[ 6907 6896 6895 6894 ] final   71.69 input  -60.11 | X-H torsion
[ 7974 7965 7964 7962 ] final  -36.19 input  175.53 | X-H torsion
[ 8008 7997 7996 7995 ] final   41.22 input   59.86 | X-H torsion
[ 10167 10162 10161 10158 ] final -152.68 input  -65.29 | X-H torsion
[ 10718 10713 10712 10709 ] final  -64.94 input   66.30 | X-H torsion
[ 10763 10752 10751 10750 ] final  -66.92 input  -60.55 | X-H torsion
[ 11005 11000 10999 10996 ] final -167.57 input  -57.11 | X-H torsion

> <Gold.Protein.ActiveResidues>
 VAL166  LYS551  ARG553  GLY616  TRP617  ASP618  TYR619  PRO620  LYS621  CYS622 
 ASP623  PHE694  ASN695  SER759  ASP760  ASP761  ALA762  ILE779  LEU786  VAL792 
 PHE793  MET794  SER795  GLU796  ALA797  LYS798  CYS799  TRP800  GLU811  SER814 

> <Gold.Protein.RotatedAtoms>
  152.4824  134.4683  159.9627 H   0  0  0  0  0  0  0  0  0  0  0  0  # atno 6907 bound_to 6896
  151.4686  133.3568  159.2828 H   0  0  0  0  0  0  0  0  0  0  0  0  # atno 6908 bound_to 6896
  150.8908  134.8336  159.7352 H   0  0  0  0  0  0  0  0  0  0  0  0  # atno 6909 bound_to 6896
  146.0683  140.6248  142.8964 H   0  0  0  0  0  0  0  0  0  0  0  0  # atno 7974 bound_to 7965
  155.2660  140.3362  155.4269 H   0  0  0  0  0  0  0  0  0  0  0  0  # atno 8008 bound_to 7997
  156.2154  140.1786  156.7644 H   0  0  0  0  0  0  0  0  0  0  0  0  # atno 8009 bound_to 7997
  154.5745  140.0664  156.8999 H   0  0  0  0  0  0  0  0  0  0  0  0  # atno 8010 bound_to 7997
  139.7161  143.9032  152.2486 H   0  0  0  0  0  0  0  0  0  0  0  0  # atno 10167 bound_to 10162
  156.0699  130.4240  150.1493 H   0  0  0  0  0  0  0  0  0  0  0  0  # atno 10718 bound_to 10713
  154.3669  135.6104  153.5719 H   0  0  0  0  0  0  0  0  0  0  0  0  # atno 10763 bound_to 10752
  152.9791  135.5828  154.4568 H   0  0  0  0  0  0  0  0  0  0  0  0  # atno 10764 bound_to 10752
  154.4315  135.2848  155.1887 H   0  0  0  0  0  0  0  0  0  0  0  0  # atno 10765 bound_to 10752
  140.5518  134.5421  157.5124 H   0  0  0  0  0  0  0  0  0  0  0  0  # atno 11005 bound_to 11000
  144.7216  140.4391  143.7004 LP  0  0  0  0  0  0  0  0  0  0  0  0  # atno 17320 bound_to 7965
  145.6438  139.1554  143.2901 LP  0  0  0  0  0  0  0  0  0  0  0  0  # atno 17321 bound_to 7965
  139.8914  144.6963  150.8766 LP  0  0  0  0  0  0  0  0  0  0  0  0  # atno 17342 bound_to 10162
  140.7744  143.3583  151.1878 LP  0  0  0  0  0  0  0  0  0  0  0  0  # atno 17343 bound_to 10162
  156.9545  130.9785  151.3491 LP  0  0  0  0  0  0  0  0  0  0  0  0  # atno 17370 bound_to 10713
  157.5763  130.8345  149.8460 LP  0  0  0  0  0  0  0  0  0  0  0  0  # atno 17371 bound_to 10713
  139.9451  134.7716  156.0581 LP  0  0  0  0  0  0  0  0  0  0  0  0  # atno 17394 bound_to 11000
  141.1167  133.6625  156.3112 LP  0  0  0  0  0  0  0  0  0  0  0  0  # atno 17395 bound_to 11000

$$$$
