AV-unprocessed.smi:93|AV-procd|sdf|849|dock1
  -GOLD-   2262017293D 1   1.00000     0.00000
 Structure written by MMmdl.
 50 52  0  0  0  0  0  0  0  0  1 V2000
  150.0326  129.7116  154.2415 C   0  0  0  0  0  0  0  0  0  0  0  0
  149.4696  131.0558  154.3091 N   0  0  0  0  0  0  0  0  0  0  0  0
  148.5442  131.5042  153.2605 C   0  0  0  0  0  0  0  0  0  0  0  0
  147.1220  130.8676  153.3148 C   0  0  0  0  0  0  0  0  0  0  0  0
  146.4990  131.0228  154.7215 C   0  0  0  0  0  0  0  0  0  0  0  0
  146.2309  131.5921  152.2704 C   0  0  0  0  0  0  0  0  0  0  0  0
  146.7375  131.4829  150.9542 O   0  0  0  0  0  0  0  0  0  0  0  0
  147.2044  129.3620  152.9462 C   0  0  0  0  0  0  0  0  0  0  0  0
  147.6902  129.1438  151.6359 O   0  0  0  0  0  0  0  0  0  0  0  0
  149.8558  131.8895  155.3150 C   0  0  0  0  0  0  0  0  0  0  0  0
  150.4257  131.3522  156.4262 N   0  0  0  0  0  0  0  0  0  0  0  0
  150.8271  132.1303  157.4342 C   0  0  0  0  0  0  0  0  0  0  0  0
  150.7606  133.4574  157.5389 N   0  0  0  0  0  0  0  0  0  0  0  0
  150.1969  134.0118  156.4284 C   0  0  0  0  0  0  0  0  0  0  0  0
  149.7151  133.3106  155.2845 C   0  0  0  0  0  0  0  0  0  0  0  0
  149.2155  134.2229  154.3604 N   0  0  0  0  0  0  0  0  0  0  0  0
  149.3859  135.3863  154.9246 C   0  0  0  0  0  0  0  0  0  0  0  0
  149.9822  135.3536  156.1638 N   0  0  0  0  0  0  0  0  0  0  0  0
  150.3026  136.4964  157.0061 C   0  0  0  0  0  0  0  0  0  0  0  0
  151.3566  137.4434  156.3848 C   0  0  1  0  0  0  0  0  0  0  0  0
  152.5780  136.7385  156.2392 O   0  0  0  0  0  0  0  0  0  0  0  0
  150.9466  137.9758  155.0180 C   0  0  0  0  0  0  0  0  0  0  0  0
  151.6755  139.3108  154.9472 C   0  0  0  0  0  0  0  0  0  0  0  0
  151.5470  139.8147  156.2660 O   0  0  0  0  0  0  0  0  0  0  0  0
  151.6286  138.7320  157.1891 C   0  0  0  0  0  0  0  0  0  0  0  0
  151.1019  129.7282  154.4546 H   0  0  0  0  0  0  0  0  0  0  0  0
  149.9018  129.2792  153.2495 H   0  0  0  0  0  0  0  0  0  0  0  0
  149.5459  129.0508  154.9585 H   0  0  0  0  0  0  0  0  0  0  0  0
  148.4715  132.5916  153.2612 H   0  0  0  0  0  0  0  0  0  0  0  0
  148.9950  131.2662  152.2966 H   0  0  0  0  0  0  0  0  0  0  0  0
  145.4593  130.6950  154.7364 H   0  0  0  0  0  0  0  0  0  0  0  0
  146.5153  132.0607  155.0551 H   0  0  0  0  0  0  0  0  0  0  0  0
  147.0319  130.4311  155.4658 H   0  0  0  0  0  0  0  0  0  0  0  0
  145.2200  131.1835  152.2830 H   0  0  0  0  0  0  0  0  0  0  0  0
  146.1411  132.6543  152.5005 H   0  0  0  0  0  0  0  0  0  0  0  0
  147.6334  131.1861  151.0011 H   0  0  0  0  0  0  0  0  0  0  0  0
  147.8501  128.8303  153.6460 H   0  0  0  0  0  0  0  0  0  0  0  0
  146.2214  128.8950  153.0036 H   0  0  0  0  0  0  0  0  0  0  0  0
  148.0203  129.9622  151.2979 H   0  0  0  0  0  0  0  0  0  0  0  0
  151.2659  131.6152  158.2760 H   0  0  0  0  0  0  0  0  0  0  0  0
  149.0890  136.3075  154.4444 H   0  0  0  0  0  0  0  0  0  0  0  0
  149.3792  137.0400  157.2109 H   0  0  0  0  0  0  0  0  0  0  0  0
  150.6550  136.1232  157.9685 H   0  0  0  0  0  0  0  0  0  0  0  0
  153.1498  136.9808  156.9513 H   0  0  0  0  0  0  0  0  0  0  0  0
  151.1930  137.3067  154.1923 H   0  0  0  0  0  0  0  0  0  0  0  0
  149.8713  138.1569  154.9893 H   0  0  0  0  0  0  0  0  0  0  0  0
  152.7311  139.1694  154.7101 H   0  0  0  0  0  0  0  0  0  0  0  0
  151.2439  139.9908  154.2128 H   0  0  0  0  0  0  0  0  0  0  0  0
  150.8815  138.9006  157.9637 H   0  0  0  0  0  0  0  0  0  0  0  0
  152.6053  138.7201  157.6752 H   0  0  0  0  0  0  0  0  0  0  0  0
  1  2  1  0  0  0  0
  1 26  1  0  0  0  0
  1 27  1  0  0  0  0
  1 28  1  0  0  0  0
  2  3  1  0  0  0  0
  2 10  1  0  0  0  0
  3  4  1  0  0  0  0
  3 29  1  0  0  0  0
  3 30  1  0  0  0  0
  4  5  1  0  0  0  0
  4  6  1  0  0  0  0
  4  8  1  0  0  0  0
  5 31  1  0  0  0  0
  5 32  1  0  0  0  0
  5 33  1  0  0  0  0
  6  7  1  0  0  0  0
  6 34  1  0  0  0  0
  6 35  1  0  0  0  0
  7 36  1  0  0  0  0
  8  9  1  0  0  0  0
  8 37  1  0  0  0  0
  8 38  1  0  0  0  0
  9 39  1  0  0  0  0
 10 15  1  0  0  0  0
 10 11  2  0  0  0  0
 11 12  1  0  0  0  0
 12 13  2  0  0  0  0
 12 40  1  0  0  0  0
 13 14  1  0  0  0  0
 14 18  1  0  0  0  0
 14 15  2  0  0  0  0
 15 16  1  0  0  0  0
 16 17  2  0  0  0  0
 17 18  1  0  0  0  0
 17 41  1  0  0  0  0
 18 19  1  0  0  0  0
 19 20  1  0  0  0  0
 19 42  1  0  0  0  0
 19 43  1  0  0  0  0
 20 25  1  0  0  0  0
 20 21  1  0  0  0  0
 20 22  1  0  0  0  0
 21 44  1  0  0  0  0
 22 23  1  0  0  0  0
 22 45  1  0  0  0  0
 22 46  1  0  0  0  0
 23 24  1  0  0  0  0
 23 47  1  0  0  0  0
 23 48  1  0  0  0  0
 24 25  1  0  0  0  0
 25 49  1  0  0  0  0
 25 50  1  0  0  0  0
M  END
> <s_m_source_file>
AV-unprocessed.smi

> <i_m_source_file_index>
93

> <i_lp_mmshare_version>
43012

> <i_f3d_flags>
0

> <s_epik_input>
W09IXVtDSDJdQyhbQ0gzXSkoW0NIMl1bT0hdKVtDSDJdTihbQ0gzXSljKG5bY0hdbjEpYyhjMTIpbltjSF1uMltDSDJdW0NAQF0zKFtPSF0pW0NIMl1bQ0gyXU9bQ0gyXTM=

> <s_epik_cmdline>
J2VwaWtfcHl0aG9uJywgJy1waCcsICc3LjAnLCAnLXRuJywgJzgnLCAnLW1hJywgJzIwMCcsICctbWV0YWxfYmluZGluZycsICctaW1hZScsICc8aW5maWxlLm1hZT4nLCAnLW9tYWUnLCAnPG91dGZpbGUubWFlPic=

> <r_lp_tautomer_probability>
1

> <r_epik_Ionization_Penalty>
0.00325397

> <r_epik_Ionization_Penalty_Charging>
0

> <r_epik_Ionization_Penalty_Neutral>
0.00325397

> <r_epik_State_Penalty>
0.00225047

> <r_epik_Charging_Adjusted_Penalty>
0.00225047

> <i_epik_Tot_Q>
0

> <i_epik_Tot_abs_Q>
0

> <r_epik_Metal_State_Penalty>
-0

> <b_epik_Metal_Only>
0

> <s_lp_Force_Field>
OPLS_2005

> <r_lp_Energy>
39.2325

> <b_lp_Chiralities_Consistent>
1

> <s_lp_Variant>
AV-unprocessed.smi:93-1

> <Gold.Version>
5.8.1

> <Gold.Id.Protein>
6NUR|6NUR_protein|mol2

> <Gold.PLP.Fitness>
49.9289

> <Gold.PLP.PLP>
-34.4426

> <Gold.PLP.part.hbond>
-4.0289

> <Gold.PLP.part.metal>
0.0000

> <Gold.PLP.part.buried>
-4.0687

> <Gold.PLP.part.nonpolar>
-27.9462

> <Gold.PLP.part.repulsive>
0.5905

> <Gold.PLP.ligand.clash>
0.0000

> <Gold.PLP.ligand.torsion>
0.3528

> <Gold.PLP.Chemscore.Hbond>
4.4700

> <Gold.PLP.Chemscore.CHOScore>
0.7429

> <Gold.PLP.Chemscore.Metal>
0.0000

> <Gold.Chemscore.Hbonds>
donor molecule, donor type, donor heavy atom, donor atom, acceptor molecule, acceptor atom, score
      L1  H     7    36       P1 10747  0.98
      L1  H     9    39       P1 10747  1.00
      P1  H  6896  6907       L1    13  0.78
      P1  H 10752 10764       L1    21  0.82
      L1  C    17    41       P1  7948  0.63

> <Gold.PLP.Chemscore.Internal.Correction>
0.5532

> <Gold.Rescore>
     Score         DG    S(hbond)    S(metal)    S(lipo)     H(rot)  DE(clash)    DE(int)     intcor
     12.50     -13.83       3.92        0.00      60.06       4.60       0.33       1.00       ----

> <Gold.Chemscore.Fitness>
12.4971

> <Gold.Chemscore.DG>
-13.8308

> <Gold.Chemscore.ZeroCoef>
-5.4800

> <Gold.Chemscore.Hbond>
3.9227

> <Gold.Chemscore.Metal>
0.0000

> <Gold.Chemscore.Lipo>
60.0650

> <Gold.Chemscore.Internal_Hbond>
0.0000

> <Gold.Chemscore.DEClash>
0.3350

> <Gold.Chemscore.DEInternal>
0.9987

> <Gold.Chemscore.Rot>
4.6010

> <Gold.Chemscore.Internal.Correction>
   9.000000E+99

> <Gold.Chemscore.Hbonds>
donor molecule, donor type, donor heavy atom, donor atom, acceptor molecule, acceptor atom, score
      L1  H     7    36       P1 10747  0.90
      L1  H     9    39       P1 10747  0.92
      P1  H  6896  6907       L1    13  0.15
      P1  H 10752 10764       L1    21  0.81

> <Gold.Chemscore.Hbond.Weighted>
-13.1019

> <Gold.Chemscore.Metal.Weighted>
-0.0000

> <Gold.Chemscore.Lipo.Weighted>
-7.0276

> <Gold.Chemscore.Internal_Hbond.Weighted>
0.0000

> <Gold.Chemscore.DEClash.Weighted>
0.3350

> <Gold.Chemscore.DEInternal.Weighted>
0.9987

> <Gold.Chemscore.Rot.Weighted>
11.7787

> <Gold.Chemscore.Internal.Correction.Weighted>
   9.000000E+99

> <Gold.Protein.RotatedTorsions>
[ 6907 6896 6895 6894 ] final -139.11 input  -60.11 | X-H torsion
[ 7974 7965 7964 7962 ] final   -7.71 input  175.53 | X-H torsion
[ 8008 7997 7996 7995 ] final   75.90 input   59.86 | X-H torsion
[ 10167 10162 10161 10158 ] final  -15.36 input  -65.29 | X-H torsion
[ 10718 10713 10712 10709 ] final   41.24 input   66.30 | X-H torsion
[ 10763 10752 10751 10750 ] final  -42.41 input  -60.55 | X-H torsion
[ 11005 11000 10999 10996 ] final  101.46 input  -57.11 | X-H torsion

> <Gold.Protein.ActiveResidues>
 VAL166  LYS551  ARG553  GLY616  TRP617  ASP618  TYR619  PRO620  LYS621  CYS622 
 ASP623  PHE694  ASN695  SER759  ASP760  ASP761  ALA762  ILE779  LEU786  VAL792 
 PHE793  MET794  SER795  GLU796  ALA797  LYS798  CYS799  TRP800  GLU811  SER814 

> <Gold.Protein.RotatedAtoms>
  151.0436  133.5684  159.2648 H   0  0  0  0  0  0  0  0  0  0  0  0  # atno 6907 bound_to 6896
  151.2722  135.0687  159.9148 H   0  0  0  0  0  0  0  0  0  0  0  0  # atno 6908 bound_to 6896
  152.5369  134.0164  159.8016 H   0  0  0  0  0  0  0  0  0  0  0  0  # atno 6909 bound_to 6896
  146.2299  140.2360  142.8342 H   0  0  0  0  0  0  0  0  0  0  0  0  # atno 7974 bound_to 7965
  155.8196  140.3470  155.5506 H   0  0  0  0  0  0  0  0  0  0  0  0  # atno 8008 bound_to 7997
  155.8356  140.0933  157.1786 H   0  0  0  0  0  0  0  0  0  0  0  0  # atno 8009 bound_to 7997
  154.4004  140.1404  156.3654 H   0  0  0  0  0  0  0  0  0  0  0  0  # atno 8010 bound_to 7997
  140.7217  143.5226  150.9615 H   0  0  0  0  0  0  0  0  0  0  0  0  # atno 10167 bound_to 10162
  157.3913  130.7808  149.7271 H   0  0  0  0  0  0  0  0  0  0  0  0  # atno 10718 bound_to 10713
  153.9785  135.6720  153.4749 H   0  0  0  0  0  0  0  0  0  0  0  0  # atno 10763 bound_to 10752
  153.0759  135.4949  154.8400 H   0  0  0  0  0  0  0  0  0  0  0  0  # atno 10764 bound_to 10752
  154.7178  135.3110  154.9057 H   0  0  0  0  0  0  0  0  0  0  0  0  # atno 10765 bound_to 10752
  139.8773  134.9184  156.4910 H   0  0  0  0  0  0  0  0  0  0  0  0  # atno 11005 bound_to 11000
  144.9521  140.8189  143.5566 LP  0  0  0  0  0  0  0  0  0  0  0  0  # atno 17320 bound_to 7965
  145.2322  139.2110  143.5037 LP  0  0  0  0  0  0  0  0  0  0  0  0  # atno 17321 bound_to 7965
  139.8944  143.6913  152.3140 LP  0  0  0  0  0  0  0  0  0  0  0  0  # atno 17342 bound_to 10162
  139.7240  144.7597  151.0909 LP  0  0  0  0  0  0  0  0  0  0  0  0  # atno 17343 bound_to 10162
  155.9799  130.4035  150.3560 LP  0  0  0  0  0  0  0  0  0  0  0  0  # atno 17370 bound_to 10713
  157.1676  131.0361  151.2811 LP  0  0  0  0  0  0  0  0  0  0  0  0  # atno 17371 bound_to 10713
  140.8659  133.8025  155.9313 LP  0  0  0  0  0  0  0  0  0  0  0  0  # atno 17394 bound_to 11000
  140.9002  134.2387  157.5046 LP  0  0  0  0  0  0  0  0  0  0  0  0  # atno 17395 bound_to 11000

$$$$
