AV-unprocessed.smi:3275|AV-procd|sdf|12531|dock4
  -GOLD-   2272018443D 1   1.00000     0.00000
 Structure written by MMmdl.
 35 36  0  0  0  0  0  0  0  0  2 V2000
  147.9571  125.9887  152.7800 O   0  0  0  0  0  0  0  0  0  0  0  0
  148.7388  127.0464  152.2684 C   0  0  0  0  0  0  0  0  0  0  0  0
  147.8638  128.2854  152.0527 C   0  0  0  0  0  0  0  0  0  0  0  0
  147.4121  128.7483  153.3170 O   0  0  0  0  0  0  0  0  0  0  0  0
  147.3420  130.1631  153.4364 C   0  0  1  0  0  0  0  0  0  0  0  0
  148.7497  130.7961  153.4389 C   0  0  0  0  0  0  0  0  0  0  0  0
  148.6480  132.3297  153.4000 C   0  0  0  0  0  0  0  0  0  0  0  0
  147.7886  132.7985  152.2142 C   0  0  0  0  0  0  0  0  0  0  0  0
  146.4833  132.1436  152.2351 N   0  0  0  0  0  0  0  0  0  0  0  0
  145.5275  132.7517  151.4015 C   0  0  0  0  0  0  0  0  0  0  0  0
  144.8666  132.0231  150.3807 C   0  0  0  0  0  0  0  0  0  0  0  0
  143.9237  132.6716  149.5582 C   0  0  0  0  0  0  0  0  0  0  0  0
  143.6554  133.9806  149.7460 N   0  3  0  0  0  0  0  0  0  0  0  0
  144.2560  134.7175  150.7040 C   0  0  0  0  0  0  0  0  0  0  0  0
  145.2078  134.1257  151.5594 C   0  0  0  0  0  0  0  0  0  0  0  0
  145.9365  135.0915  152.7957 Cl  0  0  0  0  0  0  0  0  0  0  0  0
  146.5293  130.6829  152.2370 C   0  0  0  0  0  0  0  0  0  0  0  0
  148.1970  125.1930  152.3303 H   0  0  0  0  0  0  0  0  0  0  0  0
  149.5460  127.2646  152.9678 H   0  0  0  0  0  0  0  0  0  0  0  0
  149.1944  126.7316  151.3294 H   0  0  0  0  0  0  0  0  0  0  0  0
  148.4401  129.0654  151.5529 H   0  0  0  0  0  0  0  0  0  0  0  0
  147.0196  128.0342  151.4105 H   0  0  0  0  0  0  0  0  0  0  0  0
  146.8126  130.4339  154.3520 H   0  0  0  0  0  0  0  0  0  0  0  0
  149.3133  130.4937  154.3208 H   0  0  0  0  0  0  0  0  0  0  0  0
  149.3117  130.4455  152.5724 H   0  0  0  0  0  0  0  0  0  0  0  0
  148.2086  132.6888  154.3316 H   0  0  0  0  0  0  0  0  0  0  0  0
  149.6433  132.7700  153.3371 H   0  0  0  0  0  0  0  0  0  0  0  0
  147.6791  133.8829  152.2456 H   0  0  0  0  0  0  0  0  0  0  0  0
  148.2888  132.5598  151.2746 H   0  0  0  0  0  0  0  0  0  0  0  0
  145.0791  130.9779  150.2114 H   0  0  0  0  0  0  0  0  0  0  0  0
  143.3827  132.1859  148.7591 H   0  0  0  0  0  0  0  0  0  0  0  0
  143.9550  135.7532  150.7620 H   0  0  0  0  0  0  0  0  0  0  0  0
  146.9860  130.3320  151.3107 H   0  0  0  0  0  0  0  0  0  0  0  0
  145.5164  130.2794  152.2730 H   0  0  0  0  0  0  0  0  0  0  0  0
  142.9694  134.4316  149.1400 H   0  0  0  0  0  0  0  0  0  0  0  0
  1  2  1  0  0  0  0
  1 18  1  0  0  0  0
  2  3  1  0  0  0  0
  2 19  1  0  0  0  0
  2 20  1  0  0  0  0
  3  4  1  0  0  0  0
  3 21  1  0  0  0  0
  3 22  1  0  0  0  0
  4  5  1  0  0  0  0
  5 17  1  0  0  0  0
  5  6  1  0  0  0  0
  5 23  1  0  0  0  0
  6  7  1  0  0  0  0
  6 24  1  0  0  0  0
  6 25  1  0  0  0  0
  7  8  1  0  0  0  0
  7 26  1  0  0  0  0
  7 27  1  0  0  0  0
  8  9  1  0  0  0  0
  8 28  1  0  0  0  0
  8 29  1  0  0  0  0
  9 10  1  0  0  0  0
  9 17  1  0  0  0  0
 10 15  1  0  0  0  0
 10 11  2  0  0  0  0
 11 12  1  0  0  0  0
 11 30  1  0  0  0  0
 12 13  2  0  0  0  0
 12 31  1  0  0  0  0
 13 14  1  0  0  0  0
 13 35  1  0  0  0  0
 14 15  2  0  0  0  0
 14 32  1  0  0  0  0
 15 16  1  0  0  0  0
 17 33  1  0  0  0  0
 17 34  1  0  0  0  0
M  CHG  1  13   1
M  END
> <s_m_source_file>
AV-unprocessed.smi

> <i_m_source_file_index>
3275

> <i_lp_mmshare_version>
43012

> <i_f3d_flags>
0

> <s_epik_input>
W09IXVtDSDJdW0NIMl1PW0NAQEhdMVtDSDJdW0NIMl1bQ0gyXU4oW0NIMl0xKWMyW2NIXVtjSF1uW2NIXWMyQ2w=

> <s_epik_cmdline>
J2VwaWtfcHl0aG9uJywgJy1waCcsICc3LjAnLCAnLXRuJywgJzgnLCAnLW1hJywgJzIwMCcsICctbWV0YWxfYmluZGluZycsICctaW1hZScsICc8aW5maWxlLm1hZT4nLCAnLW9tYWUnLCAnPG91dGZpbGUubWFlPic=

> <r_lp_tautomer_probability>
1

> <r_epik_Ionization_Penalty>
0.0778579

> <r_epik_Ionization_Penalty_Charging>
0.0778578

> <r_epik_Ionization_Penalty_Neutral>
8.80348e-08

> <r_epik_State_Penalty>
0.0687871

> <r_epik_Charging_Adjusted_Penalty>
0.146645

> <i_epik_Tot_Q>
1

> <i_epik_Tot_abs_Q>
1

> <r_epik_Metal_State_Penalty>
2.85646

> <b_epik_Metal_Only>
0

> <s_lp_Force_Field>
OPLS_2005

> <r_lp_Energy>
26.1135

> <b_lp_Chiralities_Consistent>
1

> <s_lp_Variant>
AV-unprocessed.smi:3275-2

> <Gold.Version>
5.8.1

> <Gold.Id.Protein>
6NUR|6NUR_protein|mol2

> <Gold.PLP.Fitness>
33.6736

> <Gold.PLP.PLP>
-31.7456

> <Gold.PLP.part.hbond>
-1.6783

> <Gold.PLP.part.metal>
0.0000

> <Gold.PLP.part.buried>
-2.9113

> <Gold.PLP.part.nonpolar>
-27.4286

> <Gold.PLP.part.repulsive>
0.2563

> <Gold.PLP.ligand.clash>
0.0000

> <Gold.PLP.ligand.torsion>
0.4904

> <Gold.PLP.Chemscore.Hbond>
0.8640

> <Gold.PLP.Chemscore.CHOScore>
0.0000

> <Gold.PLP.Chemscore.Metal>
0.0000

> <Gold.Chemscore.Hbonds>
donor molecule, donor type, donor heavy atom, donor atom, acceptor molecule, acceptor atom, score
      L1  H    13    35       P1 10186  0.93

> <Gold.PLP.Chemscore.Internal.Correction>
0.3168

> <Gold.Rescore>
     Score         DG    S(hbond)    S(metal)    S(lipo)     H(rot)  DE(clash)    DE(int)     intcor
     11.17     -11.81       0.62        0.00      83.27       2.14       0.01       0.63       ----

> <Gold.Chemscore.Fitness>
11.1744

> <Gold.Chemscore.DG>
-11.8134

> <Gold.Chemscore.ZeroCoef>
-5.4800

> <Gold.Chemscore.Hbond>
0.6195

> <Gold.Chemscore.Metal>
0.0000

> <Gold.Chemscore.Lipo>
83.2700

> <Gold.Chemscore.Internal_Hbond>
0.0000

> <Gold.Chemscore.DEClash>
0.0106

> <Gold.Chemscore.DEInternal>
0.6283

> <Gold.Chemscore.Rot>
2.1400

> <Gold.Chemscore.Internal.Correction>
   9.000000E+99

> <Gold.Chemscore.Hbonds>
donor molecule, donor type, donor heavy atom, donor atom, acceptor molecule, acceptor atom, score
      L1  H    13    35       P1 10186  0.44

> <Gold.Chemscore.Hbond.Weighted>
-2.0691

> <Gold.Chemscore.Metal.Weighted>
-0.0000

> <Gold.Chemscore.Lipo.Weighted>
-9.7426

> <Gold.Chemscore.Internal_Hbond.Weighted>
0.0000

> <Gold.Chemscore.DEClash.Weighted>
0.0106

> <Gold.Chemscore.DEInternal.Weighted>
0.6283

> <Gold.Chemscore.Rot.Weighted>
5.4783

> <Gold.Chemscore.Internal.Correction.Weighted>
   9.000000E+99

> <Gold.Protein.RotatedTorsions>
[ 6907 6896 6895 6894 ] final  109.90 input  -60.11 | X-H torsion
[ 7974 7965 7964 7962 ] final   58.83 input  175.53 | X-H torsion
[ 8008 7997 7996 7995 ] final  145.29 input   59.86 | X-H torsion
[ 10167 10162 10161 10158 ] final -147.02 input  -65.29 | X-H torsion
[ 10718 10713 10712 10709 ] final  -97.10 input   66.30 | X-H torsion
[ 10763 10752 10751 10750 ] final -144.59 input  -60.55 | X-H torsion
[ 11005 11000 10999 10996 ] final  123.41 input  -57.11 | X-H torsion

> <Gold.Protein.ActiveResidues>
 VAL166  LYS551  ARG553  GLY616  TRP617  ASP618  TYR619  PRO620  LYS621  CYS622 
 ASP623  PHE694  ASN695  SER759  ASP760  ASP761  ALA762  ILE779  LEU786  VAL792 
 PHE793  MET794  SER795  GLU796  ALA797  LYS798  CYS799  TRP800  GLU811  SER814 

> <Gold.Protein.RotatedAtoms>
  152.5045  133.8878  159.7378 H   0  0  0  0  0  0  0  0  0  0  0  0  # atno 6907 bound_to 6896
  150.9324  133.6742  159.2814 H   0  0  0  0  0  0  0  0  0  0  0  0  # atno 6908 bound_to 6896
  151.4082  135.0986  159.9629 H   0  0  0  0  0  0  0  0  0  0  0  0  # atno 6909 bound_to 6896
  145.9138  139.3675  143.0519 H   0  0  0  0  0  0  0  0  0  0  0  0  # atno 7974 bound_to 7965
  156.2887  140.2213  156.5191 H   0  0  0  0  0  0  0  0  0  0  0  0  # atno 8008 bound_to 7997
  154.7544  140.0478  157.0942 H   0  0  0  0  0  0  0  0  0  0  0  0  # atno 8009 bound_to 7997
  155.0069  140.3108  155.4848 H   0  0  0  0  0  0  0  0  0  0  0  0  # atno 8010 bound_to 7997
  139.7660  143.8307  152.2616 H   0  0  0  0  0  0  0  0  0  0  0  0  # atno 10167 bound_to 10162
  156.0076  130.5180  150.6324 H   0  0  0  0  0  0  0  0  0  0  0  0  # atno 10718 bound_to 10713
  154.8421  135.3436  154.6370 H   0  0  0  0  0  0  0  0  0  0  0  0  # atno 10763 bound_to 10752
  153.6980  135.6971  153.5075 H   0  0  0  0  0  0  0  0  0  0  0  0  # atno 10764 bound_to 10752
  153.2544  135.4343  155.0785 H   0  0  0  0  0  0  0  0  0  0  0  0  # atno 10765 bound_to 10752
  139.9311  134.9641  156.8255 H   0  0  0  0  0  0  0  0  0  0  0  0  # atno 11005 bound_to 11000
  145.8637  140.9460  143.0686 LP  0  0  0  0  0  0  0  0  0  0  0  0  # atno 17320 bound_to 7965
  144.6746  140.0564  143.7477 LP  0  0  0  0  0  0  0  0  0  0  0  0  # atno 17321 bound_to 7965
  139.8327  144.7246  150.9430 LP  0  0  0  0  0  0  0  0  0  0  0  0  # atno 17342 bound_to 10162
  140.7811  143.4055  151.1078 LP  0  0  0  0  0  0  0  0  0  0  0  0  # atno 17343 bound_to 10162
  157.4120  131.0825  151.1212 LP  0  0  0  0  0  0  0  0  0  0  0  0  # atno 17370 bound_to 10713
  157.1841  130.6322  149.5682 LP  0  0  0  0  0  0  0  0  0  0  0  0  # atno 17371 bound_to 10713
  140.6199  134.0004  155.7613 LP  0  0  0  0  0  0  0  0  0  0  0  0  # atno 17394 bound_to 11000
  141.0900  133.9931  157.3251 LP  0  0  0  0  0  0  0  0  0  0  0  0  # atno 17395 bound_to 11000

$$$$
