AV-unprocessed.smi:2444|AV-procd|sdf|9632|dock1
  -GOLD-   2272013263D 1   1.00000     0.00000
 Structure written by MMmdl.
 18 18  0  0  0  0  0  0  0  0  2 V2000
  142.1533  132.6440  148.1608 N   0  3  0  0  0  0  0  0  0  0  0  0
  143.5854  132.6264  148.5037 C   0  0  0  0  0  0  0  0  0  0  0  0
  143.8111  132.1456  149.9434 C   0  0  0  0  0  0  0  0  0  0  0  0
  145.0241  132.7547  150.5632 C   0  0  0  0  0  0  0  0  0  0  0  0
  146.1676  132.1369  150.8804 N   0  0  0  0  0  0  0  0  0  0  0  0
  147.0040  133.1167  151.3729 N   0  0  0  0  0  0  0  0  0  0  0  0
  146.2981  134.2436  151.2945 C   0  0  0  0  0  0  0  0  0  0  0  0
  146.6502  135.5342  151.6498 N   0  0  0  0  0  0  0  0  0  0  0  0
  145.0509  134.0956  150.7852 O   0  0  0  0  0  0  0  0  0  0  0  0
  142.0421  132.8904  147.1874 H   0  0  0  0  0  0  0  0  0  0  0  0
  141.6759  133.3236  148.7357 H   0  0  0  0  0  0  0  0  0  0  0  0
  144.1041  131.9734  147.8009 H   0  0  0  0  0  0  0  0  0  0  0  0
  143.9904  133.6301  148.3705 H   0  0  0  0  0  0  0  0  0  0  0  0
  142.9463  132.3884  150.5624 H   0  0  0  0  0  0  0  0  0  0  0  0
  143.9186  131.0603  149.9667 H   0  0  0  0  0  0  0  0  0  0  0  0
  147.5603  135.7431  152.0346 H   0  0  0  0  0  0  0  0  0  0  0  0
  145.9971  136.3004  151.5741 H   0  0  0  0  0  0  0  0  0  0  0  0
  141.7566  131.7291  148.3219 H   0  0  0  0  0  0  0  0  0  0  0  0
  1  2  1  0  0  0  0
  1 10  1  0  0  0  0
  1 11  1  0  0  0  0
  1 18  1  0  0  0  0
  2  3  1  0  0  0  0
  2 12  1  0  0  0  0
  2 13  1  0  0  0  0
  3  4  1  0  0  0  0
  3 14  1  0  0  0  0
  3 15  1  0  0  0  0
  4  9  1  0  0  0  0
  4  5  2  0  0  0  0
  5  6  1  0  0  0  0
  6  7  2  0  0  0  0
  7  8  1  0  0  0  0
  7  9  1  0  0  0  0
  8 16  1  0  0  0  0
  8 17  1  0  0  0  0
M  CHG  1   1   1
M  END
> <s_m_source_file>
AV-unprocessed.smi

> <i_m_source_file_index>
2444

> <i_lp_mmshare_version>
43012

> <i_f3d_flags>
0

> <s_epik_input>
W05IMl1bQ0gyXVtDSDJdYzFubmMobzEpW05IMl0=

> <s_epik_cmdline>
J2VwaWtfcHl0aG9uJywgJy1waCcsICc3LjAnLCAnLXRuJywgJzgnLCAnLW1hJywgJzIwMCcsICctbWV0YWxfYmluZGluZycsICctaW1hZScsICc8aW5maWxlLm1hZT4nLCAnLW9tYWUnLCAnPG91dGZpbGUubWFlPic=

> <r_lp_tautomer_probability>
0.999976

> <r_epik_Ionization_Penalty>
0.00128557

> <r_epik_Ionization_Penalty_Charging>
0.00128552

> <r_epik_Ionization_Penalty_Neutral>
5.30568e-08

> <r_epik_State_Penalty>
0.000852301

> <r_epik_Charging_Adjusted_Penalty>
0.00213782

> <i_epik_Tot_Q>
1

> <i_epik_Tot_abs_Q>
1

> <r_epik_Metal_State_Penalty>
-0

> <b_epik_Metal_Only>
0

> <s_lp_Force_Field>
OPLS_2005

> <r_lp_Energy>
0.265405

> <b_lp_Chiralities_Consistent>
1

> <s_lp_Variant>
AV-unprocessed.smi:2444-1

> <Gold.Version>
5.8.1

> <Gold.Id.Protein>
6NUR|6NUR_protein|mol2

> <Gold.PLP.Fitness>
33.4230

> <Gold.PLP.PLP>
-18.9042

> <Gold.PLP.part.hbond>
-3.8884

> <Gold.PLP.part.metal>
0.0000

> <Gold.PLP.part.buried>
-5.1081

> <Gold.PLP.part.nonpolar>
-11.6691

> <Gold.PLP.part.repulsive>
0.8355

> <Gold.PLP.ligand.clash>
0.0000

> <Gold.PLP.ligand.torsion>
0.2450

> <Gold.PLP.Chemscore.Hbond>
5.0000

> <Gold.PLP.Chemscore.CHOScore>
0.0000

> <Gold.PLP.Chemscore.Metal>
0.0000

> <Gold.Chemscore.Hbonds>
donor molecule, donor type, donor heavy atom, donor atom, acceptor molecule, acceptor atom, score
      L1  H     1    10       P1 10195  1.00
      L1  H     1    11       P1 10186  1.82
      L1  H     1    18       P1 10952  0.93
      L1  H     8    16       P1  7948  0.81

> <Gold.PLP.Chemscore.Internal.Correction>
0.0087

> <Gold.Rescore>
     Score         DG    S(hbond)    S(metal)    S(lipo)     H(rot)  DE(clash)    DE(int)     intcor
     17.19     -17.64       3.98        0.00      26.98       1.67       0.18       0.26       ----

> <Gold.Chemscore.Fitness>
17.1908

> <Gold.Chemscore.DG>
-17.6354

> <Gold.Chemscore.ZeroCoef>
-5.4800

> <Gold.Chemscore.Hbond>
3.9778

> <Gold.Chemscore.Metal>
0.0000

> <Gold.Chemscore.Lipo>
26.9792

> <Gold.Chemscore.Internal_Hbond>
0.0000

> <Gold.Chemscore.DEClash>
0.1842

> <Gold.Chemscore.DEInternal>
0.2604

> <Gold.Chemscore.Rot>
1.6747

> <Gold.Chemscore.Internal.Correction>
   9.000000E+99

> <Gold.Chemscore.Hbonds>
donor molecule, donor type, donor heavy atom, donor atom, acceptor molecule, acceptor atom, score
      L1  H     1    10       P1 10195  0.98
      L1  H     1    11       P1 10186  0.87
      L1  H     1    18       P1 10952  0.84
      L1  H     8    16       P1  7948  0.75

> <Gold.Chemscore.Hbond.Weighted>
-13.2860

> <Gold.Chemscore.Metal.Weighted>
-0.0000

> <Gold.Chemscore.Lipo.Weighted>
-3.1566

> <Gold.Chemscore.Internal_Hbond.Weighted>
0.0000

> <Gold.Chemscore.DEClash.Weighted>
0.1842

> <Gold.Chemscore.DEInternal.Weighted>
0.2604

> <Gold.Chemscore.Rot.Weighted>
4.2872

> <Gold.Chemscore.Internal.Correction.Weighted>
   9.000000E+99

> <Gold.Protein.RotatedTorsions>
[ 6907 6896 6895 6894 ] final    5.19 input  -60.11 | X-H torsion
[ 7974 7965 7964 7962 ] final   87.18 input  175.53 | X-H torsion
[ 8008 7997 7996 7995 ] final -121.05 input   59.86 | X-H torsion
[ 10167 10162 10161 10158 ] final  113.07 input  -65.29 | X-H torsion
[ 10718 10713 10712 10709 ] final -175.74 input   66.30 | X-H torsion
[ 10763 10752 10751 10750 ] final   80.12 input  -60.55 | X-H torsion
[ 11005 11000 10999 10996 ] final  130.38 input  -57.11 | X-H torsion

> <Gold.Protein.ActiveResidues>
 VAL166  LYS551  ARG553  GLY616  TRP617  ASP618  TYR619  PRO620  LYS621  CYS622 
 ASP623  PHE694  ASN695  SER759  ASP760  ASP761  ALA762  ILE779  LEU786  VAL792 
 PHE793  MET794  SER795  GLU796  ALA797  LYS798  CYS799  TRP800  GLU811  SER814 

> <Gold.Protein.RotatedAtoms>
  151.6534  135.0998  160.0164 H   0  0  0  0  0  0  0  0  0  0  0  0  # atno 6907 bound_to 6896
  152.3988  133.6782  159.6307 H   0  0  0  0  0  0  0  0  0  0  0  0  # atno 6908 bound_to 6896
  150.7891  133.8745  159.3309 H   0  0  0  0  0  0  0  0  0  0  0  0  # atno 6909 bound_to 6896
  145.5625  139.2305  143.2452 H   0  0  0  0  0  0  0  0  0  0  0  0  # atno 7974 bound_to 7965
  155.1417  140.0402  157.2800 H   0  0  0  0  0  0  0  0  0  0  0  0  # atno 8008 bound_to 7997
  154.6468  140.2560  155.7232 H   0  0  0  0  0  0  0  0  0  0  0  0  # atno 8009 bound_to 7997
  156.2559  140.2844  156.0885 H   0  0  0  0  0  0  0  0  0  0  0  0  # atno 8010 bound_to 7997
  139.6489  144.7127  151.2088 H   0  0  0  0  0  0  0  0  0  0  0  0  # atno 10167 bound_to 10162
  156.8043  130.9563  151.3118 H   0  0  0  0  0  0  0  0  0  0  0  0  # atno 10718 bound_to 10713
  153.1007  135.4814  154.8862 H   0  0  0  0  0  0  0  0  0  0  0  0  # atno 10763 bound_to 10752
  154.7375  135.3074  154.8787 H   0  0  0  0  0  0  0  0  0  0  0  0  # atno 10764 bound_to 10752
  153.9405  135.6834  153.4798 H   0  0  0  0  0  0  0  0  0  0  0  0  # atno 10765 bound_to 10752
  139.9668  134.9588  156.9285 H   0  0  0  0  0  0  0  0  0  0  0  0  # atno 11005 bound_to 11000
  146.1841  140.6450  142.9175 LP  0  0  0  0  0  0  0  0  0  0  0  0  # atno 17320 bound_to 7965
  144.7476  140.5109  143.6824 LP  0  0  0  0  0  0  0  0  0  0  0  0  # atno 17321 bound_to 7965
  140.7528  143.6184  150.8537 LP  0  0  0  0  0  0  0  0  0  0  0  0  # atno 17342 bound_to 10162
  139.9830  143.5930  152.2936 LP  0  0  0  0  0  0  0  0  0  0  0  0  # atno 17343 bound_to 10162
  157.6538  130.8907  149.9686 LP  0  0  0  0  0  0  0  0  0  0  0  0  # atno 17370 bound_to 10713
  156.1082  130.3651  150.0096 LP  0  0  0  0  0  0  0  0  0  0  0  0  # atno 17371 bound_to 10713
  140.5378  134.0750  155.7333 LP  0  0  0  0  0  0  0  0  0  0  0  0  # atno 17394 bound_to 11000
  141.1348  133.9240  157.2457 LP  0  0  0  0  0  0  0  0  0  0  0  0  # atno 17395 bound_to 11000

$$$$
