AV-unprocessed.smi:1516|AV-procd|sdf|6118|dock3
  -GOLD-   22720 6253D 1   1.00000     0.00000
 Structure written by MMmdl.
 45 46  0  0  0  0  0  0  0  0  1 V2000
  143.3450  134.9507  152.1861 C   0  0  0  0  0  0  0  0  0  0  0  0
  144.3487  135.7729  151.5064 N   0  0  0  0  0  0  0  0  0  0  0  0
  144.7707  135.2947  150.1874 C   0  0  0  0  0  0  0  0  0  0  0  0
  144.8812  136.8924  152.0495 C   0  0  0  0  0  0  0  0  0  0  0  0
  144.5190  137.3251  153.1459 O   0  0  0  0  0  0  0  0  0  0  0  0
  145.9605  137.6569  151.2571 C   0  0  0  0  0  0  0  0  0  0  0  0
  147.2121  137.8164  151.9955 N   0  0  0  0  0  0  0  0  0  0  0  0
  147.4736  138.8042  152.8643 C   0  0  0  0  0  0  0  0  0  0  0  0
  146.6620  139.6827  153.1560 O   0  0  0  0  0  0  0  0  0  0  0  0
  148.7265  138.7126  153.3415 N   0  0  0  0  0  0  0  0  0  0  0  0
  149.3791  139.5615  154.2754 C   0  0  0  0  0  0  0  0  0  0  0  0
  149.2036  140.9628  154.3367 C   0  0  0  0  0  0  0  0  0  0  0  0
  149.8934  141.6955  155.3216 C   0  0  0  0  0  0  0  0  0  0  0  0
  150.7419  141.0122  156.2292 C   0  0  0  0  0  0  0  0  0  0  0  0
  151.4587  141.6867  157.2435 N   0  0  0  0  0  0  0  0  0  0  0  0
  151.1309  143.1033  157.4336 C   0  0  0  0  0  0  0  0  0  0  0  0
  152.2387  143.8367  158.2088 C   0  0  0  0  0  0  0  0  0  0  0  0
  152.5617  143.1179  159.5261 C   0  0  0  0  0  0  0  0  0  0  0  0
  152.9239  141.6530  159.2449 C   0  0  0  0  0  0  0  0  0  0  0  0
  151.8069  140.9463  158.4579 C   0  0  0  0  0  0  0  0  0  0  0  0
  150.8936  139.6671  156.1727 N   0  0  0  0  0  0  0  0  0  0  0  0
  150.2287  138.9689  155.2292 C   0  0  0  0  0  0  0  0  0  0  0  0
  143.6326  134.7394  153.2168 H   0  0  0  0  0  0  0  0  0  0  0  0
  143.2073  133.9854  151.6974 H   0  0  0  0  0  0  0  0  0  0  0  0
  142.3793  135.4579  152.1928 H   0  0  0  0  0  0  0  0  0  0  0  0
  144.9588  136.1176  149.4956 H   0  0  0  0  0  0  0  0  0  0  0  0
  144.0119  134.6646  149.7220 H   0  0  0  0  0  0  0  0  0  0  0  0
  145.6868  134.7099  150.2766 H   0  0  0  0  0  0  0  0  0  0  0  0
  146.1630  137.1595  150.3073 H   0  0  0  0  0  0  0  0  0  0  0  0
  145.5818  138.6513  151.0196 H   0  0  0  0  0  0  0  0  0  0  0  0
  147.9398  137.1430  151.8063 H   0  0  0  0  0  0  0  0  0  0  0  0
  149.3025  137.9865  152.9415 H   0  0  0  0  0  0  0  0  0  0  0  0
  148.5478  141.4884  153.6603 H   0  0  0  0  0  0  0  0  0  0  0  0
  149.7620  142.7663  155.3539 H   0  0  0  0  0  0  0  0  0  0  0  0
  150.9770  143.6142  156.4835 H   0  0  0  0  0  0  0  0  0  0  0  0
  150.1893  143.1695  157.9802 H   0  0  0  0  0  0  0  0  0  0  0  0
  153.1376  143.8922  157.5935 H   0  0  0  0  0  0  0  0  0  0  0  0
  151.9354  144.8649  158.4075 H   0  0  0  0  0  0  0  0  0  0  0  0
  153.3843  143.6186  160.0373 H   0  0  0  0  0  0  0  0  0  0  0  0
  151.7007  143.1645  160.1942 H   0  0  0  0  0  0  0  0  0  0  0  0
  153.8531  141.6112  158.6748 H   0  0  0  0  0  0  0  0  0  0  0  0
  153.1111  141.1261  160.1810 H   0  0  0  0  0  0  0  0  0  0  0  0
  150.9177  140.8431  159.0811 H   0  0  0  0  0  0  0  0  0  0  0  0
  152.1460  139.9417  158.2031 H   0  0  0  0  0  0  0  0  0  0  0  0
  150.3870  137.9004  155.2346 H   0  0  0  0  0  0  0  0  0  0  0  0
  1  2  1  0  0  0  0
  1 23  1  0  0  0  0
  1 24  1  0  0  0  0
  1 25  1  0  0  0  0
  2  3  1  0  0  0  0
  2  4  1  0  0  0  0
  3 26  1  0  0  0  0
  3 27  1  0  0  0  0
  3 28  1  0  0  0  0
  4  5  2  0  0  0  0
  4  6  1  0  0  0  0
  6  7  1  0  0  0  0
  6 29  1  0  0  0  0
  6 30  1  0  0  0  0
  7  8  1  0  0  0  0
  7 31  1  0  0  0  0
  8  9  2  0  0  0  0
  8 10  1  0  0  0  0
 10 11  1  0  0  0  0
 10 32  1  0  0  0  0
 11 22  1  0  0  0  0
 11 12  2  0  0  0  0
 12 13  1  0  0  0  0
 12 33  1  0  0  0  0
 13 14  2  0  0  0  0
 13 34  1  0  0  0  0
 14 15  1  0  0  0  0
 14 21  1  0  0  0  0
 15 20  1  0  0  0  0
 15 16  1  0  0  0  0
 16 17  1  0  0  0  0
 16 35  1  0  0  0  0
 16 36  1  0  0  0  0
 17 18  1  0  0  0  0
 17 37  1  0  0  0  0
 17 38  1  0  0  0  0
 18 19  1  0  0  0  0
 18 39  1  0  0  0  0
 18 40  1  0  0  0  0
 19 20  1  0  0  0  0
 19 41  1  0  0  0  0
 19 42  1  0  0  0  0
 20 43  1  0  0  0  0
 20 44  1  0  0  0  0
 21 22  2  0  0  0  0
 22 45  1  0  0  0  0
M  END
> <s_m_source_file>
AV-unprocessed.smi

> <i_m_source_file_index>
1516

> <i_lp_mmshare_version>
43012

> <i_f3d_flags>
0

> <s_epik_input>
W0NIM11OKFtDSDNdKUMoPU8pW0NIMl1bTkhdQyg9TylbTkhdYzFbY0hdW2NIXWMobltjSF0xKU4yW0NIMl1bQ0gyXVtDSDJdW0NIMl1bQ0gyXTI=

> <s_epik_cmdline>
J2VwaWtfcHl0aG9uJywgJy1waCcsICc3LjAnLCAnLXRuJywgJzgnLCAnLW1hJywgJzIwMCcsICctbWV0YWxfYmluZGluZycsICctaW1hZScsICc8aW5maWxlLm1hZT4nLCAnLW9tYWUnLCAnPG91dGZpbGUubWFlPic=

> <r_lp_tautomer_probability>
1

> <r_epik_Ionization_Penalty>
0.256009

> <r_epik_Ionization_Penalty_Charging>
0

> <r_epik_Ionization_Penalty_Neutral>
0.256009

> <r_epik_State_Penalty>
0.242045

> <r_epik_Charging_Adjusted_Penalty>
0.242045

> <i_epik_Tot_Q>
0

> <i_epik_Tot_abs_Q>
0

> <r_epik_Metal_State_Penalty>
0.169174

> <b_epik_Metal_Only>
0

> <s_lp_Force_Field>
OPLS_2005

> <r_lp_Energy>
21.8032

> <b_lp_Chiralities_Consistent>
1

> <s_lp_Variant>
AV-unprocessed.smi:1516-1

> <Gold.Version>
5.8.1

> <Gold.Id.Protein>
6NUR|6NUR_protein|mol2

> <Gold.PLP.Fitness>
47.1030

> <Gold.PLP.PLP>
-43.3730

> <Gold.PLP.part.hbond>
-2.9635

> <Gold.PLP.part.metal>
0.0000

> <Gold.PLP.part.buried>
-1.6017

> <Gold.PLP.part.nonpolar>
-40.8332

> <Gold.PLP.part.repulsive>
0.7194

> <Gold.PLP.ligand.clash>
0.0000

> <Gold.PLP.ligand.torsion>
0.6361

> <Gold.PLP.Chemscore.Hbond>
1.5699

> <Gold.PLP.Chemscore.CHOScore>
0.0000

> <Gold.PLP.Chemscore.Metal>
0.0000

> <Gold.Chemscore.Hbonds>
donor molecule, donor type, donor heavy atom, donor atom, acceptor molecule, acceptor atom, score
      L1  H     7    31       P1  7948  0.52
      L1  H    10    32       P1  7948  0.69

> <Gold.PLP.Chemscore.Internal.Correction>
0.2925

> <Gold.Rescore>
     Score         DG    S(hbond)    S(metal)    S(lipo)     H(rot)  DE(clash)    DE(int)     intcor
     17.12     -19.14       1.51        0.00     101.32       1.26       0.75       1.28       ----

> <Gold.Chemscore.Fitness>
17.1179

> <Gold.Chemscore.DG>
-19.1445

> <Gold.Chemscore.ZeroCoef>
-5.4800

> <Gold.Chemscore.Hbond>
1.5082

> <Gold.Chemscore.Metal>
0.0000

> <Gold.Chemscore.Lipo>
101.3177

> <Gold.Chemscore.Internal_Hbond>
0.0000

> <Gold.Chemscore.DEClash>
0.7456

> <Gold.Chemscore.DEInternal>
1.2810

> <Gold.Chemscore.Rot>
1.2605

> <Gold.Chemscore.Internal.Correction>
   9.000000E+99

> <Gold.Chemscore.Hbonds>
donor molecule, donor type, donor heavy atom, donor atom, acceptor molecule, acceptor atom, score
      L1  H     7    31       P1  7948  0.52
      L1  H    10    32       P1  7948  0.64

> <Gold.Chemscore.Hbond.Weighted>
-5.0372

> <Gold.Chemscore.Metal.Weighted>
-0.0000

> <Gold.Chemscore.Lipo.Weighted>
-11.8542

> <Gold.Chemscore.Internal_Hbond.Weighted>
0.0000

> <Gold.Chemscore.DEClash.Weighted>
0.7456

> <Gold.Chemscore.DEInternal.Weighted>
1.2810

> <Gold.Chemscore.Rot.Weighted>
3.2269

> <Gold.Chemscore.Internal.Correction.Weighted>
   9.000000E+99

> <Gold.Protein.RotatedTorsions>
[ 6907 6896 6895 6894 ] final  -18.72 input  -60.11 | X-H torsion
[ 7974 7965 7964 7962 ] final  100.60 input  175.53 | X-H torsion
[ 8008 7997 7996 7995 ] final   -1.24 input   59.86 | X-H torsion
[ 10167 10162 10161 10158 ] final  148.54 input  -65.29 | X-H torsion
[ 10718 10713 10712 10709 ] final  157.96 input   66.30 | X-H torsion
[ 10763 10752 10751 10750 ] final  153.24 input  -60.55 | X-H torsion
[ 11005 11000 10999 10996 ] final   63.84 input  -57.11 | X-H torsion

> <Gold.Protein.ActiveResidues>
 VAL166  LYS551  ARG553  GLY616  TRP617  ASP618  TYR619  PRO620  LYS621  CYS622 
 ASP623  PHE694  ASN695  SER759  ASP760  ASP761  ALA762  ILE779  LEU786  VAL792 
 PHE793  MET794  SER795  GLU796  ALA797  LYS798  CYS799  TRP800  GLU811  SER814 

> <Gold.Protein.RotatedAtoms>
  151.2740  135.0693  159.9144 H   0  0  0  0  0  0  0  0  0  0  0  0  # atno 6907 bound_to 6896
  152.5346  134.0101  159.7944 H   0  0  0  0  0  0  0  0  0  0  0  0  # atno 6908 bound_to 6896
  151.0344  133.5711  159.2688 H   0  0  0  0  0  0  0  0  0  0  0  0  # atno 6909 bound_to 6896
  145.3835  139.2375  143.3391 H   0  0  0  0  0  0  0  0  0  0  0  0  # atno 7974 bound_to 7965
  154.6490  140.2564  155.7235 H   0  0  0  0  0  0  0  0  0  0  0  0  # atno 8008 bound_to 7997
  156.2566  140.2872  156.0836 H   0  0  0  0  0  0  0  0  0  0  0  0  # atno 8009 bound_to 7997
  155.1480  140.0381  157.2804 H   0  0  0  0  0  0  0  0  0  0  0  0  # atno 8010 bound_to 7997
  139.4873  144.5672  151.7123 H   0  0  0  0  0  0  0  0  0  0  0  0  # atno 10167 bound_to 10162
  157.1844  131.0640  151.2114 H   0  0  0  0  0  0  0  0  0  0  0  0  # atno 10718 bound_to 10713
  154.1330  135.2825  155.3180 H   0  0  0  0  0  0  0  0  0  0  0  0  # atno 10763 bound_to 10752
  154.6342  135.5425  153.7718 H   0  0  0  0  0  0  0  0  0  0  0  0  # atno 10764 bound_to 10752
  153.0275  135.6470  154.1479 H   0  0  0  0  0  0  0  0  0  0  0  0  # atno 10765 bound_to 10752
  139.9998  134.6460  155.9949 H   0  0  0  0  0  0  0  0  0  0  0  0  # atno 11005 bound_to 11000
  146.2831  140.4506  142.8768 LP  0  0  0  0  0  0  0  0  0  0  0  0  # atno 17320 bound_to 7965
  144.8491  140.6974  143.6180 LP  0  0  0  0  0  0  0  0  0  0  0  0  # atno 17321 bound_to 7965
  140.5252  144.0817  150.6035 LP  0  0  0  0  0  0  0  0  0  0  0  0  # atno 17342 bound_to 10162
  140.3788  143.2814  152.0194 LP  0  0  0  0  0  0  0  0  0  0  0  0  # atno 17343 bound_to 10162
  157.3921  130.7288  149.6705 LP  0  0  0  0  0  0  0  0  0  0  0  0  # atno 17370 bound_to 10713
  155.9720  130.4143  150.4127 LP  0  0  0  0  0  0  0  0  0  0  0  0  # atno 17371 bound_to 10713
  141.1633  133.6538  156.4393 LP  0  0  0  0  0  0  0  0  0  0  0  0  # atno 17394 bound_to 11000
  140.4749  134.6719  157.5145 LP  0  0  0  0  0  0  0  0  0  0  0  0  # atno 17395 bound_to 11000

$$$$
