AV-unprocessed.smi:1929|AV-procd|sdf|7807|dock8
  -GOLD-   22720 9553D 1   1.00000     0.00000
 Structure written by MMmdl.
 43 44  0  0  0  0  0  0  0  0  4 V2000
  154.2957  132.4356  158.4365 C   0  0  0  0  0  0  0  0  0  0  0  0
  154.4307  133.2745  159.6211 N   0  5  0  0  0  0  0  0  0  0  0  0
  155.4491  134.1573  159.8040 C   0  0  0  0  0  0  0  0  0  0  0  0
  156.3839  134.4750  159.0613 O   0  0  0  0  0  0  0  0  0  0  0  0
  155.3754  134.8057  161.1916 C   0  0  0  0  0  0  0  0  0  0  0  0
  155.0273  136.2435  161.0691 N   0  3  2  0  0  0  0  0  0  0  0  0
  156.1108  137.0616  160.4594 C   0  0  0  0  0  0  0  0  0  0  0  0
  155.6508  138.5109  160.2334 C   0  0  0  0  0  0  0  0  0  0  0  0
  155.1656  139.1518  161.5432 C   0  0  1  0  0  0  0  0  0  0  0  0
  154.6563  140.4944  161.2776 N   0  0  0  0  0  0  0  0  0  0  0  0
  153.8137  140.8198  160.2865 C   0  0  0  0  0  0  0  0  0  0  0  0
  153.3821  140.0081  159.4683 O   0  0  0  0  0  0  0  0  0  0  0  0
  153.5308  142.1341  160.2984 N   0  0  0  0  0  0  0  0  0  0  0  0
  152.6620  142.8574  159.4365 C   0  0  0  0  0  0  0  0  0  0  0  0
  151.9329  142.1239  158.4740 C   0  0  0  0  0  0  0  0  0  0  0  0
  151.0722  142.8031  157.5876 C   0  0  0  0  0  0  0  0  0  0  0  0
  150.9593  144.1468  157.6571 N   0  3  0  0  0  0  0  0  0  0  0  0
  151.6468  144.8920  158.5490 C   0  0  0  0  0  0  0  0  0  0  0  0
  152.5223  144.2685  159.4615 C   0  0  0  0  0  0  0  0  0  0  0  0
  154.0756  138.2679  162.1760 C   0  0  0  0  0  0  0  0  0  0  0  0
  154.5676  136.8219  162.3573 C   0  0  0  0  0  0  0  0  0  0  0  0
  153.4191  131.7905  158.4944 H   0  0  0  0  0  0  0  0  0  0  0  0
  155.1533  131.7774  158.2938 H   0  0  0  0  0  0  0  0  0  0  0  0
  154.1903  133.0198  157.5217 H   0  0  0  0  0  0  0  0  0  0  0  0
  154.5951  134.2805  161.7440 H   0  0  0  0  0  0  0  0  0  0  0  0
  156.2953  134.6831  161.7679 H   0  0  0  0  0  0  0  0  0  0  0  0
  156.9904  137.0421  161.1047 H   0  0  0  0  0  0  0  0  0  0  0  0
  156.4149  136.6376  159.5022 H   0  0  0  0  0  0  0  0  0  0  0  0
  156.4701  139.0940  159.8111 H   0  0  0  0  0  0  0  0  0  0  0  0
  154.8491  138.5224  159.4933 H   0  0  0  0  0  0  0  0  0  0  0  0
  156.0144  139.2148  162.2272 H   0  0  0  0  0  0  0  0  0  0  0  0
  154.9656  141.2275  161.8993 H   0  0  0  0  0  0  0  0  0  0  0  0
  154.0358  142.6913  160.9720 H   0  0  0  0  0  0  0  0  0  0  0  0
  152.0246  141.0489  158.4164 H   0  0  0  0  0  0  0  0  0  0  0  0
  150.4768  142.3156  156.8294 H   0  0  0  0  0  0  0  0  0  0  0  0
  151.4824  145.9586  158.5033 H   0  0  0  0  0  0  0  0  0  0  0  0
  153.0777  144.8845  160.1522 H   0  0  0  0  0  0  0  0  0  0  0  0
  153.7732  138.6745  163.1418 H   0  0  0  0  0  0  0  0  0  0  0  0
  153.1843  138.2698  161.5468 H   0  0  0  0  0  0  0  0  0  0  0  0
  153.7557  136.2177  162.7637 H   0  0  0  0  0  0  0  0  0  0  0  0
  155.3819  136.7886  163.0828 H   0  0  0  0  0  0  0  0  0  0  0  0
  154.2385  136.2815  160.4392 H   0  0  0  0  0  0  0  0  0  0  0  0
  150.3323  144.6195  157.0052 H   0  0  0  0  0  0  0  0  0  0  0  0
  1  2  1  0  0  0  0
  1 22  1  0  0  0  0
  1 23  1  0  0  0  0
  1 24  1  0  0  0  0
  2  3  1  0  0  0  0
  3  4  2  0  0  0  0
  3  5  1  0  0  0  0
  5  6  1  0  0  0  0
  5 25  1  0  0  0  0
  5 26  1  0  0  0  0
  6 21  1  0  0  0  0
  6  7  1  0  0  0  0
  6 42  1  0  0  0  0
  7  8  1  0  0  0  0
  7 27  1  0  0  0  0
  7 28  1  0  0  0  0
  8  9  1  0  0  0  0
  8 29  1  0  0  0  0
  8 30  1  0  0  0  0
  9 10  1  0  0  0  0
  9 20  1  0  0  0  0
  9 31  1  0  0  0  0
 10 11  1  0  0  0  0
 10 32  1  0  0  0  0
 11 12  2  0  0  0  0
 11 13  1  0  0  0  0
 13 14  1  0  0  0  0
 13 33  1  0  0  0  0
 14 19  1  0  0  0  0
 14 15  2  0  0  0  0
 15 16  1  0  0  0  0
 15 34  1  0  0  0  0
 16 17  2  0  0  0  0
 16 35  1  0  0  0  0
 17 18  1  0  0  0  0
 17 43  1  0  0  0  0
 18 19  2  0  0  0  0
 18 36  1  0  0  0  0
 19 37  1  0  0  0  0
 20 21  1  0  0  0  0
 20 38  1  0  0  0  0
 20 39  1  0  0  0  0
 21 40  1  0  0  0  0
 21 41  1  0  0  0  0
M  CHG  1   2  -1
M  CHG  1   6   1
M  CHG  1  17   1
M  END
> <s_m_source_file>
AV-unprocessed.smi

> <i_m_source_file_index>
1929

> <i_lp_mmshare_version>
43012

> <i_f3d_flags>
0

> <s_epik_input>
W0NIM11bTkhdQyg9TylbQ0gyXU4xW0NIMl1bQ0gyXVtDSF0oW0NIMl1bQ0gyXTEpW05IXUMoPU8pW05IXWMyW2NIXVtjSF1uW2NIXVtjSF0y

> <s_epik_cmdline>
J2VwaWtfcHl0aG9uJywgJy1waCcsICc3LjAnLCAnLXRuJywgJzgnLCAnLW1hJywgJzIwMCcsICctbWV0YWxfYmluZGluZycsICctaW1hZScsICc8aW5maWxlLm1hZT4nLCAnLW9tYWUnLCAnPG91dGZpbGUubWFlPic=

> <r_epik_Ionization_Penalty>
7.25133

> <r_epik_Ionization_Penalty_Charging>
7.25131

> <r_epik_Ionization_Penalty_Neutral>
1.84563e-05

> <r_epik_State_Penalty>
8.093

> <r_epik_Charging_Adjusted_Penalty>
15.3443

> <i_epik_Tot_Q>
1

> <i_epik_Tot_abs_Q>
3

> <r_epik_Metal_State_Penalty>
4.12368

> <b_epik_Metal_Only>
1

> <s_lp_Force_Field>
OPLS_2005

> <r_lp_Energy>
21.0398

> <b_lp_Chiralities_Consistent>
1

> <s_lp_Variant>
AV-unprocessed.smi:1929-9

> <Gold.Version>
5.8.1

> <Gold.Id.Protein>
6NUR|6NUR_protein|mol2

> <Gold.PLP.Fitness>
44.2838

> <Gold.PLP.PLP>
-32.9208

> <Gold.PLP.part.hbond>
-2.0000

> <Gold.PLP.part.metal>
0.0000

> <Gold.PLP.part.buried>
-6.0443

> <Gold.PLP.part.nonpolar>
-25.7486

> <Gold.PLP.part.repulsive>
0.1263

> <Gold.PLP.ligand.clash>
0.0000

> <Gold.PLP.ligand.torsion>
0.3379

> <Gold.PLP.Chemscore.Hbond>
4.0000

> <Gold.PLP.Chemscore.CHOScore>
0.0000

> <Gold.PLP.Chemscore.Metal>
0.0000

> <Gold.Chemscore.Hbonds>
donor molecule, donor type, donor heavy atom, donor atom, acceptor molecule, acceptor atom, score
      L1  H    17    43       P1  8028  2.00
      P1  H  6896  6909       L1     2  2.00

> <Gold.PLP.Chemscore.Internal.Correction>
0.0387

> <Gold.Rescore>
     Score         DG    S(hbond)    S(metal)    S(lipo)     H(rot)  DE(clash)    DE(int)     intcor
     14.45     -17.62       1.81        0.00      88.53       1.66       0.00       3.17       ----

> <Gold.Chemscore.Fitness>
14.4456

> <Gold.Chemscore.DG>
-17.6244

> <Gold.Chemscore.ZeroCoef>
-5.4800

> <Gold.Chemscore.Hbond>
1.8050

> <Gold.Chemscore.Metal>
0.0000

> <Gold.Chemscore.Lipo>
88.5350

> <Gold.Chemscore.Internal_Hbond>
0.0000

> <Gold.Chemscore.DEClash>
0.0048

> <Gold.Chemscore.DEInternal>
3.1739

> <Gold.Chemscore.Rot>
1.6574

> <Gold.Chemscore.Internal.Correction>
   9.000000E+99

> <Gold.Chemscore.Hbonds>
donor molecule, donor type, donor heavy atom, donor atom, acceptor molecule, acceptor atom, score
      L1  H    17    43       P1  8028  0.64
      P1  H  6896  6909       L1     2  0.30

> <Gold.Chemscore.Hbond.Weighted>
-6.0288

> <Gold.Chemscore.Metal.Weighted>
-0.0000

> <Gold.Chemscore.Lipo.Weighted>
-10.3586

> <Gold.Chemscore.Internal_Hbond.Weighted>
0.0000

> <Gold.Chemscore.DEClash.Weighted>
0.0048

> <Gold.Chemscore.DEInternal.Weighted>
3.1739

> <Gold.Chemscore.Rot.Weighted>
4.2430

> <Gold.Chemscore.Internal.Correction.Weighted>
   9.000000E+99

> <Gold.Protein.RotatedTorsions>
[ 6907 6896 6895 6894 ] final -141.67 input  -60.11 | X-H torsion
[ 7974 7965 7964 7962 ] final  112.57 input  175.53 | X-H torsion
[ 8008 7997 7996 7995 ] final  116.08 input   59.86 | X-H torsion
[ 10167 10162 10161 10158 ] final  106.88 input  -65.29 | X-H torsion
[ 10718 10713 10712 10709 ] final -151.12 input   66.30 | X-H torsion
[ 10763 10752 10751 10750 ] final -164.28 input  -60.55 | X-H torsion
[ 11005 11000 10999 10996 ] final   67.49 input  -57.11 | X-H torsion

> <Gold.Protein.ActiveResidues>
 VAL166  LYS551  ARG553  GLY616  TRP617  ASP618  TYR619  PRO620  LYS621  CYS622 
 ASP623  PHE694  ASN695  SER759  ASP760  ASP761  ALA762  ILE779  LEU786  VAL792 
 PHE793  MET794  SER795  GLU796  ALA797  LYS798  CYS799  TRP800  GLU811  SER814 

> <Gold.Protein.RotatedAtoms>
  151.0769  133.5421  159.2622 H   0  0  0  0  0  0  0  0  0  0  0  0  # atno 6907 bound_to 6896
  151.2339  135.0564  159.9008 H   0  0  0  0  0  0  0  0  0  0  0  0  # atno 6908 bound_to 6896
  152.5419  134.0554  159.8182 H   0  0  0  0  0  0  0  0  0  0  0  0  # atno 6909 bound_to 6896
  145.2279  139.2833  143.4184 H   0  0  0  0  0  0  0  0  0  0  0  0  # atno 7974 bound_to 7965
  156.2418  140.2925  156.0467 H   0  0  0  0  0  0  0  0  0  0  0  0  # atno 8008 bound_to 7997
  155.1927  140.0407  157.2920 H   0  0  0  0  0  0  0  0  0  0  0  0  # atno 8009 bound_to 7997
  154.6184  140.2469  155.7587 H   0  0  0  0  0  0  0  0  0  0  0  0  # atno 8010 bound_to 7997
  139.6972  144.7099  151.1246 H   0  0  0  0  0  0  0  0  0  0  0  0  # atno 10167 bound_to 10162
  156.4551  130.8186  151.2417 H   0  0  0  0  0  0  0  0  0  0  0  0  # atno 10718 bound_to 10713
  154.7044  135.2994  154.9293 H   0  0  0  0  0  0  0  0  0  0  0  0  # atno 10763 bound_to 10752
  154.0215  135.6682  153.4777 H   0  0  0  0  0  0  0  0  0  0  0  0  # atno 10764 bound_to 10752
  153.0705  135.5063  154.8206 H   0  0  0  0  0  0  0  0  0  0  0  0  # atno 10765 bound_to 10752
  139.9768  134.6809  156.0339 H   0  0  0  0  0  0  0  0  0  0  0  0  # atno 11005 bound_to 11000
  146.3360  140.2605  142.8602 LP  0  0  0  0  0  0  0  0  0  0  0  0  # atno 17320 bound_to 7965
  144.9704  140.8363  143.5459 LP  0  0  0  0  0  0  0  0  0  0  0  0  # atno 17321 bound_to 7965
  140.7700  143.5474  150.9243 LP  0  0  0  0  0  0  0  0  0  0  0  0  # atno 17342 bound_to 10162
  139.9154  143.6669  152.3107 LP  0  0  0  0  0  0  0  0  0  0  0  0  # atno 17343 bound_to 10162
  157.7501  131.0125  150.3388 LP  0  0  0  0  0  0  0  0  0  0  0  0  # atno 17370 bound_to 10713
  156.3775  130.3874  149.7127 LP  0  0  0  0  0  0  0  0  0  0  0  0  # atno 17371 bound_to 10713
  141.1444  133.6558  156.3824 LP  0  0  0  0  0  0  0  0  0  0  0  0  # atno 17394 bound_to 11000
  140.5179  134.6333  157.5307 LP  0  0  0  0  0  0  0  0  0  0  0  0  # atno 17395 bound_to 11000

$$$$
