AV-unprocessed.smi:867|AV-procd|sdf|3997|dock3
  -GOLD-   22720 1473D 1   1.00000     0.00000
 Structure written by MMmdl.
 53 56  0  0  0  0  0  0  0  0  2 V2000
  151.1993  136.8940  159.4125 O   0  0  0  0  0  0  0  0  0  0  0  0
  150.7158  137.5384  158.4811 C   0  0  0  0  0  0  0  0  0  0  0  0
  149.5904  137.1600  157.8503 N   0  0  0  0  0  0  0  0  0  0  0  0
  148.8013  135.9683  158.1533 C   0  0  0  0  0  0  0  0  0  0  0  0
  147.4564  136.3152  158.8203 C   0  0  0  0  0  0  0  0  0  0  0  0
  147.3366  135.8092  160.2471 C   0  0  0  0  0  0  0  0  0  0  0  0
  147.4797  136.6845  161.3438 C   0  0  0  0  0  0  0  0  0  0  0  0
  147.3342  136.1699  162.6461 C   0  0  0  0  0  0  0  0  0  0  0  0
  147.0562  134.7967  162.7970 C   0  0  0  0  0  0  0  0  0  0  0  0
  146.9210  133.9486  161.7552 N   0  0  0  0  0  0  0  0  0  0  0  0
  147.0597  134.4505  160.5094 C   0  0  0  0  0  0  0  0  0  0  0  0
  151.3177  138.6299  157.9478 N   0  0  0  0  0  0  0  0  0  0  0  0
  150.6933  139.5958  157.0350 C   0  0  0  0  0  0  0  0  0  0  0  0
  150.3655  140.8839  157.8138 C   0  0  0  0  0  0  0  0  0  0  0  0
  151.5714  141.4477  158.4872 N   0  3  0  0  0  0  0  0  0  0  0  0
  151.2867  142.6902  159.2608 C   0  0  1  0  0  0  0  0  0  0  0  0
  152.5268  143.3134  159.9480 C   0  0  0  0  0  0  0  0  0  0  0  0
  152.4511  144.7944  159.5307 C   0  0  1  0  0  0  0  0  0  0  0  0
  152.9017  144.9191  158.0655 C   0  0  0  0  0  0  0  0  0  0  0  0
  151.7322  144.2744  157.3013 C   0  0  0  0  0  0  0  0  0  0  0  0
  150.7521  143.8837  158.4297 C   0  0  2  0  0  0  0  0  0  0  0  0
  150.9502  145.0313  159.4142 C   0  0  0  0  0  0  0  0  0  0  0  0
  152.2932  140.4235  159.2957 C   0  0  0  0  0  0  0  0  0  0  0  0
  152.5790  139.1541  158.4750 C   0  0  0  0  0  0  0  0  0  0  0  0
  149.2735  137.7247  157.0759 H   0  0  0  0  0  0  0  0  0  0  0  0
  148.6322  135.3769  157.2520 H   0  0  0  0  0  0  0  0  0  0  0  0
  149.3860  135.3369  158.8226 H   0  0  0  0  0  0  0  0  0  0  0  0
  147.3178  137.3970  158.8220 H   0  0  0  0  0  0  0  0  0  0  0  0
  146.6369  135.9070  158.2274 H   0  0  0  0  0  0  0  0  0  0  0  0
  147.6879  137.7334  161.1918 H   0  0  0  0  0  0  0  0  0  0  0  0
  147.4327  136.8115  163.5089 H   0  0  0  0  0  0  0  0  0  0  0  0
  146.9391  134.3682  163.7814 H   0  0  0  0  0  0  0  0  0  0  0  0
  146.9378  133.7488  159.6974 H   0  0  0  0  0  0  0  0  0  0  0  0
  151.3875  139.8175  156.2232 H   0  0  0  0  0  0  0  0  0  0  0  0
  149.7896  139.2246  156.5518 H   0  0  0  0  0  0  0  0  0  0  0  0
  149.9436  141.6086  157.1183 H   0  0  0  0  0  0  0  0  0  0  0  0
  149.5982  140.6784  158.5622 H   0  0  0  0  0  0  0  0  0  0  0  0
  150.5449  142.4462  160.0242 H   0  0  0  0  0  0  0  0  0  0  0  0
  152.4574  143.2054  161.0311 H   0  0  0  0  0  0  0  0  0  0  0  0
  153.4711  142.8701  159.6300 H   0  0  0  0  0  0  0  0  0  0  0  0
  152.9759  145.4691  160.2077 H   0  0  0  0  0  0  0  0  0  0  0  0
  153.0130  145.9669  157.7823 H   0  0  0  0  0  0  0  0  0  0  0  0
  153.8524  144.4195  157.8753 H   0  0  0  0  0  0  0  0  0  0  0  0
  151.2741  145.0007  156.6288 H   0  0  0  0  0  0  0  0  0  0  0  0
  152.0497  143.4238  156.6981 H   0  0  0  0  0  0  0  0  0  0  0  0
  149.7214  143.7630  158.0945 H   0  0  0  0  0  0  0  0  0  0  0  0
  150.4154  144.8958  160.3561 H   0  0  0  0  0  0  0  0  0  0  0  0
  150.6979  146.0085  158.9981 H   0  0  0  0  0  0  0  0  0  0  0  0
  153.2369  140.8208  159.6674 H   0  0  0  0  0  0  0  0  0  0  0  0
  151.6949  140.1674  160.1718 H   0  0  0  0  0  0  0  0  0  0  0  0
  153.1132  138.4239  159.0849 H   0  0  0  0  0  0  0  0  0  0  0  0
  153.2471  139.3871  157.6443 H   0  0  0  0  0  0  0  0  0  0  0  0
  152.2021  141.7149  157.7447 H   0  0  0  0  0  0  0  0  0  0  0  0
  1  2  2  0  0  0  0
  2  3  1  0  0  0  0
  2 12  1  0  0  0  0
  3  4  1  0  0  0  0
  3 25  1  0  0  0  0
  4  5  1  0  0  0  0
  4 26  1  0  0  0  0
  4 27  1  0  0  0  0
  5  6  1  0  0  0  0
  5 28  1  0  0  0  0
  5 29  1  0  0  0  0
  6 11  1  0  0  0  0
  6  7  2  0  0  0  0
  7  8  1  0  0  0  0
  7 30  1  0  0  0  0
  8  9  2  0  0  0  0
  8 31  1  0  0  0  0
  9 10  1  0  0  0  0
  9 32  1  0  0  0  0
 10 11  2  0  0  0  0
 11 33  1  0  0  0  0
 12 24  1  0  0  0  0
 12 13  1  0  0  0  0
 13 14  1  0  0  0  0
 13 34  1  0  0  0  0
 13 35  1  0  0  0  0
 14 15  1  0  0  0  0
 14 36  1  0  0  0  0
 14 37  1  0  0  0  0
 15 16  1  0  0  0  0
 15 23  1  0  0  0  0
 15 53  1  0  0  0  0
 16 21  1  0  0  0  0
 16 17  1  0  0  0  0
 16 38  1  0  0  0  0
 17 18  1  0  0  0  0
 17 39  1  0  0  0  0
 17 40  1  0  0  0  0
 18 22  1  0  0  0  0
 18 19  1  0  0  0  0
 18 41  1  0  0  0  0
 19 20  1  0  0  0  0
 19 42  1  0  0  0  0
 19 43  1  0  0  0  0
 20 21  1  0  0  0  0
 20 44  1  0  0  0  0
 20 45  1  0  0  0  0
 21 22  1  0  0  0  0
 21 46  1  0  0  0  0
 22 47  1  0  0  0  0
 22 48  1  0  0  0  0
 23 24  1  0  0  0  0
 23 49  1  0  0  0  0
 23 50  1  0  0  0  0
 24 51  1  0  0  0  0
 24 52  1  0  0  0  0
M  CHG  1  15   1
M  END
> <s_m_source_file>
AV-unprocessed.smi

> <i_m_source_file_index>
867

> <i_lp_mmshare_version>
43012

> <i_f3d_flags>
0

> <s_epik_input>
W0NIMl0xW0NIMl1bQ0BASF0oW0NIMl0yKVtDQEBIXShbQ0gyXVtDQEhdMTIpTihbQ0gyXVtDSDJdMylbQ0gyXVtDSDJdTjNDKD1PKVtOSF1bQ0gyXVtDSDJdYzRbY0hdW2NIXVtjSF1uW2NIXTQ=

> <s_epik_cmdline>
J2VwaWtfcHl0aG9uJywgJy1waCcsICc3LjAnLCAnLXRuJywgJzgnLCAnLW1hJywgJzIwMCcsICctbWV0YWxfYmluZGluZycsICctaW1hZScsICc8aW5maWxlLm1hZT4nLCAnLW9tYWUnLCAnPG91dGZpbGUubWFlPic=

> <r_epik_Ionization_Penalty>
0.0161279

> <r_epik_Ionization_Penalty_Charging>
0.00262064

> <r_epik_Ionization_Penalty_Neutral>
0.0135072

> <r_epik_State_Penalty>
0.0104914

> <r_epik_Charging_Adjusted_Penalty>
0.013112

> <i_epik_Tot_Q>
1

> <i_epik_Tot_abs_Q>
1

> <r_epik_Metal_State_Penalty>
0.0102536

> <b_epik_Metal_Only>
0

> <s_lp_Force_Field>
OPLS_2005

> <r_lp_Energy>
96.5484

> <b_lp_Chiralities_Consistent>
1

> <s_lp_Variant>
AV-unprocessed.smi:867-4

> <Gold.Version>
5.8.1

> <Gold.Id.Protein>
6NUR|6NUR_protein|mol2

> <Gold.PLP.Fitness>
51.0526

> <Gold.PLP.PLP>
-49.4335

> <Gold.PLP.part.hbond>
-1.0000

> <Gold.PLP.part.metal>
0.0000

> <Gold.PLP.part.buried>
-6.3334

> <Gold.PLP.part.nonpolar>
-41.4981

> <Gold.PLP.part.repulsive>
0.1766

> <Gold.PLP.ligand.clash>
0.0000

> <Gold.PLP.ligand.torsion>
0.7467

> <Gold.PLP.Chemscore.Hbond>
1.0000

> <Gold.PLP.Chemscore.CHOScore>
0.0000

> <Gold.PLP.Chemscore.Metal>
0.0000

> <Gold.Chemscore.Hbonds>
donor molecule, donor type, donor heavy atom, donor atom, acceptor molecule, acceptor atom, score
      P1  H  6896  6909       L1     1  1.00

> <Gold.PLP.Chemscore.Internal.Correction>
0.1125

> <Gold.Rescore>
     Score         DG    S(hbond)    S(metal)    S(lipo)     H(rot)  DE(clash)    DE(int)     intcor
     22.09     -22.97       1.00        0.00     151.02       1.37       0.11       0.77       ----

> <Gold.Chemscore.Fitness>
22.0928

> <Gold.Chemscore.DG>
-22.9740

> <Gold.Chemscore.ZeroCoef>
-5.4800

> <Gold.Chemscore.Hbond>
0.9999

> <Gold.Chemscore.Metal>
0.0000

> <Gold.Chemscore.Lipo>
151.0223

> <Gold.Chemscore.Internal_Hbond>
0.0000

> <Gold.Chemscore.DEClash>
0.1076

> <Gold.Chemscore.DEInternal>
0.7735

> <Gold.Chemscore.Rot>
1.3731

> <Gold.Chemscore.Internal.Correction>
   9.000000E+99

> <Gold.Chemscore.Hbonds>
donor molecule, donor type, donor heavy atom, donor atom, acceptor molecule, acceptor atom, score
      P1  H  6896  6909       L1     1  1.00

> <Gold.Chemscore.Hbond.Weighted>
-3.3395

> <Gold.Chemscore.Metal.Weighted>
-0.0000

> <Gold.Chemscore.Lipo.Weighted>
-17.6696

> <Gold.Chemscore.Internal_Hbond.Weighted>
0.0000

> <Gold.Chemscore.DEClash.Weighted>
0.1076

> <Gold.Chemscore.DEInternal.Weighted>
0.7735

> <Gold.Chemscore.Rot.Weighted>
3.5152

> <Gold.Chemscore.Internal.Correction.Weighted>
   9.000000E+99

> <Gold.Protein.RotatedTorsions>
[ 6907 6896 6895 6894 ] final  115.63 input  -60.11 | X-H torsion
[ 7974 7965 7964 7962 ] final    1.95 input  175.53 | X-H torsion
[ 8008 7997 7996 7995 ] final  -73.88 input   59.86 | X-H torsion
[ 10167 10162 10161 10158 ] final -161.75 input  -65.29 | X-H torsion
[ 10718 10713 10712 10709 ] final   43.06 input   66.30 | X-H torsion
[ 10763 10752 10751 10750 ] final -153.15 input  -60.55 | X-H torsion
[ 11005 11000 10999 10996 ] final -104.95 input  -57.11 | X-H torsion

> <Gold.Protein.ActiveResidues>
 VAL166  LYS551  ARG553  GLY616  TRP617  ASP618  TYR619  PRO620  LYS621  CYS622 
 ASP623  PHE694  ASN695  SER759  ASP760  ASP761  ALA762  ILE779  LEU786  VAL792 
 PHE793  MET794  SER795  GLU796  ALA797  LYS798  CYS799  TRP800  GLU811  SER814 

> <Gold.Protein.RotatedAtoms>
  152.4729  133.8071  159.6983 H   0  0  0  0  0  0  0  0  0  0  0  0  # atno 6907 bound_to 6896
  150.8728  133.7471  159.2962 H   0  0  0  0  0  0  0  0  0  0  0  0  # atno 6908 bound_to 6896
  151.5000  135.1064  159.9878 H   0  0  0  0  0  0  0  0  0  0  0  0  # atno 6909 bound_to 6896
  146.2442  140.0910  142.8352 H   0  0  0  0  0  0  0  0  0  0  0  0  # atno 7974 bound_to 7965
  154.5284  140.0771  156.8301 H   0  0  0  0  0  0  0  0  0  0  0  0  # atno 8008 bound_to 7997
  155.3426  140.3408  155.4221 H   0  0  0  0  0  0  0  0  0  0  0  0  # atno 8009 bound_to 7997
  156.1756  140.1634  156.8356 H   0  0  0  0  0  0  0  0  0  0  0  0  # atno 8010 bound_to 7997
  139.6442  144.0202  152.2115 H   0  0  0  0  0  0  0  0  0  0  0  0  # atno 10167 bound_to 10162
  157.4117  130.7918  149.7436 H   0  0  0  0  0  0  0  0  0  0  0  0  # atno 10718 bound_to 10713
  154.7947  135.3219  154.7695 H   0  0  0  0  0  0  0  0  0  0  0  0  # atno 10763 bound_to 10752
  153.8376  135.6874  153.4811 H   0  0  0  0  0  0  0  0  0  0  0  0  # atno 10764 bound_to 10752
  153.1633  135.4652  154.9744 H   0  0  0  0  0  0  0  0  0  0  0  0  # atno 10765 bound_to 10752
  141.1076  133.8767  157.1675 H   0  0  0  0  0  0  0  0  0  0  0  0  # atno 11005 bound_to 11000
  145.0650  140.9115  143.4916 LP  0  0  0  0  0  0  0  0  0  0  0  0  # atno 17320 bound_to 7965
  145.1033  139.2807  143.5675 LP  0  0  0  0  0  0  0  0  0  0  0  0  # atno 17321 bound_to 7965
  139.9900  144.6368  150.7823 LP  0  0  0  0  0  0  0  0  0  0  0  0  # atno 17342 bound_to 10162
  140.7506  143.2959  151.3207 LP  0  0  0  0  0  0  0  0  0  0  0  0  # atno 17343 bound_to 10162
  155.9852  130.3984  150.3270 LP  0  0  0  0  0  0  0  0  0  0  0  0  # atno 17370 bound_to 10713
  157.1409  131.0296  151.2928 LP  0  0  0  0  0  0  0  0  0  0  0  0  # atno 17371 bound_to 10713
  139.9954  135.0049  157.0070 LP  0  0  0  0  0  0  0  0  0  0  0  0  # atno 17394 bound_to 11000
  140.4861  134.1241  155.7224 LP  0  0  0  0  0  0  0  0  0  0  0  0  # atno 17395 bound_to 11000

$$$$
