AV-unprocessed.smi:2421|AV-procd|sdf|9556|dock5
  -GOLD-   2272013183D 1   1.00000     0.00000
 Structure written by MMmdl.
 44 46  0  0  0  0  0  0  0  0  1 V2000
  151.0441  135.7666  157.0423 C   0  0  0  0  0  0  0  0  0  0  0  0
  150.8737  134.3208  156.6755 C   0  0  0  0  0  0  0  0  0  0  0  0
  151.4851  133.3778  157.3766 N   0  0  0  0  0  0  0  0  0  0  0  0
  151.1378  132.1516  156.7835 O   0  0  0  0  0  0  0  0  0  0  0  0
  150.3161  132.3879  155.7255 C   0  0  0  0  0  0  0  0  0  0  0  0
  149.8376  131.2068  154.9517 C   0  0  0  0  0  0  0  0  0  0  0  0
  150.1173  133.7325  155.6296 C   0  0  0  0  0  0  0  0  0  0  0  0
  149.3520  134.4066  154.6561 N   0  0  0  0  0  0  0  0  0  0  0  0
  148.1782  133.9580  154.1816 C   0  0  0  0  0  0  0  0  0  0  0  0
  147.6924  132.8712  154.4906 O   0  0  0  0  0  0  0  0  0  0  0  0
  147.5652  134.7901  153.3203 N   0  0  0  0  0  0  0  0  0  0  0  0
  146.2867  134.5989  152.6323 C   0  0  1  0  0  0  0  0  0  0  0  0
  145.8452  135.9158  151.9822 C   0  0  0  0  0  0  0  0  0  0  0  0
  144.5507  135.7130  151.1822 C   0  0  0  0  0  0  0  0  0  0  0  0
  144.7135  134.6777  150.2144 O   0  0  0  0  0  0  0  0  0  0  0  0
  145.0986  133.3948  150.7225 C   0  0  0  0  0  0  0  0  0  0  0  0
  143.9433  132.7075  151.4724 C   0  0  0  0  0  0  0  0  0  0  0  0
  142.9894  132.2196  150.3781 C   0  0  0  0  0  0  0  0  0  0  0  0
  143.8482  132.0407  149.1182 C   0  0  0  0  0  0  0  0  0  0  0  0
  145.2660  132.4825  149.5014 C   0  0  0  0  0  0  0  0  0  0  0  0
  146.4026  133.5217  151.5396 C   0  0  0  0  0  0  0  0  0  0  0  0
  150.4522  136.4135  156.3945 H   0  0  0  0  0  0  0  0  0  0  0  0
  152.0865  136.0733  156.9530 H   0  0  0  0  0  0  0  0  0  0  0  0
  150.7280  135.9498  158.0693 H   0  0  0  0  0  0  0  0  0  0  0  0
  149.1430  131.5084  154.1674 H   0  0  0  0  0  0  0  0  0  0  0  0
  149.3234  130.5012  155.6041 H   0  0  0  0  0  0  0  0  0  0  0  0
  150.6738  130.6884  154.4828 H   0  0  0  0  0  0  0  0  0  0  0  0
  149.6907  135.3031  154.3386 H   0  0  0  0  0  0  0  0  0  0  0  0
  148.0575  135.6432  153.0971 H   0  0  0  0  0  0  0  0  0  0  0  0
  145.5232  134.3078  153.3559 H   0  0  0  0  0  0  0  0  0  0  0  0
  145.6960  136.6839  152.7418 H   0  0  0  0  0  0  0  0  0  0  0  0
  146.6263  136.2831  151.3147 H   0  0  0  0  0  0  0  0  0  0  0  0
  143.7150  135.4961  151.8467 H   0  0  0  0  0  0  0  0  0  0  0  0
  144.2922  136.6336  150.6588 H   0  0  0  0  0  0  0  0  0  0  0  0
  144.3287  131.8410  152.0117 H   0  0  0  0  0  0  0  0  0  0  0  0
  143.4454  133.3359  152.2093 H   0  0  0  0  0  0  0  0  0  0  0  0
  142.4847  131.2972  150.6671 H   0  0  0  0  0  0  0  0  0  0  0  0
  142.2196  132.9700  150.1940 H   0  0  0  0  0  0  0  0  0  0  0  0
  143.8380  131.0105  148.7608 H   0  0  0  0  0  0  0  0  0  0  0  0
  143.4612  132.6690  148.3149 H   0  0  0  0  0  0  0  0  0  0  0  0
  145.7886  132.9706  148.6777 H   0  0  0  0  0  0  0  0  0  0  0  0
  145.8485  131.6021  149.7774 H   0  0  0  0  0  0  0  0  0  0  0  0
  147.2193  133.7847  150.8654 H   0  0  0  0  0  0  0  0  0  0  0  0
  146.6683  132.5578  151.9752 H   0  0  0  0  0  0  0  0  0  0  0  0
  1  2  1  0  0  0  0
  1 22  1  0  0  0  0
  1 23  1  0  0  0  0
  1 24  1  0  0  0  0
  2  7  1  0  0  0  0
  2  3  2  0  0  0  0
  3  4  1  0  0  0  0
  4  5  1  0  0  0  0
  5  6  1  0  0  0  0
  5  7  2  0  0  0  0
  6 25  1  0  0  0  0
  6 26  1  0  0  0  0
  6 27  1  0  0  0  0
  7  8  1  0  0  0  0
  8  9  1  0  0  0  0
  8 28  1  0  0  0  0
  9 10  2  0  0  0  0
  9 11  1  0  0  0  0
 11 12  1  0  0  0  0
 11 29  1  0  0  0  0
 12 21  1  0  0  0  0
 12 13  1  0  0  0  0
 12 30  1  0  0  0  0
 13 14  1  0  0  0  0
 13 31  1  0  0  0  0
 13 32  1  0  0  0  0
 14 15  1  0  0  0  0
 14 33  1  0  0  0  0
 14 34  1  0  0  0  0
 15 16  1  0  0  0  0
 16 20  1  0  0  0  0
 16 17  1  0  0  0  0
 16 21  1  0  0  0  0
 17 18  1  0  0  0  0
 17 35  1  0  0  0  0
 17 36  1  0  0  0  0
 18 19  1  0  0  0  0
 18 37  1  0  0  0  0
 18 38  1  0  0  0  0
 19 20  1  0  0  0  0
 19 39  1  0  0  0  0
 19 40  1  0  0  0  0
 20 41  1  0  0  0  0
 20 42  1  0  0  0  0
 21 43  1  0  0  0  0
 21 44  1  0  0  0  0
M  END
> <s_m_source_file>
AV-unprocessed.smi

> <i_m_source_file_index>
2421

> <i_lp_mmshare_version>
43012

> <i_f3d_flags>
0

> <s_epik_input>
W0NIM11jMW5vYyhbQ0gzXSljMVtOSF1DKD1PKVtOSF1bQ0BASF0oW0NIMl0yKVtDSDJdW0NIMl1PQzIzW0NIMl1bQ0gyXVtDSDJdW0NIMl0z

> <s_epik_cmdline>
J2VwaWtfcHl0aG9uJywgJy1waCcsICc3LjAnLCAnLXRuJywgJzgnLCAnLW1hJywgJzIwMCcsICctbWV0YWxfYmluZGluZycsICctaW1hZScsICc8aW5maWxlLm1hZT4nLCAnLW9tYWUnLCAnPG91dGZpbGUubWFlPic=

> <r_lp_tautomer_probability>
1

> <r_epik_Ionization_Penalty>
3.59808e-05

> <r_epik_Ionization_Penalty_Charging>
0

> <r_epik_Ionization_Penalty_Neutral>
3.59808e-05

> <r_epik_State_Penalty>
-0

> <r_epik_Charging_Adjusted_Penalty>
0

> <i_epik_Tot_Q>
0

> <i_epik_Tot_abs_Q>
0

> <r_epik_Metal_State_Penalty>
-0

> <b_epik_Metal_Only>
0

> <s_lp_Force_Field>
OPLS_2005

> <r_lp_Energy>
43.4187

> <b_lp_Chiralities_Consistent>
1

> <s_lp_Variant>
AV-unprocessed.smi:2421-2

> <Gold.Version>
5.8.1

> <Gold.Id.Protein>
6NUR|6NUR_protein|mol2

> <Gold.PLP.Fitness>
33.2681

> <Gold.PLP.PLP>
-29.2122

> <Gold.PLP.part.hbond>
-1.7458

> <Gold.PLP.part.metal>
0.0000

> <Gold.PLP.part.buried>
4.1396

> <Gold.PLP.part.nonpolar>
-31.3870

> <Gold.PLP.part.repulsive>
1.4496

> <Gold.PLP.ligand.clash>
0.0000

> <Gold.PLP.ligand.torsion>
0.4084

> <Gold.PLP.Chemscore.Hbond>
1.4591

> <Gold.PLP.Chemscore.CHOScore>
0.0000

> <Gold.PLP.Chemscore.Metal>
0.0000

> <Gold.Chemscore.Hbonds>
donor molecule, donor type, donor heavy atom, donor atom, acceptor molecule, acceptor atom, score
      L1  H    11    29       P1  7948  0.72
      P1  H  6896  6907       L1     3  0.64

> <Gold.PLP.Chemscore.Internal.Correction>
0.4952

> <Gold.Rescore>
     Score         DG    S(hbond)    S(metal)    S(lipo)     H(rot)  DE(clash)    DE(int)     intcor
     11.94     -18.70       1.42        0.00      94.38       1.00       3.82       2.94       ----

> <Gold.Chemscore.Fitness>
11.9375

> <Gold.Chemscore.DG>
-18.7012

> <Gold.Chemscore.ZeroCoef>
-5.4800

> <Gold.Chemscore.Hbond>
1.4189

> <Gold.Chemscore.Metal>
0.0000

> <Gold.Chemscore.Lipo>
94.3774

> <Gold.Chemscore.Internal_Hbond>
0.0000

> <Gold.Chemscore.DEClash>
3.8209

> <Gold.Chemscore.DEInternal>
2.9429

> <Gold.Chemscore.Rot>
1.0000

> <Gold.Chemscore.Internal.Correction>
   9.000000E+99

> <Gold.Chemscore.Hbonds>
donor molecule, donor type, donor heavy atom, donor atom, acceptor molecule, acceptor atom, score
      L1  H    11    29       P1  7948  0.71
      P1  H  6896  6907       L1     3  0.56

> <Gold.Chemscore.Hbond.Weighted>
-4.7391

> <Gold.Chemscore.Metal.Weighted>
-0.0000

> <Gold.Chemscore.Lipo.Weighted>
-11.0422

> <Gold.Chemscore.Internal_Hbond.Weighted>
0.0000

> <Gold.Chemscore.DEClash.Weighted>
3.8209

> <Gold.Chemscore.DEInternal.Weighted>
2.9429

> <Gold.Chemscore.Rot.Weighted>
2.5600

> <Gold.Chemscore.Internal.Correction.Weighted>
   9.000000E+99

> <Gold.Protein.RotatedTorsions>
[ 6907 6896 6895 6894 ] final -168.56 input  -60.11 | X-H torsion
[ 7974 7965 7964 7962 ] final -172.76 input  175.53 | X-H torsion
[ 8008 7997 7996 7995 ] final  -58.00 input   59.86 | X-H torsion
[ 10167 10162 10161 10158 ] final  109.13 input  -65.29 | X-H torsion
[ 10718 10713 10712 10709 ] final -117.57 input   66.30 | X-H torsion
[ 10763 10752 10751 10750 ] final  141.94 input  -60.55 | X-H torsion
[ 11005 11000 10999 10996 ] final  -97.11 input  -57.11 | X-H torsion

> <Gold.Protein.ActiveResidues>
 VAL166  LYS551  ARG553  GLY616  TRP617  ASP618  TYR619  PRO620  LYS621  CYS622 
 ASP623  PHE694  ASN695  SER759  ASP760  ASP761  ALA762  ILE779  LEU786  VAL792 
 PHE793  MET794  SER795  GLU796  ALA797  LYS798  CYS799  TRP800  GLU811  SER814 

> <Gold.Protein.RotatedAtoms>
  151.4775  133.3554  159.2832 H   0  0  0  0  0  0  0  0  0  0  0  0  # atno 6907 bound_to 6896
  150.8919  134.8325  159.7310 H   0  0  0  0  0  0  0  0  0  0  0  0  # atno 6908 bound_to 6896
  152.4828  134.4686  159.9680 H   0  0  0  0  0  0  0  0  0  0  0  0  # atno 6909 bound_to 6896
  144.7143  140.1724  143.6366 H   0  0  0  0  0  0  0  0  0  0  0  0  # atno 7974 bound_to 7965
  154.4291  140.1094  156.5887 H   0  0  0  0  0  0  0  0  0  0  0  0  # atno 8008 bound_to 7997
  155.6035  140.3493  155.4582 H   0  0  0  0  0  0  0  0  0  0  0  0  # atno 8009 bound_to 7997
  156.0155  140.1228  157.0400 H   0  0  0  0  0  0  0  0  0  0  0  0  # atno 8010 bound_to 7997
  139.6791  144.7120  151.1548 H   0  0  0  0  0  0  0  0  0  0  0  0  # atno 10167 bound_to 10162
  156.1043  130.6197  150.9181 H   0  0  0  0  0  0  0  0  0  0  0  0  # atno 10718 bound_to 10713
  153.9476  135.2973  155.3440 H   0  0  0  0  0  0  0  0  0  0  0  0  # atno 10763 bound_to 10752
  154.7444  135.5010  153.9181 H   0  0  0  0  0  0  0  0  0  0  0  0  # atno 10764 bound_to 10752
  153.1010  135.6734  153.9780 H   0  0  0  0  0  0  0  0  0  0  0  0  # atno 10765 bound_to 10752
  141.1390  133.8146  157.0662 H   0  0  0  0  0  0  0  0  0  0  0  0  # atno 11005 bound_to 11000
  145.8931  139.2387  143.1537 LP  0  0  0  0  0  0  0  0  0  0  0  0  # atno 17320 bound_to 7965
  145.9884  140.8624  143.0079 LP  0  0  0  0  0  0  0  0  0  0  0  0  # atno 17321 bound_to 7965
  140.7646  143.5727  150.8979 LP  0  0  0  0  0  0  0  0  0  0  0  0  # atno 17342 bound_to 10162
  139.9398  143.6396  152.3056 LP  0  0  0  0  0  0  0  0  0  0  0  0  # atno 17343 bound_to 10162
  157.6218  131.0929  150.8608 LP  0  0  0  0  0  0  0  0  0  0  0  0  # atno 17370 bound_to 10713
  156.8730  130.5153  149.5295 LP  0  0  0  0  0  0  0  0  0  0  0  0  # atno 17371 bound_to 10713
  140.0540  134.9790  157.1188 LP  0  0  0  0  0  0  0  0  0  0  0  0  # atno 17394 bound_to 11000
  140.3947  134.2147  155.7165 LP  0  0  0  0  0  0  0  0  0  0  0  0  # atno 17395 bound_to 11000

$$$$
