AV-unprocessed.smi:219|AV-procd|sdf|1680|dock4
  -GOLD-   2262020113D 1   1.00000     0.00000
 Structure written by MMmdl.
 50 53  0  0  0  0  0  0  0  0  1 V2000
  155.9547  140.8025  161.0123 N   0  0  0  0  0  0  0  0  0  0  0  0
  155.5702  140.2985  159.8372 C   0  0  0  0  0  0  0  0  0  0  0  0
  156.3765  139.9929  158.9615 O   0  0  0  0  0  0  0  0  0  0  0  0
  154.0623  140.1154  159.6182 C   0  0  0  0  0  0  0  0  0  0  0  0
  153.3244  141.3328  158.9867 C   0  0  2  0  0  0  0  0  0  0  0  0
  153.0799  142.3930  160.0854 C   0  0  0  0  0  0  0  0  0  0  0  0
  152.3336  143.6221  159.5492 C   0  0  0  0  0  0  0  0  0  0  0  0
  151.0252  143.1872  158.8814 C   0  0  0  0  0  0  0  0  0  0  0  0
  151.3080  142.1478  157.7892 C   0  0  0  0  0  0  0  0  0  0  0  0
  152.0470  141.0022  158.3242 N   0  0  0  0  0  0  0  0  0  0  0  0
  152.0687  139.9734  157.4467 C   0  0  0  0  0  0  0  0  0  0  0  0
  152.6606  140.1256  156.2323 N   0  0  0  0  0  0  0  0  0  0  0  0
  152.7019  139.0979  155.3788 C   0  0  0  0  0  0  0  0  0  0  0  0
  152.2203  137.8624  155.5348 N   0  0  0  0  0  0  0  0  0  0  0  0
  151.6211  137.7125  156.7513 C   0  0  0  0  0  0  0  0  0  0  0  0
  151.5036  138.7096  157.7586 C   0  0  0  0  0  0  0  0  0  0  0  0
  150.8473  138.1951  158.8686 N   0  0  0  0  0  0  0  0  0  0  0  0
  150.5863  136.9608  158.5344 C   0  0  0  0  0  0  0  0  0  0  0  0
  151.0061  136.5889  157.2764 N   0  0  0  0  0  0  0  0  0  0  0  0
  150.8436  135.2831  156.6549 C   0  0  0  0  0  0  0  0  0  0  0  0
  150.0555  135.3235  155.3230 C   0  0  2  0  0  0  0  0  0  0  0  0
  150.8064  136.0536  154.3692 O   0  0  0  0  0  0  0  0  0  0  0  0
  148.6801  135.9764  155.4771 C   0  0  0  0  0  0  0  0  0  0  0  0
  147.7104  134.8091  155.3365 C   0  0  0  0  0  0  0  0  0  0  0  0
  148.3590  133.9802  154.3889 O   0  0  0  0  0  0  0  0  0  0  0  0
  149.7307  133.9279  154.7526 C   0  0  0  0  0  0  0  0  0  0  0  0
  156.9375  140.9388  161.2003 H   0  0  0  0  0  0  0  0  0  0  0  0
  155.2645  141.0440  161.7084 H   0  0  0  0  0  0  0  0  0  0  0  0
  153.8651  139.2138  159.0361 H   0  0  0  0  0  0  0  0  0  0  0  0
  153.6519  139.9203  160.6096 H   0  0  0  0  0  0  0  0  0  0  0  0
  153.9701  141.7880  158.2340 H   0  0  0  0  0  0  0  0  0  0  0  0
  152.5032  141.9496  160.8988 H   0  0  0  0  0  0  0  0  0  0  0  0
  154.0288  142.7110  160.5189 H   0  0  0  0  0  0  0  0  0  0  0  0
  152.1288  144.3223  160.3594 H   0  0  0  0  0  0  0  0  0  0  0  0
  152.9599  144.1492  158.8285 H   0  0  0  0  0  0  0  0  0  0  0  0
  150.3516  142.7632  159.6273 H   0  0  0  0  0  0  0  0  0  0  0  0
  150.5155  144.0509  158.4540 H   0  0  0  0  0  0  0  0  0  0  0  0
  150.3657  141.8116  157.3536 H   0  0  0  0  0  0  0  0  0  0  0  0
  151.8833  142.6112  156.9860 H   0  0  0  0  0  0  0  0  0  0  0  0
  153.1931  139.2935  154.4370 H   0  0  0  0  0  0  0  0  0  0  0  0
  150.0716  136.2830  159.2002 H   0  0  0  0  0  0  0  0  0  0  0  0
  151.8340  134.8571  156.4888 H   0  0  0  0  0  0  0  0  0  0  0  0
  150.3461  134.6257  157.3694 H   0  0  0  0  0  0  0  0  0  0  0  0
  150.2259  136.3171  153.6715 H   0  0  0  0  0  0  0  0  0  0  0  0
  148.5537  136.5082  156.4209 H   0  0  0  0  0  0  0  0  0  0  0  0
  148.4922  136.6905  154.6734 H   0  0  0  0  0  0  0  0  0  0  0  0
  147.5995  134.2740  156.2810 H   0  0  0  0  0  0  0  0  0  0  0  0
  146.7229  135.1190  154.9944 H   0  0  0  0  0  0  0  0  0  0  0  0
  150.3586  133.6422  153.9076 H   0  0  0  0  0  0  0  0  0  0  0  0
  149.8357  133.1564  155.5156 H   0  0  0  0  0  0  0  0  0  0  0  0
  1  2  1  0  0  0  0
  1 27  1  0  0  0  0
  1 28  1  0  0  0  0
  2  3  2  0  0  0  0
  2  4  1  0  0  0  0
  4  5  1  0  0  0  0
  4 29  1  0  0  0  0
  4 30  1  0  0  0  0
  5 10  1  0  0  0  0
  5  6  1  0  0  0  0
  5 31  1  0  0  0  0
  6  7  1  0  0  0  0
  6 32  1  0  0  0  0
  6 33  1  0  0  0  0
  7  8  1  0  0  0  0
  7 34  1  0  0  0  0
  7 35  1  0  0  0  0
  8  9  1  0  0  0  0
  8 36  1  0  0  0  0
  8 37  1  0  0  0  0
  9 10  1  0  0  0  0
  9 38  1  0  0  0  0
  9 39  1  0  0  0  0
 10 11  1  0  0  0  0
 11 16  1  0  0  0  0
 11 12  2  0  0  0  0
 12 13  1  0  0  0  0
 13 14  2  0  0  0  0
 13 40  1  0  0  0  0
 14 15  1  0  0  0  0
 15 19  1  0  0  0  0
 15 16  2  0  0  0  0
 16 17  1  0  0  0  0
 17 18  2  0  0  0  0
 18 19  1  0  0  0  0
 18 41  1  0  0  0  0
 19 20  1  0  0  0  0
 20 21  1  0  0  0  0
 20 42  1  0  0  0  0
 20 43  1  0  0  0  0
 21 26  1  0  0  0  0
 21 22  1  0  0  0  0
 21 23  1  0  0  0  0
 22 44  1  0  0  0  0
 23 24  1  0  0  0  0
 23 45  1  0  0  0  0
 23 46  1  0  0  0  0
 24 25  1  0  0  0  0
 24 47  1  0  0  0  0
 24 48  1  0  0  0  0
 25 26  1  0  0  0  0
 26 49  1  0  0  0  0
 26 50  1  0  0  0  0
M  END
> <s_m_source_file>
AV-unprocessed.smi

> <i_m_source_file_index>
219

> <i_lp_mmshare_version>
43012

> <i_f3d_flags>
0

> <s_epik_input>
W05IMl1DKD1PKVtDSDJdW0NAQEhdMVtDSDJdW0NIMl1bQ0gyXVtDSDJdTjFjKG5bY0hdbjIpYyhjMjMpbltjSF1uM1tDSDJdW0NAQF00KFtPSF0pW0NIMl1bQ0gyXU9bQ0gyXTQ=

> <s_epik_cmdline>
J2VwaWtfcHl0aG9uJywgJy1waCcsICc3LjAnLCAnLXRuJywgJzgnLCAnLW1hJywgJzIwMCcsICctbWV0YWxfYmluZGluZycsICctaW1hZScsICc8aW5maWxlLm1hZT4nLCAnLW9tYWUnLCAnPG91dGZpbGUubWFlPic=

> <r_lp_tautomer_probability>
1

> <r_epik_Ionization_Penalty>
0.00228532

> <r_epik_Ionization_Penalty_Charging>
0

> <r_epik_Ionization_Penalty_Neutral>
0.00228532

> <r_epik_State_Penalty>
0.00140978

> <r_epik_Charging_Adjusted_Penalty>
0.00140978

> <i_epik_Tot_Q>
0

> <i_epik_Tot_abs_Q>
0

> <r_epik_Metal_State_Penalty>
-0

> <b_epik_Metal_Only>
0

> <s_lp_Force_Field>
OPLS_2005

> <r_lp_Energy>
33.6932

> <b_lp_Chiralities_Consistent>
1

> <s_lp_Variant>
AV-unprocessed.smi:219-3

> <Gold.Version>
5.8.1

> <Gold.Id.Protein>
6NUR|6NUR_protein|mol2

> <Gold.PLP.Fitness>
43.9104

> <Gold.PLP.PLP>
-37.5167

> <Gold.PLP.part.hbond>
-5.0000

> <Gold.PLP.part.metal>
0.0000

> <Gold.PLP.part.buried>
-4.1384

> <Gold.PLP.part.nonpolar>
-27.3655

> <Gold.PLP.part.repulsive>
0.1549

> <Gold.PLP.ligand.clash>
0.0000

> <Gold.PLP.ligand.torsion>
0.7544

> <Gold.PLP.Chemscore.Hbond>
2.5420

> <Gold.PLP.Chemscore.CHOScore>
0.0000

> <Gold.PLP.Chemscore.Metal>
0.0000

> <Gold.Chemscore.Hbonds>
donor molecule, donor type, donor heavy atom, donor atom, acceptor molecule, acceptor atom, score
      L1  H    22    44       P1  7948  0.37
      P1  H  7997  8009       L1     3  1.00
      P1  H  7997  8010       L1    12  0.55
      P1  H 10752 10765       L1    22  0.62

> <Gold.PLP.Chemscore.Internal.Correction>
0.2765

> <Gold.Rescore>
     Score         DG    S(hbond)    S(metal)    S(lipo)     H(rot)  DE(clash)    DE(int)     intcor
     10.86     -11.78       1.99        0.00      70.63       3.37       0.02       0.91       ----

> <Gold.Chemscore.Fitness>
10.8570

> <Gold.Chemscore.DG>
-11.7788

> <Gold.Chemscore.ZeroCoef>
-5.4800

> <Gold.Chemscore.Hbond>
1.9945

> <Gold.Chemscore.Metal>
0.0000

> <Gold.Chemscore.Lipo>
70.6283

> <Gold.Chemscore.Internal_Hbond>
0.0000

> <Gold.Chemscore.DEClash>
0.0164

> <Gold.Chemscore.DEInternal>
0.9054

> <Gold.Chemscore.Rot>
3.3697

> <Gold.Chemscore.Internal.Correction>
   9.000000E+99

> <Gold.Chemscore.Hbonds>
donor molecule, donor type, donor heavy atom, donor atom, acceptor molecule, acceptor atom, score
      L1  H    22    44       P1  7948  0.02
      P1  H  7997  8009       L1     3  0.93
      P1  H  7997  8010       L1    12  0.03
      P1  H 10752 10765       L1    22  0.46

> <Gold.Chemscore.Hbond.Weighted>
-6.6617

> <Gold.Chemscore.Metal.Weighted>
-0.0000

> <Gold.Chemscore.Lipo.Weighted>
-8.2635

> <Gold.Chemscore.Internal_Hbond.Weighted>
0.0000

> <Gold.Chemscore.DEClash.Weighted>
0.0164

> <Gold.Chemscore.DEInternal.Weighted>
0.9054

> <Gold.Chemscore.Rot.Weighted>
8.6264

> <Gold.Chemscore.Internal.Correction.Weighted>
   9.000000E+99

> <Gold.Protein.RotatedTorsions>
[ 6907 6896 6895 6894 ] final   -1.44 input  -60.11 | X-H torsion
[ 7974 7965 7964 7962 ] final  -99.46 input  175.53 | X-H torsion
[ 8008 7997 7996 7995 ] final   76.49 input   59.86 | X-H torsion
[ 10167 10162 10161 10158 ] final  -82.50 input  -65.29 | X-H torsion
[ 10718 10713 10712 10709 ] final  -35.71 input   66.30 | X-H torsion
[ 10763 10752 10751 10750 ] final  179.81 input  -60.55 | X-H torsion
[ 11005 11000 10999 10996 ] final   56.83 input  -57.11 | X-H torsion

> <Gold.Protein.ActiveResidues>
 VAL166  LYS551  ARG553  GLY616  TRP617  ASP618  TYR619  PRO620  LYS621  CYS622 
 ASP623  PHE694  ASN695  SER759  ASP760  ASP761  ALA762  ILE779  LEU786  VAL792 
 PHE793  MET794  SER795  GLU796  ALA797  LYS798  CYS799  TRP800  GLU811  SER814 

> <Gold.Protein.RotatedAtoms>
  151.5461  135.1068  159.9937 H   0  0  0  0  0  0  0  0  0  0  0  0  # atno 6907 bound_to 6896
  152.4513  133.7631  159.6768 H   0  0  0  0  0  0  0  0  0  0  0  0  # atno 6908 bound_to 6896
  150.8442  133.7821  159.3073 H   0  0  0  0  0  0  0  0  0  0  0  0  # atno 6909 bound_to 6896
  145.3073  140.9392  143.2789 H   0  0  0  0  0  0  0  0  0  0  0  0  # atno 7974 bound_to 7965
  155.8280  140.3467  155.5555 H   0  0  0  0  0  0  0  0  0  0  0  0  # atno 8008 bound_to 7997
  155.8272  140.0921  157.1834 H   0  0  0  0  0  0  0  0  0  0  0  0  # atno 8009 bound_to 7997
  154.4004  140.1419  156.3558 H   0  0  0  0  0  0  0  0  0  0  0  0  # atno 8010 bound_to 7997
  140.4314  143.2547  151.8754 H   0  0  0  0  0  0  0  0  0  0  0  0  # atno 10167 bound_to 10162
  156.3354  130.4285  149.7835 H   0  0  0  0  0  0  0  0  0  0  0  0  # atno 10718 bound_to 10713
  154.5255  135.2796  155.1226 H   0  0  0  0  0  0  0  0  0  0  0  0  # atno 10763 bound_to 10752
  154.2766  135.6293  153.5334 H   0  0  0  0  0  0  0  0  0  0  0  0  # atno 10764 bound_to 10752
  152.9945  135.5641  154.5755 H   0  0  0  0  0  0  0  0  0  0  0  0  # atno 10765 bound_to 10752
  140.0499  134.5752  155.9276 H   0  0  0  0  0  0  0  0  0  0  0  0  # atno 11005 bound_to 11000
  144.9044  139.4608  143.6617 LP  0  0  0  0  0  0  0  0  0  0  0  0  # atno 17320 bound_to 7965
  146.3130  139.7817  142.9005 LP  0  0  0  0  0  0  0  0  0  0  0  0  # atno 17321 bound_to 7965
  139.4785  144.5330  151.8638 LP  0  0  0  0  0  0  0  0  0  0  0  0  # atno 17342 bound_to 10162
  140.4423  144.1969  150.5892 LP  0  0  0  0  0  0  0  0  0  0  0  0  # atno 17343 bound_to 10162
  156.5091  130.8164  151.3162 LP  0  0  0  0  0  0  0  0  0  0  0  0  # atno 17370 bound_to 10713
  157.7438  130.9919  150.2619 LP  0  0  0  0  0  0  0  0  0  0  0  0  # atno 17371 bound_to 10713
  141.1925  133.6575  156.5505 LP  0  0  0  0  0  0  0  0  0  0  0  0  # atno 17394 bound_to 11000
  140.3934  134.7420  157.4735 LP  0  0  0  0  0  0  0  0  0  0  0  0  # atno 17395 bound_to 11000

$$$$
