AV-unprocessed.smi:3149|AV-procd|sdf|12005|dock4
  -GOLD-   2272017413D 1   1.00000     0.00000
 Structure written by MMmdl.
 37 38  0  0  0  0  0  0  0  0  1 V2000
  147.5464  141.9559  156.4947 C   0  0  0  0  0  0  0  0  0  0  0  0
  148.8836  141.2157  156.2723 C   0  0  2  0  0  0  0  0  0  0  0  0
  149.9561  142.1914  156.0920 N   0  0  0  0  0  0  0  0  0  0  0  0
  150.9283  142.2041  157.1937 C   0  0  0  0  0  0  0  0  0  0  0  0
  150.3417  142.8387  158.4589 C   0  0  0  0  0  0  0  0  0  0  0  0
  149.2281  142.5016  158.8601 O   0  0  0  0  0  0  0  0  0  0  0  0
  151.1446  143.7295  159.1781 N   0  0  0  0  0  0  0  0  0  0  0  0
  152.2030  144.4861  158.5278 C   0  0  0  0  0  0  0  0  0  0  0  0
  151.9562  145.5449  159.6079 C   0  0  0  0  0  0  0  0  0  0  0  0
  150.5902  144.8948  159.8503 C   0  0  0  0  0  0  0  0  0  0  0  0
  148.8634  140.2826  155.0303 C   0  0  1  0  0  0  0  0  0  0  0  0
  148.5279  141.0346  153.7269 C   0  0  0  0  0  0  0  0  0  0  0  0
  150.1143  139.5499  154.8730 N   0  0  0  0  0  0  0  0  0  0  0  0
  150.4602  138.6566  153.8800 C   0  0  0  0  0  0  0  0  0  0  0  0
  151.7257  138.2186  154.1459 C   0  0  0  0  0  0  0  0  0  0  0  0
  152.0801  138.9115  155.3366 C   0  0  0  0  0  0  0  0  0  0  0  0
  151.1158  139.7073  155.7689 N   0  0  0  0  0  0  0  0  0  0  0  0
  146.7242  141.2597  156.6600 H   0  0  0  0  0  0  0  0  0  0  0  0
  147.2872  142.5730  155.6341 H   0  0  0  0  0  0  0  0  0  0  0  0
  147.5775  142.6026  157.3706 H   0  0  0  0  0  0  0  0  0  0  0  0
  149.0960  140.6034  157.1503 H   0  0  0  0  0  0  0  0  0  0  0  0
  149.5662  143.1073  155.9214 H   0  0  0  0  0  0  0  0  0  0  0  0
  151.2421  141.1864  157.4249 H   0  0  0  0  0  0  0  0  0  0  0  0
  151.8241  142.7534  156.9030 H   0  0  0  0  0  0  0  0  0  0  0  0
  153.1823  144.0088  158.5718 H   0  0  0  0  0  0  0  0  0  0  0  0
  151.9432  144.8275  157.5236 H   0  0  0  0  0  0  0  0  0  0  0  0
  152.6329  145.4601  160.4602 H   0  0  0  0  0  0  0  0  0  0  0  0
  151.9051  146.5667  159.2305 H   0  0  0  0  0  0  0  0  0  0  0  0
  149.7838  145.3797  159.2966 H   0  0  0  0  0  0  0  0  0  0  0  0
  150.3441  144.7304  160.8995 H   0  0  0  0  0  0  0  0  0  0  0  0
  148.0857  139.5323  155.1849 H   0  0  0  0  0  0  0  0  0  0  0  0
  147.5299  141.4712  153.7632 H   0  0  0  0  0  0  0  0  0  0  0  0
  148.5533  140.3618  152.8693 H   0  0  0  0  0  0  0  0  0  0  0  0
  149.2350  141.8426  153.5366 H   0  0  0  0  0  0  0  0  0  0  0  0
  149.7831  138.4076  153.0762 H   0  0  0  0  0  0  0  0  0  0  0  0
  152.3101  137.5112  153.5763 H   0  0  0  0  0  0  0  0  0  0  0  0
  153.0027  138.8603  155.8955 H   0  0  0  0  0  0  0  0  0  0  0  0
  1  2  1  0  0  0  0
  1 18  1  0  0  0  0
  1 19  1  0  0  0  0
  1 20  1  0  0  0  0
  2  3  1  0  0  0  0
  2 11  1  0  0  0  0
  2 21  1  0  0  0  0
  3  4  1  0  0  0  0
  3 22  1  0  0  0  0
  4  5  1  0  0  0  0
  4 23  1  0  0  0  0
  4 24  1  0  0  0  0
  5  6  2  0  0  0  0
  5  7  1  0  0  0  0
  7 10  1  0  0  0  0
  7  8  1  0  0  0  0
  8  9  1  0  0  0  0
  8 25  1  0  0  0  0
  8 26  1  0  0  0  0
  9 10  1  0  0  0  0
  9 27  1  0  0  0  0
  9 28  1  0  0  0  0
 10 29  1  0  0  0  0
 10 30  1  0  0  0  0
 11 12  1  0  0  0  0
 11 13  1  0  0  0  0
 11 31  1  0  0  0  0
 12 32  1  0  0  0  0
 12 33  1  0  0  0  0
 12 34  1  0  0  0  0
 13 17  1  0  0  0  0
 13 14  1  0  0  0  0
 14 15  2  0  0  0  0
 14 35  1  0  0  0  0
 15 16  1  0  0  0  0
 15 36  1  0  0  0  0
 16 17  2  0  0  0  0
 16 37  1  0  0  0  0
M  END
> <s_m_source_file>
AV-unprocessed.smi

> <i_m_source_file_index>
3149

> <i_lp_mmshare_version>
43012

> <i_f3d_flags>
0

> <s_epik_input>
bjFbY0hdW2NIXVtjSF1uMVtDQEBIXShbQ0gzXSlbQ0BIXShbQ0gzXSlbTkhdW0NIMl1DKD1PKU4yW0NIMl1bQ0gyXVtDSDJdMg==

> <s_epik_cmdline>
J2VwaWtfcHl0aG9uJywgJy1waCcsICc3LjAnLCAnLXRuJywgJzgnLCAnLW1hJywgJzIwMCcsICctbWV0YWxfYmluZGluZycsICctaW1hZScsICc8aW5maWxlLm1hZT4nLCAnLW9tYWUnLCAnPG91dGZpbGUubWFlPic=

> <r_lp_tautomer_probability>
1

> <r_epik_Ionization_Penalty>
0.918674

> <r_epik_Ionization_Penalty_Charging>
0

> <r_epik_Ionization_Penalty_Neutral>
0.918674

> <r_epik_State_Penalty>
0.958258

> <r_epik_Charging_Adjusted_Penalty>
0.958258

> <i_epik_Tot_Q>
0

> <i_epik_Tot_abs_Q>
0

> <r_epik_Metal_State_Penalty>
0.956881

> <b_epik_Metal_Only>
0

> <s_lp_Force_Field>
OPLS_2005

> <r_lp_Energy>
23.4504

> <b_lp_Chiralities_Consistent>
1

> <s_lp_Variant>
AV-unprocessed.smi:3149-7

> <Gold.Version>
5.8.1

> <Gold.Id.Protein>
6NUR|6NUR_protein|mol2

> <Gold.PLP.Fitness>
44.1954

> <Gold.PLP.PLP>
-38.3094

> <Gold.PLP.part.hbond>
-1.9218

> <Gold.PLP.part.metal>
0.0000

> <Gold.PLP.part.buried>
-2.9387

> <Gold.PLP.part.nonpolar>
-31.6755

> <Gold.PLP.part.repulsive>
0.1168

> <Gold.PLP.ligand.clash>
0.0000

> <Gold.PLP.ligand.torsion>
1.4178

> <Gold.PLP.Chemscore.Hbond>
1.0000

> <Gold.PLP.Chemscore.CHOScore>
1.5960

> <Gold.PLP.Chemscore.Metal>
0.0000

> <Gold.Chemscore.Hbonds>
donor molecule, donor type, donor heavy atom, donor atom, acceptor molecule, acceptor atom, score
      L1  H     3    22       P1  8028  1.00
      L1  C    14    35       P1  7948  0.87
      L1  C    14    35       P1  7957  0.76

> <Gold.PLP.Chemscore.Internal.Correction>
0.9335

> <Gold.Rescore>
     Score         DG    S(hbond)    S(metal)    S(lipo)     H(rot)  DE(clash)    DE(int)     intcor
     10.24     -14.87       1.00        0.00      90.78       1.79       0.11       4.51       ----

> <Gold.Chemscore.Fitness>
10.2397

> <Gold.Chemscore.DG>
-14.8650

> <Gold.Chemscore.ZeroCoef>
-5.4800

> <Gold.Chemscore.Hbond>
1.0000

> <Gold.Chemscore.Metal>
0.0000

> <Gold.Chemscore.Lipo>
90.7770

> <Gold.Chemscore.Internal_Hbond>
0.0000

> <Gold.Chemscore.DEClash>
0.1111

> <Gold.Chemscore.DEInternal>
4.5142

> <Gold.Chemscore.Rot>
1.7874

> <Gold.Chemscore.Internal.Correction>
   9.000000E+99

> <Gold.Chemscore.Hbonds>
donor molecule, donor type, donor heavy atom, donor atom, acceptor molecule, acceptor atom, score
      L1  H     3    22       P1  8028  1.00

> <Gold.Chemscore.Hbond.Weighted>
-3.3399

> <Gold.Chemscore.Metal.Weighted>
-0.0000

> <Gold.Chemscore.Lipo.Weighted>
-10.6209

> <Gold.Chemscore.Internal_Hbond.Weighted>
0.0000

> <Gold.Chemscore.DEClash.Weighted>
0.1111

> <Gold.Chemscore.DEInternal.Weighted>
4.5142

> <Gold.Chemscore.Rot.Weighted>
4.5758

> <Gold.Chemscore.Internal.Correction.Weighted>
   9.000000E+99

> <Gold.Protein.RotatedTorsions>
[ 6907 6896 6895 6894 ] final   38.85 input  -60.11 | X-H torsion
[ 7974 7965 7964 7962 ] final -155.16 input  175.53 | X-H torsion
[ 8008 7997 7996 7995 ] final   60.87 input   59.86 | X-H torsion
[ 10167 10162 10161 10158 ] final  -31.17 input  -65.29 | X-H torsion
[ 10718 10713 10712 10709 ] final  144.85 input   66.30 | X-H torsion
[ 10763 10752 10751 10750 ] final  141.04 input  -60.55 | X-H torsion
[ 11005 11000 10999 10996 ] final -101.82 input  -57.11 | X-H torsion

> <Gold.Protein.ActiveResidues>
 VAL166  LYS551  ARG553  GLY616  TRP617  ASP618  TYR619  PRO620  LYS621  CYS622 
 ASP623  PHE694  ASN695  SER759  ASP760  ASP761  ALA762  ILE779  LEU786  VAL792 
 PHE793  MET794  SER795  GLU796  ALA797  LYS798  CYS799  TRP800  GLU811  SER814 

> <Gold.Protein.RotatedAtoms>
  152.1618  134.8905  160.0540 H   0  0  0  0  0  0  0  0  0  0  0  0  # atno 6907 bound_to 6896
  151.9898  133.3782  159.4148 H   0  0  0  0  0  0  0  0  0  0  0  0  # atno 6908 bound_to 6896
  150.6889  134.3871  159.5104 H   0  0  0  0  0  0  0  0  0  0  0  0  # atno 6909 bound_to 6896
  144.7653  140.4287  143.5946 H   0  0  0  0  0  0  0  0  0  0  0  0  # atno 7974 bound_to 7965
  155.5893  140.3492  155.4562 H   0  0  0  0  0  0  0  0  0  0  0  0  # atno 8008 bound_to 7997
  156.0314  140.1275  157.0279 H   0  0  0  0  0  0  0  0  0  0  0  0  # atno 8009 bound_to 7997
  154.4354  140.1042  156.6090 H   0  0  0  0  0  0  0  0  0  0  0  0  # atno 8010 bound_to 7997
  140.7240  143.3792  151.1633 H   0  0  0  0  0  0  0  0  0  0  0  0  # atno 10167 bound_to 10162
  157.3523  131.0952  151.0989 H   0  0  0  0  0  0  0  0  0  0  0  0  # atno 10718 bound_to 10713
  153.9327  135.2988  155.3445 H   0  0  0  0  0  0  0  0  0  0  0  0  # atno 10763 bound_to 10752
  154.7518  135.4976  153.9306 H   0  0  0  0  0  0  0  0  0  0  0  0  # atno 10764 bound_to 10752
  153.1083  135.6752  153.9651 H   0  0  0  0  0  0  0  0  0  0  0  0  # atno 10765 bound_to 10752
  141.1215  133.8508  157.1280 H   0  0  0  0  0  0  0  0  0  0  0  0  # atno 11005 bound_to 11000
  145.6488  139.1561  143.2873 LP  0  0  0  0  0  0  0  0  0  0  0  0  # atno 17320 bound_to 7965
  146.1755  140.6579  142.9213 LP  0  0  0  0  0  0  0  0  0  0  0  0  # atno 17321 bound_to 7965
  139.7377  143.8972  152.3040 LP  0  0  0  0  0  0  0  0  0  0  0  0  # atno 17342 bound_to 10162
  139.8783  144.7031  150.8907 LP  0  0  0  0  0  0  0  0  0  0  0  0  # atno 17343 bound_to 10162
  157.2160  130.6459  149.5792 LP  0  0  0  0  0  0  0  0  0  0  0  0  # atno 17370 bound_to 10713
  155.9723  130.4644  150.6218 LP  0  0  0  0  0  0  0  0  0  0  0  0  # atno 17371 bound_to 10713
  140.0176  134.9960  157.0526 LP  0  0  0  0  0  0  0  0  0  0  0  0  # atno 17394 bound_to 11000
  140.4493  134.1599  155.7180 LP  0  0  0  0  0  0  0  0  0  0  0  0  # atno 17395 bound_to 11000

$$$$
