AV-unprocessed.smi:2272|AV-procd|sdf|9163|dock9
  -GOLD-   2272012373D 1   1.00000     0.00000
 Structure written by MMmdl.
 41 42  0  0  0  0  0  0  0  0  1 V2000
  146.2559  137.0821  155.4010 C   0  0  0  0  0  0  0  0  0  0  0  0
  147.7192  137.4083  155.1601 C   0  0  0  0  0  0  0  0  0  0  0  0
  147.9808  138.6963  154.6834 N   0  0  0  0  0  0  0  0  0  0  0  0
  149.1985  139.0612  154.4470 C   0  0  0  0  0  0  0  0  0  0  0  0
  150.2826  138.1948  154.6606 N   0  0  0  0  0  0  0  0  0  0  0  0
  151.6161  138.7278  154.3387 C   0  0  0  0  0  0  0  0  0  0  0  0
  152.5017  138.8613  155.5990 C   0  0  1  0  0  0  0  0  0  0  0  0
  153.7699  139.3524  155.2138 O   0  0  0  0  0  0  0  0  0  0  0  0
  151.9194  139.8529  156.6166 C   0  0  0  0  0  0  0  0  0  0  0  0
  152.7153  139.8160  157.7924 O   0  0  0  0  0  0  0  0  0  0  0  0
  152.0198  140.1880  158.9733 C   0  0  0  0  0  0  0  0  0  0  0  0
  152.2370  141.6408  159.3645 C   0  0  0  0  0  0  0  0  0  0  0  0
  151.8125  142.6735  158.5016 C   0  0  0  0  0  0  0  0  0  0  0  0
  152.0158  144.0215  158.8555 C   0  0  0  0  0  0  0  0  0  0  0  0
  152.6486  144.3429  160.0715 C   0  0  0  0  0  0  0  0  0  0  0  0
  153.0799  143.3156  160.9326 C   0  0  0  0  0  0  0  0  0  0  0  0
  152.8778  141.9666  160.5804 C   0  0  0  0  0  0  0  0  0  0  0  0
  153.3013  140.9880  161.4159 F   0  0  0  0  0  0  0  0  0  0  0  0
  150.1159  136.9189  155.1149 C   0  0  0  0  0  0  0  0  0  0  0  0
  151.0734  136.1607  155.2807 O   0  0  0  0  0  0  0  0  0  0  0  0
  148.7251  136.5188  155.3828 C   0  0  0  0  0  0  0  0  0  0  0  0
  148.4997  135.1025  155.8976 C   0  0  0  0  0  0  0  0  0  0  0  0
  146.0890  136.8225  156.4466 H   0  0  0  0  0  0  0  0  0  0  0  0
  145.9453  136.2426  154.7784 H   0  0  0  0  0  0  0  0  0  0  0  0
  145.6141  137.9310  155.1615 H   0  0  0  0  0  0  0  0  0  0  0  0
  149.4563  140.0512  154.0672 H   0  0  0  0  0  0  0  0  0  0  0  0
  152.1213  138.1395  153.5696 H   0  0  0  0  0  0  0  0  0  0  0  0
  151.4882  139.7067  153.8731 H   0  0  0  0  0  0  0  0  0  0  0  0
  152.6393  137.8964  156.0891 H   0  0  0  0  0  0  0  0  0  0  0  0
  153.6562  139.9305  154.4748 H   0  0  0  0  0  0  0  0  0  0  0  0
  151.9362  140.8656  156.2097 H   0  0  0  0  0  0  0  0  0  0  0  0
  150.8794  139.6039  156.8332 H   0  0  0  0  0  0  0  0  0  0  0  0
  150.9540  140.0449  158.7940 H   0  0  0  0  0  0  0  0  0  0  0  0
  152.2868  139.5191  159.7931 H   0  0  0  0  0  0  0  0  0  0  0  0
  151.3270  142.4364  157.5664 H   0  0  0  0  0  0  0  0  0  0  0  0
  151.6868  144.8088  158.1935 H   0  0  0  0  0  0  0  0  0  0  0  0
  152.8049  145.3765  160.3428 H   0  0  0  0  0  0  0  0  0  0  0  0
  153.5678  143.5624  161.8639 H   0  0  0  0  0  0  0  0  0  0  0  0
  148.8579  134.3762  155.1672 H   0  0  0  0  0  0  0  0  0  0  0  0
  147.4531  134.8787  156.0968 H   0  0  0  0  0  0  0  0  0  0  0  0
  149.0493  134.9479  156.8266 H   0  0  0  0  0  0  0  0  0  0  0  0
  1  2  1  0  0  0  0
  1 23  1  0  0  0  0
  1 24  1  0  0  0  0
  1 25  1  0  0  0  0
  2 21  2  0  0  0  0
  2  3  1  0  0  0  0
  3  4  2  0  0  0  0
  4  5  1  0  0  0  0
  4 26  1  0  0  0  0
  5  6  1  0  0  0  0
  5 19  1  0  0  0  0
  6  7  1  0  0  0  0
  6 27  1  0  0  0  0
  6 28  1  0  0  0  0
  7  8  1  0  0  0  0
  7  9  1  0  0  0  0
  7 29  1  0  0  0  0
  8 30  1  0  0  0  0
  9 10  1  0  0  0  0
  9 31  1  0  0  0  0
  9 32  1  0  0  0  0
 10 11  1  0  0  0  0
 11 12  1  0  0  0  0
 11 33  1  0  0  0  0
 11 34  1  0  0  0  0
 12 17  1  0  0  0  0
 12 13  2  0  0  0  0
 13 14  1  0  0  0  0
 13 35  1  0  0  0  0
 14 15  2  0  0  0  0
 14 36  1  0  0  0  0
 15 16  1  0  0  0  0
 15 37  1  0  0  0  0
 16 17  2  0  0  0  0
 16 38  1  0  0  0  0
 17 18  1  0  0  0  0
 19 20  2  0  0  0  0
 19 21  1  0  0  0  0
 21 22  1  0  0  0  0
 22 39  1  0  0  0  0
 22 40  1  0  0  0  0
 22 41  1  0  0  0  0
M  END
> <s_m_source_file>
AV-unprocessed.smi

> <i_m_source_file_index>
2272

> <i_lp_mmshare_version>
43012

> <i_f3d_flags>
0

> <s_epik_input>
W0NIM11jMW5bY0hdbihjKD1PKWMxW0NIM10pW0NIMl1bQ0BIXShbT0hdKVtDSDJdT1tDSDJdYzJbY0hdW2NIXVtjSF1bY0hdYzJG

> <s_epik_cmdline>
J2VwaWtfcHl0aG9uJywgJy1waCcsICc3LjAnLCAnLXRuJywgJzgnLCAnLW1hJywgJzIwMCcsICctbWV0YWxfYmluZGluZycsICctaW1hZScsICc8aW5maWxlLm1hZT4nLCAnLW9tYWUnLCAnPG91dGZpbGUubWFlPic=

> <r_lp_tautomer_probability>
1

> <r_epik_Ionization_Penalty>
5.35985e-05

> <r_epik_Ionization_Penalty_Charging>
1.17753e-07

> <r_epik_Ionization_Penalty_Neutral>
5.34808e-05

> <r_epik_State_Penalty>
-0

> <r_epik_Charging_Adjusted_Penalty>
1.17753e-07

> <i_epik_Tot_Q>
0

> <i_epik_Tot_abs_Q>
0

> <r_epik_Metal_State_Penalty>
-0

> <b_epik_Metal_Only>
0

> <s_lp_Force_Field>
OPLS_2005

> <r_lp_Energy>
21.4702

> <b_lp_Chiralities_Consistent>
1

> <s_lp_Variant>
AV-unprocessed.smi:2272-2

> <Gold.Version>
5.8.1

> <Gold.Id.Protein>
6NUR|6NUR_protein|mol2

> <Gold.PLP.Fitness>
52.9683

> <Gold.PLP.PLP>
-44.8091

> <Gold.PLP.part.hbond>
-2.8744

> <Gold.PLP.part.metal>
0.0000

> <Gold.PLP.part.buried>
-5.6164

> <Gold.PLP.part.nonpolar>
-36.9710

> <Gold.PLP.part.repulsive>
0.2363

> <Gold.PLP.ligand.clash>
0.0000

> <Gold.PLP.ligand.torsion>
0.4746

> <Gold.PLP.Chemscore.Hbond>
1.9913

> <Gold.PLP.Chemscore.CHOScore>
1.0000

> <Gold.PLP.Chemscore.Metal>
0.0000

> <Gold.Chemscore.Hbonds>
donor molecule, donor type, donor heavy atom, donor atom, acceptor molecule, acceptor atom, score
      P1  H  7997  8009       L1    10  0.01
      P1  H  7997  8010       L1     8  0.16
      P1  H 10752 10763       L1    20  0.89
      L1  C     4    26       P1  7957  0.03

> <Gold.PLP.Chemscore.Internal.Correction>
0.1346

> <Gold.Rescore>
     Score         DG    S(hbond)    S(metal)    S(lipo)     H(rot)  DE(clash)    DE(int)     intcor
     16.74     -17.52       1.98        0.00     105.25       2.69       0.06       0.72       ----

> <Gold.Chemscore.Fitness>
16.7423

> <Gold.Chemscore.DG>
-17.5182

> <Gold.Chemscore.ZeroCoef>
-5.4800

> <Gold.Chemscore.Hbond>
1.9758

> <Gold.Chemscore.Metal>
0.0000

> <Gold.Chemscore.Lipo>
105.2532

> <Gold.Chemscore.Internal_Hbond>
0.0000

> <Gold.Chemscore.DEClash>
0.0582

> <Gold.Chemscore.DEInternal>
0.7176

> <Gold.Chemscore.Rot>
2.6857

> <Gold.Chemscore.Internal.Correction>
   9.000000E+99

> <Gold.Chemscore.Hbonds>
donor molecule, donor type, donor heavy atom, donor atom, acceptor molecule, acceptor atom, score
      P1  H  7997  8009       L1    10  0.02
      P1  H 10752 10763       L1    20  0.87

> <Gold.Chemscore.Hbond.Weighted>
-6.5990

> <Gold.Chemscore.Metal.Weighted>
-0.0000

> <Gold.Chemscore.Lipo.Weighted>
-12.3146

> <Gold.Chemscore.Internal_Hbond.Weighted>
0.0000

> <Gold.Chemscore.DEClash.Weighted>
0.0582

> <Gold.Chemscore.DEInternal.Weighted>
0.7176

> <Gold.Chemscore.Rot.Weighted>
6.8755

> <Gold.Chemscore.Internal.Correction.Weighted>
   9.000000E+99

> <Gold.Protein.RotatedTorsions>
[ 6907 6896 6895 6894 ] final  142.21 input  -60.11 | X-H torsion
[ 7974 7965 7964 7962 ] final  108.33 input  175.53 | X-H torsion
[ 8008 7997 7996 7995 ] final  119.21 input   59.86 | X-H torsion
[ 10167 10162 10161 10158 ] final  143.84 input  -65.29 | X-H torsion
[ 10718 10713 10712 10709 ] final  118.60 input   66.30 | X-H torsion
[ 10763 10752 10751 10750 ] final   73.57 input  -60.55 | X-H torsion
[ 11005 11000 10999 10996 ] final  -39.72 input  -57.11 | X-H torsion

> <Gold.Protein.ActiveResidues>
 VAL166  LYS551  ARG553  GLY616  TRP617  ASP618  TYR619  PRO620  LYS621  CYS622 
 ASP623  PHE694  ASN695  SER759  ASP760  ASP761  ALA762  ILE779  LEU786  VAL792 
 PHE793  MET794  SER795  GLU796  ALA797  LYS798  CYS799  TRP800  GLU811  SER814 

> <Gold.Protein.RotatedAtoms>
  152.2215  133.4987  159.5164 H   0  0  0  0  0  0  0  0  0  0  0  0  # atno 6907 bound_to 6896
  150.7014  134.1336  159.4088 H   0  0  0  0  0  0  0  0  0  0  0  0  # atno 6908 bound_to 6896
  151.9257  135.0278  160.0576 H   0  0  0  0  0  0  0  0  0  0  0  0  # atno 6909 bound_to 6896
  145.2820  139.2629  143.3910 H   0  0  0  0  0  0  0  0  0  0  0  0  # atno 7974 bound_to 7965
  156.2585  140.2858  156.0956 H   0  0  0  0  0  0  0  0  0  0  0  0  # atno 8008 bound_to 7997
  155.1416  140.0395  157.2817 H   0  0  0  0  0  0  0  0  0  0  0  0  # atno 8009 bound_to 7997
  154.6526  140.2548  155.7203 H   0  0  0  0  0  0  0  0  0  0  0  0  # atno 8010 bound_to 7997
  139.4960  144.6013  151.6474 H   0  0  0  0  0  0  0  0  0  0  0  0  # atno 10167 bound_to 10162
  157.6019  131.1049  150.7779 H   0  0  0  0  0  0  0  0  0  0  0  0  # atno 10718 bound_to 10713
  153.0530  135.5058  154.7913 H   0  0  0  0  0  0  0  0  0  0  0  0  # atno 10763 bound_to 10752
  154.6761  135.2960  154.9679 H   0  0  0  0  0  0  0  0  0  0  0  0  # atno 10764 bound_to 10752
  154.0481  135.6708  153.4850 H   0  0  0  0  0  0  0  0  0  0  0  0  # atno 10765 bound_to 10752
  141.0123  133.6902  156.2225 H   0  0  0  0  0  0  0  0  0  0  0  0  # atno 11005 bound_to 11000
  146.3213  140.3290  142.8639 LP  0  0  0  0  0  0  0  0  0  0  0  0  # atno 17320 bound_to 7965
  144.9245  140.7905  143.5728 LP  0  0  0  0  0  0  0  0  0  0  0  0  # atno 17321 bound_to 7965
  140.5664  144.0183  150.6194 LP  0  0  0  0  0  0  0  0  0  0  0  0  # atno 17342 bound_to 10162
  140.3286  143.3092  152.0710 LP  0  0  0  0  0  0  0  0  0  0  0  0  # atno 17343 bound_to 10162
  156.8176  130.4973  149.5347 LP  0  0  0  0  0  0  0  0  0  0  0  0  # atno 17370 bound_to 10713
  156.1095  130.6029  151.0024 LP  0  0  0  0  0  0  0  0  0  0  0  0  # atno 17371 bound_to 10713
  140.6714  134.4864  157.5587 LP  0  0  0  0  0  0  0  0  0  0  0  0  # atno 17394 bound_to 11000
  139.9097  134.8372  156.1575 LP  0  0  0  0  0  0  0  0  0  0  0  0  # atno 17395 bound_to 11000

$$$$
