AV-unprocessed.smi:227|AV-procd|sdf|1736|dock2
  -GOLD-   2262020233D 1   1.00000     0.00000
 Structure written by MMmdl.
 54 58  0  0  0  0  0  0  0  0  1 V2000
  153.8281  138.9798  158.2407 O   0  0  0  0  0  0  0  0  0  0  0  0
  152.4420  139.2413  158.1557 C   0  0  0  0  0  0  0  0  0  0  0  0
  152.1467  140.5316  157.3473 C   0  0  1  0  0  0  0  0  0  0  0  0
  151.2002  140.2726  156.1452 C   0  0  0  0  0  0  0  0  0  0  0  0
  151.0860  138.8715  155.7815 N   0  0  0  0  0  0  0  0  0  0  0  0
  151.6952  138.2499  154.7176 C   0  0  0  0  0  0  0  0  0  0  0  0
  151.4423  136.9755  154.6030 N   0  0  0  0  0  0  0  0  0  0  0  0
  150.5983  136.6888  155.6713 C   0  0  0  0  0  0  0  0  0  0  0  0
  149.9562  135.5103  156.1586 C   0  0  0  0  0  0  0  0  0  0  0  0
  150.0549  134.2718  155.5989 N   0  0  0  0  0  0  0  0  0  0  0  0
  149.4521  133.0967  156.2115 C   0  0  2  0  0  0  0  0  0  0  0  0
  149.9884  131.9550  155.3305 C   0  0  0  0  0  0  0  0  0  0  0  0
  150.0322  132.6317  153.9533 C   0  0  0  0  0  0  0  0  0  0  0  0
  149.4731  134.0281  154.2851 C   0  0  1  0  0  0  0  0  0  0  0  0
  147.9512  133.9787  154.5791 C   0  0  1  0  0  0  0  0  0  0  0  0
  147.0664  133.3403  153.4926 C   0  0  0  0  0  0  0  0  0  0  0  0
  147.1384  134.1016  152.3061 O   0  0  0  0  0  0  0  0  0  0  0  0
  147.9419  133.2621  155.9434 C   0  0  0  0  0  0  0  0  0  0  0  0
  149.1698  135.6443  157.2594 N   0  0  0  0  0  0  0  0  0  0  0  0
  149.0291  136.8298  157.8572 C   0  0  0  0  0  0  0  0  0  0  0  0
  149.5729  138.0003  157.5241 N   0  0  0  0  0  0  0  0  0  0  0  0
  150.3554  137.8812  156.4142 C   0  0  0  0  0  0  0  0  0  0  0  0
  151.5693  141.6408  158.2645 C   0  0  1  0  0  0  0  0  0  0  0  0
  152.5512  142.1944  159.2980 C   0  0  0  0  0  0  0  0  0  0  0  0
  152.2326  143.6901  159.3860 C   0  0  0  0  0  0  0  0  0  0  0  0
  151.0799  143.8774  158.5804 O   0  0  0  0  0  0  0  0  0  0  0  0
  151.1323  142.9174  157.5409 C   0  0  0  0  0  0  0  0  0  0  0  0
  153.9679  138.0547  158.1069 H   0  0  0  0  0  0  0  0  0  0  0  0
  151.9322  138.3835  157.7159 H   0  0  0  0  0  0  0  0  0  0  0  0
  152.0829  139.3216  159.1808 H   0  0  0  0  0  0  0  0  0  0  0  0
  153.0937  140.9050  156.9539 H   0  0  0  0  0  0  0  0  0  0  0  0
  150.2031  140.6581  156.3623 H   0  0  0  0  0  0  0  0  0  0  0  0
  151.5475  140.8056  155.2603 H   0  0  0  0  0  0  0  0  0  0  0  0
  152.3407  138.7745  154.0283 H   0  0  0  0  0  0  0  0  0  0  0  0
  149.6949  132.9327  157.2596 H   0  0  0  0  0  0  0  0  0  0  0  0
  150.9904  131.6574  155.6422 H   0  0  0  0  0  0  0  0  0  0  0  0
  149.3503  131.0708  155.3501 H   0  0  0  0  0  0  0  0  0  0  0  0
  151.0634  132.7092  153.6063 H   0  0  0  0  0  0  0  0  0  0  0  0
  149.4706  132.0965  153.1889 H   0  0  0  0  0  0  0  0  0  0  0  0
  149.7370  134.7646  153.5254 H   0  0  0  0  0  0  0  0  0  0  0  0
  147.6100  135.0056  154.7243 H   0  0  0  0  0  0  0  0  0  0  0  0
  147.4039  132.3267  153.2755 H   0  0  0  0  0  0  0  0  0  0  0  0
  146.0237  133.2801  153.8034 H   0  0  0  0  0  0  0  0  0  0  0  0
  147.9021  134.6562  152.3517 H   0  0  0  0  0  0  0  0  0  0  0  0
  147.4172  132.3060  155.9284 H   0  0  0  0  0  0  0  0  0  0  0  0
  147.4723  133.8892  156.7022 H   0  0  0  0  0  0  0  0  0  0  0  0
  148.3901  136.8415  158.7277 H   0  0  0  0  0  0  0  0  0  0  0  0
  150.7014  141.2484  158.7971 H   0  0  0  0  0  0  0  0  0  0  0  0
  152.4255  141.7004  160.2621 H   0  0  0  0  0  0  0  0  0  0  0  0
  153.5877  142.0558  158.9873 H   0  0  0  0  0  0  0  0  0  0  0  0
  152.0486  144.0195  160.4089 H   0  0  0  0  0  0  0  0  0  0  0  0
  153.0547  144.2818  158.9807 H   0  0  0  0  0  0  0  0  0  0  0  0
  151.8662  143.2250  156.7936 H   0  0  0  0  0  0  0  0  0  0  0  0
  150.1622  142.8185  157.0535 H   0  0  0  0  0  0  0  0  0  0  0  0
  1  2  1  0  0  0  0
  1 28  1  0  0  0  0
  2  3  1  0  0  0  0
  2 29  1  0  0  0  0
  2 30  1  0  0  0  0
  3  4  1  0  0  0  0
  3 23  1  0  0  0  0
  3 31  1  0  0  0  0
  4  5  1  0  0  0  0
  4 32  1  0  0  0  0
  4 33  1  0  0  0  0
  5 22  1  0  0  0  0
  5  6  1  0  0  0  0
  6  7  2  0  0  0  0
  6 34  1  0  0  0  0
  7  8  1  0  0  0  0
  8 22  2  0  0  0  0
  8  9  1  0  0  0  0
  9 10  1  0  0  0  0
  9 19  2  0  0  0  0
 10 14  1  0  0  0  0
 10 11  1  0  0  0  0
 11 18  1  0  0  0  0
 11 12  1  0  0  0  0
 11 35  1  0  0  0  0
 12 13  1  0  0  0  0
 12 36  1  0  0  0  0
 12 37  1  0  0  0  0
 13 14  1  0  0  0  0
 13 38  1  0  0  0  0
 13 39  1  0  0  0  0
 14 15  1  0  0  0  0
 14 40  1  0  0  0  0
 15 16  1  0  0  0  0
 15 18  1  0  0  0  0
 15 41  1  0  0  0  0
 16 17  1  0  0  0  0
 16 42  1  0  0  0  0
 16 43  1  0  0  0  0
 17 44  1  0  0  0  0
 18 45  1  0  0  0  0
 18 46  1  0  0  0  0
 19 20  1  0  0  0  0
 20 21  2  0  0  0  0
 20 47  1  0  0  0  0
 21 22  1  0  0  0  0
 23 27  1  0  0  0  0
 23 24  1  0  0  0  0
 23 48  1  0  0  0  0
 24 25  1  0  0  0  0
 24 49  1  0  0  0  0
 24 50  1  0  0  0  0
 25 26  1  0  0  0  0
 25 51  1  0  0  0  0
 25 52  1  0  0  0  0
 26 27  1  0  0  0  0
 27 53  1  0  0  0  0
 27 54  1  0  0  0  0
M  END
> <s_m_source_file>
AV-unprocessed.smi

> <i_m_source_file_index>
227

> <i_lp_mmshare_version>
43012

> <i_f3d_flags>
0

> <s_epik_input>
W0NIMl0xT1tDSDJdW0NIMl1bQ0BIXTFbQ0BIXShbQ0gyXVtPSF0pW0NIMl1uKFtjSF1uMiljKGMyMyluW2NIXW5jM04oW0NASF00NSlbQ0BASF0oW0NIMl1bQ0gyXTQpW0NASF0oW0NIMl01KVtDSDJdW09IXQ==

> <s_epik_cmdline>
J2VwaWtfcHl0aG9uJywgJy1waCcsICc3LjAnLCAnLXRuJywgJzgnLCAnLW1hJywgJzIwMCcsICctbWV0YWxfYmluZGluZycsICctaW1hZScsICc8aW5maWxlLm1hZT4nLCAnLW9tYWUnLCAnPG91dGZpbGUubWFlPic=

> <r_lp_tautomer_probability>
1

> <r_epik_Ionization_Penalty>
0.0055791

> <r_epik_Ionization_Penalty_Charging>
0

> <r_epik_Ionization_Penalty_Neutral>
0.0055791

> <r_epik_State_Penalty>
0.00401299

> <r_epik_Charging_Adjusted_Penalty>
0.00401299

> <i_epik_Tot_Q>
0

> <i_epik_Tot_abs_Q>
0

> <r_epik_Metal_State_Penalty>
-0

> <b_epik_Metal_Only>
0

> <s_lp_Force_Field>
OPLS_2005

> <r_lp_Energy>
88.8293

> <b_lp_Chiralities_Consistent>
1

> <s_lp_Variant>
AV-unprocessed.smi:227-10

> <Gold.Version>
5.8.1

> <Gold.Id.Protein>
6NUR|6NUR_protein|mol2

> <Gold.PLP.Fitness>
43.2247

> <Gold.PLP.PLP>
-37.3910

> <Gold.PLP.part.hbond>
-3.0000

> <Gold.PLP.part.metal>
0.0000

> <Gold.PLP.part.buried>
-5.9351

> <Gold.PLP.part.nonpolar>
-27.6099

> <Gold.PLP.part.repulsive>
0.3320

> <Gold.PLP.ligand.clash>
0.0000

> <Gold.PLP.ligand.torsion>
1.7204

> <Gold.PLP.Chemscore.Hbond>
3.0000

> <Gold.PLP.Chemscore.CHOScore>
0.0000

> <Gold.PLP.Chemscore.Metal>
0.0000

> <Gold.Chemscore.Hbonds>
donor molecule, donor type, donor heavy atom, donor atom, acceptor molecule, acceptor atom, score
      L1  H    17    44       P1  7948  1.00
      P1  H  7997  8009       L1     1  1.00
      P1  H 10752 10764       L1     7  1.00

> <Gold.PLP.Chemscore.Internal.Correction>
0.2746

> <Gold.Rescore>
     Score         DG    S(hbond)    S(metal)    S(lipo)     H(rot)  DE(clash)    DE(int)     intcor
     12.21     -16.01       2.69        0.00      92.20       3.61       0.16       3.64       ----

> <Gold.Chemscore.Fitness>
12.2063

> <Gold.Chemscore.DG>
-16.0092

> <Gold.Chemscore.ZeroCoef>
-5.4800

> <Gold.Chemscore.Hbond>
2.6876

> <Gold.Chemscore.Metal>
0.0000

> <Gold.Chemscore.Lipo>
92.1959

> <Gold.Chemscore.Internal_Hbond>
0.0000

> <Gold.Chemscore.DEClash>
0.1616

> <Gold.Chemscore.DEInternal>
3.6413

> <Gold.Chemscore.Rot>
3.6071

> <Gold.Chemscore.Internal.Correction>
   9.000000E+99

> <Gold.Chemscore.Hbonds>
donor molecule, donor type, donor heavy atom, donor atom, acceptor molecule, acceptor atom, score
      L1  H    17    44       P1  7948  0.54
      P1  H  7997  8009       L1     1  0.81
      P1  H 10752 10764       L1     7  0.85

> <Gold.Chemscore.Hbond.Weighted>
-8.9765

> <Gold.Chemscore.Metal.Weighted>
-0.0000

> <Gold.Chemscore.Lipo.Weighted>
-10.7869

> <Gold.Chemscore.Internal_Hbond.Weighted>
0.0000

> <Gold.Chemscore.DEClash.Weighted>
0.1616

> <Gold.Chemscore.DEInternal.Weighted>
3.6413

> <Gold.Chemscore.Rot.Weighted>
9.2342

> <Gold.Chemscore.Internal.Correction.Weighted>
   9.000000E+99

> <Gold.Protein.RotatedTorsions>
[ 6907 6896 6895 6894 ] final  116.19 input  -60.11 | X-H torsion
[ 7974 7965 7964 7962 ] final   41.29 input  175.53 | X-H torsion
[ 8008 7997 7996 7995 ] final  127.75 input   59.86 | X-H torsion
[ 10167 10162 10161 10158 ] final  124.80 input  -65.29 | X-H torsion
[ 10718 10713 10712 10709 ] final  -24.14 input   66.30 | X-H torsion
[ 10763 10752 10751 10750 ] final  -77.42 input  -60.55 | X-H torsion
[ 11005 11000 10999 10996 ] final   46.93 input  -57.11 | X-H torsion

> <Gold.Protein.ActiveResidues>
 VAL166  LYS551  ARG553  GLY616  TRP617  ASP618  TYR619  PRO620  LYS621  CYS622 
 ASP623  PHE694  ASN695  SER759  ASP760  ASP761  ALA762  ILE779  LEU786  VAL792 
 PHE793  MET794  SER795  GLU796  ALA797  LYS798  CYS799  TRP800  GLU811  SER814 

> <Gold.Protein.RotatedAtoms>
  152.4694  133.7995  159.6944 H   0  0  0  0  0  0  0  0  0  0  0  0  # atno 6907 bound_to 6896
  150.8675  133.7544  159.2978 H   0  0  0  0  0  0  0  0  0  0  0  0  # atno 6908 bound_to 6896
  151.5090  135.1067  159.9901 H   0  0  0  0  0  0  0  0  0  0  0  0  # atno 6909 bound_to 6896
  146.0835  139.5433  142.9521 H   0  0  0  0  0  0  0  0  0  0  0  0  # atno 7974 bound_to 7965
  156.2898  140.2661  156.2323 H   0  0  0  0  0  0  0  0  0  0  0  0  # atno 8008 bound_to 7997
  155.0060  140.0387  157.2398 H   0  0  0  0  0  0  0  0  0  0  0  0  # atno 8009 bound_to 7997
  154.7560  140.2752  155.6258 H   0  0  0  0  0  0  0  0  0  0  0  0  # atno 8010 bound_to 7997
  139.5721  144.6944  151.3751 H   0  0  0  0  0  0  0  0  0  0  0  0  # atno 10167 bound_to 10162
  156.4816  130.4546  149.6808 H   0  0  0  0  0  0  0  0  0  0  0  0  # atno 10718 bound_to 10713
  154.5127  135.5764  153.6617 H   0  0  0  0  0  0  0  0  0  0  0  0  # atno 10763 bound_to 10752
  152.9900  135.6162  154.2858 H   0  0  0  0  0  0  0  0  0  0  0  0  # atno 10764 bound_to 10752
  154.2774  135.2852  155.2691 H   0  0  0  0  0  0  0  0  0  0  0  0  # atno 10765 bound_to 10752
  140.1325  134.4687  155.8511 H   0  0  0  0  0  0  0  0  0  0  0  0  # atno 11005 bound_to 11000
  145.6173  141.0329  143.1934 LP  0  0  0  0  0  0  0  0  0  0  0  0  # atno 17320 bound_to 7965
  144.7310  139.7727  143.7347 LP  0  0  0  0  0  0  0  0  0  0  0  0  # atno 17321 bound_to 7965
  140.7005  143.7643  150.7395 LP  0  0  0  0  0  0  0  0  0  0  0  0  # atno 17342 bound_to 10162
  140.1153  143.4662  152.2346 LP  0  0  0  0  0  0  0  0  0  0  0  0  # atno 17343 bound_to 10162
  156.3516  130.7435  151.2395 LP  0  0  0  0  0  0  0  0  0  0  0  0  # atno 17370 bound_to 10713
  157.7482  131.0375  150.4461 LP  0  0  0  0  0  0  0  0  0  0  0  0  # atno 17371 bound_to 10713
  141.2172  133.6801  156.7095 LP  0  0  0  0  0  0  0  0  0  0  0  0  # atno 17394 bound_to 11000
  140.2824  134.8306  157.3945 LP  0  0  0  0  0  0  0  0  0  0  0  0  # atno 17395 bound_to 11000

$$$$
