AV-unprocessed.smi:1584|AV-procd|sdf|6366|dock10
  -GOLD-   22720 6593D 1   1.00000     0.00000
 Structure written by MMmdl.
 39 40  0  0  0  0  0  0  0  0  1 V2000
  151.1004  140.9468  158.6704 C   0  0  0  0  0  0  0  0  0  0  0  0
  150.5336  141.7512  157.4927 C   0  0  1  0  0  0  0  0  0  0  0  0
  151.3338  143.0525  157.2638 C   0  0  0  0  0  0  0  0  0  0  0  0
  151.3161  143.9367  158.4164 N   0  0  0  0  0  0  0  0  0  0  0  0
  152.3863  144.4788  159.0970 C   0  0  0  0  0  0  0  0  0  0  0  0
  151.8792  145.2636  160.0923 C   0  0  0  0  0  0  0  0  0  0  0  0
  150.4703  145.1309  159.9422 C   0  0  0  0  0  0  0  0  0  0  0  0
  150.1365  144.3316  158.9420 N   0  0  0  0  0  0  0  0  0  0  0  0
  150.5513  140.9149  156.2930 N   0  0  0  0  0  0  0  0  0  0  0  0
  151.5361  140.0726  155.9410 C   0  0  0  0  0  0  0  0  0  0  0  0
  152.5833  139.9545  156.5781 O   0  0  0  0  0  0  0  0  0  0  0  0
  151.2905  139.2217  154.6835 C   0  0  2  0  0  0  0  0  0  0  0  0
  149.8025  139.1425  154.3133 C   0  0  0  0  0  0  0  0  0  0  0  0
  149.0209  138.2499  155.2868 C   0  0  0  0  0  0  0  0  0  0  0  0
  149.6685  136.9542  155.5273 N   0  0  0  0  0  0  0  0  0  0  0  0
  148.7876  135.9124  156.0582 C   0  0  0  0  0  0  0  0  0  0  0  0
  150.9888  136.7075  155.3456 C   0  0  0  0  0  0  0  0  0  0  0  0
  151.4918  135.6107  155.5924 O   0  0  0  0  0  0  0  0  0  0  0  0
  151.9130  137.8110  154.7949 C   0  0  0  0  0  0  0  0  0  0  0  0
  151.0770  141.5311  159.5907 H   0  0  0  0  0  0  0  0  0  0  0  0
  152.1346  140.6514  158.4903 H   0  0  0  0  0  0  0  0  0  0  0  0
  150.5193  140.0404  158.8427 H   0  0  0  0  0  0  0  0  0  0  0  0
  149.5049  142.0120  157.7486 H   0  0  0  0  0  0  0  0  0  0  0  0
  152.3745  142.8183  157.0349 H   0  0  0  0  0  0  0  0  0  0  0  0
  150.9418  143.5951  156.4023 H   0  0  0  0  0  0  0  0  0  0  0  0
  153.4073  144.2713  158.8130 H   0  0  0  0  0  0  0  0  0  0  0  0
  152.4299  145.8461  160.8156 H   0  0  0  0  0  0  0  0  0  0  0  0
  149.6856  145.5881  160.5266 H   0  0  0  0  0  0  0  0  0  0  0  0
  149.7321  140.9518  155.7039 H   0  0  0  0  0  0  0  0  0  0  0  0
  151.8002  139.7290  153.8623 H   0  0  0  0  0  0  0  0  0  0  0  0
  149.3578  140.1382  154.2831 H   0  0  0  0  0  0  0  0  0  0  0  0
  149.7083  138.7400  153.3038 H   0  0  0  0  0  0  0  0  0  0  0  0
  148.8991  138.7544  156.2460 H   0  0  0  0  0  0  0  0  0  0  0  0
  148.0160  138.0984  154.8906 H   0  0  0  0  0  0  0  0  0  0  0  0
  149.1700  135.5264  157.0043 H   0  0  0  0  0  0  0  0  0  0  0  0
  148.7125  135.0815  155.3556 H   0  0  0  0  0  0  0  0  0  0  0  0
  147.7783  136.2803  156.2460 H   0  0  0  0  0  0  0  0  0  0  0  0
  152.2232  137.4901  153.7999 H   0  0  0  0  0  0  0  0  0  0  0  0
  152.8266  137.8349  155.3913 H   0  0  0  0  0  0  0  0  0  0  0  0
  1  2  1  0  0  0  0
  1 20  1  0  0  0  0
  1 21  1  0  0  0  0
  1 22  1  0  0  0  0
  2  3  1  0  0  0  0
  2  9  1  0  0  0  0
  2 23  1  0  0  0  0
  3  4  1  0  0  0  0
  3 24  1  0  0  0  0
  3 25  1  0  0  0  0
  4  8  1  0  0  0  0
  4  5  1  0  0  0  0
  5  6  2  0  0  0  0
  5 26  1  0  0  0  0
  6  7  1  0  0  0  0
  6 27  1  0  0  0  0
  7  8  2  0  0  0  0
  7 28  1  0  0  0  0
  9 10  1  0  0  0  0
  9 29  1  0  0  0  0
 10 11  2  0  0  0  0
 10 12  1  0  0  0  0
 12 19  1  0  0  0  0
 12 13  1  0  0  0  0
 12 30  1  0  0  0  0
 13 14  1  0  0  0  0
 13 31  1  0  0  0  0
 13 32  1  0  0  0  0
 14 15  1  0  0  0  0
 14 33  1  0  0  0  0
 14 34  1  0  0  0  0
 15 16  1  0  0  0  0
 15 17  1  0  0  0  0
 16 35  1  0  0  0  0
 16 36  1  0  0  0  0
 16 37  1  0  0  0  0
 17 18  2  0  0  0  0
 17 19  1  0  0  0  0
 19 38  1  0  0  0  0
 19 39  1  0  0  0  0
M  END
> <s_m_source_file>
AV-unprocessed.smi

> <i_m_source_file_index>
1584

> <i_lp_mmshare_version>
43012

> <i_f3d_flags>
0

> <s_epik_input>
bjFbY0hdW2NIXVtjSF1uMVtDSDJdW0NAQEhdKFtDSDNdKVtOSF1DKD1PKVtDQEBIXTJbQ0gyXVtDSDJdTihbQ0gzXSlDKD1PKVtDSDJdMg==

> <s_epik_cmdline>
J2VwaWtfcHl0aG9uJywgJy1waCcsICc3LjAnLCAnLXRuJywgJzgnLCAnLW1hJywgJzIwMCcsICctbWV0YWxfYmluZGluZycsICctaW1hZScsICc8aW5maWxlLm1hZT4nLCAnLW9tYWUnLCAnPG91dGZpbGUubWFlPic=

> <r_lp_tautomer_probability>
1

> <r_epik_Ionization_Penalty>
0.000299422

> <r_epik_Ionization_Penalty_Charging>
0

> <r_epik_Ionization_Penalty_Neutral>
0.000299422

> <r_epik_State_Penalty>
-0

> <r_epik_Charging_Adjusted_Penalty>
0

> <i_epik_Tot_Q>
0

> <i_epik_Tot_abs_Q>
0

> <r_epik_Metal_State_Penalty>
-0

> <b_epik_Metal_Only>
0

> <s_lp_Force_Field>
OPLS_2005

> <r_lp_Energy>
11.5075

> <b_lp_Chiralities_Consistent>
1

> <s_lp_Variant>
AV-unprocessed.smi:1584-2

> <Gold.Version>
5.8.1

> <Gold.Id.Protein>
6NUR|6NUR_protein|mol2

> <Gold.PLP.Fitness>
42.2114

> <Gold.PLP.PLP>
-38.0721

> <Gold.PLP.part.hbond>
-2.0000

> <Gold.PLP.part.metal>
0.0000

> <Gold.PLP.part.buried>
-4.5154

> <Gold.PLP.part.nonpolar>
-32.6828

> <Gold.PLP.part.repulsive>
0.3329

> <Gold.PLP.ligand.clash>
0.0051

> <Gold.PLP.ligand.torsion>
0.9530

> <Gold.PLP.Chemscore.Hbond>
2.0000

> <Gold.PLP.Chemscore.CHOScore>
0.0000

> <Gold.PLP.Chemscore.Metal>
0.0000

> <Gold.Chemscore.Hbonds>
donor molecule, donor type, donor heavy atom, donor atom, acceptor molecule, acceptor atom, score
      P1  H  7997  8008       L1    11  1.00
      P1  H 10752 10765       L1    18  1.00

> <Gold.PLP.Chemscore.Internal.Correction>
0.0504

> <Gold.Rescore>
     Score         DG    S(hbond)    S(metal)    S(lipo)     H(rot)  DE(clash)    DE(int)     intcor
     14.56     -17.11       1.80        0.00      84.60       1.67       0.21       2.33       ----

> <Gold.Chemscore.Fitness>
14.5624

> <Gold.Chemscore.DG>
-17.1062

> <Gold.Chemscore.ZeroCoef>
-5.4800

> <Gold.Chemscore.Hbond>
1.7999

> <Gold.Chemscore.Metal>
0.0000

> <Gold.Chemscore.Lipo>
84.6038

> <Gold.Chemscore.Internal_Hbond>
0.0000

> <Gold.Chemscore.DEClash>
0.2090

> <Gold.Chemscore.DEInternal>
2.3348

> <Gold.Chemscore.Rot>
1.6734

> <Gold.Chemscore.Internal.Correction>
   9.000000E+99

> <Gold.Chemscore.Hbonds>
donor molecule, donor type, donor heavy atom, donor atom, acceptor molecule, acceptor atom, score
      P1  H  7997  8008       L1    11  0.99
      P1  H 10752 10765       L1    18  0.78

> <Gold.Chemscore.Hbond.Weighted>
-6.0116

> <Gold.Chemscore.Metal.Weighted>
-0.0000

> <Gold.Chemscore.Lipo.Weighted>
-9.8986

> <Gold.Chemscore.Internal_Hbond.Weighted>
0.0000

> <Gold.Chemscore.DEClash.Weighted>
0.2090

> <Gold.Chemscore.DEInternal.Weighted>
2.3348

> <Gold.Chemscore.Rot.Weighted>
4.2840

> <Gold.Chemscore.Internal.Correction.Weighted>
   9.000000E+99

> <Gold.Protein.RotatedTorsions>
[ 6907 6896 6895 6894 ] final  172.37 input  -60.11 | X-H torsion
[ 7974 7965 7964 7962 ] final   89.18 input  175.53 | X-H torsion
[ 8008 7997 7996 7995 ] final  -58.71 input   59.86 | X-H torsion
[ 10167 10162 10161 10158 ] final  -47.80 input  -65.29 | X-H torsion
[ 10718 10713 10712 10709 ] final -161.38 input   66.30 | X-H torsion
[ 10763 10752 10751 10750 ] final -159.21 input  -60.55 | X-H torsion
[ 11005 11000 10999 10996 ] final   13.80 input  -57.11 | X-H torsion

> <Gold.Protein.ActiveResidues>
 VAL166  LYS551  ARG553  GLY616  TRP617  ASP618  TYR619  PRO620  LYS621  CYS622 
 ASP623  PHE694  ASN695  SER759  ASP760  ASP761  ALA762  ILE779  LEU786  VAL792 
 PHE793  MET794  SER795  GLU796  ALA797  LYS798  CYS799  TRP800  GLU811  SER814 

> <Gold.Protein.RotatedAtoms>
  151.7854  133.3354  159.3483 H   0  0  0  0  0  0  0  0  0  0  0  0  # atno 6907 bound_to 6896
  150.7411  134.5892  159.5988 H   0  0  0  0  0  0  0  0  0  0  0  0  # atno 6908 bound_to 6896
  152.3247  134.7337  160.0356 H   0  0  0  0  0  0  0  0  0  0  0  0  # atno 6909 bound_to 6896
  145.5358  139.2285  143.2593 H   0  0  0  0  0  0  0  0  0  0  0  0  # atno 7974 bound_to 7965
  154.4320  140.1078  156.5999 H   0  0  0  0  0  0  0  0  0  0  0  0  # atno 8008 bound_to 7997
  155.5922  140.3492  155.4551 H   0  0  0  0  0  0  0  0  0  0  0  0  # atno 8009 bound_to 7997
  156.0238  140.1245  157.0319 H   0  0  0  0  0  0  0  0  0  0  0  0  # atno 8010 bound_to 7997
  140.6759  143.2768  151.3979 H   0  0  0  0  0  0  0  0  0  0  0  0  # atno 10167 bound_to 10162
  156.5954  130.8788  151.2900 H   0  0  0  0  0  0  0  0  0  0  0  0  # atno 10718 bound_to 10713
  154.7494  135.3088  154.8586 H   0  0  0  0  0  0  0  0  0  0  0  0  # atno 10763 bound_to 10752
  153.9378  135.6778  153.4749 H   0  0  0  0  0  0  0  0  0  0  0  0  # atno 10764 bound_to 10752
  153.1090  135.4875  154.8929 H   0  0  0  0  0  0  0  0  0  0  0  0  # atno 10765 bound_to 10752
  140.4767  134.0976  155.7743 H   0  0  0  0  0  0  0  0  0  0  0  0  # atno 11005 bound_to 11000
  146.2014  140.6176  142.9100 LP  0  0  0  0  0  0  0  0  0  0  0  0  # atno 17320 bound_to 7965
  144.7602  140.5404  143.6740 LP  0  0  0  0  0  0  0  0  0  0  0  0  # atno 17321 bound_to 7965
  139.6051  144.1213  152.2241 LP  0  0  0  0  0  0  0  0  0  0  0  0  # atno 17342 bound_to 10162
  140.0610  144.5857  150.7263 LP  0  0  0  0  0  0  0  0  0  0  0  0  # atno 17343 bound_to 10162
  157.7293  130.9669  150.1782 LP  0  0  0  0  0  0  0  0  0  0  0  0  # atno 17370 bound_to 10713
  156.2514  130.3701  149.8228 LP  0  0  0  0  0  0  0  0  0  0  0  0  # atno 17371 bound_to 10713
  141.1551  133.8898  157.1998 LP  0  0  0  0  0  0  0  0  0  0  0  0  # atno 17394 bound_to 11000
  139.9851  135.0084  156.9844 LP  0  0  0  0  0  0  0  0  0  0  0  0  # atno 17395 bound_to 11000

$$$$
