AV-unprocessed.smi:3280|AV-procd|sdf|12555|dock6
  -GOLD-   2272018473D 1   1.00000     0.00000
 Structure written by MMmdl.
 38 39  0  0  0  0  0  0  0  0  1 V2000
  150.6756  139.2659  155.2787 C   0  0  0  0  0  0  0  0  0  0  0  0
  151.9239  138.4295  154.9622 C   0  0  0  0  0  0  0  0  0  0  0  0
  151.6131  137.1849  154.1177 C   0  0  0  0  0  0  0  0  0  0  0  0
  152.6883  138.0822  156.2031 C   0  0  0  0  0  0  0  0  0  0  0  0
  153.0053  136.8238  156.4860 N   0  0  0  0  0  0  0  0  0  0  0  0
  153.7113  136.9292  157.6927 O   0  0  0  0  0  0  0  0  0  0  0  0
  153.7193  138.2477  158.0023 C   0  0  0  0  0  0  0  0  0  0  0  0
  154.4435  138.6957  159.2275 C   0  0  0  0  0  0  0  0  0  0  0  0
  153.6642  139.7627  160.0067 C   0  0  0  0  0  0  0  0  0  0  0  0
  153.6137  140.9940  159.2302 N   0  0  0  0  0  0  0  0  0  0  0  0
  152.6052  141.9196  159.7343 C   0  0  1  0  0  0  0  0  0  0  0  0
  153.1411  142.5181  161.0498 C   0  0  0  0  0  0  0  0  0  0  0  0
  152.1347  143.4666  161.7209 C   0  0  0  0  0  0  0  0  0  0  0  0
  151.7916  144.6735  160.8373 C   0  0  0  0  0  0  0  0  0  0  0  0
  151.0104  144.1492  159.2877 S   0  0  0  0  0  0  0  0  0  0  0  0
  152.3026  143.0217  158.6964 C   0  0  0  0  0  0  0  0  0  0  0  0
  153.1145  139.0160  157.0999 N   0  0  0  0  0  0  0  0  0  0  0  0
  150.9404  140.1789  155.8130 H   0  0  0  0  0  0  0  0  0  0  0  0
  149.9710  138.7095  155.8977 H   0  0  0  0  0  0  0  0  0  0  0  0
  150.1566  139.5570  154.3652 H   0  0  0  0  0  0  0  0  0  0  0  0
  152.5697  139.0614  154.3500 H   0  0  0  0  0  0  0  0  0  0  0  0
  152.5273  136.6546  153.8496 H   0  0  0  0  0  0  0  0  0  0  0  0
  151.1053  137.4557  153.1918 H   0  0  0  0  0  0  0  0  0  0  0  0
  150.9700  136.4893  154.6576 H   0  0  0  0  0  0  0  0  0  0  0  0
  154.6299  137.8258  159.8589 H   0  0  0  0  0  0  0  0  0  0  0  0
  155.4192  139.0826  158.9296 H   0  0  0  0  0  0  0  0  0  0  0  0
  152.6580  139.4009  160.2155 H   0  0  0  0  0  0  0  0  0  0  0  0
  154.1513  139.9506  160.9645 H   0  0  0  0  0  0  0  0  0  0  0  0
  154.5187  141.4405  159.2741 H   0  0  0  0  0  0  0  0  0  0  0  0
  151.6939  141.3626  159.9577 H   0  0  0  0  0  0  0  0  0  0  0  0
  153.3813  141.7142  161.7472 H   0  0  0  0  0  0  0  0  0  0  0  0
  154.0752  143.0516  160.8659 H   0  0  0  0  0  0  0  0  0  0  0  0
  151.2236  142.9224  161.9726 H   0  0  0  0  0  0  0  0  0  0  0  0
  152.5495  143.8204  162.6652 H   0  0  0  0  0  0  0  0  0  0  0  0
  151.1111  145.3447  161.3615 H   0  0  0  0  0  0  0  0  0  0  0  0
  152.6911  145.2455  160.6072 H   0  0  0  0  0  0  0  0  0  0  0  0
  153.2012  143.5998  158.4767 H   0  0  0  0  0  0  0  0  0  0  0  0
  151.9576  142.5997  157.7533 H   0  0  0  0  0  0  0  0  0  0  0  0
  1  2  1  0  0  0  0
  1 18  1  0  0  0  0
  1 19  1  0  0  0  0
  1 20  1  0  0  0  0
  2  3  1  0  0  0  0
  2  4  1  0  0  0  0
  2 21  1  0  0  0  0
  3 22  1  0  0  0  0
  3 23  1  0  0  0  0
  3 24  1  0  0  0  0
  4 17  1  0  0  0  0
  4  5  2  0  0  0  0
  5  6  1  0  0  0  0
  6  7  1  0  0  0  0
  7  8  1  0  0  0  0
  7 17  2  0  0  0  0
  8  9  1  0  0  0  0
  8 25  1  0  0  0  0
  8 26  1  0  0  0  0
  9 10  1  0  0  0  0
  9 27  1  0  0  0  0
  9 28  1  0  0  0  0
 10 11  1  0  0  0  0
 10 29  1  0  0  0  0
 11 16  1  0  0  0  0
 11 12  1  0  0  0  0
 11 30  1  0  0  0  0
 12 13  1  0  0  0  0
 12 31  1  0  0  0  0
 12 32  1  0  0  0  0
 13 14  1  0  0  0  0
 13 33  1  0  0  0  0
 13 34  1  0  0  0  0
 14 15  1  0  0  0  0
 14 35  1  0  0  0  0
 14 36  1  0  0  0  0
 15 16  1  0  0  0  0
 16 37  1  0  0  0  0
 16 38  1  0  0  0  0
M  END
> <s_m_source_file>
AV-unprocessed.smi

> <i_m_source_file_index>
3280

> <i_lp_mmshare_version>
43012

> <i_f3d_flags>
0

> <s_epik_input>
W0NIM11bQ0hdKFtDSDNdKWMxbm9jKG4xKVtDSDJdW0NIMl1bTkhdW0NAQEhdMltDSDJdW0NIMl1bQ0gyXVNbQ0gyXTI=

> <s_epik_cmdline>
J2VwaWtfcHl0aG9uJywgJy1waCcsICc3LjAnLCAnLXRuJywgJzgnLCAnLW1hJywgJzIwMCcsICctbWV0YWxfYmluZGluZycsICctaW1hZScsICc8aW5maWxlLm1hZT4nLCAnLW9tYWUnLCAnPG91dGZpbGUubWFlPic=

> <r_lp_tautomer_probability>
1

> <r_epik_Ionization_Penalty>
2.40576

> <r_epik_Ionization_Penalty_Charging>
0

> <r_epik_Ionization_Penalty_Neutral>
2.40576

> <r_epik_State_Penalty>
2.56401

> <r_epik_Charging_Adjusted_Penalty>
2.56401

> <i_epik_Tot_Q>
0

> <i_epik_Tot_abs_Q>
0

> <r_epik_Metal_State_Penalty>
2.56401

> <b_epik_Metal_Only>
0

> <s_lp_Force_Field>
OPLS_2005

> <r_lp_Energy>
1.02241

> <b_lp_Chiralities_Consistent>
1

> <s_lp_Variant>
AV-unprocessed.smi:3280-4

> <Gold.Version>
5.8.1

> <Gold.Id.Protein>
6NUR|6NUR_protein|mol2

> <Gold.PLP.Fitness>
40.8940

> <Gold.PLP.PLP>
-35.9887

> <Gold.PLP.part.hbond>
-2.0000

> <Gold.PLP.part.metal>
0.0000

> <Gold.PLP.part.buried>
-1.1252

> <Gold.PLP.part.nonpolar>
-33.5696

> <Gold.PLP.part.repulsive>
0.0000

> <Gold.PLP.ligand.clash>
0.0000

> <Gold.PLP.ligand.torsion>
0.4324

> <Gold.PLP.Chemscore.Hbond>
1.8960

> <Gold.PLP.Chemscore.CHOScore>
0.0000

> <Gold.PLP.Chemscore.Metal>
0.0000

> <Gold.Chemscore.Hbonds>
donor molecule, donor type, donor heavy atom, donor atom, acceptor molecule, acceptor atom, score
      P1  H  7997  8008       L1    17  0.90
      P1  H 10752 10763       L1     5  0.78

> <Gold.PLP.Chemscore.Internal.Correction>
0.0821

> <Gold.Rescore>
     Score         DG    S(hbond)    S(metal)    S(lipo)     H(rot)  DE(clash)    DE(int)     intcor
     16.06     -19.19       1.72        0.00     105.05       1.68       1.44       1.69       ----

> <Gold.Chemscore.Fitness>
16.0599

> <Gold.Chemscore.DG>
-19.1906

> <Gold.Chemscore.ZeroCoef>
-5.4800

> <Gold.Chemscore.Hbond>
1.7151

> <Gold.Chemscore.Metal>
0.0000

> <Gold.Chemscore.Lipo>
105.0546

> <Gold.Chemscore.Internal_Hbond>
0.0000

> <Gold.Chemscore.DEClash>
1.4444

> <Gold.Chemscore.DEInternal>
1.6863

> <Gold.Chemscore.Rot>
1.6833

> <Gold.Chemscore.Internal.Correction>
   9.000000E+99

> <Gold.Chemscore.Hbonds>
donor molecule, donor type, donor heavy atom, donor atom, acceptor molecule, acceptor atom, score
      P1  H  7997  8008       L1    17  0.18
      P1  H 10752 10763       L1     5  0.76

> <Gold.Chemscore.Hbond.Weighted>
-5.7284

> <Gold.Chemscore.Metal.Weighted>
-0.0000

> <Gold.Chemscore.Lipo.Weighted>
-12.2914

> <Gold.Chemscore.Internal_Hbond.Weighted>
0.0000

> <Gold.Chemscore.DEClash.Weighted>
1.4444

> <Gold.Chemscore.DEInternal.Weighted>
1.6863

> <Gold.Chemscore.Rot.Weighted>
4.3092

> <Gold.Chemscore.Internal.Correction.Weighted>
   9.000000E+99

> <Gold.Protein.RotatedTorsions>
[ 6907 6896 6895 6894 ] final  -57.91 input  -60.11 | X-H torsion
[ 7974 7965 7964 7962 ] final  -44.13 input  175.53 | X-H torsion
[ 8008 7997 7996 7995 ] final  -67.30 input   59.86 | X-H torsion
[ 10167 10162 10161 10158 ] final -129.46 input  -65.29 | X-H torsion
[ 10718 10713 10712 10709 ] final  -92.73 input   66.30 | X-H torsion
[ 10763 10752 10751 10750 ] final   93.01 input  -60.55 | X-H torsion
[ 11005 11000 10999 10996 ] final -108.10 input  -57.11 | X-H torsion

> <Gold.Protein.ActiveResidues>
 VAL166  LYS551  ARG553  GLY616  TRP617  ASP618  TYR619  PRO620  LYS621  CYS622 
 ASP623  PHE694  ASN695  SER759  ASP760  ASP761  ALA762  ILE779  LEU786  VAL792 
 PHE793  MET794  SER795  GLU796  ALA797  LYS798  CYS799  TRP800  GLU811  SER814 

> <Gold.Protein.RotatedAtoms>
  150.8048  134.7166  159.6633 H   0  0  0  0  0  0  0  0  0  0  0  0  # atno 6907 bound_to 6896
  152.4167  134.6025  160.0014 H   0  0  0  0  0  0  0  0  0  0  0  0  # atno 6908 bound_to 6896
  151.6252  133.3299  159.3133 H   0  0  0  0  0  0  0  0  0  0  0  0  # atno 6909 bound_to 6896
  145.9951  140.7137  142.9298 H   0  0  0  0  0  0  0  0  0  0  0  0  # atno 7974 bound_to 7965
  154.4791  140.0895  156.7333 H   0  0  0  0  0  0  0  0  0  0  0  0  # atno 8008 bound_to 7997
  155.4518  140.3457  155.4283 H   0  0  0  0  0  0  0  0  0  0  0  0  # atno 8009 bound_to 7997
  156.1163  140.1461  156.9256 H   0  0  0  0  0  0  0  0  0  0  0  0  # atno 8010 bound_to 7997
  139.9395  143.6179  152.2507 H   0  0  0  0  0  0  0  0  0  0  0  0  # atno 10167 bound_to 10162
  156.0005  130.4999  150.5670 H   0  0  0  0  0  0  0  0  0  0  0  0  # atno 10718 bound_to 10713
  153.2255  135.4341  155.0537 H   0  0  0  0  0  0  0  0  0  0  0  0  # atno 10763 bound_to 10752
  154.8271  135.3367  154.6864 H   0  0  0  0  0  0  0  0  0  0  0  0  # atno 10764 bound_to 10752
  153.7293  135.7012  153.5049 H   0  0  0  0  0  0  0  0  0  0  0  0  # atno 10765 bound_to 10752
  141.0919  133.9039  157.2055 H   0  0  0  0  0  0  0  0  0  0  0  0  # atno 11005 bound_to 11000
  144.6901  140.3137  143.7244 LP  0  0  0  0  0  0  0  0  0  0  0  0  # atno 17320 bound_to 7965
  145.7571  139.1812  143.2288 LP  0  0  0  0  0  0  0  0  0  0  0  0  # atno 17321 bound_to 7965
  139.6716  144.7660  151.1773 LP  0  0  0  0  0  0  0  0  0  0  0  0  # atno 17342 bound_to 10162
  140.7615  143.5857  150.8848 LP  0  0  0  0  0  0  0  0  0  0  0  0  # atno 17343 bound_to 10162
  157.3571  131.0743  151.1667 LP  0  0  0  0  0  0  0  0  0  0  0  0  # atno 17370 bound_to 10713
  157.2464  130.6593  149.5912 LP  0  0  0  0  0  0  0  0  0  0  0  0  # atno 17371 bound_to 10713
  139.9747  135.0117  156.9601 LP  0  0  0  0  0  0  0  0  0  0  0  0  # atno 17394 bound_to 11000
  140.5231  134.0887  155.7297 LP  0  0  0  0  0  0  0  0  0  0  0  0  # atno 17395 bound_to 11000

$$$$
