AV-unprocessed.smi:683|AV-procd|sdf|3330|dock8
  -GOLD-   22720 0303D 1   1.00000     0.00000
 Structure written by MMmdl.
 30 31  0  0  0  0  0  0  0  0  1 V2000
  154.6843  141.4351  161.9241 N   0  0  0  0  0  0  0  0  0  0  0  0
  153.9022  142.0288  161.3121 C   0  0  0  0  0  0  0  0  0  0  0  0
  152.9199  142.7743  160.5428 C   0  0  0  0  0  0  0  0  0  0  0  0
  152.5039  144.0482  160.9781 C   0  0  0  0  0  0  0  0  0  0  0  0
  151.5521  144.7672  160.2319 C   0  0  0  0  0  0  0  0  0  0  0  0
  151.0173  144.2140  159.0530 C   0  0  0  0  0  0  0  0  0  0  0  0
  151.4231  142.9406  158.6036 C   0  0  0  0  0  0  0  0  0  0  0  0
  150.8477  142.4765  157.4401 O   0  0  0  0  0  0  0  0  0  0  0  0
  150.8955  141.0814  157.1756 C   0  0  0  0  0  0  0  0  0  0  0  0
  151.2287  140.8777  155.6897 C   0  0  0  0  0  0  0  0  0  0  0  0
  150.0742  140.5316  154.8986 N   0  0  0  0  0  0  0  0  0  0  0  0
  148.9652  141.3576  154.7985 C   0  0  0  0  0  0  0  0  0  0  0  0
  147.8663  141.0402  154.0719 C   0  0  0  0  0  0  0  0  0  0  0  0
  146.5222  142.1227  153.9966 Cl  0  0  0  0  0  0  0  0  0  0  0  0
  147.8099  139.7716  153.3462 C   0  0  0  0  0  0  0  0  0  0  0  0
  146.8673  139.3866  152.6573 O   0  0  0  0  0  0  0  0  0  0  0  0
  148.9458  138.9680  153.4830 N   0  0  0  0  0  0  0  0  0  0  0  0
  150.0800  139.2853  154.2309 C   0  0  0  0  0  0  0  0  0  0  0  0
  151.0204  138.4927  154.2866 O   0  0  0  0  0  0  0  0  0  0  0  0
  152.3828  142.2219  159.3613 C   0  0  0  0  0  0  0  0  0  0  0  0
  148.9442  138.0812  153.0001 H   0  0  0  0  0  0  0  0  0  0  0  0
  152.9102  144.4793  161.8821 H   0  0  0  0  0  0  0  0  0  0  0  0
  151.2318  145.7439  160.5635 H   0  0  0  0  0  0  0  0  0  0  0  0
  150.2878  144.7740  158.4863 H   0  0  0  0  0  0  0  0  0  0  0  0
  151.6548  140.6092  157.8007 H   0  0  0  0  0  0  0  0  0  0  0  0
  149.9319  140.6218  157.4023 H   0  0  0  0  0  0  0  0  0  0  0  0
  151.6327  141.7939  155.2563 H   0  0  0  0  0  0  0  0  0  0  0  0
  151.9842  140.1050  155.5312 H   0  0  0  0  0  0  0  0  0  0  0  0
  148.9713  142.3011  155.3257 H   0  0  0  0  0  0  0  0  0  0  0  0
  152.7195  141.2434  159.0517 H   0  0  0  0  0  0  0  0  0  0  0  0
  1  2  3  0  0  0  0
  2  3  1  0  0  0  0
  3 20  1  0  0  0  0
  3  4  2  0  0  0  0
  4  5  1  0  0  0  0
  4 22  1  0  0  0  0
  5  6  2  0  0  0  0
  5 23  1  0  0  0  0
  6  7  1  0  0  0  0
  6 24  1  0  0  0  0
  7  8  1  0  0  0  0
  7 20  2  0  0  0  0
  8  9  1  0  0  0  0
  9 10  1  0  0  0  0
  9 25  1  0  0  0  0
  9 26  1  0  0  0  0
 10 11  1  0  0  0  0
 10 27  1  0  0  0  0
 10 28  1  0  0  0  0
 11 18  1  0  0  0  0
 11 12  1  0  0  0  0
 12 13  2  0  0  0  0
 12 29  1  0  0  0  0
 13 14  1  0  0  0  0
 13 15  1  0  0  0  0
 15 16  2  0  0  0  0
 15 17  1  0  0  0  0
 17 21  1  0  0  0  0
 17 18  1  0  0  0  0
 18 19  2  0  0  0  0
 20 30  1  0  0  0  0
M  END
> <s_m_source_file>
AV-unprocessed.smi

> <i_m_source_file_index>
683

> <i_lp_mmshare_version>
43012

> <i_f3d_flags>
0

> <s_epik_input>
TiNDYzFbY0hdW2NIXVtjSF1jKFtjSF0xKU9bQ0gyXVtDSDJdbjJbY0hdYyhDbCljKD1PKVtuSF1jMj1P

> <s_epik_cmdline>
J2VwaWtfcHl0aG9uJywgJy1waCcsICc3LjAnLCAnLXRuJywgJzgnLCAnLW1hJywgJzIwMCcsICctbWV0YWxfYmluZGluZycsICctaW1hZScsICc8aW5maWxlLm1hZT4nLCAnLW9tYWUnLCAnPG91dGZpbGUubWFlPic=

> <r_lp_tautomer_probability>
0.999537

> <r_epik_Ionization_Penalty>
0.0498777

> <r_epik_Ionization_Penalty_Charging>
0.0498777

> <r_epik_Ionization_Penalty_Neutral>
0

> <r_epik_State_Penalty>
0.042632

> <r_epik_Charging_Adjusted_Penalty>
0.0925097

> <i_epik_Tot_Q>
0

> <i_epik_Tot_abs_Q>
0

> <r_epik_Metal_State_Penalty>
2.56282

> <b_epik_Metal_Only>
0

> <s_lp_Force_Field>
OPLS_2005

> <r_lp_Energy>
12.7666

> <b_lp_Chiralities_Consistent>
1

> <s_lp_Variant>
AV-unprocessed.smi:683-1

> <Gold.Version>
5.8.1

> <Gold.Id.Protein>
6NUR|6NUR_protein|mol2

> <Gold.PLP.Fitness>
50.6119

> <Gold.PLP.PLP>
-46.7469

> <Gold.PLP.part.hbond>
-2.8233

> <Gold.PLP.part.metal>
0.0000

> <Gold.PLP.part.buried>
-4.5405

> <Gold.PLP.part.nonpolar>
-39.9669

> <Gold.PLP.part.repulsive>
0.8233

> <Gold.PLP.ligand.clash>
0.0000

> <Gold.PLP.ligand.torsion>
0.8697

> <Gold.PLP.Chemscore.Hbond>
0.8613

> <Gold.PLP.Chemscore.CHOScore>
1.0000

> <Gold.PLP.Chemscore.Metal>
0.0000

> <Gold.Chemscore.Hbonds>
donor molecule, donor type, donor heavy atom, donor atom, acceptor molecule, acceptor atom, score
      L1  H    17    21       P1  7948  0.71
      L1  C    12    29       P1  8028  1.00

> <Gold.PLP.Chemscore.Internal.Correction>
0.0207

> <Gold.Rescore>
     Score         DG    S(hbond)    S(metal)    S(lipo)     H(rot)  DE(clash)    DE(int)     intcor
     13.81     -14.73       0.98        0.00      95.48       2.03       0.06       0.86       ----

> <Gold.Chemscore.Fitness>
13.8071

> <Gold.Chemscore.DG>
-14.7286

> <Gold.Chemscore.ZeroCoef>
-5.4800

> <Gold.Chemscore.Hbond>
0.9769

> <Gold.Chemscore.Metal>
0.0000

> <Gold.Chemscore.Lipo>
95.4841

> <Gold.Chemscore.Internal_Hbond>
0.0000

> <Gold.Chemscore.DEClash>
0.0637

> <Gold.Chemscore.DEInternal>
0.8579

> <Gold.Chemscore.Rot>
2.0258

> <Gold.Chemscore.Internal.Correction>
   9.000000E+99

> <Gold.Chemscore.Hbonds>
donor molecule, donor type, donor heavy atom, donor atom, acceptor molecule, acceptor atom, score
      L1  H    17    21       P1  7948  0.71

> <Gold.Chemscore.Hbond.Weighted>
-3.2630

> <Gold.Chemscore.Metal.Weighted>
-0.0000

> <Gold.Chemscore.Lipo.Weighted>
-11.1716

> <Gold.Chemscore.Internal_Hbond.Weighted>
0.0000

> <Gold.Chemscore.DEClash.Weighted>
0.0637

> <Gold.Chemscore.DEInternal.Weighted>
0.8579

> <Gold.Chemscore.Rot.Weighted>
5.1860

> <Gold.Chemscore.Internal.Correction.Weighted>
   9.000000E+99

> <Gold.Protein.RotatedTorsions>
[ 6907 6896 6895 6894 ] final  165.36 input  -60.11 | X-H torsion
[ 7974 7965 7964 7962 ] final  133.68 input  175.53 | X-H torsion
[ 8008 7997 7996 7995 ] final -100.20 input   59.86 | X-H torsion
[ 10167 10162 10161 10158 ] final   22.42 input  -65.29 | X-H torsion
[ 10718 10713 10712 10709 ] final   48.74 input   66.30 | X-H torsion
[ 10763 10752 10751 10750 ] final -168.74 input  -60.55 | X-H torsion
[ 11005 11000 10999 10996 ] final   96.97 input  -57.11 | X-H torsion

> <Gold.Protein.ActiveResidues>
 VAL166  LYS551  ARG553  GLY616  TRP617  ASP618  TYR619  PRO620  LYS621  CYS622 
 ASP623  PHE694  ASN695  SER759  ASP760  ASP761  ALA762  ILE779  LEU786  VAL792 
 PHE793  MET794  SER795  GLU796  ALA797  LYS798  CYS799  TRP800  GLU811  SER814 

> <Gold.Protein.RotatedAtoms>
  151.8957  133.3526  159.3813 H   0  0  0  0  0  0  0  0  0  0  0  0  # atno 6907 bound_to 6896
  150.7092  134.4879  159.5511 H   0  0  0  0  0  0  0  0  0  0  0  0  # atno 6908 bound_to 6896
  152.2458  134.8183  160.0504 H   0  0  0  0  0  0  0  0  0  0  0  0  # atno 6909 bound_to 6896
  144.9840  139.4475  143.5372 H   0  0  0  0  0  0  0  0  0  0  0  0  # atno 7974 bound_to 7965
  154.8253  140.0442  157.1439 H   0  0  0  0  0  0  0  0  0  0  0  0  # atno 8008 bound_to 7997
  154.9213  140.3027  155.5195 H   0  0  0  0  0  0  0  0  0  0  0  0  # atno 8009 bound_to 7997
  156.2983  140.2340  156.4263 H   0  0  0  0  0  0  0  0  0  0  0  0  # atno 8010 bound_to 7997
  140.5350  143.9777  150.6486 H   0  0  0  0  0  0  0  0  0  0  0  0  # atno 10167 bound_to 10162
  157.4717  130.8259  149.7995 H   0  0  0  0  0  0  0  0  0  0  0  0  # atno 10718 bound_to 10713
  154.6596  135.2923  154.9883 H   0  0  0  0  0  0  0  0  0  0  0  0  # atno 10763 bound_to 10752
  154.0947  135.6585  153.4862 H   0  0  0  0  0  0  0  0  0  0  0  0  # atno 10764 bound_to 10752
  153.0422  135.5228  154.7541 H   0  0  0  0  0  0  0  0  0  0  0  0  # atno 10765 bound_to 10752
  139.8778  134.8977  156.4238 H   0  0  0  0  0  0  0  0  0  0  0  0  # atno 11005 bound_to 11000
  146.3415  139.9131  142.8777 LP  0  0  0  0  0  0  0  0  0  0  0  0  # atno 17320 bound_to 7965
  145.2380  140.9998  143.3952 LP  0  0  0  0  0  0  0  0  0  0  0  0  # atno 17321 bound_to 7965
  140.3162  143.3166  152.0830 LP  0  0  0  0  0  0  0  0  0  0  0  0  # atno 17342 bound_to 10162
  139.4967  144.6604  151.6477 LP  0  0  0  0  0  0  0  0  0  0  0  0  # atno 17343 bound_to 10162
  156.0076  130.3848  150.2375 LP  0  0  0  0  0  0  0  0  0  0  0  0  # atno 17370 bound_to 10713
  157.0557  131.0075  151.3239 LP  0  0  0  0  0  0  0  0  0  0  0  0  # atno 17371 bound_to 10713
  140.9115  133.7708  155.9797 LP  0  0  0  0  0  0  0  0  0  0  0  0  # atno 17394 bound_to 11000
  140.8541  134.2919  157.5263 LP  0  0  0  0  0  0  0  0  0  0  0  0  # atno 17395 bound_to 11000

$$$$
