AV-unprocessed.smi:2549|AV-procd|sdf|10010|dock1
  -GOLD-   2272014 53D 1   1.00000     0.00000
 Structure written by MMmdl.
 17 18  0  0  0  0  0  0  0  0  1 V2000
  150.3254  141.8559  156.1799 C   0  0  0  0  0  0  0  0  0  0  0  0
  150.9917  140.7314  156.5762 C   0  0  0  0  0  0  0  0  0  0  0  0
  150.8674  139.8889  155.4913 N   0  0  0  0  0  0  0  0  0  0  0  0
  151.4412  138.5863  155.3241 C   0  0  0  0  0  0  0  0  0  0  0  0
  152.3701  138.2733  154.1480 C   0  0  0  0  0  0  0  0  0  0  0  0
  151.7761  136.9473  154.1356 N   0  0  0  0  0  0  0  0  0  0  0  0
  150.5858  137.4229  154.8196 C   0  0  0  0  0  0  0  0  0  0  0  0
  150.2055  140.4843  154.4712 N   0  0  0  0  0  0  0  0  0  0  0  0
  149.8549  141.6629  154.8819 N   0  0  0  0  0  0  0  0  0  0  0  0
  150.1560  142.7816  156.7101 H   0  0  0  0  0  0  0  0  0  0  0  0
  151.5140  140.4705  157.4848 H   0  0  0  0  0  0  0  0  0  0  0  0
  151.9177  138.3387  156.2753 H   0  0  0  0  0  0  0  0  0  0  0  0
  152.1500  138.8298  153.2357 H   0  0  0  0  0  0  0  0  0  0  0  0
  153.4310  138.2829  154.3994 H   0  0  0  0  0  0  0  0  0  0  0  0
  151.5792  136.6225  153.1995 H   0  0  0  0  0  0  0  0  0  0  0  0
  150.2277  136.7560  155.6042 H   0  0  0  0  0  0  0  0  0  0  0  0
  149.7981  137.7109  154.1217 H   0  0  0  0  0  0  0  0  0  0  0  0
  1  9  1  0  0  0  0
  1  2  2  0  0  0  0
  1 10  1  0  0  0  0
  2  3  1  0  0  0  0
  2 11  1  0  0  0  0
  3  4  1  0  0  0  0
  3  8  1  0  0  0  0
  4  7  1  0  0  0  0
  4  5  1  0  0  0  0
  4 12  1  0  0  0  0
  5  6  1  0  0  0  0
  5 13  1  0  0  0  0
  5 14  1  0  0  0  0
  6  7  1  0  0  0  0
  6 15  1  0  0  0  0
  7 16  1  0  0  0  0
  7 17  1  0  0  0  0
  8  9  2  0  0  0  0
M  END
> <s_m_source_file>
AV-unprocessed.smi

> <i_m_source_file_index>
2549

> <i_lp_mmshare_version>
43012

> <i_f3d_flags>
0

> <s_epik_input>
bjFuW2NIXVtjSF1uMVtDSF0yW0NIMl1bTkhdW0NIMl0y

> <s_epik_cmdline>
J2VwaWtfcHl0aG9uJywgJy1waCcsICc3LjAnLCAnLXRuJywgJzgnLCAnLW1hJywgJzIwMCcsICctbWV0YWxfYmluZGluZycsICctaW1hZScsICc8aW5maWxlLm1hZT4nLCAnLW9tYWUnLCAnPG91dGZpbGUubWFlPic=

> <r_lp_tautomer_probability>
1

> <r_epik_Ionization_Penalty>
0.704768

> <r_epik_Ionization_Penalty_Charging>
0

> <r_epik_Ionization_Penalty_Neutral>
0.704768

> <r_epik_State_Penalty>
0.727806

> <r_epik_Charging_Adjusted_Penalty>
0.727806

> <i_epik_Tot_Q>
0

> <i_epik_Tot_abs_Q>
0

> <r_epik_Metal_State_Penalty>
0.727802

> <b_epik_Metal_Only>
0

> <s_lp_Force_Field>
OPLS_2005

> <r_lp_Energy>
13.9584

> <b_lp_Chiralities_Consistent>
1

> <s_lp_Variant>
AV-unprocessed.smi:2549-2

> <Gold.Version>
5.8.1

> <Gold.Id.Protein>
6NUR|6NUR_protein|mol2

> <Gold.PLP.Fitness>
28.1484

> <Gold.PLP.PLP>
-17.8585

> <Gold.PLP.part.hbond>
-4.2890

> <Gold.PLP.part.metal>
0.0000

> <Gold.PLP.part.buried>
-1.8927

> <Gold.PLP.part.nonpolar>
-12.2176

> <Gold.PLP.part.repulsive>
0.2781

> <Gold.PLP.ligand.clash>
0.0000

> <Gold.PLP.ligand.torsion>
0.1307

> <Gold.PLP.Chemscore.Hbond>
2.6336

> <Gold.PLP.Chemscore.CHOScore>
0.8020

> <Gold.PLP.Chemscore.Metal>
0.0000

> <Gold.Chemscore.Hbonds>
donor molecule, donor type, donor heavy atom, donor atom, acceptor molecule, acceptor atom, score
      L1  H     6    15       P1  7949  1.00
      P1  H  7989  7998       L1     8  0.84
      P1  H 10752 10763       L1     6  0.69
      L1  C     1    10       P1  8028  0.82

> <Gold.PLP.Chemscore.Internal.Correction>
0.2444

> <Gold.Rescore>
     Score         DG    S(hbond)    S(metal)    S(lipo)     H(rot)  DE(clash)    DE(int)     intcor
     13.03     -13.26       1.93        0.00      33.29       1.00       0.06       0.17       ----

> <Gold.Chemscore.Fitness>
13.0312

> <Gold.Chemscore.DG>
-13.2552

> <Gold.Chemscore.ZeroCoef>
-5.4800

> <Gold.Chemscore.Hbond>
1.9283

> <Gold.Chemscore.Metal>
0.0000

> <Gold.Chemscore.Lipo>
33.2893

> <Gold.Chemscore.Internal_Hbond>
0.0000

> <Gold.Chemscore.DEClash>
0.0580

> <Gold.Chemscore.DEInternal>
0.1660

> <Gold.Chemscore.Rot>
1.0000

> <Gold.Chemscore.Internal.Correction>
   9.000000E+99

> <Gold.Chemscore.Hbonds>
donor molecule, donor type, donor heavy atom, donor atom, acceptor molecule, acceptor atom, score
      L1  H     6    15       P1  7949  0.94
      P1  H  7989  7998       L1     8  0.05
      P1  H 10752 10763       L1     6  0.12

> <Gold.Chemscore.Hbond.Weighted>
-6.4404

> <Gold.Chemscore.Metal.Weighted>
-0.0000

> <Gold.Chemscore.Lipo.Weighted>
-3.8948

> <Gold.Chemscore.Internal_Hbond.Weighted>
0.0000

> <Gold.Chemscore.DEClash.Weighted>
0.0580

> <Gold.Chemscore.DEInternal.Weighted>
0.1660

> <Gold.Chemscore.Rot.Weighted>
2.5600

> <Gold.Chemscore.Internal.Correction.Weighted>
   9.000000E+99

> <Gold.Protein.RotatedTorsions>
[ 6907 6896 6895 6894 ] final    8.18 input  -60.11 | X-H torsion
[ 7974 7965 7964 7962 ] final   69.49 input  175.53 | X-H torsion
[ 8008 7997 7996 7995 ] final  -66.40 input   59.86 | X-H torsion
[ 10167 10162 10161 10158 ] final   97.42 input  -65.29 | X-H torsion
[ 10718 10713 10712 10709 ] final   37.67 input   66.30 | X-H torsion
[ 10763 10752 10751 10750 ] final   64.52 input  -60.55 | X-H torsion
[ 11005 11000 10999 10996 ] final   90.93 input  -57.11 | X-H torsion

> <Gold.Protein.ActiveResidues>
 VAL166  LYS551  ARG553  GLY616  TRP617  ASP618  TYR619  PRO620  LYS621  CYS622 
 ASP623  PHE694  ASN695  SER759  ASP760  ASP761  ALA762  ILE779  LEU786  VAL792 
 PHE793  MET794  SER795  GLU796  ALA797  LYS798  CYS799  TRP800  GLU811  SER814 

> <Gold.Protein.RotatedAtoms>
  151.7020  135.0928  160.0252 H   0  0  0  0  0  0  0  0  0  0  0  0  # atno 6907 bound_to 6896
  152.3715  133.6421  159.6099 H   0  0  0  0  0  0  0  0  0  0  0  0  # atno 6908 bound_to 6896
  150.7677  133.9179  159.3430 H   0  0  0  0  0  0  0  0  0  0  0  0  # atno 6909 bound_to 6896
  145.7898  139.2928  143.1217 H   0  0  0  0  0  0  0  0  0  0  0  0  # atno 7974 bound_to 7965
  154.4732  140.0913  156.7197 H   0  0  0  0  0  0  0  0  0  0  0  0  # atno 8008 bound_to 7997
  155.4667  140.3463  155.4302 H   0  0  0  0  0  0  0  0  0  0  0  0  # atno 8009 bound_to 7997
  156.1074  140.1438  156.9374 H   0  0  0  0  0  0  0  0  0  0  0  0  # atno 8010 bound_to 7997
  139.7803  144.6891  151.0032 H   0  0  0  0  0  0  0  0  0  0  0  0  # atno 10167 bound_to 10162
  157.3497  130.7592  149.6970 H   0  0  0  0  0  0  0  0  0  0  0  0  # atno 10718 bound_to 10713
  153.0059  135.5390  154.6522 H   0  0  0  0  0  0  0  0  0  0  0  0  # atno 10763 bound_to 10752
  154.5751  135.2845  155.0790 H   0  0  0  0  0  0  0  0  0  0  0  0  # atno 10764 bound_to 10752
  154.1941  135.6495  153.5121 H   0  0  0  0  0  0  0  0  0  0  0  0  # atno 10765 bound_to 10752
  139.8847  134.8643  156.3355 H   0  0  0  0  0  0  0  0  0  0  0  0  # atno 11005 bound_to 11000
  145.9988  140.8538  143.0029 LP  0  0  0  0  0  0  0  0  0  0  0  0  # atno 17320 bound_to 7965
  144.6783  140.2322  143.7354 LP  0  0  0  0  0  0  0  0  0  0  0  0  # atno 17321 bound_to 7965
  140.7818  143.4490  151.0440 LP  0  0  0  0  0  0  0  0  0  0  0  0  # atno 17342 bound_to 10162
  139.8171  143.7871  152.3175 LP  0  0  0  0  0  0  0  0  0  0  0  0  # atno 17343 bound_to 10162
  155.9719  130.4144  150.4131 LP  0  0  0  0  0  0  0  0  0  0  0  0  # atno 17370 bound_to 10713
  157.2191  131.0478  151.2556 LP  0  0  0  0  0  0  0  0  0  0  0  0  # atno 17371 bound_to 10713
  140.9694  133.7337  156.0513 LP  0  0  0  0  0  0  0  0  0  0  0  0  # atno 17394 bound_to 11000
  140.7890  134.3639  157.5469 LP  0  0  0  0  0  0  0  0  0  0  0  0  # atno 17395 bound_to 11000

$$$$
