AV-unprocessed.smi:2253|AV-procd|sdf|9122|dock7
  -GOLD-   2272012323D 1   1.00000     0.00000
 Structure written by MMmdl.
 51 53  0  0  0  0  0  0  0  0  2 V2000
  146.5858  129.8454  151.8903 C   0  0  0  0  0  0  0  0  0  0  0  0
  146.0137  131.1363  151.5341 N   0  0  0  0  0  0  0  0  0  0  0  0
  145.9460  131.9790  152.7243 C   0  0  0  0  0  0  0  0  0  0  0  0
  145.4146  133.3739  152.3539 C   0  0  0  0  0  0  0  0  0  0  0  0
  144.0105  133.3128  151.7048 C   0  0  0  0  0  0  0  0  0  0  0  0
  143.5322  134.6519  151.2208 N   0  3  2  0  0  0  0  0  0  0  0  0
  144.3332  135.2730  150.1270 C   0  0  0  0  0  0  0  0  0  0  0  0
  145.6967  135.7774  150.6350 C   0  0  0  0  0  0  0  0  0  0  0  0
  145.5101  136.7996  151.7694 C   0  0  2  0  0  0  0  0  0  0  0  0
  146.8110  137.1982  152.2998 N   0  0  0  0  0  0  0  0  0  0  0  0
  147.0080  138.1665  153.2068 C   0  0  0  0  0  0  0  0  0  0  0  0
  146.0892  138.8064  153.7163 O   0  0  0  0  0  0  0  0  0  0  0  0
  148.3175  138.3260  153.4675 N   0  0  0  0  0  0  0  0  0  0  0  0
  148.9701  139.2526  154.3295 C   0  0  0  0  0  0  0  0  0  0  0  0
  148.4582  140.5230  154.6929 C   0  0  0  0  0  0  0  0  0  0  0  0
  149.2203  141.3377  155.5544 C   0  0  0  0  0  0  0  0  0  0  0  0
  150.4190  140.9745  156.0569 N   0  0  0  0  0  0  0  0  0  0  0  0
  150.9046  139.7647  155.7091 C   0  0  0  0  0  0  0  0  0  0  0  0
  150.2242  138.8739  154.8550 C   0  0  0  0  0  0  0  0  0  0  0  0
  150.7718  137.6736  154.5453 F   0  0  0  0  0  0  0  0  0  0  0  0
  144.6148  136.2090  152.8769 C   0  0  0  0  0  0  0  0  0  0  0  0
  143.2966  135.6595  152.2954 C   0  0  0  0  0  0  0  0  0  0  0  0
  144.0745  132.2830  150.5516 C   0  0  0  0  0  0  0  0  0  0  0  0
  144.6684  130.9379  151.0030 C   0  0  0  0  0  0  0  0  0  0  0  0
  147.5942  129.9696  152.2863 H   0  0  0  0  0  0  0  0  0  0  0  0
  146.6528  129.2015  151.0127 H   0  0  0  0  0  0  0  0  0  0  0  0
  145.9831  129.3354  152.6433 H   0  0  0  0  0  0  0  0  0  0  0  0
  145.3095  131.5173  153.4812 H   0  0  0  0  0  0  0  0  0  0  0  0
  146.9419  132.0751  153.1589 H   0  0  0  0  0  0  0  0  0  0  0  0
  145.3920  133.9611  153.2714 H   0  0  0  0  0  0  0  0  0  0  0  0
  146.1185  133.8645  151.6799 H   0  0  0  0  0  0  0  0  0  0  0  0
  143.3176  132.9401  152.4594 H   0  0  0  0  0  0  0  0  0  0  0  0
  144.4509  134.6086  149.2731 H   0  0  0  0  0  0  0  0  0  0  0  0
  143.7684  136.1207  149.7355 H   0  0  0  0  0  0  0  0  0  0  0  0
  146.3020  134.9369  150.9771 H   0  0  0  0  0  0  0  0  0  0  0  0
  146.2472  136.2352  149.8121 H   0  0  0  0  0  0  0  0  0  0  0  0
  145.0154  137.6784  151.3501 H   0  0  0  0  0  0  0  0  0  0  0  0
  147.6202  136.7175  151.9345 H   0  0  0  0  0  0  0  0  0  0  0  0
  148.9406  137.7067  152.9699 H   0  0  0  0  0  0  0  0  0  0  0  0
  147.5111  140.8962  154.3382 H   0  0  0  0  0  0  0  0  0  0  0  0
  148.8556  142.3109  155.8479 H   0  0  0  0  0  0  0  0  0  0  0  0
  151.8659  139.4988  156.1231 H   0  0  0  0  0  0  0  0  0  0  0  0
  145.1465  135.4208  153.4106 H   0  0  0  0  0  0  0  0  0  0  0  0
  144.3888  136.9746  153.6202 H   0  0  0  0  0  0  0  0  0  0  0  0
  142.7322  136.4866  151.8626 H   0  0  0  0  0  0  0  0  0  0  0  0
  142.6600  135.2736  153.0883 H   0  0  0  0  0  0  0  0  0  0  0  0
  143.0836  132.0782  150.1505 H   0  0  0  0  0  0  0  0  0  0  0  0
  144.6676  132.6835  149.7279 H   0  0  0  0  0  0  0  0  0  0  0  0
  144.7109  130.2575  150.1514 H   0  0  0  0  0  0  0  0  0  0  0  0
  144.0280  130.4713  151.7538 H   0  0  0  0  0  0  0  0  0  0  0  0
  142.6262  134.4666  150.8140 H   0  0  0  0  0  0  0  0  0  0  0  0
  1  2  1  0  0  0  0
  1 25  1  0  0  0  0
  1 26  1  0  0  0  0
  1 27  1  0  0  0  0
  2 24  1  0  0  0  0
  2  3  1  0  0  0  0
  3  4  1  0  0  0  0
  3 28  1  0  0  0  0
  3 29  1  0  0  0  0
  4  5  1  0  0  0  0
  4 30  1  0  0  0  0
  4 31  1  0  0  0  0
  5  6  1  0  0  0  0
  5 23  1  0  0  0  0
  5 32  1  0  0  0  0
  6 22  1  0  0  0  0
  6  7  1  0  0  0  0
  6 51  1  0  0  0  0
  7  8  1  0  0  0  0
  7 33  1  0  0  0  0
  7 34  1  0  0  0  0
  8  9  1  0  0  0  0
  8 35  1  0  0  0  0
  8 36  1  0  0  0  0
  9 10  1  0  0  0  0
  9 21  1  0  0  0  0
  9 37  1  0  0  0  0
 10 11  1  0  0  0  0
 10 38  1  0  0  0  0
 11 12  2  0  0  0  0
 11 13  1  0  0  0  0
 13 14  1  0  0  0  0
 13 39  1  0  0  0  0
 14 19  1  0  0  0  0
 14 15  2  0  0  0  0
 15 16  1  0  0  0  0
 15 40  1  0  0  0  0
 16 17  2  0  0  0  0
 16 41  1  0  0  0  0
 17 18  1  0  0  0  0
 18 19  2  0  0  0  0
 18 42  1  0  0  0  0
 19 20  1  0  0  0  0
 21 22  1  0  0  0  0
 21 43  1  0  0  0  0
 21 44  1  0  0  0  0
 22 45  1  0  0  0  0
 22 46  1  0  0  0  0
 23 24  1  0  0  0  0
 23 47  1  0  0  0  0
 23 48  1  0  0  0  0
 24 49  1  0  0  0  0
 24 50  1  0  0  0  0
M  CHG  1   6   1
M  END
> <s_m_source_file>
AV-unprocessed.smi

> <i_m_source_file_index>
2253

> <i_lp_mmshare_version>
43012

> <i_f3d_flags>
0

> <s_epik_input>
W0NIM11OMVtDSDJdW0NIMl1bQ0hdKFtDSDJdW0NIMl0xKU4yW0NIMl1bQ0gyXVtDSF0oW0NIMl1bQ0gyXTIpW05IXUMoPU8pW05IXWMzW2NIXVtjSF1uW2NIXWMzRg==

> <s_epik_cmdline>
J2VwaWtfcHl0aG9uJywgJy1waCcsICc3LjAnLCAnLXRuJywgJzgnLCAnLW1hJywgJzIwMCcsICctbWV0YWxfYmluZGluZycsICctaW1hZScsICc8aW5maWxlLm1hZT4nLCAnLW9tYWUnLCAnPG91dGZpbGUubWFlPic=

> <r_epik_Ionization_Penalty>
1.37522

> <r_epik_Ionization_Penalty_Charging>
0.00081195

> <r_epik_Ionization_Penalty_Neutral>
1.3744

> <r_epik_State_Penalty>
1.55149

> <r_epik_Charging_Adjusted_Penalty>
1.5523

> <i_epik_Tot_Q>
1

> <i_epik_Tot_abs_Q>
1

> <r_epik_Metal_State_Penalty>
1.55158

> <b_epik_Metal_Only>
0

> <s_lp_Force_Field>
OPLS_2005

> <r_lp_Energy>
38.6229

> <b_lp_Chiralities_Consistent>
1

> <s_lp_Variant>
AV-unprocessed.smi:2253-8

> <Gold.Version>
5.8.1

> <Gold.Id.Protein>
6NUR|6NUR_protein|mol2

> <Gold.PLP.Fitness>
52.2621

> <Gold.PLP.PLP>
-40.6502

> <Gold.PLP.part.hbond>
-4.0057

> <Gold.PLP.part.metal>
0.0000

> <Gold.PLP.part.buried>
1.6156

> <Gold.PLP.part.nonpolar>
-39.6484

> <Gold.PLP.part.repulsive>
0.8448

> <Gold.PLP.ligand.clash>
1.3231

> <Gold.PLP.ligand.torsion>
0.2039

> <Gold.PLP.Chemscore.Hbond>
3.4313

> <Gold.PLP.Chemscore.CHOScore>
1.0000

> <Gold.PLP.Chemscore.Metal>
0.0000

> <Gold.Chemscore.Hbonds>
donor molecule, donor type, donor heavy atom, donor atom, acceptor molecule, acceptor atom, score
      L1  H     6    51       P1 10186  1.85
      L1  H    10    38       P1  7948  0.67
      L1  H    13    39       P1  7948  0.86
      L1  C    16    41       P1  8028  1.00

> <Gold.PLP.Chemscore.Internal.Correction>
0.0490

> <Gold.Rescore>
     Score         DG    S(hbond)    S(metal)    S(lipo)     H(rot)  DE(clash)    DE(int)     intcor
     16.67     -21.22       1.85        0.00     108.74       1.24       1.49       3.06       ----

> <Gold.Chemscore.Fitness>
16.6745

> <Gold.Chemscore.DG>
-21.2172

> <Gold.Chemscore.ZeroCoef>
-5.4800

> <Gold.Chemscore.Hbond>
1.8511

> <Gold.Chemscore.Metal>
0.0000

> <Gold.Chemscore.Lipo>
108.7432

> <Gold.Chemscore.Internal_Hbond>
0.0000

> <Gold.Chemscore.DEClash>
1.4855

> <Gold.Chemscore.DEInternal>
3.0572

> <Gold.Chemscore.Rot>
1.2377

> <Gold.Chemscore.Internal.Correction>
   9.000000E+99

> <Gold.Chemscore.Hbonds>
donor molecule, donor type, donor heavy atom, donor atom, acceptor molecule, acceptor atom, score
      L1  H     6    51       P1 10186  0.20
      L1  H    10    38       P1  7948  0.67
      L1  H    13    39       P1  7948  0.86

> <Gold.Chemscore.Hbond.Weighted>
-6.1828

> <Gold.Chemscore.Metal.Weighted>
-0.0000

> <Gold.Chemscore.Lipo.Weighted>
-12.7229

> <Gold.Chemscore.Internal_Hbond.Weighted>
0.0000

> <Gold.Chemscore.DEClash.Weighted>
1.4855

> <Gold.Chemscore.DEInternal.Weighted>
3.0572

> <Gold.Chemscore.Rot.Weighted>
3.1685

> <Gold.Chemscore.Internal.Correction.Weighted>
   9.000000E+99

> <Gold.Protein.RotatedTorsions>
[ 6907 6896 6895 6894 ] final   77.54 input  -60.11 | X-H torsion
[ 7974 7965 7964 7962 ] final  133.67 input  175.53 | X-H torsion
[ 8008 7997 7996 7995 ] final -133.11 input   59.86 | X-H torsion
[ 10167 10162 10161 10158 ] final  109.26 input  -65.29 | X-H torsion
[ 10718 10713 10712 10709 ] final  -34.10 input   66.30 | X-H torsion
[ 10763 10752 10751 10750 ] final  116.18 input  -60.55 | X-H torsion
[ 11005 11000 10999 10996 ] final  140.89 input  -57.11 | X-H torsion

> <Gold.Protein.ActiveResidues>
 VAL166  LYS551  ARG553  GLY616  TRP617  ASP618  TYR619  PRO620  LYS621  CYS622 
 ASP623  PHE694  ASN695  SER759  ASP760  ASP761  ALA762  ILE779  LEU786  VAL792 
 PHE793  MET794  SER795  GLU796  ALA797  LYS798  CYS799  TRP800  GLU811  SER814 

> <Gold.Protein.RotatedAtoms>
  152.5122  134.3800  159.9347 H   0  0  0  0  0  0  0  0  0  0  0  0  # atno 6907 bound_to 6896
  151.3757  133.3832  159.2712 H   0  0  0  0  0  0  0  0  0  0  0  0  # atno 6908 bound_to 6896
  150.9543  134.8959  159.7750 H   0  0  0  0  0  0  0  0  0  0  0  0  # atno 6909 bound_to 6896
  144.9841  139.4474  143.5371 H   0  0  0  0  0  0  0  0  0  0  0  0  # atno 7974 bound_to 7965
  155.3401  140.0471  157.3044 H   0  0  0  0  0  0  0  0  0  0  0  0  # atno 8008 bound_to 7997
  154.5282  140.2248  155.8817 H   0  0  0  0  0  0  0  0  0  0  0  0  # atno 8009 bound_to 7997
  156.1761  140.3085  155.9068 H   0  0  0  0  0  0  0  0  0  0  0  0  # atno 8010 bound_to 7997
  139.6780  144.7120  151.1566 H   0  0  0  0  0  0  0  0  0  0  0  0  # atno 10167 bound_to 10162
  156.3547  130.4314  149.7674 H   0  0  0  0  0  0  0  0  0  0  0  0  # atno 10718 bound_to 10713
  153.5334  135.3573  155.2686 H   0  0  0  0  0  0  0  0  0  0  0  0  # atno 10763 bound_to 10752
  154.8724  135.4073  154.3126 H   0  0  0  0  0  0  0  0  0  0  0  0  # atno 10764 bound_to 10752
  153.3819  135.7068  153.6627 H   0  0  0  0  0  0  0  0  0  0  0  0  # atno 10765 bound_to 10752
  140.0360  134.9328  157.0754 H   0  0  0  0  0  0  0  0  0  0  0  0  # atno 11005 bound_to 11000
  146.3415  139.9132  142.8777 LP  0  0  0  0  0  0  0  0  0  0  0  0  # atno 17320 bound_to 7965
  145.2378  140.9998  143.3953 LP  0  0  0  0  0  0  0  0  0  0  0  0  # atno 17321 bound_to 7965
  140.7642  143.5742  150.8964 LP  0  0  0  0  0  0  0  0  0  0  0  0  # atno 17342 bound_to 10162
  139.9412  143.6380  152.3053 LP  0  0  0  0  0  0  0  0  0  0  0  0  # atno 17343 bound_to 10162
  156.4861  130.8063  151.3076 LP  0  0  0  0  0  0  0  0  0  0  0  0  # atno 17370 bound_to 10713
  157.7466  130.9990  150.2873 LP  0  0  0  0  0  0  0  0  0  0  0  0  # atno 17371 bound_to 10713
  140.4146  134.1945  155.7163 LP  0  0  0  0  0  0  0  0  0  0  0  0  # atno 17394 bound_to 11000
  141.1858  133.8316  157.1093 LP  0  0  0  0  0  0  0  0  0  0  0  0  # atno 17395 bound_to 11000

$$$$
