AV-unprocessed.smi:1211|AV-procd|sdf|5081|dock9
  -GOLD-   22720 4133D 1   1.00000     0.00000
 Structure written by MMmdl.
 48 50  0  0  0  0  0  0  0  0  2 V2000
  147.9175  133.6909  159.5767 C   0  0  0  0  0  0  0  0  0  0  0  0
  147.5470  134.7412  160.6117 C   0  0  0  0  0  0  0  0  0  0  0  0
  147.0017  134.3309  161.8470 C   0  0  0  0  0  0  0  0  0  0  0  0
  146.6587  135.3031  162.8021 C   0  0  0  0  0  0  0  0  0  0  0  0
  146.8772  136.6534  162.4798 C   0  0  0  0  0  0  0  0  0  0  0  0
  147.3985  137.0542  161.3024 N   0  0  0  0  0  0  0  0  0  0  0  0
  147.7329  136.1286  160.3685 C   0  0  0  0  0  0  0  0  0  0  0  0
  148.2878  136.4786  159.1050 N   0  0  0  0  0  0  0  0  0  0  0  0
  148.1682  137.6364  158.4320 C   0  0  0  0  0  0  0  0  0  0  0  0
  147.5159  138.6128  158.8011 O   0  0  0  0  0  0  0  0  0  0  0  0
  148.8609  137.6031  157.2844 N   0  0  0  0  0  0  0  0  0  0  0  0
  148.9327  138.6885  156.3063 C   0  0  0  0  0  0  0  0  0  0  0  0
  149.4587  138.2343  154.9065 C   0  0  2  0  0  0  0  0  0  0  0  0
  148.2748  137.9306  154.0195 N   0  3  0  0  0  0  0  0  0  0  0  0
  147.2973  136.9715  154.6074 C   0  0  0  0  0  0  0  0  0  0  0  0
  146.2324  136.5717  153.5758 C   0  0  0  0  0  0  0  0  0  0  0  0
  145.5580  137.7377  153.1284 O   0  0  0  0  0  0  0  0  0  0  0  0
  146.4444  138.6286  152.4676 C   0  0  0  0  0  0  0  0  0  0  0  0
  147.5532  139.0930  153.4291 C   0  0  0  0  0  0  0  0  0  0  0  0
  150.4336  137.0334  155.0671 C   0  0  0  0  0  0  0  0  0  0  0  0
  151.7228  137.5360  155.7233 C   0  0  0  0  0  0  0  0  0  0  0  0
  152.0024  139.2158  155.1116 S   0  0  0  0  0  0  0  0  0  0  0  0
  150.3752  139.3321  154.3166 C   0  0  0  0  0  0  0  0  0  0  0  0
  147.7100  132.6839  159.9404 H   0  0  0  0  0  0  0  0  0  0  0  0
  148.9798  133.7481  159.3376 H   0  0  0  0  0  0  0  0  0  0  0  0
  147.3458  133.8402  158.6602 H   0  0  0  0  0  0  0  0  0  0  0  0
  146.8462  133.2841  162.0632 H   0  0  0  0  0  0  0  0  0  0  0  0
  146.2387  135.0217  163.7564 H   0  0  0  0  0  0  0  0  0  0  0  0
  146.6276  137.4326  163.1850 H   0  0  0  0  0  0  0  0  0  0  0  0
  148.8432  135.7596  158.6662 H   0  0  0  0  0  0  0  0  0  0  0  0
  149.3511  136.7512  157.0544 H   0  0  0  0  0  0  0  0  0  0  0  0
  147.9252  139.0927  156.2177 H   0  0  0  0  0  0  0  0  0  0  0  0
  149.5105  139.5198  156.7101 H   0  0  0  0  0  0  0  0  0  0  0  0
  147.7951  136.0694  154.9584 H   0  0  0  0  0  0  0  0  0  0  0  0
  146.8031  137.4194  155.4704 H   0  0  0  0  0  0  0  0  0  0  0  0
  146.6796  136.0404  152.7340 H   0  0  0  0  0  0  0  0  0  0  0  0
  145.5054  135.8969  154.0287 H   0  0  0  0  0  0  0  0  0  0  0  0
  146.8728  138.1443  151.5884 H   0  0  0  0  0  0  0  0  0  0  0  0
  145.8772  139.4877  152.1089 H   0  0  0  0  0  0  0  0  0  0  0  0
  147.1300  139.7119  154.2211 H   0  0  0  0  0  0  0  0  0  0  0  0
  148.2282  139.7156  152.8440 H   0  0  0  0  0  0  0  0  0  0  0  0
  149.9979  136.1943  155.6081 H   0  0  0  0  0  0  0  0  0  0  0  0
  150.7448  136.6508  154.0960 H   0  0  0  0  0  0  0  0  0  0  0  0
  151.6245  137.5643  156.8085 H   0  0  0  0  0  0  0  0  0  0  0  0
  152.5730  136.8941  155.4913 H   0  0  0  0  0  0  0  0  0  0  0  0
  150.5299  139.1698  153.2495 H   0  0  0  0  0  0  0  0  0  0  0  0
  149.9674  140.3363  154.4360 H   0  0  0  0  0  0  0  0  0  0  0  0
  148.6752  137.4562  153.2229 H   0  0  0  0  0  0  0  0  0  0  0  0
  1  2  1  0  0  0  0
  1 24  1  0  0  0  0
  1 25  1  0  0  0  0
  1 26  1  0  0  0  0
  2  7  1  0  0  0  0
  2  3  2  0  0  0  0
  3  4  1  0  0  0  0
  3 27  1  0  0  0  0
  4  5  2  0  0  0  0
  4 28  1  0  0  0  0
  5  6  1  0  0  0  0
  5 29  1  0  0  0  0
  6  7  2  0  0  0  0
  7  8  1  0  0  0  0
  8  9  1  0  0  0  0
  8 30  1  0  0  0  0
  9 10  2  0  0  0  0
  9 11  1  0  0  0  0
 11 12  1  0  0  0  0
 11 31  1  0  0  0  0
 12 13  1  0  0  0  0
 12 32  1  0  0  0  0
 12 33  1  0  0  0  0
 13 23  1  0  0  0  0
 13 14  1  0  0  0  0
 13 20  1  0  0  0  0
 14 19  1  0  0  0  0
 14 15  1  0  0  0  0
 14 48  1  0  0  0  0
 15 16  1  0  0  0  0
 15 34  1  0  0  0  0
 15 35  1  0  0  0  0
 16 17  1  0  0  0  0
 16 36  1  0  0  0  0
 16 37  1  0  0  0  0
 17 18  1  0  0  0  0
 18 19  1  0  0  0  0
 18 38  1  0  0  0  0
 18 39  1  0  0  0  0
 19 40  1  0  0  0  0
 19 41  1  0  0  0  0
 20 21  1  0  0  0  0
 20 42  1  0  0  0  0
 20 43  1  0  0  0  0
 21 22  1  0  0  0  0
 21 44  1  0  0  0  0
 21 45  1  0  0  0  0
 22 23  1  0  0  0  0
 23 46  1  0  0  0  0
 23 47  1  0  0  0  0
M  CHG  1  14   1
M  END
> <s_m_source_file>
AV-unprocessed.smi

> <i_m_source_file_index>
1211

> <i_lp_mmshare_version>
43012

> <i_f3d_flags>
0

> <s_epik_input>
W0NIM11jMVtjSF1bY0hdW2NIXW5jMVtOSF1DKD1PKVtOSF1bQ0gyXVtDQF0yKFtDSDJdW0NIMl1TW0NIMl0yKU4zW0NIMl1bQ0gyXU9bQ0gyXVtDSDJdMw==

> <s_epik_cmdline>
J2VwaWtfcHl0aG9uJywgJy1waCcsICc3LjAnLCAnLXRuJywgJzgnLCAnLW1hJywgJzIwMCcsICctbWV0YWxfYmluZGluZycsICctaW1hZScsICc8aW5maWxlLm1hZT4nLCAnLW9tYWUnLCAnPG91dGZpbGUubWFlPic=

> <r_epik_Ionization_Penalty>
2.03223

> <r_epik_Ionization_Penalty_Charging>
2.03219

> <r_epik_Ionization_Penalty_Neutral>
4.05816e-05

> <r_epik_State_Penalty>
2.16328

> <r_epik_Charging_Adjusted_Penalty>
4.19546

> <i_epik_Tot_Q>
1

> <i_epik_Tot_abs_Q>
1

> <r_epik_Metal_State_Penalty>
2.16328

> <b_epik_Metal_Only>
0

> <s_lp_Force_Field>
OPLS_2005

> <r_lp_Energy>
45.9337

> <b_lp_Chiralities_Consistent>
1

> <s_lp_Variant>
AV-unprocessed.smi:1211-4

> <Gold.Version>
5.8.1

> <Gold.Id.Protein>
6NUR|6NUR_protein|mol2

> <Gold.PLP.Fitness>
45.6117

> <Gold.PLP.PLP>
-36.2996

> <Gold.PLP.part.hbond>
-4.0000

> <Gold.PLP.part.metal>
0.0000

> <Gold.PLP.part.buried>
-2.4171

> <Gold.PLP.part.nonpolar>
-30.9148

> <Gold.PLP.part.repulsive>
0.3606

> <Gold.PLP.ligand.clash>
0.0000

> <Gold.PLP.ligand.torsion>
1.2103

> <Gold.PLP.Chemscore.Hbond>
3.8640

> <Gold.PLP.Chemscore.CHOScore>
0.0000

> <Gold.PLP.Chemscore.Metal>
0.0000

> <Gold.Chemscore.Hbonds>
donor molecule, donor type, donor heavy atom, donor atom, acceptor molecule, acceptor atom, score
      L1  H    14    48       P1  7948  2.00
      P1  H  6931  6943       L1     6  0.75
      P1  H  6934  6947       L1     6  0.99

> <Gold.PLP.Chemscore.Internal.Correction>
0.1406

> <Gold.Rescore>
     Score         DG    S(hbond)    S(metal)    S(lipo)     H(rot)  DE(clash)    DE(int)     intcor
     16.78     -19.14       2.23        0.00      85.53       1.48       0.11       2.25       ----

> <Gold.Chemscore.Fitness>
16.7839

> <Gold.Chemscore.DG>
-19.1413

> <Gold.Chemscore.ZeroCoef>
-5.4800

> <Gold.Chemscore.Hbond>
2.2298

> <Gold.Chemscore.Metal>
0.0000

> <Gold.Chemscore.Lipo>
85.5348

> <Gold.Chemscore.Internal_Hbond>
0.0000

> <Gold.Chemscore.DEClash>
0.1090

> <Gold.Chemscore.DEInternal>
2.2484

> <Gold.Chemscore.Rot>
1.4820

> <Gold.Chemscore.Internal.Correction>
   9.000000E+99

> <Gold.Chemscore.Hbonds>
donor molecule, donor type, donor heavy atom, donor atom, acceptor molecule, acceptor atom, score
      L1  H    14    48       P1  7948  1.00
      P1  H  6931  6943       L1     6  0.24
      P1  H  6934  6947       L1     6  0.78

> <Gold.Chemscore.Hbond.Weighted>
-7.4476

> <Gold.Chemscore.Metal.Weighted>
-0.0000

> <Gold.Chemscore.Lipo.Weighted>
-10.0076

> <Gold.Chemscore.Internal_Hbond.Weighted>
0.0000

> <Gold.Chemscore.DEClash.Weighted>
0.1090

> <Gold.Chemscore.DEInternal.Weighted>
2.2484

> <Gold.Chemscore.Rot.Weighted>
3.7939

> <Gold.Chemscore.Internal.Correction.Weighted>
   9.000000E+99

> <Gold.Protein.RotatedTorsions>
[ 6907 6896 6895 6894 ] final   78.70 input  -60.11 | X-H torsion
[ 7974 7965 7964 7962 ] final  -53.13 input  175.53 | X-H torsion
[ 8008 7997 7996 7995 ] final  -88.53 input   59.86 | X-H torsion
[ 10167 10162 10161 10158 ] final -151.37 input  -65.29 | X-H torsion
[ 10718 10713 10712 10709 ] final   49.03 input   66.30 | X-H torsion
[ 10763 10752 10751 10750 ] final -159.04 input  -60.55 | X-H torsion
[ 11005 11000 10999 10996 ] final -159.58 input  -57.11 | X-H torsion

> <Gold.Protein.ActiveResidues>
 VAL166  LYS551  ARG553  GLY616  TRP617  ASP618  TYR619  PRO620  LYS621  CYS622 
 ASP623  PHE694  ASN695  SER759  ASP760  ASP761  ALA762  ILE779  LEU786  VAL792 
 PHE793  MET794  SER795  GLU796  ALA797  LYS798  CYS799  TRP800  GLU811  SER814 

> <Gold.Protein.RotatedAtoms>
  152.5170  134.3623  159.9288 H   0  0  0  0  0  0  0  0  0  0  0  0  # atno 6907 bound_to 6896
  151.3576  133.3895  159.2694 H   0  0  0  0  0  0  0  0  0  0  0  0  # atno 6908 bound_to 6896
  150.9677  134.9074  159.7827 H   0  0  0  0  0  0  0  0  0  0  0  0  # atno 6909 bound_to 6896
  145.9003  140.8000  142.9747 H   0  0  0  0  0  0  0  0  0  0  0  0  # atno 7974 bound_to 7965
  154.6759  140.0552  157.0215 H   0  0  0  0  0  0  0  0  0  0  0  0  # atno 8008 bound_to 7997
  155.1021  140.3230  155.4525 H   0  0  0  0  0  0  0  0  0  0  0  0  # atno 8009 bound_to 7997
  156.2675  140.2029  156.6147 H   0  0  0  0  0  0  0  0  0  0  0  0  # atno 8010 bound_to 7997
  139.7273  143.8863  152.2523 H   0  0  0  0  0  0  0  0  0  0  0  0  # atno 10167 bound_to 10162
  157.4746  130.8276  149.8025 H   0  0  0  0  0  0  0  0  0  0  0  0  # atno 10718 bound_to 10713
  154.7507  135.3091  154.8562 H   0  0  0  0  0  0  0  0  0  0  0  0  # atno 10763 bound_to 10752
  153.9350  135.6781  153.4749 H   0  0  0  0  0  0  0  0  0  0  0  0  # atno 10764 bound_to 10752
  153.1103  135.4869  154.8952 H   0  0  0  0  0  0  0  0  0  0  0  0  # atno 10765 bound_to 10752
  140.6410  134.4551  157.5233 H   0  0  0  0  0  0  0  0  0  0  0  0  # atno 11005 bound_to 11000
  144.6735  140.1666  143.7418 LP  0  0  0  0  0  0  0  0  0  0  0  0  # atno 17320 bound_to 7965
  145.8799  139.2317  143.1611 LP  0  0  0  0  0  0  0  0  0  0  0  0  # atno 17321 bound_to 7965
  139.8776  144.7035  150.8915 LP  0  0  0  0  0  0  0  0  0  0  0  0  # atno 17342 bound_to 10162
  140.7765  143.3687  151.1690 LP  0  0  0  0  0  0  0  0  0  0  0  0  # atno 17343 bound_to 10162
  156.0090  130.3842  150.2330 LP  0  0  0  0  0  0  0  0  0  0  0  0  # atno 17370 bound_to 10713
  157.0513  131.0063  151.3252 LP  0  0  0  0  0  0  0  0  0  0  0  0  # atno 17371 bound_to 10713
  139.9080  134.8406  156.1632 LP  0  0  0  0  0  0  0  0  0  0  0  0  # atno 17394 bound_to 11000
  141.0607  133.6843  156.1946 LP  0  0  0  0  0  0  0  0  0  0  0  0  # atno 17395 bound_to 11000

$$$$
