AV-unprocessed.smi:479|AV-procd|sdf|2675|dock5
  -GOLD-   2262023 93D 1   1.00000     0.00000
 Structure written by MMmdl.
 46 48  0  0  0  0  0  0  0  0  2 V2000
  147.1226  135.9754  162.9080 C   0  0  0  0  0  0  0  0  0  0  0  0
  147.9566  136.5521  161.9136 O   0  0  0  0  0  0  0  0  0  0  0  0
  147.8085  136.1342  160.6064 C   0  0  0  0  0  0  0  0  0  0  0  0
  146.7627  135.2829  160.1663 C   0  0  0  0  0  0  0  0  0  0  0  0
  146.6661  134.8881  158.8117 C   0  0  0  0  0  0  0  0  0  0  0  0
  145.5742  133.9958  158.3260 C   0  0  0  0  0  0  0  0  0  0  0  0
  145.5455  133.6426  156.8396 C   0  0  0  0  0  0  0  0  0  0  0  0
  144.7019  133.5309  159.0589 O   0  0  0  0  0  0  0  0  0  0  0  0
  147.6348  135.3534  157.8975 C   0  0  0  0  0  0  0  0  0  0  0  0
  148.6739  136.1990  158.3237 C   0  0  0  0  0  0  0  0  0  0  0  0
  148.7667  136.5994  159.6785 C   0  0  0  0  0  0  0  0  0  0  0  0
  149.7534  137.4316  160.1645 O   0  0  0  0  0  0  0  0  0  0  0  0
  150.8038  137.8243  159.2915 C   0  0  0  0  0  0  0  0  0  0  0  0
  150.2954  138.9614  158.3934 C   0  0  1  0  0  0  0  0  0  0  0  0
  149.3633  139.7307  159.1272 O   0  0  0  0  0  0  0  0  0  0  0  0
  151.4415  139.8592  157.8860 C   0  0  0  0  0  0  0  0  0  0  0  0
  151.0372  141.2617  157.7160 N   0  0  0  0  0  0  0  0  0  0  0  0
  150.2191  141.8196  156.7833 C   0  0  0  0  0  0  0  0  0  0  0  0
  150.1594  143.1567  157.0346 N   0  3  0  0  0  0  0  0  0  0  0  0
  150.9500  143.4579  158.1455 C   0  0  0  0  0  0  0  0  0  0  0  0
  151.2064  144.6704  158.7787 C   0  0  0  0  0  0  0  0  0  0  0  0
  152.0639  144.6314  159.8980 C   0  0  0  0  0  0  0  0  0  0  0  0
  152.6285  143.4204  160.3487 C   0  0  0  0  0  0  0  0  0  0  0  0
  152.3622  142.1972  159.6987 C   0  0  0  0  0  0  0  0  0  0  0  0
  151.5158  142.2443  158.5909 C   0  0  0  0  0  0  0  0  0  0  0  0
  147.3767  136.3990  163.8794 H   0  0  0  0  0  0  0  0  0  0  0  0
  147.2651  134.8959  162.9731 H   0  0  0  0  0  0  0  0  0  0  0  0
  146.0705  136.1925  162.7190 H   0  0  0  0  0  0  0  0  0  0  0  0
  146.0274  134.9290  160.8712 H   0  0  0  0  0  0  0  0  0  0  0  0
  146.4665  133.1375  156.5485 H   0  0  0  0  0  0  0  0  0  0  0  0
  145.4303  134.5422  156.2348 H   0  0  0  0  0  0  0  0  0  0  0  0
  144.7096  132.9773  156.6219 H   0  0  0  0  0  0  0  0  0  0  0  0
  147.5920  135.0679  156.8563 H   0  0  0  0  0  0  0  0  0  0  0  0
  149.3905  136.5268  157.5863 H   0  0  0  0  0  0  0  0  0  0  0  0
  151.6536  138.1687  159.8834 H   0  0  0  0  0  0  0  0  0  0  0  0
  151.1349  136.9862  158.6758 H   0  0  0  0  0  0  0  0  0  0  0  0
  149.7659  138.5324  157.5417 H   0  0  0  0  0  0  0  0  0  0  0  0
  149.2890  140.5805  158.7201 H   0  0  0  0  0  0  0  0  0  0  0  0
  152.3076  139.8091  158.5462 H   0  0  0  0  0  0  0  0  0  0  0  0
  151.7836  139.5091  156.9113 H   0  0  0  0  0  0  0  0  0  0  0  0
  149.7114  141.2959  155.9860 H   0  0  0  0  0  0  0  0  0  0  0  0
  150.7736  145.5990  158.4365 H   0  0  0  0  0  0  0  0  0  0  0  0
  152.2918  145.5481  160.4224 H   0  0  0  0  0  0  0  0  0  0  0  0
  153.2788  143.4289  161.2115 H   0  0  0  0  0  0  0  0  0  0  0  0
  152.7958  141.2754  160.0563 H   0  0  0  0  0  0  0  0  0  0  0  0
  149.6188  143.8129  156.4859 H   0  0  0  0  0  0  0  0  0  0  0  0
  1  2  1  0  0  0  0
  1 26  1  0  0  0  0
  1 27  1  0  0  0  0
  1 28  1  0  0  0  0
  2  3  1  0  0  0  0
  3 11  1  0  0  0  0
  3  4  2  0  0  0  0
  4  5  1  0  0  0  0
  4 29  1  0  0  0  0
  5  6  1  0  0  0  0
  5  9  2  0  0  0  0
  6  7  1  0  0  0  0
  6  8  2  0  0  0  0
  7 30  1  0  0  0  0
  7 31  1  0  0  0  0
  7 32  1  0  0  0  0
  9 10  1  0  0  0  0
  9 33  1  0  0  0  0
 10 11  2  0  0  0  0
 10 34  1  0  0  0  0
 11 12  1  0  0  0  0
 12 13  1  0  0  0  0
 13 14  1  0  0  0  0
 13 35  1  0  0  0  0
 13 36  1  0  0  0  0
 14 15  1  0  0  0  0
 14 16  1  0  0  0  0
 14 37  1  0  0  0  0
 15 38  1  0  0  0  0
 16 17  1  0  0  0  0
 16 39  1  0  0  0  0
 16 40  1  0  0  0  0
 17 25  1  0  0  0  0
 17 18  1  0  0  0  0
 18 19  2  0  0  0  0
 18 41  1  0  0  0  0
 19 20  1  0  0  0  0
 19 46  1  0  0  0  0
 20 25  2  0  0  0  0
 20 21  1  0  0  0  0
 21 22  2  0  0  0  0
 21 42  1  0  0  0  0
 22 23  1  0  0  0  0
 22 43  1  0  0  0  0
 23 24  2  0  0  0  0
 23 44  1  0  0  0  0
 24 25  1  0  0  0  0
 24 45  1  0  0  0  0
M  CHG  1  19   1
M  END
> <s_m_source_file>
AV-unprocessed.smi

> <i_m_source_file_index>
479

> <i_lp_mmshare_version>
43012

> <i_f3d_flags>
0

> <s_epik_input>
W0NIM11PYzFbY0hdYyhDKD1PKVtDSDNdKVtjSF1bY0hdYzFPW0NIMl1bQ0BIXShbT0hdKVtDSDJdbihbY0hdbjIpYyhjMjMpW2NIXVtjSF1bY0hdW2NIXTM=

> <s_epik_cmdline>
J2VwaWtfcHl0aG9uJywgJy1waCcsICc3LjAnLCAnLXRuJywgJzgnLCAnLW1hJywgJzIwMCcsICctbWV0YWxfYmluZGluZycsICctaW1hZScsICc8aW5maWxlLm1hZT4nLCAnLW9tYWUnLCAnPG91dGZpbGUubWFlPic=

> <r_lp_tautomer_probability>
0.99995

> <r_epik_Ionization_Penalty>
1.37698

> <r_epik_Ionization_Penalty_Charging>
1.37698

> <r_epik_Ionization_Penalty_Neutral>
2.3993e-06

> <r_epik_State_Penalty>
1.45717

> <r_epik_Charging_Adjusted_Penalty>
2.83415

> <i_epik_Tot_Q>
1

> <i_epik_Tot_abs_Q>
1

> <r_epik_Metal_State_Penalty>
5.49703

> <b_epik_Metal_Only>
0

> <s_lp_Force_Field>
OPLS_2005

> <r_lp_Energy>
29.5876

> <b_lp_Chiralities_Consistent>
1

> <s_lp_Variant>
AV-unprocessed.smi:479-4

> <Gold.Version>
5.8.1

> <Gold.Id.Protein>
6NUR|6NUR_protein|mol2

> <Gold.PLP.Fitness>
52.1404

> <Gold.PLP.PLP>
-45.0546

> <Gold.PLP.part.hbond>
-3.9479

> <Gold.PLP.part.metal>
0.0000

> <Gold.PLP.part.buried>
-4.6775

> <Gold.PLP.part.nonpolar>
-36.8194

> <Gold.PLP.part.repulsive>
0.0821

> <Gold.PLP.ligand.clash>
0.0000

> <Gold.PLP.ligand.torsion>
1.0381

> <Gold.PLP.Chemscore.Hbond>
3.0000

> <Gold.PLP.Chemscore.CHOScore>
0.0000

> <Gold.PLP.Chemscore.Metal>
0.0000

> <Gold.Chemscore.Hbonds>
donor molecule, donor type, donor heavy atom, donor atom, acceptor molecule, acceptor atom, score
      L1  H    19    46       P1  8028  1.46
      P1  H  6931  6943       L1     2  1.00

> <Gold.PLP.Chemscore.Internal.Correction>
0.1620

> <Gold.Rescore>
     Score         DG    S(hbond)    S(metal)    S(lipo)     H(rot)  DE(clash)    DE(int)     intcor
     16.47     -17.79       1.88        0.00     111.65       2.75       0.02       1.31       ----

> <Gold.Chemscore.Fitness>
16.4698

> <Gold.Chemscore.DG>
-17.7932

> <Gold.Chemscore.ZeroCoef>
-5.4800

> <Gold.Chemscore.Hbond>
1.8825

> <Gold.Chemscore.Metal>
0.0000

> <Gold.Chemscore.Lipo>
111.6461

> <Gold.Chemscore.Internal_Hbond>
0.0000

> <Gold.Chemscore.DEClash>
0.0176

> <Gold.Chemscore.DEInternal>
1.3058

> <Gold.Chemscore.Rot>
2.7487

> <Gold.Chemscore.Internal.Correction>
   9.000000E+99

> <Gold.Chemscore.Hbonds>
donor molecule, donor type, donor heavy atom, donor atom, acceptor molecule, acceptor atom, score
      L1  H    19    46       P1  8028  0.73
      P1  H  6931  6943       L1     2  0.67

> <Gold.Chemscore.Hbond.Weighted>
-6.2874

> <Gold.Chemscore.Metal.Weighted>
-0.0000

> <Gold.Chemscore.Lipo.Weighted>
-13.0626

> <Gold.Chemscore.Internal_Hbond.Weighted>
0.0000

> <Gold.Chemscore.DEClash.Weighted>
0.0176

> <Gold.Chemscore.DEInternal.Weighted>
1.3058

> <Gold.Chemscore.Rot.Weighted>
7.0368

> <Gold.Chemscore.Internal.Correction.Weighted>
   9.000000E+99

> <Gold.Protein.RotatedTorsions>
[ 6907 6896 6895 6894 ] final -170.21 input  -60.11 | X-H torsion
[ 7974 7965 7964 7962 ] final   -2.11 input  175.53 | X-H torsion
[ 8008 7997 7996 7995 ] final  -50.69 input   59.86 | X-H torsion
[ 10167 10162 10161 10158 ] final   76.74 input  -65.29 | X-H torsion
[ 10718 10713 10712 10709 ] final    3.77 input   66.30 | X-H torsion
[ 10763 10752 10751 10750 ] final  -87.47 input  -60.55 | X-H torsion
[ 11005 11000 10999 10996 ] final  -54.67 input  -57.11 | X-H torsion

> <Gold.Protein.ActiveResidues>
 VAL166  LYS551  ARG553  GLY616  TRP617  ASP618  TYR619  PRO620  LYS621  CYS622 
 ASP623  PHE694  ASN695  SER759  ASP760  ASP761  ALA762  ILE779  LEU786  VAL792 
 PHE793  MET794  SER795  GLU796  ALA797  LYS798  CYS799  TRP800  GLU811  SER814 

> <Gold.Protein.RotatedAtoms>
  151.5040  133.3498  159.2873 H   0  0  0  0  0  0  0  0  0  0  0  0  # atno 6907 bound_to 6896
  150.8754  134.8139  159.7197 H   0  0  0  0  0  0  0  0  0  0  0  0  # atno 6908 bound_to 6896
  152.4727  134.4930  159.9753 H   0  0  0  0  0  0  0  0  0  0  0  0  # atno 6909 bound_to 6896
  146.2409  140.1522  142.8334 H   0  0  0  0  0  0  0  0  0  0  0  0  # atno 7974 bound_to 7965
  154.4067  140.1266  156.4707 H   0  0  0  0  0  0  0  0  0  0  0  0  # atno 8008 bound_to 7997
  155.7182  140.3493  155.4984 H   0  0  0  0  0  0  0  0  0  0  0  0  # atno 8009 bound_to 7997
  155.9238  140.1057  157.1176 H   0  0  0  0  0  0  0  0  0  0  0  0  # atno 8010 bound_to 7997
  139.9890  144.5771  150.7834 H   0  0  0  0  0  0  0  0  0  0  0  0  # atno 10167 bound_to 10162
  156.8827  130.5659  149.5652 H   0  0  0  0  0  0  0  0  0  0  0  0  # atno 10718 bound_to 10713
  154.6339  135.5412  153.7712 H   0  0  0  0  0  0  0  0  0  0  0  0  # atno 10763 bound_to 10752
  153.0299  135.6443  154.1259 H   0  0  0  0  0  0  0  0  0  0  0  0  # atno 10764 bound_to 10752
  154.1188  135.2922  155.3193 H   0  0  0  0  0  0  0  0  0  0  0  0  # atno 10765 bound_to 10752
  141.1037  133.6615  156.4355 H   0  0  0  0  0  0  0  0  0  0  0  0  # atno 11005 bound_to 11000
  145.0158  140.8753  143.5196 LP  0  0  0  0  0  0  0  0  0  0  0  0  # atno 17320 bound_to 7965
  145.1562  139.2485  143.5415 LP  0  0  0  0  0  0  0  0  0  0  0  0  # atno 17321 bound_to 7965
  140.7462  143.2886  151.3392 LP  0  0  0  0  0  0  0  0  0  0  0  0  # atno 17342 bound_to 10162
  139.6354  144.0641  152.2511 LP  0  0  0  0  0  0  0  0  0  0  0  0  # atno 17343 bound_to 10162
  156.0669  130.5710  150.9306 LP  0  0  0  0  0  0  0  0  0  0  0  0  # atno 17370 bound_to 10713
  157.6131  131.0935  150.8759 LP  0  0  0  0  0  0  0  0  0  0  0  0  # atno 17371 bound_to 10713
  140.4957  134.6533  157.5229 LP  0  0  0  0  0  0  0  0  0  0  0  0  # atno 17394 bound_to 11000
  139.9898  134.7003  155.9709 LP  0  0  0  0  0  0  0  0  0  0  0  0  # atno 17395 bound_to 11000

$$$$
