AV-unprocessed.smi:3252|AV-procd|sdf|12441|dock10
  -GOLD-   2272018333D 1   1.00000     0.00000
 Structure written by MMmdl.
 37 38  0  0  0  0  0  0  0  0  2 V2000
  146.6887  137.3857  154.2092 C   0  0  0  0  0  0  0  0  0  0  0  0
  148.0446  137.7453  154.8325 C   0  0  0  0  0  0  0  0  0  0  0  0
  148.9500  138.4233  153.8673 N   0  3  1  0  0  0  0  0  0  0  0  0
  148.3763  139.6616  153.2872 C   0  0  0  0  0  0  0  0  0  0  0  0
  148.4758  140.8350  154.2770 C   0  0  0  0  0  0  0  0  0  0  0  0
  149.8352  141.0163  154.6497 O   0  0  0  0  0  0  0  0  0  0  0  0
  150.3761  139.8870  155.3284 C   0  0  2  0  0  0  0  0  0  0  0  0
  151.8214  140.2036  155.7523 C   0  0  0  0  0  0  0  0  0  0  0  0
  151.9622  140.3500  157.1969 N   0  0  0  0  0  0  0  0  0  0  0  0
  151.9742  141.6091  157.8150 C   0  0  0  0  0  0  0  0  0  0  0  0
  152.6278  141.7418  159.0582 C   0  0  0  0  0  0  0  0  0  0  0  0
  152.6456  143.0025  159.6868 C   0  0  0  0  0  0  0  0  0  0  0  0
  152.0094  144.0863  159.0501 C   0  0  0  0  0  0  0  0  0  0  0  0
  151.9980  145.4057  159.6581 C   0  0  0  0  0  0  0  0  0  0  0  0
  151.9891  146.4565  160.1421 N   0  0  0  0  0  0  0  0  0  0  0  0
  151.3844  143.8582  157.8078 C   0  0  0  0  0  0  0  0  0  0  0  0
  151.3660  142.6519  157.2007 N   0  0  0  0  0  0  0  0  0  0  0  0
  150.3255  138.6751  154.3710 C   0  0  0  0  0  0  0  0  0  0  0  0
  146.0150  136.9822  154.9655 H   0  0  0  0  0  0  0  0  0  0  0  0
  146.7833  136.6329  153.4274 H   0  0  0  0  0  0  0  0  0  0  0  0
  146.2089  138.2641  153.7762 H   0  0  0  0  0  0  0  0  0  0  0  0
  147.8525  138.4173  155.6698 H   0  0  0  0  0  0  0  0  0  0  0  0
  148.5161  136.8589  155.2562 H   0  0  0  0  0  0  0  0  0  0  0  0
  148.9345  139.9071  152.3829 H   0  0  0  0  0  0  0  0  0  0  0  0
  147.3437  139.5019  152.9747 H   0  0  0  0  0  0  0  0  0  0  0  0
  148.1154  141.7512  153.8088 H   0  0  0  0  0  0  0  0  0  0  0  0
  147.8581  140.6665  155.1604 H   0  0  0  0  0  0  0  0  0  0  0  0
  149.7874  139.6796  156.2234 H   0  0  0  0  0  0  0  0  0  0  0  0
  152.4676  139.3761  155.4588 H   0  0  0  0  0  0  0  0  0  0  0  0
  152.2002  141.0801  155.2259 H   0  0  0  0  0  0  0  0  0  0  0  0
  151.9098  139.5210  157.7712 H   0  0  0  0  0  0  0  0  0  0  0  0
  153.1080  140.8950  159.5268 H   0  0  0  0  0  0  0  0  0  0  0  0
  153.1391  143.1289  160.6397 H   0  0  0  0  0  0  0  0  0  0  0  0
  150.8844  144.6596  157.2828 H   0  0  0  0  0  0  0  0  0  0  0  0
  150.7338  137.7869  154.8515 H   0  0  0  0  0  0  0  0  0  0  0  0
  150.9660  138.8717  153.5099 H   0  0  0  0  0  0  0  0  0  0  0  0
  149.0405  137.7769  153.0964 H   0  0  0  0  0  0  0  0  0  0  0  0
  1  2  1  0  0  0  0
  1 19  1  0  0  0  0
  1 20  1  0  0  0  0
  1 21  1  0  0  0  0
  2  3  1  0  0  0  0
  2 22  1  0  0  0  0
  2 23  1  0  0  0  0
  3 18  1  0  0  0  0
  3  4  1  0  0  0  0
  3 37  1  0  0  0  0
  4  5  1  0  0  0  0
  4 24  1  0  0  0  0
  4 25  1  0  0  0  0
  5  6  1  0  0  0  0
  5 26  1  0  0  0  0
  5 27  1  0  0  0  0
  6  7  1  0  0  0  0
  7  8  1  0  0  0  0
  7 18  1  0  0  0  0
  7 28  1  0  0  0  0
  8  9  1  0  0  0  0
  8 29  1  0  0  0  0
  8 30  1  0  0  0  0
  9 10  1  0  0  0  0
  9 31  1  0  0  0  0
 10 17  1  0  0  0  0
 10 11  2  0  0  0  0
 11 12  1  0  0  0  0
 11 32  1  0  0  0  0
 12 13  2  0  0  0  0
 12 33  1  0  0  0  0
 13 14  1  0  0  0  0
 13 16  1  0  0  0  0
 14 15  3  0  0  0  0
 16 17  2  0  0  0  0
 16 34  1  0  0  0  0
 18 35  1  0  0  0  0
 18 36  1  0  0  0  0
M  CHG  1   3   1
M  END
> <s_m_source_file>
AV-unprocessed.smi

> <i_m_source_file_index>
3252

> <i_lp_mmshare_version>
43012

> <i_f3d_flags>
0

> <s_epik_input>
W0NIM11bQ0gyXU4xW0NIMl1bQ0gyXU9bQ0BIXShbQ0gyXTEpW0NIMl1bTkhdYzJbY0hdW2NIXWMoQyNOKVtjSF1uMg==

> <s_epik_cmdline>
J2VwaWtfcHl0aG9uJywgJy1waCcsICc3LjAnLCAnLXRuJywgJzgnLCAnLW1hJywgJzIwMCcsICctbWV0YWxfYmluZGluZycsICctaW1hZScsICc8aW5maWxlLm1hZT4nLCAnLW9tYWUnLCAnPG91dGZpbGUubWFlPic=

> <r_epik_Ionization_Penalty>
0.178512

> <r_epik_Ionization_Penalty_Charging>
0.178504

> <r_epik_Ionization_Penalty_Neutral>
8.15545e-06

> <r_epik_State_Penalty>
0.167974

> <r_epik_Charging_Adjusted_Penalty>
0.346478

> <i_epik_Tot_Q>
1

> <i_epik_Tot_abs_Q>
1

> <r_epik_Metal_State_Penalty>
0.167974

> <b_epik_Metal_Only>
0

> <s_lp_Force_Field>
OPLS_2005

> <r_lp_Energy>
19.5584

> <b_lp_Chiralities_Consistent>
1

> <s_lp_Variant>
AV-unprocessed.smi:3252-3

> <Gold.Version>
5.8.1

> <Gold.Id.Protein>
6NUR|6NUR_protein|mol2

> <Gold.PLP.Fitness>
43.1519

> <Gold.PLP.PLP>
-35.8051

> <Gold.PLP.part.hbond>
-4.3892

> <Gold.PLP.part.metal>
0.0000

> <Gold.PLP.part.buried>
1.2142

> <Gold.PLP.part.nonpolar>
-32.8057

> <Gold.PLP.part.repulsive>
0.8497

> <Gold.PLP.ligand.clash>
0.0000

> <Gold.PLP.ligand.torsion>
1.0003

> <Gold.PLP.Chemscore.Hbond>
2.1087

> <Gold.PLP.Chemscore.CHOScore>
1.0000

> <Gold.PLP.Chemscore.Metal>
0.0000

> <Gold.Chemscore.Hbonds>
donor molecule, donor type, donor heavy atom, donor atom, acceptor molecule, acceptor atom, score
      L1  H     3    37       P1  7948  2.00
      P1  H  7989  7998       L1     6  0.10
      L1  C    16    34       P1  8028  0.99

> <Gold.PLP.Chemscore.Internal.Correction>
0.0214

> <Gold.Rescore>
     Score         DG    S(hbond)    S(metal)    S(lipo)     H(rot)  DE(clash)    DE(int)     intcor
     12.76     -14.05       1.00        0.00      76.85       1.47       0.38       0.90       ----

> <Gold.Chemscore.Fitness>
12.7644

> <Gold.Chemscore.DG>
-14.0477

> <Gold.Chemscore.ZeroCoef>
-5.4800

> <Gold.Chemscore.Hbond>
0.9983

> <Gold.Chemscore.Metal>
0.0000

> <Gold.Chemscore.Lipo>
76.8533

> <Gold.Chemscore.Internal_Hbond>
0.0000

> <Gold.Chemscore.DEClash>
0.3816

> <Gold.Chemscore.DEInternal>
0.9017

> <Gold.Chemscore.Rot>
1.4681

> <Gold.Chemscore.Internal.Correction>
   9.000000E+99

> <Gold.Chemscore.Hbonds>
donor molecule, donor type, donor heavy atom, donor atom, acceptor molecule, acceptor atom, score
      L1  H     3    37       P1  7948  0.99

> <Gold.Chemscore.Hbond.Weighted>
-3.3342

> <Gold.Chemscore.Metal.Weighted>
-0.0000

> <Gold.Chemscore.Lipo.Weighted>
-8.9918

> <Gold.Chemscore.Internal_Hbond.Weighted>
0.0000

> <Gold.Chemscore.DEClash.Weighted>
0.3816

> <Gold.Chemscore.DEInternal.Weighted>
0.9017

> <Gold.Chemscore.Rot.Weighted>
3.7584

> <Gold.Chemscore.Internal.Correction.Weighted>
   9.000000E+99

> <Gold.Protein.RotatedTorsions>
[ 6907 6896 6895 6894 ] final   84.18 input  -60.11 | X-H torsion
[ 7974 7965 7964 7962 ] final   98.56 input  175.53 | X-H torsion
[ 8008 7997 7996 7995 ] final -101.37 input   59.86 | X-H torsion
[ 10167 10162 10161 10158 ] final  142.77 input  -65.29 | X-H torsion
[ 10718 10713 10712 10709 ] final -144.76 input   66.30 | X-H torsion
[ 10763 10752 10751 10750 ] final  176.02 input  -60.55 | X-H torsion
[ 11005 11000 10999 10996 ] final -117.98 input  -57.11 | X-H torsion

> <Gold.Protein.ActiveResidues>
 VAL166  LYS551  ARG553  GLY616  TRP617  ASP618  TYR619  PRO620  LYS621  CYS622 
 ASP623  PHE694  ASN695  SER759  ASP760  ASP761  ALA762  ILE779  LEU786  VAL792 
 PHE793  MET794  SER795  GLU796  ALA797  LYS798  CYS799  TRP800  GLU811  SER814 

> <Gold.Protein.RotatedAtoms>
  152.5346  134.2780  159.8996 H   0  0  0  0  0  0  0  0  0  0  0  0  # atno 6907 bound_to 6896
  151.2735  133.4237  159.2630 H   0  0  0  0  0  0  0  0  0  0  0  0  # atno 6908 bound_to 6896
  151.0347  134.9579  159.8186 H   0  0  0  0  0  0  0  0  0  0  0  0  # atno 6909 bound_to 6896
  145.4105  139.2334  143.3250 H   0  0  0  0  0  0  0  0  0  0  0  0  # atno 7974 bound_to 7965
  154.8417  140.0435  157.1546 H   0  0  0  0  0  0  0  0  0  0  0  0  # atno 8008 bound_to 7997
  154.9040  140.3004  155.5282 H   0  0  0  0  0  0  0  0  0  0  0  0  # atno 8009 bound_to 7997
  156.2992  140.2370  156.4071 H   0  0  0  0  0  0  0  0  0  0  0  0  # atno 8010 bound_to 7997
  139.4986  144.6085  151.6325 H   0  0  0  0  0  0  0  0  0  0  0  0  # atno 10167 bound_to 10162
  156.3740  130.7803  151.1987 H   0  0  0  0  0  0  0  0  0  0  0  0  # atno 10718 bound_to 10713
  154.4755  135.2773  155.1611 H   0  0  0  0  0  0  0  0  0  0  0  0  # atno 10763 bound_to 10752
  154.3342  135.6183  153.5569 H   0  0  0  0  0  0  0  0  0  0  0  0  # atno 10764 bound_to 10752
  152.9869  135.5773  154.5144 H   0  0  0  0  0  0  0  0  0  0  0  0  # atno 10765 bound_to 10752
  141.0317  133.9971  157.3132 H   0  0  0  0  0  0  0  0  0  0  0  0  # atno 11005 bound_to 11000
  146.2707  140.4816  142.8815 LP  0  0  0  0  0  0  0  0  0  0  0  0  # atno 17320 bound_to 7965
  144.8312  140.6710  143.6290 LP  0  0  0  0  0  0  0  0  0  0  0  0  # atno 17321 bound_to 7965
  140.5753  144.0039  150.6238 LP  0  0  0  0  0  0  0  0  0  0  0  0  # atno 17342 bound_to 10162
  140.3170  143.3161  152.0822 LP  0  0  0  0  0  0  0  0  0  0  0  0  # atno 17343 bound_to 10162
  157.7486  131.0364  150.4406 LP  0  0  0  0  0  0  0  0  0  0  0  0  # atno 17370 bound_to 10713
  156.4638  130.4037  149.6560 LP  0  0  0  0  0  0  0  0  0  0  0  0  # atno 17371 bound_to 10713
  139.9212  135.0200  156.8072 LP  0  0  0  0  0  0  0  0  0  0  0  0  # atno 17394 bound_to 11000
  140.6394  133.9832  155.7700 LP  0  0  0  0  0  0  0  0  0  0  0  0  # atno 17395 bound_to 11000

$$$$
