AV-unprocessed.smi:3052|AV-procd|sdf|11636|dock7
  -GOLD-   2272017 33D 1   1.00000     0.00000
 Structure written by MMmdl.
 41 43  0  0  0  0  0  0  0  0  1 V2000
  152.3051  138.4449  156.1303 C   0  0  0  0  0  0  0  0  0  0  0  0
  151.7501  137.0479  156.1088 C   0  0  0  0  0  0  0  0  0  0  0  0
  152.2737  136.1339  156.9124 N   0  0  0  0  0  0  0  0  0  0  0  0
  151.5250  134.9610  156.7302 O   0  0  0  0  0  0  0  0  0  0  0  0
  150.5590  135.1928  155.8033 C   0  0  0  0  0  0  0  0  0  0  0  0
  149.6432  134.0551  155.4896 C   0  0  0  0  0  0  0  0  0  0  0  0
  150.1885  132.6831  155.1816 C   0  0  0  0  0  0  0  0  0  0  0  0
  149.5158  133.4917  154.0940 C   0  0  0  0  0  0  0  0  0  0  0  0
  150.6708  136.4815  155.3693 C   0  0  0  0  0  0  0  0  0  0  0  0
  149.8060  137.0967  154.4308 N   0  0  0  0  0  0  0  0  0  0  0  0
  148.9598  138.1106  154.6646 C   0  0  0  0  0  0  0  0  0  0  0  0
  148.7928  138.6426  155.7613 O   0  0  0  0  0  0  0  0  0  0  0  0
  148.3346  138.4852  153.5363 N   0  0  0  0  0  0  0  0  0  0  0  0
  147.3414  139.5503  153.3506 C   0  0  2  0  0  0  0  0  0  0  0  0
  146.1776  139.1640  154.2961 C   0  0  0  0  0  0  0  0  0  0  0  0
  146.8346  139.5058  151.8833 C   0  0  0  0  0  0  0  0  0  0  0  0
  147.1274  138.2743  151.2532 O   0  0  0  0  0  0  0  0  0  0  0  0
  147.9212  140.9425  153.6569 C   0  0  0  0  0  0  0  0  0  0  0  0
  148.0218  141.5215  155.0487 C   0  0  0  0  0  0  0  0  0  0  0  0
  147.0880  142.1478  154.0310 C   0  0  0  0  0  0  0  0  0  0  0  0
  151.5278  139.1823  155.9304 H   0  0  0  0  0  0  0  0  0  0  0  0
  153.0857  138.5670  155.3794 H   0  0  0  0  0  0  0  0  0  0  0  0
  152.7394  138.6874  157.1007 H   0  0  0  0  0  0  0  0  0  0  0  0
  148.7368  134.1081  156.0891 H   0  0  0  0  0  0  0  0  0  0  0  0
  151.2693  132.5692  155.1248 H   0  0  0  0  0  0  0  0  0  0  0  0
  149.6488  131.8269  155.5808 H   0  0  0  0  0  0  0  0  0  0  0  0
  148.5273  133.1735  153.7696 H   0  0  0  0  0  0  0  0  0  0  0  0
  150.1557  133.8944  153.3116 H   0  0  0  0  0  0  0  0  0  0  0  0
  149.9349  136.8274  153.4667 H   0  0  0  0  0  0  0  0  0  0  0  0
  148.5693  137.9694  152.7010 H   0  0  0  0  0  0  0  0  0  0  0  0
  145.3439  139.8634  154.2463 H   0  0  0  0  0  0  0  0  0  0  0  0
  146.4971  139.1055  155.3365 H   0  0  0  0  0  0  0  0  0  0  0  0
  145.7749  138.1839  154.0366 H   0  0  0  0  0  0  0  0  0  0  0  0
  145.7560  139.6569  151.8323 H   0  0  0  0  0  0  0  0  0  0  0  0
  147.2913  140.3029  151.2950 H   0  0  0  0  0  0  0  0  0  0  0  0
  147.4856  137.6842  151.8985 H   0  0  0  0  0  0  0  0  0  0  0  0
  148.7608  141.1872  153.0095 H   0  0  0  0  0  0  0  0  0  0  0  0
  147.5696  140.9818  155.8770 H   0  0  0  0  0  0  0  0  0  0  0  0
  148.9317  142.0645  155.2955 H   0  0  0  0  0  0  0  0  0  0  0  0
  147.3814  143.1056  153.6064 H   0  0  0  0  0  0  0  0  0  0  0  0
  146.0202  142.0270  154.1938 H   0  0  0  0  0  0  0  0  0  0  0  0
  1  2  1  0  0  0  0
  1 21  1  0  0  0  0
  1 22  1  0  0  0  0
  1 23  1  0  0  0  0
  2  9  1  0  0  0  0
  2  3  2  0  0  0  0
  3  4  1  0  0  0  0
  4  5  1  0  0  0  0
  5  6  1  0  0  0  0
  5  9  2  0  0  0  0
  6  8  1  0  0  0  0
  6  7  1  0  0  0  0
  6 24  1  0  0  0  0
  7  8  1  0  0  0  0
  7 25  1  0  0  0  0
  7 26  1  0  0  0  0
  8 27  1  0  0  0  0
  8 28  1  0  0  0  0
  9 10  1  0  0  0  0
 10 11  1  0  0  0  0
 10 29  1  0  0  0  0
 11 12  2  0  0  0  0
 11 13  1  0  0  0  0
 13 14  1  0  0  0  0
 13 30  1  0  0  0  0
 14 15  1  0  0  0  0
 14 16  1  0  0  0  0
 14 18  1  0  0  0  0
 15 31  1  0  0  0  0
 15 32  1  0  0  0  0
 15 33  1  0  0  0  0
 16 17  1  0  0  0  0
 16 34  1  0  0  0  0
 16 35  1  0  0  0  0
 17 36  1  0  0  0  0
 18 20  1  0  0  0  0
 18 19  1  0  0  0  0
 18 37  1  0  0  0  0
 19 20  1  0  0  0  0
 19 38  1  0  0  0  0
 19 39  1  0  0  0  0
 20 40  1  0  0  0  0
 20 41  1  0  0  0  0
M  END
> <s_m_source_file>
AV-unprocessed.smi

> <i_m_source_file_index>
3052

> <i_lp_mmshare_version>
43012

> <i_f3d_flags>
0

> <s_epik_input>
W0NIM11jMW5vYyhbQ0hdMltDSDJdW0NIMl0yKWMxW05IXUMoPU8pW05IXVtDQEBdKFtDSDNdKShbQ0gyXVtPSF0pW0NIXTNbQ0gyXVtDSDJdMw==

> <s_epik_cmdline>
J2VwaWtfcHl0aG9uJywgJy1waCcsICc3LjAnLCAnLXRuJywgJzgnLCAnLW1hJywgJzIwMCcsICctbWV0YWxfYmluZGluZycsICctaW1hZScsICc8aW5maWxlLm1hZT4nLCAnLW9tYWUnLCAnPG91dGZpbGUubWFlPic=

> <r_lp_tautomer_probability>
1

> <r_epik_Ionization_Penalty>
3.5887e-05

> <r_epik_Ionization_Penalty_Charging>
0

> <r_epik_Ionization_Penalty_Neutral>
3.5887e-05

> <r_epik_State_Penalty>
-0

> <r_epik_Charging_Adjusted_Penalty>
0

> <i_epik_Tot_Q>
0

> <i_epik_Tot_abs_Q>
0

> <r_epik_Metal_State_Penalty>
-0

> <b_epik_Metal_Only>
0

> <s_lp_Force_Field>
OPLS_2005

> <r_lp_Energy>
28.1978

> <b_lp_Chiralities_Consistent>
1

> <s_lp_Variant>
AV-unprocessed.smi:3052-2

> <Gold.Version>
5.8.1

> <Gold.Id.Protein>
6NUR|6NUR_protein|mol2

> <Gold.PLP.Fitness>
42.4328

> <Gold.PLP.PLP>
-34.4713

> <Gold.PLP.part.hbond>
-6.7738

> <Gold.PLP.part.metal>
0.0000

> <Gold.PLP.part.buried>
-2.6201

> <Gold.PLP.part.nonpolar>
-27.4391

> <Gold.PLP.part.repulsive>
0.0796

> <Gold.PLP.ligand.clash>
0.0000

> <Gold.PLP.ligand.torsion>
2.2731

> <Gold.PLP.Chemscore.Hbond>
3.5383

> <Gold.PLP.Chemscore.CHOScore>
0.0000

> <Gold.PLP.Chemscore.Metal>
0.0000

> <Gold.Chemscore.Hbonds>
donor molecule, donor type, donor heavy atom, donor atom, acceptor molecule, acceptor atom, score
      L1  H    10    29       P1  7948  0.88
      L1  H    13    30       P1  7948  0.99
      L1  H    17    36       P1  7948  0.64
      P1  H  7954  7966       L1    17  0.95

> <Gold.PLP.Chemscore.Internal.Correction>
1.8930

> <Gold.Rescore>
     Score         DG    S(hbond)    S(metal)    S(lipo)     H(rot)  DE(clash)    DE(int)     intcor
     15.06     -17.27       2.55        0.00      75.16       2.16       0.01       2.20       ----

> <Gold.Chemscore.Fitness>
15.0638

> <Gold.Chemscore.DG>
-17.2732

> <Gold.Chemscore.ZeroCoef>
-5.4800

> <Gold.Chemscore.Hbond>
2.5513

> <Gold.Chemscore.Metal>
0.0000

> <Gold.Chemscore.Lipo>
75.1596

> <Gold.Chemscore.Internal_Hbond>
0.0000

> <Gold.Chemscore.DEClash>
0.0086

> <Gold.Chemscore.DEInternal>
2.2008

> <Gold.Chemscore.Rot>
2.1569

> <Gold.Chemscore.Internal.Correction>
   9.000000E+99

> <Gold.Chemscore.Hbonds>
donor molecule, donor type, donor heavy atom, donor atom, acceptor molecule, acceptor atom, score
      L1  H    10    29       P1  7948  0.22
      L1  H    13    30       P1  7948  0.93
      L1  H    17    36       P1  7948  0.61
      P1  H  7954  7966       L1    17  0.22

> <Gold.Chemscore.Hbond.Weighted>
-8.5213

> <Gold.Chemscore.Metal.Weighted>
-0.0000

> <Gold.Chemscore.Lipo.Weighted>
-8.7937

> <Gold.Chemscore.Internal_Hbond.Weighted>
0.0000

> <Gold.Chemscore.DEClash.Weighted>
0.0086

> <Gold.Chemscore.DEInternal.Weighted>
2.2008

> <Gold.Chemscore.Rot.Weighted>
5.5218

> <Gold.Chemscore.Internal.Correction.Weighted>
   9.000000E+99

> <Gold.Protein.RotatedTorsions>
[ 6907 6896 6895 6894 ] final    8.64 input  -60.11 | X-H torsion
[ 7974 7965 7964 7962 ] final   33.74 input  175.53 | X-H torsion
[ 8008 7997 7996 7995 ] final   22.69 input   59.86 | X-H torsion
[ 10167 10162 10161 10158 ] final  -40.17 input  -65.29 | X-H torsion
[ 10718 10713 10712 10709 ] final  -52.34 input   66.30 | X-H torsion
[ 10763 10752 10751 10750 ] final -153.79 input  -60.55 | X-H torsion
[ 11005 11000 10999 10996 ] final  -96.46 input  -57.11 | X-H torsion

> <Gold.Protein.ActiveResidues>
 VAL166  LYS551  ARG553  GLY616  TRP617  ASP618  TYR619  PRO620  LYS621  CYS622 
 ASP623  PHE694  ASN695  SER759  ASP760  ASP761  ALA762  ILE779  LEU786  VAL792 
 PHE793  MET794  SER795  GLU796  ALA797  LYS798  CYS799  TRP800  GLU811  SER814 

> <Gold.Protein.RotatedAtoms>
  151.7092  135.0916  160.0264 H   0  0  0  0  0  0  0  0  0  0  0  0  # atno 6907 bound_to 6896
  152.3672  133.6368  159.6068 H   0  0  0  0  0  0  0  0  0  0  0  0  # atno 6908 bound_to 6896
  150.7646  133.9245  159.3449 H   0  0  0  0  0  0  0  0  0  0  0  0  # atno 6909 bound_to 6896
  146.1400  139.6357  142.9169 H   0  0  0  0  0  0  0  0  0  0  0  0  # atno 7974 bound_to 7965
  154.9696  140.3088  155.4994 H   0  0  0  0  0  0  0  0  0  0  0  0  # atno 8008 bound_to 7997
  156.2967  140.2286  156.4727 H   0  0  0  0  0  0  0  0  0  0  0  0  # atno 8009 bound_to 7997
  154.7889  140.0441  157.1174 H   0  0  0  0  0  0  0  0  0  0  0  0  # atno 8010 bound_to 7997
  140.7042  143.3169  151.2886 H   0  0  0  0  0  0  0  0  0  0  0  0  # atno 10167 bound_to 10162
  156.1630  130.4149  149.9764 H   0  0  0  0  0  0  0  0  0  0  0  0  # atno 10718 bound_to 10713
  154.7903  135.3205  154.7791 H   0  0  0  0  0  0  0  0  0  0  0  0  # atno 10763 bound_to 10752
  153.8482  135.6864  153.4799 H   0  0  0  0  0  0  0  0  0  0  0  0  # atno 10764 bound_to 10752
  153.1571  135.4676  154.9660 H   0  0  0  0  0  0  0  0  0  0  0  0  # atno 10765 bound_to 10752
  141.1410  133.8099  157.0574 H   0  0  0  0  0  0  0  0  0  0  0  0  # atno 11005 bound_to 11000
  145.5069  141.0436  143.2509 LP  0  0  0  0  0  0  0  0  0  0  0  0  # atno 17320 bound_to 7965
  144.7782  139.6584  143.7166 LP  0  0  0  0  0  0  0  0  0  0  0  0  # atno 17321 bound_to 7965
  139.6611  144.0188  152.2693 LP  0  0  0  0  0  0  0  0  0  0  0  0  # atno 17342 bound_to 10162
  139.9755  144.6464  150.7949 LP  0  0  0  0  0  0  0  0  0  0  0  0  # atno 17343 bound_to 10162
  156.7587  130.9143  151.3640 LP  0  0  0  0  0  0  0  0  0  0  0  0  # atno 17370 bound_to 10713
  157.6747  130.9083  150.0121 LP  0  0  0  0  0  0  0  0  0  0  0  0  # atno 17371 bound_to 10713
  140.0593  134.9763  157.1276 LP  0  0  0  0  0  0  0  0  0  0  0  0  # atno 17394 bound_to 11000
  140.3872  134.2223  155.7168 LP  0  0  0  0  0  0  0  0  0  0  0  0  # atno 17395 bound_to 11000

$$$$
