AV-unprocessed.smi:1593|AV-procd|sdf|6409|dock5
  -GOLD-   22720 7 43D 1   1.00000     0.00000
 Structure written by MMmdl.
 36 37  0  0  0  0  0  0  0  0  1 V2000
  144.4874  131.4473  150.8444 C   0  0  0  0  0  0  0  0  0  0  0  0
  144.7881  132.8775  151.1363 C   0  0  0  0  0  0  0  0  0  0  0  0
  145.9321  133.5313  151.4975 C   0  0  0  0  0  0  0  0  0  0  0  0
  145.5026  134.8854  151.6154 C   0  0  0  0  0  0  0  0  0  0  0  0
  146.3092  135.9952  151.9770 N   0  0  0  0  0  0  0  0  0  0  0  0
  145.9193  137.1989  152.4291 C   0  0  0  0  0  0  0  0  0  0  0  0
  144.7541  137.5403  152.6312 O   0  0  0  0  0  0  0  0  0  0  0  0
  146.9732  138.0016  152.6374 N   0  0  0  0  0  0  0  0  0  0  0  0
  146.9035  139.3873  153.0906 C   0  0  0  0  0  0  0  0  0  0  0  0
  147.0460  139.4894  154.6217 C   0  0  0  0  0  0  0  0  0  0  0  0
  148.4171  139.5724  155.1251 N   0  0  0  0  0  0  0  0  0  0  0  0
  148.9123  140.9436  155.0855 C   0  0  0  0  0  0  0  0  0  0  0  0
  150.3492  141.0497  155.6252 C   0  0  0  0  0  0  0  0  0  0  0  0
  151.2026  140.1824  154.8852 O   0  0  0  0  0  0  0  0  0  0  0  0
  150.7773  138.8240  154.9303 C   0  0  0  0  0  0  0  0  0  0  0  0
  149.3420  138.7141  154.3879 C   0  0  0  0  0  0  0  0  0  0  0  0
  144.2177  135.0361  151.3504 N   0  0  0  0  0  0  0  0  0  0  0  0
  143.7513  133.7527  151.0421 O   0  0  0  0  0  0  0  0  0  0  0  0
  145.4009  130.8958  150.6211 H   0  0  0  0  0  0  0  0  0  0  0  0
  143.8211  131.3576  149.9862 H   0  0  0  0  0  0  0  0  0  0  0  0
  144.0061  130.9728  151.6995 H   0  0  0  0  0  0  0  0  0  0  0  0
  146.9075  133.0949  151.6494 H   0  0  0  0  0  0  0  0  0  0  0  0
  147.3032  135.8572  151.8695 H   0  0  0  0  0  0  0  0  0  0  0  0
  147.8939  137.6344  152.4464 H   0  0  0  0  0  0  0  0  0  0  0  0
  147.6274  140.0161  152.5712 H   0  0  0  0  0  0  0  0  0  0  0  0
  145.9245  139.7706  152.8029 H   0  0  0  0  0  0  0  0  0  0  0  0
  146.4781  140.3513  154.9757 H   0  0  0  0  0  0  0  0  0  0  0  0
  146.5586  138.6163  155.0582 H   0  0  0  0  0  0  0  0  0  0  0  0
  148.8830  141.3187  154.0611 H   0  0  0  0  0  0  0  0  0  0  0  0
  148.2597  141.5899  155.6735 H   0  0  0  0  0  0  0  0  0  0  0  0
  150.7143  142.0726  155.5340 H   0  0  0  0  0  0  0  0  0  0  0  0
  150.3841  140.7889  156.6841 H   0  0  0  0  0  0  0  0  0  0  0  0
  151.4569  138.2168  154.3322 H   0  0  0  0  0  0  0  0  0  0  0  0
  150.8314  138.4517  155.9546 H   0  0  0  0  0  0  0  0  0  0  0  0
  149.0276  137.6734  154.4479 H   0  0  0  0  0  0  0  0  0  0  0  0
  149.3338  138.9825  153.3304 H   0  0  0  0  0  0  0  0  0  0  0  0
  1  2  1  0  0  0  0
  1 19  1  0  0  0  0
  1 20  1  0  0  0  0
  1 21  1  0  0  0  0
  2 18  1  0  0  0  0
  2  3  2  0  0  0  0
  3  4  1  0  0  0  0
  3 22  1  0  0  0  0
  4  5  1  0  0  0  0
  4 17  2  0  0  0  0
  5  6  1  0  0  0  0
  5 23  1  0  0  0  0
  6  7  2  0  0  0  0
  6  8  1  0  0  0  0
  8  9  1  0  0  0  0
  8 24  1  0  0  0  0
  9 10  1  0  0  0  0
  9 25  1  0  0  0  0
  9 26  1  0  0  0  0
 10 11  1  0  0  0  0
 10 27  1  0  0  0  0
 10 28  1  0  0  0  0
 11 16  1  0  0  0  0
 11 12  1  0  0  0  0
 12 13  1  0  0  0  0
 12 29  1  0  0  0  0
 12 30  1  0  0  0  0
 13 14  1  0  0  0  0
 13 31  1  0  0  0  0
 13 32  1  0  0  0  0
 14 15  1  0  0  0  0
 15 16  1  0  0  0  0
 15 33  1  0  0  0  0
 15 34  1  0  0  0  0
 16 35  1  0  0  0  0
 16 36  1  0  0  0  0
 17 18  1  0  0  0  0
M  END
> <s_m_source_file>
AV-unprocessed.smi

> <i_m_source_file_index>
1593

> <i_lp_mmshare_version>
43012

> <i_f3d_flags>
0

> <s_epik_input>
W0NIM11jMVtjSF1jKG5vMSlbTkhdQyg9TylbTkhdW0NIMl1bQ0gyXU4yW0NIMl1bQ0gyXU9bQ0gyXVtDSDJdMg==

> <s_epik_cmdline>
J2VwaWtfcHl0aG9uJywgJy1waCcsICc3LjAnLCAnLXRuJywgJzgnLCAnLW1hJywgJzIwMCcsICctbWV0YWxfYmluZGluZycsICctaW1hZScsICc8aW5maWxlLm1hZT4nLCAnLW9tYWUnLCAnPG91dGZpbGUubWFlPic=

> <r_epik_Ionization_Penalty>
0.214073

> <r_epik_Ionization_Penalty_Charging>
0

> <r_epik_Ionization_Penalty_Neutral>
0.214073

> <r_epik_State_Penalty>
0.204211

> <r_epik_Charging_Adjusted_Penalty>
0.204211

> <i_epik_Tot_Q>
0

> <i_epik_Tot_abs_Q>
0

> <r_epik_Metal_State_Penalty>
0.217151

> <b_epik_Metal_Only>
0

> <s_lp_Force_Field>
OPLS_2005

> <r_lp_Energy>
24.5673

> <b_lp_Chiralities_Consistent>
1

> <s_lp_Variant>
AV-unprocessed.smi:1593-1

> <Gold.Version>
5.8.1

> <Gold.Id.Protein>
6NUR|6NUR_protein|mol2

> <Gold.PLP.Fitness>
36.1529

> <Gold.PLP.PLP>
-28.4588

> <Gold.PLP.part.hbond>
-2.9281

> <Gold.PLP.part.metal>
0.0000

> <Gold.PLP.part.buried>
-6.2756

> <Gold.PLP.part.nonpolar>
-20.8499

> <Gold.PLP.part.repulsive>
0.8106

> <Gold.PLP.ligand.clash>
0.0000

> <Gold.PLP.ligand.torsion>
0.6441

> <Gold.PLP.Chemscore.Hbond>
2.9920

> <Gold.PLP.Chemscore.CHOScore>
0.0000

> <Gold.PLP.Chemscore.Metal>
0.0000

> <Gold.Chemscore.Hbonds>
donor molecule, donor type, donor heavy atom, donor atom, acceptor molecule, acceptor atom, score
      L1  H     5    23       P1  7948  1.00
      L1  H     8    24       P1  7948  0.99
      P1  H  7989  7998       L1    14  1.00

> <Gold.PLP.Chemscore.Internal.Correction>
0.0065

> <Gold.Rescore>
     Score         DG    S(hbond)    S(metal)    S(lipo)     H(rot)  DE(clash)    DE(int)     intcor
     15.34     -17.93       2.83        0.00      60.58       1.60       0.02       2.57       ----

> <Gold.Chemscore.Fitness>
15.3413

> <Gold.Chemscore.DG>
-17.9315

> <Gold.Chemscore.ZeroCoef>
-5.4800

> <Gold.Chemscore.Hbond>
2.8337

> <Gold.Chemscore.Metal>
0.0000

> <Gold.Chemscore.Lipo>
60.5811

> <Gold.Chemscore.Internal_Hbond>
0.0000

> <Gold.Chemscore.DEClash>
0.0234

> <Gold.Chemscore.DEInternal>
2.5668

> <Gold.Chemscore.Rot>
1.6019

> <Gold.Chemscore.Internal.Correction>
   9.000000E+99

> <Gold.Chemscore.Hbonds>
donor molecule, donor type, donor heavy atom, donor atom, acceptor molecule, acceptor atom, score
      L1  H     5    23       P1  7948  0.99
      L1  H     8    24       P1  7948  0.93
      P1  H  7989  7998       L1    14  0.72

> <Gold.Chemscore.Hbond.Weighted>
-9.4645

> <Gold.Chemscore.Metal.Weighted>
-0.0000

> <Gold.Chemscore.Lipo.Weighted>
-7.0880

> <Gold.Chemscore.Internal_Hbond.Weighted>
0.0000

> <Gold.Chemscore.DEClash.Weighted>
0.0234

> <Gold.Chemscore.DEInternal.Weighted>
2.5668

> <Gold.Chemscore.Rot.Weighted>
4.1009

> <Gold.Chemscore.Internal.Correction.Weighted>
   9.000000E+99

> <Gold.Protein.RotatedTorsions>
[ 6907 6896 6895 6894 ] final  126.58 input  -60.11 | X-H torsion
[ 7974 7965 7964 7962 ] final  143.50 input  175.53 | X-H torsion
[ 8008 7997 7996 7995 ] final  -65.19 input   59.86 | X-H torsion
[ 10167 10162 10161 10158 ] final  -90.71 input  -65.29 | X-H torsion
[ 10718 10713 10712 10709 ] final  137.70 input   66.30 | X-H torsion
[ 10763 10752 10751 10750 ] final  -56.42 input  -60.55 | X-H torsion
[ 11005 11000 10999 10996 ] final   22.46 input  -57.11 | X-H torsion

> <Gold.Protein.ActiveResidues>
 VAL166  LYS551  ARG553  GLY616  TRP617  ASP618  TYR619  PRO620  LYS621  CYS622 
 ASP623  PHE694  ASN695  SER759  ASP760  ASP761  ALA762  ILE779  LEU786  VAL792 
 PHE793  MET794  SER795  GLU796  ALA797  LYS798  CYS799  TRP800  GLU811  SER814 

> <Gold.Protein.RotatedAtoms>
  152.3891  133.6653  159.6222 H   0  0  0  0  0  0  0  0  0  0  0  0  # atno 6907 bound_to 6896
  150.7803  133.8985  159.3343 H   0  0  0  0  0  0  0  0  0  0  0  0  # atno 6908 bound_to 6896
  151.6775  135.0968  160.0261 H   0  0  0  0  0  0  0  0  0  0  0  0  # atno 6909 bound_to 6896
  144.8915  139.5551  143.5796 H   0  0  0  0  0  0  0  0  0  0  0  0  # atno 7974 bound_to 7965
  154.4657  140.0938  156.7013 H   0  0  0  0  0  0  0  0  0  0  0  0  # atno 8008 bound_to 7997
  155.4866  140.3469  155.4330 H   0  0  0  0  0  0  0  0  0  0  0  0  # atno 8009 bound_to 7997
  156.0951  140.1407  156.9530 H   0  0  0  0  0  0  0  0  0  0  0  0  # atno 8010 bound_to 7997
  140.3522  143.2885  151.9713 H   0  0  0  0  0  0  0  0  0  0  0  0  # atno 10167 bound_to 10162
  157.4332  131.1050  151.0227 H   0  0  0  0  0  0  0  0  0  0  0  0  # atno 10718 bound_to 10713
  154.2064  135.6402  153.5102 H   0  0  0  0  0  0  0  0  0  0  0  0  # atno 10763 bound_to 10752
  153.0000  135.5463  154.6261 H   0  0  0  0  0  0  0  0  0  0  0  0  # atno 10764 bound_to 10752
  154.5687  135.2915  155.0822 H   0  0  0  0  0  0  0  0  0  0  0  0  # atno 10765 bound_to 10752
  140.3803  134.1928  155.7664 H   0  0  0  0  0  0  0  0  0  0  0  0  # atno 11005 bound_to 11000
  146.3056  139.7570  142.9058 LP  0  0  0  0  0  0  0  0  0  0  0  0  # atno 17320 bound_to 7965
  145.3775  141.0353  143.3196 LP  0  0  0  0  0  0  0  0  0  0  0  0  # atno 17321 bound_to 7965
  139.4825  144.6066  151.7510 LP  0  0  0  0  0  0  0  0  0  0  0  0  # atno 17342 bound_to 10162
  140.5208  144.0882  150.6022 LP  0  0  0  0  0  0  0  0  0  0  0  0  # atno 17343 bound_to 10162
  157.1116  130.6024  149.5483 LP  0  0  0  0  0  0  0  0  0  0  0  0  # atno 17370 bound_to 10713
  155.9921  130.4977  150.7325 LP  0  0  0  0  0  0  0  0  0  0  0  0  # atno 17371 bound_to 10713
  141.1925  133.8170  157.0835 LP  0  0  0  0  0  0  0  0  0  0  0  0  # atno 17394 bound_to 11000
  140.0483  134.9818  157.1090 LP  0  0  0  0  0  0  0  0  0  0  0  0  # atno 17395 bound_to 11000

$$$$
