AV-unprocessed.smi:1036|AV-procd|sdf|4518|dock1
  -GOLD-   22720 2533D 1   1.00000     0.00000
 Structure written by MMmdl.
 41 43  0  0  0  0  0  0  0  0  1 V2000
  153.9684  138.7158  157.4040 O   0  0  0  0  0  0  0  0  0  0  0  0
  153.6096  137.7593  156.4313 C   0  0  0  0  0  0  0  0  0  0  0  0
  153.1251  138.4667  155.1577 C   0  0  0  0  0  0  0  0  0  0  0  0
  152.1927  139.5417  155.4451 N   0  0  0  0  0  0  0  0  0  0  0  0
  150.9279  139.8318  154.9468 C   0  0  0  0  0  0  0  0  0  0  0  0
  150.3054  139.0892  154.0332 N   0  0  0  0  0  0  0  0  0  0  0  0
  149.1111  139.7653  153.8687 C   0  0  0  0  0  0  0  0  0  0  0  0
  148.0050  139.4850  153.0348 C   0  0  0  0  0  0  0  0  0  0  0  0
  146.8770  140.3317  153.0369 C   0  0  0  0  0  0  0  0  0  0  0  0
  146.8386  141.4685  153.8702 C   0  0  0  0  0  0  0  0  0  0  0  0
  147.9293  141.7662  154.7093 C   0  0  0  0  0  0  0  0  0  0  0  0
  149.0526  140.9182  154.7042 C   0  0  0  0  0  0  0  0  0  0  0  0
  150.2601  140.9219  155.3960 N   0  0  0  0  0  0  0  0  0  0  0  0
  150.6764  141.9015  156.3913 C   0  0  0  0  0  0  0  0  0  0  0  0
  150.6109  141.3368  157.8239 C   0  0  2  0  0  0  0  0  0  0  0  0
  149.2502  141.2278  158.1901 O   0  0  0  0  0  0  0  0  0  0  0  0
  151.4142  142.1706  158.8161 C   0  0  0  0  0  0  0  0  0  0  0  0
  151.1278  143.5431  158.9910 C   0  0  0  0  0  0  0  0  0  0  0  0
  151.8725  144.3156  159.9023 C   0  0  0  0  0  0  0  0  0  0  0  0
  151.5910  145.6298  160.0631 F   0  0  0  0  0  0  0  0  0  0  0  0
  152.9137  143.7236  160.6414 C   0  0  0  0  0  0  0  0  0  0  0  0
  153.2128  142.3597  160.4643 C   0  0  0  0  0  0  0  0  0  0  0  0
  152.4672  141.5840  159.5556 C   0  0  0  0  0  0  0  0  0  0  0  0
  152.7742  140.2746  159.3932 F   0  0  0  0  0  0  0  0  0  0  0  0
  153.1782  139.0457  157.8038 H   0  0  0  0  0  0  0  0  0  0  0  0
  154.5024  137.1753  156.2066 H   0  0  0  0  0  0  0  0  0  0  0  0
  152.8658  137.0668  156.8274 H   0  0  0  0  0  0  0  0  0  0  0  0
  153.9621  138.8426  154.5684 H   0  0  0  0  0  0  0  0  0  0  0  0
  152.6010  137.7473  154.5277 H   0  0  0  0  0  0  0  0  0  0  0  0
  152.5354  140.2011  156.1286 H   0  0  0  0  0  0  0  0  0  0  0  0
  148.0242  138.6171  152.3924 H   0  0  0  0  0  0  0  0  0  0  0  0
  146.0369  140.1078  152.3960 H   0  0  0  0  0  0  0  0  0  0  0  0
  145.9707  142.1117  153.8649 H   0  0  0  0  0  0  0  0  0  0  0  0
  147.9024  142.6352  155.3499 H   0  0  0  0  0  0  0  0  0  0  0  0
  151.6780  142.2662  156.1618 H   0  0  0  0  0  0  0  0  0  0  0  0
  150.0141  142.7636  156.3010 H   0  0  0  0  0  0  0  0  0  0  0  0
  151.0006  140.3185  157.8223 H   0  0  0  0  0  0  0  0  0  0  0  0
  148.9656  142.0601  158.5360 H   0  0  0  0  0  0  0  0  0  0  0  0
  150.3361  144.0106  158.4242 H   0  0  0  0  0  0  0  0  0  0  0  0
  153.4874  144.3168  161.3380 H   0  0  0  0  0  0  0  0  0  0  0  0
  154.0170  141.9075  161.0258 H   0  0  0  0  0  0  0  0  0  0  0  0
  1  2  1  0  0  0  0
  1 25  1  0  0  0  0
  2  3  1  0  0  0  0
  2 26  1  0  0  0  0
  2 27  1  0  0  0  0
  3  4  1  0  0  0  0
  3 28  1  0  0  0  0
  3 29  1  0  0  0  0
  4  5  1  0  0  0  0
  4 30  1  0  0  0  0
  5 13  1  0  0  0  0
  5  6  2  0  0  0  0
  6  7  1  0  0  0  0
  7 12  2  0  0  0  0
  7  8  1  0  0  0  0
  8  9  2  0  0  0  0
  8 31  1  0  0  0  0
  9 10  1  0  0  0  0
  9 32  1  0  0  0  0
 10 11  2  0  0  0  0
 10 33  1  0  0  0  0
 11 12  1  0  0  0  0
 11 34  1  0  0  0  0
 12 13  1  0  0  0  0
 13 14  1  0  0  0  0
 14 15  1  0  0  0  0
 14 35  1  0  0  0  0
 14 36  1  0  0  0  0
 15 16  1  0  0  0  0
 15 17  1  0  0  0  0
 15 37  1  0  0  0  0
 16 38  1  0  0  0  0
 17 23  1  0  0  0  0
 17 18  2  0  0  0  0
 18 19  1  0  0  0  0
 18 39  1  0  0  0  0
 19 20  1  0  0  0  0
 19 21  2  0  0  0  0
 21 22  1  0  0  0  0
 21 40  1  0  0  0  0
 22 23  2  0  0  0  0
 22 41  1  0  0  0  0
 23 24  1  0  0  0  0
M  END
> <s_m_source_file>
AV-unprocessed.smi

> <i_m_source_file_index>
1036

> <i_lp_mmshare_version>
43012

> <i_f3d_flags>
0

> <s_epik_input>
W09IXVtDSDJdW0NIMl1bTkhdYyhuMSluKGMoYzEyKVtjSF1bY0hdW2NIXVtjSF0yKVtDSDJdW0NASF0oW09IXSljM1tjSF1jKEYpW2NIXVtjSF1jM0Y=

> <s_epik_cmdline>
J2VwaWtfcHl0aG9uJywgJy1waCcsICc3LjAnLCAnLXRuJywgJzgnLCAnLW1hJywgJzIwMCcsICctbWV0YWxfYmluZGluZycsICctaW1hZScsICc8aW5maWxlLm1hZT4nLCAnLW9tYWUnLCAnPG91dGZpbGUubWFlPic=

> <r_epik_Ionization_Penalty>
1.30972

> <r_epik_Ionization_Penalty_Charging>
0

> <r_epik_Ionization_Penalty_Neutral>
1.30972

> <r_epik_State_Penalty>
1.38438

> <r_epik_Charging_Adjusted_Penalty>
1.38438

> <i_epik_Tot_Q>
0

> <i_epik_Tot_abs_Q>
0

> <r_epik_Metal_State_Penalty>
0.00551145

> <b_epik_Metal_Only>
0

> <s_lp_Force_Field>
OPLS_2005

> <r_lp_Energy>
9.11105

> <b_lp_Chiralities_Consistent>
1

> <s_lp_Variant>
AV-unprocessed.smi:1036-3

> <Gold.Version>
5.8.1

> <Gold.Id.Protein>
6NUR|6NUR_protein|mol2

> <Gold.PLP.Fitness>
50.6506

> <Gold.PLP.PLP>
-48.3367

> <Gold.PLP.part.hbond>
-1.1244

> <Gold.PLP.part.metal>
0.0000

> <Gold.PLP.part.buried>
2.4919

> <Gold.PLP.part.nonpolar>
-50.3147

> <Gold.PLP.part.repulsive>
0.3882

> <Gold.PLP.ligand.clash>
0.0000

> <Gold.PLP.ligand.torsion>
0.3802

> <Gold.PLP.Chemscore.Hbond>
1.0000

> <Gold.PLP.Chemscore.CHOScore>
0.0000

> <Gold.PLP.Chemscore.Metal>
0.0000

> <Gold.Chemscore.Hbonds>
donor molecule, donor type, donor heavy atom, donor atom, acceptor molecule, acceptor atom, score
      P1  H  7997  8008       L1     1  0.86

> <Gold.PLP.Chemscore.Internal.Correction>
0.0743

> <Gold.Rescore>
     Score         DG    S(hbond)    S(metal)    S(lipo)     H(rot)  DE(clash)    DE(int)     intcor
     11.10     -13.67       0.55        0.00     124.83       3.22       0.89       1.68       ----

> <Gold.Chemscore.Fitness>
11.0984

> <Gold.Chemscore.DG>
-13.6710

> <Gold.Chemscore.ZeroCoef>
-5.4800

> <Gold.Chemscore.Hbond>
0.5471

> <Gold.Chemscore.Metal>
0.0000

> <Gold.Chemscore.Lipo>
124.8313

> <Gold.Chemscore.Internal_Hbond>
0.0000

> <Gold.Chemscore.DEClash>
0.8934

> <Gold.Chemscore.DEInternal>
1.6792

> <Gold.Chemscore.Rot>
3.2194

> <Gold.Chemscore.Internal.Correction>
   9.000000E+99

> <Gold.Chemscore.Hbonds>
donor molecule, donor type, donor heavy atom, donor atom, acceptor molecule, acceptor atom, score
      P1  H  7997  8008       L1     1  0.20

> <Gold.Chemscore.Hbond.Weighted>
-1.8274

> <Gold.Chemscore.Metal.Weighted>
-0.0000

> <Gold.Chemscore.Lipo.Weighted>
-14.6053

> <Gold.Chemscore.Internal_Hbond.Weighted>
0.0000

> <Gold.Chemscore.DEClash.Weighted>
0.8934

> <Gold.Chemscore.DEInternal.Weighted>
1.6792

> <Gold.Chemscore.Rot.Weighted>
8.2416

> <Gold.Chemscore.Internal.Correction.Weighted>
   9.000000E+99

> <Gold.Protein.RotatedTorsions>
[ 6907 6896 6895 6894 ] final -145.64 input  -60.11 | X-H torsion
[ 7974 7965 7964 7962 ] final -135.79 input  175.53 | X-H torsion
[ 8008 7997 7996 7995 ] final  -83.55 input   59.86 | X-H torsion
[ 10167 10162 10161 10158 ] final  151.54 input  -65.29 | X-H torsion
[ 10718 10713 10712 10709 ] final -137.15 input   66.30 | X-H torsion
[ 10763 10752 10751 10750 ] final  -45.18 input  -60.55 | X-H torsion
[ 11005 11000 10999 10996 ] final -112.11 input  -57.11 | X-H torsion

> <Gold.Protein.ActiveResidues>
 VAL166  LYS551  ARG553  GLY616  TRP617  ASP618  TYR619  PRO620  LYS621  CYS622 
 ASP623  PHE694  ASN695  SER759  ASP760  ASP761  ALA762  ILE779  LEU786  VAL792 
 PHE793  MET794  SER795  GLU796  ALA797  LYS798  CYS799  TRP800  GLU811  SER814 

> <Gold.Protein.RotatedAtoms>
  151.1306  133.5039  159.2599 H   0  0  0  0  0  0  0  0  0  0  0  0  # atno 6907 bound_to 6896
  151.1761  135.0340  159.8782 H   0  0  0  0  0  0  0  0  0  0  0  0  # atno 6908 bound_to 6896
  152.5459  134.1164  159.8433 H   0  0  0  0  0  0  0  0  0  0  0  0  # atno 6909 bound_to 6896
  144.8983  140.6736  143.5101 H   0  0  0  0  0  0  0  0  0  0  0  0  # atno 7974 bound_to 7965
  154.6203  140.0617  156.9606 H   0  0  0  0  0  0  0  0  0  0  0  0  # atno 8008 bound_to 7997
  155.1828  140.3300  155.4353 H   0  0  0  0  0  0  0  0  0  0  0  0  # atno 8009 bound_to 7997
  156.2428  140.1894  156.6924 H   0  0  0  0  0  0  0  0  0  0  0  0  # atno 8010 bound_to 7997
  139.4840  144.5433  151.7528 H   0  0  0  0  0  0  0  0  0  0  0  0  # atno 10167 bound_to 10162
  156.2849  130.7342  151.1350 H   0  0  0  0  0  0  0  0  0  0  0  0  # atno 10718 bound_to 10713
  154.0243  135.6665  153.4775 H   0  0  0  0  0  0  0  0  0  0  0  0  # atno 10763 bound_to 10752
  153.0567  135.5052  154.7993 H   0  0  0  0  0  0  0  0  0  0  0  0  # atno 10764 bound_to 10752
  154.6918  135.3062  154.9434 H   0  0  0  0  0  0  0  0  0  0  0  0  # atno 10765 bound_to 10752
  141.0694  133.9404  157.2514 H   0  0  0  0  0  0  0  0  0  0  0  0  # atno 11005 bound_to 11000
  145.3662  139.1669  143.4357 LP  0  0  0  0  0  0  0  0  0  0  0  0  # atno 17320 bound_to 7965
  146.3094  140.3729  142.8676 LP  0  0  0  0  0  0  0  0  0  0  0  0  # atno 17321 bound_to 7965
  140.4975  144.1218  150.5963 LP  0  0  0  0  0  0  0  0  0  0  0  0  # atno 17342 bound_to 10162
  140.4100  143.2661  151.9844 LP  0  0  0  0  0  0  0  0  0  0  0  0  # atno 17343 bound_to 10162
  157.7325  131.0599  150.5622 LP  0  0  0  0  0  0  0  0  0  0  0  0  # atno 17370 bound_to 10713
  156.5732  130.4285  149.6010 LP  0  0  0  0  0  0  0  0  0  0  0  0  # atno 17371 bound_to 10713
  139.9508  135.0175  156.8989 LP  0  0  0  0  0  0  0  0  0  0  0  0  # atno 17394 bound_to 11000
  140.5705  134.0448  155.7429 LP  0  0  0  0  0  0  0  0  0  0  0  0  # atno 17395 bound_to 11000

$$$$
