AV-unprocessed.smi:157|AV-procd|sdf|1291|dock10
  -GOLD-   2262018573D 1   1.00000     0.00000
 Structure written by MMmdl.
 35 37  0  0  0  0  0  0  0  0  1 V2000
  149.1957  141.4014  153.2993 O   0  0  0  0  0  0  0  0  0  0  0  0
  148.6915  140.4443  154.2060 C   0  0  0  0  0  0  0  0  0  0  0  0
  149.8139  139.5015  154.6688 C   0  0  1  0  0  0  0  0  0  0  0  0
  151.0413  140.2202  154.8231 O   0  0  0  0  0  0  0  0  0  0  0  0
  151.6843  139.8561  156.0117 C   0  0  1  0  0  0  0  0  0  0  0  0
  151.5131  140.9655  157.0131 N   0  0  0  0  0  0  0  0  0  0  0  0
  150.6910  142.0212  156.9235 C   0  0  0  0  0  0  0  0  0  0  0  0
  150.7388  142.8478  157.9538 N   0  0  0  0  0  0  0  0  0  0  0  0
  151.7011  142.2866  158.7897 C   0  0  0  0  0  0  0  0  0  0  0  0
  152.2066  141.1283  158.2172 C   0  0  0  0  0  0  0  0  0  0  0  0
  153.1526  140.1806  158.5593 N   0  0  0  0  0  0  0  0  0  0  0  0
  154.0182  140.4842  159.4745 C   0  0  0  0  0  0  0  0  0  0  0  0
  154.1174  141.6130  160.2752 N   0  0  0  0  0  0  0  0  0  0  0  0
  152.9932  142.1802  160.9998 C   0  0  0  0  0  0  0  0  0  0  0  0
  152.0117  142.9447  160.1033 C   0  0  1  0  0  0  0  0  0  0  0  0
  152.5433  144.2210  159.8117 O   0  0  0  0  0  0  0  0  0  0  0  0
  150.9826  138.5905  156.5052 C   0  0  0  0  0  0  0  0  0  0  0  0
  149.5668  138.8219  156.0210 C   0  0  2  0  0  0  0  0  0  0  0  0
  148.8761  137.5967  155.8927 O   0  0  0  0  0  0  0  0  0  0  0  0
  150.0036  138.7462  153.9039 H   0  0  0  0  0  0  0  0  0  0  0  0
  152.7629  139.7590  155.8831 H   0  0  0  0  0  0  0  0  0  0  0  0
  151.0895  143.1070  160.6619 H   0  0  0  0  0  0  0  0  0  0  0  0
  149.0356  139.4854  156.7051 H   0  0  0  0  0  0  0  0  0  0  0  0
  149.6097  140.9470  152.5817 H   0  0  0  0  0  0  0  0  0  0  0  0
  148.2729  140.9742  155.0619 H   0  0  0  0  0  0  0  0  0  0  0  0
  147.8772  139.8941  153.7354 H   0  0  0  0  0  0  0  0  0  0  0  0
  150.0355  142.1954  156.0846 H   0  0  0  0  0  0  0  0  0  0  0  0
  154.8121  139.7688  159.6935 H   0  0  0  0  0  0  0  0  0  0  0  0
  154.9878  141.7865  160.7568 H   0  0  0  0  0  0  0  0  0  0  0  0
  152.4642  141.3536  161.4763 H   0  0  0  0  0  0  0  0  0  0  0  0
  153.3552  142.8161  161.8082 H   0  0  0  0  0  0  0  0  0  0  0  0
  151.8535  144.8587  159.9158 H   0  0  0  0  0  0  0  0  0  0  0  0
  151.4348  137.7322  156.0056 H   0  0  0  0  0  0  0  0  0  0  0  0
  151.0661  138.4558  157.5839 H   0  0  0  0  0  0  0  0  0  0  0  0
  147.9825  137.7289  156.1710 H   0  0  0  0  0  0  0  0  0  0  0  0
  1  2  1  0  0  0  0
  1 24  1  0  0  0  0
  2  3  1  0  0  0  0
  2 25  1  0  0  0  0
  2 26  1  0  0  0  0
  3 20  1  0  0  0  0
  3 18  1  0  0  0  0
  3  4  1  0  0  0  0
  4  5  1  0  0  0  0
  5 21  1  0  0  0  0
  5  6  1  0  0  0  0
  5 17  1  0  0  0  0
  6 10  1  0  0  0  0
  6  7  1  0  0  0  0
  7  8  2  0  0  0  0
  7 27  1  0  0  0  0
  8  9  1  0  0  0  0
  9 15  1  0  0  0  0
  9 10  2  0  0  0  0
 10 11  1  0  0  0  0
 11 12  2  0  0  0  0
 12 13  1  0  0  0  0
 12 28  1  0  0  0  0
 13 14  1  0  0  0  0
 13 29  1  0  0  0  0
 14 15  1  0  0  0  0
 14 30  1  0  0  0  0
 14 31  1  0  0  0  0
 15 22  1  0  0  0  0
 15 16  1  0  0  0  0
 16 32  1  0  0  0  0
 17 18  1  0  0  0  0
 17 33  1  0  0  0  0
 17 34  1  0  0  0  0
 18 23  1  0  0  0  0
 18 19  1  0  0  0  0
 19 35  1  0  0  0  0
M  END
> <s_m_source_file>
AV-unprocessed.smi

> <i_m_source_file_index>
157

> <i_lp_mmshare_version>
43012

> <i_f3d_flags>
0

> <s_epik_input>
W09IXVtDSDJdW0NASF0xT1tDQEhdKFtDSDJdW0NAQEhdMVtPSF0pbihbY0hdbjIpYyhjMjMpTj1bQ0hdW05IXVtDSDJdW0NASF0zW09IXQ==

> <s_epik_cmdline>
J2VwaWtfcHl0aG9uJywgJy1waCcsICc3LjAnLCAnLXRuJywgJzgnLCAnLW1hJywgJzIwMCcsICctbWV0YWxfYmluZGluZycsICctaW1hZScsICc8aW5maWxlLm1hZT4nLCAnLW9tYWUnLCAnPG91dGZpbGUubWFlPic=

> <r_lp_tautomer_probability>
1

> <r_epik_Ionization_Penalty>
0.0357149

> <r_epik_Ionization_Penalty_Charging>
0.0355056

> <r_epik_Ionization_Penalty_Neutral>
0.000209255

> <r_epik_State_Penalty>
0.0296046

> <r_epik_Charging_Adjusted_Penalty>
0.0651102

> <i_epik_Tot_Q>
0

> <i_epik_Tot_abs_Q>
0

> <r_epik_Metal_State_Penalty>
3.03559e-05

> <b_epik_Metal_Only>
0

> <s_epik_Chemistry_Notes>
This compound has an imine and may undergo hydrolysis. This compound contains an acetal/aminal-like group ( X-CH(R)-Y where X, Y are N, S, or O) that may be acid/base labile, releasing an aldehyde.

> <s_lp_Force_Field>
OPLS_2005

> <r_lp_Energy>
41.3094

> <b_lp_Chiralities_Consistent>
1

> <s_lp_Variant>
AV-unprocessed.smi:157-1

> <Gold.Version>
5.8.1

> <Gold.Id.Protein>
6NUR|6NUR_protein|mol2

> <Gold.PLP.Fitness>
39.9025

> <Gold.PLP.PLP>
-32.4804

> <Gold.PLP.part.hbond>
-4.7304

> <Gold.PLP.part.metal>
0.0000

> <Gold.PLP.part.buried>
-3.4210

> <Gold.PLP.part.nonpolar>
-23.1415

> <Gold.PLP.part.repulsive>
0.2319

> <Gold.PLP.ligand.clash>
0.0000

> <Gold.PLP.ligand.torsion>
0.6064

> <Gold.PLP.Chemscore.Hbond>
2.6173

> <Gold.PLP.Chemscore.CHOScore>
0.2541

> <Gold.PLP.Chemscore.Metal>
0.0000

> <Gold.Chemscore.Hbonds>
donor molecule, donor type, donor heavy atom, donor atom, acceptor molecule, acceptor atom, score
      L1  H     1    24       P1  7957  1.00
      P1  H  7989  7998       L1     4  1.00
      P1  H  7997  8008       L1    11  0.60
      L1  C     7    27       P1  8028  0.25

> <Gold.PLP.Chemscore.Internal.Correction>
0.0209

> <Gold.Rescore>
     Score         DG    S(hbond)    S(metal)    S(lipo)     H(rot)  DE(clash)    DE(int)     intcor
      8.21      -8.84       2.03        0.00      50.27       3.64       0.01       0.62       ----

> <Gold.Chemscore.Fitness>
8.2099

> <Gold.Chemscore.DG>
-8.8424

> <Gold.Chemscore.ZeroCoef>
-5.4800

> <Gold.Chemscore.Hbond>
2.0329

> <Gold.Chemscore.Metal>
0.0000

> <Gold.Chemscore.Lipo>
50.2674

> <Gold.Chemscore.Internal_Hbond>
0.0000

> <Gold.Chemscore.DEClash>
0.0098

> <Gold.Chemscore.DEInternal>
0.6227

> <Gold.Chemscore.Rot>
3.6362

> <Gold.Chemscore.Internal.Correction>
   9.000000E+99

> <Gold.Chemscore.Hbonds>
donor molecule, donor type, donor heavy atom, donor atom, acceptor molecule, acceptor atom, score
      L1  H     1    24       P1  7957  0.97
      P1  H  7989  7998       L1     4  0.90
      P1  H  7997  8008       L1    11  0.06

> <Gold.Chemscore.Hbond.Weighted>
-6.7899

> <Gold.Chemscore.Metal.Weighted>
-0.0000

> <Gold.Chemscore.Lipo.Weighted>
-5.8813

> <Gold.Chemscore.Internal_Hbond.Weighted>
0.0000

> <Gold.Chemscore.DEClash.Weighted>
0.0098

> <Gold.Chemscore.DEInternal.Weighted>
0.6227

> <Gold.Chemscore.Rot.Weighted>
9.3087

> <Gold.Chemscore.Internal.Correction.Weighted>
   9.000000E+99

> <Gold.Protein.RotatedTorsions>
[ 6907 6896 6895 6894 ] final   57.92 input  -60.11 | X-H torsion
[ 7974 7965 7964 7962 ] final   65.09 input  175.53 | X-H torsion
[ 8008 7997 7996 7995 ] final  -78.29 input   59.86 | X-H torsion
[ 10167 10162 10161 10158 ] final  148.04 input  -65.29 | X-H torsion
[ 10718 10713 10712 10709 ] final -142.46 input   66.30 | X-H torsion
[ 10763 10752 10751 10750 ] final   53.93 input  -60.55 | X-H torsion
[ 11005 11000 10999 10996 ] final -112.20 input  -57.11 | X-H torsion

> <Gold.Protein.ActiveResidues>
 VAL166  LYS551  ARG553  GLY616  TRP617  ASP618  TYR619  PRO620  LYS621  CYS622 
 ASP623  PHE694  ASN695  SER759  ASP760  ASP761  ALA762  ILE779  LEU786  VAL792 
 PHE793  MET794  SER795  GLU796  ALA797  LYS798  CYS799  TRP800  GLU811  SER814 

> <Gold.Protein.RotatedAtoms>
  152.3776  134.6640  160.0154 H   0  0  0  0  0  0  0  0  0  0  0  0  # atno 6907 bound_to 6896
  151.6913  133.3305  159.3251 H   0  0  0  0  0  0  0  0  0  0  0  0  # atno 6908 bound_to 6896
  150.7722  134.6632  159.6395 H   0  0  0  0  0  0  0  0  0  0  0  0  # atno 6909 bound_to 6896
  145.8426  139.3204  143.0922 H   0  0  0  0  0  0  0  0  0  0  0  0  # atno 7974 bound_to 7965
  154.5676  140.0696  156.8915 H   0  0  0  0  0  0  0  0  0  0  0  0  # atno 8008 bound_to 7997
  155.2695  140.3364  155.4248 H   0  0  0  0  0  0  0  0  0  0  0  0  # atno 8009 bound_to 7997
  156.2092  140.1752  156.7717 H   0  0  0  0  0  0  0  0  0  0  0  0  # atno 8010 bound_to 7997
  139.4881  144.5709  151.7056 H   0  0  0  0  0  0  0  0  0  0  0  0  # atno 10167 bound_to 10162
  156.3461  130.7663  151.1808 H   0  0  0  0  0  0  0  0  0  0  0  0  # atno 10718 bound_to 10713
  152.9799  135.5762  154.4822 H   0  0  0  0  0  0  0  0  0  0  0  0  # atno 10763 bound_to 10752
  154.4369  135.2775  155.1876 H   0  0  0  0  0  0  0  0  0  0  0  0  # atno 10764 bound_to 10752
  154.3560  135.6199  153.5720 H   0  0  0  0  0  0  0  0  0  0  0  0  # atno 10765 bound_to 10752
  141.0689  133.9413  157.2524 H   0  0  0  0  0  0  0  0  0  0  0  0  # atno 11005 bound_to 11000
  145.9448  140.8953  143.0289 LP  0  0  0  0  0  0  0  0  0  0  0  0  # atno 17320 bound_to 7965
  144.6733  140.1599  143.7423 LP  0  0  0  0  0  0  0  0  0  0  0  0  # atno 17321 bound_to 7965
  140.5297  144.0750  150.6049 LP  0  0  0  0  0  0  0  0  0  0  0  0  # atno 17342 bound_to 10162
  140.3736  143.2841  152.0250 LP  0  0  0  0  0  0  0  0  0  0  0  0  # atno 17343 bound_to 10162
  157.7454  131.0441  150.4775 LP  0  0  0  0  0  0  0  0  0  0  0  0  # atno 17370 bound_to 10713
  156.4962  130.4106  149.6378 LP  0  0  0  0  0  0  0  0  0  0  0  0  # atno 17371 bound_to 10713
  139.9503  135.0176  156.8975 LP  0  0  0  0  0  0  0  0  0  0  0  0  # atno 17394 bound_to 11000
  140.5715  134.0438  155.7432 LP  0  0  0  0  0  0  0  0  0  0  0  0  # atno 17395 bound_to 11000

$$$$
