AV-unprocessed.smi:199|AV-procd|sdf|1564|dock2
  -GOLD-   2262019433D 1   1.00000     0.00000
 Structure written by MMmdl.
 51 55  0  0  0  0  0  0  0  0  1 V2000
  145.6186  135.3984  151.9946 C   0  0  0  0  0  0  0  0  0  0  0  0
  146.3777  134.2190  151.3666 C   0  0  2  0  0  0  0  0  0  0  0  0
  145.4762  133.5360  150.4993 O   0  0  0  0  0  0  0  0  0  0  0  0
  145.8317  132.1654  150.4577 C   0  0  0  0  0  0  0  0  0  0  0  0
  146.1840  131.8765  151.9088 C   0  0  0  0  0  0  0  0  0  0  0  0
  146.9270  133.1381  152.3409 C   0  0  1  0  0  0  0  0  0  0  0  0
  148.3019  132.9541  152.0444 O   0  0  0  0  0  0  0  0  0  0  0  0
  146.8005  133.4446  153.8569 C   0  0  0  0  0  0  0  0  0  0  0  0
  147.5902  134.5905  154.2836 N   0  0  0  0  0  0  0  0  0  0  0  0
  147.1188  135.8469  154.5867 C   0  0  0  0  0  0  0  0  0  0  0  0
  148.0292  136.7113  154.9400 N   0  0  0  0  0  0  0  0  0  0  0  0
  149.2216  135.9980  154.8925 C   0  0  0  0  0  0  0  0  0  0  0  0
  150.5878  136.3158  155.1496 C   0  0  0  0  0  0  0  0  0  0  0  0
  151.0260  137.5436  155.5436 N   0  0  0  0  0  0  0  0  0  0  0  0
  151.8486  138.3612  154.6635 C   0  0  2  0  0  0  0  0  0  0  0  0
  152.2690  139.5163  155.5885 C   0  0  0  0  0  0  0  0  0  0  0  0
  151.0151  139.6745  156.4612 C   0  0  0  0  0  0  0  0  0  0  0  0
  150.0831  138.6127  155.8471 C   0  0  1  0  0  0  0  0  0  0  0  0
  149.5713  139.0457  154.4482 C   0  0  1  0  0  0  0  0  0  0  0  0
  148.8824  140.4206  154.3688 C   0  0  0  0  0  0  0  0  0  0  0  0
  149.0950  140.9935  153.0962 O   0  0  0  0  0  0  0  0  0  0  0  0
  150.8572  138.9011  153.6122 C   0  0  0  0  0  0  0  0  0  0  0  0
  151.5013  135.3274  154.9537 N   0  0  0  0  0  0  0  0  0  0  0  0
  151.1134  134.1089  154.5687 C   0  0  0  0  0  0  0  0  0  0  0  0
  149.8813  133.6693  154.3115 N   0  0  0  0  0  0  0  0  0  0  0  0
  148.9590  134.6593  154.4793 C   0  0  0  0  0  0  0  0  0  0  0  0
  146.2570  135.9724  152.6661 H   0  0  0  0  0  0  0  0  0  0  0  0
  144.7466  135.0613  152.5553 H   0  0  0  0  0  0  0  0  0  0  0  0
  145.2638  136.0805  151.2217 H   0  0  0  0  0  0  0  0  0  0  0  0
  147.1848  134.6203  150.7506 H   0  0  0  0  0  0  0  0  0  0  0  0
  145.0122  131.5477  150.0900 H   0  0  0  0  0  0  0  0  0  0  0  0
  146.6946  132.0244  149.8050 H   0  0  0  0  0  0  0  0  0  0  0  0
  145.2581  131.7739  152.4755 H   0  0  0  0  0  0  0  0  0  0  0  0
  146.7575  130.9575  152.0393 H   0  0  0  0  0  0  0  0  0  0  0  0
  148.3876  132.2074  151.4716 H   0  0  0  0  0  0  0  0  0  0  0  0
  145.7594  133.6341  154.1211 H   0  0  0  0  0  0  0  0  0  0  0  0
  147.1177  132.5858  154.4488 H   0  0  0  0  0  0  0  0  0  0  0  0
  146.0718  136.1067  154.5296 H   0  0  0  0  0  0  0  0  0  0  0  0
  152.7120  137.8665  154.2229 H   0  0  0  0  0  0  0  0  0  0  0  0
  153.1279  139.2359  156.1997 H   0  0  0  0  0  0  0  0  0  0  0  0
  152.5239  140.4243  155.0408 H   0  0  0  0  0  0  0  0  0  0  0  0
  151.2447  139.4226  157.4974 H   0  0  0  0  0  0  0  0  0  0  0  0
  150.6066  140.6839  156.4543 H   0  0  0  0  0  0  0  0  0  0  0  0
  149.2803  138.3277  156.5281 H   0  0  0  0  0  0  0  0  0  0  0  0
  148.8524  138.2973  154.1099 H   0  0  0  0  0  0  0  0  0  0  0  0
  147.8090  140.3153  154.5269 H   0  0  0  0  0  0  0  0  0  0  0  0
  149.2611  141.1071  155.1259 H   0  0  0  0  0  0  0  0  0  0  0  0
  149.1700  140.2975  152.4615 H   0  0  0  0  0  0  0  0  0  0  0  0
  151.1936  139.8382  153.1668 H   0  0  0  0  0  0  0  0  0  0  0  0
  150.7095  138.1816  152.8059 H   0  0  0  0  0  0  0  0  0  0  0  0
  151.9041  133.3829  154.4487 H   0  0  0  0  0  0  0  0  0  0  0  0
  1  2  1  0  0  0  0
  1 27  1  0  0  0  0
  1 28  1  0  0  0  0
  1 29  1  0  0  0  0
  2  6  1  0  0  0  0
  2  3  1  0  0  0  0
  2 30  1  0  0  0  0
  3  4  1  0  0  0  0
  4  5  1  0  0  0  0
  4 31  1  0  0  0  0
  4 32  1  0  0  0  0
  5  6  1  0  0  0  0
  5 33  1  0  0  0  0
  5 34  1  0  0  0  0
  6  7  1  0  0  0  0
  6  8  1  0  0  0  0
  7 35  1  0  0  0  0
  8  9  1  0  0  0  0
  8 36  1  0  0  0  0
  8 37  1  0  0  0  0
  9 26  1  0  0  0  0
  9 10  1  0  0  0  0
 10 11  2  0  0  0  0
 10 38  1  0  0  0  0
 11 12  1  0  0  0  0
 12 26  2  0  0  0  0
 12 13  1  0  0  0  0
 13 14  1  0  0  0  0
 13 23  2  0  0  0  0
 14 18  1  0  0  0  0
 14 15  1  0  0  0  0
 15 22  1  0  0  0  0
 15 16  1  0  0  0  0
 15 39  1  0  0  0  0
 16 17  1  0  0  0  0
 16 40  1  0  0  0  0
 16 41  1  0  0  0  0
 17 18  1  0  0  0  0
 17 42  1  0  0  0  0
 17 43  1  0  0  0  0
 18 19  1  0  0  0  0
 18 44  1  0  0  0  0
 19 20  1  0  0  0  0
 19 22  1  0  0  0  0
 19 45  1  0  0  0  0
 20 21  1  0  0  0  0
 20 46  1  0  0  0  0
 20 47  1  0  0  0  0
 21 48  1  0  0  0  0
 22 49  1  0  0  0  0
 22 50  1  0  0  0  0
 23 24  1  0  0  0  0
 24 25  2  0  0  0  0
 24 51  1  0  0  0  0
 25 26  1  0  0  0  0
M  END
> <s_m_source_file>
AV-unprocessed.smi

> <i_m_source_file_index>
199

> <i_lp_mmshare_version>
43012

> <i_f3d_flags>
0

> <s_epik_input>
W0NIMl0xW0NIMl1PW0NAQEhdKFtDSDNdKVtDQEBdMShbT0hdKVtDSDJdbihbY0hdbjIpYyhjMjMpbltjSF1uYzNOKFtDQEBIXTQ1KVtDQEhdKFtDSDJdW0NIMl00KVtDQEhdKFtDSDJdNSlbQ0gyXVtPSF0=

> <s_epik_cmdline>
J2VwaWtfcHl0aG9uJywgJy1waCcsICc3LjAnLCAnLXRuJywgJzgnLCAnLW1hJywgJzIwMCcsICctbWV0YWxfYmluZGluZycsICctaW1hZScsICc8aW5maWxlLm1hZT4nLCAnLW9tYWUnLCAnPG91dGZpbGUubWFlPic=

> <r_lp_tautomer_probability>
1

> <r_epik_Ionization_Penalty>
0.00583903

> <r_epik_Ionization_Penalty_Charging>
0

> <r_epik_Ionization_Penalty_Neutral>
0.00583903

> <r_epik_State_Penalty>
-0

> <r_epik_Charging_Adjusted_Penalty>
0

> <i_epik_Tot_Q>
0

> <i_epik_Tot_abs_Q>
0

> <r_epik_Metal_State_Penalty>
-0

> <b_epik_Metal_Only>
0

> <s_lp_Force_Field>
OPLS_2005

> <r_lp_Energy>
84.0593

> <b_lp_Chiralities_Consistent>
1

> <s_lp_Variant>
AV-unprocessed.smi:199-5

> <Gold.Version>
5.8.1

> <Gold.Id.Protein>
6NUR|6NUR_protein|mol2

> <Gold.PLP.Fitness>
43.0574

> <Gold.PLP.PLP>
-33.4199

> <Gold.PLP.part.hbond>
-4.2016

> <Gold.PLP.part.metal>
0.0000

> <Gold.PLP.part.buried>
-7.1156

> <Gold.PLP.part.nonpolar>
-22.5933

> <Gold.PLP.part.repulsive>
0.9691

> <Gold.PLP.ligand.clash>
0.0000

> <Gold.PLP.ligand.torsion>
0.6489

> <Gold.PLP.Chemscore.Hbond>
3.6206

> <Gold.PLP.Chemscore.CHOScore>
0.0000

> <Gold.PLP.Chemscore.Metal>
0.0000

> <Gold.Chemscore.Hbonds>
donor molecule, donor type, donor heavy atom, donor atom, acceptor molecule, acceptor atom, score
      L1  H     7    35       P1 10747  1.00
      L1  H    21    48       P1  7957  0.55
      P1  H  8011  8017       L1    21  1.00
      P1  H 10752 10763       L1    23  0.84

> <Gold.PLP.Chemscore.Internal.Correction>
0.0735

> <Gold.Rescore>
     Score         DG    S(hbond)    S(metal)    S(lipo)     H(rot)  DE(clash)    DE(int)     intcor
      9.50     -13.26       2.10        0.00      73.92       3.07       0.16       3.60       ----

> <Gold.Chemscore.Fitness>
9.5035

> <Gold.Chemscore.DG>
-13.2599

> <Gold.Chemscore.ZeroCoef>
-5.4800

> <Gold.Chemscore.Hbond>
2.0954

> <Gold.Chemscore.Metal>
0.0000

> <Gold.Chemscore.Lipo>
73.9155

> <Gold.Chemscore.Internal_Hbond>
0.0000

> <Gold.Chemscore.DEClash>
0.1596

> <Gold.Chemscore.DEInternal>
3.5969

> <Gold.Chemscore.Rot>
3.0729

> <Gold.Chemscore.Internal.Correction>
   9.000000E+99

> <Gold.Chemscore.Hbonds>
donor molecule, donor type, donor heavy atom, donor atom, acceptor molecule, acceptor atom, score
      L1  H     7    35       P1 10747  1.00
      L1  H    21    48       P1  7957  0.54
      P1  H  8011  8017       L1    21  0.50
      P1  H 10752 10763       L1    23  0.61

> <Gold.Chemscore.Hbond.Weighted>
-6.9985

> <Gold.Chemscore.Metal.Weighted>
-0.0000

> <Gold.Chemscore.Lipo.Weighted>
-8.6481

> <Gold.Chemscore.Internal_Hbond.Weighted>
0.0000

> <Gold.Chemscore.DEClash.Weighted>
0.1596

> <Gold.Chemscore.DEInternal.Weighted>
3.5969

> <Gold.Chemscore.Rot.Weighted>
7.8667

> <Gold.Chemscore.Internal.Correction.Weighted>
   9.000000E+99

> <Gold.Protein.RotatedTorsions>
[ 6907 6896 6895 6894 ] final -176.98 input  -60.11 | X-H torsion
[ 7974 7965 7964 7962 ] final -133.05 input  175.53 | X-H torsion
[ 8008 7997 7996 7995 ] final  -33.49 input   59.86 | X-H torsion
[ 10167 10162 10161 10158 ] final  -59.95 input  -65.29 | X-H torsion
[ 10718 10713 10712 10709 ] final  121.13 input   66.30 | X-H torsion
[ 10763 10752 10751 10750 ] final   75.65 input  -60.55 | X-H torsion
[ 11005 11000 10999 10996 ] final   54.58 input  -57.11 | X-H torsion

> <Gold.Protein.ActiveResidues>
 VAL166  LYS551  ARG553  GLY616  TRP617  ASP618  TYR619  PRO620  LYS621  CYS622 
 ASP623  PHE694  ASN695  SER759  ASP760  ASP761  ALA762  ILE779  LEU786  VAL792 
 PHE793  MET794  SER795  GLU796  ALA797  LYS798  CYS799  TRP800  GLU811  SER814 

> <Gold.Protein.RotatedAtoms>
  151.6135  133.3345  159.3072 H   0  0  0  0  0  0  0  0  0  0  0  0  # atno 6907 bound_to 6896
  150.8144  134.7320  159.6728 H   0  0  0  0  0  0  0  0  0  0  0  0  # atno 6908 bound_to 6896
  152.4240  134.5908  160.0025 H   0  0  0  0  0  0  0  0  0  0  0  0  # atno 6909 bound_to 6896
  144.9229  140.7036  143.4954 H   0  0  0  0  0  0  0  0  0  0  0  0  # atno 7974 bound_to 7965
  154.4147  140.1709  156.1896 H   0  0  0  0  0  0  0  0  0  0  0  0  # atno 8008 bound_to 7997
  155.9614  140.3393  155.6471 H   0  0  0  0  0  0  0  0  0  0  0  0  # atno 8009 bound_to 7997
  155.6743  140.0715  157.2499 H   0  0  0  0  0  0  0  0  0  0  0  0  # atno 8010 bound_to 7997
  140.6102  143.2385  151.5727 H   0  0  0  0  0  0  0  0  0  0  0  0  # atno 10167 bound_to 10162
  157.5840  131.1072  150.8130 H   0  0  0  0  0  0  0  0  0  0  0  0  # atno 10718 bound_to 10713
  153.0669  135.4981  154.8220 H   0  0  0  0  0  0  0  0  0  0  0  0  # atno 10763 bound_to 10752
  154.6967  135.2994  154.9404 H   0  0  0  0  0  0  0  0  0  0  0  0  # atno 10764 bound_to 10752
  154.0141  135.6750  153.4820 H   0  0  0  0  0  0  0  0  0  0  0  0  # atno 10765 bound_to 10752
  140.0675  134.5516  155.9083 H   0  0  0  0  0  0  0  0  0  0  0  0  # atno 11005 bound_to 11000
  145.3267  139.1772  143.4559 LP  0  0  0  0  0  0  0  0  0  0  0  0  # atno 17320 bound_to 7965
  146.3213  140.3291  142.8639 LP  0  0  0  0  0  0  0  0  0  0  0  0  # atno 17321 bound_to 7965
  139.5355  144.2792  152.1243 LP  0  0  0  0  0  0  0  0  0  0  0  0  # atno 17342 bound_to 10162
  140.1990  144.4677  150.6441 LP  0  0  0  0  0  0  0  0  0  0  0  0  # atno 17343 bound_to 10162
  156.8569  130.5100  149.5307 LP  0  0  0  0  0  0  0  0  0  0  0  0  # atno 17370 bound_to 10713
  156.0888  130.5879  150.9696 LP  0  0  0  0  0  0  0  0  0  0  0  0  # atno 17371 bound_to 10713
  141.1998  133.6609  156.5866 LP  0  0  0  0  0  0  0  0  0  0  0  0  # atno 17394 bound_to 11000
  140.3677  134.7633  157.4577 LP  0  0  0  0  0  0  0  0  0  0  0  0  # atno 17395 bound_to 11000

$$$$
