AV-unprocessed.smi:1436|AV-procd|sdf|5860|dock3
  -GOLD-   22720 5533D 1   1.00000     0.00000
 Structure written by MMmdl.
 43 44  0  0  0  0  0  0  0  0  1 V2000
  144.2158  134.2389  154.0627 C   0  0  0  0  0  0  0  0  0  0  0  0
  143.0791  135.2171  153.9897 C   0  0  0  0  0  0  0  0  0  0  0  0
  141.9345  134.9324  154.5875 N   0  0  0  0  0  0  0  0  0  0  0  0
  141.0884  136.0150  154.3296 O   0  0  0  0  0  0  0  0  0  0  0  0
  141.7649  136.9187  153.5759 C   0  0  0  0  0  0  0  0  0  0  0  0
  141.0268  138.1539  153.1847 C   0  0  0  0  0  0  0  0  0  0  0  0
  143.0347  136.4770  153.3255 C   0  0  0  0  0  0  0  0  0  0  0  0
  144.1260  137.1547  152.5343 C   0  0  0  0  0  0  0  0  0  0  0  0
  145.3135  137.5071  153.4353 C   0  0  0  0  0  0  0  0  0  0  0  0
  146.0028  136.6183  153.9372 O   0  0  0  0  0  0  0  0  0  0  0  0
  145.5372  138.8151  153.6354 N   0  0  0  0  0  0  0  0  0  0  0  0
  146.5848  139.3798  154.4832 C   0  0  1  0  0  0  0  0  0  0  0  0
  146.5705  138.7220  155.8722 C   0  0  0  0  0  0  0  0  0  0  0  0
  147.9693  139.3479  153.7905 C   0  0  0  0  0  0  0  0  0  0  0  0
  149.1480  139.4308  154.6589 N   0  0  0  0  0  0  0  0  0  0  0  0
  149.4747  140.8218  154.9564 C   0  0  0  0  0  0  0  0  0  0  0  0
  150.7033  140.9437  155.8741 C   0  0  0  0  0  0  0  0  0  0  0  0
  151.8130  140.2864  155.2719 O   0  0  0  0  0  0  0  0  0  0  0  0
  151.5557  138.9116  155.0079 C   0  0  0  0  0  0  0  0  0  0  0  0
  150.3275  138.7816  154.0906 C   0  0  0  0  0  0  0  0  0  0  0  0
  144.2817  133.6554  153.1444 H   0  0  0  0  0  0  0  0  0  0  0  0
  144.0955  133.5414  154.8922 H   0  0  0  0  0  0  0  0  0  0  0  0
  145.1671  134.7533  154.1999 H   0  0  0  0  0  0  0  0  0  0  0  0
  141.0309  138.2772  152.1015 H   0  0  0  0  0  0  0  0  0  0  0  0
  141.4900  139.0357  153.6273 H   0  0  0  0  0  0  0  0  0  0  0  0
  139.9887  138.1148  153.5155 H   0  0  0  0  0  0  0  0  0  0  0  0
  144.4903  136.5143  151.7307 H   0  0  0  0  0  0  0  0  0  0  0  0
  143.7484  138.0582  152.0538 H   0  0  0  0  0  0  0  0  0  0  0  0
  144.9222  139.4730  153.1790 H   0  0  0  0  0  0  0  0  0  0  0  0
  146.3366  140.4309  154.6412 H   0  0  0  0  0  0  0  0  0  0  0  0
  147.3324  139.1590  156.5181 H   0  0  0  0  0  0  0  0  0  0  0  0
  146.7582  137.6495  155.8145 H   0  0  0  0  0  0  0  0  0  0  0  0
  145.6058  138.8614  156.3607 H   0  0  0  0  0  0  0  0  0  0  0  0
  148.0444  138.4733  153.1422 H   0  0  0  0  0  0  0  0  0  0  0  0
  147.9923  140.2049  153.1160 H   0  0  0  0  0  0  0  0  0  0  0  0
  149.6642  141.3637  154.0285 H   0  0  0  0  0  0  0  0  0  0  0  0
  148.6229  141.3086  155.4330 H   0  0  0  0  0  0  0  0  0  0  0  0
  150.9542  141.9922  156.0358 H   0  0  0  0  0  0  0  0  0  0  0  0
  150.4999  140.5073  156.8534 H   0  0  0  0  0  0  0  0  0  0  0  0
  152.4319  138.4697  154.5332 H   0  0  0  0  0  0  0  0  0  0  0  0
  151.3949  138.3776  155.9457 H   0  0  0  0  0  0  0  0  0  0  0  0
  150.1357  137.7230  153.9244 H   0  0  0  0  0  0  0  0  0  0  0  0
  150.5568  139.2185  153.1186 H   0  0  0  0  0  0  0  0  0  0  0  0
  1  2  1  0  0  0  0
  1 21  1  0  0  0  0
  1 22  1  0  0  0  0
  1 23  1  0  0  0  0
  2  7  1  0  0  0  0
  2  3  2  0  0  0  0
  3  4  1  0  0  0  0
  4  5  1  0  0  0  0
  5  6  1  0  0  0  0
  5  7  2  0  0  0  0
  6 24  1  0  0  0  0
  6 25  1  0  0  0  0
  6 26  1  0  0  0  0
  7  8  1  0  0  0  0
  8  9  1  0  0  0  0
  8 27  1  0  0  0  0
  8 28  1  0  0  0  0
  9 10  2  0  0  0  0
  9 11  1  0  0  0  0
 11 12  1  0  0  0  0
 11 29  1  0  0  0  0
 12 13  1  0  0  0  0
 12 14  1  0  0  0  0
 12 30  1  0  0  0  0
 13 31  1  0  0  0  0
 13 32  1  0  0  0  0
 13 33  1  0  0  0  0
 14 15  1  0  0  0  0
 14 34  1  0  0  0  0
 14 35  1  0  0  0  0
 15 20  1  0  0  0  0
 15 16  1  0  0  0  0
 16 17  1  0  0  0  0
 16 36  1  0  0  0  0
 16 37  1  0  0  0  0
 17 18  1  0  0  0  0
 17 38  1  0  0  0  0
 17 39  1  0  0  0  0
 18 19  1  0  0  0  0
 19 20  1  0  0  0  0
 19 40  1  0  0  0  0
 19 41  1  0  0  0  0
 20 42  1  0  0  0  0
 20 43  1  0  0  0  0
M  END
> <s_m_source_file>
AV-unprocessed.smi

> <i_m_source_file_index>
1436

> <i_lp_mmshare_version>
43012

> <i_f3d_flags>
0

> <s_epik_input>
W0NIM11jMW5vYyhbQ0gzXSljMVtDSDJdQyg9TylbTkhdW0NASF0oW0NIM10pW0NIMl1OMltDSDJdW0NIMl1PW0NIMl1bQ0gyXTI=

> <s_epik_cmdline>
J2VwaWtfcHl0aG9uJywgJy1waCcsICc3LjAnLCAnLXRuJywgJzgnLCAnLW1hJywgJzIwMCcsICctbWV0YWxfYmluZGluZycsICctaW1hZScsICc8aW5maWxlLm1hZT4nLCAnLW9tYWUnLCAnPG91dGZpbGUubWFlPic=

> <r_epik_Ionization_Penalty>
0.234179

> <r_epik_Ionization_Penalty_Charging>
0

> <r_epik_Ionization_Penalty_Neutral>
0.234179

> <r_epik_State_Penalty>
0.224936

> <r_epik_Charging_Adjusted_Penalty>
0.224936

> <i_epik_Tot_Q>
0

> <i_epik_Tot_abs_Q>
0

> <r_epik_Metal_State_Penalty>
0.224936

> <b_epik_Metal_Only>
0

> <s_lp_Force_Field>
OPLS_2005

> <r_lp_Energy>
22.5578

> <b_lp_Chiralities_Consistent>
1

> <s_lp_Variant>
AV-unprocessed.smi:1436-2

> <Gold.Version>
5.8.1

> <Gold.Id.Protein>
6NUR|6NUR_protein|mol2

> <Gold.PLP.Fitness>
33.4729

> <Gold.PLP.PLP>
-27.7483

> <Gold.PLP.part.hbond>
-3.7281

> <Gold.PLP.part.metal>
0.0000

> <Gold.PLP.part.buried>
-1.6583

> <Gold.PLP.part.nonpolar>
-22.8981

> <Gold.PLP.part.repulsive>
0.3659

> <Gold.PLP.ligand.clash>
0.0000

> <Gold.PLP.ligand.torsion>
0.8080

> <Gold.PLP.Chemscore.Hbond>
2.3984

> <Gold.PLP.Chemscore.CHOScore>
0.0000

> <Gold.PLP.Chemscore.Metal>
0.0000

> <Gold.Chemscore.Hbonds>
donor molecule, donor type, donor heavy atom, donor atom, acceptor molecule, acceptor atom, score
      L1  H    11    29       P1 10175  1.00
      P1  H  7989  7998       L1    18  0.69
      P1  H 11000 11005       L1     3  0.46

> <Gold.PLP.Chemscore.Internal.Correction>
0.1455

> <Gold.Rescore>
     Score         DG    S(hbond)    S(metal)    S(lipo)     H(rot)  DE(clash)    DE(int)     intcor
      9.82     -13.02       1.35        0.00      63.42       1.71       1.11       2.09       ----

> <Gold.Chemscore.Fitness>
9.8166

> <Gold.Chemscore.DG>
-13.0173

> <Gold.Chemscore.ZeroCoef>
-5.4800

> <Gold.Chemscore.Hbond>
1.3493

> <Gold.Chemscore.Metal>
0.0000

> <Gold.Chemscore.Lipo>
63.4163

> <Gold.Chemscore.Internal_Hbond>
0.0000

> <Gold.Chemscore.DEClash>
1.1085

> <Gold.Chemscore.DEInternal>
2.0922

> <Gold.Chemscore.Rot>
1.7145

> <Gold.Chemscore.Internal.Correction>
   9.000000E+99

> <Gold.Chemscore.Hbonds>
donor molecule, donor type, donor heavy atom, donor atom, acceptor molecule, acceptor atom, score
      L1  H    11    29       P1 10175  1.00
      P1  H  7989  7998       L1    18  0.04
      P1  H 11000 11005       L1     3  0.04

> <Gold.Chemscore.Hbond.Weighted>
-4.5066

> <Gold.Chemscore.Metal.Weighted>
-0.0000

> <Gold.Chemscore.Lipo.Weighted>
-7.4197

> <Gold.Chemscore.Internal_Hbond.Weighted>
0.0000

> <Gold.Chemscore.DEClash.Weighted>
1.1085

> <Gold.Chemscore.DEInternal.Weighted>
2.0922

> <Gold.Chemscore.Rot.Weighted>
4.3891

> <Gold.Chemscore.Internal.Correction.Weighted>
   9.000000E+99

> <Gold.Protein.RotatedTorsions>
[ 6907 6896 6895 6894 ] final -178.96 input  -60.11 | X-H torsion
[ 7974 7965 7964 7962 ] final  142.37 input  175.53 | X-H torsion
[ 8008 7997 7996 7995 ] final -129.95 input   59.86 | X-H torsion
[ 10167 10162 10161 10158 ] final  -72.27 input  -65.29 | X-H torsion
[ 10718 10713 10712 10709 ] final -125.44 input   66.30 | X-H torsion
[ 10763 10752 10751 10750 ] final  -19.75 input  -60.55 | X-H torsion
[ 11005 11000 10999 10996 ] final    4.85 input  -57.11 | X-H torsion

> <Gold.Protein.ActiveResidues>
 VAL166  LYS551  ARG553  GLY616  TRP617  ASP618  TYR619  PRO620  LYS621  CYS622 
 ASP623  PHE694  ASN695  SER759  ASP760  ASP761  ALA762  ILE779  LEU786  VAL792 
 PHE793  MET794  SER795  GLU796  ALA797  LYS798  CYS799  TRP800  GLU811  SER814 

> <Gold.Protein.RotatedAtoms>
  151.6457  133.3323  159.3140 H   0  0  0  0  0  0  0  0  0  0  0  0  # atno 6907 bound_to 6896
  150.7985  134.7066  159.6590 H   0  0  0  0  0  0  0  0  0  0  0  0  # atno 6908 bound_to 6896
  152.4075  134.6186  160.0096 H   0  0  0  0  0  0  0  0  0  0  0  0  # atno 6909 bound_to 6896
  144.9014  139.5418  143.5752 H   0  0  0  0  0  0  0  0  0  0  0  0  # atno 7974 bound_to 7965
  155.2877  140.0447  157.3020 H   0  0  0  0  0  0  0  0  0  0  0  0  # atno 8008 bound_to 7997
  154.5559  140.2331  155.8378 H   0  0  0  0  0  0  0  0  0  0  0  0  # atno 8009 bound_to 7997
  156.2007  140.3026  155.9527 H   0  0  0  0  0  0  0  0  0  0  0  0  # atno 8010 bound_to 7997
  140.5206  143.2332  151.7436 H   0  0  0  0  0  0  0  0  0  0  0  0  # atno 10167 bound_to 10162
  156.1676  130.6645  151.0136 H   0  0  0  0  0  0  0  0  0  0  0  0  # atno 10718 bound_to 10713
  153.6097  135.6996  153.5351 H   0  0  0  0  0  0  0  0  0  0  0  0  # atno 10763 bound_to 10752
  153.3027  135.4124  155.1266 H   0  0  0  0  0  0  0  0  0  0  0  0  # atno 10764 bound_to 10752
  154.8566  135.3652  154.5635 H   0  0  0  0  0  0  0  0  0  0  0  0  # atno 10765 bound_to 10752
  140.5773  134.0046  155.8033 H   0  0  0  0  0  0  0  0  0  0  0  0  # atno 11005 bound_to 11000
  146.3110  139.7746  142.9020 LP  0  0  0  0  0  0  0  0  0  0  0  0  # atno 17320 bound_to 7965
  145.3611  141.0326  143.3284 LP  0  0  0  0  0  0  0  0  0  0  0  0  # atno 17321 bound_to 7965
  139.4922  144.4260  151.9925 LP  0  0  0  0  0  0  0  0  0  0  0  0  # atno 17342 bound_to 10162
  140.3357  144.3264  150.5978 LP  0  0  0  0  0  0  0  0  0  0  0  0  # atno 17343 bound_to 10162
  157.6779  131.0845  150.7446 LP  0  0  0  0  0  0  0  0  0  0  0  0  # atno 17370 bound_to 10713
  156.7507  130.4767  149.5457 LP  0  0  0  0  0  0  0  0  0  0  0  0  # atno 17371 bound_to 10713
  141.1019  133.9755  157.3065 LP  0  0  0  0  0  0  0  0  0  0  0  0  # atno 17394 bound_to 11000
  139.9334  135.0198  156.8475 LP  0  0  0  0  0  0  0  0  0  0  0  0  # atno 17395 bound_to 11000

$$$$
