AV-unprocessed.smi:218|AV-procd|sdf|1666|dock2
  -GOLD-   2262020 73D 1   1.00000     0.00000
 Structure written by MMmdl.
 54 57  0  0  0  0  0  0  0  0  1 V2000
  152.4232  144.0263  159.0136 C   0  0  0  0  0  0  0  0  0  0  0  0
  152.2839  142.8770  160.0188 C   0  0  0  0  0  0  0  0  0  0  0  0
  153.5845  142.0609  160.1144 C   0  0  0  0  0  0  0  0  0  0  0  0
  151.2116  142.0511  159.5599 O   0  0  0  0  0  0  0  0  0  0  0  0
  151.2762  141.4566  158.3141 C   0  0  0  0  0  0  0  0  0  0  0  0
  150.3192  141.8268  157.3470 C   0  0  0  0  0  0  0  0  0  0  0  0
  150.3617  141.2171  156.0759 C   0  0  0  0  0  0  0  0  0  0  0  0
  149.3400  141.5669  155.0079 C   0  0  0  0  0  0  0  0  0  0  0  0
  148.0311  141.9667  155.5136 N   0  0  0  0  0  0  0  0  0  0  0  0
  146.9745  141.1269  155.4451 C   0  0  0  0  0  0  0  0  0  0  0  0
  145.7884  141.4393  156.0297 N   0  0  0  0  0  0  0  0  0  0  0  0
  144.7544  140.5986  155.9341 C   0  0  0  0  0  0  0  0  0  0  0  0
  144.6911  139.4228  155.3062 N   0  0  0  0  0  0  0  0  0  0  0  0
  145.8784  139.1042  154.7145 C   0  0  0  0  0  0  0  0  0  0  0  0
  147.0595  139.8976  154.7410 C   0  0  0  0  0  0  0  0  0  0  0  0
  148.0701  139.2608  154.0326 N   0  0  0  0  0  0  0  0  0  0  0  0
  147.5123  138.1588  153.6081 C   0  0  0  0  0  0  0  0  0  0  0  0
  146.1952  137.9846  153.9712 N   0  0  0  0  0  0  0  0  0  0  0  0
  145.3018  136.8363  153.6307 C   0  0  2  0  0  0  0  0  0  0  0  0
  145.7480  135.7161  154.3259 O   0  0  0  0  0  0  0  0  0  0  0  0
  145.5293  134.5624  153.5278 C   0  0  2  0  0  0  0  0  0  0  0  0
  146.3920  133.3848  154.0140 C   0  0  0  0  0  0  0  0  0  0  0  0
  145.7786  132.7623  155.1223 O   0  0  0  0  0  0  0  0  0  0  0  0
  145.8211  135.0587  152.1027 C   0  0  2  0  0  0  0  0  0  0  0  0
  147.2004  134.9835  151.7943 O   0  0  0  0  0  0  0  0  0  0  0  0
  145.3586  136.5141  152.1267 C   0  0  1  0  0  0  0  0  0  0  0  0
  144.0761  136.6087  151.5392 O   0  0  0  0  0  0  0  0  0  0  0  0
  151.3635  140.2596  155.8214 C   0  0  0  0  0  0  0  0  0  0  0  0
  152.2789  139.9584  156.8480 C   0  0  0  0  0  0  0  0  0  0  0  0
  152.2406  140.5349  158.0681 N   0  0  0  0  0  0  0  0  0  0  0  0
  144.3115  137.1324  153.9805 H   0  0  0  0  0  0  0  0  0  0  0  0
  144.4704  134.3015  153.5849 H   0  0  0  0  0  0  0  0  0  0  0  0
  145.2896  134.4617  151.3598 H   0  0  0  0  0  0  0  0  0  0  0  0
  146.0451  137.1804  151.6007 H   0  0  0  0  0  0  0  0  0  0  0  0
  153.2237  144.7075  159.3037 H   0  0  0  0  0  0  0  0  0  0  0  0
  151.5014  144.6055  158.9542 H   0  0  0  0  0  0  0  0  0  0  0  0
  152.6469  143.6533  158.0137 H   0  0  0  0  0  0  0  0  0  0  0  0
  152.0514  143.3232  160.9869 H   0  0  0  0  0  0  0  0  0  0  0  0
  154.4167  142.6904  160.4304 H   0  0  0  0  0  0  0  0  0  0  0  0
  153.8447  141.6229  159.1503 H   0  0  0  0  0  0  0  0  0  0  0  0
  153.5002  141.2471  160.8339 H   0  0  0  0  0  0  0  0  0  0  0  0
  149.5634  142.5620  157.5813 H   0  0  0  0  0  0  0  0  0  0  0  0
  149.7330  142.3504  154.3585 H   0  0  0  0  0  0  0  0  0  0  0  0
  149.2015  140.6903  154.3752 H   0  0  0  0  0  0  0  0  0  0  0  0
  147.9674  142.9043  155.8832 H   0  0  0  0  0  0  0  0  0  0  0  0
  143.8476  140.9146  156.4284 H   0  0  0  0  0  0  0  0  0  0  0  0
  148.0510  137.4370  153.0116 H   0  0  0  0  0  0  0  0  0  0  0  0
  146.4811  132.6343  153.2280 H   0  0  0  0  0  0  0  0  0  0  0  0
  147.4005  133.7093  154.2732 H   0  0  0  0  0  0  0  0  0  0  0  0
  144.9838  132.3442  154.8269 H   0  0  0  0  0  0  0  0  0  0  0  0
  147.5104  135.8505  151.5828 H   0  0  0  0  0  0  0  0  0  0  0  0
  144.1279  137.1929  150.7983 H   0  0  0  0  0  0  0  0  0  0  0  0
  151.4331  139.7674  154.8625 H   0  0  0  0  0  0  0  0  0  0  0  0
  153.0606  139.2307  156.6867 H   0  0  0  0  0  0  0  0  0  0  0  0
  1  2  1  0  0  0  0
  1 35  1  0  0  0  0
  1 36  1  0  0  0  0
  1 37  1  0  0  0  0
  2  3  1  0  0  0  0
  2  4  1  0  0  0  0
  2 38  1  0  0  0  0
  3 39  1  0  0  0  0
  3 40  1  0  0  0  0
  3 41  1  0  0  0  0
  4  5  1  0  0  0  0
  5 30  1  0  0  0  0
  5  6  2  0  0  0  0
  6  7  1  0  0  0  0
  6 42  1  0  0  0  0
  7  8  1  0  0  0  0
  7 28  2  0  0  0  0
  8  9  1  0  0  0  0
  8 43  1  0  0  0  0
  8 44  1  0  0  0  0
  9 10  1  0  0  0  0
  9 45  1  0  0  0  0
 10 15  1  0  0  0  0
 10 11  2  0  0  0  0
 11 12  1  0  0  0  0
 12 13  2  0  0  0  0
 12 46  1  0  0  0  0
 13 14  1  0  0  0  0
 14 18  1  0  0  0  0
 14 15  2  0  0  0  0
 15 16  1  0  0  0  0
 16 17  2  0  0  0  0
 17 18  1  0  0  0  0
 17 47  1  0  0  0  0
 18 19  1  0  0  0  0
 19 31  1  0  0  0  0
 19 26  1  0  0  0  0
 19 20  1  0  0  0  0
 20 21  1  0  0  0  0
 21 32  1  0  0  0  0
 21 22  1  0  0  0  0
 21 24  1  0  0  0  0
 22 23  1  0  0  0  0
 22 48  1  0  0  0  0
 22 49  1  0  0  0  0
 23 50  1  0  0  0  0
 24 33  1  0  0  0  0
 24 25  1  0  0  0  0
 24 26  1  0  0  0  0
 25 51  1  0  0  0  0
 26 34  1  0  0  0  0
 26 27  1  0  0  0  0
 27 52  1  0  0  0  0
 28 29  1  0  0  0  0
 28 53  1  0  0  0  0
 29 30  2  0  0  0  0
 29 54  1  0  0  0  0
M  END
> <s_m_source_file>
AV-unprocessed.smi

> <i_m_source_file_index>
218

> <i_lp_mmshare_version>
43012

> <i_f3d_flags>
0

> <s_epik_input>
W0NIM11bQ0hdKFtDSDNdKU9jMVtjSF1jKFtjSF1bY0hdbjEpW0NIMl1bTkhdYyhuW2NIXW4yKWMoYzIzKW5bY0hdbjNbQ0BASF00T1tDQEhdKFtDSDJdW09IXSlbQ0BASF0oW09IXSlbQ0BIXTRbT0hd

> <s_epik_cmdline>
J2VwaWtfcHl0aG9uJywgJy1waCcsICc3LjAnLCAnLXRuJywgJzgnLCAnLW1hJywgJzIwMCcsICctbWV0YWxfYmluZGluZycsICctaW1hZScsICc8aW5maWxlLm1hZT4nLCAnLW9tYWUnLCAnPG91dGZpbGUubWFlPic=

> <r_lp_tautomer_probability>
1

> <r_epik_Ionization_Penalty>
0.00457014

> <r_epik_Ionization_Penalty_Charging>
0

> <r_epik_Ionization_Penalty_Neutral>
0.00457014

> <r_epik_State_Penalty>
-0

> <r_epik_Charging_Adjusted_Penalty>
0

> <i_epik_Tot_Q>
0

> <i_epik_Tot_abs_Q>
0

> <r_epik_Metal_State_Penalty>
-0

> <b_epik_Metal_Only>
0

> <s_epik_Chemistry_Notes>
This compound contains an acetal/aminal-like group ( X-CH(R)-Y where X, Y are N, S, or O) that may be acid/base labile, releasing an aldehyde.

> <s_lp_Force_Field>
OPLS_2005

> <r_lp_Energy>
40.0122

> <b_lp_Chiralities_Consistent>
1

> <s_lp_Variant>
AV-unprocessed.smi:218-5

> <Gold.Version>
5.8.1

> <Gold.Id.Protein>
6NUR|6NUR_protein|mol2

> <Gold.PLP.Fitness>
52.2619

> <Gold.PLP.PLP>
-39.8822

> <Gold.PLP.part.hbond>
-4.3380

> <Gold.PLP.part.metal>
0.0000

> <Gold.PLP.part.buried>
-5.9782

> <Gold.PLP.part.nonpolar>
-31.2535

> <Gold.PLP.part.repulsive>
1.4169

> <Gold.PLP.ligand.clash>
0.0000

> <Gold.PLP.ligand.torsion>
0.8682

> <Gold.PLP.Chemscore.Hbond>
3.6240

> <Gold.PLP.Chemscore.CHOScore>
1.0000

> <Gold.PLP.Chemscore.Metal>
0.0000

> <Gold.Chemscore.Hbonds>
donor molecule, donor type, donor heavy atom, donor atom, acceptor molecule, acceptor atom, score
      L1  H     9    45       P1  8028  0.80
      L1  H    23    50       P1 10957  0.16
      L1  H    25    51       P1  7948  0.34
      L1  H    27    52       P1 10171  1.00
      L1  C    17    47       P1  7948  0.64

> <Gold.PLP.Chemscore.Internal.Correction>
0.2441

> <Gold.Rescore>
     Score         DG    S(hbond)    S(metal)    S(lipo)     H(rot)  DE(clash)    DE(int)     intcor
     11.52     -14.80       3.69        0.00      81.63       4.90       0.06       3.22       ----

> <Gold.Chemscore.Fitness>
11.5240

> <Gold.Chemscore.DG>
-14.8017

> <Gold.Chemscore.ZeroCoef>
-5.4800

> <Gold.Chemscore.Hbond>
3.6894

> <Gold.Chemscore.Metal>
0.0000

> <Gold.Chemscore.Lipo>
81.6284

> <Gold.Chemscore.Internal_Hbond>
0.0000

> <Gold.Chemscore.DEClash>
0.0624

> <Gold.Chemscore.DEInternal>
3.2154

> <Gold.Chemscore.Rot>
4.9029

> <Gold.Chemscore.Internal.Correction>
   9.000000E+99

> <Gold.Chemscore.Hbonds>
donor molecule, donor type, donor heavy atom, donor atom, acceptor molecule, acceptor atom, score
      L1  H     9    45       P1  8028  0.52
      L1  H    23    50       P1 10957  0.11
      L1  H    25    51       P1  7948  0.34
      L1  H    27    52       P1 10171  1.00

> <Gold.Chemscore.Hbond.Weighted>
-12.3227

> <Gold.Chemscore.Metal.Weighted>
-0.0000

> <Gold.Chemscore.Lipo.Weighted>
-9.5505

> <Gold.Chemscore.Internal_Hbond.Weighted>
0.0000

> <Gold.Chemscore.DEClash.Weighted>
0.0624

> <Gold.Chemscore.DEInternal.Weighted>
3.2154

> <Gold.Chemscore.Rot.Weighted>
12.5515

> <Gold.Chemscore.Internal.Correction.Weighted>
   9.000000E+99

> <Gold.Protein.RotatedTorsions>
[ 6907 6896 6895 6894 ] final   53.27 input  -60.11 | X-H torsion
[ 7974 7965 7964 7962 ] final   73.44 input  175.53 | X-H torsion
[ 8008 7997 7996 7995 ] final  165.54 input   59.86 | X-H torsion
[ 10167 10162 10161 10158 ] final  -57.30 input  -65.29 | X-H torsion
[ 10718 10713 10712 10709 ] final   -4.89 input   66.30 | X-H torsion
[ 10763 10752 10751 10750 ] final  -40.06 input  -60.55 | X-H torsion
[ 11005 11000 10999 10996 ] final  -27.25 input  -57.11 | X-H torsion

> <Gold.Protein.ActiveResidues>
 VAL166  LYS551  ARG553  GLY616  TRP617  ASP618  TYR619  PRO620  LYS621  CYS622 
 ASP623  PHE694  ASN695  SER759  ASP760  ASP761  ALA762  ILE779  LEU786  VAL792 
 PHE793  MET794  SER795  GLU796  ALA797  LYS798  CYS799  TRP800  GLU811  SER814 

> <Gold.Protein.RotatedAtoms>
  152.3319  134.7248  160.0286 H   0  0  0  0  0  0  0  0  0  0  0  0  # atno 6907 bound_to 6896
  151.7662  133.3332  159.3439 H   0  0  0  0  0  0  0  0  0  0  0  0  # atno 6908 bound_to 6896
  150.7428  134.5992  159.6072 H   0  0  0  0  0  0  0  0  0  0  0  0  # atno 6909 bound_to 6896
  145.7408  139.2720  143.1487 H   0  0  0  0  0  0  0  0  0  0  0  0  # atno 7974 bound_to 7965
  156.1792  140.1667  156.8305 H   0  0  0  0  0  0  0  0  0  0  0  0  # atno 8008 bound_to 7997
  154.5341  140.0750  156.8430 H   0  0  0  0  0  0  0  0  0  0  0  0  # atno 8009 bound_to 7997
  155.3347  140.3381  155.4241 H   0  0  0  0  0  0  0  0  0  0  0  0  # atno 8010 bound_to 7997
  140.6266  143.2441  151.5347 H   0  0  0  0  0  0  0  0  0  0  0  0  # atno 10167 bound_to 10162
  156.7546  130.5250  149.5797 H   0  0  0  0  0  0  0  0  0  0  0  0  # atno 10718 bound_to 10713
  153.9396  135.6763  153.4744 H   0  0  0  0  0  0  0  0  0  0  0  0  # atno 10763 bound_to 10752
  153.0938  135.4861  154.8737 H   0  0  0  0  0  0  0  0  0  0  0  0  # atno 10764 bound_to 10752
  154.7384  135.3155  154.8729 H   0  0  0  0  0  0  0  0  0  0  0  0  # atno 10765 bound_to 10752
  140.9102  133.7466  156.0661 H   0  0  0  0  0  0  0  0  0  0  0  0  # atno 11005 bound_to 11000
  146.0449  140.8128  142.9810 LP  0  0  0  0  0  0  0  0  0  0  0  0  # atno 17320 bound_to 7965
  144.6871  140.2966  143.7270 LP  0  0  0  0  0  0  0  0  0  0  0  0  # atno 17321 bound_to 7965
  139.5486  144.2456  152.1488 LP  0  0  0  0  0  0  0  0  0  0  0  0  # atno 17342 bound_to 10162
  140.1689  144.4955  150.6590 LP  0  0  0  0  0  0  0  0  0  0  0  0  # atno 17343 bound_to 10162
  156.1378  130.6223  151.0425 LP  0  0  0  0  0  0  0  0  0  0  0  0  # atno 17370 bound_to 10713
  157.6762  131.0850  150.7489 LP  0  0  0  0  0  0  0  0  0  0  0  0  # atno 17371 bound_to 10713
  140.8119  134.3389  157.5409 LP  0  0  0  0  0  0  0  0  0  0  0  0  # atno 17394 bound_to 11000
  139.8756  134.9259  156.3387 LP  0  0  0  0  0  0  0  0  0  0  0  0  # atno 17395 bound_to 11000

$$$$
