AV-unprocessed.smi:1990|AV-procd|sdf|8063|dock5
  -GOLD-   2272010273D 1   1.00000     0.00000
 Structure written by MMmdl.
 46 47  0  0  0  0  0  0  0  0  1 V2000
  151.1911  145.2578  159.5659 C   0  0  0  0  0  0  0  0  0  0  0  0
  152.2236  144.5592  158.6627 C   0  0  2  0  0  0  0  0  0  0  0  0
  151.5899  143.7942  157.4839 C   0  0  0  0  0  0  0  0  0  0  0  0
  150.9802  142.5460  157.9346 N   0  0  0  0  0  0  0  0  0  0  0  0
  150.1214  141.9126  157.0100 C   0  0  0  0  0  0  0  0  0  0  0  0
  150.2125  142.2148  155.6310 C   0  0  0  0  0  0  0  0  0  0  0  0
  149.3467  141.5734  154.7245 C   0  0  0  0  0  0  0  0  0  0  0  0
  148.3980  140.6484  155.2198 C   0  0  0  0  0  0  0  0  0  0  0  0
  147.4789  139.9215  154.4149 N   0  0  0  0  0  0  0  0  0  0  0  0
  146.8974  138.7309  154.6539 C   0  0  0  0  0  0  0  0  0  0  0  0
  147.1253  138.0280  155.6379 O   0  0  0  0  0  0  0  0  0  0  0  0
  145.9132  138.2452  153.5804 C   0  0  1  0  0  0  0  0  0  0  0  0
  146.5170  138.3247  152.1681 C   0  0  0  0  0  0  0  0  0  0  0  0
  145.3863  136.5048  153.9441 S   0  0  0  0  0  0  0  0  0  0  0  0
  144.1715  136.1468  152.6058 C   0  0  0  0  0  0  0  0  0  0  0  0
  146.5514  135.6281  153.7522 O   0  0  0  0  0  0  0  0  0  0  0  0
  144.6696  136.4799  155.2284 O   0  0  0  0  0  0  0  0  0  0  0  0
  148.3885  140.4072  156.6080 C   0  0  0  0  0  0  0  0  0  0  0  0
  149.2163  141.0195  157.4796 N   0  0  0  0  0  0  0  0  0  0  0  0
  151.8906  141.7096  158.7120 C   0  0  0  0  0  0  0  0  0  0  0  0
  152.4796  142.5063  159.8896 C   0  0  1  0  0  0  0  0  0  0  0  0
  153.5410  141.7028  160.6483 C   0  0  0  0  0  0  0  0  0  0  0  0
  153.0933  143.6986  159.4017 O   0  0  0  0  0  0  0  0  0  0  0  0
  150.6319  146.0065  159.0044 H   0  0  0  0  0  0  0  0  0  0  0  0
  151.6816  145.7674  160.3954 H   0  0  0  0  0  0  0  0  0  0  0  0
  150.4654  144.5599  159.9827 H   0  0  0  0  0  0  0  0  0  0  0  0
  152.8565  145.3429  158.2455 H   0  0  0  0  0  0  0  0  0  0  0  0
  150.8761  144.4417  156.9767 H   0  0  0  0  0  0  0  0  0  0  0  0
  152.3607  143.5489  156.7521 H   0  0  0  0  0  0  0  0  0  0  0  0
  150.9248  142.9359  155.2590 H   0  0  0  0  0  0  0  0  0  0  0  0
  149.4392  141.8005  153.6744 H   0  0  0  0  0  0  0  0  0  0  0  0
  147.2594  140.3475  153.5263 H   0  0  0  0  0  0  0  0  0  0  0  0
  145.0157  138.8644  153.6075 H   0  0  0  0  0  0  0  0  0  0  0  0
  146.8662  139.3327  151.9418 H   0  0  0  0  0  0  0  0  0  0  0  0
  145.7762  138.0577  151.4142 H   0  0  0  0  0  0  0  0  0  0  0  0
  147.3608  137.6432  152.0534 H   0  0  0  0  0  0  0  0  0  0  0  0
  143.8756  135.0995  152.6609 H   0  0  0  0  0  0  0  0  0  0  0  0
  144.6269  136.3417  151.6354 H   0  0  0  0  0  0  0  0  0  0  0  0
  143.2871  136.7712  152.7288 H   0  0  0  0  0  0  0  0  0  0  0  0
  147.6922  139.7010  157.0369 H   0  0  0  0  0  0  0  0  0  0  0  0
  151.3646  140.8354  159.0980 H   0  0  0  0  0  0  0  0  0  0  0  0
  152.6891  141.3494  158.0618 H   0  0  0  0  0  0  0  0  0  0  0  0
  151.6857  142.7620  160.5917 H   0  0  0  0  0  0  0  0  0  0  0  0
  153.1214  140.7804  161.0504 H   0  0  0  0  0  0  0  0  0  0  0  0
  153.9413  142.2777  161.4836 H   0  0  0  0  0  0  0  0  0  0  0  0
  154.3743  141.4363  159.9975 H   0  0  0  0  0  0  0  0  0  0  0  0
  1  2  1  0  0  0  0
  1 24  1  0  0  0  0
  1 25  1  0  0  0  0
  1 26  1  0  0  0  0
  2 23  1  0  0  0  0
  2  3  1  0  0  0  0
  2 27  1  0  0  0  0
  3  4  1  0  0  0  0
  3 28  1  0  0  0  0
  3 29  1  0  0  0  0
  4  5  1  0  0  0  0
  4 20  1  0  0  0  0
  5 19  1  0  0  0  0
  5  6  2  0  0  0  0
  6  7  1  0  0  0  0
  6 30  1  0  0  0  0
  7  8  2  0  0  0  0
  7 31  1  0  0  0  0
  8  9  1  0  0  0  0
  8 18  1  0  0  0  0
  9 10  1  0  0  0  0
  9 32  1  0  0  0  0
 10 11  2  0  0  0  0
 10 12  1  0  0  0  0
 12 13  1  0  0  0  0
 12 14  1  0  0  0  0
 12 33  1  0  0  0  0
 13 34  1  0  0  0  0
 13 35  1  0  0  0  0
 13 36  1  0  0  0  0
 14 15  1  0  0  0  0
 14 16  2  0  0  0  0
 14 17  2  0  0  0  0
 15 37  1  0  0  0  0
 15 38  1  0  0  0  0
 15 39  1  0  0  0  0
 18 19  2  0  0  0  0
 18 40  1  0  0  0  0
 20 21  1  0  0  0  0
 20 41  1  0  0  0  0
 20 42  1  0  0  0  0
 21 22  1  0  0  0  0
 21 23  1  0  0  0  0
 21 43  1  0  0  0  0
 22 44  1  0  0  0  0
 22 45  1  0  0  0  0
 22 46  1  0  0  0  0
M  END
> <s_m_source_file>
AV-unprocessed.smi

> <i_m_source_file_index>
1990

> <i_lp_mmshare_version>
43012

> <i_f3d_flags>
0

> <s_epik_input>
W0NIM11bQ0BASF0xW0NIMl1OKFtDSDJdW0NASF0oTzEpW0NIM10pYzJbY0hdW2NIXWMoW2NIXW4yKVtOSF1DKD1PKVtDQEhdKFtDSDNdKVMoPU8pKD1PKVtDSDNd

> <s_epik_cmdline>
J2VwaWtfcHl0aG9uJywgJy1waCcsICc3LjAnLCAnLXRuJywgJzgnLCAnLW1hJywgJzIwMCcsICctbWV0YWxfYmluZGluZycsICctaW1hZScsICc8aW5maWxlLm1hZT4nLCAnLW9tYWUnLCAnPG91dGZpbGUubWFlPic=

> <r_lp_tautomer_probability>
1

> <r_epik_Ionization_Penalty>
0.000334888

> <r_epik_Ionization_Penalty_Charging>
0

> <r_epik_Ionization_Penalty_Neutral>
0.000334888

> <r_epik_State_Penalty>
0.000200905

> <r_epik_Charging_Adjusted_Penalty>
0.000200905

> <i_epik_Tot_Q>
0

> <i_epik_Tot_abs_Q>
0

> <r_epik_Metal_State_Penalty>
-0

> <b_epik_Metal_Only>
0

> <s_lp_Force_Field>
OPLS_2005

> <r_lp_Energy>
21.5475

> <b_lp_Chiralities_Consistent>
1

> <s_lp_Variant>
AV-unprocessed.smi:1990-3

> <Gold.Version>
5.8.1

> <Gold.Id.Protein>
6NUR|6NUR_protein|mol2

> <Gold.PLP.Fitness>
35.5765

> <Gold.PLP.PLP>
-36.3729

> <Gold.PLP.part.hbond>
0.0000

> <Gold.PLP.part.metal>
0.0000

> <Gold.PLP.part.buried>
-1.8415

> <Gold.PLP.part.nonpolar>
-34.4247

> <Gold.PLP.part.repulsive>
0.4387

> <Gold.PLP.ligand.clash>
0.0000

> <Gold.PLP.ligand.torsion>
0.6421

> <Gold.PLP.Chemscore.Hbond>
0.0000

> <Gold.PLP.Chemscore.CHOScore>
0.0000

> <Gold.PLP.Chemscore.Metal>
0.0000

> <Gold.PLP.Chemscore.Internal.Correction>
0.4879

> <Gold.Rescore>
     Score         DG    S(hbond)    S(metal)    S(lipo)     H(rot)  DE(clash)    DE(int)     intcor
      9.99     -14.23       0.00        0.00     108.02       1.52       1.22       3.02       ----

> <Gold.Chemscore.Fitness>
9.9867

> <Gold.Chemscore.DG>
-14.2333

> <Gold.Chemscore.ZeroCoef>
-5.4800

> <Gold.Chemscore.Hbond>
0.0000

> <Gold.Chemscore.Metal>
0.0000

> <Gold.Chemscore.Lipo>
108.0222

> <Gold.Chemscore.Internal_Hbond>
0.0000

> <Gold.Chemscore.DEClash>
1.2220

> <Gold.Chemscore.DEInternal>
3.0247

> <Gold.Chemscore.Rot>
1.5177

> <Gold.Chemscore.Internal.Correction>
   9.000000E+99

> <Gold.Chemscore.Hbond.Weighted>
-0.0000

> <Gold.Chemscore.Metal.Weighted>
-0.0000

> <Gold.Chemscore.Lipo.Weighted>
-12.6386

> <Gold.Chemscore.Internal_Hbond.Weighted>
0.0000

> <Gold.Chemscore.DEClash.Weighted>
1.2220

> <Gold.Chemscore.DEInternal.Weighted>
3.0247

> <Gold.Chemscore.Rot.Weighted>
3.8853

> <Gold.Chemscore.Internal.Correction.Weighted>
   9.000000E+99

> <Gold.Protein.RotatedTorsions>
[ 6907 6896 6895 6894 ] final  -18.17 input  -60.11 | X-H torsion
[ 7974 7965 7964 7962 ] final -111.36 input  175.53 | X-H torsion
[ 8008 7997 7996 7995 ] final  -71.81 input   59.86 | X-H torsion
[ 10167 10162 10161 10158 ] final  143.83 input  -65.29 | X-H torsion
[ 10718 10713 10712 10709 ] final   78.90 input   66.30 | X-H torsion
[ 10763 10752 10751 10750 ] final  146.80 input  -60.55 | X-H torsion
[ 11005 11000 10999 10996 ] final   71.25 input  -57.11 | X-H torsion

> <Gold.Protein.ActiveResidues>
 VAL166  LYS551  ARG553  GLY616  TRP617  ASP618  TYR619  PRO620  LYS621  CYS622 
 ASP623  PHE694  ASN695  SER759  ASP760  ASP761  ALA762  ILE779  LEU786  VAL792 
 PHE793  MET794  SER795  GLU796  ALA797  LYS798  CYS799  TRP800  GLU811  SER814 

> <Gold.Protein.RotatedAtoms>
  151.2822  135.0717  159.9173 H   0  0  0  0  0  0  0  0  0  0  0  0  # atno 6907 bound_to 6896
  152.5332  134.0019  159.7909 H   0  0  0  0  0  0  0  0  0  0  0  0  # atno 6908 bound_to 6896
  151.0275  133.5770  159.2695 H   0  0  0  0  0  0  0  0  0  0  0  0  # atno 6909 bound_to 6896
  145.1570  140.8859  143.3613 H   0  0  0  0  0  0  0  0  0  0  0  0  # atno 7974 bound_to 7965
  154.5117  140.0808  156.8002 H   0  0  0  0  0  0  0  0  0  0  0  0  # atno 8008 bound_to 7997
  155.3770  140.3426  155.4227 H   0  0  0  0  0  0  0  0  0  0  0  0  # atno 8009 bound_to 7997
  156.1581  140.1579  156.8646 H   0  0  0  0  0  0  0  0  0  0  0  0  # atno 8010 bound_to 7997
  139.4960  144.6013  151.6474 H   0  0  0  0  0  0  0  0  0  0  0  0  # atno 10167 bound_to 10162
  157.6760  130.9889  150.1853 H   0  0  0  0  0  0  0  0  0  0  0  0  # atno 10718 bound_to 10713
  154.0278  135.2900  155.3372 H   0  0  0  0  0  0  0  0  0  0  0  0  # atno 10763 bound_to 10752
  154.7006  135.5190  153.8525 H   0  0  0  0  0  0  0  0  0  0  0  0  # atno 10764 bound_to 10752
  153.0653  135.6628  154.0494 H   0  0  0  0  0  0  0  0  0  0  0  0  # atno 10765 bound_to 10752
  139.9553  134.7154  156.0767 H   0  0  0  0  0  0  0  0  0  0  0  0  # atno 11005 bound_to 11000
  145.0371  139.3291  143.5995 LP  0  0  0  0  0  0  0  0  0  0  0  0  # atno 17320 bound_to 7965
  146.3487  139.9730  142.8704 LP  0  0  0  0  0  0  0  0  0  0  0  0  # atno 17321 bound_to 7965
  140.5664  144.0183  150.6194 LP  0  0  0  0  0  0  0  0  0  0  0  0  # atno 17342 bound_to 10162
  140.3286  143.3092  152.0711 LP  0  0  0  0  0  0  0  0  0  0  0  0  # atno 17343 bound_to 10162
  156.2577  130.3707  149.8164 LP  0  0  0  0  0  0  0  0  0  0  0  0  # atno 17370 bound_to 10713
  156.5919  130.8510  151.3410 LP  0  0  0  0  0  0  0  0  0  0  0  0  # atno 17371 bound_to 10713
  141.1224  133.6609  156.3248 LP  0  0  0  0  0  0  0  0  0  0  0  0  # atno 17394 bound_to 11000
  140.5623  134.5922  157.5437 LP  0  0  0  0  0  0  0  0  0  0  0  0  # atno 17395 bound_to 11000

$$$$
