AV-unprocessed.smi:3116|AV-procd|sdf|11875|dock7
  -GOLD-   2272017263D 1   1.00000     0.00000
 Structure written by MMmdl.
 33 33  0  0  0  0  0  0  0  0  1 V2000
  147.0173  141.0574  156.1592 C   0  0  0  0  0  0  0  0  0  0  0  0
  147.9044  141.6417  157.2692 C   0  0  1  0  0  0  0  0  0  0  0  0
  148.9082  142.5447  156.6781 N   0  0  0  0  0  0  0  0  0  0  0  0
  150.2154  141.9381  156.4171 C   0  0  2  0  0  0  0  0  0  0  0  0
  149.9481  140.6827  155.5692 C   0  0  0  0  0  0  0  0  0  0  0  0
  150.9230  141.6239  157.7647 C   0  0  1  0  0  0  0  0  0  0  0  0
  151.9768  140.5053  157.6467 C   0  0  0  0  0  0  0  0  0  0  0  0
  151.5267  142.8183  158.3466 N   0  0  0  0  0  0  0  0  0  0  0  0
  151.6034  144.0837  157.8017 C   0  0  0  0  0  0  0  0  0  0  0  0
  152.2833  144.8703  158.6865 C   0  0  0  0  0  0  0  0  0  0  0  0
  152.5888  143.9865  159.7584 C   0  0  0  0  0  0  0  0  0  0  0  0
  152.1383  142.7598  159.5522 N   0  0  0  0  0  0  0  0  0  0  0  0
  147.0450  142.3285  158.3433 C   0  0  0  0  0  0  0  0  0  0  0  0
  147.2489  143.6326  158.5451 N   0  0  0  0  0  0  0  0  0  0  0  0
  146.1971  141.6952  158.9694 O   0  0  0  0  0  0  0  0  0  0  0  0
  146.2658  140.3804  156.5673 H   0  0  0  0  0  0  0  0  0  0  0  0
  147.6130  140.4881  155.4448 H   0  0  0  0  0  0  0  0  0  0  0  0
  146.4959  141.8396  155.6055 H   0  0  0  0  0  0  0  0  0  0  0  0
  148.4267  140.8027  157.7301 H   0  0  0  0  0  0  0  0  0  0  0  0
  148.5674  142.9886  155.8378 H   0  0  0  0  0  0  0  0  0  0  0  0
  150.8516  142.6035  155.8326 H   0  0  0  0  0  0  0  0  0  0  0  0
  150.8757  140.2123  155.2445 H   0  0  0  0  0  0  0  0  0  0  0  0
  149.3885  140.9313  154.6665 H   0  0  0  0  0  0  0  0  0  0  0  0
  149.3722  139.9407  156.1233 H   0  0  0  0  0  0  0  0  0  0  0  0
  150.1675  141.2773  158.4719 H   0  0  0  0  0  0  0  0  0  0  0  0
  151.5213  139.5492  157.3906 H   0  0  0  0  0  0  0  0  0  0  0  0
  152.5026  140.3634  158.5915 H   0  0  0  0  0  0  0  0  0  0  0  0
  152.7214  140.7344  156.8837 H   0  0  0  0  0  0  0  0  0  0  0  0
  151.1767  144.3159  156.8369 H   0  0  0  0  0  0  0  0  0  0  0  0
  152.5272  145.9171  158.5824 H   0  0  0  0  0  0  0  0  0  0  0  0
  153.1234  144.1977  160.6727 H   0  0  0  0  0  0  0  0  0  0  0  0
  146.7114  144.1246  159.2440 H   0  0  0  0  0  0  0  0  0  0  0  0
  147.9450  144.1201  158.0001 H   0  0  0  0  0  0  0  0  0  0  0  0
  1  2  1  0  0  0  0
  1 16  1  0  0  0  0
  1 17  1  0  0  0  0
  1 18  1  0  0  0  0
  2  3  1  0  0  0  0
  2 13  1  0  0  0  0
  2 19  1  0  0  0  0
  3  4  1  0  0  0  0
  3 20  1  0  0  0  0
  4  5  1  0  0  0  0
  4  6  1  0  0  0  0
  4 21  1  0  0  0  0
  5 22  1  0  0  0  0
  5 23  1  0  0  0  0
  5 24  1  0  0  0  0
  6  7  1  0  0  0  0
  6  8  1  0  0  0  0
  6 25  1  0  0  0  0
  7 26  1  0  0  0  0
  7 27  1  0  0  0  0
  7 28  1  0  0  0  0
  8 12  1  0  0  0  0
  8  9  1  0  0  0  0
  9 10  2  0  0  0  0
  9 29  1  0  0  0  0
 10 11  1  0  0  0  0
 10 30  1  0  0  0  0
 11 12  2  0  0  0  0
 11 31  1  0  0  0  0
 13 14  1  0  0  0  0
 13 15  2  0  0  0  0
 14 32  1  0  0  0  0
 14 33  1  0  0  0  0
M  END
> <s_m_source_file>
AV-unprocessed.smi

> <i_m_source_file_index>
3116

> <i_lp_mmshare_version>
43012

> <i_f3d_flags>
0

> <s_epik_input>
W05IMl1DKD1PKVtDQEhdKFtDSDNdKVtOSF1bQ0BIXShbQ0gzXSlbQ0BIXShbQ0gzXSluMVtjSF1bY0hdW2NIXW4x

> <s_epik_cmdline>
J2VwaWtfcHl0aG9uJywgJy1waCcsICc3LjAnLCAnLXRuJywgJzgnLCAnLW1hJywgJzIwMCcsICctbWV0YWxfYmluZGluZycsICctaW1hZScsICc8aW5maWxlLm1hZT4nLCAnLW9tYWUnLCAnPG91dGZpbGUubWFlPic=

> <r_lp_tautomer_probability>
1

> <r_epik_Ionization_Penalty>
0.865977

> <r_epik_Ionization_Penalty_Charging>
0

> <r_epik_Ionization_Penalty_Neutral>
0.865977

> <r_epik_State_Penalty>
0.901888

> <r_epik_Charging_Adjusted_Penalty>
0.901888

> <i_epik_Tot_Q>
0

> <i_epik_Tot_abs_Q>
0

> <r_epik_Metal_State_Penalty>
0.901181

> <b_epik_Metal_Only>
0

> <s_lp_Force_Field>
OPLS_2005

> <r_lp_Energy>
8.89759

> <b_lp_Chiralities_Consistent>
1

> <s_lp_Variant>
AV-unprocessed.smi:3116-14

> <Gold.Version>
5.8.1

> <Gold.Id.Protein>
6NUR|6NUR_protein|mol2

> <Gold.PLP.Fitness>
35.4109

> <Gold.PLP.PLP>
-28.7918

> <Gold.PLP.part.hbond>
-2.4974

> <Gold.PLP.part.metal>
0.0000

> <Gold.PLP.part.buried>
-3.0156

> <Gold.PLP.part.nonpolar>
-23.9494

> <Gold.PLP.part.repulsive>
0.0776

> <Gold.PLP.ligand.clash>
0.0000

> <Gold.PLP.ligand.torsion>
0.9889

> <Gold.PLP.Chemscore.Hbond>
1.8232

> <Gold.PLP.Chemscore.CHOScore>
1.0000

> <Gold.PLP.Chemscore.Metal>
0.0000

> <Gold.Chemscore.Hbonds>
donor molecule, donor type, donor heavy atom, donor atom, acceptor molecule, acceptor atom, score
      L1  H     3    20       P1  8028  0.35
      L1  H    14    33       P1  8029  0.49
      P1  H  6934  6946       L1    15  0.80
      L1  C     9    29       P1  8028  0.89

> <Gold.PLP.Chemscore.Internal.Correction>
0.1273

> <Gold.Rescore>
     Score         DG    S(hbond)    S(metal)    S(lipo)     H(rot)  DE(clash)    DE(int)     intcor
     12.92     -13.91       1.89        0.00      70.13       2.38       0.07       0.93       ----

> <Gold.Chemscore.Fitness>
12.9171

> <Gold.Chemscore.DG>
-13.9107

> <Gold.Chemscore.ZeroCoef>
-5.4800

> <Gold.Chemscore.Hbond>
1.8943

> <Gold.Chemscore.Metal>
0.0000

> <Gold.Chemscore.Lipo>
70.1338

> <Gold.Chemscore.Internal_Hbond>
0.0000

> <Gold.Chemscore.DEClash>
0.0663

> <Gold.Chemscore.DEInternal>
0.9273

> <Gold.Chemscore.Rot>
2.3836

> <Gold.Chemscore.Internal.Correction>
   9.000000E+99

> <Gold.Chemscore.Hbonds>
donor molecule, donor type, donor heavy atom, donor atom, acceptor molecule, acceptor atom, score
      L1  H     3    20       P1  8028  0.36
      L1  H    14    33       P1  8029  0.08
      P1  H  6934  6946       L1    15  0.66

> <Gold.Chemscore.Hbond.Weighted>
-6.3270

> <Gold.Chemscore.Metal.Weighted>
-0.0000

> <Gold.Chemscore.Lipo.Weighted>
-8.2057

> <Gold.Chemscore.Internal_Hbond.Weighted>
0.0000

> <Gold.Chemscore.DEClash.Weighted>
0.0663

> <Gold.Chemscore.DEInternal.Weighted>
0.9273

> <Gold.Chemscore.Rot.Weighted>
6.1020

> <Gold.Chemscore.Internal.Correction.Weighted>
   9.000000E+99

> <Gold.Protein.RotatedTorsions>
[ 6907 6896 6895 6894 ] final  139.02 input  -60.11 | X-H torsion
[ 7974 7965 7964 7962 ] final   24.84 input  175.53 | X-H torsion
[ 8008 7997 7996 7995 ] final -154.61 input   59.86 | X-H torsion
[ 10167 10162 10161 10158 ] final -117.06 input  -65.29 | X-H torsion
[ 10718 10713 10712 10709 ] final   46.87 input   66.30 | X-H torsion
[ 10763 10752 10751 10750 ] final -157.67 input  -60.55 | X-H torsion
[ 11005 11000 10999 10996 ] final -103.84 input  -57.11 | X-H torsion

> <Gold.Protein.ActiveResidues>
 VAL166  LYS551  ARG553  GLY616  TRP617  ASP618  TYR619  PRO620  LYS621  CYS622 
 ASP623  PHE694  ASN695  SER759  ASP760  ASP761  ALA762  ILE779  LEU786  VAL792 
 PHE793  MET794  SER795  GLU796  ALA797  LYS798  CYS799  TRP800  GLU811  SER814 

> <Gold.Protein.RotatedAtoms>
  152.2598  133.5288  159.5374 H   0  0  0  0  0  0  0  0  0  0  0  0  # atno 6907 bound_to 6896
  150.7121  134.0845  159.3918 H   0  0  0  0  0  0  0  0  0  0  0  0  # atno 6908 bound_to 6896
  151.8763  135.0470  160.0535 H   0  0  0  0  0  0  0  0  0  0  0  0  # atno 6909 bound_to 6896
  146.1918  139.7548  142.8826 H   0  0  0  0  0  0  0  0  0  0  0  0  # atno 7974 bound_to 7965
  155.6890  140.0753  157.2455 H   0  0  0  0  0  0  0  0  0  0  0  0  # atno 8008 bound_to 7997
  154.4092  140.1668  156.2118 H   0  0  0  0  0  0  0  0  0  0  0  0  # atno 8009 bound_to 7997
  155.9468  140.3380  155.6377 H   0  0  0  0  0  0  0  0  0  0  0  0  # atno 8010 bound_to 7997
  140.0725  143.4864  152.1972 H   0  0  0  0  0  0  0  0  0  0  0  0  # atno 10167 bound_to 10162
  157.4526  130.8147  149.7804 H   0  0  0  0  0  0  0  0  0  0  0  0  # atno 10718 bound_to 10713
  154.7617  135.3120  154.8364 H   0  0  0  0  0  0  0  0  0  0  0  0  # atno 10763 bound_to 10752
  153.9123  135.6804  153.4755 H   0  0  0  0  0  0  0  0  0  0  0  0  # atno 10764 bound_to 10752
  153.1219  135.4819  154.9141 H   0  0  0  0  0  0  0  0  0  0  0  0  # atno 10765 bound_to 10752
  141.1128  133.8673  157.1536 H   0  0  0  0  0  0  0  0  0  0  0  0  # atno 11005 bound_to 11000
  145.3769  141.0352  143.3199 LP  0  0  0  0  0  0  0  0  0  0  0  0  # atno 17320 bound_to 7965
  144.8501  139.5335  143.6860 LP  0  0  0  0  0  0  0  0  0  0  0  0  # atno 17321 bound_to 7965
  139.5827  144.7518  151.3598 LP  0  0  0  0  0  0  0  0  0  0  0  0  # atno 17342 bound_to 10162
  140.7118  143.7369  150.7582 LP  0  0  0  0  0  0  0  0  0  0  0  0  # atno 17343 bound_to 10162
  155.9993  130.3889  150.2668 LP  0  0  0  0  0  0  0  0  0  0  0  0  # atno 17370 bound_to 10713
  157.0840  131.0151  151.3146 LP  0  0  0  0  0  0  0  0  0  0  0  0  # atno 17371 bound_to 10713
  140.0031  135.0019  157.0233 LP  0  0  0  0  0  0  0  0  0  0  0  0  # atno 17394 bound_to 11000
  140.4730  134.1367  155.7205 LP  0  0  0  0  0  0  0  0  0  0  0  0  # atno 17395 bound_to 11000

$$$$
