AV-unprocessed.smi:2391|AV-procd|sdf|9481|dock10
  -GOLD-   2272013113D 1   1.00000     0.00000
 Structure written by MMmdl.
 35 36  0  0  0  0  0  0  0  0  1 V2000
  146.5836  128.7407  153.2979 O   0  0  0  0  0  0  0  0  0  0  0  0
  147.2662  129.2194  152.3922 C   0  0  0  0  0  0  0  0  0  0  0  0
  148.0513  128.5159  151.5576 N   0  0  0  0  0  0  0  0  0  0  0  0
  148.2631  127.1121  151.5284 C   0  0  0  0  0  0  0  0  0  0  0  0
  148.8361  126.6118  150.3395 C   0  0  0  0  0  0  0  0  0  0  0  0
  149.0716  125.2298  150.2427 C   0  0  0  0  0  0  0  0  0  0  0  0
  148.7165  124.4377  151.3479 C   0  0  0  0  0  0  0  0  0  0  0  0
  148.1703  124.9596  152.4675 N   0  0  0  0  0  0  0  0  0  0  0  0
  147.9487  126.2760  152.5523 N   0  0  0  0  0  0  0  0  0  0  0  0
  147.3174  130.5300  152.1120 N   0  0  0  0  0  0  0  0  0  0  0  0
  146.6071  131.5941  152.8252 C   0  0  2  0  0  0  0  0  0  0  0  0
  145.7157  132.3734  151.8240 C   0  0  0  0  0  0  0  0  0  0  0  0
  144.8928  133.5154  152.4311 C   0  0  0  0  0  0  0  0  0  0  0  0
  143.7917  133.8014  151.4064 C   0  0  0  0  0  0  0  0  0  0  0  0
  143.5797  132.4940  150.6315 C   0  0  0  0  0  0  0  0  0  0  0  0
  144.6412  131.5130  151.1428 C   0  0  0  0  0  0  0  0  0  0  0  0
  147.6424  132.4724  153.5642 C   0  0  0  0  0  0  0  0  0  0  0  0
  148.2476  133.2842  152.6963 F   0  0  0  0  0  0  0  0  0  0  0  0
  147.0459  133.2149  154.4978 F   0  0  0  0  0  0  0  0  0  0  0  0
  148.5818  131.7239  154.1408 F   0  0  0  0  0  0  0  0  0  0  0  0
  148.5557  129.0452  150.8621 H   0  0  0  0  0  0  0  0  0  0  0  0
  149.0897  127.2684  149.5198 H   0  0  0  0  0  0  0  0  0  0  0  0
  149.5073  124.7935  149.3561 H   0  0  0  0  0  0  0  0  0  0  0  0
  148.8719  123.3690  151.3352 H   0  0  0  0  0  0  0  0  0  0  0  0
  147.9089  130.8250  151.3491 H   0  0  0  0  0  0  0  0  0  0  0  0
  145.9543  131.1561  153.5825 H   0  0  0  0  0  0  0  0  0  0  0  0
  146.3485  132.7961  151.0418 H   0  0  0  0  0  0  0  0  0  0  0  0
  144.4419  133.1923  153.3706 H   0  0  0  0  0  0  0  0  0  0  0  0
  145.4906  134.4036  152.6364 H   0  0  0  0  0  0  0  0  0  0  0  0
  142.8761  134.1511  151.8844 H   0  0  0  0  0  0  0  0  0  0  0  0
  144.1197  134.5832  150.7201 H   0  0  0  0  0  0  0  0  0  0  0  0
  142.5756  132.0953  150.7811 H   0  0  0  0  0  0  0  0  0  0  0  0
  143.7038  132.6699  149.5625 H   0  0  0  0  0  0  0  0  0  0  0  0
  145.0469  130.8942  150.3418 H   0  0  0  0  0  0  0  0  0  0  0  0
  144.1873  130.8425  151.8743 H   0  0  0  0  0  0  0  0  0  0  0  0
  1  2  2  0  0  0  0
  2  3  1  0  0  0  0
  2 10  1  0  0  0  0
  3  4  1  0  0  0  0
  3 21  1  0  0  0  0
  4  9  1  0  0  0  0
  4  5  2  0  0  0  0
  5  6  1  0  0  0  0
  5 22  1  0  0  0  0
  6  7  2  0  0  0  0
  6 23  1  0  0  0  0
  7  8  1  0  0  0  0
  7 24  1  0  0  0  0
  8  9  2  0  0  0  0
 10 11  1  0  0  0  0
 10 25  1  0  0  0  0
 11 12  1  0  0  0  0
 11 17  1  0  0  0  0
 11 26  1  0  0  0  0
 12 16  1  0  0  0  0
 12 13  1  0  0  0  0
 12 27  1  0  0  0  0
 13 14  1  0  0  0  0
 13 28  1  0  0  0  0
 13 29  1  0  0  0  0
 14 15  1  0  0  0  0
 14 30  1  0  0  0  0
 14 31  1  0  0  0  0
 15 16  1  0  0  0  0
 15 32  1  0  0  0  0
 15 33  1  0  0  0  0
 16 34  1  0  0  0  0
 16 35  1  0  0  0  0
 17 18  1  0  0  0  0
 17 19  1  0  0  0  0
 17 20  1  0  0  0  0
M  END
> <s_m_source_file>
AV-unprocessed.smi

> <i_m_source_file_index>
2391

> <i_lp_mmshare_version>
43012

> <i_f3d_flags>
0

> <s_epik_input>
W0NIMl0xW0NIMl1bQ0gyXVtDSDJdW0NIXTFbQ0BIXShDKEYpKEYpRilbTkhdQyg9TylbTkhdYzJbY0hdW2NIXVtjSF1ubjI=

> <s_epik_cmdline>
J2VwaWtfcHl0aG9uJywgJy1waCcsICc3LjAnLCAnLXRuJywgJzgnLCAnLW1hJywgJzIwMCcsICctbWV0YWxfYmluZGluZycsICctaW1hZScsICc8aW5maWxlLm1hZT4nLCAnLW9tYWUnLCAnPG91dGZpbGUubWFlPic=

> <r_lp_tautomer_probability>
1

> <r_epik_Ionization_Penalty>
0.00359591

> <r_epik_Ionization_Penalty_Charging>
0

> <r_epik_Ionization_Penalty_Neutral>
0.00359591

> <r_epik_State_Penalty>
0.0123658

> <r_epik_Charging_Adjusted_Penalty>
0.0123658

> <i_epik_Tot_Q>
0

> <i_epik_Tot_abs_Q>
0

> <r_epik_Metal_State_Penalty>
0.0410426

> <b_epik_Metal_Only>
0

> <s_lp_Force_Field>
OPLS_2005

> <r_lp_Energy>
31.4517

> <b_lp_Chiralities_Consistent>
1

> <s_lp_Variant>
AV-unprocessed.smi:2391-1

> <Gold.Version>
5.8.1

> <Gold.Id.Protein>
6NUR|6NUR_protein|mol2

> <Gold.PLP.Fitness>
43.3721

> <Gold.PLP.PLP>
-39.7855

> <Gold.PLP.part.hbond>
-3.5904

> <Gold.PLP.part.metal>
0.0000

> <Gold.PLP.part.buried>
-5.0751

> <Gold.PLP.part.nonpolar>
-30.7941

> <Gold.PLP.part.repulsive>
0.2730

> <Gold.PLP.ligand.clash>
0.0149

> <Gold.PLP.ligand.torsion>
0.4672

> <Gold.PLP.Chemscore.Hbond>
1.4104

> <Gold.PLP.Chemscore.CHOScore>
0.0000

> <Gold.PLP.Chemscore.Metal>
0.0000

> <Gold.Chemscore.Hbonds>
donor molecule, donor type, donor heavy atom, donor atom, acceptor molecule, acceptor atom, score
      L1  H     3    21       P1 10747  0.32
      L1  H    10    25       P1 10747  0.94

> <Gold.PLP.Chemscore.Internal.Correction>
0.3048

> <Gold.Rescore>
     Score         DG    S(hbond)    S(metal)    S(lipo)     H(rot)  DE(clash)    DE(int)     intcor
     11.32     -13.54       0.99        0.00      69.65       1.33       0.06       2.16       ----

> <Gold.Chemscore.Fitness>
11.3242

> <Gold.Chemscore.DG>
-13.5432

> <Gold.Chemscore.ZeroCoef>
-5.4800

> <Gold.Chemscore.Hbond>
0.9940

> <Gold.Chemscore.Metal>
0.0000

> <Gold.Chemscore.Lipo>
69.6483

> <Gold.Chemscore.Internal_Hbond>
0.0000

> <Gold.Chemscore.DEClash>
0.0580

> <Gold.Chemscore.DEInternal>
2.1610

> <Gold.Chemscore.Rot>
1.3304

> <Gold.Chemscore.Internal.Correction>
   9.000000E+99

> <Gold.Chemscore.Hbonds>
donor molecule, donor type, donor heavy atom, donor atom, acceptor molecule, acceptor atom, score
      L1  H     3    21       P1 10747  0.01
      L1  H    10    25       P1 10747  0.90

> <Gold.Chemscore.Hbond.Weighted>
-3.3201

> <Gold.Chemscore.Metal.Weighted>
-0.0000

> <Gold.Chemscore.Lipo.Weighted>
-8.1488

> <Gold.Chemscore.Internal_Hbond.Weighted>
0.0000

> <Gold.Chemscore.DEClash.Weighted>
0.0580

> <Gold.Chemscore.DEInternal.Weighted>
2.1610

> <Gold.Chemscore.Rot.Weighted>
3.4057

> <Gold.Chemscore.Internal.Correction.Weighted>
   9.000000E+99

> <Gold.Protein.RotatedTorsions>
[ 6907 6896 6895 6894 ] final -116.44 input  -60.11 | X-H torsion
[ 7974 7965 7964 7962 ] final  -39.23 input  175.53 | X-H torsion
[ 8008 7997 7996 7995 ] final  -87.00 input   59.86 | X-H torsion
[ 10167 10162 10161 10158 ] final -152.39 input  -65.29 | X-H torsion
[ 10718 10713 10712 10709 ] final  -99.31 input   66.30 | X-H torsion
[ 10763 10752 10751 10750 ] final -105.39 input  -60.55 | X-H torsion
[ 11005 11000 10999 10996 ] final -162.52 input  -57.11 | X-H torsion

> <Gold.Protein.ActiveResidues>
 VAL166  LYS551  ARG553  GLY616  TRP617  ASP618  TYR619  PRO620  LYS621  CYS622 
 ASP623  PHE694  ASN695  SER759  ASP760  ASP761  ALA762  ILE779  LEU786  VAL792 
 PHE793  MET794  SER795  GLU796  ALA797  LYS798  CYS799  TRP800  GLU811  SER814 

> <Gold.Protein.RotatedAtoms>
  150.8056  133.8517  159.3207 H   0  0  0  0  0  0  0  0  0  0  0  0  # atno 6907 bound_to 6896
  151.6317  135.1020  160.0132 H   0  0  0  0  0  0  0  0  0  0  0  0  # atno 6908 bound_to 6896
  152.4146  133.6978  159.6463 H   0  0  0  0  0  0  0  0  0  0  0  0  # atno 6909 bound_to 6896
  146.0415  140.6602  142.9085 H   0  0  0  0  0  0  0  0  0  0  0  0  # atno 7974 bound_to 7965
  154.6583  140.0571  157.0033 H   0  0  0  0  0  0  0  0  0  0  0  0  # atno 8008 bound_to 7997
  155.1267  140.3252  155.4465 H   0  0  0  0  0  0  0  0  0  0  0  0  # atno 8009 bound_to 7997
  156.2607  140.1988  156.6387 H   0  0  0  0  0  0  0  0  0  0  0  0  # atno 8010 bound_to 7997
  139.7185  143.8994  152.2495 H   0  0  0  0  0  0  0  0  0  0  0  0  # atno 10167 bound_to 10162
  156.0130  130.5277  150.6651 H   0  0  0  0  0  0  0  0  0  0  0  0  # atno 10718 bound_to 10713
  154.7943  135.4751  154.0125 H   0  0  0  0  0  0  0  0  0  0  0  0  # atno 10763 bound_to 10752
  153.1679  135.6820  153.8656 H   0  0  0  0  0  0  0  0  0  0  0  0  # atno 10764 bound_to 10752
  153.8248  135.3199  155.3391 H   0  0  0  0  0  0  0  0  0  0  0  0  # atno 10765 bound_to 10752
  140.6083  134.4876  157.5213 H   0  0  0  0  0  0  0  0  0  0  0  0  # atno 11005 bound_to 11000
  144.7077  140.3916  143.7105 LP  0  0  0  0  0  0  0  0  0  0  0  0  # atno 17320 bound_to 7965
  145.6877  139.1632  143.2665 LP  0  0  0  0  0  0  0  0  0  0  0  0  # atno 17321 bound_to 7965
  139.8884  144.6979  150.8799 LP  0  0  0  0  0  0  0  0  0  0  0  0  # atno 17342 bound_to 10162
  140.7749  143.3606  151.1836 LP  0  0  0  0  0  0  0  0  0  0  0  0  # atno 17343 bound_to 10162
  157.4385  131.0858  151.0967 LP  0  0  0  0  0  0  0  0  0  0  0  0  # atno 17370 bound_to 10713
  157.1519  130.6187  149.5585 LP  0  0  0  0  0  0  0  0  0  0  0  0  # atno 17371 bound_to 10713
  139.9203  134.8162  156.1233 LP  0  0  0  0  0  0  0  0  0  0  0  0  # atno 17394 bound_to 11000
  141.0825  133.6748  156.2367 LP  0  0  0  0  0  0  0  0  0  0  0  0  # atno 17395 bound_to 11000

$$$$
