AV-unprocessed.smi:2031|AV-procd|sdf|8230|dock9
  -GOLD-   2272010503D 1   1.00000     0.00000
 Structure written by MMmdl.
 41 42  0  0  0  0  0  0  0  0  3 V2000
  153.9022  137.6672  161.6917 C   0  0  0  0  0  0  0  0  0  0  0  0
  153.8138  137.7374  160.2059 C   0  0  0  0  0  0  0  0  0  0  0  0
  153.0089  137.1192  159.2911 C   0  0  0  0  0  0  0  0  0  0  0  0
  153.4651  137.6460  158.0533 C   0  0  0  0  0  0  0  0  0  0  0  0
  152.8682  137.2400  156.8303 N   0  0  0  0  0  0  0  0  0  0  0  0
  152.4511  138.0013  155.8021 C   0  0  0  0  0  0  0  0  0  0  0  0
  152.5657  139.2318  155.8497 O   0  0  0  0  0  0  0  0  0  0  0  0
  151.9274  137.2561  154.7898 N   0  5  0  0  0  0  0  0  0  0  0  0
  150.5226  136.8676  154.6744 C   0  0  0  0  0  0  0  0  0  0  0  0
  150.3388  135.4248  155.1821 C   0  0  0  0  0  0  0  0  0  0  0  0
  149.2646  134.7147  154.4302 N   0  3  0  0  0  0  0  0  0  0  0  0
  147.9104  134.8326  155.0358 C   0  0  0  0  0  0  0  0  0  0  0  0
  146.8667  135.1528  153.9520 C   0  0  0  0  0  0  0  0  0  0  0  0
  146.4698  133.9605  153.0684 C   0  0  0  0  0  0  0  0  0  0  0  0
  147.6505  133.2585  152.3776 C   0  0  0  0  0  0  0  0  0  0  0  0
  148.5359  132.4931  153.3741 C   0  0  0  0  0  0  0  0  0  0  0  0
  149.6493  133.3260  154.0403 C   0  0  0  0  0  0  0  0  0  0  0  0
  154.4608  138.5075  158.2010 N   0  0  0  0  0  0  0  0  0  0  0  0
  154.6889  138.5705  159.5807 O   0  0  0  0  0  0  0  0  0  0  0  0
  153.1816  136.9541  162.0924 H   0  0  0  0  0  0  0  0  0  0  0  0
  153.6980  138.6413  162.1366 H   0  0  0  0  0  0  0  0  0  0  0  0
  154.8981  137.3534  162.0047 H   0  0  0  0  0  0  0  0  0  0  0  0
  152.2201  136.4059  159.4784 H   0  0  0  0  0  0  0  0  0  0  0  0
  152.7331  136.2460  156.7215 H   0  0  0  0  0  0  0  0  0  0  0  0
  149.8817  137.5294  155.2575 H   0  0  0  0  0  0  0  0  0  0  0  0
  150.1490  136.9269  153.6513 H   0  0  0  0  0  0  0  0  0  0  0  0
  151.2768  134.8711  155.1149 H   0  0  0  0  0  0  0  0  0  0  0  0
  150.1090  135.4771  156.2466 H   0  0  0  0  0  0  0  0  0  0  0  0
  147.6484  133.9423  155.6090 H   0  0  0  0  0  0  0  0  0  0  0  0
  147.8761  135.6581  155.7464 H   0  0  0  0  0  0  0  0  0  0  0  0
  145.9644  135.5282  154.4362 H   0  0  0  0  0  0  0  0  0  0  0  0
  147.2285  135.9712  153.3275 H   0  0  0  0  0  0  0  0  0  0  0  0
  145.9119  133.2359  153.6631 H   0  0  0  0  0  0  0  0  0  0  0  0
  145.7743  134.3132  152.3058 H   0  0  0  0  0  0  0  0  0  0  0  0
  147.2413  132.5422  151.6640 H   0  0  0  0  0  0  0  0  0  0  0  0
  148.2402  133.9638  151.7902 H   0  0  0  0  0  0  0  0  0  0  0  0
  147.9103  132.0293  154.1375 H   0  0  0  0  0  0  0  0  0  0  0  0
  149.0112  131.6600  152.8550 H   0  0  0  0  0  0  0  0  0  0  0  0
  150.4958  133.3861  153.3555 H   0  0  0  0  0  0  0  0  0  0  0  0
  150.0052  132.7844  154.9179 H   0  0  0  0  0  0  0  0  0  0  0  0
  149.1888  135.2322  153.5661 H   0  0  0  0  0  0  0  0  0  0  0  0
  1  2  1  0  0  0  0
  1 20  1  0  0  0  0
  1 21  1  0  0  0  0
  1 22  1  0  0  0  0
  2 19  1  0  0  0  0
  2  3  2  0  0  0  0
  3  4  1  0  0  0  0
  3 23  1  0  0  0  0
  4  5  1  0  0  0  0
  4 18  2  0  0  0  0
  5  6  1  0  0  0  0
  5 24  1  0  0  0  0
  6  7  2  0  0  0  0
  6  8  1  0  0  0  0
  8  9  1  0  0  0  0
  9 10  1  0  0  0  0
  9 25  1  0  0  0  0
  9 26  1  0  0  0  0
 10 11  1  0  0  0  0
 10 27  1  0  0  0  0
 10 28  1  0  0  0  0
 11 17  1  0  0  0  0
 11 12  1  0  0  0  0
 11 41  1  0  0  0  0
 12 13  1  0  0  0  0
 12 29  1  0  0  0  0
 12 30  1  0  0  0  0
 13 14  1  0  0  0  0
 13 31  1  0  0  0  0
 13 32  1  0  0  0  0
 14 15  1  0  0  0  0
 14 33  1  0  0  0  0
 14 34  1  0  0  0  0
 15 16  1  0  0  0  0
 15 35  1  0  0  0  0
 15 36  1  0  0  0  0
 16 17  1  0  0  0  0
 16 37  1  0  0  0  0
 16 38  1  0  0  0  0
 17 39  1  0  0  0  0
 17 40  1  0  0  0  0
 18 19  1  0  0  0  0
M  CHG  1   8  -1
M  CHG  1  11   1
M  END
> <s_m_source_file>
AV-unprocessed.smi

> <i_m_source_file_index>
2031

> <i_lp_mmshare_version>
43012

> <i_f3d_flags>
0

> <s_epik_input>
W0NIM11jMVtjSF1jKG5vMSlbTkhdQyg9TylbTkhdW0NIMl1bQ0gyXU4yW0NIMl1bQ0gyXVtDSDJdW0NIMl1bQ0gyXVtDSDJdMg==

> <s_epik_cmdline>
J2VwaWtfcHl0aG9uJywgJy1waCcsICc3LjAnLCAnLXRuJywgJzgnLCAnLW1hJywgJzIwMCcsICctbWV0YWxfYmluZGluZycsICctaW1hZScsICc8aW5maWxlLm1hZT4nLCAnLW9tYWUnLCAnPG91dGZpbGUubWFlPic=

> <r_epik_Ionization_Penalty>
6.7666

> <r_epik_Ionization_Penalty_Charging>
6.7666

> <r_epik_Ionization_Penalty_Neutral>
5.77131e-06

> <r_epik_State_Penalty>
6.79217

> <r_epik_Charging_Adjusted_Penalty>
13.5588

> <i_epik_Tot_Q>
0

> <i_epik_Tot_abs_Q>
2

> <r_epik_Metal_State_Penalty>
2.72569

> <b_epik_Metal_Only>
1

> <s_lp_Force_Field>
OPLS_2005

> <r_lp_Energy>
19.0994

> <b_lp_Chiralities_Consistent>
1

> <s_lp_Variant>
AV-unprocessed.smi:2031-3

> <Gold.Version>
5.8.1

> <Gold.Id.Protein>
6NUR|6NUR_protein|mol2

> <Gold.PLP.Fitness>
39.2074

> <Gold.PLP.PLP>
-26.3411

> <Gold.PLP.part.hbond>
-4.0000

> <Gold.PLP.part.metal>
0.0000

> <Gold.PLP.part.buried>
-3.2239

> <Gold.PLP.part.nonpolar>
-19.2942

> <Gold.PLP.part.repulsive>
0.2868

> <Gold.PLP.ligand.clash>
0.0000

> <Gold.PLP.ligand.torsion>
2.0334

> <Gold.PLP.Chemscore.Hbond>
5.6240

> <Gold.PLP.Chemscore.CHOScore>
0.0000

> <Gold.PLP.Chemscore.Metal>
0.0000

> <Gold.Chemscore.Hbonds>
donor molecule, donor type, donor heavy atom, donor atom, acceptor molecule, acceptor atom, score
      L1  H    11    41       P1  7948  2.00
      P1  H  7997  8009       L1    18  0.77
      P1  H  7997  8010       L1     7  0.76
      P1  H 10752 10765       L1     8  1.92

> <Gold.PLP.Chemscore.Internal.Correction>
0.0611

> <Gold.Rescore>
     Score         DG    S(hbond)    S(metal)    S(lipo)     H(rot)  DE(clash)    DE(int)     intcor
     14.27     -16.43       2.66        0.00      51.36       1.54       0.00       2.15       ----

> <Gold.Chemscore.Fitness>
14.2745

> <Gold.Chemscore.DG>
-16.4272

> <Gold.Chemscore.ZeroCoef>
-5.4800

> <Gold.Chemscore.Hbond>
2.6594

> <Gold.Chemscore.Metal>
0.0000

> <Gold.Chemscore.Lipo>
51.3643

> <Gold.Chemscore.Internal_Hbond>
0.0000

> <Gold.Chemscore.DEClash>
0.0048

> <Gold.Chemscore.DEInternal>
2.1479

> <Gold.Chemscore.Rot>
1.5409

> <Gold.Chemscore.Internal.Correction>
   9.000000E+99

> <Gold.Chemscore.Hbonds>
donor molecule, donor type, donor heavy atom, donor atom, acceptor molecule, acceptor atom, score
      L1  H    11    41       P1  7948  0.34
      P1  H  7997  8009       L1    18  0.56
      P1  H  7997  8010       L1     7  0.71
      P1  H 10752 10765       L1     8  0.42

> <Gold.Chemscore.Hbond.Weighted>
-8.8823

> <Gold.Chemscore.Metal.Weighted>
-0.0000

> <Gold.Chemscore.Lipo.Weighted>
-6.0096

> <Gold.Chemscore.Internal_Hbond.Weighted>
0.0000

> <Gold.Chemscore.DEClash.Weighted>
0.0048

> <Gold.Chemscore.DEInternal.Weighted>
2.1479

> <Gold.Chemscore.Rot.Weighted>
3.9446

> <Gold.Chemscore.Internal.Correction.Weighted>
   9.000000E+99

> <Gold.Protein.RotatedTorsions>
[ 6907 6896 6895 6894 ] final  -86.07 input  -60.11 | X-H torsion
[ 7974 7965 7964 7962 ] final  -87.63 input  175.53 | X-H torsion
[ 8008 7997 7996 7995 ] final  106.00 input   59.86 | X-H torsion
[ 10167 10162 10161 10158 ] final   64.76 input  -65.29 | X-H torsion
[ 10718 10713 10712 10709 ] final  130.24 input   66.30 | X-H torsion
[ 10763 10752 10751 10750 ] final  171.38 input  -60.55 | X-H torsion
[ 11005 11000 10999 10996 ] final -110.69 input  -57.11 | X-H torsion

> <Gold.Protein.ActiveResidues>
 VAL166  LYS551  ARG553  GLY616  TRP617  ASP618  TYR619  PRO620  LYS621  CYS622 
 ASP623  PHE694  ASN695  SER759  ASP760  ASP761  ALA762  ILE779  LEU786  VAL792 
 PHE793  MET794  SER795  GLU796  ALA797  LYS798  CYS799  TRP800  GLU811  SER814 

> <Gold.Protein.RotatedAtoms>
  150.6868  134.3107  159.4744 H   0  0  0  0  0  0  0  0  0  0  0  0  # atno 6907 bound_to 6896
  152.0993  134.9350  160.0579 H   0  0  0  0  0  0  0  0  0  0  0  0  # atno 6908 bound_to 6896
  152.0635  133.4038  159.4465 H   0  0  0  0  0  0  0  0  0  0  0  0  # atno 6909 bound_to 6896
  145.4640  140.9560  143.1954 H   0  0  0  0  0  0  0  0  0  0  0  0  # atno 7974 bound_to 7965
  156.1707  140.3120  155.8968 H   0  0  0  0  0  0  0  0  0  0  0  0  # atno 8008 bound_to 7997
  155.3593  140.0475  157.3063 H   0  0  0  0  0  0  0  0  0  0  0  0  # atno 8009 bound_to 7997
  154.5238  140.2207  155.8938 H   0  0  0  0  0  0  0  0  0  0  0  0  # atno 8010 bound_to 7997
  140.1187  144.4752  150.6934 H   0  0  0  0  0  0  0  0  0  0  0  0  # atno 10167 bound_to 10162
  157.5080  131.1096  150.9333 H   0  0  0  0  0  0  0  0  0  0  0  0  # atno 10718 bound_to 10713
  154.4110  135.2756  155.2036 H   0  0  0  0  0  0  0  0  0  0  0  0  # atno 10763 bound_to 10752
  154.4022  135.6042  153.5907 H   0  0  0  0  0  0  0  0  0  0  0  0  # atno 10764 bound_to 10752
  152.9831  135.5929  154.4392 H   0  0  0  0  0  0  0  0  0  0  0  0  # atno 10765 bound_to 10752
  141.0777  133.9272  157.2354 H   0  0  0  0  0  0  0  0  0  0  0  0  # atno 11005 bound_to 11000
  144.7985  139.6186  143.7082 LP  0  0  0  0  0  0  0  0  0  0  0  0  # atno 17320 bound_to 7965
  146.2435  139.6049  142.9475 LP  0  0  0  0  0  0  0  0  0  0  0  0  # atno 17321 bound_to 7965
  140.6885  143.2363  151.5196 LP  0  0  0  0  0  0  0  0  0  0  0  0  # atno 17342 bound_to 10162
  139.5580  144.2226  152.1645 LP  0  0  0  0  0  0  0  0  0  0  0  0  # atno 17343 bound_to 10162
  156.9982  130.5589  149.5309 LP  0  0  0  0  0  0  0  0  0  0  0  0  # atno 17370 bound_to 10713
  156.0271  130.5364  150.8435 LP  0  0  0  0  0  0  0  0  0  0  0  0  # atno 17371 bound_to 10713
  139.9590  135.0159  156.9208 LP  0  0  0  0  0  0  0  0  0  0  0  0  # atno 17394 bound_to 11000
  140.5536  134.0603  155.7377 LP  0  0  0  0  0  0  0  0  0  0  0  0  # atno 17395 bound_to 11000

$$$$
