AV-unprocessed.smi:1748|AV-procd|sdf|7036|dock3
  -GOLD-   22720 8253D 1   1.00000     0.00000
 Structure written by MMmdl.
 40 41  0  0  0  0  0  0  0  0  2 V2000
  145.1844  133.6779  150.4754 C   0  0  0  0  0  0  0  0  0  0  0  0
  144.2791  134.6017  151.1919 N   0  3  1  0  0  0  0  0  0  0  0  0
  143.6198  133.9588  152.3561 C   0  0  0  0  0  0  0  0  0  0  0  0
  142.5914  134.9048  152.9984 C   0  0  0  0  0  0  0  0  0  0  0  0
  143.2403  136.2380  153.3958 C   0  0  0  0  0  0  0  0  0  0  0  0
  143.9430  136.8680  152.1820 C   0  0  1  0  0  0  0  0  0  0  0  0
  144.6114  138.1028  152.5810 N   0  0  0  0  0  0  0  0  0  0  0  0
  145.8119  138.1734  153.1735 C   0  0  0  0  0  0  0  0  0  0  0  0
  146.4803  137.1798  153.4580 O   0  0  0  0  0  0  0  0  0  0  0  0
  146.1514  139.4517  153.4210 N   0  0  0  0  0  0  0  0  0  0  0  0
  147.3262  139.9646  153.9967 C   0  0  0  0  0  0  0  0  0  0  0  0
  148.3848  139.2151  154.4019 C   0  0  0  0  0  0  0  0  0  0  0  0
  149.5776  139.8134  154.9788 C   0  0  0  0  0  0  0  0  0  0  0  0
  150.7827  138.9744  155.3754 C   0  0  0  0  0  0  0  0  0  0  0  0
  151.8799  139.3761  154.7322 F   0  0  0  0  0  0  0  0  0  0  0  0
  151.0040  139.0902  156.6840 F   0  0  0  0  0  0  0  0  0  0  0  0
  150.5850  137.6851  155.0997 F   0  0  0  0  0  0  0  0  0  0  0  0
  149.5934  141.1562  155.0657 C   0  0  0  0  0  0  0  0  0  0  0  0
  148.5090  141.9337  154.6533 N   0  0  0  0  0  0  0  0  0  0  0  0
  147.3730  141.4311  154.1201 C   0  0  0  0  0  0  0  0  0  0  0  0
  146.4627  142.1838  153.7746 O   0  0  0  0  0  0  0  0  0  0  0  0
  144.9485  135.8726  151.5645 C   0  0  0  0  0  0  0  0  0  0  0  0
  148.5944  142.9343  154.7603 H   0  0  0  0  0  0  0  0  0  0  0  0
  146.0120  133.3667  151.1140 H   0  0  0  0  0  0  0  0  0  0  0  0
  145.5984  134.1562  149.5872 H   0  0  0  0  0  0  0  0  0  0  0  0
  144.6471  132.7859  150.1517 H   0  0  0  0  0  0  0  0  0  0  0  0
  143.1211  133.0435  152.0347 H   0  0  0  0  0  0  0  0  0  0  0  0
  144.3738  133.6689  153.0897 H   0  0  0  0  0  0  0  0  0  0  0  0
  141.7758  135.0893  152.2978 H   0  0  0  0  0  0  0  0  0  0  0  0
  142.1457  134.4321  153.8739 H   0  0  0  0  0  0  0  0  0  0  0  0
  142.4833  136.9170  153.7908 H   0  0  0  0  0  0  0  0  0  0  0  0
  143.9593  136.0690  154.1990 H   0  0  0  0  0  0  0  0  0  0  0  0
  143.1814  137.1089  151.4373 H   0  0  0  0  0  0  0  0  0  0  0  0
  144.1273  138.9672  152.3858 H   0  0  0  0  0  0  0  0  0  0  0  0
  145.4601  140.1514  153.1927 H   0  0  0  0  0  0  0  0  0  0  0  0
  148.3794  138.1432  154.2926 H   0  0  0  0  0  0  0  0  0  0  0  0
  150.4250  141.7307  155.4467 H   0  0  0  0  0  0  0  0  0  0  0  0
  145.7594  135.6656  152.2652 H   0  0  0  0  0  0  0  0  0  0  0  0
  145.4032  136.3088  150.6738 H   0  0  0  0  0  0  0  0  0  0  0  0
  143.5448  134.8443  150.5420 H   0  0  0  0  0  0  0  0  0  0  0  0
  1  2  1  0  0  0  0
  1 24  1  0  0  0  0
  1 25  1  0  0  0  0
  1 26  1  0  0  0  0
  2 22  1  0  0  0  0
  2  3  1  0  0  0  0
  2 40  1  0  0  0  0
  3  4  1  0  0  0  0
  3 27  1  0  0  0  0
  3 28  1  0  0  0  0
  4  5  1  0  0  0  0
  4 29  1  0  0  0  0
  4 30  1  0  0  0  0
  5  6  1  0  0  0  0
  5 31  1  0  0  0  0
  5 32  1  0  0  0  0
  6  7  1  0  0  0  0
  6 22  1  0  0  0  0
  6 33  1  0  0  0  0
  7  8  1  0  0  0  0
  7 34  1  0  0  0  0
  8  9  2  0  0  0  0
  8 10  1  0  0  0  0
 10 11  1  0  0  0  0
 10 35  1  0  0  0  0
 11 20  1  0  0  0  0
 11 12  2  0  0  0  0
 12 13  1  0  0  0  0
 12 36  1  0  0  0  0
 13 14  1  0  0  0  0
 13 18  2  0  0  0  0
 14 15  1  0  0  0  0
 14 16  1  0  0  0  0
 14 17  1  0  0  0  0
 18 19  1  0  0  0  0
 18 37  1  0  0  0  0
 19 23  1  0  0  0  0
 19 20  1  0  0  0  0
 20 21  2  0  0  0  0
 22 38  1  0  0  0  0
 22 39  1  0  0  0  0
M  CHG  1   2   1
M  END
> <s_m_source_file>
AV-unprocessed.smi

> <i_m_source_file_index>
1748

> <i_lp_mmshare_version>
43012

> <i_f3d_flags>
0

> <s_epik_input>
W0NIM11OMVtDSDJdW0NIMl1bQ0gyXVtDQEhdKFtDSDJdMSlbTkhdQyg9TylbTkhdYzJbY0hdYyhDKEYpKEYpRilbY0hdW25IXWMyPU8=

> <s_epik_cmdline>
J2VwaWtfcHl0aG9uJywgJy1waCcsICc3LjAnLCAnLXRuJywgJzgnLCAnLW1hJywgJzIwMCcsICctbWV0YWxfYmluZGluZycsICctaW1hZScsICc8aW5maWxlLm1hZT4nLCAnLW9tYWUnLCAnPG91dGZpbGUubWFlPic=

> <r_lp_tautomer_probability>
1

> <r_epik_Ionization_Penalty>
0.00746315

> <r_epik_Ionization_Penalty_Charging>
0.00744398

> <r_epik_Ionization_Penalty_Neutral>
1.91704e-05

> <r_epik_State_Penalty>
-0

> <r_epik_Charging_Adjusted_Penalty>
0.00744398

> <i_epik_Tot_Q>
1

> <i_epik_Tot_abs_Q>
1

> <r_epik_Metal_State_Penalty>
0.379332

> <b_epik_Metal_Only>
0

> <s_lp_Force_Field>
OPLS_2005

> <r_lp_Energy>
25.304

> <b_lp_Chiralities_Consistent>
1

> <s_lp_Variant>
AV-unprocessed.smi:1748-1

> <Gold.Version>
5.8.1

> <Gold.Id.Protein>
6NUR|6NUR_protein|mol2

> <Gold.PLP.Fitness>
41.1286

> <Gold.PLP.PLP>
-32.9852

> <Gold.PLP.part.hbond>
-4.0000

> <Gold.PLP.part.metal>
0.0000

> <Gold.PLP.part.buried>
-1.8357

> <Gold.PLP.part.nonpolar>
-28.5862

> <Gold.PLP.part.repulsive>
0.9908

> <Gold.PLP.ligand.clash>
0.0000

> <Gold.PLP.ligand.torsion>
0.3374

> <Gold.PLP.Chemscore.Hbond>
2.9280

> <Gold.PLP.Chemscore.CHOScore>
0.0000

> <Gold.PLP.Chemscore.Metal>
0.0000

> <Gold.Chemscore.Hbonds>
donor molecule, donor type, donor heavy atom, donor atom, acceptor molecule, acceptor atom, score
      L1  H     7    34       P1 10175  1.00
      L1  H    10    35       P1 10175  0.91
      L1  H    19    23       P1  8028  1.00

> <Gold.PLP.Chemscore.Internal.Correction>
0.0342

> <Gold.Rescore>
     Score         DG    S(hbond)    S(metal)    S(lipo)     H(rot)  DE(clash)    DE(int)     intcor
     15.51     -19.34       2.83        0.00      59.57       1.00       0.83       3.00       ----

> <Gold.Chemscore.Fitness>
15.5142

> <Gold.Chemscore.DG>
-19.3374

> <Gold.Chemscore.ZeroCoef>
-5.4800

> <Gold.Chemscore.Hbond>
2.8286

> <Gold.Chemscore.Metal>
0.0000

> <Gold.Chemscore.Lipo>
59.5725

> <Gold.Chemscore.Internal_Hbond>
0.0000

> <Gold.Chemscore.DEClash>
0.8276

> <Gold.Chemscore.DEInternal>
2.9957

> <Gold.Chemscore.Rot>
1.0000

> <Gold.Chemscore.Internal.Correction>
   9.000000E+99

> <Gold.Chemscore.Hbonds>
donor molecule, donor type, donor heavy atom, donor atom, acceptor molecule, acceptor atom, score
      L1  H     7    34       P1 10175  0.94
      L1  H    10    35       P1 10175  0.89
      L1  H    19    23       P1  8028  0.96

> <Gold.Chemscore.Hbond.Weighted>
-9.4474

> <Gold.Chemscore.Metal.Weighted>
-0.0000

> <Gold.Chemscore.Lipo.Weighted>
-6.9700

> <Gold.Chemscore.Internal_Hbond.Weighted>
0.0000

> <Gold.Chemscore.DEClash.Weighted>
0.8276

> <Gold.Chemscore.DEInternal.Weighted>
2.9957

> <Gold.Chemscore.Rot.Weighted>
2.5600

> <Gold.Chemscore.Internal.Correction.Weighted>
   9.000000E+99

> <Gold.Protein.RotatedTorsions>
[ 6907 6896 6895 6894 ] final   46.12 input  -60.11 | X-H torsion
[ 7974 7965 7964 7962 ] final -153.57 input  175.53 | X-H torsion
[ 8008 7997 7996 7995 ] final  122.71 input   59.86 | X-H torsion
[ 10167 10162 10161 10158 ] final   96.83 input  -65.29 | X-H torsion
[ 10718 10713 10712 10709 ] final  179.03 input   66.30 | X-H torsion
[ 10763 10752 10751 10750 ] final  -48.88 input  -60.55 | X-H torsion
[ 11005 11000 10999 10996 ] final  132.16 input  -57.11 | X-H torsion

> <Gold.Protein.ActiveResidues>
 VAL166  LYS551  ARG553  GLY616  TRP617  ASP618  TYR619  PRO620  LYS621  CYS622 
 ASP623  PHE694  ASN695  SER759  ASP760  ASP761  ALA762  ILE779  LEU786  VAL792 
 PHE793  MET794  SER795  GLU796  ALA797  LYS798  CYS799  TRP800  GLU811  SER814 

> <Gold.Protein.RotatedAtoms>
  152.2527  134.8116  160.0443 H   0  0  0  0  0  0  0  0  0  0  0  0  # atno 6907 bound_to 6896
  151.8791  133.3486  159.3768 H   0  0  0  0  0  0  0  0  0  0  0  0  # atno 6908 bound_to 6896
  150.7089  134.4964  159.5584 H   0  0  0  0  0  0  0  0  0  0  0  0  # atno 6909 bound_to 6896
  144.7734  140.4508  143.5891 H   0  0  0  0  0  0  0  0  0  0  0  0  # atno 7974 bound_to 7965
  156.2738  140.2779  156.1510 H   0  0  0  0  0  0  0  0  0  0  0  0  # atno 8008 bound_to 7997
  155.0853  140.0388  157.2669 H   0  0  0  0  0  0  0  0  0  0  0  0  # atno 8009 bound_to 7997
  154.6932  140.2633  155.6798 H   0  0  0  0  0  0  0  0  0  0  0  0  # atno 8010 bound_to 7997
  139.7857  144.6871  150.9960 H   0  0  0  0  0  0  0  0  0  0  0  0  # atno 10167 bound_to 10162
  156.8818  130.9818  151.3061 H   0  0  0  0  0  0  0  0  0  0  0  0  # atno 10718 bound_to 10713
  154.0849  135.6586  153.4843 H   0  0  0  0  0  0  0  0  0  0  0  0  # atno 10763 bound_to 10752
  153.0342  135.5189  154.7437 H   0  0  0  0  0  0  0  0  0  0  0  0  # atno 10764 bound_to 10752
  154.6543  135.3006  154.9915 H   0  0  0  0  0  0  0  0  0  0  0  0  # atno 10765 bound_to 10752
  139.9773  134.9559  156.9543 H   0  0  0  0  0  0  0  0  0  0  0  0  # atno 11005 bound_to 11000
  145.6257  139.1529  143.2997 LP  0  0  0  0  0  0  0  0  0  0  0  0  # atno 17320 bound_to 7965
  146.1897  140.6364  142.9151 LP  0  0  0  0  0  0  0  0  0  0  0  0  # atno 17321 bound_to 7965
  140.7819  143.4434  151.0518 LP  0  0  0  0  0  0  0  0  0  0  0  0  # atno 17342 bound_to 10162
  139.8113  143.7947  152.3171 LP  0  0  0  0  0  0  0  0  0  0  0  0  # atno 17343 bound_to 10162
  157.6135  130.8601  149.8991 LP  0  0  0  0  0  0  0  0  0  0  0  0  # atno 17370 bound_to 10713
  156.0673  130.3690  150.0851 LP  0  0  0  0  0  0  0  0  0  0  0  0  # atno 17371 bound_to 10713
  140.5167  134.0948  155.7282 LP  0  0  0  0  0  0  0  0  0  0  0  0  # atno 17394 bound_to 11000
  141.1449  133.9072  157.2238 LP  0  0  0  0  0  0  0  0  0  0  0  0  # atno 17395 bound_to 11000

$$$$
