AV-unprocessed.smi:2299|AV-procd|sdf|9229|dock8
  -GOLD-   2272012453D 1   1.00000     0.00000
 Structure written by MMmdl.
 43 44  0  0  0  0  0  0  0  0  2 V2000
  146.8961  138.7213  151.4767 C   0  0  0  0  0  0  0  0  0  0  0  0
  147.1218  138.7833  152.9942 C   0  0  0  0  0  0  0  0  0  0  0  0
  146.0816  137.9414  153.7509 C   0  0  0  0  0  0  0  0  0  0  0  0
  147.1637  140.2063  153.4806 C   0  0  0  0  0  0  0  0  0  0  0  0
  146.1708  141.0964  153.3545 N   0  3  0  0  0  0  0  0  0  0  0  0
  146.5380  142.3062  153.8754 C   0  0  0  0  0  0  0  0  0  0  0  0
  147.8232  142.1580  154.3237 C   0  0  0  0  0  0  0  0  0  0  0  0
  148.1894  140.8624  154.0569 N   0  0  0  0  0  0  0  0  0  0  0  0
  149.4961  140.2636  154.3642 C   0  0  0  0  0  0  0  0  0  0  0  0
  149.9669  140.6650  155.7624 C   0  0  0  0  0  0  0  0  0  0  0  0
  149.1925  140.5990  156.7166 O   0  0  0  0  0  0  0  0  0  0  0  0
  151.2340  141.0973  155.8647 N   0  0  0  0  0  0  0  0  0  0  0  0
  151.8725  141.5828  157.0899 C   0  0  1  0  0  0  0  0  0  0  0  0
  151.1504  142.8866  157.5012 C   0  0  0  0  0  0  0  0  0  0  0  0
  151.9819  143.7972  158.4209 C   0  0  0  0  0  0  0  0  0  0  0  0
  152.2902  143.2091  159.8058 C   0  0  0  0  0  0  0  0  0  0  0  0
  153.1458  141.9322  159.7561 C   0  0  0  0  0  0  0  0  0  0  0  0
  152.3615  140.7598  159.3902 N   0  0  0  0  0  0  0  0  0  0  0  0
  151.7335  140.5406  158.2250 C   0  0  0  0  0  0  0  0  0  0  0  0
  151.0557  139.5248  158.0657 O   0  0  0  0  0  0  0  0  0  0  0  0
  147.6726  139.2645  150.9376 H   0  0  0  0  0  0  0  0  0  0  0  0
  145.9349  139.1565  151.2012 H   0  0  0  0  0  0  0  0  0  0  0  0
  146.9094  137.6912  151.1198 H   0  0  0  0  0  0  0  0  0  0  0  0
  148.0993  138.3560  153.2159 H   0  0  0  0  0  0  0  0  0  0  0  0
  146.2687  137.9597  154.8251 H   0  0  0  0  0  0  0  0  0  0  0  0
  146.1144  136.8997  153.4307 H   0  0  0  0  0  0  0  0  0  0  0  0
  145.0675  138.3052  153.5808 H   0  0  0  0  0  0  0  0  0  0  0  0
  145.8758  143.1596  153.8848 H   0  0  0  0  0  0  0  0  0  0  0  0
  148.4902  142.8617  154.8006 H   0  0  0  0  0  0  0  0  0  0  0  0
  149.4357  139.1788  154.2788 H   0  0  0  0  0  0  0  0  0  0  0  0
  150.2051  140.6004  153.6062 H   0  0  0  0  0  0  0  0  0  0  0  0
  151.7953  141.1211  155.0258 H   0  0  0  0  0  0  0  0  0  0  0  0
  152.9271  141.7817  156.8898 H   0  0  0  0  0  0  0  0  0  0  0  0
  150.9239  143.4645  156.6037 H   0  0  0  0  0  0  0  0  0  0  0  0
  150.1839  142.6698  157.9600 H   0  0  0  0  0  0  0  0  0  0  0  0
  152.9153  144.0616  157.9224 H   0  0  0  0  0  0  0  0  0  0  0  0
  151.4437  144.7357  158.5572 H   0  0  0  0  0  0  0  0  0  0  0  0
  152.8281  143.9633  160.3812 H   0  0  0  0  0  0  0  0  0  0  0  0
  151.3642  143.0219  160.3513 H   0  0  0  0  0  0  0  0  0  0  0  0
  153.9955  142.0505  159.0820 H   0  0  0  0  0  0  0  0  0  0  0  0
  153.5634  141.7426  160.7452 H   0  0  0  0  0  0  0  0  0  0  0  0
  152.2596  140.0539  160.1052 H   0  0  0  0  0  0  0  0  0  0  0  0
  145.2708  140.8948  152.9372 H   0  0  0  0  0  0  0  0  0  0  0  0
  1  2  1  0  0  0  0
  1 21  1  0  0  0  0
  1 22  1  0  0  0  0
  1 23  1  0  0  0  0
  2  3  1  0  0  0  0
  2  4  1  0  0  0  0
  2 24  1  0  0  0  0
  3 25  1  0  0  0  0
  3 26  1  0  0  0  0
  3 27  1  0  0  0  0
  4  8  1  0  0  0  0
  4  5  2  0  0  0  0
  5  6  1  0  0  0  0
  5 43  1  0  0  0  0
  6  7  2  0  0  0  0
  6 28  1  0  0  0  0
  7  8  1  0  0  0  0
  7 29  1  0  0  0  0
  8  9  1  0  0  0  0
  9 10  1  0  0  0  0
  9 30  1  0  0  0  0
  9 31  1  0  0  0  0
 10 11  2  0  0  0  0
 10 12  1  0  0  0  0
 12 13  1  0  0  0  0
 12 32  1  0  0  0  0
 13 19  1  0  0  0  0
 13 14  1  0  0  0  0
 13 33  1  0  0  0  0
 14 15  1  0  0  0  0
 14 34  1  0  0  0  0
 14 35  1  0  0  0  0
 15 16  1  0  0  0  0
 15 36  1  0  0  0  0
 15 37  1  0  0  0  0
 16 17  1  0  0  0  0
 16 38  1  0  0  0  0
 16 39  1  0  0  0  0
 17 18  1  0  0  0  0
 17 40  1  0  0  0  0
 17 41  1  0  0  0  0
 18 19  1  0  0  0  0
 18 42  1  0  0  0  0
 19 20  2  0  0  0  0
M  CHG  1   5   1
M  END
> <s_m_source_file>
AV-unprocessed.smi

> <i_m_source_file_index>
2299

> <i_lp_mmshare_version>
43012

> <i_f3d_flags>
0

> <s_epik_input>
W0NIM11bQ0hdKFtDSDNdKWMxbltjSF1bY0hdbjFbQ0gyXUMoPU8pW05IXVtDQEBIXTJbQ0gyXVtDSDJdW0NIMl1bQ0gyXVtOSF1DMj1P

> <s_epik_cmdline>
J2VwaWtfcHl0aG9uJywgJy1waCcsICc3LjAnLCAnLXRuJywgJzgnLCAnLW1hJywgJzIwMCcsICctbWV0YWxfYmluZGluZycsICctaW1hZScsICc8aW5maWxlLm1hZT4nLCAnLW9tYWUnLCAnPG91dGZpbGUubWFlPic=

> <r_lp_tautomer_probability>
1

> <r_epik_Ionization_Penalty>
0.292878

> <r_epik_Ionization_Penalty_Charging>
0

> <r_epik_Ionization_Penalty_Neutral>
0.292878

> <r_epik_State_Penalty>
0.286008

> <r_epik_Charging_Adjusted_Penalty>
0.286008

> <i_epik_Tot_Q>
1

> <i_epik_Tot_abs_Q>
1

> <r_epik_Metal_State_Penalty>
0.563502

> <b_epik_Metal_Only>
0

> <s_lp_Force_Field>
OPLS_2005

> <r_lp_Energy>
15.0936

> <b_lp_Chiralities_Consistent>
1

> <s_lp_Variant>
AV-unprocessed.smi:2299-2

> <Gold.Version>
5.8.1

> <Gold.Id.Protein>
6NUR|6NUR_protein|mol2

> <Gold.PLP.Fitness>
47.5811

> <Gold.PLP.PLP>
-39.3566

> <Gold.PLP.part.hbond>
-1.0000

> <Gold.PLP.part.metal>
0.0000

> <Gold.PLP.part.buried>
-1.6833

> <Gold.PLP.part.nonpolar>
-36.3012

> <Gold.PLP.part.repulsive>
0.3591

> <Gold.PLP.ligand.clash>
0.0000

> <Gold.PLP.ligand.torsion>
0.4131

> <Gold.PLP.Chemscore.Hbond>
2.0000

> <Gold.PLP.Chemscore.CHOScore>
1.0000

> <Gold.PLP.Chemscore.Metal>
0.0000

> <Gold.Chemscore.Hbonds>
donor molecule, donor type, donor heavy atom, donor atom, acceptor molecule, acceptor atom, score
      L1  H     5    43       P1 10175  2.00
      L1  C     7    29       P1  8028  1.00

> <Gold.PLP.Chemscore.Internal.Correction>
0.0507

> <Gold.Rescore>
     Score         DG    S(hbond)    S(metal)    S(lipo)     H(rot)  DE(clash)    DE(int)     intcor
      9.64     -14.09       0.96        0.00      84.55       1.75       0.23       4.22       ----

> <Gold.Chemscore.Fitness>
9.6398

> <Gold.Chemscore.DG>
-14.0859

> <Gold.Chemscore.ZeroCoef>
-5.4800

> <Gold.Chemscore.Hbond>
0.9567

> <Gold.Chemscore.Metal>
0.0000

> <Gold.Chemscore.Lipo>
84.5527

> <Gold.Chemscore.Internal_Hbond>
0.0000

> <Gold.Chemscore.DEClash>
0.2308

> <Gold.Chemscore.DEInternal>
4.2153

> <Gold.Chemscore.Rot>
1.7508

> <Gold.Chemscore.Internal.Correction>
   9.000000E+99

> <Gold.Chemscore.Hbonds>
donor molecule, donor type, donor heavy atom, donor atom, acceptor molecule, acceptor atom, score
      L1  H     5    43       P1 10175  0.35

> <Gold.Chemscore.Hbond.Weighted>
-3.1954

> <Gold.Chemscore.Metal.Weighted>
-0.0000

> <Gold.Chemscore.Lipo.Weighted>
-9.8927

> <Gold.Chemscore.Internal_Hbond.Weighted>
0.0000

> <Gold.Chemscore.DEClash.Weighted>
0.2308

> <Gold.Chemscore.DEInternal.Weighted>
4.2153

> <Gold.Chemscore.Rot.Weighted>
4.4821

> <Gold.Chemscore.Internal.Correction.Weighted>
   9.000000E+99

> <Gold.Protein.RotatedTorsions>
[ 6907 6896 6895 6894 ] final   91.52 input  -60.11 | X-H torsion
[ 7974 7965 7964 7962 ] final  140.35 input  175.53 | X-H torsion
[ 8008 7997 7996 7995 ] final  146.57 input   59.86 | X-H torsion
[ 10167 10162 10161 10158 ] final  116.12 input  -65.29 | X-H torsion
[ 10718 10713 10712 10709 ] final  140.63 input   66.30 | X-H torsion
[ 10763 10752 10751 10750 ] final  133.43 input  -60.55 | X-H torsion
[ 11005 11000 10999 10996 ] final -144.01 input  -57.11 | X-H torsion

> <Gold.Protein.ActiveResidues>
 VAL166  LYS551  ARG553  GLY616  TRP617  ASP618  TYR619  PRO620  LYS621  CYS622 
 ASP623  PHE694  ASN695  SER759  ASP760  ASP761  ALA762  ILE779  LEU786  VAL792 
 PHE793  MET794  SER795  GLU796  ALA797  LYS798  CYS799  TRP800  GLU811  SER814 

> <Gold.Protein.RotatedAtoms>
  152.5450  134.1644  159.8570 H   0  0  0  0  0  0  0  0  0  0  0  0  # atno 6907 bound_to 6896
  151.1659  133.4808  159.2601 H   0  0  0  0  0  0  0  0  0  0  0  0  # atno 6908 bound_to 6896
  151.1325  135.0148  159.8644 H   0  0  0  0  0  0  0  0  0  0  0  0  # atno 6909 bound_to 6896
  144.9195  139.5187  143.5670 H   0  0  0  0  0  0  0  0  0  0  0  0  # atno 7974 bound_to 7965
  156.2851  140.2179  156.5398 H   0  0  0  0  0  0  0  0  0  0  0  0  # atno 8008 bound_to 7997
  154.7379  140.0490  157.0807 H   0  0  0  0  0  0  0  0  0  0  0  0  # atno 8009 bound_to 7997
  155.0268  140.3130  155.4776 H   0  0  0  0  0  0  0  0  0  0  0  0  # atno 8010 bound_to 7997
  139.6269  144.7109  151.2514 H   0  0  0  0  0  0  0  0  0  0  0  0  # atno 10167 bound_to 10162
  157.4011  131.1017  151.0550 H   0  0  0  0  0  0  0  0  0  0  0  0  # atno 10718 bound_to 10713
  153.8071  135.3134  155.3396 H   0  0  0  0  0  0  0  0  0  0  0  0  # atno 10763 bound_to 10752
  154.8066  135.4694  154.0411 H   0  0  0  0  0  0  0  0  0  0  0  0  # atno 10764 bound_to 10752
  153.1778  135.6888  153.8608 H   0  0  0  0  0  0  0  0  0  0  0  0  # atno 10765 bound_to 10752
  140.8067  134.2792  157.4957 H   0  0  0  0  0  0  0  0  0  0  0  0  # atno 11005 bound_to 11000
  146.3198  139.8063  142.8955 LP  0  0  0  0  0  0  0  0  0  0  0  0  # atno 17320 bound_to 7965
  145.3320  141.0268  143.3441 LP  0  0  0  0  0  0  0  0  0  0  0  0  # atno 17321 bound_to 7965
  140.7416  143.6551  150.8214 LP  0  0  0  0  0  0  0  0  0  0  0  0  # atno 17342 bound_to 10162
  140.0170  143.5582  152.2816 LP  0  0  0  0  0  0  0  0  0  0  0  0  # atno 17343 bound_to 10162
  157.1549  130.6200  149.5593 LP  0  0  0  0  0  0  0  0  0  0  0  0  # atno 17370 bound_to 10713
  155.9823  130.4836  150.6876 LP  0  0  0  0  0  0  0  0  0  0  0  0  # atno 17371 bound_to 10713
  139.8717  134.9460  156.3926 LP  0  0  0  0  0  0  0  0  0  0  0  0  # atno 17394 bound_to 11000
  140.9239  133.7626  155.9941 LP  0  0  0  0  0  0  0  0  0  0  0  0  # atno 17395 bound_to 11000

$$$$
