AV-unprocessed.smi:2631|AV-procd|sdf|10248|dock3
  -GOLD-   2272014253D 1   1.00000     0.00000
 Structure written by MMmdl.
 35 36  0  0  0  0  0  0  0  0  1 V2000
  146.0594  136.7941  150.7454 C   0  0  0  0  0  0  0  0  0  0  0  0
  146.6846  137.9929  151.1665 O   0  0  0  0  0  0  0  0  0  0  0  0
  146.5250  138.2324  152.5552 C   0  0  0  0  0  0  0  0  0  0  0  0
  147.2818  139.5133  152.9444 C   0  0  0  0  0  0  0  0  0  0  0  0
  147.7440  139.5020  154.3181 N   0  0  0  0  0  0  0  0  0  0  0  0
  149.0911  139.4405  154.6844 C   0  0  0  0  0  0  0  0  0  0  0  0
  150.0587  139.4006  153.6949 N   0  0  0  0  0  0  0  0  0  0  0  0
  149.4590  139.4008  155.9915 C   0  0  0  0  0  0  0  0  0  0  0  0
  151.1302  139.2928  156.5857 S   0  0  0  0  0  0  0  0  0  0  0  0
  151.2787  140.8212  157.4520 C   0  0  0  0  0  0  0  0  0  0  0  0
  151.8126  140.8423  158.7562 C   0  0  0  0  0  0  0  0  0  0  0  0
  151.9216  142.0630  159.4503 C   0  0  0  0  0  0  0  0  0  0  0  0
  151.4983  143.2609  158.8405 C   0  0  0  0  0  0  0  0  0  0  0  0
  151.6303  144.7557  159.6919 Cl  0  0  0  0  0  0  0  0  0  0  0  0
  150.9663  143.2380  157.5356 C   0  0  0  0  0  0  0  0  0  0  0  0
  150.8565  142.0180  156.8404 C   0  0  0  0  0  0  0  0  0  0  0  0
  148.4815  139.4252  157.0818 C   0  0  0  0  0  0  0  0  0  0  0  0
  148.7242  139.4061  158.2883 O   0  0  0  0  0  0  0  0  0  0  0  0
  147.1574  139.4716  156.6469 N   0  0  0  0  0  0  0  0  0  0  0  0
  146.7384  139.5014  155.3178 C   0  0  0  0  0  0  0  0  0  0  0  0
  145.5331  139.5215  155.0660 O   0  0  0  0  0  0  0  0  0  0  0  0
  146.4395  139.4799  157.3568 H   0  0  0  0  0  0  0  0  0  0  0  0
  146.2095  136.6605  149.6742 H   0  0  0  0  0  0  0  0  0  0  0  0
  144.9859  136.8217  150.9352 H   0  0  0  0  0  0  0  0  0  0  0  0
  146.4835  135.9280  151.2550 H   0  0  0  0  0  0  0  0  0  0  0  0
  145.4652  138.3522  152.7839 H   0  0  0  0  0  0  0  0  0  0  0  0
  146.8859  137.3806  153.1336 H   0  0  0  0  0  0  0  0  0  0  0  0
  148.1501  139.6739  152.3066 H   0  0  0  0  0  0  0  0  0  0  0  0
  146.6641  140.4035  152.8135 H   0  0  0  0  0  0  0  0  0  0  0  0
  149.8162  139.4148  152.7146 H   0  0  0  0  0  0  0  0  0  0  0  0
  151.0441  139.4385  153.9135 H   0  0  0  0  0  0  0  0  0  0  0  0
  152.1352  139.9259  159.2280 H   0  0  0  0  0  0  0  0  0  0  0  0
  152.3289  142.0785  160.4506 H   0  0  0  0  0  0  0  0  0  0  0  0
  150.6405  144.1552  157.0673 H   0  0  0  0  0  0  0  0  0  0  0  0
  150.4449  142.0023  155.8419 H   0  0  0  0  0  0  0  0  0  0  0  0
  1  2  1  0  0  0  0
  1 23  1  0  0  0  0
  1 24  1  0  0  0  0
  1 25  1  0  0  0  0
  2  3  1  0  0  0  0
  3  4  1  0  0  0  0
  3 26  1  0  0  0  0
  3 27  1  0  0  0  0
  4  5  1  0  0  0  0
  4 28  1  0  0  0  0
  4 29  1  0  0  0  0
  5 20  1  0  0  0  0
  5  6  1  0  0  0  0
  6  7  1  0  0  0  0
  6  8  2  0  0  0  0
  7 30  1  0  0  0  0
  7 31  1  0  0  0  0
  8  9  1  0  0  0  0
  8 17  1  0  0  0  0
  9 10  1  0  0  0  0
 10 16  1  0  0  0  0
 10 11  2  0  0  0  0
 11 12  1  0  0  0  0
 11 32  1  0  0  0  0
 12 13  2  0  0  0  0
 12 33  1  0  0  0  0
 13 14  1  0  0  0  0
 13 15  1  0  0  0  0
 15 16  2  0  0  0  0
 15 34  1  0  0  0  0
 16 35  1  0  0  0  0
 17 18  2  0  0  0  0
 17 19  1  0  0  0  0
 19 22  1  0  0  0  0
 19 20  1  0  0  0  0
 20 21  2  0  0  0  0
M  END
> <s_m_source_file>
AV-unprocessed.smi

> <i_m_source_file_index>
2631

> <i_lp_mmshare_version>
43012

> <i_f3d_flags>
0

> <s_epik_input>
W0NIM11PW0NIMl1bQ0gyXW4xYyhbTkgyXSljKGMoPU8pW25IXWMxPU8pU2MyW2NIXVtjSF1jKENsKVtjSF1bY0hdMg==

> <s_epik_cmdline>
J2VwaWtfcHl0aG9uJywgJy1waCcsICc3LjAnLCAnLXRuJywgJzgnLCAnLW1hJywgJzIwMCcsICctbWV0YWxfYmluZGluZycsICctaW1hZScsICc8aW5maWxlLm1hZT4nLCAnLW9tYWUnLCAnPG91dGZpbGUubWFlPic=

> <r_lp_tautomer_probability>
1

> <r_epik_Ionization_Penalty>
9.0495e-05

> <r_epik_Ionization_Penalty_Charging>
7.40646e-05

> <r_epik_Ionization_Penalty_Neutral>
1.64304e-05

> <r_epik_State_Penalty>
-0

> <r_epik_Charging_Adjusted_Penalty>
7.40646e-05

> <i_epik_Tot_Q>
0

> <i_epik_Tot_abs_Q>
0

> <r_epik_Metal_State_Penalty>
0.0697747

> <b_epik_Metal_Only>
0

> <s_epik_Chemistry_Notes>
This compound has an imine and may undergo hydrolysis.

> <s_lp_Force_Field>
OPLS_2005

> <r_lp_Energy>
18.0154

> <b_lp_Chiralities_Consistent>
1

> <s_lp_Variant>
AV-unprocessed.smi:2631-1

> <Gold.Version>
5.8.1

> <Gold.Id.Protein>
6NUR|6NUR_protein|mol2

> <Gold.PLP.Fitness>
35.5632

> <Gold.PLP.PLP>
-30.2944

> <Gold.PLP.part.hbond>
-2.3948

> <Gold.PLP.part.metal>
0.0000

> <Gold.PLP.part.buried>
1.6594

> <Gold.PLP.part.nonpolar>
-32.3635

> <Gold.PLP.part.repulsive>
2.8291

> <Gold.PLP.ligand.clash>
0.0000

> <Gold.PLP.ligand.torsion>
0.3698

> <Gold.PLP.Chemscore.Hbond>
1.9913

> <Gold.PLP.Chemscore.CHOScore>
0.0000

> <Gold.PLP.Chemscore.Metal>
0.0000

> <Gold.Chemscore.Hbonds>
donor molecule, donor type, donor heavy atom, donor atom, acceptor molecule, acceptor atom, score
      L1  H     7    30       P1  7957  1.00
      P1  H  7954  7966       L1     2  0.75

> <Gold.PLP.Chemscore.Internal.Correction>
0.0347

> <Gold.Rescore>
     Score         DG    S(hbond)    S(metal)    S(lipo)     H(rot)  DE(clash)    DE(int)     intcor
     12.52     -14.72       0.93        0.00      97.75       2.07       0.49       1.70       ----

> <Gold.Chemscore.Fitness>
12.5233

> <Gold.Chemscore.DG>
-14.7192

> <Gold.Chemscore.ZeroCoef>
-5.4800

> <Gold.Chemscore.Hbond>
0.9270

> <Gold.Chemscore.Metal>
0.0000

> <Gold.Chemscore.Lipo>
97.7528

> <Gold.Chemscore.Internal_Hbond>
0.0000

> <Gold.Chemscore.DEClash>
0.4942

> <Gold.Chemscore.DEInternal>
1.7017

> <Gold.Chemscore.Rot>
2.0680

> <Gold.Chemscore.Internal.Correction>
   9.000000E+99

> <Gold.Chemscore.Hbonds>
donor molecule, donor type, donor heavy atom, donor atom, acceptor molecule, acceptor atom, score
      L1  H     7    30       P1  7957  0.98
      P1  H  7954  7966       L1     2  0.09

> <Gold.Chemscore.Hbond.Weighted>
-3.0962

> <Gold.Chemscore.Metal.Weighted>
-0.0000

> <Gold.Chemscore.Lipo.Weighted>
-11.4371

> <Gold.Chemscore.Internal_Hbond.Weighted>
0.0000

> <Gold.Chemscore.DEClash.Weighted>
0.4942

> <Gold.Chemscore.DEInternal.Weighted>
1.7017

> <Gold.Chemscore.Rot.Weighted>
5.2941

> <Gold.Chemscore.Internal.Correction.Weighted>
   9.000000E+99

> <Gold.Protein.RotatedTorsions>
[ 6907 6896 6895 6894 ] final -144.48 input  -60.11 | X-H torsion
[ 7974 7965 7964 7962 ] final   52.94 input  175.53 | X-H torsion
[ 8008 7997 7996 7995 ] final  -72.49 input   59.86 | X-H torsion
[ 10167 10162 10161 10158 ] final -145.69 input  -65.29 | X-H torsion
[ 10718 10713 10712 10709 ] final   99.85 input   66.30 | X-H torsion
[ 10763 10752 10751 10750 ] final  157.92 input  -60.55 | X-H torsion
[ 11005 11000 10999 10996 ] final -150.90 input  -57.11 | X-H torsion

> <Gold.Protein.ActiveResidues>
 VAL166  LYS551  ARG553  GLY616  TRP617  ASP618  TYR619  PRO620  LYS621  CYS622 
 ASP623  PHE694  ASN695  SER759  ASP760  ASP761  ALA762  ILE779  LEU786  VAL792 
 PHE793  MET794  SER795  GLU796  ALA797  LYS798  CYS799  TRP800  GLU811  SER814 

> <Gold.Protein.RotatedAtoms>
  151.1146  133.5148  159.2604 H   0  0  0  0  0  0  0  0  0  0  0  0  # atno 6907 bound_to 6896
  151.1928  135.0409  159.8850 H   0  0  0  0  0  0  0  0  0  0  0  0  # atno 6908 bound_to 6896
  152.5452  134.0985  159.8361 H   0  0  0  0  0  0  0  0  0  0  0  0  # atno 6909 bound_to 6896
  145.9763  139.4198  143.0159 H   0  0  0  0  0  0  0  0  0  0  0  0  # atno 7974 bound_to 7965
  154.5170  140.0796  156.8100 H   0  0  0  0  0  0  0  0  0  0  0  0  # atno 8008 bound_to 7997
  155.3658  140.3420  155.4224 H   0  0  0  0  0  0  0  0  0  0  0  0  # atno 8009 bound_to 7997
  156.1639  140.1597  156.8552 H   0  0  0  0  0  0  0  0  0  0  0  0  # atno 8010 bound_to 7997
  139.7783  143.8138  152.2635 H   0  0  0  0  0  0  0  0  0  0  0  0  # atno 10167 bound_to 10162
  157.6867  131.0681  150.5011 H   0  0  0  0  0  0  0  0  0  0  0  0  # atno 10718 bound_to 10713
  154.2079  135.2787  155.2968 H   0  0  0  0  0  0  0  0  0  0  0  0  # atno 10763 bound_to 10752
  154.5802  135.5592  153.7181 H   0  0  0  0  0  0  0  0  0  0  0  0  # atno 10764 bound_to 10752
  153.0071  135.6343  154.2218 H   0  0  0  0  0  0  0  0  0  0  0  0  # atno 10765 bound_to 10752
  140.7353  134.3575  157.5158 H   0  0  0  0  0  0  0  0  0  0  0  0  # atno 11005 bound_to 11000
  145.7834  140.9846  143.1087 LP  0  0  0  0  0  0  0  0  0  0  0  0  # atno 17320 bound_to 7965
  144.6849  139.9593  143.7480 LP  0  0  0  0  0  0  0  0  0  0  0  0  # atno 17321 bound_to 7965
  139.8193  144.7302  150.9593 LP  0  0  0  0  0  0  0  0  0  0  0  0  # atno 17342 bound_to 10162
  140.7817  143.4174  151.0895 LP  0  0  0  0  0  0  0  0  0  0  0  0  # atno 17343 bound_to 10162
  156.5333  130.4190  149.6190 LP  0  0  0  0  0  0  0  0  0  0  0  0  # atno 17370 bound_to 10713
  156.3050  130.7197  151.2078 LP  0  0  0  0  0  0  0  0  0  0  0  0  # atno 17371 bound_to 10713
  139.8817  134.9045  156.2879 LP  0  0  0  0  0  0  0  0  0  0  0  0  # atno 17394 bound_to 11000
  140.9885  133.7223  156.0778 LP  0  0  0  0  0  0  0  0  0  0  0  0  # atno 17395 bound_to 11000

$$$$
