AV-unprocessed.smi:252|AV-procd|sdf|1938|dock10
  -GOLD-   2262021 63D 1   1.00000     0.00000
 Structure written by MMmdl.
 56 59  0  0  0  0  0  0  0  0  1 V2000
  152.2302  144.5713  159.5896 C   0  0  0  0  0  0  0  0  0  0  0  0
  151.2857  144.4527  158.3828 C   0  0  0  0  0  0  0  0  0  0  0  0
  151.2861  143.0658  157.7311 C   0  0  0  0  0  0  0  0  0  0  0  0
  151.9836  142.1540  158.1772 O   0  0  0  0  0  0  0  0  0  0  0  0
  150.4873  142.9246  156.6626 N   0  0  0  0  0  0  0  0  0  0  0  0
  150.3165  141.6969  155.8924 C   0  0  2  0  0  0  0  0  0  0  0  0
  149.1998  141.8600  154.8417 C   0  0  0  0  0  0  0  0  0  0  0  0
  148.9535  140.5316  154.1105 C   0  0  0  0  0  0  0  0  0  0  0  0
  148.6622  139.3988  155.1077 C   0  0  0  0  0  0  0  0  0  0  0  0
  149.7262  139.3023  156.1081 N   0  0  0  0  0  0  0  0  0  0  0  0
  149.7944  138.1694  156.8517 C   0  0  0  0  0  0  0  0  0  0  0  0
  150.8555  137.3295  156.7150 N   0  0  0  0  0  0  0  0  0  0  0  0
  150.9266  136.2085  157.4386 C   0  0  0  0  0  0  0  0  0  0  0  0
  150.0629  135.7427  158.3426 N   0  0  0  0  0  0  0  0  0  0  0  0
  148.9971  136.5811  158.4875 C   0  0  0  0  0  0  0  0  0  0  0  0
  148.7881  137.8051  157.7906 C   0  0  0  0  0  0  0  0  0  0  0  0
  147.6049  138.3961  158.2181 N   0  0  0  0  0  0  0  0  0  0  0  0
  147.1392  137.5670  159.1113 C   0  0  0  0  0  0  0  0  0  0  0  0
  147.9048  136.4433  159.3267 N   0  0  0  0  0  0  0  0  0  0  0  0
  147.6233  135.3669  160.2647 C   0  0  0  0  0  0  0  0  0  0  0  0
  147.1508  135.8404  161.6665 C   0  0  2  0  0  0  0  0  0  0  0  0
  148.0967  136.7682  162.1685 O   0  0  0  0  0  0  0  0  0  0  0  0
  146.9855  134.7131  162.6809 C   0  0  0  0  0  0  0  0  0  0  0  0
  145.5723  134.2306  162.3975 C   0  0  0  0  0  0  0  0  0  0  0  0
  144.8545  135.4331  162.1680 O   0  0  0  0  0  0  0  0  0  0  0  0
  145.7141  136.4223  161.5991 C   0  0  1  0  0  0  0  0  0  0  0  0
  145.4769  137.7218  162.3873 C   0  0  0  0  0  0  0  0  0  0  0  0
  149.9937  140.5344  156.8489 C   0  0  0  0  0  0  0  0  0  0  0  0
  152.1930  145.5769  160.0086 H   0  0  0  0  0  0  0  0  0  0  0  0
  153.2646  144.3704  159.3081 H   0  0  0  0  0  0  0  0  0  0  0  0
  151.9542  143.8752  160.3826 H   0  0  0  0  0  0  0  0  0  0  0  0
  150.2675  144.6895  158.6933 H   0  0  0  0  0  0  0  0  0  0  0  0
  151.5646  145.1916  157.6308 H   0  0  0  0  0  0  0  0  0  0  0  0
  149.9502  143.7259  156.3646 H   0  0  0  0  0  0  0  0  0  0  0  0
  151.2528  141.4622  155.3819 H   0  0  0  0  0  0  0  0  0  0  0  0
  148.2777  142.1844  155.3263 H   0  0  0  0  0  0  0  0  0  0  0  0
  149.4633  142.6345  154.1207 H   0  0  0  0  0  0  0  0  0  0  0  0
  148.1232  140.6364  153.4118 H   0  0  0  0  0  0  0  0  0  0  0  0
  149.8308  140.2761  153.5147 H   0  0  0  0  0  0  0  0  0  0  0  0
  147.7109  139.5805  155.6097 H   0  0  0  0  0  0  0  0  0  0  0  0
  148.5682  138.4562  154.5668 H   0  0  0  0  0  0  0  0  0  0  0  0
  151.8002  135.5968  157.2680 H   0  0  0  0  0  0  0  0  0  0  0  0
  146.2143  137.7507  159.6387 H   0  0  0  0  0  0  0  0  0  0  0  0
  146.8698  134.7164  159.8183 H   0  0  0  0  0  0  0  0  0  0  0  0
  148.5249  134.7596  160.3537 H   0  0  0  0  0  0  0  0  0  0  0  0
  147.9767  136.8431  163.1028 H   0  0  0  0  0  0  0  0  0  0  0  0
  147.7315  133.9226  162.6133 H   0  0  0  0  0  0  0  0  0  0  0  0
  147.0233  135.1078  163.6978 H   0  0  0  0  0  0  0  0  0  0  0  0
  145.5422  133.6087  161.5019 H   0  0  0  0  0  0  0  0  0  0  0  0
  145.1466  133.6619  163.2245 H   0  0  0  0  0  0  0  0  0  0  0  0
  145.4165  136.5857  160.5622 H   0  0  0  0  0  0  0  0  0  0  0  0
  146.0707  138.5441  161.9872 H   0  0  0  0  0  0  0  0  0  0  0  0
  145.7313  137.6003  163.4407 H   0  0  0  0  0  0  0  0  0  0  0  0
  144.4296  138.0196  162.3332 H   0  0  0  0  0  0  0  0  0  0  0  0
  150.8171  140.4050  157.5509 H   0  0  0  0  0  0  0  0  0  0  0  0
  149.1121  140.7744  157.4455 H   0  0  0  0  0  0  0  0  0  0  0  0
  1  2  1  0  0  0  0
  1 29  1  0  0  0  0
  1 30  1  0  0  0  0
  1 31  1  0  0  0  0
  2  3  1  0  0  0  0
  2 32  1  0  0  0  0
  2 33  1  0  0  0  0
  3  4  2  0  0  0  0
  3  5  1  0  0  0  0
  5  6  1  0  0  0  0
  5 34  1  0  0  0  0
  6 28  1  0  0  0  0
  6  7  1  0  0  0  0
  6 35  1  0  0  0  0
  7  8  1  0  0  0  0
  7 36  1  0  0  0  0
  7 37  1  0  0  0  0
  8  9  1  0  0  0  0
  8 38  1  0  0  0  0
  8 39  1  0  0  0  0
  9 10  1  0  0  0  0
  9 40  1  0  0  0  0
  9 41  1  0  0  0  0
 10 11  1  0  0  0  0
 10 28  1  0  0  0  0
 11 16  1  0  0  0  0
 11 12  2  0  0  0  0
 12 13  1  0  0  0  0
 13 14  2  0  0  0  0
 13 42  1  0  0  0  0
 14 15  1  0  0  0  0
 15 19  1  0  0  0  0
 15 16  2  0  0  0  0
 16 17  1  0  0  0  0
 17 18  2  0  0  0  0
 18 19  1  0  0  0  0
 18 43  1  0  0  0  0
 19 20  1  0  0  0  0
 20 21  1  0  0  0  0
 20 44  1  0  0  0  0
 20 45  1  0  0  0  0
 21 26  1  0  0  0  0
 21 22  1  0  0  0  0
 21 23  1  0  0  0  0
 22 46  1  0  0  0  0
 23 24  1  0  0  0  0
 23 47  1  0  0  0  0
 23 48  1  0  0  0  0
 24 25  1  0  0  0  0
 24 49  1  0  0  0  0
 24 50  1  0  0  0  0
 25 26  1  0  0  0  0
 26 27  1  0  0  0  0
 26 51  1  0  0  0  0
 27 52  1  0  0  0  0
 27 53  1  0  0  0  0
 27 54  1  0  0  0  0
 28 55  1  0  0  0  0
 28 56  1  0  0  0  0
M  END
> <s_m_source_file>
AV-unprocessed.smi

> <i_m_source_file_index>
252

> <i_lp_mmshare_version>
43012

> <i_f3d_flags>
0

> <s_epik_input>
W0NIM11bQ0gyXUMoPU8pW05IXVtDQEBIXTFbQ0gyXVtDSDJdW0NIMl1OKFtDSDJdMSljKG5bY0hdbjIpYyhjMjMpbltjSF1uM1tDSDJdW0NAQF00KFtPSF0pW0NIMl1bQ0gyXU9bQ0BIXTRbQ0gzXQ==

> <s_epik_cmdline>
J2VwaWtfcHl0aG9uJywgJy1waCcsICc3LjAnLCAnLXRuJywgJzgnLCAnLW1hJywgJzIwMCcsICctbWV0YWxfYmluZGluZycsICctaW1hZScsICc8aW5maWxlLm1hZT4nLCAnLW9tYWUnLCAnPG91dGZpbGUubWFlPic=

> <r_lp_tautomer_probability>
1

> <r_epik_Ionization_Penalty>
0.00182575

> <r_epik_Ionization_Penalty_Charging>
0

> <r_epik_Ionization_Penalty_Neutral>
0.00182575

> <r_epik_State_Penalty>
0.00104524

> <r_epik_Charging_Adjusted_Penalty>
0.00104524

> <i_epik_Tot_Q>
0

> <i_epik_Tot_abs_Q>
0

> <r_epik_Metal_State_Penalty>
-0

> <b_epik_Metal_Only>
0

> <s_lp_Force_Field>
OPLS_2005

> <r_lp_Energy>
36.3421

> <b_lp_Chiralities_Consistent>
1

> <s_lp_Variant>
AV-unprocessed.smi:252-3

> <Gold.Version>
5.8.1

> <Gold.Id.Protein>
6NUR|6NUR_protein|mol2

> <Gold.PLP.Fitness>
51.8293

> <Gold.PLP.PLP>
-43.4893

> <Gold.PLP.part.hbond>
-3.5591

> <Gold.PLP.part.metal>
0.0000

> <Gold.PLP.part.buried>
-1.9188

> <Gold.PLP.part.nonpolar>
-38.4126

> <Gold.PLP.part.repulsive>
0.0660

> <Gold.PLP.ligand.clash>
0.0000

> <Gold.PLP.ligand.torsion>
0.5034

> <Gold.PLP.Chemscore.Hbond>
2.9760

> <Gold.PLP.Chemscore.CHOScore>
0.0000

> <Gold.PLP.Chemscore.Metal>
0.0000

> <Gold.Chemscore.Hbonds>
donor molecule, donor type, donor heavy atom, donor atom, acceptor molecule, acceptor atom, score
      L1  H     5    34       P1  8028  1.00
      P1  H  6896  6907       L1    14  0.98
      P1  H  6931  6943       L1    22  0.90

> <Gold.PLP.Chemscore.Internal.Correction>
0.4189

> <Gold.Rescore>
     Score         DG    S(hbond)    S(metal)    S(lipo)     H(rot)  DE(clash)    DE(int)     intcor
     14.60     -18.27       2.43        0.00      99.08       2.70       1.88       1.79       ----

> <Gold.Chemscore.Fitness>
14.6027

> <Gold.Chemscore.DG>
-18.2674

> <Gold.Chemscore.ZeroCoef>
-5.4800

> <Gold.Chemscore.Hbond>
2.4302

> <Gold.Chemscore.Metal>
0.0000

> <Gold.Chemscore.Lipo>
99.0850

> <Gold.Chemscore.Internal_Hbond>
0.0000

> <Gold.Chemscore.DEClash>
1.8786

> <Gold.Chemscore.DEInternal>
1.7861

> <Gold.Chemscore.Rot>
2.7041

> <Gold.Chemscore.Internal.Correction>
   9.000000E+99

> <Gold.Chemscore.Hbonds>
donor molecule, donor type, donor heavy atom, donor atom, acceptor molecule, acceptor atom, score
      L1  H     5    34       P1  8028  0.99
      P1  H  6896  6907       L1    14  0.84
      P1  H  6931  6943       L1    22  0.18

> <Gold.Chemscore.Hbond.Weighted>
-8.1170

> <Gold.Chemscore.Metal.Weighted>
-0.0000

> <Gold.Chemscore.Lipo.Weighted>
-11.5929

> <Gold.Chemscore.Internal_Hbond.Weighted>
0.0000

> <Gold.Chemscore.DEClash.Weighted>
1.8786

> <Gold.Chemscore.DEInternal.Weighted>
1.7861

> <Gold.Chemscore.Rot.Weighted>
6.9225

> <Gold.Chemscore.Internal.Correction.Weighted>
   9.000000E+99

> <Gold.Protein.RotatedTorsions>
[ 6907 6896 6895 6894 ] final  -59.20 input  -60.11 | X-H torsion
[ 7974 7965 7964 7962 ] final   53.47 input  175.53 | X-H torsion
[ 8008 7997 7996 7995 ] final  111.79 input   59.86 | X-H torsion
[ 10167 10162 10161 10158 ] final   -0.53 input  -65.29 | X-H torsion
[ 10718 10713 10712 10709 ] final   73.58 input   66.30 | X-H torsion
[ 10763 10752 10751 10750 ] final    6.02 input  -60.55 | X-H torsion
[ 11005 11000 10999 10996 ] final   86.83 input  -57.11 | X-H torsion

> <Gold.Protein.ActiveResidues>
 VAL166  LYS551  ARG553  GLY616  TRP617  ASP618  TYR619  PRO620  LYS621  CYS622 
 ASP623  PHE694  ASN695  SER759  ASP760  ASP761  ALA762  ILE779  LEU786  VAL792 
 PHE793  MET794  SER795  GLU796  ALA797  LYS798  CYS799  TRP800  GLU811  SER814 

> <Gold.Protein.RotatedAtoms>
  150.7948  134.6999  159.6543 H   0  0  0  0  0  0  0  0  0  0  0  0  # atno 6907 bound_to 6896
  152.4059  134.6205  160.0059 H   0  0  0  0  0  0  0  0  0  0  0  0  # atno 6908 bound_to 6896
  151.6462  133.3286  159.3177 H   0  0  0  0  0  0  0  0  0  0  0  0  # atno 6909 bound_to 6896
  145.9708  139.4147  143.0191 H   0  0  0  0  0  0  0  0  0  0  0  0  # atno 7974 bound_to 7965
  156.2148  140.3012  155.9814 H   0  0  0  0  0  0  0  0  0  0  0  0  # atno 8008 bound_to 7997
  155.2633  140.0430  157.3016 H   0  0  0  0  0  0  0  0  0  0  0  0  # atno 8009 bound_to 7997
  154.5751  140.2359  155.8142 H   0  0  0  0  0  0  0  0  0  0  0  0  # atno 8010 bound_to 7997
  140.6771  143.6883  150.8048 H   0  0  0  0  0  0  0  0  0  0  0  0  # atno 10167 bound_to 10162
  157.6554  130.9636  150.1090 H   0  0  0  0  0  0  0  0  0  0  0  0  # atno 10718 bound_to 10713
  153.2526  135.6915  153.7663 H   0  0  0  0  0  0  0  0  0  0  0  0  # atno 10763 bound_to 10752
  153.6752  135.3337  155.3165 H   0  0  0  0  0  0  0  0  0  0  0  0  # atno 10764 bound_to 10752
  154.8400  135.4509  154.1488 H   0  0  0  0  0  0  0  0  0  0  0  0  # atno 10765 bound_to 10752
  139.8935  134.8381  156.2775 H   0  0  0  0  0  0  0  0  0  0  0  0  # atno 11005 bound_to 11000
  145.7908  140.9815  143.1050 LP  0  0  0  0  0  0  0  0  0  0  0  0  # atno 17320 bound_to 7965
  144.6836  139.9681  143.7481 LP  0  0  0  0  0  0  0  0  0  0  0  0  # atno 17321 bound_to 7965
  140.0578  143.5185  152.2642 LP  0  0  0  0  0  0  0  0  0  0  0  0  # atno 17342 bound_to 10162
  139.6070  144.7599  151.3038 LP  0  0  0  0  0  0  0  0  0  0  0  0  # atno 17343 bound_to 10162
  156.1992  130.3659  149.8810 LP  0  0  0  0  0  0  0  0  0  0  0  0  # atno 17370 bound_to 10713
  156.6719  130.8823  151.3563 LP  0  0  0  0  0  0  0  0  0  0  0  0  # atno 17371 bound_to 10713
  141.0061  133.7123  156.1036 LP  0  0  0  0  0  0  0  0  0  0  0  0  # atno 17394 bound_to 11000
  140.7432  134.4127  157.5552 LP  0  0  0  0  0  0  0  0  0  0  0  0  # atno 17395 bound_to 11000

$$$$
