AV-unprocessed.smi:109|AV-procd|sdf|1053|dock7
  -GOLD-   2262018113D 1   1.00000     0.00000
 Structure written by MMmdl.
 58 61  0  0  0  0  0  0  0  0  1 V2000
  150.8508  134.2208  157.2701 O   0  0  0  0  0  0  0  0  0  0  0  0
  150.0809  135.3157  156.8226 C   0  0  0  0  0  0  0  0  0  0  0  0
  149.0589  135.7129  157.9017 C   0  0  0  0  0  0  0  0  0  0  0  0
  148.2170  134.5326  158.4477 C   0  0  2  0  0  0  0  0  0  0  0  0
  147.1945  134.1645  157.4659 N   0  0  0  0  0  0  0  0  0  0  0  0
  147.4915  133.9020  156.1734 C   0  0  0  0  0  0  0  0  0  0  0  0
  148.5637  133.1420  155.8285 N   0  0  0  0  0  0  0  0  0  0  0  0
  148.8350  132.9105  154.5403 C   0  0  0  0  0  0  0  0  0  0  0  0
  148.1757  133.3342  153.4594 N   0  0  0  0  0  0  0  0  0  0  0  0
  147.0967  134.0948  153.8030 C   0  0  0  0  0  0  0  0  0  0  0  0
  146.6900  134.4225  155.1254 C   0  0  0  0  0  0  0  0  0  0  0  0
  145.5512  135.2167  155.0835 N   0  0  0  0  0  0  0  0  0  0  0  0
  145.3039  135.3478  153.8075 C   0  0  0  0  0  0  0  0  0  0  0  0
  146.1900  134.7066  152.9672 N   0  0  0  0  0  0  0  0  0  0  0  0
  146.2136  134.6580  151.4744 C   0  0  1  0  0  0  0  0  0  0  0  0
  146.0390  133.3254  151.0924 O   0  0  0  0  0  0  0  0  0  0  0  0
  144.8983  133.1873  150.2525 C   0  0  1  0  0  0  0  0  0  0  0  0
  144.2651  131.7926  150.4018 C   0  0  0  0  0  0  0  0  0  0  0  0
  143.1918  131.6429  149.4973 O   0  0  0  0  0  0  0  0  0  0  0  0
  144.0117  134.3984  150.5741 C   0  0  1  0  0  0  0  0  0  0  0  0
  143.1641  134.1537  151.6816 O   0  0  0  0  0  0  0  0  0  0  0  0
  145.0343  135.4719  150.9166 C   0  0  2  0  0  0  0  0  0  0  0  0
  145.4146  136.1974  149.7649 O   0  0  0  0  0  0  0  0  0  0  0  0
  147.5304  134.8330  159.8112 C   0  0  0  0  0  0  0  0  0  0  0  0
  148.3243  135.8289  160.6934 C   0  0  0  0  0  0  0  0  0  0  0  0
  147.6504  136.0766  162.0530 C   0  0  0  0  0  0  0  0  0  0  0  0
  147.4268  134.7657  162.8160 C   0  0  0  0  0  0  0  0  0  0  0  0
  146.6139  133.7814  161.9671 C   0  0  0  0  0  0  0  0  0  0  0  0
  147.2924  133.5268  160.6122 C   0  0  0  0  0  0  0  0  0  0  0  0
  147.1993  135.0377  151.2014 H   0  0  0  0  0  0  0  0  0  0  0  0
  145.2660  133.2991  149.2307 H   0  0  0  0  0  0  0  0  0  0  0  0
  143.3813  134.6754  149.7278 H   0  0  0  0  0  0  0  0  0  0  0  0
  144.6631  136.1887  151.6515 H   0  0  0  0  0  0  0  0  0  0  0  0
  151.0863  133.6932  156.5225 H   0  0  0  0  0  0  0  0  0  0  0  0
  150.7552  136.1406  156.5930 H   0  0  0  0  0  0  0  0  0  0  0  0
  149.5752  135.0368  155.8978 H   0  0  0  0  0  0  0  0  0  0  0  0
  149.6248  136.1675  158.7132 H   0  0  0  0  0  0  0  0  0  0  0  0
  148.3972  136.4888  157.5141 H   0  0  0  0  0  0  0  0  0  0  0  0
  148.8969  133.6991  158.6228 H   0  0  0  0  0  0  0  0  0  0  0  0
  146.2501  134.1246  157.8217 H   0  0  0  0  0  0  0  0  0  0  0  0
  149.7053  132.3002  154.3485 H   0  0  0  0  0  0  0  0  0  0  0  0
  144.4648  135.9245  153.4464 H   0  0  0  0  0  0  0  0  0  0  0  0
  145.0059  131.0248  150.1780 H   0  0  0  0  0  0  0  0  0  0  0  0
  143.9213  131.6118  151.4201 H   0  0  0  0  0  0  0  0  0  0  0  0
  142.3914  131.5551  149.9921 H   0  0  0  0  0  0  0  0  0  0  0  0
  142.2720  134.1126  151.3728 H   0  0  0  0  0  0  0  0  0  0  0  0
  144.9266  137.0065  149.7443 H   0  0  0  0  0  0  0  0  0  0  0  0
  146.5572  135.2822  159.6058 H   0  0  0  0  0  0  0  0  0  0  0  0
  149.3376  135.4565  160.8496 H   0  0  0  0  0  0  0  0  0  0  0  0
  148.4189  136.7944  160.1992 H   0  0  0  0  0  0  0  0  0  0  0  0
  148.2602  136.7542  162.6512 H   0  0  0  0  0  0  0  0  0  0  0  0
  146.6934  136.5772  161.9000 H   0  0  0  0  0  0  0  0  0  0  0  0
  148.3889  134.3219  163.0752 H   0  0  0  0  0  0  0  0  0  0  0  0
  146.9115  134.9634  163.7562 H   0  0  0  0  0  0  0  0  0  0  0  0
  146.4930  132.8404  162.5045 H   0  0  0  0  0  0  0  0  0  0  0  0
  145.6104  134.1768  161.8058 H   0  0  0  0  0  0  0  0  0  0  0  0
  146.6726  132.8319  160.0453 H   0  0  0  0  0  0  0  0  0  0  0  0
  148.2446  133.0197  160.7751 H   0  0  0  0  0  0  0  0  0  0  0  0
  1  2  1  0  0  0  0
  1 34  1  0  0  0  0
  2  3  1  0  0  0  0
  2 35  1  0  0  0  0
  2 36  1  0  0  0  0
  3  4  1  0  0  0  0
  3 37  1  0  0  0  0
  3 38  1  0  0  0  0
  4  5  1  0  0  0  0
  4 24  1  0  0  0  0
  4 39  1  0  0  0  0
  5  6  1  0  0  0  0
  5 40  1  0  0  0  0
  6 11  1  0  0  0  0
  6  7  2  0  0  0  0
  7  8  1  0  0  0  0
  8  9  2  0  0  0  0
  8 41  1  0  0  0  0
  9 10  1  0  0  0  0
 10 14  1  0  0  0  0
 10 11  2  0  0  0  0
 11 12  1  0  0  0  0
 12 13  2  0  0  0  0
 13 14  1  0  0  0  0
 13 42  1  0  0  0  0
 14 15  1  0  0  0  0
 15 30  1  0  0  0  0
 15 22  1  0  0  0  0
 15 16  1  0  0  0  0
 16 17  1  0  0  0  0
 17 31  1  0  0  0  0
 17 18  1  0  0  0  0
 17 20  1  0  0  0  0
 18 19  1  0  0  0  0
 18 43  1  0  0  0  0
 18 44  1  0  0  0  0
 19 45  1  0  0  0  0
 20 32  1  0  0  0  0
 20 21  1  0  0  0  0
 20 22  1  0  0  0  0
 21 46  1  0  0  0  0
 22 33  1  0  0  0  0
 22 23  1  0  0  0  0
 23 47  1  0  0  0  0
 24 29  1  0  0  0  0
 24 25  1  0  0  0  0
 24 48  1  0  0  0  0
 25 26  1  0  0  0  0
 25 49  1  0  0  0  0
 25 50  1  0  0  0  0
 26 27  1  0  0  0  0
 26 51  1  0  0  0  0
 26 52  1  0  0  0  0
 27 28  1  0  0  0  0
 27 53  1  0  0  0  0
 27 54  1  0  0  0  0
 28 29  1  0  0  0  0
 28 55  1  0  0  0  0
 28 56  1  0  0  0  0
 29 57  1  0  0  0  0
 29 58  1  0  0  0  0
M  END
> <s_m_source_file>
AV-unprocessed.smi

> <i_m_source_file_index>
109

> <i_lp_mmshare_version>
43012

> <i_f3d_flags>
0

> <s_epik_input>
W0NIMl0xW0NIMl1bQ0gyXVtDSDJdW0NIMl1bQ0hdMVtDQEhdKFtDSDJdW0NIMl1bT0hdKVtOSF1jKG5bY0hdbjIpYyhjMjMpbltjSF1uM1tDQEBIXTRPW0NASF0oW0NIMl1bT0hdKVtDQEBIXShbT0hdKVtDQEhdNFtPSF0=

> <s_epik_cmdline>
J2VwaWtfcHl0aG9uJywgJy1waCcsICc3LjAnLCAnLXRuJywgJzgnLCAnLW1hJywgJzIwMCcsICctbWV0YWxfYmluZGluZycsICctaW1hZScsICc8aW5maWxlLm1hZT4nLCAnLW9tYWUnLCAnPG91dGZpbGUubWFlPic=

> <r_lp_tautomer_probability>
1

> <r_epik_Ionization_Penalty>
0.000793976

> <r_epik_Ionization_Penalty_Charging>
0

> <r_epik_Ionization_Penalty_Neutral>
0.000793976

> <r_epik_State_Penalty>
-0

> <r_epik_Charging_Adjusted_Penalty>
0

> <i_epik_Tot_Q>
0

> <i_epik_Tot_abs_Q>
0

> <r_epik_Metal_State_Penalty>
-0

> <b_epik_Metal_Only>
0

> <s_epik_Chemistry_Notes>
This compound contains an acetal/aminal-like group ( X-CH(R)-Y where X, Y are N, S, or O) that may be acid/base labile, releasing an aldehyde.

> <s_lp_Force_Field>
OPLS_2005

> <r_lp_Energy>
46.6527

> <b_lp_Chiralities_Consistent>
1

> <s_lp_Variant>
AV-unprocessed.smi:109-23

> <Gold.Version>
5.8.1

> <Gold.Id.Protein>
6NUR|6NUR_protein|mol2

> <Gold.PLP.Fitness>
51.7493

> <Gold.PLP.PLP>
-43.9350

> <Gold.PLP.part.hbond>
-6.0000

> <Gold.PLP.part.metal>
0.0000

> <Gold.PLP.part.buried>
-6.7376

> <Gold.PLP.part.nonpolar>
-32.4949

> <Gold.PLP.part.repulsive>
0.3586

> <Gold.PLP.ligand.clash>
0.0000

> <Gold.PLP.ligand.torsion>
1.1997

> <Gold.PLP.Chemscore.Hbond>
3.3479

> <Gold.PLP.Chemscore.CHOScore>
0.0000

> <Gold.PLP.Chemscore.Metal>
0.0000

> <Gold.Chemscore.Hbonds>
donor molecule, donor type, donor heavy atom, donor atom, acceptor molecule, acceptor atom, score
      L1  H    19    45       P1 10952  0.56
      L1  H    21    46       P1 10186  0.31
      L1  H    23    47       P1 10171  1.00
      P1  H  6896  6908       L1     1  0.46
      P1  H 10785 10796       L1    19  0.95

> <Gold.PLP.Chemscore.Internal.Correction>
0.1698

> <Gold.Rescore>
     Score         DG    S(hbond)    S(metal)    S(lipo)     H(rot)  DE(clash)    DE(int)     intcor
      8.20      -9.40       2.44        0.00      83.46       5.47       0.03       1.16       ----

> <Gold.Chemscore.Fitness>
8.2003

> <Gold.Chemscore.DG>
-9.3952

> <Gold.Chemscore.ZeroCoef>
-5.4800

> <Gold.Chemscore.Hbond>
2.4384

> <Gold.Chemscore.Metal>
0.0000

> <Gold.Chemscore.Lipo>
83.4571

> <Gold.Chemscore.Internal_Hbond>
0.0000

> <Gold.Chemscore.DEClash>
0.0348

> <Gold.Chemscore.DEInternal>
1.1601

> <Gold.Chemscore.Rot>
5.4662

> <Gold.Chemscore.Internal.Correction>
   9.000000E+99

> <Gold.Chemscore.Hbonds>
donor molecule, donor type, donor heavy atom, donor atom, acceptor molecule, acceptor atom, score
      L1  H    19    45       P1 10952  0.49
      L1  H    21    46       P1 10186  0.03
      L1  H    23    47       P1 10171  1.00
      P1  H  6896  6908       L1     1  0.38
      P1  H 10785 10796       L1    19  0.18

> <Gold.Chemscore.Hbond.Weighted>
-8.1443

> <Gold.Chemscore.Metal.Weighted>
-0.0000

> <Gold.Chemscore.Lipo.Weighted>
-9.7645

> <Gold.Chemscore.Internal_Hbond.Weighted>
0.0000

> <Gold.Chemscore.DEClash.Weighted>
0.0348

> <Gold.Chemscore.DEInternal.Weighted>
1.1601

> <Gold.Chemscore.Rot.Weighted>
13.9935

> <Gold.Chemscore.Internal.Correction.Weighted>
   9.000000E+99

> <Gold.Protein.RotatedTorsions>
[ 6907 6896 6895 6894 ] final  129.69 input  -60.11 | X-H torsion
[ 7974 7965 7964 7962 ] final   73.11 input  175.53 | X-H torsion
[ 8008 7997 7996 7995 ] final -132.92 input   59.86 | X-H torsion
[ 10167 10162 10161 10158 ] final -105.62 input  -65.29 | X-H torsion
[ 10718 10713 10712 10709 ] final  121.21 input   66.30 | X-H torsion
[ 10763 10752 10751 10750 ] final  175.36 input  -60.55 | X-H torsion
[ 11005 11000 10999 10996 ] final  -84.92 input  -57.11 | X-H torsion

> <Gold.Protein.ActiveResidues>
 VAL166  LYS551  ARG553  GLY616  TRP617  ASP618  TYR619  PRO620  LYS621  CYS622 
 ASP623  PHE694  ASN695  SER759  ASP760  ASP761  ALA762  ILE779  LEU786  VAL792 
 PHE793  MET794  SER795  GLU796  ALA797  LYS798  CYS799  TRP800  GLU811  SER814 

> <Gold.Protein.RotatedAtoms>
  152.3599  133.6284  159.6006 H   0  0  0  0  0  0  0  0  0  0  0  0  # atno 6907 bound_to 6896
  150.7594  133.9440  159.3474 H   0  0  0  0  0  0  0  0  0  0  0  0  # atno 6908 bound_to 6896
  151.7280  135.0882  160.0346 H   0  0  0  0  0  0  0  0  0  0  0  0  # atno 6909 bound_to 6896
  145.7449  139.2736  143.1465 H   0  0  0  0  0  0  0  0  0  0  0  0  # atno 7974 bound_to 7965
  155.3369  140.0470  157.3044 H   0  0  0  0  0  0  0  0  0  0  0  0  # atno 8008 bound_to 7997
  154.5298  140.2253  155.8790 H   0  0  0  0  0  0  0  0  0  0  0  0  # atno 8009 bound_to 7997
  156.1777  140.3081  155.9095 H   0  0  0  0  0  0  0  0  0  0  0  0  # atno 8010 bound_to 7997
  140.1966  143.3851  152.1163 H   0  0  0  0  0  0  0  0  0  0  0  0  # atno 10167 bound_to 10162
  157.5834  131.1072  150.8142 H   0  0  0  0  0  0  0  0  0  0  0  0  # atno 10718 bound_to 10713
  154.4666  135.2769  155.1674 H   0  0  0  0  0  0  0  0  0  0  0  0  # atno 10763 bound_to 10752
  154.3440  135.6164  153.5614 H   0  0  0  0  0  0  0  0  0  0  0  0  # atno 10764 bound_to 10752
  152.9860  135.5795  154.5039 H   0  0  0  0  0  0  0  0  0  0  0  0  # atno 10765 bound_to 10752
  141.1646  133.7372  156.8939 H   0  0  0  0  0  0  0  0  0  0  0  0  # atno 11005 bound_to 11000
  146.0412  140.8163  142.9828 LP  0  0  0  0  0  0  0  0  0  0  0  0  # atno 17320 bound_to 7965
  144.6862  140.2913  143.7277 LP  0  0  0  0  0  0  0  0  0  0  0  0  # atno 17321 bound_to 7965
  139.5234  144.7071  151.5321 LP  0  0  0  0  0  0  0  0  0  0  0  0  # atno 17342 bound_to 10162
  140.6419  143.8871  150.6700 LP  0  0  0  0  0  0  0  0  0  0  0  0  # atno 17343 bound_to 10162
  156.8583  130.5104  149.5306 LP  0  0  0  0  0  0  0  0  0  0  0  0  # atno 17370 bound_to 10713
  156.0881  130.5874  150.9685 LP  0  0  0  0  0  0  0  0  0  0  0  0  # atno 17371 bound_to 10713
  140.1629  134.9153  157.2738 LP  0  0  0  0  0  0  0  0  0  0  0  0  # atno 17394 bound_to 11000
  140.2590  134.3593  155.7413 LP  0  0  0  0  0  0  0  0  0  0  0  0  # atno 17395 bound_to 11000

$$$$
