AV-unprocessed.smi:1231|AV-procd|sdf|5165|dock5
  -GOLD-   22720 4233D 1   1.00000     0.00000
 Structure written by MMmdl.
 43 44  0  0  0  0  0  0  0  0  2 V2000
  153.0458  138.5366  154.3292 C   0  0  0  0  0  0  0  0  0  0  0  0
  151.6964  137.8621  154.0595 C   0  0  2  0  0  0  0  0  0  0  0  0
  150.5176  138.8441  154.1936 C   0  0  0  0  0  0  0  0  0  0  0  0
  149.2284  138.1406  153.9946 N   0  3  2  0  0  0  0  0  0  0  0  0
  148.0675  139.0629  154.0558 C   0  0  0  0  0  0  0  0  0  0  0  0
  146.7346  138.3531  153.7473 C   0  0  0  0  0  0  0  0  0  0  0  0
  146.9314  137.1952  152.8832 N   0  0  0  0  0  0  0  0  0  0  0  0
  145.9517  136.3876  152.4517 C   0  0  0  0  0  0  0  0  0  0  0  0
  144.7662  136.5495  152.7434 O   0  0  0  0  0  0  0  0  0  0  0  0
  146.4364  135.4025  151.6754 N   0  0  0  0  0  0  0  0  0  0  0  0
  145.7168  134.3671  151.0215 C   0  0  0  0  0  0  0  0  0  0  0  0
  146.5092  133.4709  150.2689 C   0  0  0  0  0  0  0  0  0  0  0  0
  145.8905  132.4082  149.5826 C   0  0  0  0  0  0  0  0  0  0  0  0
  144.4934  132.2703  149.6648 C   0  0  0  0  0  0  0  0  0  0  0  0
  143.7786  133.2071  150.4337 C   0  0  0  0  0  0  0  0  0  0  0  0
  144.3697  134.2257  151.0932 N   0  0  0  0  0  0  0  0  0  0  0  0
  149.1213  136.9900  154.9258 C   0  0  0  0  0  0  0  0  0  0  0  0
  150.3398  136.0588  154.7774 C   0  0  2  0  0  0  0  0  0  0  0  0
  150.3084  134.9011  155.7811 C   0  0  0  0  0  0  0  0  0  0  0  0
  151.5294  136.8078  155.0007 O   0  0  0  0  0  0  0  0  0  0  0  0
  153.2279  139.3465  153.6224 H   0  0  0  0  0  0  0  0  0  0  0  0
  153.8643  137.8229  154.2329 H   0  0  0  0  0  0  0  0  0  0  0  0
  153.0855  138.9549  155.3355 H   0  0  0  0  0  0  0  0  0  0  0  0
  151.7145  137.4441  153.0513 H   0  0  0  0  0  0  0  0  0  0  0  0
  150.5267  139.3142  155.1788 H   0  0  0  0  0  0  0  0  0  0  0  0
  150.6191  139.6415  153.4563 H   0  0  0  0  0  0  0  0  0  0  0  0
  148.0405  139.5484  155.0325 H   0  0  0  0  0  0  0  0  0  0  0  0
  148.2041  139.8584  153.3216 H   0  0  0  0  0  0  0  0  0  0  0  0
  146.2732  138.0104  154.6737 H   0  0  0  0  0  0  0  0  0  0  0  0
  146.0205  139.0286  153.2757 H   0  0  0  0  0  0  0  0  0  0  0  0
  147.8790  136.9902  152.6011 H   0  0  0  0  0  0  0  0  0  0  0  0
  147.4356  135.3909  151.5344 H   0  0  0  0  0  0  0  0  0  0  0  0
  147.5816  133.5911  150.2163 H   0  0  0  0  0  0  0  0  0  0  0  0
  146.4784  131.7113  149.0036 H   0  0  0  0  0  0  0  0  0  0  0  0
  143.9831  131.4682  149.1525 H   0  0  0  0  0  0  0  0  0  0  0  0
  142.7045  133.1374  150.5221 H   0  0  0  0  0  0  0  0  0  0  0  0
  149.0512  137.3571  155.9512 H   0  0  0  0  0  0  0  0  0  0  0  0
  148.2117  136.4243  154.7278 H   0  0  0  0  0  0  0  0  0  0  0  0
  150.3624  135.6415  153.7690 H   0  0  0  0  0  0  0  0  0  0  0  0
  149.4194  134.2852  155.6432 H   0  0  0  0  0  0  0  0  0  0  0  0
  150.3050  135.2680  156.8079 H   0  0  0  0  0  0  0  0  0  0  0  0
  151.1803  134.2572  155.6607 H   0  0  0  0  0  0  0  0  0  0  0  0
  149.2522  137.7644  153.0575 H   0  0  0  0  0  0  0  0  0  0  0  0
  1  2  1  0  0  0  0
  1 21  1  0  0  0  0
  1 22  1  0  0  0  0
  1 23  1  0  0  0  0
  2 20  1  0  0  0  0
  2  3  1  0  0  0  0
  2 24  1  0  0  0  0
  3  4  1  0  0  0  0
  3 25  1  0  0  0  0
  3 26  1  0  0  0  0
  4  5  1  0  0  0  0
  4 17  1  0  0  0  0
  4 43  1  0  0  0  0
  5  6  1  0  0  0  0
  5 27  1  0  0  0  0
  5 28  1  0  0  0  0
  6  7  1  0  0  0  0
  6 29  1  0  0  0  0
  6 30  1  0  0  0  0
  7  8  1  0  0  0  0
  7 31  1  0  0  0  0
  8  9  2  0  0  0  0
  8 10  1  0  0  0  0
 10 11  1  0  0  0  0
 10 32  1  0  0  0  0
 11 16  1  0  0  0  0
 11 12  2  0  0  0  0
 12 13  1  0  0  0  0
 12 33  1  0  0  0  0
 13 14  2  0  0  0  0
 13 34  1  0  0  0  0
 14 15  1  0  0  0  0
 14 35  1  0  0  0  0
 15 16  2  0  0  0  0
 15 36  1  0  0  0  0
 17 18  1  0  0  0  0
 17 37  1  0  0  0  0
 17 38  1  0  0  0  0
 18 19  1  0  0  0  0
 18 20  1  0  0  0  0
 18 39  1  0  0  0  0
 19 40  1  0  0  0  0
 19 41  1  0  0  0  0
 19 42  1  0  0  0  0
M  CHG  1   4   1
M  END
> <s_m_source_file>
AV-unprocessed.smi

> <i_m_source_file_index>
1231

> <i_lp_mmshare_version>
43012

> <i_f3d_flags>
0

> <s_epik_input>
W0NIM11bQ0BASF0xW0NIMl1OKFtDSDJdW0NASF0oTzEpW0NIM10pW0NIMl1bQ0gyXVtOSF1DKD1PKVtOSF1jMltjSF1bY0hdW2NIXVtjSF1uMg==

> <s_epik_cmdline>
J2VwaWtfcHl0aG9uJywgJy1waCcsICc3LjAnLCAnLXRuJywgJzgnLCAnLW1hJywgJzIwMCcsICctbWV0YWxfYmluZGluZycsICctaW1hZScsICc8aW5maWxlLm1hZT4nLCAnLW9tYWUnLCAnPG91dGZpbGUubWFlPic=

> <r_epik_Ionization_Penalty>
0.602565

> <r_epik_Ionization_Penalty_Charging>
0.602531

> <r_epik_Ionization_Penalty_Neutral>
3.43186e-05

> <r_epik_State_Penalty>
0.617039

> <r_epik_Charging_Adjusted_Penalty>
1.21957

> <i_epik_Tot_Q>
1

> <i_epik_Tot_abs_Q>
1

> <r_epik_Metal_State_Penalty>
0.617041

> <b_epik_Metal_Only>
0

> <s_lp_Force_Field>
OPLS_2005

> <r_lp_Energy>
15.064

> <b_lp_Chiralities_Consistent>
1

> <s_lp_Variant>
AV-unprocessed.smi:1231-6

> <Gold.Version>
5.8.1

> <Gold.Id.Protein>
6NUR|6NUR_protein|mol2

> <Gold.PLP.Fitness>
52.5471

> <Gold.PLP.PLP>
-35.3004

> <Gold.PLP.part.hbond>
-3.8190

> <Gold.PLP.part.metal>
0.0000

> <Gold.PLP.part.buried>
-5.3658

> <Gold.PLP.part.nonpolar>
-27.2937

> <Gold.PLP.part.repulsive>
0.5023

> <Gold.PLP.ligand.clash>
0.0000

> <Gold.PLP.ligand.torsion>
0.2193

> <Gold.PLP.Chemscore.Hbond>
4.8870

> <Gold.PLP.Chemscore.CHOScore>
0.9974

> <Gold.PLP.Chemscore.Metal>
0.0000

> <Gold.Chemscore.Hbonds>
donor molecule, donor type, donor heavy atom, donor atom, acceptor molecule, acceptor atom, score
      L1  H     4    43       P1  7948  1.98
      L1  H     7    31       P1  7948  0.93
      L1  H    10    32       P1  7948  0.94
      P1  H 10752 10764       L1    20  1.00
      L1  C    15    36       P1 10186  1.00

> <Gold.PLP.Chemscore.Internal.Correction>
0.0319

> <Gold.Rescore>
     Score         DG    S(hbond)    S(metal)    S(lipo)     H(rot)  DE(clash)    DE(int)     intcor
     19.55     -21.16       2.94        0.00      84.20       1.55       0.09       1.52       ----

> <Gold.Chemscore.Fitness>
19.5527

> <Gold.Chemscore.DG>
-21.1622

> <Gold.Chemscore.ZeroCoef>
-5.4800

> <Gold.Chemscore.Hbond>
2.9372

> <Gold.Chemscore.Metal>
0.0000

> <Gold.Chemscore.Lipo>
84.2006

> <Gold.Chemscore.Internal_Hbond>
0.0000

> <Gold.Chemscore.DEClash>
0.0907

> <Gold.Chemscore.DEInternal>
1.5189

> <Gold.Chemscore.Rot>
1.5546

> <Gold.Chemscore.Internal.Correction>
   9.000000E+99

> <Gold.Chemscore.Hbonds>
donor molecule, donor type, donor heavy atom, donor atom, acceptor molecule, acceptor atom, score
      L1  H     4    43       P1  7948  0.92
      L1  H     7    31       P1  7948  0.87
      L1  H    10    32       P1  7948  0.82
      P1  H 10752 10764       L1    20  0.37

> <Gold.Chemscore.Hbond.Weighted>
-9.8104

> <Gold.Chemscore.Metal.Weighted>
-0.0000

> <Gold.Chemscore.Lipo.Weighted>
-9.8515

> <Gold.Chemscore.Internal_Hbond.Weighted>
0.0000

> <Gold.Chemscore.DEClash.Weighted>
0.0907

> <Gold.Chemscore.DEInternal.Weighted>
1.5189

> <Gold.Chemscore.Rot.Weighted>
3.9797

> <Gold.Chemscore.Internal.Correction.Weighted>
   9.000000E+99

> <Gold.Protein.RotatedTorsions>
[ 6907 6896 6895 6894 ] final -123.65 input  -60.11 | X-H torsion
[ 7974 7965 7964 7962 ] final  163.72 input  175.53 | X-H torsion
[ 8008 7997 7996 7995 ] final  -71.97 input   59.86 | X-H torsion
[ 10167 10162 10161 10158 ] final   69.45 input  -65.29 | X-H torsion
[ 10718 10713 10712 10709 ] final    8.37 input   66.30 | X-H torsion
[ 10763 10752 10751 10750 ] final  -45.85 input  -60.55 | X-H torsion
[ 11005 11000 10999 10996 ] final  169.14 input  -57.11 | X-H torsion

> <Gold.Protein.ActiveResidues>
 VAL166  LYS551  ARG553  GLY616  TRP617  ASP618  TYR619  PRO620  LYS621  CYS622 
 ASP623  PHE694  ASN695  SER759  ASP760  ASP761  ALA762  ILE779  LEU786  VAL792 
 PHE793  MET794  SER795  GLU796  ALA797  LYS798  CYS799  TRP800  GLU811  SER814 

> <Gold.Protein.RotatedAtoms>
  150.8691  133.7531  159.2966 H   0  0  0  0  0  0  0  0  0  0  0  0  # atno 6907 bound_to 6896
  151.5149  135.1064  159.9873 H   0  0  0  0  0  0  0  0  0  0  0  0  # atno 6908 bound_to 6896
  152.4682  133.7926  159.6966 H   0  0  0  0  0  0  0  0  0  0  0  0  # atno 6909 bound_to 6896
  144.7577  139.8223  143.6344 H   0  0  0  0  0  0  0  0  0  0  0  0  # atno 7974 bound_to 7965
  154.5129  140.0806  156.8025 H   0  0  0  0  0  0  0  0  0  0  0  0  # atno 8008 bound_to 7997
  155.3745  140.3424  155.4226 H   0  0  0  0  0  0  0  0  0  0  0  0  # atno 8009 bound_to 7997
  156.1594  140.1583  156.8625 H   0  0  0  0  0  0  0  0  0  0  0  0  # atno 8010 bound_to 7997
  140.0677  144.5179  150.7249 H   0  0  0  0  0  0  0  0  0  0  0  0  # atno 10167 bound_to 10162
  156.9507  130.5896  149.5656 H   0  0  0  0  0  0  0  0  0  0  0  0  # atno 10718 bound_to 10713
  154.0354  135.6651  153.4784 H   0  0  0  0  0  0  0  0  0  0  0  0  # atno 10763 bound_to 10752
  153.0523  135.5077  154.7893 H   0  0  0  0  0  0  0  0  0  0  0  0  # atno 10764 bound_to 10752
  154.6852  135.3052  154.9523 H   0  0  0  0  0  0  0  0  0  0  0  0  # atno 10765 bound_to 10752
  140.2946  134.7645  157.3867 H   0  0  0  0  0  0  0  0  0  0  0  0  # atno 11005 bound_to 11000
  146.1605  139.4718  142.9991 LP  0  0  0  0  0  0  0  0  0  0  0  0  # atno 17320 bound_to 7965
  145.6724  141.0213  143.1650 LP  0  0  0  0  0  0  0  0  0  0  0  0  # atno 17321 bound_to 7965
  140.7141  143.2529  151.4490 LP  0  0  0  0  0  0  0  0  0  0  0  0  # atno 17342 bound_to 10162
  139.5855  144.1614  152.2023 LP  0  0  0  0  0  0  0  0  0  0  0  0  # atno 17343 bound_to 10162
  156.0364  130.5451  150.8664 LP  0  0  0  0  0  0  0  0  0  0  0  0  # atno 17370 bound_to 10713
  157.5724  131.0946  150.9398 LP  0  0  0  0  0  0  0  0  0  0  0  0  # atno 17371 bound_to 10713
  140.1164  134.5277  155.8221 LP  0  0  0  0  0  0  0  0  0  0  0  0  # atno 17394 bound_to 11000
  141.2140  133.6741  156.6785 LP  0  0  0  0  0  0  0  0  0  0  0  0  # atno 17395 bound_to 11000

$$$$
