AV-unprocessed.smi:2789|AV-procd|sdf|10762|dock1
  -GOLD-   2272015193D 1   1.00000     0.00000
 Structure written by MMmdl.
 35 36  0  0  0  0  0  0  0  0  1 V2000
  152.9179  141.9429  160.2385 C   0  0  0  0  0  0  0  0  0  0  0  0
  152.8975  142.3236  158.8720 O   0  0  0  0  0  0  0  0  0  0  0  0
  152.1065  143.4747  158.6089 C   0  0  2  0  0  0  0  0  0  0  0  0
  152.3728  144.6015  159.6162 C   0  0  0  0  0  0  0  0  0  0  0  0
  151.0446  145.3424  159.7175 C   0  0  0  0  0  0  0  0  0  0  0  0
  149.9994  144.2303  159.6492 C   0  0  0  0  0  0  0  0  0  0  0  0
  150.6072  143.1337  158.7516 C   0  0  1  0  0  0  0  0  0  0  0  0
  149.9586  143.1038  157.4428 N   0  0  0  0  0  0  0  0  0  0  0  0
  149.3450  142.0373  156.9108 C   0  0  0  0  0  0  0  0  0  0  0  0
  149.2529  140.9522  157.4851 O   0  0  0  0  0  0  0  0  0  0  0  0
  148.8531  142.3198  155.6919 N   0  0  0  0  0  0  0  0  0  0  0  0
  148.1758  141.5059  154.8390 C   0  0  0  0  0  0  0  0  0  0  0  0
  146.9733  141.7162  154.2207 C   0  0  0  0  0  0  0  0  0  0  0  0
  146.7993  140.5184  153.4700 C   0  0  0  0  0  0  0  0  0  0  0  0
  147.8013  139.6611  153.6186 N   0  0  0  0  0  0  0  0  0  0  0  0
  148.6575  140.2692  154.4686 N   0  0  0  0  0  0  0  0  0  0  0  0
  149.8861  139.6057  154.8596 C   0  0  0  0  0  0  0  0  0  0  0  0
  153.5607  141.0715  160.3633 H   0  0  0  0  0  0  0  0  0  0  0  0
  151.9234  141.6767  160.5975 H   0  0  0  0  0  0  0  0  0  0  0  0
  153.3140  142.7430  160.8650 H   0  0  0  0  0  0  0  0  0  0  0  0
  152.3049  143.8440  157.6003 H   0  0  0  0  0  0  0  0  0  0  0  0
  152.6231  144.1783  160.5900 H   0  0  0  0  0  0  0  0  0  0  0  0
  153.1941  145.2519  159.3144 H   0  0  0  0  0  0  0  0  0  0  0  0
  150.9638  145.9402  160.6257 H   0  0  0  0  0  0  0  0  0  0  0  0
  150.9290  146.0114  158.8635 H   0  0  0  0  0  0  0  0  0  0  0  0
  149.8421  143.8254  160.6498 H   0  0  0  0  0  0  0  0  0  0  0  0
  149.0336  144.5972  159.2991 H   0  0  0  0  0  0  0  0  0  0  0  0
  150.4901  142.1639  159.2398 H   0  0  0  0  0  0  0  0  0  0  0  0
  149.9876  143.9562  156.9031 H   0  0  0  0  0  0  0  0  0  0  0  0
  149.0014  143.2617  155.3606 H   0  0  0  0  0  0  0  0  0  0  0  0
  146.3154  142.5699  154.2811 H   0  0  0  0  0  0  0  0  0  0  0  0
  145.9774  140.2466  152.8241 H   0  0  0  0  0  0  0  0  0  0  0  0
  150.7409  140.1766  154.4970 H   0  0  0  0  0  0  0  0  0  0  0  0
  149.9296  138.5991  154.4418 H   0  0  0  0  0  0  0  0  0  0  0  0
  149.9366  139.5382  155.9466 H   0  0  0  0  0  0  0  0  0  0  0  0
  1  2  1  0  0  0  0
  1 18  1  0  0  0  0
  1 19  1  0  0  0  0
  1 20  1  0  0  0  0
  2  3  1  0  0  0  0
  3  7  1  0  0  0  0
  3  4  1  0  0  0  0
  3 21  1  0  0  0  0
  4  5  1  0  0  0  0
  4 22  1  0  0  0  0
  4 23  1  0  0  0  0
  5  6  1  0  0  0  0
  5 24  1  0  0  0  0
  5 25  1  0  0  0  0
  6  7  1  0  0  0  0
  6 26  1  0  0  0  0
  6 27  1  0  0  0  0
  7  8  1  0  0  0  0
  7 28  1  0  0  0  0
  8  9  1  0  0  0  0
  8 29  1  0  0  0  0
  9 10  2  0  0  0  0
  9 11  1  0  0  0  0
 11 12  1  0  0  0  0
 11 30  1  0  0  0  0
 12 16  1  0  0  0  0
 12 13  2  0  0  0  0
 13 14  1  0  0  0  0
 13 31  1  0  0  0  0
 14 15  2  0  0  0  0
 14 32  1  0  0  0  0
 15 16  1  0  0  0  0
 16 17  1  0  0  0  0
 17 33  1  0  0  0  0
 17 34  1  0  0  0  0
 17 35  1  0  0  0  0
M  END
> <s_m_source_file>
AV-unprocessed.smi

> <i_m_source_file_index>
2789

> <i_lp_mmshare_version>
43012

> <i_f3d_flags>
0

> <s_epik_input>
W0NIM11PW0NAQEhdMVtDSDJdW0NIMl1bQ0gyXVtDQEhdMVtOSF1DKD1PKVtOSF1jMltjSF1bY0hdbm4yW0NIM10=

> <s_epik_cmdline>
J2VwaWtfcHl0aG9uJywgJy1waCcsICc3LjAnLCAnLXRuJywgJzgnLCAnLW1hJywgJzIwMCcsICctbWV0YWxfYmluZGluZycsICctaW1hZScsICc8aW5maWxlLm1hZT4nLCAnLW9tYWUnLCAnPG91dGZpbGUubWFlPic=

> <r_lp_tautomer_probability>
1

> <r_epik_Ionization_Penalty>
4.40608e-05

> <r_epik_Ionization_Penalty_Charging>
0

> <r_epik_Ionization_Penalty_Neutral>
4.40608e-05

> <r_epik_State_Penalty>
-0

> <r_epik_Charging_Adjusted_Penalty>
0

> <i_epik_Tot_Q>
0

> <i_epik_Tot_abs_Q>
0

> <r_epik_Metal_State_Penalty>
-0

> <b_epik_Metal_Only>
0

> <s_lp_Force_Field>
OPLS_2005

> <r_lp_Energy>
20.8704

> <b_lp_Chiralities_Consistent>
1

> <s_lp_Variant>
AV-unprocessed.smi:2789-1

> <Gold.Version>
5.8.1

> <Gold.Id.Protein>
6NUR|6NUR_protein|mol2

> <Gold.PLP.Fitness>
41.3043

> <Gold.PLP.PLP>
-34.7172

> <Gold.PLP.part.hbond>
-1.6821

> <Gold.PLP.part.metal>
0.0000

> <Gold.PLP.part.buried>
-5.2048

> <Gold.PLP.part.nonpolar>
-30.9927

> <Gold.PLP.part.repulsive>
1.9406

> <Gold.PLP.ligand.clash>
0.0000

> <Gold.PLP.ligand.torsion>
0.5540

> <Gold.PLP.Chemscore.Hbond>
1.5680

> <Gold.PLP.Chemscore.CHOScore>
0.9946

> <Gold.PLP.Chemscore.Metal>
0.0000

> <Gold.Chemscore.Hbonds>
donor molecule, donor type, donor heavy atom, donor atom, acceptor molecule, acceptor atom, score
      L1  H     8    29       P1  8028  0.70
      L1  H    11    30       P1  8028  0.84
      L1  C    14    32       P1 10175  1.00

> <Gold.PLP.Chemscore.Internal.Correction>
0.0076

> <Gold.Rescore>
     Score         DG    S(hbond)    S(metal)    S(lipo)     H(rot)  DE(clash)    DE(int)     intcor
     16.83     -17.45       1.85        0.00      77.42       1.27       0.01       0.62       ----

> <Gold.Chemscore.Fitness>
16.8317

> <Gold.Chemscore.DG>
-17.4530

> <Gold.Chemscore.ZeroCoef>
-5.4800

> <Gold.Chemscore.Hbond>
1.8469

> <Gold.Chemscore.Metal>
0.0000

> <Gold.Chemscore.Lipo>
77.4249

> <Gold.Chemscore.Internal_Hbond>
0.0000

> <Gold.Chemscore.DEClash>
0.0060

> <Gold.Chemscore.DEInternal>
0.6152

> <Gold.Chemscore.Rot>
1.2712

> <Gold.Chemscore.Internal.Correction>
   9.000000E+99

> <Gold.Chemscore.Hbonds>
donor molecule, donor type, donor heavy atom, donor atom, acceptor molecule, acceptor atom, score
      L1  H     8    29       P1  8028  0.68
      L1  H    11    30       P1  8028  0.78

> <Gold.Chemscore.Hbond.Weighted>
-6.1686

> <Gold.Chemscore.Metal.Weighted>
-0.0000

> <Gold.Chemscore.Lipo.Weighted>
-9.0587

> <Gold.Chemscore.Internal_Hbond.Weighted>
0.0000

> <Gold.Chemscore.DEClash.Weighted>
0.0060

> <Gold.Chemscore.DEInternal.Weighted>
0.6152

> <Gold.Chemscore.Rot.Weighted>
3.2544

> <Gold.Chemscore.Internal.Correction.Weighted>
   9.000000E+99

> <Gold.Protein.RotatedTorsions>
[ 6907 6896 6895 6894 ] final  -28.14 input  -60.11 | X-H torsion
[ 7974 7965 7964 7962 ] final  139.96 input  175.53 | X-H torsion
[ 8008 7997 7996 7995 ] final -137.94 input   59.86 | X-H torsion
[ 10167 10162 10161 10158 ] final   25.47 input  -65.29 | X-H torsion
[ 10718 10713 10712 10709 ] final -112.07 input   66.30 | X-H torsion
[ 10763 10752 10751 10750 ] final   84.22 input  -60.55 | X-H torsion
[ 11005 11000 10999 10996 ] final  117.24 input  -57.11 | X-H torsion

> <Gold.Protein.ActiveResidues>
 VAL166  LYS551  ARG553  GLY616  TRP617  ASP618  TYR619  PRO620  LYS621  CYS622 
 ASP623  PHE694  ASN695  SER759  ASP760  ASP761  ALA762  ILE779  LEU786  VAL792 
 PHE793  MET794  SER795  GLU796  ALA797  LYS798  CYS799  TRP800  GLU811  SER814 

> <Gold.Protein.RotatedAtoms>
  151.1371  135.0160  159.8608 H   0  0  0  0  0  0  0  0  0  0  0  0  # atno 6907 bound_to 6896
  152.5452  134.1543  159.8541 H   0  0  0  0  0  0  0  0  0  0  0  0  # atno 6908 bound_to 6896
  151.1615  133.4797  159.2627 H   0  0  0  0  0  0  0  0  0  0  0  0  # atno 6909 bound_to 6896
  144.9231  139.5143  143.5654 H   0  0  0  0  0  0  0  0  0  0  0  0  # atno 7974 bound_to 7965
  155.4201  140.0518  157.3026 H   0  0  0  0  0  0  0  0  0  0  0  0  # atno 8008 bound_to 7997
  154.4906  140.2118  155.9515 H   0  0  0  0  0  0  0  0  0  0  0  0  # atno 8009 bound_to 7997
  156.1337  140.3167  155.8393 H   0  0  0  0  0  0  0  0  0  0  0  0  # atno 8010 bound_to 7997
  140.5103  144.0171  150.6370 H   0  0  0  0  0  0  0  0  0  0  0  0  # atno 10167 bound_to 10162
  156.0684  130.5901  150.8459 H   0  0  0  0  0  0  0  0  0  0  0  0  # atno 10718 bound_to 10713
  153.1362  135.4662  154.9425 H   0  0  0  0  0  0  0  0  0  0  0  0  # atno 10763 bound_to 10752
  154.7707  135.3158  154.8197 H   0  0  0  0  0  0  0  0  0  0  0  0  # atno 10764 bound_to 10752
  153.8729  135.6902  153.4827 H   0  0  0  0  0  0  0  0  0  0  0  0  # atno 10765 bound_to 10752
  139.9068  134.9608  156.7320 H   0  0  0  0  0  0  0  0  0  0  0  0  # atno 11005 bound_to 11000
  146.3213  139.8125  142.8943 LP  0  0  0  0  0  0  0  0  0  0  0  0  # atno 17320 bound_to 7965
  145.3264  141.0256  143.3471 LP  0  0  0  0  0  0  0  0  0  0  0  0  # atno 17321 bound_to 7965
  140.3492  143.2973  152.0506 LP  0  0  0  0  0  0  0  0  0  0  0  0  # atno 17342 bound_to 10162
  139.4894  144.6386  151.6923 LP  0  0  0  0  0  0  0  0  0  0  0  0  # atno 17343 bound_to 10162
  157.5740  131.0946  150.9374 LP  0  0  0  0  0  0  0  0  0  0  0  0  # atno 17370 bound_to 10713
  156.9584  130.5446  149.5285 LP  0  0  0  0  0  0  0  0  0  0  0  0  # atno 17371 bound_to 10713
  140.6917  133.9384  155.7970 LP  0  0  0  0  0  0  0  0  0  0  0  0  # atno 17394 bound_to 11000
  141.0436  134.0585  157.3871 LP  0  0  0  0  0  0  0  0  0  0  0  0  # atno 17395 bound_to 11000

$$$$
