AV-unprocessed.smi:2541|AV-procd|sdf|9989|dock3
  -GOLD-   2272014 43D 1   1.00000     0.00000
 Structure written by MMmdl.
 38 39  0  0  0  0  0  0  0  0  1 V2000
  153.0725  140.0520  158.1605 O   0  0  0  0  0  0  0  0  0  0  0  0
  152.5778  141.1648  158.3492 C   0  0  0  0  0  0  0  0  0  0  0  0
  153.0472  142.0597  159.5039 C   0  0  0  0  0  0  0  0  0  0  0  0
  151.9938  143.0532  159.9233 C   0  0  0  0  0  0  0  0  0  0  0  0
  151.9881  144.4642  159.7392 C   0  0  0  0  0  0  0  0  0  0  0  0
  150.8081  144.8551  160.3029 C   0  0  0  0  0  0  0  0  0  0  0  0
  150.1344  143.7817  160.7878 O   0  0  0  0  0  0  0  0  0  0  0  0
  150.8976  142.6352  160.5382 N   0  0  0  0  0  0  0  0  0  0  0  0
  151.6100  141.6772  157.5732 N   0  0  0  0  0  0  0  0  0  0  0  0
  150.9943  141.0036  156.4332 C   0  0  0  0  0  0  0  0  0  0  0  0
  150.0508  141.9500  155.6562 C   0  0  2  0  0  0  0  0  0  0  0  0
  149.1968  142.5542  156.6107 O   0  0  0  0  0  0  0  0  0  0  0  0
  149.1610  141.2429  154.5963 C   0  0  0  0  0  0  0  0  0  0  0  0
  147.8984  142.0610  154.2279 C   0  0  0  0  0  0  0  0  0  0  0  0
  147.0129  141.3383  153.1993 C   0  0  0  0  0  0  0  0  0  0  0  0
  146.6082  139.9425  153.6890 C   0  0  0  0  0  0  0  0  0  0  0  0
  147.8486  139.1108  154.0381 C   0  0  0  0  0  0  0  0  0  0  0  0
  148.7282  139.8324  155.0712 C   0  0  0  0  0  0  0  0  0  0  0  0
  153.3150  141.4232  160.3478 H   0  0  0  0  0  0  0  0  0  0  0  0
  153.9603  142.5766  159.2045 H   0  0  0  0  0  0  0  0  0  0  0  0
  152.7348  145.0894  159.2727 H   0  0  0  0  0  0  0  0  0  0  0  0
  150.3283  145.8143  160.4301 H   0  0  0  0  0  0  0  0  0  0  0  0
  151.2604  142.5970  157.7994 H   0  0  0  0  0  0  0  0  0  0  0  0
  151.8279  140.6923  155.8070 H   0  0  0  0  0  0  0  0  0  0  0  0
  150.4779  140.0879  156.7268 H   0  0  0  0  0  0  0  0  0  0  0  0
  150.6354  142.7322  155.1695 H   0  0  0  0  0  0  0  0  0  0  0  0
  149.0567  143.4551  156.3621 H   0  0  0  0  0  0  0  0  0  0  0  0
  149.7525  141.1231  153.6870 H   0  0  0  0  0  0  0  0  0  0  0  0
  147.3175  142.2676  155.1278 H   0  0  0  0  0  0  0  0  0  0  0  0
  148.1705  143.0268  153.8060 H   0  0  0  0  0  0  0  0  0  0  0  0
  146.1213  141.9321  152.9953 H   0  0  0  0  0  0  0  0  0  0  0  0
  147.5489  141.2523  152.2533 H   0  0  0  0  0  0  0  0  0  0  0  0
  145.9665  140.0323  154.5665 H   0  0  0  0  0  0  0  0  0  0  0  0
  146.0201  139.4340  152.9244 H   0  0  0  0  0  0  0  0  0  0  0  0
  147.5452  138.1374  154.4244 H   0  0  0  0  0  0  0  0  0  0  0  0
  148.4284  138.9184  153.1345 H   0  0  0  0  0  0  0  0  0  0  0  0
  149.5994  139.2097  155.2751 H   0  0  0  0  0  0  0  0  0  0  0  0
  148.1849  139.9137  156.0136 H   0  0  0  0  0  0  0  0  0  0  0  0
  1  2  2  0  0  0  0
  2  3  1  0  0  0  0
  2  9  1  0  0  0  0
  3  4  1  0  0  0  0
  3 19  1  0  0  0  0
  3 20  1  0  0  0  0
  4  8  2  0  0  0  0
  4  5  1  0  0  0  0
  5  6  2  0  0  0  0
  5 21  1  0  0  0  0
  6  7  1  0  0  0  0
  6 22  1  0  0  0  0
  7  8  1  0  0  0  0
  9 10  1  0  0  0  0
  9 23  1  0  0  0  0
 10 11  1  0  0  0  0
 10 24  1  0  0  0  0
 10 25  1  0  0  0  0
 11 12  1  0  0  0  0
 11 13  1  0  0  0  0
 11 26  1  0  0  0  0
 12 27  1  0  0  0  0
 13 18  1  0  0  0  0
 13 14  1  0  0  0  0
 13 28  1  0  0  0  0
 14 15  1  0  0  0  0
 14 29  1  0  0  0  0
 14 30  1  0  0  0  0
 15 16  1  0  0  0  0
 15 31  1  0  0  0  0
 15 32  1  0  0  0  0
 16 17  1  0  0  0  0
 16 33  1  0  0  0  0
 16 34  1  0  0  0  0
 17 18  1  0  0  0  0
 17 35  1  0  0  0  0
 17 36  1  0  0  0  0
 18 37  1  0  0  0  0
 18 38  1  0  0  0  0
M  END
> <s_m_source_file>
AV-unprocessed.smi

> <i_m_source_file_index>
2541

> <i_lp_mmshare_version>
43012

> <i_f3d_flags>
0

> <s_epik_input>
bjFvW2NIXVtjSF1jMVtDSDJdQyg9TylbTkhdW0NIMl1bQ0BIXShbT0hdKVtDSF0yW0NIMl1bQ0gyXVtDSDJdW0NIMl1bQ0gyXTI=

> <s_epik_cmdline>
J2VwaWtfcHl0aG9uJywgJy1waCcsICc3LjAnLCAnLXRuJywgJzgnLCAnLW1hJywgJzIwMCcsICctbWV0YWxfYmluZGluZycsICctaW1hZScsICc8aW5maWxlLm1hZT4nLCAnLW9tYWUnLCAnPG91dGZpbGUubWFlPic=

> <r_lp_tautomer_probability>
1

> <r_epik_Ionization_Penalty>
2.3322e-07

> <r_epik_Ionization_Penalty_Charging>
0

> <r_epik_Ionization_Penalty_Neutral>
2.3322e-07

> <r_epik_State_Penalty>
-0

> <r_epik_Charging_Adjusted_Penalty>
0

> <i_epik_Tot_Q>
0

> <i_epik_Tot_abs_Q>
0

> <r_epik_Metal_State_Penalty>
-0

> <b_epik_Metal_Only>
0

> <s_lp_Force_Field>
OPLS_2005

> <r_lp_Energy>
14.1188

> <b_lp_Chiralities_Consistent>
1

> <s_lp_Variant>
AV-unprocessed.smi:2541-1

> <Gold.Version>
5.8.1

> <Gold.Id.Protein>
6NUR|6NUR_protein|mol2

> <Gold.PLP.Fitness>
41.7696

> <Gold.PLP.PLP>
-37.7115

> <Gold.PLP.part.hbond>
-3.9842

> <Gold.PLP.part.metal>
0.0000

> <Gold.PLP.part.buried>
-2.5997

> <Gold.PLP.part.nonpolar>
-29.5497

> <Gold.PLP.part.repulsive>
0.3012

> <Gold.PLP.ligand.clash>
0.0000

> <Gold.PLP.ligand.torsion>
0.9886

> <Gold.PLP.Chemscore.Hbond>
2.0000

> <Gold.PLP.Chemscore.CHOScore>
0.0000

> <Gold.PLP.Chemscore.Metal>
0.0000

> <Gold.Chemscore.Hbonds>
donor molecule, donor type, donor heavy atom, donor atom, acceptor molecule, acceptor atom, score
      L1  H    12    27       P1  8028  0.81
      P1  H  7997  8010       L1     1  1.00

> <Gold.PLP.Chemscore.Internal.Correction>
0.0354

> <Gold.Rescore>
     Score         DG    S(hbond)    S(metal)    S(lipo)     H(rot)  DE(clash)    DE(int)     intcor
     15.54     -16.62       1.84        0.00      95.57       2.42       0.45       0.64       ----

> <Gold.Chemscore.Fitness>
15.5386

> <Gold.Chemscore.DG>
-16.6216

> <Gold.Chemscore.ZeroCoef>
-5.4800

> <Gold.Chemscore.Hbond>
1.8408

> <Gold.Chemscore.Metal>
0.0000

> <Gold.Chemscore.Lipo>
95.5663

> <Gold.Chemscore.Internal_Hbond>
0.0000

> <Gold.Chemscore.DEClash>
0.4477

> <Gold.Chemscore.DEInternal>
0.6353

> <Gold.Chemscore.Rot>
2.4172

> <Gold.Chemscore.Internal.Correction>
   9.000000E+99

> <Gold.Chemscore.Hbonds>
donor molecule, donor type, donor heavy atom, donor atom, acceptor molecule, acceptor atom, score
      L1  H    12    27       P1  8028  0.80
      P1  H  7997  8010       L1     1  0.85

> <Gold.Chemscore.Hbond.Weighted>
-6.1483

> <Gold.Chemscore.Metal.Weighted>
-0.0000

> <Gold.Chemscore.Lipo.Weighted>
-11.1813

> <Gold.Chemscore.Internal_Hbond.Weighted>
0.0000

> <Gold.Chemscore.DEClash.Weighted>
0.4477

> <Gold.Chemscore.DEInternal.Weighted>
0.6353

> <Gold.Chemscore.Rot.Weighted>
6.1880

> <Gold.Chemscore.Internal.Correction.Weighted>
   9.000000E+99

> <Gold.Protein.RotatedTorsions>
[ 6907 6896 6895 6894 ] final  155.46 input  -60.11 | X-H torsion
[ 7974 7965 7964 7962 ] final   16.69 input  175.53 | X-H torsion
[ 8008 7997 7996 7995 ] final   37.94 input   59.86 | X-H torsion
[ 10167 10162 10161 10158 ] final  -52.39 input  -65.29 | X-H torsion
[ 10718 10713 10712 10709 ] final  -88.53 input   66.30 | X-H torsion
[ 10763 10752 10751 10750 ] final   -4.33 input  -60.55 | X-H torsion
[ 11005 11000 10999 10996 ] final  -68.68 input  -57.11 | X-H torsion

> <Gold.Protein.ActiveResidues>
 VAL166  LYS551  ARG553  GLY616  TRP617  ASP618  TYR619  PRO620  LYS621  CYS622 
 ASP623  PHE694  ASN695  SER759  ASP760  ASP761  ALA762  ILE779  LEU786  VAL792 
 PHE793  MET794  SER795  GLU796  ALA797  LYS798  CYS799  TRP800  GLU811  SER814 

> <Gold.Protein.RotatedAtoms>
  152.0438  133.3989  159.4347 H   0  0  0  0  0  0  0  0  0  0  0  0  # atno 6907 bound_to 6896
  150.6874  134.3385  159.4867 H   0  0  0  0  0  0  0  0  0  0  0  0  # atno 6908 bound_to 6896
  152.1187  134.9221  160.0614 H   0  0  0  0  0  0  0  0  0  0  0  0  # atno 6909 bound_to 6896
  146.2242  139.8711  142.8587 H   0  0  0  0  0  0  0  0  0  0  0  0  # atno 7974 bound_to 7965
  155.2121  140.3324  155.4327 H   0  0  0  0  0  0  0  0  0  0  0  0  # atno 8008 bound_to 7997
  156.2366  140.1875  156.7150 H   0  0  0  0  0  0  0  0  0  0  0  0  # atno 8009 bound_to 7997
  154.6071  140.0614  156.9431 H   0  0  0  0  0  0  0  0  0  0  0  0  # atno 8010 bound_to 7997
  140.6540  143.2585  151.4641 H   0  0  0  0  0  0  0  0  0  0  0  0  # atno 10167 bound_to 10162
  155.9983  130.4839  150.5033 H   0  0  0  0  0  0  0  0  0  0  0  0  # atno 10718 bound_to 10713
  153.3833  135.6999  153.6549 H   0  0  0  0  0  0  0  0  0  0  0  0  # atno 10763 bound_to 10752
  153.5151  135.3624  155.2606 H   0  0  0  0  0  0  0  0  0  0  0  0  # atno 10764 bound_to 10752
  154.8695  135.4144  154.3136 H   0  0  0  0  0  0  0  0  0  0  0  0  # atno 10765 bound_to 10752
  141.1537  133.6746  156.6482 H   0  0  0  0  0  0  0  0  0  0  0  0  # atno 11005 bound_to 11000
  145.2607  141.0076  143.3828 LP  0  0  0  0  0  0  0  0  0  0  0  0  # atno 17320 bound_to 7965
  144.9301  139.4309  143.6499 LP  0  0  0  0  0  0  0  0  0  0  0  0  # atno 17321 bound_to 7965
  139.5759  144.1820  152.1902 LP  0  0  0  0  0  0  0  0  0  0  0  0  # atno 17342 bound_to 10162
  140.1131  144.5440  150.6912 LP  0  0  0  0  0  0  0  0  0  0  0  0  # atno 17343 bound_to 10162
  157.3015  131.0646  151.2065 LP  0  0  0  0  0  0  0  0  0  0  0  0  # atno 17370 bound_to 10713
  157.3042  130.6858  149.6180 LP  0  0  0  0  0  0  0  0  0  0  0  0  # atno 17371 bound_to 10713
  140.3340  134.7904  157.4348 LP  0  0  0  0  0  0  0  0  0  0  0  0  # atno 17394 bound_to 11000
  140.0993  134.5495  155.8368 LP  0  0  0  0  0  0  0  0  0  0  0  0  # atno 17395 bound_to 11000

$$$$
