AV-unprocessed.smi:83|AV-procd|sdf|803|dock3
  -GOLD-   2262017193D 1   1.00000     0.00000
 Structure written by MMmdl.
 56 59  0  0  0  0  0  0  0  0  1 V2000
  153.2561  141.7068  160.1032 C   0  0  0  0  0  0  0  0  0  0  0  0
  153.1982  140.7217  158.9352 C   0  0  0  0  0  0  0  0  0  0  0  0
  154.0425  139.8284  158.8651 O   0  0  0  0  0  0  0  0  0  0  0  0
  152.2240  140.8736  158.0154 N   0  0  0  0  0  0  0  0  0  0  0  0
  151.1508  141.8643  158.0576 C   0  0  0  0  0  0  0  0  0  0  0  0
  150.1609  141.4358  156.9727 C   0  0  0  0  0  0  0  0  0  0  0  0
  151.0163  140.6831  155.9584 C   0  0  2  0  0  0  0  0  0  0  0  0
  150.2098  139.7131  155.0640 C   0  0  0  0  0  0  0  0  0  0  0  0
  148.7939  140.0677  154.9432 N   0  0  0  0  0  0  0  0  0  0  0  0
  148.4589  141.3152  154.2689 C   0  0  0  0  0  0  0  0  0  0  0  0
  147.9144  139.0350  154.8811 C   0  0  0  0  0  0  0  0  0  0  0  0
  147.8199  138.2246  155.9679 N   0  0  0  0  0  0  0  0  0  0  0  0
  147.0454  137.1370  155.9378 C   0  0  0  0  0  0  0  0  0  0  0  0
  146.3037  136.6702  154.9328 N   0  0  0  0  0  0  0  0  0  0  0  0
  146.3834  137.4842  153.8423 C   0  0  0  0  0  0  0  0  0  0  0  0
  147.1378  138.6876  153.7351 C   0  0  0  0  0  0  0  0  0  0  0  0
  146.9677  139.2313  152.4654 N   0  0  0  0  0  0  0  0  0  0  0  0
  146.1747  138.3938  151.8565 C   0  0  0  0  0  0  0  0  0  0  0  0
  145.8033  137.2991  152.6015 N   0  0  0  0  0  0  0  0  0  0  0  0
  145.0042  136.1732  152.1586 C   0  0  0  0  0  0  0  0  0  0  0  0
  145.8719  135.0163  151.6151 C   0  0  1  0  0  0  0  0  0  0  0  0
  146.9063  134.7907  152.5513 O   0  0  0  0  0  0  0  0  0  0  0  0
  145.1036  133.6938  151.3890 C   0  0  2  0  0  0  0  0  0  0  0  0
  145.9794  132.5112  150.9648 C   0  0  0  0  0  0  0  0  0  0  0  0
  145.0247  131.5970  150.2090 C   0  0  0  0  0  0  0  0  0  0  0  0
  143.7812  132.4602  149.9910 C   0  0  0  0  0  0  0  0  0  0  0  0
  144.2135  133.7785  150.2854 O   0  0  0  0  0  0  0  0  0  0  0  0
  152.0854  140.0206  156.8403 C   0  0  0  0  0  0  0  0  0  0  0  0
  153.2886  142.7347  159.7417 H   0  0  0  0  0  0  0  0  0  0  0  0
  154.1481  141.5355  160.7065 H   0  0  0  0  0  0  0  0  0  0  0  0
  152.3852  141.5889  160.7484 H   0  0  0  0  0  0  0  0  0  0  0  0
  150.6660  141.9121  159.0336 H   0  0  0  0  0  0  0  0  0  0  0  0
  151.5649  142.8479  157.8313 H   0  0  0  0  0  0  0  0  0  0  0  0
  149.4181  140.7631  157.4042 H   0  0  0  0  0  0  0  0  0  0  0  0
  149.6295  142.2800  156.5326 H   0  0  0  0  0  0  0  0  0  0  0  0
  151.5054  141.4304  155.3315 H   0  0  0  0  0  0  0  0  0  0  0  0
  150.6722  139.6277  154.0800 H   0  0  0  0  0  0  0  0  0  0  0  0
  150.2609  138.7128  155.4951 H   0  0  0  0  0  0  0  0  0  0  0  0
  147.4088  141.5706  154.4157 H   0  0  0  0  0  0  0  0  0  0  0  0
  148.6576  141.2471  153.1991 H   0  0  0  0  0  0  0  0  0  0  0  0
  149.0569  142.1331  154.6712 H   0  0  0  0  0  0  0  0  0  0  0  0
  147.0324  136.5471  156.8422 H   0  0  0  0  0  0  0  0  0  0  0  0
  145.8708  138.5314  150.8290 H   0  0  0  0  0  0  0  0  0  0  0  0
  144.4019  135.8337  153.0023 H   0  0  0  0  0  0  0  0  0  0  0  0
  144.3074  136.5196  151.3940 H   0  0  0  0  0  0  0  0  0  0  0  0
  146.3396  135.3230  150.6785 H   0  0  0  0  0  0  0  0  0  0  0  0
  147.5916  135.4230  152.3978 H   0  0  0  0  0  0  0  0  0  0  0  0
  144.5348  133.4316  152.2835 H   0  0  0  0  0  0  0  0  0  0  0  0
  146.7673  132.8495  150.2902 H   0  0  0  0  0  0  0  0  0  0  0  0
  146.4539  132.0173  151.8134 H   0  0  0  0  0  0  0  0  0  0  0  0
  145.4632  131.2817  149.2619 H   0  0  0  0  0  0  0  0  0  0  0  0
  144.7799  130.7021  150.7817 H   0  0  0  0  0  0  0  0  0  0  0  0
  143.3843  132.3863  148.9787 H   0  0  0  0  0  0  0  0  0  0  0  0
  142.9898  132.1789  150.6871 H   0  0  0  0  0  0  0  0  0  0  0  0
  153.0334  139.9188  156.3101 H   0  0  0  0  0  0  0  0  0  0  0  0
  151.7686  139.0290  157.1665 H   0  0  0  0  0  0  0  0  0  0  0  0
  1  2  1  0  0  0  0
  1 29  1  0  0  0  0
  1 30  1  0  0  0  0
  1 31  1  0  0  0  0
  2  3  2  0  0  0  0
  2  4  1  0  0  0  0
  4 28  1  0  0  0  0
  4  5  1  0  0  0  0
  5  6  1  0  0  0  0
  5 32  1  0  0  0  0
  5 33  1  0  0  0  0
  6  7  1  0  0  0  0
  6 34  1  0  0  0  0
  6 35  1  0  0  0  0
  7  8  1  0  0  0  0
  7 28  1  0  0  0  0
  7 36  1  0  0  0  0
  8  9  1  0  0  0  0
  8 37  1  0  0  0  0
  8 38  1  0  0  0  0
  9 10  1  0  0  0  0
  9 11  1  0  0  0  0
 10 39  1  0  0  0  0
 10 40  1  0  0  0  0
 10 41  1  0  0  0  0
 11 16  1  0  0  0  0
 11 12  2  0  0  0  0
 12 13  1  0  0  0  0
 13 14  2  0  0  0  0
 13 42  1  0  0  0  0
 14 15  1  0  0  0  0
 15 19  1  0  0  0  0
 15 16  2  0  0  0  0
 16 17  1  0  0  0  0
 17 18  2  0  0  0  0
 18 19  1  0  0  0  0
 18 43  1  0  0  0  0
 19 20  1  0  0  0  0
 20 21  1  0  0  0  0
 20 44  1  0  0  0  0
 20 45  1  0  0  0  0
 21 22  1  0  0  0  0
 21 23  1  0  0  0  0
 21 46  1  0  0  0  0
 22 47  1  0  0  0  0
 23 27  1  0  0  0  0
 23 24  1  0  0  0  0
 23 48  1  0  0  0  0
 24 25  1  0  0  0  0
 24 49  1  0  0  0  0
 24 50  1  0  0  0  0
 25 26  1  0  0  0  0
 25 51  1  0  0  0  0
 25 52  1  0  0  0  0
 26 27  1  0  0  0  0
 26 53  1  0  0  0  0
 26 54  1  0  0  0  0
 28 55  1  0  0  0  0
 28 56  1  0  0  0  0
M  END
> <s_m_source_file>
AV-unprocessed.smi

> <i_m_source_file_index>
83

> <i_lp_mmshare_version>
43012

> <i_f3d_flags>
0

> <s_epik_input>
W0NIM11DKD1PKU4xW0NIMl1bQ0gyXVtDQEhdKFtDSDJdMSlbQ0gyXU4oW0NIM10pYyhuW2NIXW4yKWMoYzIzKW5bY0hdbjNbQ0gyXVtDQEhdKFtPSF0pW0NAQEhdNFtDSDJdW0NIMl1bQ0gyXU80

> <s_epik_cmdline>
J2VwaWtfcHl0aG9uJywgJy1waCcsICc3LjAnLCAnLXRuJywgJzgnLCAnLW1hJywgJzIwMCcsICctbWV0YWxfYmluZGluZycsICctaW1hZScsICc8aW5maWxlLm1hZT4nLCAnLW9tYWUnLCAnPG91dGZpbGUubWFlPic=

> <r_lp_tautomer_probability>
1

> <r_epik_Ionization_Penalty>
0.00109752

> <r_epik_Ionization_Penalty_Charging>
0

> <r_epik_Ionization_Penalty_Neutral>
0.00109752

> <r_epik_State_Penalty>
0.000634803

> <r_epik_Charging_Adjusted_Penalty>
0.000634803

> <i_epik_Tot_Q>
0

> <i_epik_Tot_abs_Q>
0

> <r_epik_Metal_State_Penalty>
-0

> <b_epik_Metal_Only>
0

> <s_lp_Force_Field>
OPLS_2005

> <r_lp_Energy>
52.1505

> <b_lp_Chiralities_Consistent>
1

> <s_lp_Variant>
AV-unprocessed.smi:83-4

> <Gold.Version>
5.8.1

> <Gold.Id.Protein>
6NUR|6NUR_protein|mol2

> <Gold.PLP.Fitness>
51.9298

> <Gold.PLP.PLP>
-46.6795

> <Gold.PLP.part.hbond>
-2.0000

> <Gold.PLP.part.metal>
0.0000

> <Gold.PLP.part.buried>
-5.9124

> <Gold.PLP.part.nonpolar>
-41.3192

> <Gold.PLP.part.repulsive>
2.1765

> <Gold.PLP.ligand.clash>
0.0000

> <Gold.PLP.ligand.torsion>
2.0887

> <Gold.PLP.Chemscore.Hbond>
2.0000

> <Gold.PLP.Chemscore.CHOScore>
0.9220

> <Gold.PLP.Chemscore.Metal>
0.0000

> <Gold.Chemscore.Hbonds>
donor molecule, donor type, donor heavy atom, donor atom, acceptor molecule, acceptor atom, score
      L1  H    22    47       P1  7948  1.00
      P1  H  7997  8009       L1     3  1.00
      L1  C    18    43       P1 10171  1.00

> <Gold.PLP.Chemscore.Internal.Correction>
0.6617

> <Gold.Rescore>
     Score         DG    S(hbond)    S(metal)    S(lipo)     H(rot)  DE(clash)    DE(int)     intcor
     14.50     -16.89       1.92        0.00      99.94       2.62       0.43       1.96       ----

> <Gold.Chemscore.Fitness>
14.4995

> <Gold.Chemscore.DG>
-16.8868

> <Gold.Chemscore.ZeroCoef>
-5.4800

> <Gold.Chemscore.Hbond>
1.9188

> <Gold.Chemscore.Metal>
0.0000

> <Gold.Chemscore.Lipo>
99.9402

> <Gold.Chemscore.Internal_Hbond>
0.0000

> <Gold.Chemscore.DEClash>
0.4269

> <Gold.Chemscore.DEInternal>
1.9604

> <Gold.Chemscore.Rot>
2.6152

> <Gold.Chemscore.Internal.Correction>
   9.000000E+99

> <Gold.Chemscore.Hbonds>
donor molecule, donor type, donor heavy atom, donor atom, acceptor molecule, acceptor atom, score
      L1  H    22    47       P1  7948  1.00
      P1  H  7997  8009       L1     3  0.55

> <Gold.Chemscore.Hbond.Weighted>
-6.4087

> <Gold.Chemscore.Metal.Weighted>
-0.0000

> <Gold.Chemscore.Lipo.Weighted>
-11.6930

> <Gold.Chemscore.Internal_Hbond.Weighted>
0.0000

> <Gold.Chemscore.DEClash.Weighted>
0.4269

> <Gold.Chemscore.DEInternal.Weighted>
1.9604

> <Gold.Chemscore.Rot.Weighted>
6.6949

> <Gold.Chemscore.Internal.Correction.Weighted>
   9.000000E+99

> <Gold.Protein.RotatedTorsions>
[ 6907 6896 6895 6894 ] final  -73.43 input  -60.11 | X-H torsion
[ 7974 7965 7964 7962 ] final -174.29 input  175.53 | X-H torsion
[ 8008 7997 7996 7995 ] final  136.98 input   59.86 | X-H torsion
[ 10167 10162 10161 10158 ] final  -19.36 input  -65.29 | X-H torsion
[ 10718 10713 10712 10709 ] final  173.08 input   66.30 | X-H torsion
[ 10763 10752 10751 10750 ] final -112.67 input  -60.55 | X-H torsion
[ 11005 11000 10999 10996 ] final  -19.46 input  -57.11 | X-H torsion

> <Gold.Protein.ActiveResidues>
 VAL166  LYS551  ARG553  GLY616  TRP617  ASP618  TYR619  PRO620  LYS621  CYS622 
 ASP623  PHE694  ASN695  SER759  ASP760  ASP761  ALA762  ILE779  LEU786  VAL792 
 PHE793  MET794  SER795  GLU796  ALA797  LYS798  CYS799  TRP800  GLU811  SER814 

> <Gold.Protein.RotatedAtoms>
  150.7130  134.5018  159.5564 H   0  0  0  0  0  0  0  0  0  0  0  0  # atno 6907 bound_to 6896
  152.2613  134.8028  160.0439 H   0  0  0  0  0  0  0  0  0  0  0  0  # atno 6908 bound_to 6896
  151.8740  133.3446  159.3781 H   0  0  0  0  0  0  0  0  0  0  0  0  # atno 6909 bound_to 6896
  144.7133  140.1494  143.6385 H   0  0  0  0  0  0  0  0  0  0  0  0  # atno 7974 bound_to 7965
  156.3003  140.2431  156.3835 H   0  0  0  0  0  0  0  0  0  0  0  0  # atno 8008 bound_to 7997
  154.8679  140.0417  157.1726 H   0  0  0  0  0  0  0  0  0  0  0  0  # atno 8009 bound_to 7997
  154.8826  140.2951  155.5420 H   0  0  0  0  0  0  0  0  0  0  0  0  # atno 8010 bound_to 7997
  140.7267  143.4826  151.0097 H   0  0  0  0  0  0  0  0  0  0  0  0  # atno 10167 bound_to 10162
  156.9695  131.0085  151.2908 H   0  0  0  0  0  0  0  0  0  0  0  0  # atno 10718 bound_to 10713
  154.8360  135.4482  154.1230 H   0  0  0  0  0  0  0  0  0  0  0  0  # atno 10763 bound_to 10752
  153.2461  135.6921  153.7736 H   0  0  0  0  0  0  0  0  0  0  0  0  # atno 10764 bound_to 10752
  153.7066  135.3363  155.3212 H   0  0  0  0  0  0  0  0  0  0  0  0  # atno 10765 bound_to 10752
  140.8368  133.7956  155.9818 H   0  0  0  0  0  0  0  0  0  0  0  0  # atno 11005 bound_to 11000
  145.9130  139.2498  143.1426 LP  0  0  0  0  0  0  0  0  0  0  0  0  # atno 17320 bound_to 7965
  145.9697  140.8770  143.0169 LP  0  0  0  0  0  0  0  0  0  0  0  0  # atno 17321 bound_to 7965
  139.8525  143.7419  152.3177 LP  0  0  0  0  0  0  0  0  0  0  0  0  # atno 17342 bound_to 10162
  139.7606  144.7507  151.0369 LP  0  0  0  0  0  0  0  0  0  0  0  0  # atno 17343 bound_to 10162
  157.5602  130.8241  149.8256 LP  0  0  0  0  0  0  0  0  0  0  0  0  # atno 17370 bound_to 10713
  156.0289  130.3771  150.1745 LP  0  0  0  0  0  0  0  0  0  0  0  0  # atno 17371 bound_to 10713
  140.8938  134.2462  157.5080 LP  0  0  0  0  0  0  0  0  0  0  0  0  # atno 17394 bound_to 11000
  139.8704  134.9674  156.4596 LP  0  0  0  0  0  0  0  0  0  0  0  0  # atno 17395 bound_to 11000

$$$$
