AV-unprocessed.smi:2709|AV-procd|sdf|10462|dock4
  -GOLD-   2272014503D 1   1.00000     0.00000
 Structure written by MMmdl.
 40 42  0  0  0  0  0  0  0  0  1 V2000
  144.3959  134.8721  155.1003 C   0  0  0  0  0  0  0  0  0  0  0  0
  145.0859  135.4589  154.0097 O   0  0  0  0  0  0  0  0  0  0  0  0
  144.2235  136.0083  153.0169 C   0  0  2  0  0  0  0  0  0  0  0  0
  143.4424  134.8423  152.4082 C   0  0  0  0  0  0  0  0  0  0  0  0
  144.3908  134.2578  151.3648 C   0  0  0  0  0  0  0  0  0  0  0  0
  145.1141  135.4714  150.7747 C   0  0  0  0  0  0  0  0  0  0  0  0
  145.0410  136.5851  151.8379 C   0  0  2  0  0  0  0  0  0  0  0  0
  146.3773  137.0284  152.2309 N   0  0  0  0  0  0  0  0  0  0  0  0
  146.6320  138.0418  153.0696 C   0  0  0  0  0  0  0  0  0  0  0  0
  145.7521  138.7203  153.5987 O   0  0  0  0  0  0  0  0  0  0  0  0
  147.9543  138.2100  153.2388 N   0  0  0  0  0  0  0  0  0  0  0  0
  148.6313  139.1788  154.0276 C   0  0  0  0  0  0  0  0  0  0  0  0
  150.0130  139.0188  154.2630 C   0  0  0  0  0  0  0  0  0  0  0  0
  150.7205  139.8971  155.0054 N   0  0  0  0  0  0  0  0  0  0  0  0
  150.0464  140.9250  155.5279 C   0  0  0  0  0  0  0  0  0  0  0  0
  150.8434  141.9276  156.3039 C   0  0  0  0  0  0  0  0  0  0  0  0
  151.6355  141.5141  157.5274 C   0  0  0  0  0  0  0  0  0  0  0  0
  150.4064  142.3650  157.6873 C   0  0  0  0  0  0  0  0  0  0  0  0
  148.7439  141.1805  155.3785 N   0  0  0  0  0  0  0  0  0  0  0  0
  148.0284  140.3079  154.6358 C   0  0  0  0  0  0  0  0  0  0  0  0
  145.1137  134.4881  155.8250 H   0  0  0  0  0  0  0  0  0  0  0  0
  143.7729  134.0409  154.7675 H   0  0  0  0  0  0  0  0  0  0  0  0
  143.7649  135.6036  155.6068 H   0  0  0  0  0  0  0  0  0  0  0  0
  143.5466  136.7578  153.4325 H   0  0  0  0  0  0  0  0  0  0  0  0
  143.1254  134.1087  153.1503 H   0  0  0  0  0  0  0  0  0  0  0  0
  142.5466  135.2203  151.9135 H   0  0  0  0  0  0  0  0  0  0  0  0
  145.1122  133.6021  151.8542 H   0  0  0  0  0  0  0  0  0  0  0  0
  143.8704  133.6708  150.6075 H   0  0  0  0  0  0  0  0  0  0  0  0
  146.1362  135.2186  150.4895 H   0  0  0  0  0  0  0  0  0  0  0  0
  144.6035  135.8010  149.8688 H   0  0  0  0  0  0  0  0  0  0  0  0
  144.4938  137.4239  151.4028 H   0  0  0  0  0  0  0  0  0  0  0  0
  147.1581  136.5179  151.8456 H   0  0  0  0  0  0  0  0  0  0  0  0
  148.5502  137.6029  152.6951 H   0  0  0  0  0  0  0  0  0  0  0  0
  150.5587  138.1839  153.8478 H   0  0  0  0  0  0  0  0  0  0  0  0
  151.2785  142.6789  155.6474 H   0  0  0  0  0  0  0  0  0  0  0  0
  151.5705  140.4765  157.8496 H   0  0  0  0  0  0  0  0  0  0  0  0
  152.6014  141.9904  157.6822 H   0  0  0  0  0  0  0  0  0  0  0  0
  150.5487  143.4114  157.9496 H   0  0  0  0  0  0  0  0  0  0  0  0
  149.5242  141.8931  158.1156 H   0  0  0  0  0  0  0  0  0  0  0  0
  146.9757  140.5268  154.5542 H   0  0  0  0  0  0  0  0  0  0  0  0
  1  2  1  0  0  0  0
  1 21  1  0  0  0  0
  1 22  1  0  0  0  0
  1 23  1  0  0  0  0
  2  3  1  0  0  0  0
  3  7  1  0  0  0  0
  3  4  1  0  0  0  0
  3 24  1  0  0  0  0
  4  5  1  0  0  0  0
  4 25  1  0  0  0  0
  4 26  1  0  0  0  0
  5  6  1  0  0  0  0
  5 27  1  0  0  0  0
  5 28  1  0  0  0  0
  6  7  1  0  0  0  0
  6 29  1  0  0  0  0
  6 30  1  0  0  0  0
  7  8  1  0  0  0  0
  7 31  1  0  0  0  0
  8  9  1  0  0  0  0
  8 32  1  0  0  0  0
  9 10  2  0  0  0  0
  9 11  1  0  0  0  0
 11 12  1  0  0  0  0
 11 33  1  0  0  0  0
 12 20  1  0  0  0  0
 12 13  2  0  0  0  0
 13 14  1  0  0  0  0
 13 34  1  0  0  0  0
 14 15  2  0  0  0  0
 15 16  1  0  0  0  0
 15 19  1  0  0  0  0
 16 18  1  0  0  0  0
 16 17  1  0  0  0  0
 16 35  1  0  0  0  0
 17 18  1  0  0  0  0
 17 36  1  0  0  0  0
 17 37  1  0  0  0  0
 18 38  1  0  0  0  0
 18 39  1  0  0  0  0
 19 20  2  0  0  0  0
 20 40  1  0  0  0  0
M  END
> <s_m_source_file>
AV-unprocessed.smi

> <i_m_source_file_index>
2709

> <i_lp_mmshare_version>
43012

> <i_f3d_flags>
0

> <s_epik_input>
W0NIM11PW0NAQEhdMVtDSDJdW0NIMl1bQ0gyXVtDQEhdMVtOSF1DKD1PKVtOSF1jMltjSF1uYyhuW2NIXTIpW0NIXTNbQ0gyXVtDSDJdMw==

> <s_epik_cmdline>
J2VwaWtfcHl0aG9uJywgJy1waCcsICc3LjAnLCAnLXRuJywgJzgnLCAnLW1hJywgJzIwMCcsICctbWV0YWxfYmluZGluZycsICctaW1hZScsICc8aW5maWxlLm1hZT4nLCAnLW9tYWUnLCAnPG91dGZpbGUubWFlPic=

> <r_lp_tautomer_probability>
1

> <r_epik_Ionization_Penalty>
2.49969e-05

> <r_epik_Ionization_Penalty_Charging>
0

> <r_epik_Ionization_Penalty_Neutral>
2.49969e-05

> <r_epik_State_Penalty>
-0

> <r_epik_Charging_Adjusted_Penalty>
0

> <i_epik_Tot_Q>
0

> <i_epik_Tot_abs_Q>
0

> <r_epik_Metal_State_Penalty>
-0

> <b_epik_Metal_Only>
0

> <s_lp_Force_Field>
OPLS_2005

> <r_lp_Energy>
20.8159

> <b_lp_Chiralities_Consistent>
1

> <s_lp_Variant>
AV-unprocessed.smi:2709-3

> <Gold.Version>
5.8.1

> <Gold.Id.Protein>
6NUR|6NUR_protein|mol2

> <Gold.PLP.Fitness>
37.5479

> <Gold.PLP.PLP>
-28.8636

> <Gold.PLP.part.hbond>
-3.3721

> <Gold.PLP.part.metal>
0.0000

> <Gold.PLP.part.buried>
-4.2556

> <Gold.PLP.part.nonpolar>
-23.5059

> <Gold.PLP.part.repulsive>
1.7690

> <Gold.PLP.ligand.clash>
0.0000

> <Gold.PLP.ligand.torsion>
0.1391

> <Gold.PLP.Chemscore.Hbond>
2.9420

> <Gold.PLP.Chemscore.CHOScore>
0.0000

> <Gold.PLP.Chemscore.Metal>
0.0000

> <Gold.Chemscore.Hbonds>
donor molecule, donor type, donor heavy atom, donor atom, acceptor molecule, acceptor atom, score
      L1  H     8    32       P1  7948  0.98
      L1  H    11    33       P1  7948  1.00
      P1  H  7989  7998       L1    14  0.86

> <Gold.PLP.Chemscore.Internal.Correction>
0.1365

> <Gold.Rescore>
     Score         DG    S(hbond)    S(metal)    S(lipo)     H(rot)  DE(clash)    DE(int)     intcor
     14.34     -16.69       2.06        0.00      67.80       1.41       0.87       1.48       ----

> <Gold.Chemscore.Fitness>
14.3355

> <Gold.Chemscore.DG>
-16.6904

> <Gold.Chemscore.ZeroCoef>
-5.4800

> <Gold.Chemscore.Hbond>
2.0631

> <Gold.Chemscore.Metal>
0.0000

> <Gold.Chemscore.Lipo>
67.8030

> <Gold.Chemscore.Internal_Hbond>
0.0000

> <Gold.Chemscore.DEClash>
0.8728

> <Gold.Chemscore.DEInternal>
1.4821

> <Gold.Chemscore.Rot>
1.4114

> <Gold.Chemscore.Internal.Correction>
   9.000000E+99

> <Gold.Chemscore.Hbonds>
donor molecule, donor type, donor heavy atom, donor atom, acceptor molecule, acceptor atom, score
      L1  H     8    32       P1  7948  0.93
      L1  H    11    33       P1  7948  0.98
      P1  H  7989  7998       L1    14  0.04

> <Gold.Chemscore.Hbond.Weighted>
-6.8907

> <Gold.Chemscore.Metal.Weighted>
-0.0000

> <Gold.Chemscore.Lipo.Weighted>
-7.9330

> <Gold.Chemscore.Internal_Hbond.Weighted>
0.0000

> <Gold.Chemscore.DEClash.Weighted>
0.8728

> <Gold.Chemscore.DEInternal.Weighted>
1.4821

> <Gold.Chemscore.Rot.Weighted>
3.6133

> <Gold.Chemscore.Internal.Correction.Weighted>
   9.000000E+99

> <Gold.Protein.RotatedTorsions>
[ 6907 6896 6895 6894 ] final  -20.01 input  -60.11 | X-H torsion
[ 7974 7965 7964 7962 ] final  -40.75 input  175.53 | X-H torsion
[ 8008 7997 7996 7995 ] final   16.06 input   59.86 | X-H torsion
[ 10167 10162 10161 10158 ] final  -56.67 input  -65.29 | X-H torsion
[ 10718 10713 10712 10709 ] final  -53.19 input   66.30 | X-H torsion
[ 10763 10752 10751 10750 ] final  -49.17 input  -60.55 | X-H torsion
[ 11005 11000 10999 10996 ] final   -9.83 input  -57.11 | X-H torsion

> <Gold.Protein.ActiveResidues>
 VAL166  LYS551  ARG553  GLY616  TRP617  ASP618  TYR619  PRO620  LYS621  CYS622 
 ASP623  PHE694  ASN695  SER759  ASP760  ASP761  ALA762  ILE779  LEU786  VAL792 
 PHE793  MET794  SER795  GLU796  ALA797  LYS798  CYS799  TRP800  GLU811  SER814 

> <Gold.Protein.RotatedAtoms>
  151.2546  135.0633  159.9074 H   0  0  0  0  0  0  0  0  0  0  0  0  # atno 6907 bound_to 6896
  152.5375  134.0296  159.8029 H   0  0  0  0  0  0  0  0  0  0  0  0  # atno 6908 bound_to 6896
  151.0509  133.5575  159.2673 H   0  0  0  0  0  0  0  0  0  0  0  0  # atno 6909 bound_to 6896
  146.0275  140.6773  142.9148 H   0  0  0  0  0  0  0  0  0  0  0  0  # atno 7974 bound_to 7965
  154.8715  140.2959  155.5478 H   0  0  0  0  0  0  0  0  0  0  0  0  # atno 8008 bound_to 7997
  156.3021  140.2459  156.3638 H   0  0  0  0  0  0  0  0  0  0  0  0  # atno 8009 bound_to 7997
  154.8812  140.0398  157.1772 H   0  0  0  0  0  0  0  0  0  0  0  0  # atno 8010 bound_to 7997
  140.6303  143.2456  151.5257 H   0  0  0  0  0  0  0  0  0  0  0  0  # atno 10167 bound_to 10162
  156.1557  130.4150  149.9873 H   0  0  0  0  0  0  0  0  0  0  0  0  # atno 10718 bound_to 10713
  154.0897  135.6579  153.4850 H   0  0  0  0  0  0  0  0  0  0  0  0  # atno 10763 bound_to 10752
  153.0326  135.5199  154.7393 H   0  0  0  0  0  0  0  0  0  0  0  0  # atno 10764 bound_to 10752
  154.6513  135.3001  154.9952 H   0  0  0  0  0  0  0  0  0  0  0  0  # atno 10765 bound_to 10752
  140.7384  133.8691  155.8948 H   0  0  0  0  0  0  0  0  0  0  0  0  # atno 11005 bound_to 11000
  144.7016  140.3676  143.7151 LP  0  0  0  0  0  0  0  0  0  0  0  0  # atno 17320 bound_to 7965
  145.7094  139.1681  143.2547 LP  0  0  0  0  0  0  0  0  0  0  0  0  # atno 17321 bound_to 7965
  139.5518  144.2375  152.1544 LP  0  0  0  0  0  0  0  0  0  0  0  0  # atno 17342 bound_to 10162
  140.1618  144.5019  150.6628 LP  0  0  0  0  0  0  0  0  0  0  0  0  # atno 17343 bound_to 10162
  156.7718  130.9189  151.3644 LP  0  0  0  0  0  0  0  0  0  0  0  0  # atno 17370 bound_to 10713
  157.6693  130.9036  150.0003 LP  0  0  0  0  0  0  0  0  0  0  0  0  # atno 17371 bound_to 10713
  140.9859  134.1343  157.4452 LP  0  0  0  0  0  0  0  0  0  0  0  0  # atno 17394 bound_to 11000
  139.8811  135.0025  156.6132 LP  0  0  0  0  0  0  0  0  0  0  0  0  # atno 17395 bound_to 11000

$$$$
