AV-unprocessed.smi:438|AV-procd|sdf|2574|dock2
  -GOLD-   2262022553D 1   1.00000     0.00000
 Structure written by MMmdl.
 47 48  0  0  0  0  0  0  0  0  2 V2000
  147.6935  138.5974  155.0566 C   0  0  0  0  0  0  0  0  0  0  0  0
  149.0433  137.9031  155.0892 C   0  0  0  0  0  0  0  0  0  0  0  0
  149.0098  136.5076  155.2485 N   0  0  0  0  0  0  0  0  0  0  0  0
  150.1066  135.8518  155.2944 C   0  0  0  0  0  0  0  0  0  0  0  0
  150.0687  134.0634  155.5080 S   0  0  0  0  0  0  0  0  0  0  0  0
  149.5834  133.4416  153.8697 C   0  0  0  0  0  0  0  0  0  0  0  0
  148.0738  133.4853  153.6379 C   0  0  0  0  0  0  0  0  0  0  0  0
  147.3058  133.7057  154.5750 O   0  0  0  0  0  0  0  0  0  0  0  0
  147.6595  133.2704  152.3796 N   0  0  0  0  0  0  0  0  0  0  0  0
  146.2681  133.2774  151.9325 C   0  0  1  0  0  0  0  0  0  0  0  0
  146.0153  134.5198  151.0534 C   0  0  0  0  0  0  0  0  0  0  0  0
  144.5809  134.5453  150.5067 C   0  0  0  0  0  0  0  0  0  0  0  0
  144.2640  133.2569  149.7355 C   0  0  0  0  0  0  0  0  0  0  0  0
  144.4987  132.0175  150.6120 C   0  0  0  0  0  0  0  0  0  0  0  0
  145.9362  131.9705  151.1694 C   0  0  2  0  0  0  0  0  0  0  0  0
  146.1372  130.7146  152.0365 C   0  0  0  0  0  0  0  0  0  0  0  0
  151.3506  136.4296  155.1921 N   0  5  0  0  0  0  0  0  0  0  0  0
  151.4676  137.7788  155.0334 C   0  0  0  0  0  0  0  0  0  0  0  0
  152.5614  138.3345  154.9395 O   0  0  0  0  0  0  0  0  0  0  0  0
  150.2267  138.5719  154.9822 C   0  0  0  0  0  0  0  0  0  0  0  0
  150.3267  140.0843  154.7985 C   0  0  0  0  0  0  0  0  0  0  0  0
  149.5107  140.8485  155.8509 C   0  0  0  0  0  0  0  0  0  0  0  0
  149.1589  142.1220  155.3550 O   0  0  0  0  0  0  0  0  0  0  0  0
  147.6638  139.4136  155.7787 H   0  0  0  0  0  0  0  0  0  0  0  0
  146.8871  137.9050  155.3017 H   0  0  0  0  0  0  0  0  0  0  0  0
  147.4992  139.0027  154.0635 H   0  0  0  0  0  0  0  0  0  0  0  0
  149.9226  132.4107  153.7640 H   0  0  0  0  0  0  0  0  0  0  0  0
  150.0918  134.0311  153.1051 H   0  0  0  0  0  0  0  0  0  0  0  0
  148.3620  133.0956  151.6757 H   0  0  0  0  0  0  0  0  0  0  0  0
  145.6121  133.3316  152.8037 H   0  0  0  0  0  0  0  0  0  0  0  0
  146.2014  135.4294  151.6260 H   0  0  0  0  0  0  0  0  0  0  0  0
  146.7191  134.5317  150.2196 H   0  0  0  0  0  0  0  0  0  0  0  0
  143.8769  134.6626  151.3315 H   0  0  0  0  0  0  0  0  0  0  0  0
  144.4451  135.4108  149.8578 H   0  0  0  0  0  0  0  0  0  0  0  0
  143.2306  133.2763  149.3885 H   0  0  0  0  0  0  0  0  0  0  0  0
  144.8894  133.1995  148.8438 H   0  0  0  0  0  0  0  0  0  0  0  0
  143.7841  132.0168  151.4363 H   0  0  0  0  0  0  0  0  0  0  0  0
  144.2952  131.1184  150.0293 H   0  0  0  0  0  0  0  0  0  0  0  0
  146.6162  131.8930  150.3193 H   0  0  0  0  0  0  0  0  0  0  0  0
  145.5110  130.7470  152.9288 H   0  0  0  0  0  0  0  0  0  0  0  0
  147.1726  130.6084  152.3603 H   0  0  0  0  0  0  0  0  0  0  0  0
  145.8782  129.8114  151.4834 H   0  0  0  0  0  0  0  0  0  0  0  0
  149.9892  140.3640  153.8009 H   0  0  0  0  0  0  0  0  0  0  0  0
  151.3739  140.3879  154.8407 H   0  0  0  0  0  0  0  0  0  0  0  0
  148.6013  140.3024  156.1041 H   0  0  0  0  0  0  0  0  0  0  0  0
  150.0833  140.9732  156.7706 H   0  0  0  0  0  0  0  0  0  0  0  0
  149.1576  142.7333  156.0756 H   0  0  0  0  0  0  0  0  0  0  0  0
  1 24  1  0  0  0  0
  1 25  1  0  0  0  0
  1 26  1  0  0  0  0
  1  2  1  0  0  0  0
  2 20  2  0  0  0  0
  2  3  1  0  0  0  0
  3  4  2  0  0  0  0
  4  5  1  0  0  0  0
  4 17  1  0  0  0  0
  5  6  1  0  0  0  0
  6  7  1  0  0  0  0
  6 27  1  0  0  0  0
  6 28  1  0  0  0  0
  7  8  2  0  0  0  0
  7  9  1  0  0  0  0
  9 10  1  0  0  0  0
  9 29  1  0  0  0  0
 10 15  1  0  0  0  0
 10 11  1  0  0  0  0
 10 30  1  0  0  0  0
 11 12  1  0  0  0  0
 11 31  1  0  0  0  0
 11 32  1  0  0  0  0
 12 13  1  0  0  0  0
 12 33  1  0  0  0  0
 12 34  1  0  0  0  0
 13 14  1  0  0  0  0
 13 35  1  0  0  0  0
 13 36  1  0  0  0  0
 14 15  1  0  0  0  0
 14 37  1  0  0  0  0
 14 38  1  0  0  0  0
 15 16  1  0  0  0  0
 15 39  1  0  0  0  0
 16 40  1  0  0  0  0
 16 41  1  0  0  0  0
 16 42  1  0  0  0  0
 17 18  1  0  0  0  0
 18 19  2  0  0  0  0
 18 20  1  0  0  0  0
 20 21  1  0  0  0  0
 21 22  1  0  0  0  0
 21 43  1  0  0  0  0
 21 44  1  0  0  0  0
 22 23  1  0  0  0  0
 22 45  1  0  0  0  0
 22 46  1  0  0  0  0
 23 47  1  0  0  0  0
M  CHG  1  17  -1
M  END
> <s_m_source_file>
AV-unprocessed.smi

> <i_m_source_file_index>
438

> <i_lp_mmshare_version>
43012

> <i_f3d_flags>
0

> <s_epik_input>
W09IXVtDSDJdW0NIMl1jMWMoW09IXSluYyhuYzFbQ0gzXSlTW0NIMl1DKD1PKVtOSF1bQ0BASF0yW0NIMl1bQ0gyXVtDSDJdW0NIMl1bQ0BIXTJbQ0gzXQ==

> <s_epik_cmdline>
J2VwaWtfcHl0aG9uJywgJy1waCcsICc3LjAnLCAnLXRuJywgJzgnLCAnLW1hJywgJzIwMCcsICctbWV0YWxfYmluZGluZycsICctaW1hZScsICc8aW5maWxlLm1hZT4nLCAnLW9tYWUnLCAnPG91dGZpbGUubWFlPic=

> <r_lp_tautomer_probability>
1

> <r_epik_Ionization_Penalty>
3.69231

> <r_epik_Ionization_Penalty_Charging>
0.00434774

> <r_epik_Ionization_Penalty_Neutral>
3.68796

> <r_epik_State_Penalty>
2.13826

> <r_epik_Charging_Adjusted_Penalty>
2.14261

> <i_epik_Tot_Q>
-1

> <i_epik_Tot_abs_Q>
1

> <r_epik_Metal_State_Penalty>
0.260979

> <b_epik_Metal_Only>
0

> <s_lp_Force_Field>
OPLS_2005

> <r_lp_Energy>
18.4405

> <b_lp_Chiralities_Consistent>
1

> <s_lp_Variant>
AV-unprocessed.smi:438-12

> <Gold.Version>
5.8.1

> <Gold.Id.Protein>
6NUR|6NUR_protein|mol2

> <Gold.PLP.Fitness>
48.8595

> <Gold.PLP.PLP>
-40.8632

> <Gold.PLP.part.hbond>
-3.3803

> <Gold.PLP.part.metal>
0.0000

> <Gold.PLP.part.buried>
-2.7155

> <Gold.PLP.part.nonpolar>
-34.9070

> <Gold.PLP.part.repulsive>
0.3850

> <Gold.PLP.ligand.clash>
0.0000

> <Gold.PLP.ligand.torsion>
0.7231

> <Gold.PLP.Chemscore.Hbond>
3.1064

> <Gold.PLP.Chemscore.CHOScore>
0.0000

> <Gold.PLP.Chemscore.Metal>
0.0000

> <Gold.Chemscore.Hbonds>
donor molecule, donor type, donor heavy atom, donor atom, acceptor molecule, acceptor atom, score
      L1  H    23    47       P1  8028  0.35
      P1  H 10752 10764       L1    17  2.00

> <Gold.PLP.Chemscore.Internal.Correction>
0.1232

> <Gold.Rescore>
     Score         DG    S(hbond)    S(metal)    S(lipo)     H(rot)  DE(clash)    DE(int)     intcor
     13.59     -14.41       1.65        0.00      90.25       2.79       0.20       0.62       ----

> <Gold.Chemscore.Fitness>
13.5878

> <Gold.Chemscore.DG>
-14.4089

> <Gold.Chemscore.ZeroCoef>
-5.4800

> <Gold.Chemscore.Hbond>
1.6523

> <Gold.Chemscore.Metal>
0.0000

> <Gold.Chemscore.Lipo>
90.2518

> <Gold.Chemscore.Internal_Hbond>
0.0000

> <Gold.Chemscore.DEClash>
0.2007

> <Gold.Chemscore.DEInternal>
0.6204

> <Gold.Chemscore.Rot>
2.7927

> <Gold.Chemscore.Internal.Correction>
   9.000000E+99

> <Gold.Chemscore.Hbonds>
donor molecule, donor type, donor heavy atom, donor atom, acceptor molecule, acceptor atom, score
      L1  H    23    47       P1  8028  0.33
      P1  H 10752 10764       L1    17  0.70

> <Gold.Chemscore.Hbond.Weighted>
-5.5187

> <Gold.Chemscore.Metal.Weighted>
-0.0000

> <Gold.Chemscore.Lipo.Weighted>
-10.5595

> <Gold.Chemscore.Internal_Hbond.Weighted>
0.0000

> <Gold.Chemscore.DEClash.Weighted>
0.2007

> <Gold.Chemscore.DEInternal.Weighted>
0.6204

> <Gold.Chemscore.Rot.Weighted>
7.1492

> <Gold.Chemscore.Internal.Correction.Weighted>
   9.000000E+99

> <Gold.Protein.RotatedTorsions>
[ 6907 6896 6895 6894 ] final   51.39 input  -60.11 | X-H torsion
[ 7974 7965 7964 7962 ] final  100.01 input  175.53 | X-H torsion
[ 8008 7997 7996 7995 ] final   44.76 input   59.86 | X-H torsion
[ 10167 10162 10161 10158 ] final  -15.59 input  -65.29 | X-H torsion
[ 10718 10713 10712 10709 ] final  -22.28 input   66.30 | X-H torsion
[ 10763 10752 10751 10750 ] final  -61.97 input  -60.55 | X-H torsion
[ 11005 11000 10999 10996 ] final  145.68 input  -57.11 | X-H torsion

> <Gold.Protein.ActiveResidues>
 VAL166  LYS551  ARG553  GLY616  TRP617  ASP618  TYR619  PRO620  LYS621  CYS622 
 ASP623  PHE694  ASN695  SER759  ASP760  ASP761  ALA762  ILE779  LEU786  VAL792 
 PHE793  MET794  SER795  GLU796  ALA797  LYS798  CYS799  TRP800  GLU811  SER814 

> <Gold.Protein.RotatedAtoms>
  152.3121  134.7484  160.0333 H   0  0  0  0  0  0  0  0  0  0  0  0  # atno 6907 bound_to 6896
  151.7961  133.3359  159.3521 H   0  0  0  0  0  0  0  0  0  0  0  0  # atno 6908 bound_to 6896
  150.7326  134.5727  159.5943 H   0  0  0  0  0  0  0  0  0  0  0  0  # atno 6909 bound_to 6896
  145.3912  139.2362  143.3351 H   0  0  0  0  0  0  0  0  0  0  0  0  # atno 7974 bound_to 7965
  155.3247  140.3399  155.4240 H   0  0  0  0  0  0  0  0  0  0  0  0  # atno 8008 bound_to 7997
  156.1891  140.1691  156.8163 H   0  0  0  0  0  0  0  0  0  0  0  0  # atno 8009 bound_to 7997
  154.5421  140.0722  156.8511 H   0  0  0  0  0  0  0  0  0  0  0  0  # atno 8010 bound_to 7997
  140.7221  143.5202  150.9642 H   0  0  0  0  0  0  0  0  0  0  0  0  # atno 10167 bound_to 10162
  156.5067  130.4600  149.6670 H   0  0  0  0  0  0  0  0  0  0  0  0  # atno 10718 bound_to 10713
  154.2927  135.6250  153.5392 H   0  0  0  0  0  0  0  0  0  0  0  0  # atno 10763 bound_to 10752
  152.9850  135.5659  154.5372 H   0  0  0  0  0  0  0  0  0  0  0  0  # atno 10764 bound_to 10752
  154.4986  135.2871  155.1415 H   0  0  0  0  0  0  0  0  0  0  0  0  # atno 10765 bound_to 10752
  140.0732  134.9140  157.1379 H   0  0  0  0  0  0  0  0  0  0  0  0  # atno 11005 bound_to 11000
  146.2796  140.4595  142.8781 LP  0  0  0  0  0  0  0  0  0  0  0  0  # atno 17320 bound_to 7965
  144.8439  140.6899  143.6212 LP  0  0  0  0  0  0  0  0  0  0  0  0  # atno 17321 bound_to 7965
  139.8919  143.6942  152.3144 LP  0  0  0  0  0  0  0  0  0  0  0  0  # atno 17342 bound_to 10162
  139.7261  144.7592  151.0877 LP  0  0  0  0  0  0  0  0  0  0  0  0  # atno 17343 bound_to 10162
  156.3279  130.7316  151.2240 LP  0  0  0  0  0  0  0  0  0  0  0  0  # atno 17370 bound_to 10713
  157.7456  131.0438  150.4760 LP  0  0  0  0  0  0  0  0  0  0  0  0  # atno 17371 bound_to 10713
  140.3597  134.2508  155.7188 LP  0  0  0  0  0  0  0  0  0  0  0  0  # atno 17394 bound_to 11000
  141.2019  133.7950  157.0415 LP  0  0  0  0  0  0  0  0  0  0  0  0  # atno 17395 bound_to 11000

$$$$
