AV-unprocessed.smi:3039|AV-procd|sdf|11593|dock5
  -GOLD-   2272016573D 1   1.00000     0.00000
 Structure written by MMmdl.
 38 39  0  0  0  0  0  0  0  0  1 V2000
  153.8329  139.2368  158.5196 O   0  0  0  0  0  0  0  0  0  0  0  0
  152.7252  139.2792  159.0546 C   0  0  0  0  0  0  0  0  0  0  0  0
  152.0888  138.0022  159.6038 C   0  0  0  0  0  0  0  0  0  0  0  0
  153.0465  137.3004  160.5302 C   0  0  0  0  0  0  0  0  0  0  0  0
  153.5726  137.7560  161.7724 C   0  0  0  0  0  0  0  0  0  0  0  0
  154.3784  136.7299  162.1737 C   0  0  0  0  0  0  0  0  0  0  0  0
  154.3522  135.7220  161.2657 O   0  0  0  0  0  0  0  0  0  0  0  0
  153.4983  136.0943  160.2214 N   0  0  0  0  0  0  0  0  0  0  0  0
  152.0113  140.4072  159.1954 N   0  0  0  0  0  0  0  0  0  0  0  0
  152.4160  141.7426  158.7603 C   0  0  2  0  0  0  0  0  0  0  0  0
  152.7245  142.5992  160.0110 C   0  0  0  0  0  0  0  0  0  0  0  0
  152.7921  144.1184  159.7879 C   0  0  0  0  0  0  0  0  0  0  0  0
  151.4161  144.7944  159.9198 C   0  0  0  0  0  0  0  0  0  0  0  0
  150.4555  144.5436  158.7477 C   0  0  0  0  0  0  0  0  0  0  0  0
  150.1861  143.0615  158.4265 C   0  0  0  0  0  0  0  0  0  0  0  0
  151.3905  142.3551  157.7619 C   0  0  2  0  0  0  0  0  0  0  0  0
  150.9558  141.3883  156.6323 C   0  0  0  0  0  0  0  0  0  0  0  0
  149.9286  141.9176  155.8157 O   0  0  0  0  0  0  0  0  0  0  0  0
  151.1669  138.2535  160.1297 H   0  0  0  0  0  0  0  0  0  0  0  0
  151.8030  137.3557  158.7726 H   0  0  0  0  0  0  0  0  0  0  0  0
  153.3916  138.6897  162.2842 H   0  0  0  0  0  0  0  0  0  0  0  0
  155.0053  136.5734  163.0392 H   0  0  0  0  0  0  0  0  0  0  0  0
  151.1051  140.3369  159.6362 H   0  0  0  0  0  0  0  0  0  0  0  0
  153.3468  141.6365  158.1992 H   0  0  0  0  0  0  0  0  0  0  0  0
  151.9991  142.3888  160.7987 H   0  0  0  0  0  0  0  0  0  0  0  0
  153.6824  142.2687  160.4152 H   0  0  0  0  0  0  0  0  0  0  0  0
  153.4397  144.5409  160.5569 H   0  0  0  0  0  0  0  0  0  0  0  0
  153.2664  144.3597  158.8361 H   0  0  0  0  0  0  0  0  0  0  0  0
  150.9428  144.4845  160.8522 H   0  0  0  0  0  0  0  0  0  0  0  0
  151.5647  145.8709  160.0117 H   0  0  0  0  0  0  0  0  0  0  0  0
  149.5055  145.0253  158.9818 H   0  0  0  0  0  0  0  0  0  0  0  0
  150.8260  145.0514  157.8564 H   0  0  0  0  0  0  0  0  0  0  0  0
  149.8572  142.5205  159.3144 H   0  0  0  0  0  0  0  0  0  0  0  0
  149.3393  143.0387  157.7396 H   0  0  0  0  0  0  0  0  0  0  0  0
  151.9425  143.1309  157.2296 H   0  0  0  0  0  0  0  0  0  0  0  0
  151.8080  141.1664  155.9891 H   0  0  0  0  0  0  0  0  0  0  0  0
  150.6261  140.4364  157.0500 H   0  0  0  0  0  0  0  0  0  0  0  0
  149.9136  142.8566  155.9235 H   0  0  0  0  0  0  0  0  0  0  0  0
  1  2  2  0  0  0  0
  2  3  1  0  0  0  0
  2  9  1  0  0  0  0
  3  4  1  0  0  0  0
  3 19  1  0  0  0  0
  3 20  1  0  0  0  0
  4  8  2  0  0  0  0
  4  5  1  0  0  0  0
  5  6  2  0  0  0  0
  5 21  1  0  0  0  0
  6  7  1  0  0  0  0
  6 22  1  0  0  0  0
  7  8  1  0  0  0  0
  9 10  1  0  0  0  0
  9 23  1  0  0  0  0
 10 16  1  0  0  0  0
 10 11  1  0  0  0  0
 10 24  1  0  0  0  0
 11 12  1  0  0  0  0
 11 25  1  0  0  0  0
 11 26  1  0  0  0  0
 12 13  1  0  0  0  0
 12 27  1  0  0  0  0
 12 28  1  0  0  0  0
 13 14  1  0  0  0  0
 13 29  1  0  0  0  0
 13 30  1  0  0  0  0
 14 15  1  0  0  0  0
 14 31  1  0  0  0  0
 14 32  1  0  0  0  0
 15 16  1  0  0  0  0
 15 33  1  0  0  0  0
 15 34  1  0  0  0  0
 16 17  1  0  0  0  0
 16 35  1  0  0  0  0
 17 18  1  0  0  0  0
 17 36  1  0  0  0  0
 17 37  1  0  0  0  0
 18 38  1  0  0  0  0
M  END
> <s_m_source_file>
AV-unprocessed.smi

> <i_m_source_file_index>
3039

> <i_lp_mmshare_version>
43012

> <i_f3d_flags>
0

> <s_epik_input>
bjFvW2NIXVtjSF1jMVtDSDJdQyg9TylbTkhdW0NAQEhdMltDSDJdW0NIMl1bQ0gyXVtDSDJdW0NIMl1bQ0BIXTJbQ0gyXVtPSF0=

> <s_epik_cmdline>
J2VwaWtfcHl0aG9uJywgJy1waCcsICc3LjAnLCAnLXRuJywgJzgnLCAnLW1hJywgJzIwMCcsICctbWV0YWxfYmluZGluZycsICctaW1hZScsICc8aW5maWxlLm1hZT4nLCAnLW9tYWUnLCAnPG91dGZpbGUubWFlPic=

> <r_lp_tautomer_probability>
1

> <r_epik_Ionization_Penalty>
3.05817e-07

> <r_epik_Ionization_Penalty_Charging>
0

> <r_epik_Ionization_Penalty_Neutral>
3.05817e-07

> <r_epik_State_Penalty>
-0

> <r_epik_Charging_Adjusted_Penalty>
0

> <i_epik_Tot_Q>
0

> <i_epik_Tot_abs_Q>
0

> <r_epik_Metal_State_Penalty>
-0

> <b_epik_Metal_Only>
0

> <s_lp_Force_Field>
OPLS_2005

> <r_lp_Energy>
21.1275

> <b_lp_Chiralities_Consistent>
1

> <s_lp_Variant>
AV-unprocessed.smi:3039-3

> <Gold.Version>
5.8.1

> <Gold.Id.Protein>
6NUR|6NUR_protein|mol2

> <Gold.PLP.Fitness>
43.6300

> <Gold.PLP.PLP>
-35.0210

> <Gold.PLP.part.hbond>
-3.0000

> <Gold.PLP.part.metal>
0.0000

> <Gold.PLP.part.buried>
-5.4249

> <Gold.PLP.part.nonpolar>
-26.0866

> <Gold.PLP.part.repulsive>
0.1403

> <Gold.PLP.ligand.clash>
0.0000

> <Gold.PLP.ligand.torsion>
0.2132

> <Gold.PLP.Chemscore.Hbond>
2.9833

> <Gold.PLP.Chemscore.CHOScore>
0.0000

> <Gold.PLP.Chemscore.Metal>
0.0000

> <Gold.Chemscore.Hbonds>
donor molecule, donor type, donor heavy atom, donor atom, acceptor molecule, acceptor atom, score
      L1  H    18    38       P1  8028  0.70
      P1  H  6896  6907       L1     8  1.00
      P1  H  7997  8009       L1     1  1.00

> <Gold.PLP.Chemscore.Internal.Correction>
0.0853

> <Gold.Rescore>
     Score         DG    S(hbond)    S(metal)    S(lipo)     H(rot)  DE(clash)    DE(int)     intcor
     20.86     -21.24       2.90        0.00     101.29       2.26       0.00       0.39       ----

> <Gold.Chemscore.Fitness>
20.8553

> <Gold.Chemscore.DG>
-21.2443

> <Gold.Chemscore.ZeroCoef>
-5.4800

> <Gold.Chemscore.Hbond>
2.9050

> <Gold.Chemscore.Metal>
0.0000

> <Gold.Chemscore.Lipo>
101.2932

> <Gold.Chemscore.Internal_Hbond>
0.0000

> <Gold.Chemscore.DEClash>
0.0039

> <Gold.Chemscore.DEInternal>
0.3851

> <Gold.Chemscore.Rot>
2.2616

> <Gold.Chemscore.Internal.Correction>
   9.000000E+99

> <Gold.Chemscore.Hbonds>
donor molecule, donor type, donor heavy atom, donor atom, acceptor molecule, acceptor atom, score
      L1  H    18    38       P1  8028  0.66
      P1  H  6896  6907       L1     8  0.57
      P1  H  7997  8009       L1     1  1.00

> <Gold.Chemscore.Hbond.Weighted>
-9.7027

> <Gold.Chemscore.Metal.Weighted>
-0.0000

> <Gold.Chemscore.Lipo.Weighted>
-11.8513

> <Gold.Chemscore.Internal_Hbond.Weighted>
0.0000

> <Gold.Chemscore.DEClash.Weighted>
0.0039

> <Gold.Chemscore.DEInternal.Weighted>
0.3851

> <Gold.Chemscore.Rot.Weighted>
5.7896

> <Gold.Chemscore.Internal.Correction.Weighted>
   9.000000E+99

> <Gold.Protein.RotatedTorsions>
[ 6907 6896 6895 6894 ] final   48.72 input  -60.11 | X-H torsion
[ 7974 7965 7964 7962 ] final   25.41 input  175.53 | X-H torsion
[ 8008 7997 7996 7995 ] final  134.69 input   59.86 | X-H torsion
[ 10167 10162 10161 10158 ] final  118.52 input  -65.29 | X-H torsion
[ 10718 10713 10712 10709 ] final  -62.49 input   66.30 | X-H torsion
[ 10763 10752 10751 10750 ] final  -56.43 input  -60.55 | X-H torsion
[ 11005 11000 10999 10996 ] final   41.98 input  -57.11 | X-H torsion

> <Gold.Protein.ActiveResidues>
 VAL166  LYS551  ARG553  GLY616  TRP617  ASP618  TYR619  PRO620  LYS621  CYS622 
 ASP623  PHE694  ASN695  SER759  ASP760  ASP761  ALA762  ILE779  LEU786  VAL792 
 PHE793  MET794  SER795  GLU796  ALA797  LYS798  CYS799  TRP800  GLU811  SER814 

> <Gold.Protein.RotatedAtoms>
  152.2827  134.7811  160.0393 H   0  0  0  0  0  0  0  0  0  0  0  0  # atno 6907 bound_to 6896
  151.8385  133.3414  159.3643 H   0  0  0  0  0  0  0  0  0  0  0  0  # atno 6908 bound_to 6896
  150.7196  134.5343  159.5760 H   0  0  0  0  0  0  0  0  0  0  0  0  # atno 6909 bound_to 6896
  146.1890  139.7470  142.8846 H   0  0  0  0  0  0  0  0  0  0  0  0  # atno 7974 bound_to 7965
  156.3000  140.2490  156.3458 H   0  0  0  0  0  0  0  0  0  0  0  0  # atno 8008 bound_to 7997
  154.9012  140.0406  157.1913 H   0  0  0  0  0  0  0  0  0  0  0  0  # atno 8009 bound_to 7997
  154.8499  140.2904  155.5609 H   0  0  0  0  0  0  0  0  0  0  0  0  # atno 8010 bound_to 7997
  139.6106  144.7081  151.2853 H   0  0  0  0  0  0  0  0  0  0  0  0  # atno 10167 bound_to 10162
  156.0851  130.4209  150.1143 H   0  0  0  0  0  0  0  0  0  0  0  0  # atno 10718 bound_to 10713
  154.2065  135.6402  153.5102 H   0  0  0  0  0  0  0  0  0  0  0  0  # atno 10763 bound_to 10752
  152.9999  135.5464  154.6260 H   0  0  0  0  0  0  0  0  0  0  0  0  # atno 10764 bound_to 10752
  154.5686  135.2915  155.0823 H   0  0  0  0  0  0  0  0  0  0  0  0  # atno 10765 bound_to 10752
  140.1782  134.4137  155.8216 H   0  0  0  0  0  0  0  0  0  0  0  0  # atno 11005 bound_to 11000
  145.3851  141.0364  143.3155 LP  0  0  0  0  0  0  0  0  0  0  0  0  # atno 17320 bound_to 7965
  144.8450  139.5411  143.6882 LP  0  0  0  0  0  0  0  0  0  0  0  0  # atno 17321 bound_to 7965
  140.7316  143.6846  150.7972 LP  0  0  0  0  0  0  0  0  0  0  0  0  # atno 17342 bound_to 10162
  140.0440  143.5317  152.2704 LP  0  0  0  0  0  0  0  0  0  0  0  0  # atno 17343 bound_to 10162
  156.9166  130.9669  151.3555 LP  0  0  0  0  0  0  0  0  0  0  0  0  # atno 17370 bound_to 10713
  157.5983  130.8494  149.8763 LP  0  0  0  0  0  0  0  0  0  0  0  0  # atno 17371 bound_to 10713
  141.2221  133.6988  156.7884 LP  0  0  0  0  0  0  0  0  0  0  0  0  # atno 17394 bound_to 11000
  140.2298  134.8694  157.3464 LP  0  0  0  0  0  0  0  0  0  0  0  0  # atno 17395 bound_to 11000

$$$$
