AV-unprocessed.smi:3348|AV-procd|sdf|12925|dock3
  -GOLD-   2272019353D 1   1.00000     0.00000
 Structure written by MMmdl.
 46 47  0  0  0  0  0  0  0  0  1 V2000
  144.1832  136.4724  152.2530 C   0  0  0  0  0  0  0  0  0  0  0  0
  145.4559  136.1887  151.4431 C   0  0  2  0  0  0  0  0  0  0  0  0
  146.0227  134.7991  151.8241 C   0  0  0  0  0  0  0  0  0  0  0  0
  145.3440  133.6823  151.1928 N   0  0  0  0  0  0  0  0  0  0  0  0
  145.8885  132.5034  150.7269 C   0  0  0  0  0  0  0  0  0  0  0  0
  144.8650  131.7573  150.2173 C   0  0  0  0  0  0  0  0  0  0  0  0
  143.7168  132.5712  150.4277 C   0  0  0  0  0  0  0  0  0  0  0  0
  144.0058  133.7213  151.0153 N   0  0  0  0  0  0  0  0  0  0  0  0
  146.4244  137.2614  151.6905 N   0  0  0  0  0  0  0  0  0  0  0  0
  146.5304  137.7027  153.0815 C   0  0  0  0  0  0  0  0  0  0  0  0
  147.2792  139.0339  153.1763 C   0  0  0  0  0  0  0  0  0  0  0  0
  148.3336  138.8637  154.1114 O   0  0  0  0  0  0  0  0  0  0  0  0
  149.4479  139.7308  153.9358 C   0  0  1  0  0  0  0  0  0  0  0  0
  149.0878  141.1766  154.3409 C   0  0  0  0  0  0  0  0  0  0  0  0
  148.7542  141.2786  155.8381 C   0  0  0  0  0  0  0  0  0  0  0  0
  149.9068  140.7428  156.7004 C   0  0  0  0  0  0  0  0  0  0  0  0
  150.2784  139.3045  156.3055 C   0  0  0  0  0  0  0  0  0  0  0  0
  150.6106  139.1966  154.8030 C   0  0  1  0  0  0  0  0  0  0  0  0
  151.0161  137.7673  154.4101 C   0  0  0  0  0  0  0  0  0  0  0  0
  143.4226  135.7131  152.0676 H   0  0  0  0  0  0  0  0  0  0  0  0
  143.7522  137.4376  151.9844 H   0  0  0  0  0  0  0  0  0  0  0  0
  144.3867  136.4845  153.3245 H   0  0  0  0  0  0  0  0  0  0  0  0
  145.1713  136.1869  150.3898 H   0  0  0  0  0  0  0  0  0  0  0  0
  147.0840  134.7439  151.5768 H   0  0  0  0  0  0  0  0  0  0  0  0
  145.9546  134.6543  152.9030 H   0  0  0  0  0  0  0  0  0  0  0  0
  146.9473  132.3006  150.7882 H   0  0  0  0  0  0  0  0  0  0  0  0
  144.9277  130.7796  149.7633 H   0  0  0  0  0  0  0  0  0  0  0  0
  142.6885  132.3623  150.1724 H   0  0  0  0  0  0  0  0  0  0  0  0
  147.3412  136.9780  151.3596 H   0  0  0  0  0  0  0  0  0  0  0  0
  145.5575  137.8073  153.5550 H   0  0  0  0  0  0  0  0  0  0  0  0
  147.0667  136.9460  153.6547 H   0  0  0  0  0  0  0  0  0  0  0  0
  147.6982  139.2831  152.2006 H   0  0  0  0  0  0  0  0  0  0  0  0
  146.6032  139.8405  153.4605 H   0  0  0  0  0  0  0  0  0  0  0  0
  149.7610  139.7136  152.8904 H   0  0  0  0  0  0  0  0  0  0  0  0
  149.9326  141.8298  154.1189 H   0  0  0  0  0  0  0  0  0  0  0  0
  148.2570  141.5555  153.7467 H   0  0  0  0  0  0  0  0  0  0  0  0
  148.5435  142.3151  156.1024 H   0  0  0  0  0  0  0  0  0  0  0  0
  147.8445  140.7151  156.0503 H   0  0  0  0  0  0  0  0  0  0  0  0
  150.7782  141.3888  156.5866 H   0  0  0  0  0  0  0  0  0  0  0  0
  149.6306  140.7798  157.7546 H   0  0  0  0  0  0  0  0  0  0  0  0
  151.1301  138.9733  156.9005 H   0  0  0  0  0  0  0  0  0  0  0  0
  149.4539  138.6346  156.5520 H   0  0  0  0  0  0  0  0  0  0  0  0
  151.4763  139.8336  154.6142 H   0  0  0  0  0  0  0  0  0  0  0  0
  150.2084  137.0579  154.5926 H   0  0  0  0  0  0  0  0  0  0  0  0
  151.8827  137.4348  154.9819 H   0  0  0  0  0  0  0  0  0  0  0  0
  151.2766  137.7098  153.3531 H   0  0  0  0  0  0  0  0  0  0  0  0
  1  2  1  0  0  0  0
  1 20  1  0  0  0  0
  1 21  1  0  0  0  0
  1 22  1  0  0  0  0
  2  3  1  0  0  0  0
  2  9  1  0  0  0  0
  2 23  1  0  0  0  0
  3  4  1  0  0  0  0
  3 24  1  0  0  0  0
  3 25  1  0  0  0  0
  4  8  1  0  0  0  0
  4  5  1  0  0  0  0
  5  6  2  0  0  0  0
  5 26  1  0  0  0  0
  6  7  1  0  0  0  0
  6 27  1  0  0  0  0
  7  8  2  0  0  0  0
  7 28  1  0  0  0  0
  9 10  1  0  0  0  0
  9 29  1  0  0  0  0
 10 11  1  0  0  0  0
 10 30  1  0  0  0  0
 10 31  1  0  0  0  0
 11 12  1  0  0  0  0
 11 32  1  0  0  0  0
 11 33  1  0  0  0  0
 12 13  1  0  0  0  0
 13 18  1  0  0  0  0
 13 14  1  0  0  0  0
 13 34  1  0  0  0  0
 14 15  1  0  0  0  0
 14 35  1  0  0  0  0
 14 36  1  0  0  0  0
 15 16  1  0  0  0  0
 15 37  1  0  0  0  0
 15 38  1  0  0  0  0
 16 17  1  0  0  0  0
 16 39  1  0  0  0  0
 16 40  1  0  0  0  0
 17 18  1  0  0  0  0
 17 41  1  0  0  0  0
 17 42  1  0  0  0  0
 18 19  1  0  0  0  0
 18 43  1  0  0  0  0
 19 44  1  0  0  0  0
 19 45  1  0  0  0  0
 19 46  1  0  0  0  0
M  END
> <s_m_source_file>
AV-unprocessed.smi

> <i_m_source_file_index>
3348

> <i_lp_mmshare_version>
43012

> <i_f3d_flags>
0

> <s_epik_input>
bjFbY0hdW2NIXVtjSF1uMVtDSDJdW0NAQEhdKFtDSDNdKVtOSF1bQ0gyXVtDSDJdT1tDQEBIXTJbQ0gyXVtDSDJdW0NIMl1bQ0gyXVtDQEhdMltDSDNd

> <s_epik_cmdline>
J2VwaWtfcHl0aG9uJywgJy1waCcsICc3LjAnLCAnLXRuJywgJzgnLCAnLW1hJywgJzIwMCcsICctbWV0YWxfYmluZGluZycsICctaW1hZScsICc8aW5maWxlLm1hZT4nLCAnLW9tYWUnLCAnPG91dGZpbGUubWFlPic=

> <r_lp_tautomer_probability>
1

> <r_epik_Ionization_Penalty>
2.46945

> <r_epik_Ionization_Penalty_Charging>
0

> <r_epik_Ionization_Penalty_Neutral>
2.46945

> <r_epik_State_Penalty>
2.6322

> <r_epik_Charging_Adjusted_Penalty>
2.6322

> <i_epik_Tot_Q>
0

> <i_epik_Tot_abs_Q>
0

> <r_epik_Metal_State_Penalty>
2.63217

> <b_epik_Metal_Only>
0

> <s_lp_Force_Field>
OPLS_2005

> <r_lp_Energy>
18.1509

> <b_lp_Chiralities_Consistent>
1

> <s_lp_Variant>
AV-unprocessed.smi:3348-11

> <Gold.Version>
5.8.1

> <Gold.Id.Protein>
6NUR|6NUR_protein|mol2

> <Gold.PLP.Fitness>
40.5951

> <Gold.PLP.PLP>
-34.6940

> <Gold.PLP.part.hbond>
-1.0000

> <Gold.PLP.part.metal>
0.0000

> <Gold.PLP.part.buried>
-2.1244

> <Gold.PLP.part.nonpolar>
-32.7053

> <Gold.PLP.part.repulsive>
0.3369

> <Gold.PLP.ligand.clash>
0.0000

> <Gold.PLP.ligand.torsion>
1.3155

> <Gold.PLP.Chemscore.Hbond>
0.9440

> <Gold.PLP.Chemscore.CHOScore>
1.7705

> <Gold.PLP.Chemscore.Metal>
0.0000

> <Gold.Chemscore.Hbonds>
donor molecule, donor type, donor heavy atom, donor atom, acceptor molecule, acceptor atom, score
      L1  H     9    29       P1  7948  0.93
      L1  C     5    26       P1 10747  0.98
      L1  C     7    28       P1 10186  0.41
      L1  C     7    28       P1 10952  0.31

> <Gold.PLP.Chemscore.Internal.Correction>
0.3888

> <Gold.Rescore>
     Score         DG    S(hbond)    S(metal)    S(lipo)     H(rot)  DE(clash)    DE(int)     intcor
     13.83     -15.93       0.99        0.00      98.76       1.72       0.51       1.59       ----

> <Gold.Chemscore.Fitness>
13.8324

> <Gold.Chemscore.DG>
-15.9326

> <Gold.Chemscore.ZeroCoef>
-5.4800

> <Gold.Chemscore.Hbond>
0.9913

> <Gold.Chemscore.Metal>
0.0000

> <Gold.Chemscore.Lipo>
98.7551

> <Gold.Chemscore.Internal_Hbond>
0.0000

> <Gold.Chemscore.DEClash>
0.5094

> <Gold.Chemscore.DEInternal>
1.5908

> <Gold.Chemscore.Rot>
1.7237

> <Gold.Chemscore.Internal.Correction>
   9.000000E+99

> <Gold.Chemscore.Hbonds>
donor molecule, donor type, donor heavy atom, donor atom, acceptor molecule, acceptor atom, score
      L1  H     9    29       P1  7948  0.90

> <Gold.Chemscore.Hbond.Weighted>
-3.3108

> <Gold.Chemscore.Metal.Weighted>
-0.0000

> <Gold.Chemscore.Lipo.Weighted>
-11.5543

> <Gold.Chemscore.Internal_Hbond.Weighted>
0.0000

> <Gold.Chemscore.DEClash.Weighted>
0.5094

> <Gold.Chemscore.DEInternal.Weighted>
1.5908

> <Gold.Chemscore.Rot.Weighted>
4.4126

> <Gold.Chemscore.Internal.Correction.Weighted>
   9.000000E+99

> <Gold.Protein.RotatedTorsions>
[ 6907 6896 6895 6894 ] final  -46.86 input  -60.11 | X-H torsion
[ 7974 7965 7964 7962 ] final  145.67 input  175.53 | X-H torsion
[ 8008 7997 7996 7995 ] final   46.19 input   59.86 | X-H torsion
[ 10167 10162 10161 10158 ] final   61.45 input  -65.29 | X-H torsion
[ 10718 10713 10712 10709 ] final  -46.74 input   66.30 | X-H torsion
[ 10763 10752 10751 10750 ] final -145.14 input  -60.55 | X-H torsion
[ 11005 11000 10999 10996 ] final -171.27 input  -57.11 | X-H torsion

> <Gold.Protein.ActiveResidues>
 VAL166  LYS551  ARG553  GLY616  TRP617  ASP618  TYR619  PRO620  LYS621  CYS622 
 ASP623  PHE694  ASN695  SER759  ASP760  ASP761  ALA762  ILE779  LEU786  VAL792 
 PHE793  MET794  SER795  GLU796  ALA797  LYS798  CYS799  TRP800  GLU811  SER814 

> <Gold.Protein.RotatedAtoms>
  150.9069  134.8484  159.7398 H   0  0  0  0  0  0  0  0  0  0  0  0  # atno 6907 bound_to 6896
  152.4923  134.4418  159.9556 H   0  0  0  0  0  0  0  0  0  0  0  0  # atno 6908 bound_to 6896
  151.4465  133.3590  159.2824 H   0  0  0  0  0  0  0  0  0  0  0  0  # atno 6909 bound_to 6896
  144.8734  139.5811  143.5876 H   0  0  0  0  0  0  0  0  0  0  0  0  # atno 7974 bound_to 7965
  155.3483  140.3412  155.4239 H   0  0  0  0  0  0  0  0  0  0  0  0  # atno 8008 bound_to 7997
  156.1777  140.1653  156.8367 H   0  0  0  0  0  0  0  0  0  0  0  0  # atno 8009 bound_to 7997
  154.5300  140.0747  156.8310 H   0  0  0  0  0  0  0  0  0  0  0  0  # atno 8010 bound_to 7997
  140.1547  144.4429  150.6741 H   0  0  0  0  0  0  0  0  0  0  0  0  # atno 10167 bound_to 10162
  156.2153  130.4163  149.9062 H   0  0  0  0  0  0  0  0  0  0  0  0  # atno 10718 bound_to 10713
  154.8397  135.3421  154.6456 H   0  0  0  0  0  0  0  0  0  0  0  0  # atno 10763 bound_to 10752
  153.7068  135.6966  153.5052 H   0  0  0  0  0  0  0  0  0  0  0  0  # atno 10764 bound_to 10752
  153.2481  135.4362  155.0723 H   0  0  0  0  0  0  0  0  0  0  0  0  # atno 10765 bound_to 10752
  140.5101  134.5810  157.5016 H   0  0  0  0  0  0  0  0  0  0  0  0  # atno 11005 bound_to 11000
  146.2946  139.7239  142.9136 LP  0  0  0  0  0  0  0  0  0  0  0  0  # atno 17320 bound_to 7965
  145.4088  141.0394  143.3029 LP  0  0  0  0  0  0  0  0  0  0  0  0  # atno 17321 bound_to 7965
  140.6681  143.2275  151.5693 LP  0  0  0  0  0  0  0  0  0  0  0  0  # atno 17342 bound_to 10162
  139.5409  144.2650  152.1349 LP  0  0  0  0  0  0  0  0  0  0  0  0  # atno 17343 bound_to 10162
  156.6726  130.8826  151.3564 LP  0  0  0  0  0  0  0  0  0  0  0  0  # atno 17370 bound_to 10713
  157.7060  130.9385  150.0932 LP  0  0  0  0  0  0  0  0  0  0  0  0  # atno 17371 bound_to 10713
  139.9664  134.7366  156.0130 LP  0  0  0  0  0  0  0  0  0  0  0  0  # atno 17394 bound_to 11000
  141.1390  133.6569  156.3675 LP  0  0  0  0  0  0  0  0  0  0  0  0  # atno 17395 bound_to 11000

$$$$
