AV-unprocessed.smi:3308|AV-procd|sdf|12708|dock9
  -GOLD-   2272019 43D 1   1.00000     0.00000
 Structure written by MMmdl.
 41 42  0  0  0  0  0  0  0  0  2 V2000
  147.6006  141.8171  156.3075 C   0  0  0  0  0  0  0  0  0  0  0  0
  148.9562  141.1074  156.1257 C   0  0  2  0  0  0  0  0  0  0  0  0
  150.0641  142.0669  156.3466 N   0  3  0  0  0  0  0  0  0  0  0  0
  150.3225  142.4306  157.7569 C   0  0  0  0  0  0  0  0  0  0  0  0
  151.5990  141.7727  158.2992 C   0  0  0  0  0  0  0  0  0  0  0  0
  152.1500  140.8827  157.6490 O   0  0  0  0  0  0  0  0  0  0  0  0
  152.0802  142.1979  159.4855 N   0  0  0  0  0  0  0  0  0  0  0  0
  151.4614  143.2616  160.2741 C   0  0  0  0  0  0  0  0  0  0  0  0
  152.4666  143.5974  161.3755 C   0  0  0  0  0  0  0  0  0  0  0  0
  153.2694  142.3155  161.5491 C   0  0  0  0  0  0  0  0  0  0  0  0
  153.2739  141.6835  160.1566 C   0  0  0  0  0  0  0  0  0  0  0  0
  149.0980  140.4513  154.7243 C   0  0  2  0  0  0  0  0  0  0  0  0
  147.8264  139.7115  154.2681 C   0  0  0  0  0  0  0  0  0  0  0  0
  150.2362  139.5398  154.6626 N   0  0  0  0  0  0  0  0  0  0  0  0
  150.2362  138.1983  154.3387 C   0  0  0  0  0  0  0  0  0  0  0  0
  151.5244  137.7552  154.4304 C   0  0  0  0  0  0  0  0  0  0  0  0
  152.2512  138.9088  154.8358 C   0  0  0  0  0  0  0  0  0  0  0  0
  151.4781  139.9730  154.9781 N   0  0  0  0  0  0  0  0  0  0  0  0
  146.7672  141.1200  156.2279 H   0  0  0  0  0  0  0  0  0  0  0  0
  147.4566  142.5952  155.5574 H   0  0  0  0  0  0  0  0  0  0  0  0
  147.5178  142.2841  157.2884 H   0  0  0  0  0  0  0  0  0  0  0  0
  149.0351  140.3210  156.8781 H   0  0  0  0  0  0  0  0  0  0  0  0
  150.9091  141.6328  156.0020 H   0  0  0  0  0  0  0  0  0  0  0  0
  150.4155  143.5126  157.8474 H   0  0  0  0  0  0  0  0  0  0  0  0
  149.4737  142.1156  158.3653 H   0  0  0  0  0  0  0  0  0  0  0  0
  151.2273  144.1401  159.6706 H   0  0  0  0  0  0  0  0  0  0  0  0
  150.5311  142.8884  160.7049 H   0  0  0  0  0  0  0  0  0  0  0  0
  153.1262  144.3978  161.0369 H   0  0  0  0  0  0  0  0  0  0  0  0
  151.9883  143.9266  162.2984 H   0  0  0  0  0  0  0  0  0  0  0  0
  154.2731  142.4933  161.9365 H   0  0  0  0  0  0  0  0  0  0  0  0
  152.7539  141.6559  162.2482 H   0  0  0  0  0  0  0  0  0  0  0  0
  153.2776  140.5945  160.2235 H   0  0  0  0  0  0  0  0  0  0  0  0
  154.1597  141.9952  159.6012 H   0  0  0  0  0  0  0  0  0  0  0  0
  149.2933  141.2441  154.0003 H   0  0  0  0  0  0  0  0  0  0  0  0
  146.9869  140.3925  154.1327 H   0  0  0  0  0  0  0  0  0  0  0  0
  147.5272  138.9499  154.9890 H   0  0  0  0  0  0  0  0  0  0  0  0
  147.9873  139.2145  153.3107 H   0  0  0  0  0  0  0  0  0  0  0  0
  149.3297  137.6751  154.0711 H   0  0  0  0  0  0  0  0  0  0  0  0
  151.8912  136.7568  154.2430 H   0  0  0  0  0  0  0  0  0  0  0  0
  153.3091  139.0032  155.0318 H   0  0  0  0  0  0  0  0  0  0  0  0
  149.8965  142.9048  155.8080 H   0  0  0  0  0  0  0  0  0  0  0  0
  1  2  1  0  0  0  0
  1 19  1  0  0  0  0
  1 20  1  0  0  0  0
  1 21  1  0  0  0  0
  2  3  1  0  0  0  0
  2 12  1  0  0  0  0
  2 22  1  0  0  0  0
  3  4  1  0  0  0  0
  3 23  1  0  0  0  0
  3 41  1  0  0  0  0
  4  5  1  0  0  0  0
  4 24  1  0  0  0  0
  4 25  1  0  0  0  0
  5  6  2  0  0  0  0
  5  7  1  0  0  0  0
  7 11  1  0  0  0  0
  7  8  1  0  0  0  0
  8  9  1  0  0  0  0
  8 26  1  0  0  0  0
  8 27  1  0  0  0  0
  9 10  1  0  0  0  0
  9 28  1  0  0  0  0
  9 29  1  0  0  0  0
 10 11  1  0  0  0  0
 10 30  1  0  0  0  0
 10 31  1  0  0  0  0
 11 32  1  0  0  0  0
 11 33  1  0  0  0  0
 12 13  1  0  0  0  0
 12 14  1  0  0  0  0
 12 34  1  0  0  0  0
 13 35  1  0  0  0  0
 13 36  1  0  0  0  0
 13 37  1  0  0  0  0
 14 18  1  0  0  0  0
 14 15  1  0  0  0  0
 15 16  2  0  0  0  0
 15 38  1  0  0  0  0
 16 17  1  0  0  0  0
 16 39  1  0  0  0  0
 17 18  2  0  0  0  0
 17 40  1  0  0  0  0
M  CHG  1   3   1
M  END
> <s_m_source_file>
AV-unprocessed.smi

> <i_m_source_file_index>
3308

> <i_lp_mmshare_version>
43012

> <i_f3d_flags>
0

> <s_epik_input>
bjFbY0hdW2NIXVtjSF1uMVtDQEBIXShbQ0gzXSlbQ0BIXShbQ0gzXSlbTkhdW0NIMl1DKD1PKU4yW0NIMl1bQ0gyXVtDSDJdW0NIMl0y

> <s_epik_cmdline>
J2VwaWtfcHl0aG9uJywgJy1waCcsICc3LjAnLCAnLXRuJywgJzgnLCAnLW1hJywgJzIwMCcsICctbWV0YWxfYmluZGluZycsICctaW1hZScsICc8aW5maWxlLm1hZT4nLCAnLW9tYWUnLCAnPG91dGZpbGUubWFlPic=

> <r_lp_tautomer_probability>
1

> <r_epik_Ionization_Penalty>
0.141739

> <r_epik_Ionization_Penalty_Charging>
0.141731

> <r_epik_Ionization_Penalty_Neutral>
8.82171e-06

> <r_epik_State_Penalty>
0.131043

> <r_epik_Charging_Adjusted_Penalty>
0.272773

> <i_epik_Tot_Q>
1

> <i_epik_Tot_abs_Q>
1

> <r_epik_Metal_State_Penalty>
0.131385

> <b_epik_Metal_Only>
0

> <s_lp_Force_Field>
OPLS_2005

> <r_lp_Energy>
31.7083

> <b_lp_Chiralities_Consistent>
1

> <s_lp_Variant>
AV-unprocessed.smi:3308-1

> <Gold.Version>
5.8.1

> <Gold.Id.Protein>
6NUR|6NUR_protein|mol2

> <Gold.PLP.Fitness>
47.4513

> <Gold.PLP.PLP>
-38.4164

> <Gold.PLP.part.hbond>
-2.0000

> <Gold.PLP.part.metal>
0.0000

> <Gold.PLP.part.buried>
-3.2562

> <Gold.PLP.part.nonpolar>
-33.8550

> <Gold.PLP.part.repulsive>
0.1358

> <Gold.PLP.ligand.clash>
0.0000

> <Gold.PLP.ligand.torsion>
0.7958

> <Gold.PLP.Chemscore.Hbond>
2.7840

> <Gold.PLP.Chemscore.CHOScore>
0.7327

> <Gold.PLP.Chemscore.Metal>
0.0000

> <Gold.Chemscore.Hbonds>
donor molecule, donor type, donor heavy atom, donor atom, acceptor molecule, acceptor atom, score
      L1  H     3    41       P1  8028  1.68
      P1  H  7989  7998       L1    18  0.70
      L1  C    15    38       P1  7948  0.64

> <Gold.PLP.Chemscore.Internal.Correction>
0.0763

> <Gold.Rescore>
     Score         DG    S(hbond)    S(metal)    S(lipo)     H(rot)  DE(clash)    DE(int)     intcor
     15.55     -17.08       1.62        0.00      91.92       1.78       0.00       1.53       ----

> <Gold.Chemscore.Fitness>
15.5493

> <Gold.Chemscore.DG>
-17.0838

> <Gold.Chemscore.ZeroCoef>
-5.4800

> <Gold.Chemscore.Hbond>
1.6213

> <Gold.Chemscore.Metal>
0.0000

> <Gold.Chemscore.Lipo>
91.9192

> <Gold.Chemscore.Internal_Hbond>
0.0000

> <Gold.Chemscore.DEClash>
0.0042

> <Gold.Chemscore.DEInternal>
1.5302

> <Gold.Chemscore.Rot>
1.7836

> <Gold.Chemscore.Internal.Correction>
   9.000000E+99

> <Gold.Chemscore.Hbonds>
donor molecule, donor type, donor heavy atom, donor atom, acceptor molecule, acceptor atom, score
      L1  H     3    41       P1  8028  0.79
      P1  H  7989  7998       L1    18  0.04

> <Gold.Chemscore.Hbond.Weighted>
-5.4152

> <Gold.Chemscore.Metal.Weighted>
-0.0000

> <Gold.Chemscore.Lipo.Weighted>
-10.7546

> <Gold.Chemscore.Internal_Hbond.Weighted>
0.0000

> <Gold.Chemscore.DEClash.Weighted>
0.0042

> <Gold.Chemscore.DEInternal.Weighted>
1.5302

> <Gold.Chemscore.Rot.Weighted>
4.5660

> <Gold.Chemscore.Internal.Correction.Weighted>
   9.000000E+99

> <Gold.Protein.RotatedTorsions>
[ 6907 6896 6895 6894 ] final  163.94 input  -60.11 | X-H torsion
[ 7974 7965 7964 7962 ] final -136.60 input  175.53 | X-H torsion
[ 8008 7997 7996 7995 ] final   49.91 input   59.86 | X-H torsion
[ 10167 10162 10161 10158 ] final -101.30 input  -65.29 | X-H torsion
[ 10718 10713 10712 10709 ] final   21.69 input   66.30 | X-H torsion
[ 10763 10752 10751 10750 ] final  -47.48 input  -60.55 | X-H torsion
[ 11005 11000 10999 10996 ] final  -21.43 input  -57.11 | X-H torsion

> <Gold.Protein.ActiveResidues>
 VAL166  LYS551  ARG553  GLY616  TRP617  ASP618  TYR619  PRO620  LYS621  CYS622 
 ASP623  PHE694  ASN695  SER759  ASP760  ASP761  ALA762  ILE779  LEU786  VAL792 
 PHE793  MET794  SER795  GLU796  ALA797  LYS798  CYS799  TRP800  GLU811  SER814 

> <Gold.Protein.RotatedAtoms>
  151.9176  133.3577  159.3885 H   0  0  0  0  0  0  0  0  0  0  0  0  # atno 6907 bound_to 6896
  150.7044  134.4668  159.5416 H   0  0  0  0  0  0  0  0  0  0  0  0  # atno 6908 bound_to 6896
  152.2286  134.8344  160.0527 H   0  0  0  0  0  0  0  0  0  0  0  0  # atno 6909 bound_to 6896
  144.8913  140.6646  143.5143 H   0  0  0  0  0  0  0  0  0  0  0  0  # atno 7974 bound_to 7965
  155.4100  140.3442  155.4263 H   0  0  0  0  0  0  0  0  0  0  0  0  # atno 8008 bound_to 7997
  156.1454  140.1555  156.8886 H   0  0  0  0  0  0  0  0  0  0  0  0  # atno 8009 bound_to 7997
  154.5006  140.0815  156.7771 H   0  0  0  0  0  0  0  0  0  0  0  0  # atno 8010 bound_to 7997
  140.2428  143.3527  152.0786 H   0  0  0  0  0  0  0  0  0  0  0  0  # atno 10167 bound_to 10162
  157.1419  130.6636  149.5984 H   0  0  0  0  0  0  0  0  0  0  0  0  # atno 10718 bound_to 10713
  154.0622  135.6616  153.4813 H   0  0  0  0  0  0  0  0  0  0  0  0  # atno 10763 bound_to 10752
  153.0422  135.5137  154.7648 H   0  0  0  0  0  0  0  0  0  0  0  0  # atno 10764 bound_to 10752
  154.6688  135.3026  154.9737 H   0  0  0  0  0  0  0  0  0  0  0  0  # atno 10765 bound_to 10752
  140.8560  133.7822  156.0020 H   0  0  0  0  0  0  0  0  0  0  0  0  # atno 11005 bound_to 11000
  145.3778  139.1644  143.4297 LP  0  0  0  0  0  0  0  0  0  0  0  0  # atno 17320 bound_to 7965
  146.3055  140.3856  142.8688 LP  0  0  0  0  0  0  0  0  0  0  0  0  # atno 17321 bound_to 7965
  139.5072  144.6827  151.5967 LP  0  0  0  0  0  0  0  0  0  0  0  0  # atno 17342 bound_to 10162
  140.6101  143.9453  150.6447 LP  0  0  0  0  0  0  0  0  0  0  0  0  # atno 17343 bound_to 10162
  155.9787  130.4774  150.6670 LP  0  0  0  0  0  0  0  0  0  0  0  0  # atno 17370 bound_to 10713
  157.4299  131.0848  151.1049 LP  0  0  0  0  0  0  0  0  0  0  0  0  # atno 17371 bound_to 10713
  140.8737  134.2696  157.5178 LP  0  0  0  0  0  0  0  0  0  0  0  0  # atno 17394 bound_to 11000
  139.8705  134.9580  156.4286 LP  0  0  0  0  0  0  0  0  0  0  0  0  # atno 17395 bound_to 11000

$$$$
