AV-unprocessed.smi:2356|AV-procd|sdf|9396|dock2
  -GOLD-   2272013 23D 1   1.00000     0.00000
 Structure written by MMmdl.
 53 56  0  0  0  0  0  0  0  0  1 V2000
  151.7520  144.1229  161.6543 C   0  0  0  0  0  0  0  0  0  0  0  0
  152.4989  142.8680  161.2355 C   0  0  0  0  0  0  0  0  0  0  0  0
  152.1583  142.3684  160.0278 N   0  0  0  0  0  0  0  0  0  0  0  0
  152.7793  141.2548  159.5742 C   0  0  0  0  0  0  0  0  0  0  0  0
  152.3959  140.7698  158.3083 N   0  0  0  0  0  0  0  0  0  0  0  0
  151.2951  141.3613  157.5635 C   0  0  0  0  0  0  0  0  0  0  0  0
  151.1284  140.4611  156.3405 C   0  0  0  0  0  0  0  0  0  0  0  0
  151.5237  139.0824  156.8695 C   0  0  0  0  0  0  0  0  0  0  0  0
  152.5945  139.3783  157.9261 C   0  0  0  0  0  0  0  0  0  0  0  0
  153.7868  140.6094  160.3271 C   0  0  0  0  0  0  0  0  0  0  0  0
  154.1426  141.1287  161.5859 C   0  0  0  0  0  0  0  0  0  0  0  0
  153.4814  142.2829  162.0686 C   0  0  0  0  0  0  0  0  0  0  0  0
  153.7637  142.9024  163.3184 N   0  0  0  0  0  0  0  0  0  0  0  0
  154.7419  142.6525  164.2106 C   0  0  0  0  0  0  0  0  0  0  0  0
  155.6045  141.7862  164.0894 O   0  0  0  0  0  0  0  0  0  0  0  0
  154.7060  143.4502  165.2940 N   0  0  0  0  0  0  0  0  0  0  0  0
  155.6097  143.4519  166.4473 C   0  0  1  0  0  0  0  0  0  0  0  0
  155.2568  144.6156  167.3833 C   0  0  0  0  0  0  0  0  0  0  0  0
  156.1259  144.5749  168.6499 C   0  0  0  0  0  0  0  0  0  0  0  0
  155.9833  143.3204  169.3127 O   0  0  0  0  0  0  0  0  0  0  0  0
  156.3355  142.1746  168.5351 C   0  0  2  0  0  0  0  0  0  0  0  0
  157.8379  142.0861  168.3006 C   0  0  0  0  0  0  0  0  0  0  0  0
  158.4907  140.7669  167.9595 C   0  0  0  0  0  0  0  0  0  0  0  0
  158.7313  141.4023  169.3082 C   0  0  0  0  0  0  0  0  0  0  0  0
  155.5111  142.1314  167.2338 C   0  0  0  0  0  0  0  0  0  0  0  0
  152.4519  144.9449  161.8056 H   0  0  0  0  0  0  0  0  0  0  0  0
  151.2138  143.9528  162.5869 H   0  0  0  0  0  0  0  0  0  0  0  0
  151.0283  144.4316  160.8987 H   0  0  0  0  0  0  0  0  0  0  0  0
  150.3927  141.3490  158.1763 H   0  0  0  0  0  0  0  0  0  0  0  0
  151.5073  142.3925  157.2797 H   0  0  0  0  0  0  0  0  0  0  0  0
  150.1198  140.4884  155.9274 H   0  0  0  0  0  0  0  0  0  0  0  0
  151.8232  140.7689  155.5578 H   0  0  0  0  0  0  0  0  0  0  0  0
  150.6608  138.6158  157.3463 H   0  0  0  0  0  0  0  0  0  0  0  0
  151.8767  138.4109  156.0864 H   0  0  0  0  0  0  0  0  0  0  0  0
  153.5943  139.2681  157.5049 H   0  0  0  0  0  0  0  0  0  0  0  0
  152.5016  138.6989  158.7743 H   0  0  0  0  0  0  0  0  0  0  0  0
  154.2970  139.7334  159.9554 H   0  0  0  0  0  0  0  0  0  0  0  0
  154.9230  140.6336  162.1407 H   0  0  0  0  0  0  0  0  0  0  0  0
  153.1092  143.6211  163.5906 H   0  0  0  0  0  0  0  0  0  0  0  0
  153.9796  144.1516  165.3081 H   0  0  0  0  0  0  0  0  0  0  0  0
  156.6338  143.6000  166.1010 H   0  0  0  0  0  0  0  0  0  0  0  0
  155.3908  145.5690  166.8708 H   0  0  0  0  0  0  0  0  0  0  0  0
  154.2050  144.5589  167.6678 H   0  0  0  0  0  0  0  0  0  0  0  0
  157.1720  144.7672  168.4109 H   0  0  0  0  0  0  0  0  0  0  0  0
  155.8171  145.3637  169.3360 H   0  0  0  0  0  0  0  0  0  0  0  0
  156.0529  141.3070  169.1325 H   0  0  0  0  0  0  0  0  0  0  0  0
  158.2691  142.9548  167.8083 H   0  0  0  0  0  0  0  0  0  0  0  0
  157.8582  139.8820  167.9246 H   0  0  0  0  0  0  0  0  0  0  0  0
  159.3107  140.7817  167.2444 H   0  0  0  0  0  0  0  0  0  0  0  0
  159.7092  141.8429  169.4909 H   0  0  0  0  0  0  0  0  0  0  0  0
  158.2592  140.9396  170.1727 H   0  0  0  0  0  0  0  0  0  0  0  0
  154.4667  141.9451  167.4884 H   0  0  0  0  0  0  0  0  0  0  0  0
  155.8295  141.2867  166.6220 H   0  0  0  0  0  0  0  0  0  0  0  0
  1  2  1  0  0  0  0
  1 26  1  0  0  0  0
  1 27  1  0  0  0  0
  1 28  1  0  0  0  0
  2 12  1  0  0  0  0
  2  3  2  0  0  0  0
  3  4  1  0  0  0  0
  4  5  1  0  0  0  0
  4 10  2  0  0  0  0
  5  9  1  0  0  0  0
  5  6  1  0  0  0  0
  6  7  1  0  0  0  0
  6 29  1  0  0  0  0
  6 30  1  0  0  0  0
  7  8  1  0  0  0  0
  7 31  1  0  0  0  0
  7 32  1  0  0  0  0
  8  9  1  0  0  0  0
  8 33  1  0  0  0  0
  8 34  1  0  0  0  0
  9 35  1  0  0  0  0
  9 36  1  0  0  0  0
 10 11  1  0  0  0  0
 10 37  1  0  0  0  0
 11 12  2  0  0  0  0
 11 38  1  0  0  0  0
 12 13  1  0  0  0  0
 13 14  1  0  0  0  0
 13 39  1  0  0  0  0
 14 15  2  0  0  0  0
 14 16  1  0  0  0  0
 16 17  1  0  0  0  0
 16 40  1  0  0  0  0
 17 25  1  0  0  0  0
 17 18  1  0  0  0  0
 17 41  1  0  0  0  0
 18 19  1  0  0  0  0
 18 42  1  0  0  0  0
 18 43  1  0  0  0  0
 19 20  1  0  0  0  0
 19 44  1  0  0  0  0
 19 45  1  0  0  0  0
 20 21  1  0  0  0  0
 21 22  1  0  0  0  0
 21 25  1  0  0  0  0
 21 46  1  0  0  0  0
 22 24  1  0  0  0  0
 22 23  1  0  0  0  0
 22 47  1  0  0  0  0
 23 24  1  0  0  0  0
 23 48  1  0  0  0  0
 23 49  1  0  0  0  0
 24 50  1  0  0  0  0
 24 51  1  0  0  0  0
 25 52  1  0  0  0  0
 25 53  1  0  0  0  0
M  END
> <s_m_source_file>
AV-unprocessed.smi

> <i_m_source_file_index>
2356

> <i_lp_mmshare_version>
43012

> <i_f3d_flags>
0

> <s_epik_input>
W0NIMl0xW0NIMl1bQ0gyXVtDSDJdTjFjKG5jMltDSDNdKVtjSF1bY0hdYzJbTkhdQyg9TylbTkhdW0NAQEhdM1tDSDJdW0NIMl1PW0NASF0oW0NIMl0zKVtDSF00W0NIMl1bQ0gyXTQ=

> <s_epik_cmdline>
J2VwaWtfcHl0aG9uJywgJy1waCcsICc3LjAnLCAnLXRuJywgJzgnLCAnLW1hJywgJzIwMCcsICctbWV0YWxfYmluZGluZycsICctaW1hZScsICc8aW5maWxlLm1hZT4nLCAnLW9tYWUnLCAnPG91dGZpbGUubWFlPic=

> <r_lp_tautomer_probability>
1

> <r_epik_Ionization_Penalty>
0.308781

> <r_epik_Ionization_Penalty_Charging>
0

> <r_epik_Ionization_Penalty_Neutral>
0.308781

> <r_epik_State_Penalty>
0.302092

> <r_epik_Charging_Adjusted_Penalty>
0.302092

> <i_epik_Tot_Q>
0

> <i_epik_Tot_abs_Q>
0

> <r_epik_Metal_State_Penalty>
0.197467

> <b_epik_Metal_Only>
0

> <s_lp_Force_Field>
OPLS_2005

> <r_lp_Energy>
54.1465

> <b_lp_Chiralities_Consistent>
1

> <s_lp_Variant>
AV-unprocessed.smi:2356-4

> <Gold.Version>
5.8.1

> <Gold.Id.Protein>
6NUR|6NUR_protein|mol2

> <Gold.PLP.Fitness>
47.6308

> <Gold.PLP.PLP>
-47.7739

> <Gold.PLP.part.hbond>
-1.1747

> <Gold.PLP.part.metal>
0.0000

> <Gold.PLP.part.buried>
-6.2688

> <Gold.PLP.part.nonpolar>
-39.4415

> <Gold.PLP.part.repulsive>
0.3390

> <Gold.PLP.ligand.clash>
0.0000

> <Gold.PLP.ligand.torsion>
0.7076

> <Gold.PLP.Chemscore.Hbond>
0.0000

> <Gold.PLP.Chemscore.CHOScore>
0.0000

> <Gold.PLP.Chemscore.Metal>
0.0000

> <Gold.PLP.Chemscore.Internal.Correction>
1.2722

> <Gold.Rescore>
     Score         DG    S(hbond)    S(metal)    S(lipo)     H(rot)  DE(clash)    DE(int)     intcor
     13.74     -15.61       0.00        0.00     111.47       1.14       0.05       1.82       ----

> <Gold.Chemscore.Fitness>
13.7430

> <Gold.Chemscore.DG>
-15.6051

> <Gold.Chemscore.ZeroCoef>
-5.4800

> <Gold.Chemscore.Hbond>
0.0000

> <Gold.Chemscore.Metal>
0.0000

> <Gold.Chemscore.Lipo>
111.4717

> <Gold.Chemscore.Internal_Hbond>
0.0000

> <Gold.Chemscore.DEClash>
0.0467

> <Gold.Chemscore.DEInternal>
1.8153

> <Gold.Chemscore.Rot>
1.1395

> <Gold.Chemscore.Internal.Correction>
   9.000000E+99

> <Gold.Chemscore.Hbond.Weighted>
-0.0000

> <Gold.Chemscore.Metal.Weighted>
-0.0000

> <Gold.Chemscore.Lipo.Weighted>
-13.0422

> <Gold.Chemscore.Internal_Hbond.Weighted>
0.0000

> <Gold.Chemscore.DEClash.Weighted>
0.0467

> <Gold.Chemscore.DEInternal.Weighted>
1.8153

> <Gold.Chemscore.Rot.Weighted>
2.9171

> <Gold.Chemscore.Internal.Correction.Weighted>
   9.000000E+99

> <Gold.Protein.RotatedTorsions>
[ 6907 6896 6895 6894 ] final  -92.43 input  -60.11 | X-H torsion
[ 7974 7965 7964 7962 ] final -155.39 input  175.53 | X-H torsion
[ 8008 7997 7996 7995 ] final  136.95 input   59.86 | X-H torsion
[ 10167 10162 10161 10158 ] final  -30.08 input  -65.29 | X-H torsion
[ 10718 10713 10712 10709 ] final -114.37 input   66.30 | X-H torsion
[ 10763 10752 10751 10750 ] final   86.94 input  -60.55 | X-H torsion
[ 11005 11000 10999 10996 ] final  148.87 input  -57.11 | X-H torsion

> <Gold.Protein.ActiveResidues>
 VAL166  LYS551  ARG553  GLY616  TRP617  ASP618  TYR619  PRO620  LYS621  CYS622 
 ASP623  PHE694  ASN695  SER759  ASP760  ASP761  ALA762  ILE779  LEU786  VAL792 
 PHE793  MET794  SER795  GLU796  ALA797  LYS798  CYS799  TRP800  GLU811  SER814 

> <Gold.Protein.RotatedAtoms>
  150.6906  134.2123  159.4363 H   0  0  0  0  0  0  0  0  0  0  0  0  # atno 6907 bound_to 6896
  152.0084  134.9887  160.0576 H   0  0  0  0  0  0  0  0  0  0  0  0  # atno 6908 bound_to 6896
  152.1512  133.4488  159.4851 H   0  0  0  0  0  0  0  0  0  0  0  0  # atno 6909 bound_to 6896
  144.7643  140.4256  143.5954 H   0  0  0  0  0  0  0  0  0  0  0  0  # atno 7974 bound_to 7965
  156.3003  140.2432  156.3829 H   0  0  0  0  0  0  0  0  0  0  0  0  # atno 8008 bound_to 7997
  154.8684  140.0417  157.1729 H   0  0  0  0  0  0  0  0  0  0  0  0  # atno 8009 bound_to 7997
  154.8821  140.2951  155.5423 H   0  0  0  0  0  0  0  0  0  0  0  0  # atno 8010 bound_to 7997
  140.7253  143.3877  151.1485 H   0  0  0  0  0  0  0  0  0  0  0  0  # atno 10167 bound_to 10162
  156.0826  130.6023  150.8766 H   0  0  0  0  0  0  0  0  0  0  0  0  # atno 10718 bound_to 10713
  153.1619  135.4562  154.9784 H   0  0  0  0  0  0  0  0  0  0  0  0  # atno 10763 bound_to 10752
  154.7904  135.3218  154.7793 H   0  0  0  0  0  0  0  0  0  0  0  0  # atno 10764 bound_to 10752
  153.8281  135.6941  153.4872 H   0  0  0  0  0  0  0  0  0  0  0  0  # atno 10765 bound_to 10752
  140.0996  134.8991  157.1776 H   0  0  0  0  0  0  0  0  0  0  0  0  # atno 11005 bound_to 11000
  145.6521  139.1566  143.2856 LP  0  0  0  0  0  0  0  0  0  0  0  0  # atno 17320 bound_to 7965
  146.1735  140.6609  142.9222 LP  0  0  0  0  0  0  0  0  0  0  0  0  # atno 17321 bound_to 7965
  139.7477  143.8827  152.3068 LP  0  0  0  0  0  0  0  0  0  0  0  0  # atno 17342 bound_to 10162
  139.8669  144.7088  150.9033 LP  0  0  0  0  0  0  0  0  0  0  0  0  # atno 17343 bound_to 10162
  157.5948  131.0943  150.9059 LP  0  0  0  0  0  0  0  0  0  0  0  0  # atno 17370 bound_to 10713
  156.9228  130.5321  149.5279 LP  0  0  0  0  0  0  0  0  0  0  0  0  # atno 17371 bound_to 10713
  140.3238  134.2886  155.7241 LP  0  0  0  0  0  0  0  0  0  0  0  0  # atno 17394 bound_to 11000
  141.2102  133.7727  156.9948 LP  0  0  0  0  0  0  0  0  0  0  0  0  # atno 17395 bound_to 11000

$$$$
