AV-unprocessed.smi:1936|AV-procd|sdf|7830|dock10
  -GOLD-   22720 9573D 1   1.00000     0.00000
 Structure written by MMmdl.
 38 39  0  0  0  0  0  0  0  0  1 V2000
  150.3163  141.5492  155.6217 C   0  0  0  0  0  0  0  0  0  0  0  0
  150.4321  142.0731  157.0626 C   0  0  1  0  0  0  0  0  0  0  0  0
  151.6110  143.0599  157.2104 C   0  0  0  0  0  0  0  0  0  0  0  0
  152.2154  143.1199  158.5420 N   0  0  0  0  0  0  0  0  0  0  0  0
  152.3123  141.8082  159.1795 C   0  0  0  0  0  0  0  0  0  0  0  0
  152.9177  141.8964  160.5913 C   0  0  0  0  0  0  0  0  0  0  0  0
  152.1510  142.7943  161.3867 O   0  0  0  0  0  0  0  0  0  0  0  0
  152.0794  144.0996  160.8228 C   0  0  0  0  0  0  0  0  0  0  0  0
  151.4651  144.0171  159.4148 C   0  0  0  0  0  0  0  0  0  0  0  0
  149.1832  142.7371  157.4306 N   0  0  0  0  0  0  0  0  0  0  0  0
  148.1054  142.1347  157.9558 C   0  0  0  0  0  0  0  0  0  0  0  0
  148.0506  140.9235  158.1750 O   0  0  0  0  0  0  0  0  0  0  0  0
  146.9223  143.0570  158.2760 C   0  0  0  0  0  0  0  0  0  0  0  0
  146.8203  143.3806  159.6900 N   0  0  0  0  0  0  0  0  0  0  0  0
  147.1259  144.5684  160.3216 C   0  0  0  0  0  0  0  0  0  0  0  0
  146.8680  144.3999  161.6519 C   0  0  0  0  0  0  0  0  0  0  0  0
  146.4021  143.0582  161.7384 C   0  0  0  0  0  0  0  0  0  0  0  0
  146.3770  142.4497  160.5635 N   0  0  0  0  0  0  0  0  0  0  0  0
  151.2257  141.0292  155.3189 H   0  0  0  0  0  0  0  0  0  0  0  0
  150.1468  142.3625  154.9153 H   0  0  0  0  0  0  0  0  0  0  0  0
  149.4909  140.8434  155.5223 H   0  0  0  0  0  0  0  0  0  0  0  0
  150.6086  141.2148  157.7145 H   0  0  0  0  0  0  0  0  0  0  0  0
  152.3892  142.7476  156.5127 H   0  0  0  0  0  0  0  0  0  0  0  0
  151.3166  144.0581  156.8815 H   0  0  0  0  0  0  0  0  0  0  0  0
  151.3233  141.3512  159.2380 H   0  0  0  0  0  0  0  0  0  0  0  0
  152.9313  141.1419  158.5793 H   0  0  0  0  0  0  0  0  0  0  0  0
  152.9208  140.9141  161.0640 H   0  0  0  0  0  0  0  0  0  0  0  0
  153.9544  142.2339  160.5464 H   0  0  0  0  0  0  0  0  0  0  0  0
  151.4695  144.7333  161.4666 H   0  0  0  0  0  0  0  0  0  0  0  0
  153.0754  144.5436  160.7854 H   0  0  0  0  0  0  0  0  0  0  0  0
  151.4318  145.0162  158.9787 H   0  0  0  0  0  0  0  0  0  0  0  0
  150.4314  143.6770  159.4939 H   0  0  0  0  0  0  0  0  0  0  0  0
  149.1410  143.7352  157.2836 H   0  0  0  0  0  0  0  0  0  0  0  0
  147.0163  143.9799  157.7012 H   0  0  0  0  0  0  0  0  0  0  0  0
  145.9932  142.5775  157.9650 H   0  0  0  0  0  0  0  0  0  0  0  0
  147.4946  145.4251  159.7769 H   0  0  0  0  0  0  0  0  0  0  0  0
  146.9916  145.1249  162.4426 H   0  0  0  0  0  0  0  0  0  0  0  0
  146.0843  142.5119  162.6142 H   0  0  0  0  0  0  0  0  0  0  0  0
  1  2  1  0  0  0  0
  1 19  1  0  0  0  0
  1 20  1  0  0  0  0
  1 21  1  0  0  0  0
  2  3  1  0  0  0  0
  2 10  1  0  0  0  0
  2 22  1  0  0  0  0
  3  4  1  0  0  0  0
  3 23  1  0  0  0  0
  3 24  1  0  0  0  0
  4  9  1  0  0  0  0
  4  5  1  0  0  0  0
  5  6  1  0  0  0  0
  5 25  1  0  0  0  0
  5 26  1  0  0  0  0
  6  7  1  0  0  0  0
  6 27  1  0  0  0  0
  6 28  1  0  0  0  0
  7  8  1  0  0  0  0
  8  9  1  0  0  0  0
  8 29  1  0  0  0  0
  8 30  1  0  0  0  0
  9 31  1  0  0  0  0
  9 32  1  0  0  0  0
 10 11  1  0  0  0  0
 10 33  1  0  0  0  0
 11 12  2  0  0  0  0
 11 13  1  0  0  0  0
 13 14  1  0  0  0  0
 13 34  1  0  0  0  0
 13 35  1  0  0  0  0
 14 18  1  0  0  0  0
 14 15  1  0  0  0  0
 15 16  2  0  0  0  0
 15 36  1  0  0  0  0
 16 17  1  0  0  0  0
 16 37  1  0  0  0  0
 17 18  2  0  0  0  0
 17 38  1  0  0  0  0
M  END
> <s_m_source_file>
AV-unprocessed.smi

> <i_m_source_file_index>
1936

> <i_lp_mmshare_version>
43012

> <i_f3d_flags>
0

> <s_epik_input>
W0NIMl0xW0NIMl1PW0NIMl1bQ0gyXU4xW0NIMl1bQ0BASF0oW0NIM10pW05IXUMoPU8pW0NIMl1uMltjSF1bY0hdW2NIXW4y

> <s_epik_cmdline>
J2VwaWtfcHl0aG9uJywgJy1waCcsICc3LjAnLCAnLXRuJywgJzgnLCAnLW1hJywgJzIwMCcsICctbWV0YWxfYmluZGluZycsICctaW1hZScsICc8aW5maWxlLm1hZT4nLCAnLW9tYWUnLCAnPG91dGZpbGUubWFlPic=

> <r_lp_tautomer_probability>
1

> <r_epik_Ionization_Penalty>
0.196927

> <r_epik_Ionization_Penalty_Charging>
0

> <r_epik_Ionization_Penalty_Neutral>
0.196927

> <r_epik_State_Penalty>
0.186684

> <r_epik_Charging_Adjusted_Penalty>
0.186684

> <i_epik_Tot_Q>
0

> <i_epik_Tot_abs_Q>
0

> <r_epik_Metal_State_Penalty>
0.186682

> <b_epik_Metal_Only>
0

> <s_lp_Force_Field>
OPLS_2005

> <r_lp_Energy>
27.4163

> <b_lp_Chiralities_Consistent>
1

> <s_lp_Variant>
AV-unprocessed.smi:1936-2

> <Gold.Version>
5.8.1

> <Gold.Id.Protein>
6NUR|6NUR_protein|mol2

> <Gold.PLP.Fitness>
43.4444

> <Gold.PLP.PLP>
-37.7039

> <Gold.PLP.part.hbond>
-3.6411

> <Gold.PLP.part.metal>
0.0000

> <Gold.PLP.part.buried>
-7.5403

> <Gold.PLP.part.nonpolar>
-27.4460

> <Gold.PLP.part.repulsive>
0.2076

> <Gold.PLP.ligand.clash>
0.0000

> <Gold.PLP.ligand.torsion>
1.3462

> <Gold.PLP.Chemscore.Hbond>
1.8000

> <Gold.PLP.Chemscore.CHOScore>
1.0000

> <Gold.PLP.Chemscore.Metal>
0.0000

> <Gold.Chemscore.Hbonds>
donor molecule, donor type, donor heavy atom, donor atom, acceptor molecule, acceptor atom, score
      L1  H    10    33       P1  8028  0.62
      P1  H  6934  6946       L1    18  1.00
      L1  C    15    36       P1  8029  0.89

> <Gold.PLP.Chemscore.Internal.Correction>
0.0328

> <Gold.Rescore>
     Score         DG    S(hbond)    S(metal)    S(lipo)     H(rot)  DE(clash)    DE(int)     intcor
     13.79     -15.82       1.69        0.00      80.63       1.85       0.62       1.41       ----

> <Gold.Chemscore.Fitness>
13.7914

> <Gold.Chemscore.DG>
-15.8179

> <Gold.Chemscore.ZeroCoef>
-5.4800

> <Gold.Chemscore.Hbond>
1.6924

> <Gold.Chemscore.Metal>
0.0000

> <Gold.Chemscore.Lipo>
80.6314

> <Gold.Chemscore.Internal_Hbond>
0.0000

> <Gold.Chemscore.DEClash>
0.6204

> <Gold.Chemscore.DEInternal>
1.4061

> <Gold.Chemscore.Rot>
1.8549

> <Gold.Chemscore.Internal.Correction>
   9.000000E+99

> <Gold.Chemscore.Hbonds>
donor molecule, donor type, donor heavy atom, donor atom, acceptor molecule, acceptor atom, score
      L1  H    10    33       P1  8028  0.21
      P1  H  6933  6945       L1     7  0.01
      P1  H  6934  6946       L1    18  0.74

> <Gold.Chemscore.Hbond.Weighted>
-5.6526

> <Gold.Chemscore.Metal.Weighted>
-0.0000

> <Gold.Chemscore.Lipo.Weighted>
-9.4339

> <Gold.Chemscore.Internal_Hbond.Weighted>
0.0000

> <Gold.Chemscore.DEClash.Weighted>
0.6204

> <Gold.Chemscore.DEInternal.Weighted>
1.4061

> <Gold.Chemscore.Rot.Weighted>
4.7485

> <Gold.Chemscore.Internal.Correction.Weighted>
   9.000000E+99

> <Gold.Protein.RotatedTorsions>
[ 6907 6896 6895 6894 ] final   11.89 input  -60.11 | X-H torsion
[ 7974 7965 7964 7962 ] final  -57.91 input  175.53 | X-H torsion
[ 8008 7997 7996 7995 ] final -120.26 input   59.86 | X-H torsion
[ 10167 10162 10161 10158 ] final   30.12 input  -65.29 | X-H torsion
[ 10718 10713 10712 10709 ] final  -10.78 input   66.30 | X-H torsion
[ 10763 10752 10751 10750 ] final  143.44 input  -60.55 | X-H torsion
[ 11005 11000 10999 10996 ] final   95.47 input  -57.11 | X-H torsion

> <Gold.Protein.ActiveResidues>
 VAL166  LYS551  ARG553  GLY616  TRP617  ASP618  TYR619  PRO620  LYS621  CYS622 
 ASP623  PHE694  ASN695  SER759  ASP760  ASP761  ALA762  ILE779  LEU786  VAL792 
 PHE793  MET794  SER795  GLU796  ALA797  LYS798  CYS799  TRP800  GLU811  SER814 

> <Gold.Protein.RotatedAtoms>
  151.7615  135.0809  160.0345 H   0  0  0  0  0  0  0  0  0  0  0  0  # atno 6907 bound_to 6896
  152.3350  133.5997  159.5844 H   0  0  0  0  0  0  0  0  0  0  0  0  # atno 6908 bound_to 6896
  150.7445  133.9726  159.3592 H   0  0  0  0  0  0  0  0  0  0  0  0  # atno 6909 bound_to 6896
  145.8455  140.8388  143.0012 H   0  0  0  0  0  0  0  0  0  0  0  0  # atno 7974 bound_to 7965
  155.1289  140.0400  157.2769 H   0  0  0  0  0  0  0  0  0  0  0  0  # atno 8008 bound_to 7997
  154.6557  140.2579  155.7138 H   0  0  0  0  0  0  0  0  0  0  0  0  # atno 8009 bound_to 7997
  156.2597  140.2827  156.1009 H   0  0  0  0  0  0  0  0  0  0  0  0  # atno 8010 bound_to 7997
  140.4706  144.0768  150.6236 H   0  0  0  0  0  0  0  0  0  0  0  0  # atno 10167 bound_to 10162
  156.6686  130.5002  149.6007 H   0  0  0  0  0  0  0  0  0  0  0  0  # atno 10718 bound_to 10713
  153.9724  135.2949  155.3426 H   0  0  0  0  0  0  0  0  0  0  0  0  # atno 10763 bound_to 10752
  154.7315  135.5065  153.8974 H   0  0  0  0  0  0  0  0  0  0  0  0  # atno 10764 bound_to 10752
  153.0893  135.6703  153.9998 H   0  0  0  0  0  0  0  0  0  0  0  0  # atno 10765 bound_to 10752
  139.8789  134.8900  156.4016 H   0  0  0  0  0  0  0  0  0  0  0  0  # atno 11005 bound_to 11000
  144.6731  140.0875  143.7466 LP  0  0  0  0  0  0  0  0  0  0  0  0  # atno 17320 bound_to 7965
  145.9417  139.2673  143.1265 LP  0  0  0  0  0  0  0  0  0  0  0  0  # atno 17321 bound_to 7965
  140.3982  143.2717  151.9980 LP  0  0  0  0  0  0  0  0  0  0  0  0  # atno 17342 bound_to 10162
  139.4818  144.6020  151.7588 LP  0  0  0  0  0  0  0  0  0  0  0  0  # atno 17343 bound_to 10162
  156.1956  130.6587  151.1110 LP  0  0  0  0  0  0  0  0  0  0  0  0  # atno 17370 bound_to 10713
  157.7085  131.0745  150.6584 LP  0  0  0  0  0  0  0  0  0  0  0  0  # atno 17371 bound_to 10713
  140.9263  133.7610  155.9969 LP  0  0  0  0  0  0  0  0  0  0  0  0  # atno 17394 bound_to 11000
  140.8382  134.3098  157.5323 LP  0  0  0  0  0  0  0  0  0  0  0  0  # atno 17395 bound_to 11000

$$$$
