AV-unprocessed.smi:16|AV-procd|sdf|91|dock2
  -GOLD-   2262015233D 1   1.00000     0.00000
 Structure written by MMmdl.
 60 64  0  0  0  0  0  0  0  0  2 V2000
  147.8927  141.8531  157.3403 C   0  0  0  0  0  0  0  0  0  0  0  0
  148.7046  142.5676  158.4311 C   0  0  0  0  0  0  0  0  0  0  0  0
  149.9373  143.2123  157.9033 N   0  3  1  0  0  0  0  0  0  0  0  0
  150.5757  144.1422  158.8732 C   0  0  0  0  0  0  0  0  0  0  0  0
  151.3444  143.3908  159.9769 C   0  0  0  0  0  0  0  0  0  0  0  0
  152.3799  142.4426  159.3589 C   0  0  1  0  0  0  0  0  0  0  0  0
  153.0372  141.7073  160.3844 O   0  0  0  0  0  0  0  0  0  0  0  0
  154.0598  140.8689  159.8550 C   0  0  0  0  0  0  0  0  0  0  0  0
  153.4406  139.8547  158.8784 C   0  0  0  0  0  0  0  0  0  0  0  0
  152.6806  140.5421  157.8384 N   0  0  0  0  0  0  0  0  0  0  0  0
  152.2108  139.6771  156.9111 C   0  0  0  0  0  0  0  0  0  0  0  0
  152.5278  139.8431  155.5995 N   0  0  0  0  0  0  0  0  0  0  0  0
  152.0873  138.9657  154.6926 C   0  0  0  0  0  0  0  0  0  0  0  0
  151.3394  137.8758  154.8802 N   0  0  0  0  0  0  0  0  0  0  0  0
  151.0172  137.7123  156.1960 C   0  0  0  0  0  0  0  0  0  0  0  0
  151.4105  138.5614  157.2674 C   0  0  0  0  0  0  0  0  0  0  0  0
  150.9201  138.0743  158.4711 N   0  0  0  0  0  0  0  0  0  0  0  0
  150.2758  136.9908  158.1314 C   0  0  0  0  0  0  0  0  0  0  0  0
  150.2624  136.7109  156.7826 N   0  0  0  0  0  0  0  0  0  0  0  0
  149.6807  135.5599  156.1555 C   0  0  0  0  0  0  0  0  0  0  0  0
  149.2123  134.3547  156.9759 C   0  0  0  0  0  0  0  0  0  0  0  0
  149.6785  133.3968  155.8570 C   0  0  0  0  0  0  0  0  0  0  0  0
  150.4833  132.1788  156.3354 C   0  0  0  0  0  0  0  0  0  0  0  0
  151.4856  132.5531  157.2585 O   0  0  0  0  0  0  0  0  0  0  0  0
  148.6020  132.8737  154.8791 C   0  0  0  0  0  0  0  0  0  0  0  0
  147.7144  131.9432  155.4658 O   0  0  0  0  0  0  0  0  0  0  0  0
  150.5420  134.5764  155.3564 C   0  0  0  0  0  0  0  0  0  0  0  0
  151.6844  141.4630  158.3908 C   0  0  2  0  0  0  0  0  0  0  0  0
  150.9275  142.2732  157.3071 C   0  0  0  0  0  0  0  0  0  0  0  0
  153.1198  143.0385  158.8200 H   0  0  0  0  0  0  0  0  0  0  0  0
  150.9684  140.8678  158.9590 H   0  0  0  0  0  0  0  0  0  0  0  0
  146.9378  141.5094  157.7387 H   0  0  0  0  0  0  0  0  0  0  0  0
  148.4092  140.9761  156.9513 H   0  0  0  0  0  0  0  0  0  0  0  0
  147.6800  142.5203  156.5043 H   0  0  0  0  0  0  0  0  0  0  0  0
  148.0659  143.3384  158.8640 H   0  0  0  0  0  0  0  0  0  0  0  0
  148.9388  141.8776  159.2414 H   0  0  0  0  0  0  0  0  0  0  0  0
  151.2679  144.7830  158.3254 H   0  0  0  0  0  0  0  0  0  0  0  0
  149.8304  144.8077  159.3102 H   0  0  0  0  0  0  0  0  0  0  0  0
  151.8421  144.1056  160.6331 H   0  0  0  0  0  0  0  0  0  0  0  0
  150.6506  142.8290  160.6032 H   0  0  0  0  0  0  0  0  0  0  0  0
  154.8213  141.4724  159.3582 H   0  0  0  0  0  0  0  0  0  0  0  0
  154.5525  140.3479  160.6761 H   0  0  0  0  0  0  0  0  0  0  0  0
  154.2267  139.2490  158.4255 H   0  0  0  0  0  0  0  0  0  0  0  0
  152.7853  139.1745  159.4245 H   0  0  0  0  0  0  0  0  0  0  0  0
  152.3774  139.1627  153.6711 H   0  0  0  0  0  0  0  0  0  0  0  0
  149.7888  136.3611  158.8620 H   0  0  0  0  0  0  0  0  0  0  0  0
  148.8646  135.9432  155.5420 H   0  0  0  0  0  0  0  0  0  0  0  0
  149.7825  134.2367  157.8991 H   0  0  0  0  0  0  0  0  0  0  0  0
  148.1405  134.3378  157.1756 H   0  0  0  0  0  0  0  0  0  0  0  0
  149.8351  131.4343  156.7991 H   0  0  0  0  0  0  0  0  0  0  0  0
  150.9728  131.6815  155.4975 H   0  0  0  0  0  0  0  0  0  0  0  0
  152.2254  131.9753  157.1482 H   0  0  0  0  0  0  0  0  0  0  0  0
  148.0037  133.6973  154.4881 H   0  0  0  0  0  0  0  0  0  0  0  0
  149.0600  132.3861  154.0181 H   0  0  0  0  0  0  0  0  0  0  0  0
  146.8974  132.3819  155.6485 H   0  0  0  0  0  0  0  0  0  0  0  0
  150.5220  134.7355  154.2779 H   0  0  0  0  0  0  0  0  0  0  0  0
  151.5694  134.5349  155.7220 H   0  0  0  0  0  0  0  0  0  0  0  0
  150.4321  141.6207  156.5900 H   0  0  0  0  0  0  0  0  0  0  0  0
  151.6435  142.8563  156.7262 H   0  0  0  0  0  0  0  0  0  0  0  0
  149.6167  143.7964  157.1442 H   0  0  0  0  0  0  0  0  0  0  0  0
  1  2  1  0  0  0  0
  1 32  1  0  0  0  0
  1 33  1  0  0  0  0
  1 34  1  0  0  0  0
  2  3  1  0  0  0  0
  2 35  1  0  0  0  0
  2 36  1  0  0  0  0
  3 29  1  0  0  0  0
  3  4  1  0  0  0  0
  3 60  1  0  0  0  0
  4  5  1  0  0  0  0
  4 37  1  0  0  0  0
  4 38  1  0  0  0  0
  5  6  1  0  0  0  0
  5 39  1  0  0  0  0
  5 40  1  0  0  0  0
  6 30  1  0  0  0  0
  6 28  1  0  0  0  0
  6  7  1  0  0  0  0
  7  8  1  0  0  0  0
  8  9  1  0  0  0  0
  8 41  1  0  0  0  0
  8 42  1  0  0  0  0
  9 10  1  0  0  0  0
  9 43  1  0  0  0  0
  9 44  1  0  0  0  0
 10 11  1  0  0  0  0
 10 28  1  0  0  0  0
 11 16  1  0  0  0  0
 11 12  2  0  0  0  0
 12 13  1  0  0  0  0
 13 14  2  0  0  0  0
 13 45  1  0  0  0  0
 14 15  1  0  0  0  0
 15 19  1  0  0  0  0
 15 16  2  0  0  0  0
 16 17  1  0  0  0  0
 17 18  2  0  0  0  0
 18 19  1  0  0  0  0
 18 46  1  0  0  0  0
 19 20  1  0  0  0  0
 20 27  1  0  0  0  0
 20 21  1  0  0  0  0
 20 47  1  0  0  0  0
 21 22  1  0  0  0  0
 21 48  1  0  0  0  0
 21 49  1  0  0  0  0
 22 23  1  0  0  0  0
 22 25  1  0  0  0  0
 22 27  1  0  0  0  0
 23 24  1  0  0  0  0
 23 50  1  0  0  0  0
 23 51  1  0  0  0  0
 24 52  1  0  0  0  0
 25 26  1  0  0  0  0
 25 53  1  0  0  0  0
 25 54  1  0  0  0  0
 26 55  1  0  0  0  0
 27 56  1  0  0  0  0
 27 57  1  0  0  0  0
 28 31  1  0  0  0  0
 28 29  1  0  0  0  0
 29 58  1  0  0  0  0
 29 59  1  0  0  0  0
M  CHG  1   3   1
M  END
> <s_m_source_file>
AV-unprocessed.smi

> <i_m_source_file_index>
16

> <i_lp_mmshare_version>
43012

> <i_f3d_flags>
0

> <s_epik_input>
W0NIM11bQ0gyXU4oW0NIMl1bQ0gyXTEpW0NIMl1bQ0BASF0oW0NAQEhdMTIpTihbQ0gyXVtDSDJdTzIpYyhuW2NIXW4zKWMoYzM0KW5bY0hdbjRbQ0hdKFtDSDJdNSlbQ0gyXUM1KFtDSDJdW09IXSlbQ0gyXVtPSF0=

> <s_epik_cmdline>
J2VwaWtfcHl0aG9uJywgJy1waCcsICc3LjAnLCAnLXRuJywgJzgnLCAnLW1hJywgJzIwMCcsICctbWV0YWxfYmluZGluZycsICctaW1hZScsICc8aW5maWxlLm1hZT4nLCAnLW9tYWUnLCAnPG91dGZpbGUubWFlPic=

> <r_lp_tautomer_probability>
1

> <r_epik_Ionization_Penalty>
0.0135603

> <r_epik_Ionization_Penalty_Charging>
0.0131385

> <r_epik_Ionization_Penalty_Neutral>
0.000421734

> <r_epik_State_Penalty>
0.0102091

> <r_epik_Charging_Adjusted_Penalty>
0.0233476

> <i_epik_Tot_Q>
1

> <i_epik_Tot_abs_Q>
1

> <r_epik_Metal_State_Penalty>
0.0103746

> <b_epik_Metal_Only>
0

> <s_lp_Force_Field>
OPLS_2005

> <r_lp_Energy>
58.6505

> <b_lp_Chiralities_Consistent>
1

> <s_lp_Variant>
AV-unprocessed.smi:16-5

> <Gold.Version>
5.8.1

> <Gold.Id.Protein>
6NUR|6NUR_protein|mol2

> <Gold.PLP.Fitness>
49.2531

> <Gold.PLP.PLP>
-37.6697

> <Gold.PLP.part.hbond>
-4.1959

> <Gold.PLP.part.metal>
0.0000

> <Gold.PLP.part.buried>
-2.9724

> <Gold.PLP.part.nonpolar>
-29.0875

> <Gold.PLP.part.repulsive>
0.1483

> <Gold.PLP.ligand.clash>
0.0000

> <Gold.PLP.ligand.torsion>
0.5173

> <Gold.PLP.Chemscore.Hbond>
3.9920

> <Gold.PLP.Chemscore.CHOScore>
0.0000

> <Gold.PLP.Chemscore.Metal>
0.0000

> <Gold.Chemscore.Hbonds>
donor molecule, donor type, donor heavy atom, donor atom, acceptor molecule, acceptor atom, score
      L1  H     3    60       P1  8028  2.00
      P1  H  6896  6907       L1    24  0.76
      P1  H  7997  8010       L1    12  0.89

> <Gold.PLP.Chemscore.Internal.Correction>
0.6420

> <Gold.Rescore>
     Score         DG    S(hbond)    S(metal)    S(lipo)     H(rot)  DE(clash)    DE(int)     intcor
     15.68     -16.29       2.55        0.00      92.31       3.33       0.04       0.57       ----

> <Gold.Chemscore.Fitness>
15.6767

> <Gold.Chemscore.DG>
-16.2922

> <Gold.Chemscore.ZeroCoef>
-5.4800

> <Gold.Chemscore.Hbond>
2.5521

> <Gold.Chemscore.Metal>
0.0000

> <Gold.Chemscore.Lipo>
92.3095

> <Gold.Chemscore.Internal_Hbond>
0.0000

> <Gold.Chemscore.DEClash>
0.0413

> <Gold.Chemscore.DEInternal>
0.5742

> <Gold.Chemscore.Rot>
3.3251

> <Gold.Chemscore.Internal.Correction>
   9.000000E+99

> <Gold.Chemscore.Hbonds>
donor molecule, donor type, donor heavy atom, donor atom, acceptor molecule, acceptor atom, score
      L1  H     3    60       P1  8028  0.78
      P1  H  6896  6907       L1    24  0.65
      P1  H  7997  8010       L1    12  0.16

> <Gold.Chemscore.Hbond.Weighted>
-8.5241

> <Gold.Chemscore.Metal.Weighted>
-0.0000

> <Gold.Chemscore.Lipo.Weighted>
-10.8002

> <Gold.Chemscore.Internal_Hbond.Weighted>
0.0000

> <Gold.Chemscore.DEClash.Weighted>
0.0413

> <Gold.Chemscore.DEInternal.Weighted>
0.5742

> <Gold.Chemscore.Rot.Weighted>
8.5122

> <Gold.Chemscore.Internal.Correction.Weighted>
   9.000000E+99

> <Gold.Protein.RotatedTorsions>
[ 6907 6896 6895 6894 ] final -155.06 input  -60.11 | X-H torsion
[ 7974 7965 7964 7962 ] final -104.96 input  175.53 | X-H torsion
[ 8008 7997 7996 7995 ] final  110.70 input   59.86 | X-H torsion
[ 10167 10162 10161 10158 ] final -149.61 input  -65.29 | X-H torsion
[ 10718 10713 10712 10709 ] final  137.63 input   66.30 | X-H torsion
[ 10763 10752 10751 10750 ] final  -35.58 input  -60.55 | X-H torsion
[ 11005 11000 10999 10996 ] final  144.77 input  -57.11 | X-H torsion

> <Gold.Protein.ActiveResidues>
 VAL166  LYS551  ARG553  GLY616  TRP617  ASP618  TYR619  PRO620  LYS621  CYS622 
 ASP623  PHE694  ASN695  SER759  ASP760  ASP761  ALA762  ILE779  LEU786  VAL792 
 PHE793  MET794  SER795  GLU796  ALA797  LYS798  CYS799  TRP800  GLU811  SER814 

> <Gold.Protein.RotatedAtoms>
  151.2669  133.4274  159.2618 H   0  0  0  0  0  0  0  0  0  0  0  0  # atno 6907 bound_to 6896
  151.0480  134.9654  159.8207 H   0  0  0  0  0  0  0  0  0  0  0  0  # atno 6908 bound_to 6896
  152.5377  134.2624  159.8993 H   0  0  0  0  0  0  0  0  0  0  0  0  # atno 6909 bound_to 6896
  145.2365  140.9190  143.3174 H   0  0  0  0  0  0  0  0  0  0  0  0  # atno 7974 bound_to 7965
  156.2072  140.3033  155.9652 H   0  0  0  0  0  0  0  0  0  0  0  0  # atno 8008 bound_to 7997
  155.2813  140.0438  157.3033 H   0  0  0  0  0  0  0  0  0  0  0  0  # atno 8009 bound_to 7997
  154.5649  140.2331  155.8287 H   0  0  0  0  0  0  0  0  0  0  0  0  # atno 8010 bound_to 7997
  139.7427  143.8638  152.2566 H   0  0  0  0  0  0  0  0  0  0  0  0  # atno 10167 bound_to 10162
  157.4340  131.1051  151.0218 H   0  0  0  0  0  0  0  0  0  0  0  0  # atno 10718 bound_to 10713
  153.8656  135.6836  153.4779 H   0  0  0  0  0  0  0  0  0  0  0  0  # atno 10763 bound_to 10752
  153.1317  135.4695  154.9356 H   0  0  0  0  0  0  0  0  0  0  0  0  # atno 10764 bound_to 10752
  154.7738  135.3247  154.8084 H   0  0  0  0  0  0  0  0  0  0  0  0  # atno 10765 bound_to 10752
  140.0659  134.9179  157.1263 H   0  0  0  0  0  0  0  0  0  0  0  0  # atno 11005 bound_to 11000
  144.9628  139.3962  143.6347 LP  0  0  0  0  0  0  0  0  0  0  0  0  # atno 17320 bound_to 7965
  146.3339  139.8689  142.8843 LP  0  0  0  0  0  0  0  0  0  0  0  0  # atno 17321 bound_to 7965
  139.8593  144.7125  150.9119 LP  0  0  0  0  0  0  0  0  0  0  0  0  # atno 17342 bound_to 10162
  140.7788  143.3831  151.1441 LP  0  0  0  0  0  0  0  0  0  0  0  0  # atno 17343 bound_to 10162
  157.1105  130.6019  149.5481 LP  0  0  0  0  0  0  0  0  0  0  0  0  # atno 17370 bound_to 10713
  155.9923  130.4981  150.7336 LP  0  0  0  0  0  0  0  0  0  0  0  0  # atno 17371 bound_to 10713
  140.3700  134.2401  155.7179 LP  0  0  0  0  0  0  0  0  0  0  0  0  # atno 17394 bound_to 11000
  141.1992  133.8016  157.0545 LP  0  0  0  0  0  0  0  0  0  0  0  0  # atno 17395 bound_to 11000

$$$$
