AV-unprocessed.smi:2191|AV-procd|sdf|8892|dock3
  -GOLD-   2272012 93D 1   1.00000     0.00000
 Structure written by MMmdl.
 36 38  0  0  0  0  0  0  0  0  1 V2000
  149.8677  143.6639  157.6965 O   0  0  0  0  0  0  0  0  0  0  0  0
  151.0753  143.0407  157.3040 C   0  0  2  0  0  0  0  0  0  0  0  0
  151.0374  141.5772  157.7709 C   0  0  0  0  0  0  0  0  0  0  0  0
  150.2576  140.8228  156.8527 O   0  0  0  0  0  0  0  0  0  0  0  0
  150.8878  139.8546  156.1004 C   0  0  0  0  0  0  0  0  0  0  0  0
  150.0863  139.1238  155.1989 C   0  0  0  0  0  0  0  0  0  0  0  0
  150.6459  138.1171  154.3888 C   0  0  0  0  0  0  0  0  0  0  0  0
  152.0206  137.8296  154.4734 C   0  0  0  0  0  0  0  0  0  0  0  0
  152.8324  138.5497  155.3695 C   0  0  0  0  0  0  0  0  0  0  0  0
  152.2724  139.5574  156.1792 C   0  0  0  0  0  0  0  0  0  0  0  0
  152.2620  143.8084  157.9188 C   0  0  0  0  0  0  0  0  0  0  0  0
  152.1853  143.8919  159.3669 N   0  0  0  0  0  0  0  0  0  0  0  0
  151.5590  144.8392  160.0909 C   0  0  0  0  0  0  0  0  0  0  0  0
  151.6131  144.7299  161.4153 N   0  0  0  0  0  0  0  0  0  0  0  0
  152.3637  143.5769  161.5696 C   0  0  0  0  0  0  0  0  0  0  0  0
  152.7872  142.9087  162.7409 C   0  0  0  0  0  0  0  0  0  0  0  0
  153.5599  141.7319  162.6522 C   0  0  0  0  0  0  0  0  0  0  0  0
  153.9183  141.2046  161.3944 C   0  0  0  0  0  0  0  0  0  0  0  0
  153.5062  141.8517  160.2136 C   0  0  0  0  0  0  0  0  0  0  0  0
  152.7381  143.0276  160.3061 C   0  0  0  0  0  0  0  0  0  0  0  0
  149.4776  144.0646  156.9344 H   0  0  0  0  0  0  0  0  0  0  0  0
  151.1557  143.0775  156.2168 H   0  0  0  0  0  0  0  0  0  0  0  0
  152.0507  141.1721  157.7741 H   0  0  0  0  0  0  0  0  0  0  0  0
  150.6462  141.5070  158.7877 H   0  0  0  0  0  0  0  0  0  0  0  0
  149.0299  139.3382  155.1277 H   0  0  0  0  0  0  0  0  0  0  0  0
  150.0199  137.5658  153.7029 H   0  0  0  0  0  0  0  0  0  0  0  0
  152.4517  137.0582  153.8524 H   0  0  0  0  0  0  0  0  0  0  0  0
  153.8875  138.3293  155.4362 H   0  0  0  0  0  0  0  0  0  0  0  0
  152.9277  140.0882  156.8529 H   0  0  0  0  0  0  0  0  0  0  0  0
  153.2054  143.3348  157.6444 H   0  0  0  0  0  0  0  0  0  0  0  0
  152.2986  144.8244  157.5231 H   0  0  0  0  0  0  0  0  0  0  0  0
  151.0326  145.6554  159.6179 H   0  0  0  0  0  0  0  0  0  0  0  0
  152.5181  143.3031  163.7095 H   0  0  0  0  0  0  0  0  0  0  0  0
  153.8790  141.2311  163.5545 H   0  0  0  0  0  0  0  0  0  0  0  0
  154.5090  140.3021  161.3362 H   0  0  0  0  0  0  0  0  0  0  0  0
  153.7760  141.4490  159.2488 H   0  0  0  0  0  0  0  0  0  0  0  0
  1  2  1  0  0  0  0
  1 21  1  0  0  0  0
  2  3  1  0  0  0  0
  2 11  1  0  0  0  0
  2 22  1  0  0  0  0
  3  4  1  0  0  0  0
  3 23  1  0  0  0  0
  3 24  1  0  0  0  0
  4  5  1  0  0  0  0
  5 10  1  0  0  0  0
  5  6  2  0  0  0  0
  6  7  1  0  0  0  0
  6 25  1  0  0  0  0
  7  8  2  0  0  0  0
  7 26  1  0  0  0  0
  8  9  1  0  0  0  0
  8 27  1  0  0  0  0
  9 10  2  0  0  0  0
  9 28  1  0  0  0  0
 10 29  1  0  0  0  0
 11 12  1  0  0  0  0
 11 30  1  0  0  0  0
 11 31  1  0  0  0  0
 12 20  1  0  0  0  0
 12 13  1  0  0  0  0
 13 14  2  0  0  0  0
 13 32  1  0  0  0  0
 14 15  1  0  0  0  0
 15 20  2  0  0  0  0
 15 16  1  0  0  0  0
 16 17  2  0  0  0  0
 16 33  1  0  0  0  0
 17 18  1  0  0  0  0
 17 34  1  0  0  0  0
 18 19  2  0  0  0  0
 18 35  1  0  0  0  0
 19 20  1  0  0  0  0
 19 36  1  0  0  0  0
M  END
> <s_m_source_file>
AV-unprocessed.smi

> <i_m_source_file_index>
2191

> <i_lp_mmshare_version>
43012

> <i_f3d_flags>
0

> <s_epik_input>
W2NIXTFbY0hdW2NIXVtjSF1jKGMxMiluKFtjSF1uMilbQ0gyXVtDQEhdKFtPSF0pW0NIMl1PYzNbY0hdW2NIXVtjSF1bY0hdW2NIXTM=

> <s_epik_cmdline>
J2VwaWtfcHl0aG9uJywgJy1waCcsICc3LjAnLCAnLXRuJywgJzgnLCAnLW1hJywgJzIwMCcsICctbWV0YWxfYmluZGluZycsICctaW1hZScsICc8aW5maWxlLm1hZT4nLCAnLW9tYWUnLCAnPG91dGZpbGUubWFlPic=

> <r_lp_tautomer_probability>
1

> <r_epik_Ionization_Penalty>
0.0640132

> <r_epik_Ionization_Penalty_Charging>
0

> <r_epik_Ionization_Penalty_Neutral>
0.0640132

> <r_epik_State_Penalty>
0.0557325

> <r_epik_Charging_Adjusted_Penalty>
0.0557325

> <i_epik_Tot_Q>
0

> <i_epik_Tot_abs_Q>
0

> <r_epik_Metal_State_Penalty>
5.8435e-05

> <b_epik_Metal_Only>
0

> <s_lp_Force_Field>
OPLS_2005

> <r_lp_Energy>
16.2786

> <b_lp_Chiralities_Consistent>
1

> <s_lp_Variant>
AV-unprocessed.smi:2191-1

> <Gold.Version>
5.8.1

> <Gold.Id.Protein>
6NUR|6NUR_protein|mol2

> <Gold.PLP.Fitness>
55.2846

> <Gold.PLP.PLP>
-54.1142

> <Gold.PLP.part.hbond>
-1.8069

> <Gold.PLP.part.metal>
0.0000

> <Gold.PLP.part.buried>
-4.8253

> <Gold.PLP.part.nonpolar>
-49.2776

> <Gold.PLP.part.repulsive>
1.2818

> <Gold.PLP.ligand.clash>
0.0000

> <Gold.PLP.ligand.torsion>
0.9278

> <Gold.PLP.Chemscore.Hbond>
1.0000

> <Gold.PLP.Chemscore.CHOScore>
0.0000

> <Gold.PLP.Chemscore.Metal>
0.0000

> <Gold.Chemscore.Hbonds>
donor molecule, donor type, donor heavy atom, donor atom, acceptor molecule, acceptor atom, score
      L1  H     1    21       P1  8028  1.00

> <Gold.PLP.Chemscore.Internal.Correction>
0.0261

> <Gold.Rescore>
     Score         DG    S(hbond)    S(metal)    S(lipo)     H(rot)  DE(clash)    DE(int)     intcor
     17.16     -18.48       0.82        0.00     136.29       2.22       0.45       0.86       ----

> <Gold.Chemscore.Fitness>
17.1641

> <Gold.Chemscore.DG>
-18.4801

> <Gold.Chemscore.ZeroCoef>
-5.4800

> <Gold.Chemscore.Hbond>
0.8197

> <Gold.Chemscore.Metal>
0.0000

> <Gold.Chemscore.Lipo>
136.2873

> <Gold.Chemscore.Internal_Hbond>
0.0000

> <Gold.Chemscore.DEClash>
0.4549

> <Gold.Chemscore.DEInternal>
0.8611

> <Gold.Chemscore.Rot>
2.2200

> <Gold.Chemscore.Internal.Correction>
   9.000000E+99

> <Gold.Chemscore.Hbonds>
donor molecule, donor type, donor heavy atom, donor atom, acceptor molecule, acceptor atom, score
      L1  H     1    21       P1  8028  0.61

> <Gold.Chemscore.Hbond.Weighted>
-2.7377

> <Gold.Chemscore.Metal.Weighted>
-0.0000

> <Gold.Chemscore.Lipo.Weighted>
-15.9456

> <Gold.Chemscore.Internal_Hbond.Weighted>
0.0000

> <Gold.Chemscore.DEClash.Weighted>
0.4549

> <Gold.Chemscore.DEInternal.Weighted>
0.8611

> <Gold.Chemscore.Rot.Weighted>
5.6832

> <Gold.Chemscore.Internal.Correction.Weighted>
   9.000000E+99

> <Gold.Protein.RotatedTorsions>
[ 6907 6896 6895 6894 ] final -141.97 input  -60.11 | X-H torsion
[ 7974 7965 7964 7962 ] final  102.33 input  175.53 | X-H torsion
[ 8008 7997 7996 7995 ] final  130.07 input   59.86 | X-H torsion
[ 10167 10162 10161 10158 ] final  172.03 input  -65.29 | X-H torsion
[ 10718 10713 10712 10709 ] final  -71.20 input   66.30 | X-H torsion
[ 10763 10752 10751 10750 ] final  -75.25 input  -60.55 | X-H torsion
[ 11005 11000 10999 10996 ] final   99.68 input  -57.11 | X-H torsion

> <Gold.Protein.ActiveResidues>
 VAL166  LYS551  ARG553  GLY616  TRP617  ASP618  TYR619  PRO620  LYS621  CYS622 
 ASP623  PHE694  ASN695  SER759  ASP760  ASP761  ALA762  ILE779  LEU786  VAL792 
 PHE793  MET794  SER795  GLU796  ALA797  LYS798  CYS799  TRP800  GLU811  SER814 

> <Gold.Protein.RotatedAtoms>
  151.0808  133.5391  159.2620 H   0  0  0  0  0  0  0  0  0  0  0  0  # atno 6907 bound_to 6896
  151.2295  135.0548  159.8992 H   0  0  0  0  0  0  0  0  0  0  0  0  # atno 6908 bound_to 6896
  152.5423  134.0599  159.8201 H   0  0  0  0  0  0  0  0  0  0  0  0  # atno 6909 bound_to 6896
  145.3605  139.2419  143.3509 H   0  0  0  0  0  0  0  0  0  0  0  0  # atno 7974 bound_to 7965
  156.2948  140.2605  156.2702 H   0  0  0  0  0  0  0  0  0  0  0  0  # atno 8008 bound_to 7997
  154.9702  140.0391  157.2249 H   0  0  0  0  0  0  0  0  0  0  0  0  # atno 8009 bound_to 7997
  154.7865  140.2804  155.6028 H   0  0  0  0  0  0  0  0  0  0  0  0  # atno 8010 bound_to 7997
  139.5064  144.3420  152.0009 H   0  0  0  0  0  0  0  0  0  0  0  0  # atno 10167 bound_to 10162
  156.0373  130.4346  150.2408 H   0  0  0  0  0  0  0  0  0  0  0  0  # atno 10718 bound_to 10713
  154.4840  135.5837  153.6410 H   0  0  0  0  0  0  0  0  0  0  0  0  # atno 10763 bound_to 10752
  152.9852  135.6097  154.3209 H   0  0  0  0  0  0  0  0  0  0  0  0  # atno 10764 bound_to 10752
  154.3103  135.2845  155.2548 H   0  0  0  0  0  0  0  0  0  0  0  0  # atno 10765 bound_to 10752
  139.8770  134.9106  156.4642 H   0  0  0  0  0  0  0  0  0  0  0  0  # atno 11005 bound_to 11000
  146.2929  140.4238  142.8732 LP  0  0  0  0  0  0  0  0  0  0  0  0  # atno 17320 bound_to 7965
  144.8650  140.7193  143.6083 LP  0  0  0  0  0  0  0  0  0  0  0  0  # atno 17321 bound_to 7965
  140.2857  144.3809  150.6104 LP  0  0  0  0  0  0  0  0  0  0  0  0  # atno 17342 bound_to 10162
  140.5984  143.2167  151.7119 LP  0  0  0  0  0  0  0  0  0  0  0  0  # atno 17343 bound_to 10162
  157.0506  131.0061  151.3255 LP  0  0  0  0  0  0  0  0  0  0  0  0  # atno 17370 bound_to 10713
  157.5143  130.7958  149.7739 LP  0  0  0  0  0  0  0  0  0  0  0  0  # atno 17371 bound_to 10713
  140.8842  133.7895  155.9500 LP  0  0  0  0  0  0  0  0  0  0  0  0  # atno 17394 bound_to 11000
  140.8822  134.2597  157.5138 LP  0  0  0  0  0  0  0  0  0  0  0  0  # atno 17395 bound_to 11000

$$$$
