AV-unprocessed.smi:1205|AV-procd|sdf|5041|dock6
  -GOLD-   22720 4 63D 1   1.00000     0.00000
 Structure written by MMmdl.
 49 50  0  0  0  0  0  0  0  0  2 V2000
  146.1352  129.8601  151.7198 C   0  0  0  0  0  0  0  0  0  0  0  0
  146.0112  131.3550  151.7076 C   0  0  0  0  0  0  0  0  0  0  0  0
  146.7950  132.3065  152.4229 C   0  0  0  0  0  0  0  0  0  0  0  0
  146.2463  133.4993  152.0378 C   0  0  0  0  0  0  0  0  0  0  0  0
  146.5914  134.7600  152.4126 N   0  0  0  0  0  0  0  0  0  0  0  0
  145.8244  135.7044  152.9847 C   0  0  0  0  0  0  0  0  0  0  0  0
  144.6375  135.5771  153.2863 O   0  0  0  0  0  0  0  0  0  0  0  0
  146.5167  136.8335  153.1932 N   0  0  0  0  0  0  0  0  0  0  0  0
  145.9697  138.0453  153.7960 C   0  0  0  0  0  0  0  0  0  0  0  0
  146.8043  139.3052  153.4653 C   0  0  2  0  0  0  0  0  0  0  0  0
  148.3157  139.1001  153.7057 C   0  0  0  0  0  0  0  0  0  0  0  0
  146.2579  140.4996  154.1733 N   0  3  2  0  0  0  0  0  0  0  0  0
  146.9538  141.7663  153.8249 C   0  0  0  0  0  0  0  0  0  0  0  0
  146.1761  142.9799  154.3580 C   0  0  0  0  0  0  0  0  0  0  0  0
  145.9441  142.8675  155.8720 C   0  0  0  0  0  0  0  0  0  0  0  0
  145.2879  141.5237  156.2429 C   0  0  1  0  0  0  0  0  0  0  0  0
  143.7979  141.4622  155.8638 C   0  0  0  0  0  0  0  0  0  0  0  0
  146.0899  140.3494  155.6459 C   0  0  0  0  0  0  0  0  0  0  0  0
  145.2145  133.2514  151.1601 N   0  0  0  0  0  0  0  0  0  0  0  0
  144.3342  134.1854  150.4857 C   0  0  0  0  0  0  0  0  0  0  0  0
  145.0729  131.9234  150.9586 N   0  0  0  0  0  0  0  0  0  0  0  0
  146.9328  129.5369  152.3891 H   0  0  0  0  0  0  0  0  0  0  0  0
  146.3611  129.4764  150.7246 H   0  0  0  0  0  0  0  0  0  0  0  0
  145.2099  129.3921  152.0570 H   0  0  0  0  0  0  0  0  0  0  0  0
  147.6152  132.1214  153.0998 H   0  0  0  0  0  0  0  0  0  0  0  0
  147.5527  135.0119  152.2359 H   0  0  0  0  0  0  0  0  0  0  0  0
  147.4885  136.8563  152.9197 H   0  0  0  0  0  0  0  0  0  0  0  0
  144.9361  138.1783  153.4714 H   0  0  0  0  0  0  0  0  0  0  0  0
  145.9330  137.8785  154.8720 H   0  0  0  0  0  0  0  0  0  0  0  0
  146.6727  139.4902  152.3984 H   0  0  0  0  0  0  0  0  0  0  0  0
  148.7125  138.3132  153.0638 H   0  0  0  0  0  0  0  0  0  0  0  0
  148.5276  138.8126  154.7355 H   0  0  0  0  0  0  0  0  0  0  0  0
  148.8843  140.0035  153.4853 H   0  0  0  0  0  0  0  0  0  0  0  0
  147.9650  141.7603  154.2338 H   0  0  0  0  0  0  0  0  0  0  0  0
  147.0494  141.8571  152.7423 H   0  0  0  0  0  0  0  0  0  0  0  0
  146.7215  143.8972  154.1344 H   0  0  0  0  0  0  0  0  0  0  0  0
  145.2200  143.0604  153.8394 H   0  0  0  0  0  0  0  0  0  0  0  0
  146.9034  142.9511  156.3846 H   0  0  0  0  0  0  0  0  0  0  0  0
  145.3366  143.7015  156.2256 H   0  0  0  0  0  0  0  0  0  0  0  0
  145.3318  141.4310  157.3289 H   0  0  0  0  0  0  0  0  0  0  0  0
  143.6481  141.5217  154.7858 H   0  0  0  0  0  0  0  0  0  0  0  0
  143.2435  142.2824  156.3210 H   0  0  0  0  0  0  0  0  0  0  0  0
  143.3455  140.5315  156.2073 H   0  0  0  0  0  0  0  0  0  0  0  0
  145.5896  139.4116  155.8852 H   0  0  0  0  0  0  0  0  0  0  0  0
  147.0709  140.3084  156.1213 H   0  0  0  0  0  0  0  0  0  0  0  0
  144.9274  134.9290  149.9524 H   0  0  0  0  0  0  0  0  0  0  0  0
  143.7054  134.6894  151.2201 H   0  0  0  0  0  0  0  0  0  0  0  0
  143.6965  133.6644  149.7700 H   0  0  0  0  0  0  0  0  0  0  0  0
  145.3245  140.6103  153.8035 H   0  0  0  0  0  0  0  0  0  0  0  0
  1  2  1  0  0  0  0
  1 22  1  0  0  0  0
  1 23  1  0  0  0  0
  1 24  1  0  0  0  0
  2 21  2  0  0  0  0
  2  3  1  0  0  0  0
  3  4  2  0  0  0  0
  3 25  1  0  0  0  0
  4  5  1  0  0  0  0
  4 19  1  0  0  0  0
  5  6  1  0  0  0  0
  5 26  1  0  0  0  0
  6  7  2  0  0  0  0
  6  8  1  0  0  0  0
  8  9  1  0  0  0  0
  8 27  1  0  0  0  0
  9 10  1  0  0  0  0
  9 28  1  0  0  0  0
  9 29  1  0  0  0  0
 10 11  1  0  0  0  0
 10 12  1  0  0  0  0
 10 30  1  0  0  0  0
 11 31  1  0  0  0  0
 11 32  1  0  0  0  0
 11 33  1  0  0  0  0
 12 18  1  0  0  0  0
 12 13  1  0  0  0  0
 12 49  1  0  0  0  0
 13 14  1  0  0  0  0
 13 34  1  0  0  0  0
 13 35  1  0  0  0  0
 14 15  1  0  0  0  0
 14 36  1  0  0  0  0
 14 37  1  0  0  0  0
 15 16  1  0  0  0  0
 15 38  1  0  0  0  0
 15 39  1  0  0  0  0
 16 17  1  0  0  0  0
 16 18  1  0  0  0  0
 16 40  1  0  0  0  0
 17 41  1  0  0  0  0
 17 42  1  0  0  0  0
 17 43  1  0  0  0  0
 18 44  1  0  0  0  0
 18 45  1  0  0  0  0
 19 20  1  0  0  0  0
 19 21  1  0  0  0  0
 20 46  1  0  0  0  0
 20 47  1  0  0  0  0
 20 48  1  0  0  0  0
M  CHG  1  12   1
M  END
> <s_m_source_file>
AV-unprocessed.smi

> <i_m_source_file_index>
1205

> <i_lp_mmshare_version>
43012

> <i_f3d_flags>
0

> <s_epik_input>
W0NIM11jMVtjSF1jKG4objEpW0NIM10pW05IXUMoPU8pW05IXVtDSDJdW0NASF0oW0NIM10pTjJbQ0gyXVtDSDJdW0NIMl1bQ0BASF0oW0NIM10pW0NIMl0y

> <s_epik_cmdline>
J2VwaWtfcHl0aG9uJywgJy1waCcsICc3LjAnLCAnLXRuJywgJzgnLCAnLW1hJywgJzIwMCcsICctbWV0YWxfYmluZGluZycsICctaW1hZScsICc8aW5maWxlLm1hZT4nLCAnLW9tYWUnLCAnPG91dGZpbGUubWFlPic=

> <r_lp_tautomer_probability>
1

> <r_epik_Ionization_Penalty>
0.0020309

> <r_epik_Ionization_Penalty_Charging>
0.00195276

> <r_epik_Ionization_Penalty_Neutral>
7.81448e-05

> <r_epik_State_Penalty>
0.00133177

> <r_epik_Charging_Adjusted_Penalty>
0.00328452

> <i_epik_Tot_Q>
1

> <i_epik_Tot_abs_Q>
1

> <r_epik_Metal_State_Penalty>
-0

> <b_epik_Metal_Only>
0

> <s_lp_Force_Field>
OPLS_2005

> <r_lp_Energy>
24.2768

> <b_lp_Chiralities_Consistent>
1

> <s_lp_Variant>
AV-unprocessed.smi:1205-3

> <Gold.Version>
5.8.1

> <Gold.Id.Protein>
6NUR|6NUR_protein|mol2

> <Gold.PLP.Fitness>
42.6062

> <Gold.PLP.PLP>
-32.0318

> <Gold.PLP.part.hbond>
-3.0000

> <Gold.PLP.part.metal>
0.0000

> <Gold.PLP.part.buried>
-4.4675

> <Gold.PLP.part.nonpolar>
-25.0315

> <Gold.PLP.part.repulsive>
0.1861

> <Gold.PLP.ligand.clash>
0.0000

> <Gold.PLP.ligand.torsion>
0.7756

> <Gold.PLP.Chemscore.Hbond>
4.0000

> <Gold.PLP.Chemscore.CHOScore>
0.0000

> <Gold.PLP.Chemscore.Metal>
0.0000

> <Gold.Chemscore.Hbonds>
donor molecule, donor type, donor heavy atom, donor atom, acceptor molecule, acceptor atom, score
      L1  H     5    26       P1  7948  1.00
      L1  H     8    27       P1  7948  1.00
      L1  H    12    49       P1 10175  1.59

> <Gold.PLP.Chemscore.Internal.Correction>
0.1256

> <Gold.Rescore>
     Score         DG    S(hbond)    S(metal)    S(lipo)     H(rot)  DE(clash)    DE(int)     intcor
     18.01     -18.79       2.82        0.00      65.23       1.47       0.05       0.73       ----

> <Gold.Chemscore.Fitness>
18.0092

> <Gold.Chemscore.DG>
-18.7914

> <Gold.Chemscore.ZeroCoef>
-5.4800

> <Gold.Chemscore.Hbond>
2.8241

> <Gold.Chemscore.Metal>
0.0000

> <Gold.Chemscore.Lipo>
65.2252

> <Gold.Chemscore.Internal_Hbond>
0.0000

> <Gold.Chemscore.DEClash>
0.0519

> <Gold.Chemscore.DEInternal>
0.7304

> <Gold.Chemscore.Rot>
1.4658

> <Gold.Chemscore.Internal.Correction>
   9.000000E+99

> <Gold.Chemscore.Hbonds>
donor molecule, donor type, donor heavy atom, donor atom, acceptor molecule, acceptor atom, score
      L1  H     5    26       P1  7948  0.94
      L1  H     8    27       P1  7948  0.95
      L1  H    12    49       P1 10175  0.77

> <Gold.Chemscore.Hbond.Weighted>
-9.4326

> <Gold.Chemscore.Metal.Weighted>
-0.0000

> <Gold.Chemscore.Lipo.Weighted>
-7.6313

> <Gold.Chemscore.Internal_Hbond.Weighted>
0.0000

> <Gold.Chemscore.DEClash.Weighted>
0.0519

> <Gold.Chemscore.DEInternal.Weighted>
0.7304

> <Gold.Chemscore.Rot.Weighted>
3.7526

> <Gold.Chemscore.Internal.Correction.Weighted>
   9.000000E+99

> <Gold.Protein.RotatedTorsions>
[ 6907 6896 6895 6894 ] final -123.89 input  -60.11 | X-H torsion
[ 7974 7965 7964 7962 ] final -107.07 input  175.53 | X-H torsion
[ 8008 7997 7996 7995 ] final   65.00 input   59.86 | X-H torsion
[ 10167 10162 10161 10158 ] final -132.76 input  -65.29 | X-H torsion
[ 10718 10713 10712 10709 ] final -136.15 input   66.30 | X-H torsion
[ 10763 10752 10751 10750 ] final  -87.37 input  -60.55 | X-H torsion
[ 11005 11000 10999 10996 ] final   -6.12 input  -57.11 | X-H torsion

> <Gold.Protein.ActiveResidues>
 VAL166  LYS551  ARG553  GLY616  TRP617  ASP618  TYR619  PRO620  LYS621  CYS622 
 ASP623  PHE694  ASN695  SER759  ASP760  ASP761  ALA762  ILE779  LEU786  VAL792 
 PHE793  MET794  SER795  GLU796  ALA797  LYS798  CYS799  TRP800  GLU811  SER814 

> <Gold.Protein.RotatedAtoms>
  150.8714  133.7500  159.2959 H   0  0  0  0  0  0  0  0  0  0  0  0  # atno 6907 bound_to 6896
  151.5110  135.1063  159.9863 H   0  0  0  0  0  0  0  0  0  0  0  0  # atno 6908 bound_to 6896
  152.4698  133.7959  159.6982 H   0  0  0  0  0  0  0  0  0  0  0  0  # atno 6909 bound_to 6896
  145.2099  140.9092  143.3320 H   0  0  0  0  0  0  0  0  0  0  0  0  # atno 7974 bound_to 7965
  155.6549  140.3497  155.4761 H   0  0  0  0  0  0  0  0  0  0  0  0  # atno 8008 bound_to 7997
  155.9817  140.1176  157.0743 H   0  0  0  0  0  0  0  0  0  0  0  0  # atno 8009 bound_to 7997
  154.4193  140.1137  156.5431 H   0  0  0  0  0  0  0  0  0  0  0  0  # atno 8010 bound_to 7997
  139.9052  143.6560  152.2587 H   0  0  0  0  0  0  0  0  0  0  0  0  # atno 10167 bound_to 10162
  156.2739  130.7282  151.1258 H   0  0  0  0  0  0  0  0  0  0  0  0  # atno 10718 bound_to 10713
  154.6329  135.5415  153.7700 H   0  0  0  0  0  0  0  0  0  0  0  0  # atno 10763 bound_to 10752
  153.0293  135.6440  154.1275 H   0  0  0  0  0  0  0  0  0  0  0  0  # atno 10764 bound_to 10752
  154.1204  135.2921  155.3190 H   0  0  0  0  0  0  0  0  0  0  0  0  # atno 10765 bound_to 10752
  140.6986  133.9009  155.8667 H   0  0  0  0  0  0  0  0  0  0  0  0  # atno 11005 bound_to 11000
  144.9866  139.3730  143.6235 LP  0  0  0  0  0  0  0  0  0  0  0  0  # atno 17320 bound_to 7965
  146.3400  139.9030  142.8791 LP  0  0  0  0  0  0  0  0  0  0  0  0  # atno 17321 bound_to 7965
  139.6990  144.7637  151.1305 LP  0  0  0  0  0  0  0  0  0  0  0  0  # atno 17342 bound_to 10162
  140.7698  143.5483  150.9233 LP  0  0  0  0  0  0  0  0  0  0  0  0  # atno 17343 bound_to 10162
  157.7293  131.0625  150.5780 LP  0  0  0  0  0  0  0  0  0  0  0  0  # atno 17370 bound_to 10713
  156.5880  130.4321  149.5949 LP  0  0  0  0  0  0  0  0  0  0  0  0  # atno 17371 bound_to 10713
  141.0183  134.0925  157.4148 LP  0  0  0  0  0  0  0  0  0  0  0  0  # atno 17394 bound_to 11000
  139.8903  135.0111  156.6729 LP  0  0  0  0  0  0  0  0  0  0  0  0  # atno 17395 bound_to 11000

$$$$
