AV-unprocessed.smi:265|AV-procd|sdf|2027|dock7
  -GOLD-   2262021233D 1   1.00000     0.00000
 Structure written by MMmdl.
 52 56  0  0  0  0  0  0  0  0  1 V2000
  147.9147  128.5297  152.0379 C   0  0  0  0  0  0  0  0  0  0  0  0
  146.8021  129.4805  152.5044 C   0  0  2  0  0  0  0  0  0  0  0  0
  146.2434  130.1875  151.4004 O   0  0  0  0  0  0  0  0  0  0  0  0
  145.8477  131.4960  151.8040 C   0  0  0  0  0  0  0  0  0  0  0  0
  146.0523  131.5437  153.3157 C   0  0  0  0  0  0  0  0  0  0  0  0
  147.1990  130.5620  153.5270 C   0  0  1  0  0  0  0  0  0  0  0  0
  147.1266  130.0443  154.8424 O   0  0  0  0  0  0  0  0  0  0  0  0
  148.6052  131.1761  153.2871 C   0  0  0  0  0  0  0  0  0  0  0  0
  148.8919  132.3318  154.1221 N   0  0  0  0  0  0  0  0  0  0  0  0
  148.3858  133.6030  153.9727 C   0  0  0  0  0  0  0  0  0  0  0  0
  148.7973  134.4730  154.8540 N   0  0  0  0  0  0  0  0  0  0  0  0
  149.6429  133.7443  155.6825 C   0  0  0  0  0  0  0  0  0  0  0  0
  150.4254  134.0632  156.8283 C   0  0  0  0  0  0  0  0  0  0  0  0
  150.4505  135.3041  157.3777 N   0  0  0  0  0  0  0  0  0  0  0  0
  149.3121  136.1902  157.1100 C   0  0  0  0  0  0  0  0  0  0  0  0
  149.3103  137.4038  158.0592 C   0  0  0  0  0  0  0  0  0  0  0  0
  150.6661  138.1189  157.9970 C   0  0  1  0  0  0  0  0  0  0  0  0
  150.7501  139.1848  158.9310 O   0  0  0  0  0  0  0  0  0  0  0  0
  151.9384  139.9713  158.7894 C   0  0  0  0  0  0  0  0  0  0  0  0
  153.2139  139.1112  158.6595 C   0  0  0  0  0  0  0  0  0  0  0  0
  154.3194  139.6363  158.7688 O   0  0  0  0  0  0  0  0  0  0  0  0
  153.0728  137.8038  158.3858 N   0  0  0  0  0  0  0  0  0  0  0  0
  151.7827  137.1277  158.3595 C   0  0  2  0  0  0  0  0  0  0  0  0
  151.7688  135.9430  157.3813 C   0  0  0  0  0  0  0  0  0  0  0  0
  151.1663  133.0628  157.3765 N   0  0  0  0  0  0  0  0  0  0  0  0
  151.1365  131.8341  156.8519 C   0  0  0  0  0  0  0  0  0  0  0  0
  150.4495  131.3941  155.7964 N   0  0  0  0  0  0  0  0  0  0  0  0
  149.7129  132.3947  155.2344 C   0  0  0  0  0  0  0  0  0  0  0  0
  150.8105  138.5105  156.9876 H   0  0  0  0  0  0  0  0  0  0  0  0
  151.6084  136.7464  159.3674 H   0  0  0  0  0  0  0  0  0  0  0  0
  148.3672  128.0113  152.8835 H   0  0  0  0  0  0  0  0  0  0  0  0
  148.7034  129.0595  151.5038 H   0  0  0  0  0  0  0  0  0  0  0  0
  147.5155  127.7734  151.3620 H   0  0  0  0  0  0  0  0  0  0  0  0
  145.9895  128.8827  152.9223 H   0  0  0  0  0  0  0  0  0  0  0  0
  146.4885  132.2241  151.3057 H   0  0  0  0  0  0  0  0  0  0  0  0
  144.8160  131.7039  151.5200 H   0  0  0  0  0  0  0  0  0  0  0  0
  146.2332  132.5493  153.6934 H   0  0  0  0  0  0  0  0  0  0  0  0
  145.1474  131.1763  153.8034 H   0  0  0  0  0  0  0  0  0  0  0  0
  147.0833  129.1018  154.7916 H   0  0  0  0  0  0  0  0  0  0  0  0
  149.3816  130.4327  153.4718 H   0  0  0  0  0  0  0  0  0  0  0  0
  148.7159  131.4752  152.2441 H   0  0  0  0  0  0  0  0  0  0  0  0
  147.7007  133.8678  153.1804 H   0  0  0  0  0  0  0  0  0  0  0  0
  149.3603  136.5313  156.0749 H   0  0  0  0  0  0  0  0  0  0  0  0
  148.3767  135.6410  157.2252 H   0  0  0  0  0  0  0  0  0  0  0  0
  148.5079  138.0910  157.7902 H   0  0  0  0  0  0  0  0  0  0  0  0
  149.1118  137.0733  159.0795 H   0  0  0  0  0  0  0  0  0  0  0  0
  151.8494  140.5995  157.9021 H   0  0  0  0  0  0  0  0  0  0  0  0
  152.0282  140.6368  159.6482 H   0  0  0  0  0  0  0  0  0  0  0  0
  153.9020  137.2395  158.2690 H   0  0  0  0  0  0  0  0  0  0  0  0
  152.5531  135.2385  157.6555 H   0  0  0  0  0  0  0  0  0  0  0  0
  151.9954  136.2861  156.3707 H   0  0  0  0  0  0  0  0  0  0  0  0
  151.7499  131.0977  157.3499 H   0  0  0  0  0  0  0  0  0  0  0  0
  1  2  1  0  0  0  0
  1 31  1  0  0  0  0
  1 32  1  0  0  0  0
  1 33  1  0  0  0  0
  2  6  1  0  0  0  0
  2  3  1  0  0  0  0
  2 34  1  0  0  0  0
  3  4  1  0  0  0  0
  4  5  1  0  0  0  0
  4 35  1  0  0  0  0
  4 36  1  0  0  0  0
  5  6  1  0  0  0  0
  5 37  1  0  0  0  0
  5 38  1  0  0  0  0
  6  7  1  0  0  0  0
  6  8  1  0  0  0  0
  7 39  1  0  0  0  0
  8  9  1  0  0  0  0
  8 40  1  0  0  0  0
  8 41  1  0  0  0  0
  9 28  1  0  0  0  0
  9 10  1  0  0  0  0
 10 11  2  0  0  0  0
 10 42  1  0  0  0  0
 11 12  1  0  0  0  0
 12 28  2  0  0  0  0
 12 13  1  0  0  0  0
 13 14  1  0  0  0  0
 13 25  2  0  0  0  0
 14 24  1  0  0  0  0
 14 15  1  0  0  0  0
 15 16  1  0  0  0  0
 15 43  1  0  0  0  0
 15 44  1  0  0  0  0
 16 17  1  0  0  0  0
 16 45  1  0  0  0  0
 16 46  1  0  0  0  0
 17 29  1  0  0  0  0
 17 23  1  0  0  0  0
 17 18  1  0  0  0  0
 18 19  1  0  0  0  0
 19 20  1  0  0  0  0
 19 47  1  0  0  0  0
 19 48  1  0  0  0  0
 20 21  2  0  0  0  0
 20 22  1  0  0  0  0
 22 23  1  0  0  0  0
 22 49  1  0  0  0  0
 23 30  1  0  0  0  0
 23 24  1  0  0  0  0
 24 50  1  0  0  0  0
 24 51  1  0  0  0  0
 25 26  1  0  0  0  0
 26 27  2  0  0  0  0
 26 52  1  0  0  0  0
 27 28  1  0  0  0  0
M  END
> <s_m_source_file>
AV-unprocessed.smi

> <i_m_source_file_index>
265

> <i_lp_mmshare_version>
43012

> <i_f3d_flags>
0

> <s_epik_input>
W0NIMl0xW0NIMl1PW0NAQEhdKFtDSDNdKVtDQEBdMShbT0hdKVtDSDJdbihbY0hdbjIpYyhjMjMpbltjSF1uYzNOKFtDSDJdW0NIMl00KVtDSDJdW0NAQEhdKFtDQEhdNDUpW05IXUMoPU8pW0NIMl1PNQ==

> <s_epik_cmdline>
J2VwaWtfcHl0aG9uJywgJy1waCcsICc3LjAnLCAnLXRuJywgJzgnLCAnLW1hJywgJzIwMCcsICctbWV0YWxfYmluZGluZycsICctaW1hZScsICc8aW5maWxlLm1hZT4nLCAnLW9tYWUnLCAnPG91dGZpbGUubWFlPic=

> <r_lp_tautomer_probability>
1

> <r_epik_Ionization_Penalty>
0.00221504

> <r_epik_Ionization_Penalty_Charging>
0

> <r_epik_Ionization_Penalty_Neutral>
0.00221504

> <r_epik_State_Penalty>
-0

> <r_epik_Charging_Adjusted_Penalty>
0

> <i_epik_Tot_Q>
0

> <i_epik_Tot_abs_Q>
0

> <r_epik_Metal_State_Penalty>
-0

> <b_epik_Metal_Only>
0

> <s_lp_Force_Field>
OPLS_2005

> <r_lp_Energy>
44.3077

> <b_lp_Chiralities_Consistent>
1

> <s_lp_Variant>
AV-unprocessed.smi:265-13

> <Gold.Version>
5.8.1

> <Gold.Id.Protein>
6NUR|6NUR_protein|mol2

> <Gold.PLP.Fitness>
36.4793

> <Gold.PLP.PLP>
-31.5215

> <Gold.PLP.part.hbond>
-3.0094

> <Gold.PLP.part.metal>
0.0000

> <Gold.PLP.part.buried>
-1.1199

> <Gold.PLP.part.nonpolar>
-27.5273

> <Gold.PLP.part.repulsive>
0.6784

> <Gold.PLP.ligand.clash>
0.0000

> <Gold.PLP.ligand.torsion>
0.5338

> <Gold.PLP.Chemscore.Hbond>
1.8640

> <Gold.PLP.Chemscore.CHOScore>
0.0000

> <Gold.PLP.Chemscore.Metal>
0.0000

> <Gold.Chemscore.Hbonds>
donor molecule, donor type, donor heavy atom, donor atom, acceptor molecule, acceptor atom, score
      P1  H  6896  6908       L1    25  0.88
      P1  H  7997  8010       L1    21  1.00

> <Gold.PLP.Chemscore.Internal.Correction>
0.4333

> <Gold.Rescore>
     Score         DG    S(hbond)    S(metal)    S(lipo)     H(rot)  DE(clash)    DE(int)     intcor
     10.39     -12.40       1.63        0.00      61.79       2.25       0.16       1.84       ----

> <Gold.Chemscore.Fitness>
10.3925

> <Gold.Chemscore.DG>
-12.3952

> <Gold.Chemscore.ZeroCoef>
-5.4800

> <Gold.Chemscore.Hbond>
1.6268

> <Gold.Chemscore.Metal>
0.0000

> <Gold.Chemscore.Lipo>
61.7904

> <Gold.Chemscore.Internal_Hbond>
0.0000

> <Gold.Chemscore.DEClash>
0.1595

> <Gold.Chemscore.DEInternal>
1.8431

> <Gold.Chemscore.Rot>
2.2453

> <Gold.Chemscore.Internal.Correction>
   9.000000E+99

> <Gold.Chemscore.Hbonds>
donor molecule, donor type, donor heavy atom, donor atom, acceptor molecule, acceptor atom, score
      P1  H  6896  6908       L1    25  0.64
      P1  H  7997  8010       L1    21  0.43

> <Gold.Chemscore.Hbond.Weighted>
-5.4336

> <Gold.Chemscore.Metal.Weighted>
-0.0000

> <Gold.Chemscore.Lipo.Weighted>
-7.2295

> <Gold.Chemscore.Internal_Hbond.Weighted>
0.0000

> <Gold.Chemscore.DEClash.Weighted>
0.1595

> <Gold.Chemscore.DEInternal.Weighted>
1.8431

> <Gold.Chemscore.Rot.Weighted>
5.7479

> <Gold.Chemscore.Internal.Correction.Weighted>
   9.000000E+99

> <Gold.Protein.RotatedTorsions>
[ 6907 6896 6895 6894 ] final   77.28 input  -60.11 | X-H torsion
[ 7974 7965 7964 7962 ] final  112.68 input  175.53 | X-H torsion
[ 8008 7997 7996 7995 ] final   24.23 input   59.86 | X-H torsion
[ 10167 10162 10161 10158 ] final   40.55 input  -65.29 | X-H torsion
[ 10718 10713 10712 10709 ] final   79.29 input   66.30 | X-H torsion
[ 10763 10752 10751 10750 ] final -169.95 input  -60.55 | X-H torsion
[ 11005 11000 10999 10996 ] final  131.51 input  -57.11 | X-H torsion

> <Gold.Protein.ActiveResidues>
 VAL166  LYS551  ARG553  GLY616  TRP617  ASP618  TYR619  PRO620  LYS621  CYS622 
 ASP623  PHE694  ASN695  SER759  ASP760  ASP761  ALA762  ILE779  LEU786  VAL792 
 PHE793  MET794  SER795  GLU796  ALA797  LYS798  CYS799  TRP800  GLU811  SER814 

> <Gold.Protein.RotatedAtoms>
  152.5110  134.3841  159.9361 H   0  0  0  0  0  0  0  0  0  0  0  0  # atno 6907 bound_to 6896
  151.3799  133.3819  159.2716 H   0  0  0  0  0  0  0  0  0  0  0  0  # atno 6908 bound_to 6896
  150.9513  134.8932  159.7732 H   0  0  0  0  0  0  0  0  0  0  0  0  # atno 6909 bound_to 6896
  145.2265  139.2838  143.4191 H   0  0  0  0  0  0  0  0  0  0  0  0  # atno 7974 bound_to 7965
  154.9931  140.3116  155.4898 H   0  0  0  0  0  0  0  0  0  0  0  0  # atno 8008 bound_to 7997
  156.2936  140.2245  156.4977 H   0  0  0  0  0  0  0  0  0  0  0  0  # atno 8009 bound_to 7997
  154.7685  140.0454  157.1020 H   0  0  0  0  0  0  0  0  0  0  0  0  # atno 8010 bound_to 7997
  140.3731  144.2079  150.6132 H   0  0  0  0  0  0  0  0  0  0  0  0  # atno 10167 bound_to 10162
  157.6772  130.9907  150.1911 H   0  0  0  0  0  0  0  0  0  0  0  0  # atno 10718 bound_to 10713
  154.6468  135.2906  155.0036 H   0  0  0  0  0  0  0  0  0  0  0  0  # atno 10763 bound_to 10752
  154.1143  135.6558  153.4895 H   0  0  0  0  0  0  0  0  0  0  0  0  # atno 10764 bound_to 10752
  153.0355  135.5272  154.7359 H   0  0  0  0  0  0  0  0  0  0  0  0  # atno 10765 bound_to 10752
  139.9734  134.9570  156.9448 H   0  0  0  0  0  0  0  0  0  0  0  0  # atno 11005 bound_to 11000
  146.3363  140.2587  142.8601 LP  0  0  0  0  0  0  0  0  0  0  0  0  # atno 17320 bound_to 7965
  144.9717  140.8374  143.5451 LP  0  0  0  0  0  0  0  0  0  0  0  0  # atno 17321 bound_to 7965
  140.5013  143.2317  151.8674 LP  0  0  0  0  0  0  0  0  0  0  0  0  # atno 17342 bound_to 10162
  139.4802  144.5056  151.9002 LP  0  0  0  0  0  0  0  0  0  0  0  0  # atno 17343 bound_to 10162
  156.2622  130.3712  149.8118 LP  0  0  0  0  0  0  0  0  0  0  0  0  # atno 17370 bound_to 10713
  156.5860  130.8486  151.3395 LP  0  0  0  0  0  0  0  0  0  0  0  0  # atno 17371 bound_to 10713
  140.5245  134.0875  155.7300 LP  0  0  0  0  0  0  0  0  0  0  0  0  # atno 17394 bound_to 11000
  141.1413  133.9133  157.2319 LP  0  0  0  0  0  0  0  0  0  0  0  0  # atno 17395 bound_to 11000

$$$$
