AV-unprocessed.smi:3129|AV-procd|sdf|11922|dock5
  -GOLD-   2272017303D 1   1.00000     0.00000
 Structure written by MMmdl.
 40 40  0  0  0  0  0  0  0  0  2 V2000
  145.0305  135.2878  150.8332 C   0  0  0  0  0  0  0  0  0  0  0  0
  144.5131  135.1917  152.2752 C   0  0  0  0  0  0  0  0  0  0  0  0
  143.2572  136.0605  152.4625 C   0  0  0  0  0  0  0  0  0  0  0  0
  145.6330  135.5387  153.2819 C   0  0  0  0  0  0  0  0  0  0  0  0
  146.3767  136.7407  152.9164 N   0  0  0  0  0  0  0  0  0  0  0  0
  146.1333  137.9717  153.3905 C   0  0  0  0  0  0  0  0  0  0  0  0
  145.2564  138.2161  154.2201 O   0  0  0  0  0  0  0  0  0  0  0  0
  147.0057  139.1079  152.8415 C   0  0  2  0  0  0  0  0  0  0  0  0
  146.8006  139.2485  151.3257 C   0  0  0  0  0  0  0  0  0  0  0  0
  148.4302  138.8426  153.1357 N   0  3  0  0  0  0  0  0  0  0  0  0
  148.8517  139.1683  154.5163 C   0  0  0  0  0  0  0  0  0  0  0  0
  150.1208  140.0345  154.5206 C   0  0  0  0  0  0  0  0  0  0  0  0
  150.3741  140.6151  155.8278 N   0  0  0  0  0  0  0  0  0  0  0  0
  150.3552  141.9437  156.1968 C   0  0  0  0  0  0  0  0  0  0  0  0
  150.6636  142.0005  157.5255 C   0  0  0  0  0  0  0  0  0  0  0  0
  150.8482  140.6375  157.8890 C   0  0  0  0  0  0  0  0  0  0  0  0
  150.6706  139.8108  156.8715 N   0  0  0  0  0  0  0  0  0  0  0  0
  145.3373  136.3051  150.5882 H   0  0  0  0  0  0  0  0  0  0  0  0
  144.2618  134.9906  150.1193 H   0  0  0  0  0  0  0  0  0  0  0  0
  145.8902  134.6347  150.6797 H   0  0  0  0  0  0  0  0  0  0  0  0
  144.2200  134.1541  152.4369 H   0  0  0  0  0  0  0  0  0  0  0  0
  143.4852  137.1190  152.3342 H   0  0  0  0  0  0  0  0  0  0  0  0
  142.8214  135.9300  153.4530 H   0  0  0  0  0  0  0  0  0  0  0  0
  142.4876  135.7957  151.7371 H   0  0  0  0  0  0  0  0  0  0  0  0
  145.2176  135.6627  154.2835 H   0  0  0  0  0  0  0  0  0  0  0  0
  146.3427  134.7133  153.3452 H   0  0  0  0  0  0  0  0  0  0  0  0
  147.1190  136.6265  152.2412 H   0  0  0  0  0  0  0  0  0  0  0  0
  146.7228  140.0524  153.3101 H   0  0  0  0  0  0  0  0  0  0  0  0
  145.7566  139.4535  151.0853 H   0  0  0  0  0  0  0  0  0  0  0  0
  147.0929  138.3424  150.7928 H   0  0  0  0  0  0  0  0  0  0  0  0
  147.3937  140.0720  150.9266 H   0  0  0  0  0  0  0  0  0  0  0  0
  148.5900  137.8584  152.9724 H   0  0  0  0  0  0  0  0  0  0  0  0
  148.0330  139.6889  155.0136 H   0  0  0  0  0  0  0  0  0  0  0  0
  149.0318  138.2591  155.0917 H   0  0  0  0  0  0  0  0  0  0  0  0
  150.9891  139.4483  154.2170 H   0  0  0  0  0  0  0  0  0  0  0  0
  150.0214  140.8477  153.8007 H   0  0  0  0  0  0  0  0  0  0  0  0
  150.1316  142.7303  155.4912 H   0  0  0  0  0  0  0  0  0  0  0  0
  150.7437  142.8815  158.1448 H   0  0  0  0  0  0  0  0  0  0  0  0
  151.1050  140.2266  158.8541 H   0  0  0  0  0  0  0  0  0  0  0  0
  149.0057  139.3737  152.4980 H   0  0  0  0  0  0  0  0  0  0  0  0
  1  2  1  0  0  0  0
  1 18  1  0  0  0  0
  1 19  1  0  0  0  0
  1 20  1  0  0  0  0
  2  3  1  0  0  0  0
  2  4  1  0  0  0  0
  2 21  1  0  0  0  0
  3 22  1  0  0  0  0
  3 23  1  0  0  0  0
  3 24  1  0  0  0  0
  4  5  1  0  0  0  0
  4 25  1  0  0  0  0
  4 26  1  0  0  0  0
  5  6  1  0  0  0  0
  5 27  1  0  0  0  0
  6  7  2  0  0  0  0
  6  8  1  0  0  0  0
  8  9  1  0  0  0  0
  8 10  1  0  0  0  0
  8 28  1  0  0  0  0
  9 29  1  0  0  0  0
  9 30  1  0  0  0  0
  9 31  1  0  0  0  0
 10 11  1  0  0  0  0
 10 32  1  0  0  0  0
 10 40  1  0  0  0  0
 11 12  1  0  0  0  0
 11 33  1  0  0  0  0
 11 34  1  0  0  0  0
 12 13  1  0  0  0  0
 12 35  1  0  0  0  0
 12 36  1  0  0  0  0
 13 17  1  0  0  0  0
 13 14  1  0  0  0  0
 14 15  2  0  0  0  0
 14 37  1  0  0  0  0
 15 16  1  0  0  0  0
 15 38  1  0  0  0  0
 16 17  2  0  0  0  0
 16 39  1  0  0  0  0
M  CHG  1  10   1
M  END
> <s_m_source_file>
AV-unprocessed.smi

> <i_m_source_file_index>
3129

> <i_lp_mmshare_version>
43012

> <i_f3d_flags>
0

> <s_epik_input>
W0NIM11bQ0hdKFtDSDNdKVtDSDJdW05IXUMoPU8pW0NASF0oW0NIM10pW05IXVtDSDJdW0NIMl1uMVtjSF1bY0hdW2NIXW4x

> <s_epik_cmdline>
J2VwaWtfcHl0aG9uJywgJy1waCcsICc3LjAnLCAnLXRuJywgJzgnLCAnLW1hJywgJzIwMCcsICctbWV0YWxfYmluZGluZycsICctaW1hZScsICc8aW5maWxlLm1hZT4nLCAnLW9tYWUnLCAnPG91dGZpbGUubWFlPic=

> <r_lp_tautomer_probability>
1

> <r_epik_Ionization_Penalty>
0.20724

> <r_epik_Ionization_Penalty_Charging>
0.207237

> <r_epik_Ionization_Penalty_Neutral>
3.32432e-06

> <r_epik_State_Penalty>
0.197234

> <r_epik_Charging_Adjusted_Penalty>
0.404471

> <i_epik_Tot_Q>
1

> <i_epik_Tot_abs_Q>
1

> <r_epik_Metal_State_Penalty>
0.197522

> <b_epik_Metal_Only>
0

> <s_lp_Force_Field>
OPLS_2005

> <r_lp_Energy>
5.48994

> <b_lp_Chiralities_Consistent>
1

> <s_lp_Variant>
AV-unprocessed.smi:3129-1

> <Gold.Version>
5.8.1

> <Gold.Id.Protein>
6NUR|6NUR_protein|mol2

> <Gold.PLP.Fitness>
43.5064

> <Gold.PLP.PLP>
-30.1829

> <Gold.PLP.part.hbond>
-3.0000

> <Gold.PLP.part.metal>
0.0000

> <Gold.PLP.part.buried>
-0.4699

> <Gold.PLP.part.nonpolar>
-27.1062

> <Gold.PLP.part.repulsive>
0.1848

> <Gold.PLP.ligand.clash>
0.0000

> <Gold.PLP.ligand.torsion>
0.9195

> <Gold.PLP.Chemscore.Hbond>
3.9920

> <Gold.PLP.Chemscore.CHOScore>
1.0000

> <Gold.PLP.Chemscore.Metal>
0.0000

> <Gold.Chemscore.Hbonds>
donor molecule, donor type, donor heavy atom, donor atom, acceptor molecule, acceptor atom, score
      L1  H     5    27       P1  7948  1.00
      L1  H    10    32       P1  7948  2.00
      L1  H    10    40       P1  7957  1.00
      L1  C    14    37       P1  8028  1.00

> <Gold.PLP.Chemscore.Internal.Correction>
0.1866

> <Gold.Rescore>
     Score         DG    S(hbond)    S(metal)    S(lipo)     H(rot)  DE(clash)    DE(int)     intcor
     15.89     -17.11       2.96        0.00      63.50       2.22       0.35       0.87       ----

> <Gold.Chemscore.Fitness>
15.8851

> <Gold.Chemscore.DG>
-17.1091

> <Gold.Chemscore.ZeroCoef>
-5.4800

> <Gold.Chemscore.Hbond>
2.9627

> <Gold.Chemscore.Metal>
0.0000

> <Gold.Chemscore.Lipo>
63.4983

> <Gold.Chemscore.Internal_Hbond>
0.0000

> <Gold.Chemscore.DEClash>
0.3538

> <Gold.Chemscore.DEInternal>
0.8702

> <Gold.Chemscore.Rot>
2.2249

> <Gold.Chemscore.Internal.Correction>
   9.000000E+99

> <Gold.Chemscore.Hbonds>
donor molecule, donor type, donor heavy atom, donor atom, acceptor molecule, acceptor atom, score
      L1  H     5    27       P1  7948  0.95
      L1  H    10    32       P1  7948  0.95
      L1  H    10    40       P1  7957  0.98

> <Gold.Chemscore.Hbond.Weighted>
-9.8955

> <Gold.Chemscore.Metal.Weighted>
-0.0000

> <Gold.Chemscore.Lipo.Weighted>
-7.4293

> <Gold.Chemscore.Internal_Hbond.Weighted>
0.0000

> <Gold.Chemscore.DEClash.Weighted>
0.3538

> <Gold.Chemscore.DEInternal.Weighted>
0.8702

> <Gold.Chemscore.Rot.Weighted>
5.6957

> <Gold.Chemscore.Internal.Correction.Weighted>
   9.000000E+99

> <Gold.Protein.RotatedTorsions>
[ 6907 6896 6895 6894 ] final  157.38 input  -60.11 | X-H torsion
[ 7974 7965 7964 7962 ] final -135.84 input  175.53 | X-H torsion
[ 8008 7997 7996 7995 ] final -167.17 input   59.86 | X-H torsion
[ 10167 10162 10161 10158 ] final  -92.50 input  -65.29 | X-H torsion
[ 10718 10713 10712 10709 ] final   76.59 input   66.30 | X-H torsion
[ 10763 10752 10751 10750 ] final  173.88 input  -60.55 | X-H torsion
[ 11005 11000 10999 10996 ] final -168.91 input  -57.11 | X-H torsion

> <Gold.Protein.ActiveResidues>
 VAL166  LYS551  ARG553  GLY616  TRP617  ASP618  TYR619  PRO620  LYS621  CYS622 
 ASP623  PHE694  ASN695  SER759  ASP760  ASP761  ALA762  ILE779  LEU786  VAL792 
 PHE793  MET794  SER795  GLU796  ALA797  LYS798  CYS799  TRP800  GLU811  SER814 

> <Gold.Protein.RotatedAtoms>
  152.0159  133.3879  159.4238 H   0  0  0  0  0  0  0  0  0  0  0  0  # atno 6907 bound_to 6896
  150.6895  134.3679  159.4988 H   0  0  0  0  0  0  0  0  0  0  0  0  # atno 6908 bound_to 6896
  152.1446  134.9035  160.0602 H   0  0  0  0  0  0  0  0  0  0  0  0  # atno 6909 bound_to 6896
  144.8978  140.6731  143.5104 H   0  0  0  0  0  0  0  0  0  0  0  0  # atno 7974 bound_to 7965
  155.8741  140.0998  157.1530 H   0  0  0  0  0  0  0  0  0  0  0  0  # atno 8008 bound_to 7997
  154.3999  140.1341  156.4177 H   0  0  0  0  0  0  0  0  0  0  0  0  # atno 8009 bound_to 7997
  155.7718  140.3460  155.5253 H   0  0  0  0  0  0  0  0  0  0  0  0  # atno 8010 bound_to 7997
  140.3342  143.2978  151.9908 H   0  0  0  0  0  0  0  0  0  0  0  0  # atno 10167 bound_to 10162
  157.6679  130.9782  150.1520 H   0  0  0  0  0  0  0  0  0  0  0  0  # atno 10718 bound_to 10713
  154.4462  135.2763  155.1813 H   0  0  0  0  0  0  0  0  0  0  0  0  # atno 10763 bound_to 10752
  154.3659  135.6119  153.5718 H   0  0  0  0  0  0  0  0  0  0  0  0  # atno 10764 bound_to 10752
  152.9844  135.5845  154.4799 H   0  0  0  0  0  0  0  0  0  0  0  0  # atno 10765 bound_to 10752
  140.5366  134.5563  157.5089 H   0  0  0  0  0  0  0  0  0  0  0  0  # atno 11005 bound_to 11000
  145.3669  139.1668  143.4353 LP  0  0  0  0  0  0  0  0  0  0  0  0  # atno 17320 bound_to 7965
  146.3091  140.3737  142.8676 LP  0  0  0  0  0  0  0  0  0  0  0  0  # atno 17321 bound_to 7965
  139.4851  144.6210  151.7255 LP  0  0  0  0  0  0  0  0  0  0  0  0  # atno 17342 bound_to 10162
  140.5369  144.0641  150.6074 LP  0  0  0  0  0  0  0  0  0  0  0  0  # atno 17343 bound_to 10162
  156.2317  130.3682  149.8438 LP  0  0  0  0  0  0  0  0  0  0  0  0  # atno 17370 bound_to 10713
  156.6263  130.8647  151.3486 LP  0  0  0  0  0  0  0  0  0  0  0  0  # atno 17371 bound_to 10713
  139.9526  134.7591  156.0414 LP  0  0  0  0  0  0  0  0  0  0  0  0  # atno 17394 bound_to 11000
  141.1251  133.6601  156.3315 LP  0  0  0  0  0  0  0  0  0  0  0  0  # atno 17395 bound_to 11000

$$$$
