AV-unprocessed.smi:213|AV-procd|sdf|1638|dock7
  -GOLD-   2262020 03D 1   1.00000     0.00000
 Structure written by MMmdl.
 59 62  0  0  0  0  0  0  0  0  2 V2000
  150.1156  133.6064  154.8861 C   0  0  0  0  0  0  0  0  0  0  0  0
  149.3302  134.8026  155.4545 C   0  0  1  0  0  0  0  0  0  0  0  0
  147.8040  134.6499  155.2668 C   0  0  0  0  0  0  0  0  0  0  0  0
  147.4095  134.4979  153.8428 N   0  3  0  0  0  0  0  0  0  0  0  0
  147.4163  133.0828  153.4005 C   0  0  0  0  0  0  0  0  0  0  0  0
  147.0616  132.9831  151.9071 C   0  0  0  0  0  0  0  0  0  0  0  0
  145.7965  133.5897  151.6758 O   0  0  0  0  0  0  0  0  0  0  0  0
  145.7992  134.9708  152.0142 C   0  0  0  0  0  0  0  0  0  0  0  0
  146.1110  135.1361  153.5113 C   0  0  0  0  0  0  0  0  0  0  0  0
  149.6739  135.0274  156.8643 N   0  0  0  0  0  0  0  0  0  0  0  0
  149.8490  133.9018  157.7780 C   0  0  0  0  0  0  0  0  0  0  0  0
  150.2575  136.2098  157.1913 C   0  0  0  0  0  0  0  0  0  0  0  0
  150.9278  136.2803  158.3714 N   0  0  0  0  0  0  0  0  0  0  0  0
  151.5301  137.4138  158.7421 C   0  0  0  0  0  0  0  0  0  0  0  0
  151.5845  138.5791  158.0957 N   0  0  0  0  0  0  0  0  0  0  0  0
  150.9103  138.5191  156.9123 C   0  0  0  0  0  0  0  0  0  0  0  0
  150.2260  137.3864  156.3847 C   0  0  0  0  0  0  0  0  0  0  0  0
  149.6516  137.7179  155.1615 N   0  0  0  0  0  0  0  0  0  0  0  0
  149.9825  138.9666  154.9755 C   0  0  0  0  0  0  0  0  0  0  0  0
  150.7361  139.5265  155.9809 N   0  0  0  0  0  0  0  0  0  0  0  0
  151.2357  140.8887  156.0437 C   0  0  0  0  0  0  0  0  0  0  0  0
  150.5915  141.6969  157.1873 C   0  0  2  0  0  0  0  0  0  0  0  0
  149.3240  142.1663  156.7676 O   0  0  0  0  0  0  0  0  0  0  0  0
  151.4526  142.9007  157.6116 C   0  0  1  0  0  0  0  0  0  0  0  0
  150.7474  143.8874  158.5458 C   0  0  0  0  0  0  0  0  0  0  0  0
  151.8830  144.5195  159.3373 C   0  0  0  0  0  0  0  0  0  0  0  0
  153.0926  143.6352  159.0266 C   0  0  0  0  0  0  0  0  0  0  0  0
  152.5489  142.4785  158.4081 O   0  0  0  0  0  0  0  0  0  0  0  0
  149.9516  133.4977  153.8141 H   0  0  0  0  0  0  0  0  0  0  0  0
  149.8231  132.6697  155.3612 H   0  0  0  0  0  0  0  0  0  0  0  0
  151.1879  133.7359  155.0376 H   0  0  0  0  0  0  0  0  0  0  0  0
  149.6463  135.6727  154.8819 H   0  0  0  0  0  0  0  0  0  0  0  0
  147.4669  133.7722  155.8188 H   0  0  0  0  0  0  0  0  0  0  0  0
  147.2773  135.5038  155.6966 H   0  0  0  0  0  0  0  0  0  0  0  0
  148.4002  132.6443  153.5711 H   0  0  0  0  0  0  0  0  0  0  0  0
  146.7016  132.5102  153.9939 H   0  0  0  0  0  0  0  0  0  0  0  0
  147.8263  133.4605  151.2919 H   0  0  0  0  0  0  0  0  0  0  0  0
  147.0137  131.9378  151.6011 H   0  0  0  0  0  0  0  0  0  0  0  0
  146.5270  135.5069  151.4027 H   0  0  0  0  0  0  0  0  0  0  0  0
  144.8200  135.3920  151.7856 H   0  0  0  0  0  0  0  0  0  0  0  0
  145.3172  134.6839  154.1079 H   0  0  0  0  0  0  0  0  0  0  0  0
  146.1291  136.1971  153.7567 H   0  0  0  0  0  0  0  0  0  0  0  0
  149.8521  134.2375  158.8156 H   0  0  0  0  0  0  0  0  0  0  0  0
  150.7884  133.3853  157.5799 H   0  0  0  0  0  0  0  0  0  0  0  0
  149.0394  133.1808  157.6759 H   0  0  0  0  0  0  0  0  0  0  0  0
  152.0427  137.3825  159.6923 H   0  0  0  0  0  0  0  0  0  0  0  0
  149.6778  139.5180  154.0978 H   0  0  0  0  0  0  0  0  0  0  0  0
  152.3178  140.8441  156.1730 H   0  0  0  0  0  0  0  0  0  0  0  0
  151.0566  141.3733  155.0828 H   0  0  0  0  0  0  0  0  0  0  0  0
  150.4396  141.0441  158.0481 H   0  0  0  0  0  0  0  0  0  0  0  0
  149.4244  143.0458  156.4372 H   0  0  0  0  0  0  0  0  0  0  0  0
  151.8367  143.4262  156.7347 H   0  0  0  0  0  0  0  0  0  0  0  0
  150.1502  144.6213  158.0040 H   0  0  0  0  0  0  0  0  0  0  0  0
  150.0832  143.3546  159.2277 H   0  0  0  0  0  0  0  0  0  0  0  0
  152.0668  145.5497  159.0305 H   0  0  0  0  0  0  0  0  0  0  0  0
  151.6530  144.5220  160.4032 H   0  0  0  0  0  0  0  0  0  0  0  0
  153.7629  144.1347  158.3254 H   0  0  0  0  0  0  0  0  0  0  0  0
  153.6644  143.3761  159.9178 H   0  0  0  0  0  0  0  0  0  0  0  0
  148.1185  134.9674  153.2976 H   0  0  0  0  0  0  0  0  0  0  0  0
  1  2  1  0  0  0  0
  1 29  1  0  0  0  0
  1 30  1  0  0  0  0
  1 31  1  0  0  0  0
  2  3  1  0  0  0  0
  2 10  1  0  0  0  0
  2 32  1  0  0  0  0
  3  4  1  0  0  0  0
  3 33  1  0  0  0  0
  3 34  1  0  0  0  0
  4  9  1  0  0  0  0
  4  5  1  0  0  0  0
  4 59  1  0  0  0  0
  5  6  1  0  0  0  0
  5 35  1  0  0  0  0
  5 36  1  0  0  0  0
  6  7  1  0  0  0  0
  6 37  1  0  0  0  0
  6 38  1  0  0  0  0
  7  8  1  0  0  0  0
  8  9  1  0  0  0  0
  8 39  1  0  0  0  0
  8 40  1  0  0  0  0
  9 41  1  0  0  0  0
  9 42  1  0  0  0  0
 10 11  1  0  0  0  0
 10 12  1  0  0  0  0
 11 43  1  0  0  0  0
 11 44  1  0  0  0  0
 11 45  1  0  0  0  0
 12 17  1  0  0  0  0
 12 13  2  0  0  0  0
 13 14  1  0  0  0  0
 14 15  2  0  0  0  0
 14 46  1  0  0  0  0
 15 16  1  0  0  0  0
 16 20  1  0  0  0  0
 16 17  2  0  0  0  0
 17 18  1  0  0  0  0
 18 19  2  0  0  0  0
 19 20  1  0  0  0  0
 19 47  1  0  0  0  0
 20 21  1  0  0  0  0
 21 22  1  0  0  0  0
 21 48  1  0  0  0  0
 21 49  1  0  0  0  0
 22 23  1  0  0  0  0
 22 24  1  0  0  0  0
 22 50  1  0  0  0  0
 23 51  1  0  0  0  0
 24 28  1  0  0  0  0
 24 25  1  0  0  0  0
 24 52  1  0  0  0  0
 25 26  1  0  0  0  0
 25 53  1  0  0  0  0
 25 54  1  0  0  0  0
 26 27  1  0  0  0  0
 26 55  1  0  0  0  0
 26 56  1  0  0  0  0
 27 28  1  0  0  0  0
 27 57  1  0  0  0  0
 27 58  1  0  0  0  0
M  CHG  1   4   1
M  END
> <s_m_source_file>
AV-unprocessed.smi

> <i_m_source_file_index>
213

> <i_lp_mmshare_version>
43012

> <i_f3d_flags>
0

> <s_epik_input>
W0NIMl0xW0NIMl1PW0NIMl1bQ0gyXU4xW0NIMl1bQ0BASF0oW0NIM10pTihbQ0gzXSljKG5bY0hdbjIpYyhjMjMpbltjSF1uM1tDSDJdW0NASF0oW09IXSlbQ0BASF00W0NIMl1bQ0gyXVtDSDJdTzQ=

> <s_epik_cmdline>
J2VwaWtfcHl0aG9uJywgJy1waCcsICc3LjAnLCAnLXRuJywgJzgnLCAnLW1hJywgJzIwMCcsICctbWV0YWxfYmluZGluZycsICctaW1hZScsICc8aW5maWxlLm1hZT4nLCAnLW9tYWUnLCAnPG91dGZpbGUubWFlPic=

> <r_lp_tautomer_probability>
1

> <r_epik_Ionization_Penalty>
0.399679

> <r_epik_Ionization_Penalty_Charging>
0.399433

> <r_epik_Ionization_Penalty_Neutral>
0.000246213

> <r_epik_State_Penalty>
0.286032

> <r_epik_Charging_Adjusted_Penalty>
0.685465

> <i_epik_Tot_Q>
1

> <i_epik_Tot_abs_Q>
1

> <r_epik_Metal_State_Penalty>
0.286072

> <b_epik_Metal_Only>
0

> <s_lp_Force_Field>
OPLS_2005

> <r_lp_Energy>
45.5564

> <b_lp_Chiralities_Consistent>
1

> <s_lp_Variant>
AV-unprocessed.smi:213-6

> <Gold.Version>
5.8.1

> <Gold.Id.Protein>
6NUR|6NUR_protein|mol2

> <Gold.PLP.Fitness>
52.0322

> <Gold.PLP.PLP>
-40.9205

> <Gold.PLP.part.hbond>
-2.7525

> <Gold.PLP.part.metal>
0.0000

> <Gold.PLP.part.buried>
-4.7324

> <Gold.PLP.part.nonpolar>
-33.7813

> <Gold.PLP.part.repulsive>
0.3442

> <Gold.PLP.ligand.clash>
0.0000

> <Gold.PLP.ligand.torsion>
1.2777

> <Gold.PLP.Chemscore.Hbond>
3.3401

> <Gold.PLP.Chemscore.CHOScore>
0.9186

> <Gold.PLP.Chemscore.Metal>
0.0000

> <Gold.Chemscore.Hbonds>
donor molecule, donor type, donor heavy atom, donor atom, acceptor molecule, acceptor atom, score
      L1  H     4    59       P1  7948  1.85
      L1  H    23    51       P1  8028  1.00
      P1  H  6896  6908       L1    13  0.61

> <Gold.PLP.Chemscore.Internal.Correction>
0.8909

> <Gold.Rescore>
     Score         DG    S(hbond)    S(metal)    S(lipo)     H(rot)  DE(clash)    DE(int)     intcor
     15.64     -17.98       2.67        0.00      92.49       2.83       0.12       2.22       ----

> <Gold.Chemscore.Fitness>
15.6355

> <Gold.Chemscore.DG>
-17.9776

> <Gold.Chemscore.ZeroCoef>
-5.4800

> <Gold.Chemscore.Hbond>
2.6674

> <Gold.Chemscore.Metal>
0.0000

> <Gold.Chemscore.Lipo>
92.4906

> <Gold.Chemscore.Internal_Hbond>
0.0000

> <Gold.Chemscore.DEClash>
0.1199

> <Gold.Chemscore.DEInternal>
2.2222

> <Gold.Chemscore.Rot>
2.8254

> <Gold.Chemscore.Internal.Correction>
   9.000000E+99

> <Gold.Chemscore.Hbonds>
donor molecule, donor type, donor heavy atom, donor atom, acceptor molecule, acceptor atom, score
      L1  H     4    59       P1  7948  0.84
      L1  H    23    51       P1  8028  0.98
      P1  H  6896  6908       L1    13  0.56

> <Gold.Chemscore.Hbond.Weighted>
-8.9092

> <Gold.Chemscore.Metal.Weighted>
-0.0000

> <Gold.Chemscore.Lipo.Weighted>
-10.8214

> <Gold.Chemscore.Internal_Hbond.Weighted>
0.0000

> <Gold.Chemscore.DEClash.Weighted>
0.1199

> <Gold.Chemscore.DEInternal.Weighted>
2.2222

> <Gold.Chemscore.Rot.Weighted>
7.2330

> <Gold.Chemscore.Internal.Correction.Weighted>
   9.000000E+99

> <Gold.Protein.RotatedTorsions>
[ 6907 6896 6895 6894 ] final -174.28 input  -60.11 | X-H torsion
[ 7974 7965 7964 7962 ] final   15.96 input  175.53 | X-H torsion
[ 8008 7997 7996 7995 ] final  133.05 input   59.86 | X-H torsion
[ 10167 10162 10161 10158 ] final    4.25 input  -65.29 | X-H torsion
[ 10718 10713 10712 10709 ] final   72.52 input   66.30 | X-H torsion
[ 10763 10752 10751 10750 ] final -174.67 input  -60.55 | X-H torsion
[ 11005 11000 10999 10996 ] final   50.27 input  -57.11 | X-H torsion

> <Gold.Protein.ActiveResidues>
 VAL166  LYS551  ARG553  GLY616  TRP617  ASP618  TYR619  PRO620  LYS621  CYS622 
 ASP623  PHE694  ASN695  SER759  ASP760  ASP761  ALA762  ILE779  LEU786  VAL792 
 PHE793  MET794  SER795  GLU796  ALA797  LYS798  CYS799  TRP800  GLU811  SER814 

> <Gold.Protein.RotatedAtoms>
  151.5698  133.3391  159.2987 H   0  0  0  0  0  0  0  0  0  0  0  0  # atno 6907 bound_to 6896
  150.8374  134.7656  159.6915 H   0  0  0  0  0  0  0  0  0  0  0  0  # atno 6908 bound_to 6896
  152.4448  134.5524  159.9922 H   0  0  0  0  0  0  0  0  0  0  0  0  # atno 6909 bound_to 6896
  146.2263  139.8817  142.8569 H   0  0  0  0  0  0  0  0  0  0  0  0  # atno 7974 bound_to 7965
  156.2989  140.2531  156.3190 H   0  0  0  0  0  0  0  0  0  0  0  0  # atno 8008 bound_to 7997
  154.9253  140.0399  157.2038 H   0  0  0  0  0  0  0  0  0  0  0  0  # atno 8009 bound_to 7997
  154.8271  140.2869  155.5752 H   0  0  0  0  0  0  0  0  0  0  0  0  # atno 8010 bound_to 7997
  140.6544  143.7464  150.7629 H   0  0  0  0  0  0  0  0  0  0  0  0  # atno 10167 bound_to 10162
  157.6505  130.9583  150.0941 H   0  0  0  0  0  0  0  0  0  0  0  0  # atno 10718 bound_to 10713
  154.5935  135.2847  155.0610 H   0  0  0  0  0  0  0  0  0  0  0  0  # atno 10763 bound_to 10752
  154.1902  135.6442  153.5062 H   0  0  0  0  0  0  0  0  0  0  0  0  # atno 10764 bound_to 10752
  153.0130  135.5444  154.6629 H   0  0  0  0  0  0  0  0  0  0  0  0  # atno 10765 bound_to 10752
  140.1032  134.5053  155.8744 H   0  0  0  0  0  0  0  0  0  0  0  0  # atno 11005 bound_to 11000
  145.2505  141.0042  143.3883 LP  0  0  0  0  0  0  0  0  0  0  0  0  # atno 17320 bound_to 7965
  144.9378  139.4224  143.6463 LP  0  0  0  0  0  0  0  0  0  0  0  0  # atno 17321 bound_to 7965
  140.1121  143.4690  152.2364 LP  0  0  0  0  0  0  0  0  0  0  0  0  # atno 17342 bound_to 10162
  139.5764  144.7489  151.3753 LP  0  0  0  0  0  0  0  0  0  0  0  0  # atno 17343 bound_to 10162
  156.1882  130.3653  149.8945 LP  0  0  0  0  0  0  0  0  0  0  0  0  # atno 17370 bound_to 10713
  156.6880  130.8884  151.3584 LP  0  0  0  0  0  0  0  0  0  0  0  0  # atno 17371 bound_to 10713
  141.2111  133.6703  156.6559 LP  0  0  0  0  0  0  0  0  0  0  0  0  # atno 17394 bound_to 11000
  140.3191  134.8022  157.4238 LP  0  0  0  0  0  0  0  0  0  0  0  0  # atno 17395 bound_to 11000

$$$$
