AV-unprocessed.smi:1734|AV-procd|sdf|6982|dock7
  -GOLD-   22720 8193D 1   1.00000     0.00000
 Structure written by MMmdl.
 50 52  0  0  0  0  0  0  0  0  1 V2000
  144.2057  135.7349  151.7505 C   0  0  0  0  0  0  0  0  0  0  0  0
  144.8359  134.4093  151.3551 C   0  0  0  0  0  0  0  0  0  0  0  0
  144.0956  133.4999  150.5701 C   0  0  0  0  0  0  0  0  0  0  0  0
  144.6800  132.2752  150.2051 C   0  0  0  0  0  0  0  0  0  0  0  0
  145.9891  132.0103  150.6423 C   0  0  0  0  0  0  0  0  0  0  0  0
  146.7033  132.8730  151.3934 N   0  0  0  0  0  0  0  0  0  0  0  0
  146.1534  134.0593  151.7557 C   0  0  0  0  0  0  0  0  0  0  0  0
  146.8432  135.0113  152.5578 N   0  0  0  0  0  0  0  0  0  0  0  0
  146.4585  135.5575  153.7247 C   0  0  0  0  0  0  0  0  0  0  0  0
  145.4444  135.2570  154.3552 O   0  0  0  0  0  0  0  0  0  0  0  0
  147.3271  136.4957  154.1280 N   0  0  0  0  0  0  0  0  0  0  0  0
  147.1800  137.3114  155.3279 C   0  0  0  0  0  0  0  0  0  0  0  0
  148.3196  137.1054  156.3707 C   0  0  2  0  0  0  0  0  0  0  0  0
  147.8577  137.4114  157.8261 C   0  0  1  0  0  0  0  0  0  0  0  0
  146.8582  136.4323  158.4289 C   0  0  0  0  0  0  0  0  0  0  0  0
  147.0595  136.5760  159.9384 C   0  0  0  0  0  0  0  0  0  0  0  0
  148.3006  137.2489  160.1131 O   0  0  0  0  0  0  0  0  0  0  0  0
  148.9761  137.3094  158.8671 C   0  0  0  0  0  0  0  0  0  0  0  0
  149.5596  137.8251  156.0297 N   0  0  0  0  0  0  0  0  0  0  0  0
  149.4927  139.2772  156.1855 C   0  0  0  0  0  0  0  0  0  0  0  0
  150.8598  139.9348  155.9299 C   0  0  0  0  0  0  0  0  0  0  0  0
  151.3370  139.5674  154.6389 O   0  0  0  0  0  0  0  0  0  0  0  0
  151.4631  138.1577  154.4769 C   0  0  0  0  0  0  0  0  0  0  0  0
  150.0992  137.4877  154.7149 C   0  0  0  0  0  0  0  0  0  0  0  0
  143.2023  135.8372  151.3359 H   0  0  0  0  0  0  0  0  0  0  0  0
  144.8055  136.5676  151.3822 H   0  0  0  0  0  0  0  0  0  0  0  0
  144.1304  135.8136  152.8354 H   0  0  0  0  0  0  0  0  0  0  0  0
  143.0909  133.7347  150.2504 H   0  0  0  0  0  0  0  0  0  0  0  0
  144.1393  131.5580  149.6054 H   0  0  0  0  0  0  0  0  0  0  0  0
  146.4760  131.0817  150.3838 H   0  0  0  0  0  0  0  0  0  0  0  0
  147.7185  135.3402  152.1784 H   0  0  0  0  0  0  0  0  0  0  0  0
  148.1365  136.6763  153.5524 H   0  0  0  0  0  0  0  0  0  0  0  0
  147.1072  138.3511  155.0102 H   0  0  0  0  0  0  0  0  0  0  0  0
  146.2161  137.0679  155.7755 H   0  0  0  0  0  0  0  0  0  0  0  0
  148.5756  136.0452  156.3606 H   0  0  0  0  0  0  0  0  0  0  0  0
  147.4282  138.4126  157.8785 H   0  0  0  0  0  0  0  0  0  0  0  0
  145.8285  136.6396  158.1372 H   0  0  0  0  0  0  0  0  0  0  0  0
  147.0969  135.4119  158.1253 H   0  0  0  0  0  0  0  0  0  0  0  0
  146.2664  137.1727  160.3896 H   0  0  0  0  0  0  0  0  0  0  0  0
  147.0749  135.6037  160.4319 H   0  0  0  0  0  0  0  0  0  0  0  0
  149.5545  136.3943  158.7292 H   0  0  0  0  0  0  0  0  0  0  0  0
  149.6635  138.1552  158.8375 H   0  0  0  0  0  0  0  0  0  0  0  0
  148.7648  139.6953  155.4896 H   0  0  0  0  0  0  0  0  0  0  0  0
  149.1568  139.5388  157.1884 H   0  0  0  0  0  0  0  0  0  0  0  0
  150.7745  141.0201  155.9834 H   0  0  0  0  0  0  0  0  0  0  0  0
  151.5808  139.6318  156.6908 H   0  0  0  0  0  0  0  0  0  0  0  0
  151.8196  137.9448  153.4690 H   0  0  0  0  0  0  0  0  0  0  0  0
  152.2112  137.7702  155.1702 H   0  0  0  0  0  0  0  0  0  0  0  0
  150.2061  136.4064  154.6225 H   0  0  0  0  0  0  0  0  0  0  0  0
  149.4163  137.8044  153.9273 H   0  0  0  0  0  0  0  0  0  0  0  0
  1  2  1  0  0  0  0
  1 25  1  0  0  0  0
  1 26  1  0  0  0  0
  1 27  1  0  0  0  0
  2  7  1  0  0  0  0
  2  3  2  0  0  0  0
  3  4  1  0  0  0  0
  3 28  1  0  0  0  0
  4  5  2  0  0  0  0
  4 29  1  0  0  0  0
  5  6  1  0  0  0  0
  5 30  1  0  0  0  0
  6  7  2  0  0  0  0
  7  8  1  0  0  0  0
  8  9  1  0  0  0  0
  8 31  1  0  0  0  0
  9 10  2  0  0  0  0
  9 11  1  0  0  0  0
 11 12  1  0  0  0  0
 11 32  1  0  0  0  0
 12 13  1  0  0  0  0
 12 33  1  0  0  0  0
 12 34  1  0  0  0  0
 13 14  1  0  0  0  0
 13 19  1  0  0  0  0
 13 35  1  0  0  0  0
 14 18  1  0  0  0  0
 14 15  1  0  0  0  0
 14 36  1  0  0  0  0
 15 16  1  0  0  0  0
 15 37  1  0  0  0  0
 15 38  1  0  0  0  0
 16 17  1  0  0  0  0
 16 39  1  0  0  0  0
 16 40  1  0  0  0  0
 17 18  1  0  0  0  0
 18 41  1  0  0  0  0
 18 42  1  0  0  0  0
 19 24  1  0  0  0  0
 19 20  1  0  0  0  0
 20 21  1  0  0  0  0
 20 43  1  0  0  0  0
 20 44  1  0  0  0  0
 21 22  1  0  0  0  0
 21 45  1  0  0  0  0
 21 46  1  0  0  0  0
 22 23  1  0  0  0  0
 23 24  1  0  0  0  0
 23 47  1  0  0  0  0
 23 48  1  0  0  0  0
 24 49  1  0  0  0  0
 24 50  1  0  0  0  0
M  END
> <s_m_source_file>
AV-unprocessed.smi

> <i_m_source_file_index>
1734

> <i_lp_mmshare_version>
43012

> <i_f3d_flags>
0

> <s_epik_input>
W0NIM11jMVtjSF1bY0hdW2NIXW5jMVtOSF1DKD1PKVtOSF1bQ0gyXVtDQEhdKFtDQEBIXTJbQ0gyXVtDSDJdT1tDSDJdMilOM1tDSDJdW0NIMl1PW0NIMl1bQ0gyXTM=

> <s_epik_cmdline>
J2VwaWtfcHl0aG9uJywgJy1waCcsICc3LjAnLCAnLXRuJywgJzgnLCAnLW1hJywgJzIwMCcsICctbWV0YWxfYmluZGluZycsICctaW1hZScsICc8aW5maWxlLm1hZT4nLCAnLW9tYWUnLCAnPG91dGZpbGUubWFlPic=

> <r_epik_Ionization_Penalty>
0.125073

> <r_epik_Ionization_Penalty_Charging>
0

> <r_epik_Ionization_Penalty_Neutral>
0.125073

> <r_epik_State_Penalty>
0.114484

> <r_epik_Charging_Adjusted_Penalty>
0.114484

> <i_epik_Tot_Q>
0

> <i_epik_Tot_abs_Q>
0

> <r_epik_Metal_State_Penalty>
0.114483

> <b_epik_Metal_Only>
0

> <s_lp_Force_Field>
OPLS_2005

> <r_lp_Energy>
51.317

> <b_lp_Chiralities_Consistent>
1

> <s_lp_Variant>
AV-unprocessed.smi:1734-3

> <Gold.Version>
5.8.1

> <Gold.Id.Protein>
6NUR|6NUR_protein|mol2

> <Gold.PLP.Fitness>
42.9304

> <Gold.PLP.PLP>
-31.6721

> <Gold.PLP.part.hbond>
-4.9639

> <Gold.PLP.part.metal>
0.0000

> <Gold.PLP.part.buried>
-5.9307

> <Gold.PLP.part.nonpolar>
-21.9537

> <Gold.PLP.part.repulsive>
0.3439

> <Gold.PLP.ligand.clash>
0.0000

> <Gold.PLP.ligand.torsion>
0.9419

> <Gold.PLP.Chemscore.Hbond>
3.4107

> <Gold.PLP.Chemscore.CHOScore>
0.8476

> <Gold.PLP.Chemscore.Metal>
0.0000

> <Gold.Chemscore.Hbonds>
donor molecule, donor type, donor heavy atom, donor atom, acceptor molecule, acceptor atom, score
      L1  H     8    31       P1  7948  0.98
      L1  H    11    32       P1  7948  0.86
      P1  H  6931  6943       L1    17  0.39
      P1  H  6934  6947       L1    17  0.14
      P1  H  7989  7998       L1    22  1.00
      L1  C     5    30       P1 10747  0.86

> <Gold.PLP.Chemscore.Internal.Correction>
0.3672

> <Gold.Rescore>
     Score         DG    S(hbond)    S(metal)    S(lipo)     H(rot)  DE(clash)    DE(int)     intcor
     19.08     -20.28       3.28        0.00      68.95       1.65       0.00       1.19       ----

> <Gold.Chemscore.Fitness>
19.0842

> <Gold.Chemscore.DG>
-20.2832

> <Gold.Chemscore.ZeroCoef>
-5.4800

> <Gold.Chemscore.Hbond>
3.2800

> <Gold.Chemscore.Metal>
0.0000

> <Gold.Chemscore.Lipo>
68.9474

> <Gold.Chemscore.Internal_Hbond>
0.0000

> <Gold.Chemscore.DEClash>
0.0048

> <Gold.Chemscore.DEInternal>
1.1943

> <Gold.Chemscore.Rot>
1.6480

> <Gold.Chemscore.Internal.Correction>
   9.000000E+99

> <Gold.Chemscore.Hbonds>
donor molecule, donor type, donor heavy atom, donor atom, acceptor molecule, acceptor atom, score
      L1  H     8    31       P1  7948  0.92
      L1  H    11    32       P1  7948  0.84
      P1  H  6931  6943       L1    17  0.40
      P1  H  6934  6947       L1    17  0.01
      P1  H  7989  7998       L1    22  0.96

> <Gold.Chemscore.Hbond.Weighted>
-10.9552

> <Gold.Chemscore.Metal.Weighted>
-0.0000

> <Gold.Chemscore.Lipo.Weighted>
-8.0668

> <Gold.Chemscore.Internal_Hbond.Weighted>
0.0000

> <Gold.Chemscore.DEClash.Weighted>
0.0048

> <Gold.Chemscore.DEInternal.Weighted>
1.1943

> <Gold.Chemscore.Rot.Weighted>
4.2188

> <Gold.Chemscore.Internal.Correction.Weighted>
   9.000000E+99

> <Gold.Protein.RotatedTorsions>
[ 6907 6896 6895 6894 ] final  126.68 input  -60.11 | X-H torsion
[ 7974 7965 7964 7962 ] final -146.10 input  175.53 | X-H torsion
[ 8008 7997 7996 7995 ] final    2.60 input   59.86 | X-H torsion
[ 10167 10162 10161 10158 ] final   -5.33 input  -65.29 | X-H torsion
[ 10718 10713 10712 10709 ] final  -17.96 input   66.30 | X-H torsion
[ 10763 10752 10751 10750 ] final  103.96 input  -60.55 | X-H torsion
[ 11005 11000 10999 10996 ] final  157.06 input  -57.11 | X-H torsion

> <Gold.Protein.ActiveResidues>
 VAL166  LYS551  ARG553  GLY616  TRP617  ASP618  TYR619  PRO620  LYS621  CYS622 
 ASP623  PHE694  ASN695  SER759  ASP760  ASP761  ALA762  ILE779  LEU786  VAL792 
 PHE793  MET794  SER795  GLU796  ALA797  LYS798  CYS799  TRP800  GLU811  SER814 

> <Gold.Protein.RotatedAtoms>
  152.3882  133.6640  159.6215 H   0  0  0  0  0  0  0  0  0  0  0  0  # atno 6907 bound_to 6896
  150.7796  133.9000  159.3347 H   0  0  0  0  0  0  0  0  0  0  0  0  # atno 6908 bound_to 6896
  151.6792  135.0966  160.0264 H   0  0  0  0  0  0  0  0  0  0  0  0  # atno 6909 bound_to 6896
  144.8182  140.5499  143.5596 H   0  0  0  0  0  0  0  0  0  0  0  0  # atno 7974 bound_to 7965
  154.6935  140.2658  155.6789 H   0  0  0  0  0  0  0  0  0  0  0  0  # atno 8008 bound_to 7997
  156.2740  140.2786  156.1445 H   0  0  0  0  0  0  0  0  0  0  0  0  # atno 8009 bound_to 7997
  155.0863  140.0373  157.2645 H   0  0  0  0  0  0  0  0  0  0  0  0  # atno 8010 bound_to 7997
  140.6959  143.6321  150.8513 H   0  0  0  0  0  0  0  0  0  0  0  0  # atno 10167 bound_to 10162
  156.5663  130.4738  149.6383 H   0  0  0  0  0  0  0  0  0  0  0  0  # atno 10718 bound_to 10713
  153.3596  135.3959  155.1708 H   0  0  0  0  0  0  0  0  0  0  0  0  # atno 10763 bound_to 10752
  154.8677  135.3676  154.5117 H   0  0  0  0  0  0  0  0  0  0  0  0  # atno 10764 bound_to 10752
  153.5575  135.7081  153.5623 H   0  0  0  0  0  0  0  0  0  0  0  0  # atno 10765 bound_to 10752
  140.1734  134.8527  157.2717 H   0  0  0  0  0  0  0  0  0  0  0  0  # atno 11005 bound_to 11000
  145.5165  139.1478  143.3576 LP  0  0  0  0  0  0  0  0  0  0  0  0  # atno 17320 bound_to 7965
  146.2487  140.5306  142.8903 LP  0  0  0  0  0  0  0  0  0  0  0  0  # atno 17321 bound_to 7965
  140.0039  143.5715  152.2865 LP  0  0  0  0  0  0  0  0  0  0  0  0  # atno 17342 bound_to 10162
  139.6414  144.7655  151.2331 LP  0  0  0  0  0  0  0  0  0  0  0  0  # atno 17343 bound_to 10162
  156.2754  130.7041  151.1850 LP  0  0  0  0  0  0  0  0  0  0  0  0  # atno 17370 bound_to 10713
  157.7358  131.0569  150.5450 LP  0  0  0  0  0  0  0  0  0  0  0  0  # atno 17371 bound_to 10713
  140.2351  134.3863  155.7505 LP  0  0  0  0  0  0  0  0  0  0  0  0  # atno 17394 bound_to 11000
  141.2219  133.7235  156.8701 LP  0  0  0  0  0  0  0  0  0  0  0  0  # atno 17395 bound_to 11000

$$$$
