AV-unprocessed.smi:2687|AV-procd|sdf|10385|dock9
  -GOLD-   2272014413D 1   1.00000     0.00000
 Structure written by MMmdl.
 38 39  0  0  0  0  0  0  0  0  1 V2000
  149.9652  136.3317  158.7092 O   0  0  0  0  0  0  0  0  0  0  0  0
  149.1998  137.2478  158.4109 C   0  0  0  0  0  0  0  0  0  0  0  0
  147.8488  137.3530  159.1154 C   0  0  0  0  0  0  0  0  0  0  0  0
  148.0741  137.3672  160.5151 O   0  0  0  0  0  0  0  0  0  0  0  0
  148.1719  136.0655  161.0707 C   0  0  0  0  0  0  0  0  0  0  0  0
  147.4067  136.0162  162.3989 C   0  0  0  0  0  0  0  0  0  0  0  0
  146.1365  136.3585  162.1871 F   0  0  0  0  0  0  0  0  0  0  0  0
  147.4382  134.7836  162.9046 F   0  0  0  0  0  0  0  0  0  0  0  0
  147.9407  136.8716  163.2703 F   0  0  0  0  0  0  0  0  0  0  0  0
  149.4533  138.1823  157.4772 N   0  0  0  0  0  0  0  0  0  0  0  0
  150.6226  138.3366  156.6795 C   0  0  0  0  0  0  0  0  0  0  0  0
  151.8728  137.7773  157.0390 C   0  0  0  0  0  0  0  0  0  0  0  0
  152.9875  137.9998  156.2102 C   0  0  0  0  0  0  0  0  0  0  0  0
  152.8161  138.7826  155.0542 C   0  0  0  0  0  0  0  0  0  0  0  0
  151.6363  139.3351  154.7053 N   0  0  0  0  0  0  0  0  0  0  0  0
  150.5599  139.1228  155.5007 C   0  0  0  0  0  0  0  0  0  0  0  0
  149.3444  139.7097  155.1107 N   0  0  0  0  0  0  0  0  0  0  0  0
  149.4008  141.1624  155.0117 C   0  0  0  0  0  0  0  0  0  0  0  0
  147.9989  141.7227  154.7151 C   0  0  0  0  0  0  0  0  0  0  0  0
  147.4799  141.1149  153.5352 O   0  0  0  0  0  0  0  0  0  0  0  0
  147.3601  139.7012  153.6681 C   0  0  0  0  0  0  0  0  0  0  0  0
  148.7458  139.0899  153.9351 C   0  0  0  0  0  0  0  0  0  0  0  0
  147.3213  138.2569  158.8046 H   0  0  0  0  0  0  0  0  0  0  0  0
  147.2339  136.4964  158.8348 H   0  0  0  0  0  0  0  0  0  0  0  0
  147.7612  135.3304  160.3767 H   0  0  0  0  0  0  0  0  0  0  0  0
  149.2194  135.8092  161.2368 H   0  0  0  0  0  0  0  0  0  0  0  0
  148.6940  138.8114  157.2593 H   0  0  0  0  0  0  0  0  0  0  0  0
  151.9987  137.1978  157.9407 H   0  0  0  0  0  0  0  0  0  0  0  0
  153.9529  137.5851  156.4585 H   0  0  0  0  0  0  0  0  0  0  0  0
  153.6496  138.9757  154.3954 H   0  0  0  0  0  0  0  0  0  0  0  0
  149.7835  141.5812  155.9431 H   0  0  0  0  0  0  0  0  0  0  0  0
  150.0906  141.4527  154.2180 H   0  0  0  0  0  0  0  0  0  0  0  0
  147.3238  141.5464  155.5542 H   0  0  0  0  0  0  0  0  0  0  0  0
  148.0488  142.8015  154.5669 H   0  0  0  0  0  0  0  0  0  0  0  0
  146.6655  139.4580  154.4738 H   0  0  0  0  0  0  0  0  0  0  0  0
  146.9395  139.2917  152.7496 H   0  0  0  0  0  0  0  0  0  0  0  0
  149.3895  139.2424  153.0677 H   0  0  0  0  0  0  0  0  0  0  0  0
  148.6591  138.0136  154.0890 H   0  0  0  0  0  0  0  0  0  0  0  0
  1  2  2  0  0  0  0
  2  3  1  0  0  0  0
  2 10  1  0  0  0  0
  3  4  1  0  0  0  0
  3 23  1  0  0  0  0
  3 24  1  0  0  0  0
  4  5  1  0  0  0  0
  5  6  1  0  0  0  0
  5 25  1  0  0  0  0
  5 26  1  0  0  0  0
  6  7  1  0  0  0  0
  6  8  1  0  0  0  0
  6  9  1  0  0  0  0
 10 11  1  0  0  0  0
 10 27  1  0  0  0  0
 11 16  1  0  0  0  0
 11 12  2  0  0  0  0
 12 13  1  0  0  0  0
 12 28  1  0  0  0  0
 13 14  2  0  0  0  0
 13 29  1  0  0  0  0
 14 15  1  0  0  0  0
 14 30  1  0  0  0  0
 15 16  2  0  0  0  0
 16 17  1  0  0  0  0
 17 22  1  0  0  0  0
 17 18  1  0  0  0  0
 18 19  1  0  0  0  0
 18 31  1  0  0  0  0
 18 32  1  0  0  0  0
 19 20  1  0  0  0  0
 19 33  1  0  0  0  0
 19 34  1  0  0  0  0
 20 21  1  0  0  0  0
 21 22  1  0  0  0  0
 21 35  1  0  0  0  0
 21 36  1  0  0  0  0
 22 37  1  0  0  0  0
 22 38  1  0  0  0  0
M  END
> <s_m_source_file>
AV-unprocessed.smi

> <i_m_source_file_index>
2687

> <i_lp_mmshare_version>
43012

> <i_f3d_flags>
0

> <s_epik_input>
RkMoRikoRilbQ0gyXU9bQ0gyXUMoPU8pW05IXWMxW2NIXVtjSF1bY0hdbmMxTjJbQ0gyXVtDSDJdT1tDSDJdW0NIMl0y

> <s_epik_cmdline>
J2VwaWtfcHl0aG9uJywgJy1waCcsICc3LjAnLCAnLXRuJywgJzgnLCAnLW1hJywgJzIwMCcsICctbWV0YWxfYmluZGluZycsICctaW1hZScsICc8aW5maWxlLm1hZT4nLCAnLW9tYWUnLCAnPG91dGZpbGUubWFlPic=

> <r_lp_tautomer_probability>
1

> <r_epik_Ionization_Penalty>
0.00040187

> <r_epik_Ionization_Penalty_Charging>
0

> <r_epik_Ionization_Penalty_Neutral>
0.00040187

> <r_epik_State_Penalty>
0.000245652

> <r_epik_Charging_Adjusted_Penalty>
0.000245652

> <i_epik_Tot_Q>
0

> <i_epik_Tot_abs_Q>
0

> <r_epik_Metal_State_Penalty>
-0

> <b_epik_Metal_Only>
0

> <s_lp_Force_Field>
OPLS_2005

> <r_lp_Energy>
25.827

> <b_lp_Chiralities_Consistent>
1

> <s_lp_Variant>
AV-unprocessed.smi:2687-1

> <Gold.Version>
5.8.1

> <Gold.Id.Protein>
6NUR|6NUR_protein|mol2

> <Gold.PLP.Fitness>
48.0964

> <Gold.PLP.PLP>
-38.9665

> <Gold.PLP.part.hbond>
-4.0000

> <Gold.PLP.part.metal>
0.0000

> <Gold.PLP.part.buried>
-3.7415

> <Gold.PLP.part.nonpolar>
-31.8211

> <Gold.PLP.part.repulsive>
0.3469

> <Gold.PLP.ligand.clash>
0.0000

> <Gold.PLP.ligand.torsion>
0.6853

> <Gold.PLP.Chemscore.Hbond>
3.4306

> <Gold.PLP.Chemscore.CHOScore>
0.0000

> <Gold.PLP.Chemscore.Metal>
0.0000

> <Gold.Chemscore.Hbonds>
donor molecule, donor type, donor heavy atom, donor atom, acceptor molecule, acceptor atom, score
      P1  H  6896  6909       L1     1  1.00
      P1  H  6931  6943       L1     4  0.58
      P1  H  6934  6947       L1     4  0.62
      P1  H  7989  7998       L1    15  1.00

> <Gold.PLP.Chemscore.Internal.Correction>
0.2087

> <Gold.Rescore>
     Score         DG    S(hbond)    S(metal)    S(lipo)     H(rot)  DE(clash)    DE(int)     intcor
     13.38     -16.90       2.63        0.00      66.61       2.01       0.74       2.78       ----

> <Gold.Chemscore.Fitness>
13.3816

> <Gold.Chemscore.DG>
-16.9007

> <Gold.Chemscore.ZeroCoef>
-5.4800

> <Gold.Chemscore.Hbond>
2.6299

> <Gold.Chemscore.Metal>
0.0000

> <Gold.Chemscore.Lipo>
66.6130

> <Gold.Chemscore.Internal_Hbond>
0.0000

> <Gold.Chemscore.DEClash>
0.7415

> <Gold.Chemscore.DEInternal>
2.7776

> <Gold.Chemscore.Rot>
2.0144

> <Gold.Chemscore.Internal.Correction>
   9.000000E+99

> <Gold.Chemscore.Hbonds>
donor molecule, donor type, donor heavy atom, donor atom, acceptor molecule, acceptor atom, score
      P1  H  6896  6909       L1     1  0.98
      P1  H  6931  6943       L1     4  0.10
      P1  H  6934  6947       L1     4  0.12
      P1  H  7989  7998       L1    15  0.91

> <Gold.Chemscore.Hbond.Weighted>
-8.7838

> <Gold.Chemscore.Metal.Weighted>
-0.0000

> <Gold.Chemscore.Lipo.Weighted>
-7.7937

> <Gold.Chemscore.Internal_Hbond.Weighted>
0.0000

> <Gold.Chemscore.DEClash.Weighted>
0.7415

> <Gold.Chemscore.DEInternal.Weighted>
2.7776

> <Gold.Chemscore.Rot.Weighted>
5.1568

> <Gold.Chemscore.Internal.Correction.Weighted>
   9.000000E+99

> <Gold.Protein.RotatedTorsions>
[ 6907 6896 6895 6894 ] final   74.23 input  -60.11 | X-H torsion
[ 7974 7965 7964 7962 ] final  -17.82 input  175.53 | X-H torsion
[ 8008 7997 7996 7995 ] final   96.01 input   59.86 | X-H torsion
[ 10167 10162 10161 10158 ] final -102.93 input  -65.29 | X-H torsion
[ 10718 10713 10712 10709 ] final  129.16 input   66.30 | X-H torsion
[ 10763 10752 10751 10750 ] final -160.00 input  -60.55 | X-H torsion
[ 11005 11000 10999 10996 ] final -149.92 input  -57.11 | X-H torsion

> <Gold.Protein.ActiveResidues>
 VAL166  LYS551  ARG553  GLY616  TRP617  ASP618  TYR619  PRO620  LYS621  CYS622 
 ASP623  PHE694  ASN695  SER759  ASP760  ASP761  ALA762  ILE779  LEU786  VAL792 
 PHE793  MET794  SER795  GLU796  ALA797  LYS798  CYS799  TRP800  GLU811  SER814 

> <Gold.Protein.RotatedAtoms>
  152.4965  134.4302  159.9509 H   0  0  0  0  0  0  0  0  0  0  0  0  # atno 6907 bound_to 6896
  151.4280  133.3672  159.2773 H   0  0  0  0  0  0  0  0  0  0  0  0  # atno 6908 bound_to 6896
  150.9175  134.8615  159.7526 H   0  0  0  0  0  0  0  0  0  0  0  0  # atno 6909 bound_to 6896
  146.1922  140.3834  142.8454 H   0  0  0  0  0  0  0  0  0  0  0  0  # atno 7974 bound_to 7965
  156.0751  140.3278  155.7623 H   0  0  0  0  0  0  0  0  0  0  0  0  # atno 8008 bound_to 7997
  155.5243  140.0588  157.2918 H   0  0  0  0  0  0  0  0  0  0  0  0  # atno 8009 bound_to 7997
  154.4551  140.1938  156.0421 H   0  0  0  0  0  0  0  0  0  0  0  0  # atno 8010 bound_to 7997
  140.2254  143.3645  152.0933 H   0  0  0  0  0  0  0  0  0  0  0  0  # atno 10167 bound_to 10162
  157.5179  131.1098  150.9197 H   0  0  0  0  0  0  0  0  0  0  0  0  # atno 10718 bound_to 10713
  154.7427  135.3072  154.8699 H   0  0  0  0  0  0  0  0  0  0  0  0  # atno 10763 bound_to 10752
  153.9509  135.6764  153.4748 H   0  0  0  0  0  0  0  0  0  0  0  0  # atno 10764 bound_to 10752
  153.1025  135.4905  154.8818 H   0  0  0  0  0  0  0  0  0  0  0  0  # atno 10765 bound_to 10752
  140.7457  134.3464  157.5137 H   0  0  0  0  0  0  0  0  0  0  0  0  # atno 11005 bound_to 11000
  144.8509  140.7000  143.6169 LP  0  0  0  0  0  0  0  0  0  0  0  0  # atno 17320 bound_to 7965
  145.3756  139.1648  143.4308 LP  0  0  0  0  0  0  0  0  0  0  0  0  # atno 17321 bound_to 7965
  139.5129  144.6924  151.5724 LP  0  0  0  0  0  0  0  0  0  0  0  0  # atno 17342 bound_to 10162
  140.6224  143.9232  150.6537 LP  0  0  0  0  0  0  0  0  0  0  0  0  # atno 17343 bound_to 10162
  156.9816  130.5529  149.5297 LP  0  0  0  0  0  0  0  0  0  0  0  0  # atno 17370 bound_to 10713
  156.0333  130.5423  150.8590 LP  0  0  0  0  0  0  0  0  0  0  0  0  # atno 17371 bound_to 10713
  139.8797  134.9109  156.3025 LP  0  0  0  0  0  0  0  0  0  0  0  0  # atno 17394 bound_to 11000
  140.9797  133.7275  156.0654 LP  0  0  0  0  0  0  0  0  0  0  0  0  # atno 17395 bound_to 11000

$$$$
