AV-unprocessed.smi:701|AV-procd|sdf|3413|dock8
  -GOLD-   22720 0393D 1   1.00000     0.00000
 Structure written by MMmdl.
 48 50  0  0  0  0  0  0  0  0  2 V2000
  151.1508  142.3486  158.5809 C   0  0  0  0  0  0  0  0  0  0  0  0
  151.0320  142.3328  157.0556 C   0  0  0  0  0  0  0  0  0  0  0  0
  150.3772  141.1377  156.6657 O   0  0  0  0  0  0  0  0  0  0  0  0
  149.9770  141.1332  155.3008 C   0  0  1  0  0  0  0  0  0  0  0  0
  150.8973  140.2698  154.4292 C   0  0  0  0  0  0  0  0  0  0  0  0
  149.9368  139.0966  154.6718 C   0  0  1  0  0  0  0  0  0  0  0  0
  150.3568  138.2770  155.8090 N   0  0  0  0  0  0  0  0  0  0  0  0
  151.0935  137.1613  155.7164 C   0  0  0  0  0  0  0  0  0  0  0  0
  151.4897  136.7063  154.6422 O   0  0  0  0  0  0  0  0  0  0  0  0
  151.4552  136.4871  157.0474 C   0  0  0  0  0  0  0  0  0  0  0  0
  152.3986  137.2711  157.8605 N   0  0  0  0  0  0  0  0  0  0  0  0
  151.9639  137.7028  159.1260 C   0  0  0  0  0  0  0  0  0  0  0  0
  152.7515  138.4350  159.9361 C   0  0  0  0  0  0  0  0  0  0  0  0
  154.0894  138.7787  159.4711 C   0  0  0  0  0  0  0  0  0  0  0  0
  154.8246  139.4420  160.1999 O   0  0  0  0  0  0  0  0  0  0  0  0
  154.4635  138.3403  158.2335 N   0  5  0  0  0  0  0  0  0  0  0  0
  153.6493  137.6006  157.4180 C   0  0  0  0  0  0  0  0  0  0  0  0
  154.0043  137.2214  156.3014 O   0  0  0  0  0  0  0  0  0  0  0  0
  148.8276  140.1277  155.0231 C   0  0  0  0  0  0  0  0  0  0  0  0
  147.8804  139.8014  156.1996 C   0  0  0  0  0  0  0  0  0  0  0  0
  146.9447  140.9693  156.5534 C   0  0  0  0  0  0  0  0  0  0  0  0
  146.0932  141.3809  155.3465 C   0  0  0  0  0  0  0  0  0  0  0  0
  146.9725  141.6731  154.1251 C   0  0  0  0  0  0  0  0  0  0  0  0
  147.9242  140.5005  153.8278 C   0  0  0  0  0  0  0  0  0  0  0  0
  151.6487  143.2554  158.9242 H   0  0  0  0  0  0  0  0  0  0  0  0
  151.7274  141.4943  158.9364 H   0  0  0  0  0  0  0  0  0  0  0  0
  150.1674  142.3085  159.0502 H   0  0  0  0  0  0  0  0  0  0  0  0
  150.4625  143.1990  156.7159 H   0  0  0  0  0  0  0  0  0  0  0  0
  152.0240  142.3936  156.6072 H   0  0  0  0  0  0  0  0  0  0  0  0
  149.7948  142.1334  154.9055 H   0  0  0  0  0  0  0  0  0  0  0  0
  150.9107  140.5913  153.3871 H   0  0  0  0  0  0  0  0  0  0  0  0
  151.9102  140.1322  154.8088 H   0  0  0  0  0  0  0  0  0  0  0  0
  149.7236  138.5172  153.7720 H   0  0  0  0  0  0  0  0  0  0  0  0
  150.0781  138.5897  156.7277 H   0  0  0  0  0  0  0  0  0  0  0  0
  150.5325  136.3167  157.6036 H   0  0  0  0  0  0  0  0  0  0  0  0
  151.8572  135.4914  156.8509 H   0  0  0  0  0  0  0  0  0  0  0  0
  150.9577  137.4121  159.3898 H   0  0  0  0  0  0  0  0  0  0  0  0
  152.4006  138.7630  160.9034 H   0  0  0  0  0  0  0  0  0  0  0  0
  147.2809  138.9221  155.9603 H   0  0  0  0  0  0  0  0  0  0  0  0
  148.4399  139.5340  157.0960 H   0  0  0  0  0  0  0  0  0  0  0  0
  146.2973  140.6893  157.3848 H   0  0  0  0  0  0  0  0  0  0  0  0
  147.5347  141.8208  156.8948 H   0  0  0  0  0  0  0  0  0  0  0  0
  145.3955  140.5779  155.1058 H   0  0  0  0  0  0  0  0  0  0  0  0
  145.4882  142.2541  155.5922 H   0  0  0  0  0  0  0  0  0  0  0  0
  146.3442  141.8711  153.2564 H   0  0  0  0  0  0  0  0  0  0  0  0
  147.5480  142.5825  154.2996 H   0  0  0  0  0  0  0  0  0  0  0  0
  148.5264  140.7550  152.9552 H   0  0  0  0  0  0  0  0  0  0  0  0
  147.3341  139.6336  153.5270 H   0  0  0  0  0  0  0  0  0  0  0  0
  1  2  1  0  0  0  0
  1 25  1  0  0  0  0
  1 26  1  0  0  0  0
  1 27  1  0  0  0  0
  2  3  1  0  0  0  0
  2 28  1  0  0  0  0
  2 29  1  0  0  0  0
  3  4  1  0  0  0  0
  4 19  1  0  0  0  0
  4  5  1  0  0  0  0
  4 30  1  0  0  0  0
  5  6  1  0  0  0  0
  5 31  1  0  0  0  0
  5 32  1  0  0  0  0
  6  7  1  0  0  0  0
  6 19  1  0  0  0  0
  6 33  1  0  0  0  0
  7  8  1  0  0  0  0
  7 34  1  0  0  0  0
  8  9  2  0  0  0  0
  8 10  1  0  0  0  0
 10 11  1  0  0  0  0
 10 35  1  0  0  0  0
 10 36  1  0  0  0  0
 11 17  1  0  0  0  0
 11 12  1  0  0  0  0
 12 13  2  0  0  0  0
 12 37  1  0  0  0  0
 13 14  1  0  0  0  0
 13 38  1  0  0  0  0
 14 15  2  0  0  0  0
 14 16  1  0  0  0  0
 16 17  1  0  0  0  0
 17 18  2  0  0  0  0
 19 24  1  0  0  0  0
 19 20  1  0  0  0  0
 20 21  1  0  0  0  0
 20 39  1  0  0  0  0
 20 40  1  0  0  0  0
 21 22  1  0  0  0  0
 21 41  1  0  0  0  0
 21 42  1  0  0  0  0
 22 23  1  0  0  0  0
 22 43  1  0  0  0  0
 22 44  1  0  0  0  0
 23 24  1  0  0  0  0
 23 45  1  0  0  0  0
 23 46  1  0  0  0  0
 24 47  1  0  0  0  0
 24 48  1  0  0  0  0
M  CHG  1  16  -1
M  END
> <s_m_source_file>
AV-unprocessed.smi

> <i_m_source_file_index>
701

> <i_lp_mmshare_version>
43012

> <i_f3d_flags>
0

> <s_epik_input>
W0NIMl0xW0NIMl1bQ0gyXVtDSDJdW0NIMl1DMTJbQ0BIXShPW0NIMl1bQ0gzXSlbQ0gyXVtDQEhdMltOSF1DKD1PKVtDSDJdbjNbY0hdW2NIXWMoPU8pW25IXWMzPU8=

> <s_epik_cmdline>
J2VwaWtfcHl0aG9uJywgJy1waCcsICc3LjAnLCAnLXRuJywgJzgnLCAnLW1hJywgJzIwMCcsICctbWV0YWxfYmluZGluZycsICctaW1hZScsICc8aW5maWxlLm1hZT4nLCAnLW9tYWUnLCAnPG91dGZpbGUubWFlPic=

> <r_lp_tautomer_probability>
0.999537

> <r_epik_Ionization_Penalty>
3.12423

> <r_epik_Ionization_Penalty_Charging>
2.92877e-08

> <r_epik_Ionization_Penalty_Neutral>
3.12423

> <r_epik_State_Penalty>
3.12332

> <r_epik_Charging_Adjusted_Penalty>
3.12332

> <i_epik_Tot_Q>
-1

> <i_epik_Tot_abs_Q>
1

> <r_epik_Metal_State_Penalty>
0.463873

> <b_epik_Metal_Only>
1

> <s_lp_Force_Field>
OPLS_2005

> <r_lp_Energy>
39.3964

> <b_lp_Chiralities_Consistent>
1

> <s_lp_Variant>
AV-unprocessed.smi:701-6

> <Gold.Version>
5.8.1

> <Gold.Id.Protein>
6NUR|6NUR_protein|mol2

> <Gold.PLP.Fitness>
36.0474

> <Gold.PLP.PLP>
-26.8974

> <Gold.PLP.part.hbond>
-3.0000

> <Gold.PLP.part.metal>
0.0000

> <Gold.PLP.part.buried>
-0.2003

> <Gold.PLP.part.nonpolar>
-22.9756

> <Gold.PLP.part.repulsive>
0.2209

> <Gold.PLP.ligand.clash>
0.0000

> <Gold.PLP.ligand.torsion>
0.7969

> <Gold.PLP.Chemscore.Hbond>
3.4640

> <Gold.PLP.Chemscore.CHOScore>
0.0000

> <Gold.PLP.Chemscore.Metal>
0.0000

> <Gold.Chemscore.Hbonds>
donor molecule, donor type, donor heavy atom, donor atom, acceptor molecule, acceptor atom, score
      P1  H  7997  8009       L1    16  2.00
      P1  H 10752 10763       L1     9  1.00
      P1  H 10752 10764       L1    18  0.34

> <Gold.PLP.Chemscore.Internal.Correction>
0.3518

> <Gold.Rescore>
     Score         DG    S(hbond)    S(metal)    S(lipo)     H(rot)  DE(clash)    DE(int)     intcor
     11.27     -15.04       1.81        0.00      74.62       2.04       1.53       2.24       ----

> <Gold.Chemscore.Fitness>
11.2688

> <Gold.Chemscore.DG>
-15.0363

> <Gold.Chemscore.ZeroCoef>
-5.4800

> <Gold.Chemscore.Hbond>
1.8106

> <Gold.Chemscore.Metal>
0.0000

> <Gold.Chemscore.Lipo>
74.6250

> <Gold.Chemscore.Internal_Hbond>
0.0000

> <Gold.Chemscore.DEClash>
1.5319

> <Gold.Chemscore.DEInternal>
2.2356

> <Gold.Chemscore.Rot>
2.0399

> <Gold.Chemscore.Internal.Correction>
   9.000000E+99

> <Gold.Chemscore.Hbonds>
donor molecule, donor type, donor heavy atom, donor atom, acceptor molecule, acceptor atom, score
      P1  H  7997  8009       L1    16  0.28
      P1  H 10752 10763       L1     9  0.98
      P1  H 10752 10764       L1    18  0.35

> <Gold.Chemscore.Hbond.Weighted>
-6.0473

> <Gold.Chemscore.Metal.Weighted>
-0.0000

> <Gold.Chemscore.Lipo.Weighted>
-8.7311

> <Gold.Chemscore.Internal_Hbond.Weighted>
0.0000

> <Gold.Chemscore.DEClash.Weighted>
1.5319

> <Gold.Chemscore.DEInternal.Weighted>
2.2356

> <Gold.Chemscore.Rot.Weighted>
5.2222

> <Gold.Chemscore.Internal.Correction.Weighted>
   9.000000E+99

> <Gold.Protein.RotatedTorsions>
[ 6907 6896 6895 6894 ] final   77.47 input  -60.11 | X-H torsion
[ 7974 7965 7964 7962 ] final   24.52 input  175.53 | X-H torsion
[ 8008 7997 7996 7995 ] final  129.95 input   59.86 | X-H torsion
[ 10167 10162 10161 10158 ] final  -36.91 input  -65.29 | X-H torsion
[ 10718 10713 10712 10709 ] final  113.72 input   66.30 | X-H torsion
[ 10763 10752 10751 10750 ] final   34.52 input  -60.55 | X-H torsion
[ 11005 11000 10999 10996 ] final   68.62 input  -57.11 | X-H torsion

> <Gold.Protein.ActiveResidues>
 VAL166  LYS551  ARG553  GLY616  TRP617  ASP618  TYR619  PRO620  LYS621  CYS622 
 ASP623  PHE694  ASN695  SER759  ASP760  ASP761  ALA762  ILE779  LEU786  VAL792 
 PHE793  MET794  SER795  GLU796  ALA797  LYS798  CYS799  TRP800  GLU811  SER814 

> <Gold.Protein.RotatedAtoms>
  152.5119  134.3811  159.9351 H   0  0  0  0  0  0  0  0  0  0  0  0  # atno 6907 bound_to 6896
  151.3769  133.3829  159.2713 H   0  0  0  0  0  0  0  0  0  0  0  0  # atno 6908 bound_to 6896
  150.9535  134.8952  159.7745 H   0  0  0  0  0  0  0  0  0  0  0  0  # atno 6909 bound_to 6896
  146.1933  139.7592  142.8816 H   0  0  0  0  0  0  0  0  0  0  0  0  # atno 7974 bound_to 7965
  156.2946  140.2608  156.2682 H   0  0  0  0  0  0  0  0  0  0  0  0  # atno 8008 bound_to 7997
  154.9721  140.0391  157.2257 H   0  0  0  0  0  0  0  0  0  0  0  0  # atno 8009 bound_to 7997
  154.7849  140.2801  155.6040 H   0  0  0  0  0  0  0  0  0  0  0  0  # atno 8010 bound_to 7997
  140.7131  143.3377  151.2427 H   0  0  0  0  0  0  0  0  0  0  0  0  # atno 10167 bound_to 10162
  157.6322  131.0988  150.7082 H   0  0  0  0  0  0  0  0  0  0  0  0  # atno 10718 bound_to 10713
  153.0160  135.6358  154.1681 H   0  0  0  0  0  0  0  0  0  0  0  0  # atno 10763 bound_to 10752
  154.1420  135.2834  155.3160 H   0  0  0  0  0  0  0  0  0  0  0  0  # atno 10764 bound_to 10752
  154.6117  135.5554  153.7542 H   0  0  0  0  0  0  0  0  0  0  0  0  # atno 10765 bound_to 10752
  139.9701  134.6915  156.0465 H   0  0  0  0  0  0  0  0  0  0  0  0  # atno 11005 bound_to 11000
  145.3723  141.0345  143.3224 LP  0  0  0  0  0  0  0  0  0  0  0  0  # atno 17320 bound_to 7965
  144.8530  139.5293  143.6848 LP  0  0  0  0  0  0  0  0  0  0  0  0  # atno 17321 bound_to 7965
  139.6876  143.9747  152.2842 LP  0  0  0  0  0  0  0  0  0  0  0  0  # atno 17342 bound_to 10162
  139.9398  144.6689  150.8278 LP  0  0  0  0  0  0  0  0  0  0  0  0  # atno 17343 bound_to 10162
  156.7419  130.4741  149.5475 LP  0  0  0  0  0  0  0  0  0  0  0  0  # atno 17370 bound_to 10713
  156.1534  130.6325  151.0625 LP  0  0  0  0  0  0  0  0  0  0  0  0  # atno 17371 bound_to 10713
  141.1380  133.6571  156.3649 LP  0  0  0  0  0  0  0  0  0  0  0  0  # atno 17394 bound_to 11000
  140.5313  134.6210  157.5350 LP  0  0  0  0  0  0  0  0  0  0  0  0  # atno 17395 bound_to 11000

$$$$
