AV-unprocessed.smi:2888|AV-procd|sdf|11106|dock3
  -GOLD-   2272015573D 1   1.00000     0.00000
 Structure written by MMmdl.
 34 36  0  0  0  0  0  0  0  0  2 V2000
  152.5244  140.1097  159.3345 C   0  0  0  0  0  0  0  0  0  0  0  0
  151.9569  141.3545  158.6856 C   0  0  0  0  0  0  0  0  0  0  0  0
  152.4218  142.6388  159.0171 C   0  0  0  0  0  0  0  0  0  0  0  0
  151.8186  143.7215  158.3480 C   0  0  0  0  0  0  0  0  0  0  0  0
  152.2222  145.1563  158.6129 C   0  0  0  0  0  0  0  0  0  0  0  0
  150.8401  143.4974  157.4354 N   0  3  0  0  0  0  0  0  0  0  0  0
  150.4443  142.2430  157.1699 C   0  0  0  0  0  0  0  0  0  0  0  0
  149.4403  142.0753  156.2333 N   0  0  0  0  0  0  0  0  0  0  0  0
  148.9014  140.7797  155.8358 C   0  0  2  0  0  0  0  0  0  0  0  0
  149.2626  140.3887  154.4005 C   0  0  0  0  0  0  0  0  0  0  0  0
  147.8822  140.0820  153.8019 C   0  0  2  0  0  0  0  0  0  0  0  0
  147.0931  141.3673  153.5223 C   0  0  0  0  0  0  0  0  0  0  0  0
  146.7149  141.8123  154.9339 C   0  0  0  0  0  0  0  0  0  0  0  0
  147.3616  140.7161  155.7984 C   0  0  1  0  0  0  0  0  0  0  0  0
  147.1932  139.5983  154.9432 O   0  0  0  0  0  0  0  0  0  0  0  0
  150.9809  141.1725  157.7737 N   0  0  0  0  0  0  0  0  0  0  0  0
  153.3650  140.3527  159.9852 H   0  0  0  0  0  0  0  0  0  0  0  0
  152.8748  139.4101  158.5750 H   0  0  0  0  0  0  0  0  0  0  0  0
  151.7610  139.6133  159.9343 H   0  0  0  0  0  0  0  0  0  0  0  0
  153.2026  142.7880  159.7491 H   0  0  0  0  0  0  0  0  0  0  0  0
  153.1025  145.2046  159.2546 H   0  0  0  0  0  0  0  0  0  0  0  0
  151.4108  145.6927  159.1055 H   0  0  0  0  0  0  0  0  0  0  0  0
  152.4552  145.6670  157.6782 H   0  0  0  0  0  0  0  0  0  0  0  0
  148.9461  142.9026  155.9328 H   0  0  0  0  0  0  0  0  0  0  0  0
  149.2806  140.0134  156.5137 H   0  0  0  0  0  0  0  0  0  0  0  0
  149.7816  141.1722  153.8462 H   0  0  0  0  0  0  0  0  0  0  0  0
  149.8946  139.4999  154.3987 H   0  0  0  0  0  0  0  0  0  0  0  0
  147.9076  139.3873  152.9618 H   0  0  0  0  0  0  0  0  0  0  0  0
  147.6851  142.1101  152.9867 H   0  0  0  0  0  0  0  0  0  0  0  0
  146.1985  141.1556  152.9354 H   0  0  0  0  0  0  0  0  0  0  0  0
  147.0691  142.8148  155.1746 H   0  0  0  0  0  0  0  0  0  0  0  0
  145.6311  141.8028  155.0544 H   0  0  0  0  0  0  0  0  0  0  0  0
  146.8987  140.5981  156.7787 H   0  0  0  0  0  0  0  0  0  0  0  0
  150.4112  144.2913  156.9594 H   0  0  0  0  0  0  0  0  0  0  0  0
  1  2  1  0  0  0  0
  1 17  1  0  0  0  0
  1 18  1  0  0  0  0
  1 19  1  0  0  0  0
  2 16  1  0  0  0  0
  2  3  2  0  0  0  0
  3  4  1  0  0  0  0
  3 20  1  0  0  0  0
  4  5  1  0  0  0  0
  4  6  2  0  0  0  0
  5 21  1  0  0  0  0
  5 22  1  0  0  0  0
  5 23  1  0  0  0  0
  6  7  1  0  0  0  0
  6 34  1  0  0  0  0
  7  8  1  0  0  0  0
  7 16  2  0  0  0  0
  8  9  1  0  0  0  0
  8 24  1  0  0  0  0
  9 14  1  0  0  0  0
  9 10  1  0  0  0  0
  9 25  1  0  0  0  0
 10 11  1  0  0  0  0
 10 26  1  0  0  0  0
 10 27  1  0  0  0  0
 11 15  1  0  0  0  0
 11 12  1  0  0  0  0
 11 28  1  0  0  0  0
 12 13  1  0  0  0  0
 12 29  1  0  0  0  0
 12 30  1  0  0  0  0
 13 14  1  0  0  0  0
 13 31  1  0  0  0  0
 13 32  1  0  0  0  0
 14 15  1  0  0  0  0
 14 33  1  0  0  0  0
M  CHG  1   6   1
M  END
> <s_m_source_file>
AV-unprocessed.smi

> <i_m_source_file_index>
2888

> <i_lp_mmshare_version>
43012

> <i_f3d_flags>
0

> <s_epik_input>
W0NIM11jMVtjSF1jKFtDSDNdKW5jKG4xKVtOSF1bQ0BIXShbQ0gyXVtDQEBIXTIzKVtDQEBIXShPMylbQ0gyXVtDSDJdMg==

> <s_epik_cmdline>
J2VwaWtfcHl0aG9uJywgJy1waCcsICc3LjAnLCAnLXRuJywgJzgnLCAnLW1hJywgJzIwMCcsICctbWV0YWxfYmluZGluZycsICctaW1hZScsICc8aW5maWxlLm1hZT4nLCAnLW9tYWUnLCAnPG91dGZpbGUubWFlPic=

> <r_lp_tautomer_probability>
0.505494

> <r_epik_Ionization_Penalty>
2.49163

> <r_epik_Ionization_Penalty_Charging>
2.49163

> <r_epik_Ionization_Penalty_Neutral>
3.7631e-06

> <r_epik_State_Penalty>
2.656

> <r_epik_Charging_Adjusted_Penalty>
5.14762

> <i_epik_Tot_Q>
1

> <i_epik_Tot_abs_Q>
1

> <r_epik_Metal_State_Penalty>
2.66479

> <b_epik_Metal_Only>
0

> <s_lp_Force_Field>
OPLS_2005

> <r_lp_Energy>
36.4538

> <b_lp_Chiralities_Consistent>
1

> <s_lp_Variant>
AV-unprocessed.smi:2888-7

> <Gold.Version>
5.8.1

> <Gold.Id.Protein>
6NUR|6NUR_protein|mol2

> <Gold.PLP.Fitness>
42.1977

> <Gold.PLP.PLP>
-31.3264

> <Gold.PLP.part.hbond>
-2.0000

> <Gold.PLP.part.metal>
0.0000

> <Gold.PLP.part.buried>
-4.3981

> <Gold.PLP.part.nonpolar>
-25.3403

> <Gold.PLP.part.repulsive>
0.1464

> <Gold.PLP.ligand.clash>
0.0000

> <Gold.PLP.ligand.torsion>
0.1127

> <Gold.PLP.Chemscore.Hbond>
3.6960

> <Gold.PLP.Chemscore.CHOScore>
0.0000

> <Gold.PLP.Chemscore.Metal>
0.0000

> <Gold.Chemscore.Hbonds>
donor molecule, donor type, donor heavy atom, donor atom, acceptor molecule, acceptor atom, score
      L1  H     6    34       P1  8028  1.70
      L1  H     8    24       P1  8028  2.00

> <Gold.PLP.Chemscore.Internal.Correction>
0.0087

> <Gold.Rescore>
     Score         DG    S(hbond)    S(metal)    S(lipo)     H(rot)  DE(clash)    DE(int)     intcor
     18.74     -18.89       1.77        0.00      85.96       1.00       0.04       0.11       ----

> <Gold.Chemscore.Fitness>
18.7372

> <Gold.Chemscore.DG>
-18.8906

> <Gold.Chemscore.ZeroCoef>
-5.4800

> <Gold.Chemscore.Hbond>
1.7704

> <Gold.Chemscore.Metal>
0.0000

> <Gold.Chemscore.Lipo>
85.9626

> <Gold.Chemscore.Internal_Hbond>
0.0000

> <Gold.Chemscore.DEClash>
0.0424

> <Gold.Chemscore.DEInternal>
0.1109

> <Gold.Chemscore.Rot>
1.0000

> <Gold.Chemscore.Internal.Correction>
   9.000000E+99

> <Gold.Chemscore.Hbonds>
donor molecule, donor type, donor heavy atom, donor atom, acceptor molecule, acceptor atom, score
      L1  H     6    34       P1  8028  0.73
      L1  H     8    24       P1  8028  0.95

> <Gold.Chemscore.Hbond.Weighted>
-5.9130

> <Gold.Chemscore.Metal.Weighted>
-0.0000

> <Gold.Chemscore.Lipo.Weighted>
-10.0576

> <Gold.Chemscore.Internal_Hbond.Weighted>
0.0000

> <Gold.Chemscore.DEClash.Weighted>
0.0424

> <Gold.Chemscore.DEInternal.Weighted>
0.1109

> <Gold.Chemscore.Rot.Weighted>
2.5600

> <Gold.Chemscore.Internal.Correction.Weighted>
   9.000000E+99

> <Gold.Protein.RotatedTorsions>
[ 6907 6896 6895 6894 ] final   81.15 input  -60.11 | X-H torsion
[ 7974 7965 7964 7962 ] final   73.90 input  175.53 | X-H torsion
[ 8008 7997 7996 7995 ] final  -64.35 input   59.86 | X-H torsion
[ 10167 10162 10161 10158 ] final -172.02 input  -65.29 | X-H torsion
[ 10718 10713 10712 10709 ] final   18.93 input   66.30 | X-H torsion
[ 10763 10752 10751 10750 ] final  110.47 input  -60.55 | X-H torsion
[ 11005 11000 10999 10996 ] final  179.31 input  -57.11 | X-H torsion

> <Gold.Protein.ActiveResidues>
 VAL166  LYS551  ARG553  GLY616  TRP617  ASP618  TYR619  PRO620  LYS621  CYS622 
 ASP623  PHE694  ASN695  SER759  ASP760  ASP761  ALA762  ILE779  LEU786  VAL792 
 PHE793  MET794  SER795  GLU796  ALA797  LYS798  CYS799  TRP800  GLU811  SER814 

> <Gold.Protein.RotatedAtoms>
  152.5259  134.3249  159.9161 H   0  0  0  0  0  0  0  0  0  0  0  0  # atno 6907 bound_to 6896
  151.3198  133.4038  159.2661 H   0  0  0  0  0  0  0  0  0  0  0  0  # atno 6908 bound_to 6896
  150.9969  134.9307  159.7989 H   0  0  0  0  0  0  0  0  0  0  0  0  # atno 6909 bound_to 6896
  145.7350  139.2698  143.1519 H   0  0  0  0  0  0  0  0  0  0  0  0  # atno 7974 bound_to 7965
  154.4606  140.0956  156.6883 H   0  0  0  0  0  0  0  0  0  0  0  0  # atno 8008 bound_to 7997
  155.5005  140.3473  155.4352 H   0  0  0  0  0  0  0  0  0  0  0  0  # atno 8009 bound_to 7997
  156.0863  140.1386  156.9637 H   0  0  0  0  0  0  0  0  0  0  0  0  # atno 8010 bound_to 7997
  139.5769  144.1513  152.1462 H   0  0  0  0  0  0  0  0  0  0  0  0  # atno 10167 bound_to 10162
  157.1033  130.6477  149.5878 H   0  0  0  0  0  0  0  0  0  0  0  0  # atno 10718 bound_to 10713
  153.4495  135.3747  155.2275 H   0  0  0  0  0  0  0  0  0  0  0  0  # atno 10763 bound_to 10752
  154.8756  135.3882  154.4055 H   0  0  0  0  0  0  0  0  0  0  0  0  # atno 10764 bound_to 10752
  153.4613  135.7086  153.6113 H   0  0  0  0  0  0  0  0  0  0  0  0  # atno 10765 bound_to 10752
  140.4048  134.6745  157.4582 H   0  0  0  0  0  0  0  0  0  0  0  0  # atno 11005 bound_to 11000
  146.0502  140.8077  142.9785 LP  0  0  0  0  0  0  0  0  0  0  0  0  # atno 17320 bound_to 7965
  144.6884  140.3041  143.7258 LP  0  0  0  0  0  0  0  0  0  0  0  0  # atno 17321 bound_to 7965
  140.1057  144.5500  150.6958 LP  0  0  0  0  0  0  0  0  0  0  0  0  # atno 17342 bound_to 10162
  140.7050  143.2462  151.4752 LP  0  0  0  0  0  0  0  0  0  0  0  0  # atno 17343 bound_to 10162
  155.9868  130.4904  150.7096 LP  0  0  0  0  0  0  0  0  0  0  0  0  # atno 17370 bound_to 10713
  157.4622  131.0884  151.0733 LP  0  0  0  0  0  0  0  0  0  0  0  0  # atno 17371 bound_to 10713
  140.0310  134.6406  155.9107 LP  0  0  0  0  0  0  0  0  0  0  0  0  # atno 17394 bound_to 11000
  141.1843  133.6552  156.5153 LP  0  0  0  0  0  0  0  0  0  0  0  0  # atno 17395 bound_to 11000

$$$$
