AV-unprocessed.smi:814|AV-procd|sdf|3824|dock7
  -GOLD-   22720 1263D 1   1.00000     0.00000
 Structure written by MMmdl.
 36 37  0  0  0  0  0  0  0  0  1 V2000
  151.4784  144.4251  159.5575 C   0  0  0  0  0  0  0  0  0  0  0  0
  152.1806  143.2565  160.0528 N   0  0  0  0  0  0  0  0  0  0  0  0
  152.7931  143.1368  161.2932 C   0  0  0  0  0  0  0  0  0  0  0  0
  153.3404  141.8773  161.3422 C   0  0  0  0  0  0  0  0  0  0  0  0
  153.0767  141.2125  160.1492 N   0  0  0  0  0  0  0  0  0  0  0  0
  152.3753  142.0802  159.4258 C   0  0  0  0  0  0  0  0  0  0  0  0
  151.8788  141.8005  158.0418 C   0  0  0  0  0  0  0  0  0  0  0  0
  151.1438  140.4539  157.9417 C   0  0  0  0  0  0  0  0  0  0  0  0
  150.2557  140.4147  156.7860 N   0  0  0  0  0  0  0  0  0  0  0  0
  150.6624  140.3533  155.5085 C   0  0  0  0  0  0  0  0  0  0  0  0
  151.8491  140.3090  155.1814 O   0  0  0  0  0  0  0  0  0  0  0  0
  149.5644  140.3434  154.4366 C   0  0  1  0  0  0  0  0  0  0  0  0
  148.8944  138.9532  154.3398 C   0  0  0  0  0  0  0  0  0  0  0  0
  147.6377  138.9784  153.4880 C   0  0  0  0  0  0  0  0  0  0  0  0
  146.9996  140.1105  153.1452 C   0  0  0  0  0  0  0  0  0  0  0  0
  147.4604  141.4924  153.5738 C   0  0  0  0  0  0  0  0  0  0  0  0
  148.5079  141.4347  154.7019 C   0  0  0  0  0  0  0  0  0  0  0  0
  151.6277  145.2676  160.2330 H   0  0  0  0  0  0  0  0  0  0  0  0
  150.4117  144.2113  159.4887 H   0  0  0  0  0  0  0  0  0  0  0  0
  151.8546  144.6962  158.5708 H   0  0  0  0  0  0  0  0  0  0  0  0
  152.7915  143.9369  162.0186 H   0  0  0  0  0  0  0  0  0  0  0  0
  153.8989  141.4031  162.1356 H   0  0  0  0  0  0  0  0  0  0  0  0
  151.2083  142.6086  157.7468 H   0  0  0  0  0  0  0  0  0  0  0  0
  152.7167  141.8355  157.3449 H   0  0  0  0  0  0  0  0  0  0  0  0
  151.8577  139.6302  157.8892 H   0  0  0  0  0  0  0  0  0  0  0  0
  150.5464  140.2885  158.8387 H   0  0  0  0  0  0  0  0  0  0  0  0
  149.2631  140.4437  156.9695 H   0  0  0  0  0  0  0  0  0  0  0  0
  150.0273  140.5625  153.4723 H   0  0  0  0  0  0  0  0  0  0  0  0
  149.5936  138.2375  153.9057 H   0  0  0  0  0  0  0  0  0  0  0  0
  148.6220  138.5730  155.3255 H   0  0  0  0  0  0  0  0  0  0  0  0
  147.2490  138.0240  153.1647 H   0  0  0  0  0  0  0  0  0  0  0  0
  146.1161  140.0620  152.5256 H   0  0  0  0  0  0  0  0  0  0  0  0
  147.8747  141.9952  152.6995 H   0  0  0  0  0  0  0  0  0  0  0  0
  146.5981  142.0756  153.8975 H   0  0  0  0  0  0  0  0  0  0  0  0
  148.0020  141.2293  155.6469 H   0  0  0  0  0  0  0  0  0  0  0  0
  148.9801  142.4119  154.8128 H   0  0  0  0  0  0  0  0  0  0  0  0
  1  2  1  0  0  0  0
  1 18  1  0  0  0  0
  1 19  1  0  0  0  0
  1 20  1  0  0  0  0
  2  6  1  0  0  0  0
  2  3  1  0  0  0  0
  3  4  2  0  0  0  0
  3 21  1  0  0  0  0
  4  5  1  0  0  0  0
  4 22  1  0  0  0  0
  5  6  2  0  0  0  0
  6  7  1  0  0  0  0
  7  8  1  0  0  0  0
  7 23  1  0  0  0  0
  7 24  1  0  0  0  0
  8  9  1  0  0  0  0
  8 25  1  0  0  0  0
  8 26  1  0  0  0  0
  9 10  1  0  0  0  0
  9 27  1  0  0  0  0
 10 11  2  0  0  0  0
 10 12  1  0  0  0  0
 12 17  1  0  0  0  0
 12 13  1  0  0  0  0
 12 28  1  0  0  0  0
 13 14  1  0  0  0  0
 13 29  1  0  0  0  0
 13 30  1  0  0  0  0
 14 15  2  0  0  0  0
 14 31  1  0  0  0  0
 15 16  1  0  0  0  0
 15 32  1  0  0  0  0
 16 17  1  0  0  0  0
 16 33  1  0  0  0  0
 16 34  1  0  0  0  0
 17 35  1  0  0  0  0
 17 36  1  0  0  0  0
M  END
> <s_m_source_file>
AV-unprocessed.smi

> <i_m_source_file_index>
814

> <i_lp_mmshare_version>
43012

> <i_f3d_flags>
0

> <s_epik_input>
W0NIM11uMVtjSF1bY0hdbmMxW0NIMl1bQ0gyXVtOSF1DKD1PKVtDQEBIXTJbQ0gyXVtDSF09W0NIXVtDSDJdW0NIMl0y

> <s_epik_cmdline>
J2VwaWtfcHl0aG9uJywgJy1waCcsICc3LjAnLCAnLXRuJywgJzgnLCAnLW1hJywgJzIwMCcsICctbWV0YWxfYmluZGluZycsICctaW1hZScsICc8aW5maWxlLm1hZT4nLCAnLW9tYWUnLCAnPG91dGZpbGUubWFlPic=

> <r_lp_tautomer_probability>
1

> <r_epik_Ionization_Penalty>
1.21249

> <r_epik_Ionization_Penalty_Charging>
1.21249

> <r_epik_Ionization_Penalty_Neutral>
1.60917e-08

> <r_epik_State_Penalty>
1.27906

> <r_epik_Charging_Adjusted_Penalty>
2.49154

> <i_epik_Tot_Q>
0

> <i_epik_Tot_abs_Q>
0

> <r_epik_Metal_State_Penalty>
0.409603

> <b_epik_Metal_Only>
0

> <s_lp_Force_Field>
OPLS_2005

> <r_lp_Energy>
6.01065

> <b_lp_Chiralities_Consistent>
1

> <s_lp_Variant>
AV-unprocessed.smi:814-4

> <Gold.Version>
5.8.1

> <Gold.Id.Protein>
6NUR|6NUR_protein|mol2

> <Gold.PLP.Fitness>
41.3918

> <Gold.PLP.PLP>
-40.5254

> <Gold.PLP.part.hbond>
-1.0000

> <Gold.PLP.part.metal>
0.0000

> <Gold.PLP.part.buried>
-4.0321

> <Gold.PLP.part.nonpolar>
-34.6018

> <Gold.PLP.part.repulsive>
0.0516

> <Gold.PLP.ligand.clash>
0.0000

> <Gold.PLP.ligand.torsion>
0.6396

> <Gold.PLP.Chemscore.Hbond>
0.7072

> <Gold.PLP.Chemscore.CHOScore>
0.0000

> <Gold.PLP.Chemscore.Metal>
0.0000

> <Gold.Chemscore.Hbonds>
donor molecule, donor type, donor heavy atom, donor atom, acceptor molecule, acceptor atom, score
      P1  H  7989  7998       L1    11  0.72

> <Gold.PLP.Chemscore.Internal.Correction>
0.0240

> <Gold.Rescore>
     Score         DG    S(hbond)    S(metal)    S(lipo)     H(rot)  DE(clash)    DE(int)     intcor
     13.22     -13.96       0.81        0.00      83.82       1.58       0.18       0.56       ----

> <Gold.Chemscore.Fitness>
13.2180

> <Gold.Chemscore.DG>
-13.9594

> <Gold.Chemscore.ZeroCoef>
-5.4800

> <Gold.Chemscore.Hbond>
0.8144

> <Gold.Chemscore.Metal>
0.0000

> <Gold.Chemscore.Lipo>
83.8169

> <Gold.Chemscore.Internal_Hbond>
0.0000

> <Gold.Chemscore.DEClash>
0.1831

> <Gold.Chemscore.DEInternal>
0.5584

> <Gold.Chemscore.Rot>
1.5809

> <Gold.Chemscore.Internal.Correction>
   9.000000E+99

> <Gold.Chemscore.Hbonds>
donor molecule, donor type, donor heavy atom, donor atom, acceptor molecule, acceptor atom, score
      P1  H  7989  7998       L1    11  0.14

> <Gold.Chemscore.Hbond.Weighted>
-2.7201

> <Gold.Chemscore.Metal.Weighted>
-0.0000

> <Gold.Chemscore.Lipo.Weighted>
-9.8066

> <Gold.Chemscore.Internal_Hbond.Weighted>
0.0000

> <Gold.Chemscore.DEClash.Weighted>
0.1831

> <Gold.Chemscore.DEInternal.Weighted>
0.5584

> <Gold.Chemscore.Rot.Weighted>
4.0472

> <Gold.Chemscore.Internal.Correction.Weighted>
   9.000000E+99

> <Gold.Protein.RotatedTorsions>
[ 6907 6896 6895 6894 ] final  -47.13 input  -60.11 | X-H torsion
[ 7974 7965 7964 7962 ] final  -17.11 input  175.53 | X-H torsion
[ 8008 7997 7996 7995 ] final  121.42 input   59.86 | X-H torsion
[ 10167 10162 10161 10158 ] final   70.29 input  -65.29 | X-H torsion
[ 10718 10713 10712 10709 ] final -174.01 input   66.30 | X-H torsion
[ 10763 10752 10751 10750 ] final -159.49 input  -60.55 | X-H torsion
[ 11005 11000 10999 10996 ] final -152.79 input  -57.11 | X-H torsion

> <Gold.Protein.ActiveResidues>
 VAL166  LYS551  ARG553  GLY616  TRP617  ASP618  TYR619  PRO620  LYS621  CYS622 
 ASP623  PHE694  ASN695  SER759  ASP760  ASP761  ALA762  ILE779  LEU786  VAL792 
 PHE793  MET794  SER795  GLU796  ALA797  LYS798  CYS799  TRP800  GLU811  SER814 

> <Gold.Protein.RotatedAtoms>
  150.9040  134.8454  159.7379 H   0  0  0  0  0  0  0  0  0  0  0  0  # atno 6907 bound_to 6896
  152.4908  134.4459  159.9568 H   0  0  0  0  0  0  0  0  0  0  0  0  # atno 6908 bound_to 6896
  151.4508  133.3579  159.2830 H   0  0  0  0  0  0  0  0  0  0  0  0  # atno 6909 bound_to 6896
  146.1956  140.3732  142.8442 H   0  0  0  0  0  0  0  0  0  0  0  0  # atno 7974 bound_to 7965
  156.2685  140.2809  156.1305 H   0  0  0  0  0  0  0  0  0  0  0  0  # atno 8008 bound_to 7997
  155.1059  140.0390  157.2728 H   0  0  0  0  0  0  0  0  0  0  0  0  # atno 8009 bound_to 7997
  154.6779  140.2602  155.6944 H   0  0  0  0  0  0  0  0  0  0  0  0  # atno 8010 bound_to 7997
  140.0586  144.5252  150.7311 H   0  0  0  0  0  0  0  0  0  0  0  0  # atno 10167 bound_to 10162
  156.7787  130.9475  151.3120 H   0  0  0  0  0  0  0  0  0  0  0  0  # atno 10718 bound_to 10713
  154.7471  135.3083  154.8626 H   0  0  0  0  0  0  0  0  0  0  0  0  # atno 10763 bound_to 10752
  153.9423  135.6773  153.4748 H   0  0  0  0  0  0  0  0  0  0  0  0  # atno 10764 bound_to 10752
  153.1067  135.4886  154.8890 H   0  0  0  0  0  0  0  0  0  0  0  0  # atno 10765 bound_to 10752
  140.7151  134.3789  157.5192 H   0  0  0  0  0  0  0  0  0  0  0  0  # atno 11005 bound_to 11000
  144.8574  140.7091  143.6129 LP  0  0  0  0  0  0  0  0  0  0  0  0  # atno 17320 bound_to 7965
  145.3653  139.1672  143.4361 LP  0  0  0  0  0  0  0  0  0  0  0  0  # atno 17321 bound_to 7965
  140.7183  143.2564  151.4363 LP  0  0  0  0  0  0  0  0  0  0  0  0  # atno 17342 bound_to 10162
  139.5908  144.1503  152.2086 LP  0  0  0  0  0  0  0  0  0  0  0  0  # atno 17343 bound_to 10162
  157.6656  130.9005  149.9926 LP  0  0  0  0  0  0  0  0  0  0  0  0  # atno 17370 bound_to 10713
  156.1231  130.3645  149.9854 LP  0  0  0  0  0  0  0  0  0  0  0  0  # atno 17371 bound_to 10713
  139.8862  134.8917  156.2600 LP  0  0  0  0  0  0  0  0  0  0  0  0  # atno 17394 bound_to 11000
  141.0051  133.7128  156.1022 LP  0  0  0  0  0  0  0  0  0  0  0  0  # atno 17395 bound_to 11000

$$$$
