AV-unprocessed.smi:44|AV-procd|sdf|400|dock10
  -GOLD-   2262016253D 1   1.00000     0.00000
 Structure written by MMmdl.
 29 31  0  0  0  0  0  0  0  0  3 V2000
  149.1270  141.5945  154.9573 O   0  0  0  0  0  0  0  0  0  0  0  0
  150.0816  141.1005  155.5535 C   0  0  0  0  0  0  0  0  0  0  0  0
  150.6483  139.8655  155.3633 N   0  5  0  0  0  0  0  0  0  0  0  0
  151.7335  139.4338  156.1182 C   0  0  0  0  0  0  0  0  0  0  0  0
  152.3411  140.0759  157.0523 N   0  0  0  0  0  0  0  0  0  0  0  0
  151.8332  141.3557  157.3211 C   0  0  0  0  0  0  0  0  0  0  0  0
  150.7632  141.8838  156.6368 C   0  0  0  0  0  0  0  0  0  0  0  0
  150.4888  143.1387  157.1106 N   0  3  0  0  0  0  0  0  0  0  0  0
  151.4055  143.3148  158.0622 C   0  0  0  0  0  0  0  0  0  0  0  0
  152.2636  142.2679  158.2510 N   0  0  0  0  0  0  0  0  0  0  0  0
  153.3823  142.1796  159.2349 C   0  0  2  0  0  0  0  0  0  0  0  0
  153.3664  140.8181  159.9392 C   0  0  0  0  0  0  0  0  0  0  0  0
  153.6447  141.2136  161.3728 C   0  0  0  0  0  0  0  0  0  0  0  0
  152.9072  142.5483  161.4640 C   0  0  1  0  0  0  0  0  0  0  0  0
  153.3665  143.4535  162.6154 C   0  0  0  0  0  0  0  0  0  0  0  0
  152.6024  144.6400  162.6343 O   0  0  0  0  0  0  0  0  0  0  0  0
  153.1935  143.1626  160.2117 O   0  0  0  0  0  0  0  0  0  0  0  0
  149.7650  143.7790  156.8104 H   0  0  0  0  0  0  0  0  0  0  0  0
  154.2910  142.3752  158.6640 H   0  0  0  0  0  0  0  0  0  0  0  0
  151.8311  142.3764  161.5237 H   0  0  0  0  0  0  0  0  0  0  0  0
  152.0541  138.4286  155.8332 H   0  0  0  0  0  0  0  0  0  0  0  0
  151.4683  144.2170  158.6428 H   0  0  0  0  0  0  0  0  0  0  0  0
  152.3812  140.3561  159.8561 H   0  0  0  0  0  0  0  0  0  0  0  0
  154.1129  140.1459  159.5154 H   0  0  0  0  0  0  0  0  0  0  0  0
  153.2877  140.4789  162.0948 H   0  0  0  0  0  0  0  0  0  0  0  0
  154.7164  141.3523  161.5241 H   0  0  0  0  0  0  0  0  0  0  0  0
  153.2775  142.9440  163.5752 H   0  0  0  0  0  0  0  0  0  0  0  0
  154.4155  143.7216  162.4870 H   0  0  0  0  0  0  0  0  0  0  0  0
  153.1597  145.3604  162.3819 H   0  0  0  0  0  0  0  0  0  0  0  0
  1  2  2  0  0  0  0
  2  7  1  0  0  0  0
  2  3  1  0  0  0  0
  3  4  1  0  0  0  0
  4 21  1  0  0  0  0
  4  5  2  0  0  0  0
  5  6  1  0  0  0  0
  6 10  1  0  0  0  0
  6  7  2  0  0  0  0
  7  8  1  0  0  0  0
  8  9  2  0  0  0  0
  8 18  1  0  0  0  0
  9 10  1  0  0  0  0
  9 22  1  0  0  0  0
 10 11  1  0  0  0  0
 11 19  1  0  0  0  0
 11 17  1  0  0  0  0
 11 12  1  0  0  0  0
 12 13  1  0  0  0  0
 12 23  1  0  0  0  0
 12 24  1  0  0  0  0
 13 14  1  0  0  0  0
 13 25  1  0  0  0  0
 13 26  1  0  0  0  0
 14 20  1  0  0  0  0
 14 15  1  0  0  0  0
 14 17  1  0  0  0  0
 15 16  1  0  0  0  0
 15 27  1  0  0  0  0
 15 28  1  0  0  0  0
 16 29  1  0  0  0  0
M  CHG  1   3  -1
M  CHG  1   8   1
M  END
> <s_m_source_file>
AV-unprocessed.smi

> <i_m_source_file_index>
44

> <i_lp_mmshare_version>
43012

> <i_f3d_flags>
0

> <s_epik_input>
bjFbY0hdW25IXWMoPU8pYyhjMTIpbltjSF1uMltDQEhdM1tDSDJdW0NIMl1bQ0BIXShPMylbQ0gyXVtPSF0=

> <s_epik_cmdline>
J2VwaWtfcHl0aG9uJywgJy1waCcsICc3LjAnLCAnLXRuJywgJzgnLCAnLW1hJywgJzIwMCcsICctbWV0YWxfYmluZGluZycsICctaW1hZScsICc8aW5maWxlLm1hZT4nLCAnLW9tYWUnLCAnPG91dGZpbGUubWFlPic=

> <r_lp_tautomer_probability>
0.144281

> <r_epik_Ionization_Penalty>
5.63685

> <r_epik_Ionization_Penalty_Charging>
5.58669

> <r_epik_Ionization_Penalty_Neutral>
0.0501585

> <r_epik_State_Penalty>
1.20809

> <r_epik_Charging_Adjusted_Penalty>
6.79478

> <i_epik_Tot_Q>
0

> <i_epik_Tot_abs_Q>
2

> <r_epik_Metal_State_Penalty>
1.52487

> <b_epik_Metal_Only>
0

> <s_epik_Chemistry_Notes>
This compound contains an acetal/aminal-like group ( X-CH(R)-Y where X, Y are N, S, or O) that may be acid/base labile, releasing an aldehyde.

> <s_lp_Force_Field>
OPLS_2005

> <r_lp_Energy>
45.8443

> <b_lp_Chiralities_Consistent>
1

> <s_lp_Variant>
AV-unprocessed.smi:44-6

> <Gold.Version>
5.8.1

> <Gold.Id.Protein>
6NUR|6NUR_protein|mol2

> <Gold.PLP.Fitness>
46.3057

> <Gold.PLP.PLP>
-37.3600

> <Gold.PLP.part.hbond>
-5.0000

> <Gold.PLP.part.metal>
0.0000

> <Gold.PLP.part.buried>
-5.4322

> <Gold.PLP.part.nonpolar>
-24.9156

> <Gold.PLP.part.repulsive>
0.1932

> <Gold.PLP.ligand.clash>
0.0000

> <Gold.PLP.ligand.torsion>
0.4279

> <Gold.PLP.Chemscore.Hbond>
3.2636

> <Gold.PLP.Chemscore.CHOScore>
0.0000

> <Gold.PLP.Chemscore.Metal>
0.0000

> <Gold.Chemscore.Hbonds>
donor molecule, donor type, donor heavy atom, donor atom, acceptor molecule, acceptor atom, score
      L1  H     8    18       P1  8028  2.00
      P1  H  7989  7998       L1     3  0.05
      P1  H  7997  8010       L1     5  0.72

> <Gold.PLP.Chemscore.Internal.Correction>
0.0106

> <Gold.Rescore>
     Score         DG    S(hbond)    S(metal)    S(lipo)     H(rot)  DE(clash)    DE(int)     intcor
      7.53     -10.24       1.43        0.00      49.61       2.27       2.14       0.57       ----

> <Gold.Chemscore.Fitness>
7.5259

> <Gold.Chemscore.DG>
-10.2398

> <Gold.Chemscore.ZeroCoef>
-5.4800

> <Gold.Chemscore.Hbond>
1.4288

> <Gold.Chemscore.Metal>
0.0000

> <Gold.Chemscore.Lipo>
49.6085

> <Gold.Chemscore.Internal_Hbond>
0.0000

> <Gold.Chemscore.DEClash>
2.1430

> <Gold.Chemscore.DEInternal>
0.5709

> <Gold.Chemscore.Rot>
2.2720

> <Gold.Chemscore.Internal.Correction>
   9.000000E+99

> <Gold.Chemscore.Hbonds>
donor molecule, donor type, donor heavy atom, donor atom, acceptor molecule, acceptor atom, score
      L1  H     8    18       P1  8028  0.97
      P1  H  7997  8010       L1     5  0.48

> <Gold.Chemscore.Hbond.Weighted>
-4.7720

> <Gold.Chemscore.Metal.Weighted>
-0.0000

> <Gold.Chemscore.Lipo.Weighted>
-5.8042

> <Gold.Chemscore.Internal_Hbond.Weighted>
0.0000

> <Gold.Chemscore.DEClash.Weighted>
2.1430

> <Gold.Chemscore.DEInternal.Weighted>
0.5709

> <Gold.Chemscore.Rot.Weighted>
5.8164

> <Gold.Chemscore.Internal.Correction.Weighted>
   9.000000E+99

> <Gold.Protein.RotatedTorsions>
[ 6907 6896 6895 6894 ] final  -13.14 input  -60.11 | X-H torsion
[ 7974 7965 7964 7962 ] final  -39.31 input  175.53 | X-H torsion
[ 8008 7997 7996 7995 ] final   46.91 input   59.86 | X-H torsion
[ 10167 10162 10161 10158 ] final   67.92 input  -65.29 | X-H torsion
[ 10718 10713 10712 10709 ] final   29.71 input   66.30 | X-H torsion
[ 10763 10752 10751 10750 ] final  -62.40 input  -60.55 | X-H torsion
[ 11005 11000 10999 10996 ] final -109.44 input  -57.11 | X-H torsion

> <Gold.Protein.ActiveResidues>
 VAL166  LYS551  ARG553  GLY616  TRP617  ASP618  TYR619  PRO620  LYS621  CYS622 
 ASP623  PHE694  ASN695  SER759  ASP760  ASP761  ALA762  ILE779  LEU786  VAL792 
 PHE793  MET794  SER795  GLU796  ALA797  LYS798  CYS799  TRP800  GLU811  SER814 

> <Gold.Protein.RotatedAtoms>
  151.3595  135.0901  159.9429 H   0  0  0  0  0  0  0  0  0  0  0  0  # atno 6907 bound_to 6896
  152.5165  133.9272  159.7573 H   0  0  0  0  0  0  0  0  0  0  0  0  # atno 6908 bound_to 6896
  150.9663  133.6336  159.2775 H   0  0  0  0  0  0  0  0  0  0  0  0  # atno 6909 bound_to 6896
  146.0408  140.6612  142.9088 H   0  0  0  0  0  0  0  0  0  0  0  0  # atno 7974 bound_to 7965
  155.3603  140.3418  155.4240 H   0  0  0  0  0  0  0  0  0  0  0  0  # atno 8008 bound_to 7997
  156.1717  140.1634  156.8469 H   0  0  0  0  0  0  0  0  0  0  0  0  # atno 8009 bound_to 7997
  154.5240  140.0760  156.8207 H   0  0  0  0  0  0  0  0  0  0  0  0  # atno 8010 bound_to 7997
  140.0843  144.5044  150.7141 H   0  0  0  0  0  0  0  0  0  0  0  0  # atno 10167 bound_to 10162
  157.2501  130.7111  149.6401 H   0  0  0  0  0  0  0  0  0  0  0  0  # atno 10718 bound_to 10713
  154.2993  135.6238  153.5418 H   0  0  0  0  0  0  0  0  0  0  0  0  # atno 10763 bound_to 10752
  152.9842  135.5674  154.5302 H   0  0  0  0  0  0  0  0  0  0  0  0  # atno 10764 bound_to 10752
  154.4929  135.2868  155.1458 H   0  0  0  0  0  0  0  0  0  0  0  0  # atno 10765 bound_to 10752
  141.0847  133.9159  157.2211 H   0  0  0  0  0  0  0  0  0  0  0  0  # atno 11005 bound_to 11000
  144.7073  140.3903  143.7108 LP  0  0  0  0  0  0  0  0  0  0  0  0  # atno 17320 bound_to 7965
  145.6888  139.1634  143.2658 LP  0  0  0  0  0  0  0  0  0  0  0  0  # atno 17321 bound_to 7965
  140.7062  143.2470  151.4720 LP  0  0  0  0  0  0  0  0  0  0  0  0  # atno 17342 bound_to 10162
  139.5761  144.1815  152.1905 LP  0  0  0  0  0  0  0  0  0  0  0  0  # atno 17343 bound_to 10162
  155.9666  130.4430  150.5404 LP  0  0  0  0  0  0  0  0  0  0  0  0  # atno 17370 bound_to 10713
  157.3286  131.0695  151.1878 LP  0  0  0  0  0  0  0  0  0  0  0  0  # atno 17371 bound_to 10713
  139.9664  135.0140  156.9398 LP  0  0  0  0  0  0  0  0  0  0  0  0  # atno 17394 bound_to 11000
  140.5389  134.0739  155.7336 LP  0  0  0  0  0  0  0  0  0  0  0  0  # atno 17395 bound_to 11000

$$$$
