AV-unprocessed.smi:704|AV-procd|sdf|3443|dock8
  -GOLD-   22720 0433D 1   1.00000     0.00000
 Structure written by MMmdl.
 38 39  0  0  0  0  0  0  0  0  1 V2000
  151.7409  138.3623  154.4505 C   0  0  0  0  0  0  0  0  0  0  0  0
  150.3980  138.2767  153.9862 O   0  0  0  0  0  0  0  0  0  0  0  0
  149.5788  139.3804  154.1302 C   0  0  0  0  0  0  0  0  0  0  0  0
  150.0981  140.5004  154.6933 N   0  0  0  0  0  0  0  0  0  0  0  0
  149.3014  141.5804  154.8293 C   0  0  0  0  0  0  0  0  0  0  0  0
  147.9588  141.6049  154.4098 C   0  0  0  0  0  0  0  0  0  0  0  0
  147.4174  140.4444  153.8271 C   0  0  0  0  0  0  0  0  0  0  0  0
  148.2368  139.2978  153.6913 C   0  0  0  0  0  0  0  0  0  0  0  0
  147.7931  138.0846  153.0979 N   0  0  0  0  0  0  0  0  0  0  0  0
  146.5430  137.5966  153.0375 C   0  0  0  0  0  0  0  0  0  0  0  0
  145.5461  138.1287  153.5260 O   0  0  0  0  0  0  0  0  0  0  0  0
  146.5132  136.4201  152.3964 N   0  0  0  0  0  0  0  0  0  0  0  0
  145.3133  135.6068  152.1915 C   0  0  1  0  0  0  0  0  0  0  0  0
  144.8378  135.6755  150.7278 C   0  0  0  0  0  0  0  0  0  0  0  0
  144.4385  134.2513  150.3217 C   0  0  0  0  0  0  0  0  0  0  0  0
  144.4487  133.4282  151.6129 C   0  0  0  0  0  0  0  0  0  0  0  0
  145.4813  134.1008  152.5298 C   0  0  1  0  0  0  0  0  0  0  0  0
  146.8939  133.5258  152.2867 C   0  0  0  0  0  0  0  0  0  0  0  0
  147.1052  132.9184  151.1164 N   0  0  0  0  0  0  0  0  0  0  0  0
  147.7763  133.6202  153.1383 O   0  0  0  0  0  0  0  0  0  0  0  0
  152.2471  137.4147  154.2671 H   0  0  0  0  0  0  0  0  0  0  0  0
  151.7804  138.5555  155.5236 H   0  0  0  0  0  0  0  0  0  0  0  0
  152.2963  139.1406  153.9254 H   0  0  0  0  0  0  0  0  0  0  0  0
  149.7498  142.4536  155.2797 H   0  0  0  0  0  0  0  0  0  0  0  0
  147.3592  142.4953  154.5276 H   0  0  0  0  0  0  0  0  0  0  0  0
  146.3946  140.4603  153.4833 H   0  0  0  0  0  0  0  0  0  0  0  0
  148.5235  137.4853  152.7414 H   0  0  0  0  0  0  0  0  0  0  0  0
  147.3807  136.0497  152.0365 H   0  0  0  0  0  0  0  0  0  0  0  0
  144.5120  136.0052  152.8171 H   0  0  0  0  0  0  0  0  0  0  0  0
  143.9944  136.3606  150.6348 H   0  0  0  0  0  0  0  0  0  0  0  0
  145.6212  136.0413  150.0623 H   0  0  0  0  0  0  0  0  0  0  0  0
  143.4672  134.2201  149.8273 H   0  0  0  0  0  0  0  0  0  0  0  0
  145.1714  133.8502  149.6204 H   0  0  0  0  0  0  0  0  0  0  0  0
  143.4660  133.4775  152.0835 H   0  0  0  0  0  0  0  0  0  0  0  0
  144.6590  132.3744  151.4239 H   0  0  0  0  0  0  0  0  0  0  0  0
  145.2182  133.9274  153.5748 H   0  0  0  0  0  0  0  0  0  0  0  0
  148.0129  132.5289  150.9065 H   0  0  0  0  0  0  0  0  0  0  0  0
  146.3558  132.8543  150.4427 H   0  0  0  0  0  0  0  0  0  0  0  0
  1  2  1  0  0  0  0
  1 21  1  0  0  0  0
  1 22  1  0  0  0  0
  1 23  1  0  0  0  0
  2  3  1  0  0  0  0
  3  8  1  0  0  0  0
  3  4  2  0  0  0  0
  4  5  1  0  0  0  0
  5  6  2  0  0  0  0
  5 24  1  0  0  0  0
  6  7  1  0  0  0  0
  6 25  1  0  0  0  0
  7  8  2  0  0  0  0
  7 26  1  0  0  0  0
  8  9  1  0  0  0  0
  9 10  1  0  0  0  0
  9 27  1  0  0  0  0
 10 11  2  0  0  0  0
 10 12  1  0  0  0  0
 12 13  1  0  0  0  0
 12 28  1  0  0  0  0
 13 17  1  0  0  0  0
 13 14  1  0  0  0  0
 13 29  1  0  0  0  0
 14 15  1  0  0  0  0
 14 30  1  0  0  0  0
 14 31  1  0  0  0  0
 15 16  1  0  0  0  0
 15 32  1  0  0  0  0
 15 33  1  0  0  0  0
 16 17  1  0  0  0  0
 16 34  1  0  0  0  0
 16 35  1  0  0  0  0
 17 18  1  0  0  0  0
 17 36  1  0  0  0  0
 18 19  1  0  0  0  0
 18 20  2  0  0  0  0
 19 37  1  0  0  0  0
 19 38  1  0  0  0  0
M  END
> <s_m_source_file>
AV-unprocessed.smi

> <i_m_source_file_index>
704

> <i_lp_mmshare_version>
43012

> <i_f3d_flags>
0

> <s_epik_input>
W0NIM11PYzFuW2NIXVtjSF1bY0hdYzFbTkhdQyg9TylbTkhdW0NAQEhdMltDSDJdW0NIMl1bQ0gyXVtDQEhdMkMoPU8pW05IMl0=

> <s_epik_cmdline>
J2VwaWtfcHl0aG9uJywgJy1waCcsICc3LjAnLCAnLXRuJywgJzgnLCAnLW1hJywgJzIwMCcsICctbWV0YWxfYmluZGluZycsICctaW1hZScsICc8aW5maWxlLm1hZT4nLCAnLW9tYWUnLCAnPG91dGZpbGUubWFlPic=

> <r_lp_tautomer_probability>
1

> <r_epik_Ionization_Penalty>
9.09123e-05

> <r_epik_Ionization_Penalty_Charging>
0

> <r_epik_Ionization_Penalty_Neutral>
9.09123e-05

> <r_epik_State_Penalty>
-0

> <r_epik_Charging_Adjusted_Penalty>
0

> <i_epik_Tot_Q>
0

> <i_epik_Tot_abs_Q>
0

> <r_epik_Metal_State_Penalty>
-0

> <b_epik_Metal_Only>
0

> <s_lp_Force_Field>
OPLS_2005

> <r_lp_Energy>
16.4561

> <b_lp_Chiralities_Consistent>
1

> <s_lp_Variant>
AV-unprocessed.smi:704-2

> <Gold.Version>
5.8.1

> <Gold.Id.Protein>
6NUR|6NUR_protein|mol2

> <Gold.PLP.Fitness>
44.3776

> <Gold.PLP.PLP>
-31.7596

> <Gold.PLP.part.hbond>
-3.9721

> <Gold.PLP.part.metal>
0.0000

> <Gold.PLP.part.buried>
-1.6278

> <Gold.PLP.part.nonpolar>
-27.1620

> <Gold.PLP.part.repulsive>
1.0517

> <Gold.PLP.ligand.clash>
0.0000

> <Gold.PLP.ligand.torsion>
0.9504

> <Gold.PLP.Chemscore.Hbond>
3.8320

> <Gold.PLP.Chemscore.CHOScore>
1.0000

> <Gold.PLP.Chemscore.Metal>
0.0000

> <Gold.Chemscore.Hbonds>
donor molecule, donor type, donor heavy atom, donor atom, acceptor molecule, acceptor atom, score
      L1  H     9    27       P1  7948  1.00
      L1  H    12    28       P1  7948  0.98
      L1  H    19    37       P1 10747  0.90
      P1  H  7989  7998       L1     4  0.93
      L1  C     5    24       P1  8028  1.00

> <Gold.PLP.Chemscore.Internal.Correction>
0.0228

> <Gold.Rescore>
     Score         DG    S(hbond)    S(metal)    S(lipo)     H(rot)  DE(clash)    DE(int)     intcor
     15.05     -17.95       2.99        0.00      62.06       1.86       0.35       2.56       ----

> <Gold.Chemscore.Fitness>
15.0502

> <Gold.Chemscore.DG>
-17.9543

> <Gold.Chemscore.ZeroCoef>
-5.4800

> <Gold.Chemscore.Hbond>
2.9903

> <Gold.Chemscore.Metal>
0.0000

> <Gold.Chemscore.Lipo>
62.0580

> <Gold.Chemscore.Internal_Hbond>
0.0000

> <Gold.Chemscore.DEClash>
0.3469

> <Gold.Chemscore.DEInternal>
2.5573

> <Gold.Chemscore.Rot>
1.8648

> <Gold.Chemscore.Internal.Correction>
   9.000000E+99

> <Gold.Chemscore.Hbonds>
donor molecule, donor type, donor heavy atom, donor atom, acceptor molecule, acceptor atom, score
      L1  H     9    27       P1  7948  0.92
      L1  H    12    28       P1  7948  0.90
      L1  H    19    37       P1 10747  0.83
      P1  H  7989  7998       L1     4  0.24

> <Gold.Chemscore.Hbond.Weighted>
-9.9875

> <Gold.Chemscore.Metal.Weighted>
-0.0000

> <Gold.Chemscore.Lipo.Weighted>
-7.2608

> <Gold.Chemscore.Internal_Hbond.Weighted>
0.0000

> <Gold.Chemscore.DEClash.Weighted>
0.3469

> <Gold.Chemscore.DEInternal.Weighted>
2.5573

> <Gold.Chemscore.Rot.Weighted>
4.7739

> <Gold.Chemscore.Internal.Correction.Weighted>
   9.000000E+99

> <Gold.Protein.RotatedTorsions>
[ 6907 6896 6895 6894 ] final   63.79 input  -60.11 | X-H torsion
[ 7974 7965 7964 7962 ] final  128.10 input  175.53 | X-H torsion
[ 8008 7997 7996 7995 ] final   73.76 input   59.86 | X-H torsion
[ 10167 10162 10161 10158 ] final  130.50 input  -65.29 | X-H torsion
[ 10718 10713 10712 10709 ] final  -68.13 input   66.30 | X-H torsion
[ 10763 10752 10751 10750 ] final   27.89 input  -60.55 | X-H torsion
[ 11005 11000 10999 10996 ] final  -15.47 input  -57.11 | X-H torsion

> <Gold.Protein.ActiveResidues>
 VAL166  LYS551  ARG553  GLY616  TRP617  ASP618  TYR619  PRO620  LYS621  CYS622 
 ASP623  PHE694  ASN695  SER759  ASP760  ASP761  ALA762  ILE779  LEU786  VAL792 
 PHE793  MET794  SER795  GLU796  ALA797  LYS798  CYS799  TRP800  GLU811  SER814 

> <Gold.Protein.RotatedAtoms>
  152.4280  134.5831  159.9953 H   0  0  0  0  0  0  0  0  0  0  0  0  # atno 6907 bound_to 6896
  151.5962  133.3355  159.3046 H   0  0  0  0  0  0  0  0  0  0  0  0  # atno 6908 bound_to 6896
  150.8171  134.7396  159.6805 H   0  0  0  0  0  0  0  0  0  0  0  0  # atno 6909 bound_to 6896
  145.0433  139.3945  143.5091 H   0  0  0  0  0  0  0  0  0  0  0  0  # atno 7974 bound_to 7965
  155.7884  140.3480  155.5336 H   0  0  0  0  0  0  0  0  0  0  0  0  # atno 8008 bound_to 7997
  155.8658  140.0978  157.1603 H   0  0  0  0  0  0  0  0  0  0  0  0  # atno 8009 bound_to 7997
  154.4014  140.1350  156.4005 H   0  0  0  0  0  0  0  0  0  0  0  0  # atno 8010 bound_to 7997
  139.5427  144.6745  151.4572 H   0  0  0  0  0  0  0  0  0  0  0  0  # atno 10167 bound_to 10162
  156.0521  130.4289  150.1956 H   0  0  0  0  0  0  0  0  0  0  0  0  # atno 10718 bound_to 10713
  153.0526  135.6526  154.0655 H   0  0  0  0  0  0  0  0  0  0  0  0  # atno 10763 bound_to 10752
  154.0339  135.2909  155.3366 H   0  0  0  0  0  0  0  0  0  0  0  0  # atno 10764 bound_to 10752
  154.6824  135.5315  153.8348 H   0  0  0  0  0  0  0  0  0  0  0  0  # atno 10765 bound_to 10752
  140.7969  133.8244  155.9433 H   0  0  0  0  0  0  0  0  0  0  0  0  # atno 11005 bound_to 11000
  146.3511  140.0045  142.8673 LP  0  0  0  0  0  0  0  0  0  0  0  0  # atno 17320 bound_to 7965
  145.1620  140.9677  143.4372 LP  0  0  0  0  0  0  0  0  0  0  0  0  # atno 17321 bound_to 7965
  140.6664  143.8390  150.6946 LP  0  0  0  0  0  0  0  0  0  0  0  0  # atno 17342 bound_to 10162
  140.1800  143.4123  152.1940 LP  0  0  0  0  0  0  0  0  0  0  0  0  # atno 17343 bound_to 10162
  157.0037  130.9930  151.3384 LP  0  0  0  0  0  0  0  0  0  0  0  0  # atno 17370 bound_to 10713
  157.5457  130.8149  149.8083 LP  0  0  0  0  0  0  0  0  0  0  0  0  # atno 17371 bound_to 10713
  140.9333  134.1993  157.4848 LP  0  0  0  0  0  0  0  0  0  0  0  0  # atno 17394 bound_to 11000
  139.8725  134.9842  156.5229 LP  0  0  0  0  0  0  0  0  0  0  0  0  # atno 17395 bound_to 11000

$$$$
