AV-unprocessed.smi:1737|AV-procd|sdf|6996|dock3
  -GOLD-   22720 8213D 1   1.00000     0.00000
 Structure written by MMmdl.
 43 44  0  0  0  0  0  0  0  0  2 V2000
  153.8294  142.0518  162.0569 C   0  0  0  0  0  0  0  0  0  0  0  0
  153.0888  141.9654  160.7320 C   0  0  0  0  0  0  0  0  0  0  0  0
  152.5623  143.1422  160.1578 C   0  0  0  0  0  0  0  0  0  0  0  0
  151.8773  143.0604  158.9333 C   0  0  0  0  0  0  0  0  0  0  0  0
  151.7467  141.7974  158.3309 C   0  0  0  0  0  0  0  0  0  0  0  0
  152.2471  140.6682  158.8726 N   0  0  0  0  0  0  0  0  0  0  0  0
  152.9099  140.7293  160.0547 C   0  0  0  0  0  0  0  0  0  0  0  0
  153.4667  139.5790  160.6819 N   0  0  0  0  0  0  0  0  0  0  0  0
  153.0140  138.3131  160.6594 C   0  0  0  0  0  0  0  0  0  0  0  0
  151.9847  137.9324  160.1021 O   0  0  0  0  0  0  0  0  0  0  0  0
  153.8359  137.4932  161.3301 N   0  0  0  0  0  0  0  0  0  0  0  0
  153.6417  136.0542  161.5046 C   0  0  0  0  0  0  0  0  0  0  0  0
  154.0928  135.5322  162.8955 C   0  0  1  0  0  0  0  0  0  0  0  0
  153.8106  136.5985  163.9767 C   0  0  0  0  0  0  0  0  0  0  0  0
  153.4969  134.1976  163.2292 N   0  3  0  0  0  0  0  0  0  0  0  0
  153.8182  133.1486  162.2233 C   0  0  0  0  0  0  0  0  0  0  0  0
  153.1431  131.8139  162.5782 C   0  0  0  0  0  0  0  0  0  0  0  0
  153.5545  131.4029  163.8733 O   0  0  0  0  0  0  0  0  0  0  0  0
  153.1609  132.3398  164.8646 C   0  0  0  0  0  0  0  0  0  0  0  0
  153.8266  133.6997  164.5931 C   0  0  0  0  0  0  0  0  0  0  0  0
  153.8632  143.0770  162.4274 H   0  0  0  0  0  0  0  0  0  0  0  0
  154.8562  141.7023  161.9442 H   0  0  0  0  0  0  0  0  0  0  0  0
  153.3341  141.4398  162.8112 H   0  0  0  0  0  0  0  0  0  0  0  0
  152.6804  144.0979  160.6469 H   0  0  0  0  0  0  0  0  0  0  0  0
  151.4629  143.9424  158.4677 H   0  0  0  0  0  0  0  0  0  0  0  0
  151.2279  141.6899  157.3899 H   0  0  0  0  0  0  0  0  0  0  0  0
  154.3164  139.7422  161.2010 H   0  0  0  0  0  0  0  0  0  0  0  0
  154.6496  137.8974  161.7700 H   0  0  0  0  0  0  0  0  0  0  0  0
  152.5807  135.8518  161.3602 H   0  0  0  0  0  0  0  0  0  0  0  0
  154.1380  135.5009  160.7053 H   0  0  0  0  0  0  0  0  0  0  0  0
  155.1765  135.4089  162.8590 H   0  0  0  0  0  0  0  0  0  0  0  0
  154.1331  137.5870  163.6487 H   0  0  0  0  0  0  0  0  0  0  0  0
  154.3514  136.3946  164.9007 H   0  0  0  0  0  0  0  0  0  0  0  0
  152.7484  136.6613  164.2140 H   0  0  0  0  0  0  0  0  0  0  0  0
  153.4831  133.4436  161.2302 H   0  0  0  0  0  0  0  0  0  0  0  0
  154.8997  133.0144  162.1685 H   0  0  0  0  0  0  0  0  0  0  0  0
  152.0562  131.9022  162.5349 H   0  0  0  0  0  0  0  0  0  0  0  0
  153.4286  131.0464  161.8586 H   0  0  0  0  0  0  0  0  0  0  0  0
  152.0738  132.4351  164.8829 H   0  0  0  0  0  0  0  0  0  0  0  0
  153.4624  131.9641  165.8425 H   0  0  0  0  0  0  0  0  0  0  0  0
  154.9092  133.6160  164.6999 H   0  0  0  0  0  0  0  0  0  0  0  0
  153.4773  134.3927  165.3574 H   0  0  0  0  0  0  0  0  0  0  0  0
  152.4946  134.3225  163.2105 H   0  0  0  0  0  0  0  0  0  0  0  0
  1  2  1  0  0  0  0
  1 21  1  0  0  0  0
  1 22  1  0  0  0  0
  1 23  1  0  0  0  0
  2  7  1  0  0  0  0
  2  3  2  0  0  0  0
  3  4  1  0  0  0  0
  3 24  1  0  0  0  0
  4  5  2  0  0  0  0
  4 25  1  0  0  0  0
  5  6  1  0  0  0  0
  5 26  1  0  0  0  0
  6  7  2  0  0  0  0
  7  8  1  0  0  0  0
  8  9  1  0  0  0  0
  8 27  1  0  0  0  0
  9 10  2  0  0  0  0
  9 11  1  0  0  0  0
 11 12  1  0  0  0  0
 11 28  1  0  0  0  0
 12 13  1  0  0  0  0
 12 29  1  0  0  0  0
 12 30  1  0  0  0  0
 13 14  1  0  0  0  0
 13 15  1  0  0  0  0
 13 31  1  0  0  0  0
 14 32  1  0  0  0  0
 14 33  1  0  0  0  0
 14 34  1  0  0  0  0
 15 20  1  0  0  0  0
 15 16  1  0  0  0  0
 15 43  1  0  0  0  0
 16 17  1  0  0  0  0
 16 35  1  0  0  0  0
 16 36  1  0  0  0  0
 17 18  1  0  0  0  0
 17 37  1  0  0  0  0
 17 38  1  0  0  0  0
 18 19  1  0  0  0  0
 19 20  1  0  0  0  0
 19 39  1  0  0  0  0
 19 40  1  0  0  0  0
 20 41  1  0  0  0  0
 20 42  1  0  0  0  0
M  CHG  1  15   1
M  END
> <s_m_source_file>
AV-unprocessed.smi

> <i_m_source_file_index>
1737

> <i_lp_mmshare_version>
43012

> <i_f3d_flags>
0

> <s_epik_input>
W0NIM11jMVtjSF1bY0hdW2NIXW5jMVtOSF1DKD1PKVtOSF1bQ0gyXVtDQEhdKFtDSDNdKU4yW0NIMl1bQ0gyXU9bQ0gyXVtDSDJdMg==

> <s_epik_cmdline>
J2VwaWtfcHl0aG9uJywgJy1waCcsICc3LjAnLCAnLXRuJywgJzgnLCAnLW1hJywgJzIwMCcsICctbWV0YWxfYmluZGluZycsICctaW1hZScsICc8aW5maWxlLm1hZT4nLCAnLW9tYWUnLCAnPG91dGZpbGUubWFlPic=

> <r_epik_Ionization_Penalty>
0.602573

> <r_epik_Ionization_Penalty_Charging>
0.602531

> <r_epik_Ionization_Penalty_Neutral>
4.25912e-05

> <r_epik_State_Penalty>
0.617039

> <r_epik_Charging_Adjusted_Penalty>
1.21957

> <i_epik_Tot_Q>
1

> <i_epik_Tot_abs_Q>
1

> <r_epik_Metal_State_Penalty>
0.617042

> <b_epik_Metal_Only>
0

> <s_lp_Force_Field>
OPLS_2005

> <r_lp_Energy>
29.9094

> <b_lp_Chiralities_Consistent>
1

> <s_lp_Variant>
AV-unprocessed.smi:1737-4

> <Gold.Version>
5.8.1

> <Gold.Id.Protein>
6NUR|6NUR_protein|mol2

> <Gold.PLP.Fitness>
37.4599

> <Gold.PLP.PLP>
-38.6787

> <Gold.PLP.part.hbond>
0.0000

> <Gold.PLP.part.metal>
0.0000

> <Gold.PLP.part.buried>
-4.6463

> <Gold.PLP.part.nonpolar>
-33.1153

> <Gold.PLP.part.repulsive>
0.0718

> <Gold.PLP.ligand.clash>
0.0000

> <Gold.PLP.ligand.torsion>
0.6340

> <Gold.PLP.Chemscore.Hbond>
0.0000

> <Gold.PLP.Chemscore.CHOScore>
0.0000

> <Gold.PLP.Chemscore.Metal>
0.0000

> <Gold.PLP.Chemscore.Internal.Correction>
0.0493

> <Gold.Rescore>
     Score         DG    S(hbond)    S(metal)    S(lipo)     H(rot)  DE(clash)    DE(int)     intcor
     13.00     -13.84       0.00        0.00     104.53       1.51       0.03       0.81       ----

> <Gold.Chemscore.Fitness>
12.9997

> <Gold.Chemscore.DG>
-13.8373

> <Gold.Chemscore.ZeroCoef>
-5.4800

> <Gold.Chemscore.Hbond>
0.0000

> <Gold.Chemscore.Metal>
0.0000

> <Gold.Chemscore.Lipo>
104.5296

> <Gold.Chemscore.Internal_Hbond>
0.0000

> <Gold.Chemscore.DEClash>
0.0322

> <Gold.Chemscore.DEInternal>
0.8054

> <Gold.Chemscore.Rot>
1.5128

> <Gold.Chemscore.Internal.Correction>
   9.000000E+99

> <Gold.Chemscore.Hbond.Weighted>
-0.0000

> <Gold.Chemscore.Metal.Weighted>
-0.0000

> <Gold.Chemscore.Lipo.Weighted>
-12.2300

> <Gold.Chemscore.Internal_Hbond.Weighted>
0.0000

> <Gold.Chemscore.DEClash.Weighted>
0.0322

> <Gold.Chemscore.DEInternal.Weighted>
0.8054

> <Gold.Chemscore.Rot.Weighted>
3.8726

> <Gold.Chemscore.Internal.Correction.Weighted>
   9.000000E+99

> <Gold.Protein.RotatedTorsions>
[ 6907 6896 6895 6894 ] final -113.06 input  -60.11 | X-H torsion
[ 7974 7965 7964 7962 ] final  -58.82 input  175.53 | X-H torsion
[ 8008 7997 7996 7995 ] final  -25.18 input   59.86 | X-H torsion
[ 10167 10162 10161 10158 ] final   27.70 input  -65.29 | X-H torsion
[ 10718 10713 10712 10709 ] final  -43.87 input   66.30 | X-H torsion
[ 10763 10752 10751 10750 ] final  133.64 input  -60.55 | X-H torsion
[ 11005 11000 10999 10996 ] final -179.17 input  -57.11 | X-H torsion

> <Gold.Protein.ActiveResidues>
 VAL166  LYS551  ARG553  GLY616  TRP617  ASP618  TYR619  PRO620  LYS621  CYS622 
 ASP623  PHE694  ASN695  SER759  ASP760  ASP761  ALA762  ILE779  LEU786  VAL792 
 PHE793  MET794  SER795  GLU796  ALA797  LYS798  CYS799  TRP800  GLU811  SER814 

> <Gold.Protein.RotatedAtoms>
  150.7802  133.8999  159.3337 H   0  0  0  0  0  0  0  0  0  0  0  0  # atno 6907 bound_to 6896
  151.6864  135.0952  160.0235 H   0  0  0  0  0  0  0  0  0  0  0  0  # atno 6908 bound_to 6896
  152.3851  133.6562  159.6228 H   0  0  0  0  0  0  0  0  0  0  0  0  # atno 6909 bound_to 6896
  145.8347  140.8456  143.0065 H   0  0  0  0  0  0  0  0  0  0  0  0  # atno 7974 bound_to 7965
  154.4489  140.1933  156.0579 H   0  0  0  0  0  0  0  0  0  0  0  0  # atno 8008 bound_to 7997
  156.0605  140.3297  155.7429 H   0  0  0  0  0  0  0  0  0  0  0  0  # atno 8009 bound_to 7997
  155.5419  140.0587  157.2859 H   0  0  0  0  0  0  0  0  0  0  0  0  # atno 8010 bound_to 7997
  140.4915  144.0458  150.6299 H   0  0  0  0  0  0  0  0  0  0  0  0  # atno 10167 bound_to 10162
  156.2445  130.4182  149.8722 H   0  0  0  0  0  0  0  0  0  0  0  0  # atno 10718 bound_to 10713
  153.8105  135.3129  155.3400 H   0  0  0  0  0  0  0  0  0  0  0  0  # atno 10763 bound_to 10752
  154.8053  135.4701  154.0380 H   0  0  0  0  0  0  0  0  0  0  0  0  # atno 10764 bound_to 10752
  153.1757  135.6885  153.8635 H   0  0  0  0  0  0  0  0  0  0  0  0  # atno 10765 bound_to 10752
  140.4216  134.6600  157.4667 H   0  0  0  0  0  0  0  0  0  0  0  0  # atno 11005 bound_to 11000
  144.6737  140.0724  143.7472 LP  0  0  0  0  0  0  0  0  0  0  0  0  # atno 17320 bound_to 7965
  145.9531  139.2748  143.1200 LP  0  0  0  0  0  0  0  0  0  0  0  0  # atno 17321 bound_to 7965
  140.3729  143.2844  152.0258 LP  0  0  0  0  0  0  0  0  0  0  0  0  # atno 17342 bound_to 10162
  139.4852  144.6216  151.7245 LP  0  0  0  0  0  0  0  0  0  0  0  0  # atno 17343 bound_to 10162
  156.6292  130.8658  151.3491 LP  0  0  0  0  0  0  0  0  0  0  0  0  # atno 17370 bound_to 10713
  157.7189  130.9533  150.1361 LP  0  0  0  0  0  0  0  0  0  0  0  0  # atno 17371 bound_to 10713
  140.0196  134.6567  155.9259 LP  0  0  0  0  0  0  0  0  0  0  0  0  # atno 17394 bound_to 11000
  141.1781  133.6543  156.4911 LP  0  0  0  0  0  0  0  0  0  0  0  0  # atno 17395 bound_to 11000

$$$$
