AV-unprocessed.smi:2680|AV-procd|sdf|10372|dock2
  -GOLD-   2272014403D 1   1.00000     0.00000
 Structure written by MMmdl.
 37 38  0  0  0  0  0  0  0  0  2 V2000
  151.5505  145.4396  160.2139 C   0  0  0  0  0  0  0  0  0  0  0  0
  151.9939  144.0539  159.8435 C   0  0  0  0  0  0  0  0  0  0  0  0
  151.8294  143.3847  158.5976 C   0  0  0  0  0  0  0  0  0  0  0  0
  152.3424  142.1652  158.5962 N   0  0  0  0  0  0  0  0  0  0  0  0
  152.8624  142.0154  159.8334 N   0  0  0  0  0  0  0  0  0  0  0  0
  153.5245  140.7701  160.1929 C   0  0  0  0  0  0  0  0  0  0  0  0
  153.5574  139.7805  159.0242 C   0  0  0  0  0  0  0  0  0  0  0  0
  154.6447  139.3958  158.5970 O   0  0  0  0  0  0  0  0  0  0  0  0
  152.3567  139.4052  158.5414 N   0  0  0  0  0  0  0  0  0  0  0  0
  151.9672  138.5668  157.3971 C   0  0  0  0  0  0  0  0  0  0  0  0
  152.6763  137.2109  157.6502 C   0  0  0  0  0  0  0  0  0  0  0  0
  153.4032  136.7526  156.7402 O   0  0  0  0  0  0  0  0  0  0  0  0
  152.4448  136.6200  158.7291 O   0  5  0  0  0  0  0  0  0  0  0  0
  150.4273  138.3709  157.2195 C   0  0  0  0  0  0  0  0  0  0  0  0
  150.0574  137.6155  155.9281 C   0  0  0  0  0  0  0  0  0  0  0  0
  150.6275  138.3236  154.6907 C   0  0  0  0  0  0  0  0  0  0  0  0
  152.1453  138.5204  154.8135 C   0  0  0  0  0  0  0  0  0  0  0  0
  152.5114  139.2607  156.1157 C   0  0  0  0  0  0  0  0  0  0  0  0
  152.6530  143.1366  160.6111 C   0  0  0  0  0  0  0  0  0  0  0  0
  150.9818  145.9119  159.4125 H   0  0  0  0  0  0  0  0  0  0  0  0
  152.4006  146.0875  160.4291 H   0  0  0  0  0  0  0  0  0  0  0  0
  150.9157  145.4357  161.1000 H   0  0  0  0  0  0  0  0  0  0  0  0
  151.3541  143.7480  157.6984 H   0  0  0  0  0  0  0  0  0  0  0  0
  154.5399  141.0020  160.5163 H   0  0  0  0  0  0  0  0  0  0  0  0
  153.0122  140.3094  161.0390 H   0  0  0  0  0  0  0  0  0  0  0  0
  151.5672  139.8214  159.0139 H   0  0  0  0  0  0  0  0  0  0  0  0
  149.9904  137.8573  158.0770 H   0  0  0  0  0  0  0  0  0  0  0  0
  149.9405  139.3457  157.1725 H   0  0  0  0  0  0  0  0  0  0  0  0
  150.4266  136.5904  155.9700 H   0  0  0  0  0  0  0  0  0  0  0  0
  148.9728  137.5442  155.8428 H   0  0  0  0  0  0  0  0  0  0  0  0
  150.3974  137.7492  153.7931 H   0  0  0  0  0  0  0  0  0  0  0  0
  150.1431  139.2934  154.5712 H   0  0  0  0  0  0  0  0  0  0  0  0
  152.6445  137.5518  154.7778 H   0  0  0  0  0  0  0  0  0  0  0  0
  152.5137  139.0828  153.9552 H   0  0  0  0  0  0  0  0  0  0  0  0
  152.1058  140.2721  156.0621 H   0  0  0  0  0  0  0  0  0  0  0  0
  153.5937  139.3897  156.1684 H   0  0  0  0  0  0  0  0  0  0  0  0
  152.9989  143.1919  161.6331 H   0  0  0  0  0  0  0  0  0  0  0  0
  1  2  1  0  0  0  0
  1 20  1  0  0  0  0
  1 21  1  0  0  0  0
  1 22  1  0  0  0  0
  2 19  2  0  0  0  0
  2  3  1  0  0  0  0
  3  4  2  0  0  0  0
  3 23  1  0  0  0  0
  4  5  1  0  0  0  0
  5  6  1  0  0  0  0
  5 19  1  0  0  0  0
  6  7  1  0  0  0  0
  6 24  1  0  0  0  0
  6 25  1  0  0  0  0
  7  8  2  0  0  0  0
  7  9  1  0  0  0  0
  9 10  1  0  0  0  0
  9 26  1  0  0  0  0
 10 18  1  0  0  0  0
 10 11  1  0  0  0  0
 10 14  1  0  0  0  0
 11 12  2  0  0  0  0
 11 13  1  0  0  0  0
 14 15  1  0  0  0  0
 14 27  1  0  0  0  0
 14 28  1  0  0  0  0
 15 16  1  0  0  0  0
 15 29  1  0  0  0  0
 15 30  1  0  0  0  0
 16 17  1  0  0  0  0
 16 31  1  0  0  0  0
 16 32  1  0  0  0  0
 17 18  1  0  0  0  0
 17 33  1  0  0  0  0
 17 34  1  0  0  0  0
 18 35  1  0  0  0  0
 18 36  1  0  0  0  0
 19 37  1  0  0  0  0
M  CHG  1  13  -1
M  END
> <s_m_source_file>
AV-unprocessed.smi

> <i_m_source_file_index>
2680

> <i_lp_mmshare_version>
43012

> <i_f3d_flags>
0

> <s_epik_input>
W0NIM11jMVtjSF1ubihbY0hdMSlbQ0gyXUMoPU8pW05IXUMyKEMoPU8pW09IXSlbQ0gyXVtDSDJdW0NIMl1bQ0gyXVtDSDJdMg==

> <s_epik_cmdline>
J2VwaWtfcHl0aG9uJywgJy1waCcsICc3LjAnLCAnLXRuJywgJzgnLCAnLW1hJywgJzIwMCcsICctbWV0YWxfYmluZGluZycsICctaW1hZScsICc8aW5maWxlLm1hZT4nLCAnLW9tYWUnLCAnPG91dGZpbGUubWFlPic=

> <r_lp_tautomer_probability>
1

> <r_epik_Ionization_Penalty>
0.000361632

> <r_epik_Ionization_Penalty_Charging>
0.000323848

> <r_epik_Ionization_Penalty_Neutral>
3.77838e-05

> <r_epik_State_Penalty>
0.000195685

> <r_epik_Charging_Adjusted_Penalty>
0.000519533

> <i_epik_Tot_Q>
-1

> <i_epik_Tot_abs_Q>
1

> <r_epik_Metal_State_Penalty>
-0

> <b_epik_Metal_Only>
0

> <s_lp_Force_Field>
OPLS_2005

> <r_lp_Energy>
4.37628

> <b_lp_Chiralities_Consistent>
1

> <s_lp_Variant>
AV-unprocessed.smi:2680-1

> <Gold.Version>
5.8.1

> <Gold.Id.Protein>
6NUR|6NUR_protein|mol2

> <Gold.PLP.Fitness>
50.6884

> <Gold.PLP.PLP>
-37.3861

> <Gold.PLP.part.hbond>
-3.0000

> <Gold.PLP.part.metal>
0.0000

> <Gold.PLP.part.buried>
-3.3960

> <Gold.PLP.part.nonpolar>
-31.1477

> <Gold.PLP.part.repulsive>
0.0919

> <Gold.PLP.ligand.clash>
0.0000

> <Gold.PLP.ligand.torsion>
0.1982

> <Gold.PLP.Chemscore.Hbond>
4.5500

> <Gold.PLP.Chemscore.CHOScore>
0.0000

> <Gold.PLP.Chemscore.Metal>
0.0000

> <Gold.Chemscore.Hbonds>
donor molecule, donor type, donor heavy atom, donor atom, acceptor molecule, acceptor atom, score
      P1  H  6896  6909       L1    13  1.34
      P1  H  7997  8009       L1     8  1.00
      P1  H 10752 10765       L1    12  1.82

> <Gold.PLP.Chemscore.Internal.Correction>
0.0488

> <Gold.Rescore>
     Score         DG    S(hbond)    S(metal)    S(lipo)     H(rot)  DE(clash)    DE(int)     intcor
     18.15     -19.97       2.69        0.00      89.88       1.96       0.30       1.52       ----

> <Gold.Chemscore.Fitness>
18.1513

> <Gold.Chemscore.DG>
-19.9715

> <Gold.Chemscore.ZeroCoef>
-5.4800

> <Gold.Chemscore.Hbond>
2.6943

> <Gold.Chemscore.Metal>
0.0000

> <Gold.Chemscore.Lipo>
89.8778

> <Gold.Chemscore.Internal_Hbond>
0.0000

> <Gold.Chemscore.DEClash>
0.2988

> <Gold.Chemscore.DEInternal>
1.5214

> <Gold.Chemscore.Rot>
1.9622

> <Gold.Chemscore.Internal.Correction>
   9.000000E+99

> <Gold.Chemscore.Hbonds>
donor molecule, donor type, donor heavy atom, donor atom, acceptor molecule, acceptor atom, score
      P1  H  6896  6909       L1    13  0.65
      P1  H  7997  8009       L1     8  0.90
      P1  H 10752 10765       L1    12  0.88

> <Gold.Chemscore.Hbond.Weighted>
-8.9991

> <Gold.Chemscore.Metal.Weighted>
-0.0000

> <Gold.Chemscore.Lipo.Weighted>
-10.5157

> <Gold.Chemscore.Internal_Hbond.Weighted>
0.0000

> <Gold.Chemscore.DEClash.Weighted>
0.2988

> <Gold.Chemscore.DEInternal.Weighted>
1.5214

> <Gold.Chemscore.Rot.Weighted>
5.0233

> <Gold.Chemscore.Internal.Correction.Weighted>
   9.000000E+99

> <Gold.Protein.RotatedTorsions>
[ 6907 6896 6895 6894 ] final  131.54 input  -60.11 | X-H torsion
[ 7974 7965 7964 7962 ] final -104.23 input  175.53 | X-H torsion
[ 8008 7997 7996 7995 ] final  105.96 input   59.86 | X-H torsion
[ 10167 10162 10161 10158 ] final   72.51 input  -65.29 | X-H torsion
[ 10718 10713 10712 10709 ] final -150.60 input   66.30 | X-H torsion
[ 10763 10752 10751 10750 ] final -113.51 input  -60.55 | X-H torsion
[ 11005 11000 10999 10996 ] final  175.16 input  -57.11 | X-H torsion

> <Gold.Protein.ActiveResidues>
 VAL166  LYS551  ARG553  GLY616  TRP617  ASP618  TYR619  PRO620  LYS621  CYS622 
 ASP623  PHE694  ASN695  SER759  ASP760  ASP761  ALA762  ILE779  LEU786  VAL792 
 PHE793  MET794  SER795  GLU796  ALA797  LYS798  CYS799  TRP800  GLU811  SER814 

> <Gold.Protein.RotatedAtoms>
  152.3416  133.6073  159.5879 H   0  0  0  0  0  0  0  0  0  0  0  0  # atno 6907 bound_to 6896
  150.7482  133.9714  159.3556 H   0  0  0  0  0  0  0  0  0  0  0  0  # atno 6908 bound_to 6896
  151.7577  135.0818  160.0392 H   0  0  0  0  0  0  0  0  0  0  0  0  # atno 6909 bound_to 6896
  145.2458  140.9221  143.3123 H   0  0  0  0  0  0  0  0  0  0  0  0  # atno 7974 bound_to 7965
  156.1703  140.3121  155.8962 H   0  0  0  0  0  0  0  0  0  0  0  0  # atno 8008 bound_to 7997
  155.3600  140.0476  157.3063 H   0  0  0  0  0  0  0  0  0  0  0  0  # atno 8009 bound_to 7997
  154.5234  140.2206  155.8944 H   0  0  0  0  0  0  0  0  0  0  0  0  # atno 8010 bound_to 7997
  140.0345  144.5439  150.7481 H   0  0  0  0  0  0  0  0  0  0  0  0  # atno 10167 bound_to 10162
  156.4482  130.8155  151.2386 H   0  0  0  0  0  0  0  0  0  0  0  0  # atno 10718 bound_to 10713
  154.8399  135.4451  154.1361 H   0  0  0  0  0  0  0  0  0  0  0  0  # atno 10763 bound_to 10752
  153.2558  135.6931  153.7636 H   0  0  0  0  0  0  0  0  0  0  0  0  # atno 10764 bound_to 10752
  153.6932  135.3384  155.3182 H   0  0  0  0  0  0  0  0  0  0  0  0  # atno 10765 bound_to 10752
  140.3591  134.7128  157.4319 H   0  0  0  0  0  0  0  0  0  0  0  0  # atno 11005 bound_to 11000
  144.9547  139.4044  143.6385 LP  0  0  0  0  0  0  0  0  0  0  0  0  # atno 17320 bound_to 7965
  146.3316  139.8572  142.8862 LP  0  0  0  0  0  0  0  0  0  0  0  0  # atno 17321 bound_to 7965
  140.7287  143.2665  151.4028 LP  0  0  0  0  0  0  0  0  0  0  0  0  # atno 17342 bound_to 10162
  139.6054  144.1208  152.2243 LP  0  0  0  0  0  0  0  0  0  0  0  0  # atno 17343 bound_to 10162
  157.7504  131.0146  150.3471 LP  0  0  0  0  0  0  0  0  0  0  0  0  # atno 17370 bound_to 10713
  156.3844  130.3886  149.7077 LP  0  0  0  0  0  0  0  0  0  0  0  0  # atno 17371 bound_to 10713
  140.0641  134.5955  155.8716 LP  0  0  0  0  0  0  0  0  0  0  0  0  # atno 17394 bound_to 11000
  141.1989  133.6604  156.5817 LP  0  0  0  0  0  0  0  0  0  0  0  0  # atno 17395 bound_to 11000

$$$$
