AV-unprocessed.smi:261|AV-procd|sdf|1992|dock9
  -GOLD-   2262021183D 1   1.00000     0.00000
 Structure written by MMmdl.
 51 54  0  0  0  0  0  0  0  0  1 V2000
  146.6326  136.6438  162.4213 C   0  0  0  0  0  0  0  0  0  0  0  0
  147.5516  137.1862  161.4872 O   0  0  0  0  0  0  0  0  0  0  0  0
  147.7198  136.3833  160.3281 C   0  0  2  0  0  0  0  0  0  0  0  0
  148.6840  136.9885  159.3067 C   0  0  0  0  0  0  0  0  0  0  0  0
  148.2434  136.3896  157.9582 C   0  0  1  0  0  0  0  0  0  0  0  0
  149.0689  135.1495  157.5806 C   0  0  0  0  0  0  0  0  0  0  0  0
  148.3897  134.0281  157.3283 N   0  0  0  0  0  0  0  0  0  0  0  0
  150.2955  135.1996  157.4995 O   0  0  0  0  0  0  0  0  0  0  0  0
  146.8379  136.0249  158.1583 N   0  0  0  0  0  0  0  0  0  0  0  0
  145.9562  136.3831  157.2002 C   0  0  0  0  0  0  0  0  0  0  0  0
  144.8272  137.0625  157.5326 N   0  0  0  0  0  0  0  0  0  0  0  0
  143.9516  137.4027  156.5816 C   0  0  0  0  0  0  0  0  0  0  0  0
  144.0097  137.1650  155.2688 N   0  0  0  0  0  0  0  0  0  0  0  0
  145.1429  136.4813  154.9378 C   0  0  0  0  0  0  0  0  0  0  0  0
  146.1602  136.0549  155.8356 C   0  0  0  0  0  0  0  0  0  0  0  0
  147.1632  135.3897  155.1432 N   0  0  0  0  0  0  0  0  0  0  0  0
  146.7634  135.4244  153.9012 C   0  0  0  0  0  0  0  0  0  0  0  0
  145.5548  136.0511  153.6890 N   0  0  0  0  0  0  0  0  0  0  0  0
  144.8756  136.2220  152.4144 C   0  0  0  0  0  0  0  0  0  0  0  0
  145.5989  135.5443  151.2289 C   0  0  2  0  0  0  0  0  0  0  0  0
  145.0519  136.0295  150.0188 O   0  0  0  0  0  0  0  0  0  0  0  0
  145.4991  134.0050  151.2295 C   0  0  1  0  0  0  0  0  0  0  0  0
  144.1273  133.4542  150.8354 C   0  0  0  0  0  0  0  0  0  0  0  0
  144.4399  132.0775  150.2666 C   0  0  0  0  0  0  0  0  0  0  0  0
  145.9583  132.0886  150.0726 C   0  0  0  0  0  0  0  0  0  0  0  0
  146.3358  133.4482  150.2279 O   0  0  0  0  0  0  0  0  0  0  0  0
  146.4245  136.3151  159.5248 C   0  0  0  0  0  0  0  0  0  0  0  0
  148.0326  135.3714  160.5930 H   0  0  0  0  0  0  0  0  0  0  0  0
  148.3652  137.1369  157.1716 H   0  0  0  0  0  0  0  0  0  0  0  0
  146.5405  137.3169  163.2735 H   0  0  0  0  0  0  0  0  0  0  0  0
  146.9647  135.6753  162.7966 H   0  0  0  0  0  0  0  0  0  0  0  0
  145.6433  136.5272  161.9773 H   0  0  0  0  0  0  0  0  0  0  0  0
  148.5532  138.0712  159.2773 H   0  0  0  0  0  0  0  0  0  0  0  0
  149.7295  136.7942  159.5496 H   0  0  0  0  0  0  0  0  0  0  0  0
  148.8831  133.1843  157.0754 H   0  0  0  0  0  0  0  0  0  0  0  0
  147.3821  134.0294  157.3918 H   0  0  0  0  0  0  0  0  0  0  0  0
  143.0791  137.9413  156.9212 H   0  0  0  0  0  0  0  0  0  0  0  0
  147.3378  134.9811  153.1006 H   0  0  0  0  0  0  0  0  0  0  0  0
  143.8578  135.8405  152.5070 H   0  0  0  0  0  0  0  0  0  0  0  0
  144.7813  137.2917  152.2243 H   0  0  0  0  0  0  0  0  0  0  0  0
  146.6489  135.8370  151.2560 H   0  0  0  0  0  0  0  0  0  0  0  0
  144.8284  136.9407  150.1352 H   0  0  0  0  0  0  0  0  0  0  0  0
  145.7908  133.5954  152.1986 H   0  0  0  0  0  0  0  0  0  0  0  0
  143.4347  133.4173  151.6768 H   0  0  0  0  0  0  0  0  0  0  0  0
  143.6777  134.0746  150.0587 H   0  0  0  0  0  0  0  0  0  0  0  0
  144.1441  131.2811  150.9504 H   0  0  0  0  0  0  0  0  0  0  0  0
  143.9165  131.9219  149.3226 H   0  0  0  0  0  0  0  0  0  0  0  0
  146.4482  131.4914  150.8434 H   0  0  0  0  0  0  0  0  0  0  0  0
  146.2613  131.7029  149.0991 H   0  0  0  0  0  0  0  0  0  0  0  0
  145.7562  135.5425  159.9064 H   0  0  0  0  0  0  0  0  0  0  0  0
  145.8969  137.2697  159.5726 H   0  0  0  0  0  0  0  0  0  0  0  0
  1  2  1  0  0  0  0
  1 30  1  0  0  0  0
  1 31  1  0  0  0  0
  1 32  1  0  0  0  0
  2  3  1  0  0  0  0
  3 28  1  0  0  0  0
  3 27  1  0  0  0  0
  3  4  1  0  0  0  0
  4  5  1  0  0  0  0
  4 33  1  0  0  0  0
  4 34  1  0  0  0  0
  5 29  1  0  0  0  0
  5  6  1  0  0  0  0
  5  9  1  0  0  0  0
  6  7  1  0  0  0  0
  6  8  2  0  0  0  0
  7 35  1  0  0  0  0
  7 36  1  0  0  0  0
  9 10  1  0  0  0  0
  9 27  1  0  0  0  0
 10 15  1  0  0  0  0
 10 11  2  0  0  0  0
 11 12  1  0  0  0  0
 12 13  2  0  0  0  0
 12 37  1  0  0  0  0
 13 14  1  0  0  0  0
 14 18  1  0  0  0  0
 14 15  2  0  0  0  0
 15 16  1  0  0  0  0
 16 17  2  0  0  0  0
 17 18  1  0  0  0  0
 17 38  1  0  0  0  0
 18 19  1  0  0  0  0
 19 20  1  0  0  0  0
 19 39  1  0  0  0  0
 19 40  1  0  0  0  0
 20 21  1  0  0  0  0
 20 22  1  0  0  0  0
 20 41  1  0  0  0  0
 21 42  1  0  0  0  0
 22 26  1  0  0  0  0
 22 23  1  0  0  0  0
 22 43  1  0  0  0  0
 23 24  1  0  0  0  0
 23 44  1  0  0  0  0
 23 45  1  0  0  0  0
 24 25  1  0  0  0  0
 24 46  1  0  0  0  0
 24 47  1  0  0  0  0
 25 26  1  0  0  0  0
 25 48  1  0  0  0  0
 25 49  1  0  0  0  0
 27 50  1  0  0  0  0
 27 51  1  0  0  0  0
M  END
> <s_m_source_file>
AV-unprocessed.smi

> <i_m_source_file_index>
261

> <i_lp_mmshare_version>
43012

> <i_f3d_flags>
0

> <s_epik_input>
W0NIM11PW0NASF0xW0NIMl1bQ0BASF0oQyg9TylbTkgyXSlOKFtDSDJdMSljKG5bY0hdbjIpYyhjMjMpbltjSF1uM1tDSDJdW0NASF0oW09IXSlbQ0BASF00W0NIMl1bQ0gyXVtDSDJdTzQ=

> <s_epik_cmdline>
J2VwaWtfcHl0aG9uJywgJy1waCcsICc3LjAnLCAnLXRuJywgJzgnLCAnLW1hJywgJzIwMCcsICctbWV0YWxfYmluZGluZycsICctaW1hZScsICc8aW5maWxlLm1hZT4nLCAnLW9tYWUnLCAnPG91dGZpbGUubWFlPic=

> <r_lp_tautomer_probability>
1

> <r_epik_Ionization_Penalty>
0.000713824

> <r_epik_Ionization_Penalty_Charging>
0

> <r_epik_Ionization_Penalty_Neutral>
0.000713824

> <r_epik_State_Penalty>
0.000402132

> <r_epik_Charging_Adjusted_Penalty>
0.000402132

> <i_epik_Tot_Q>
0

> <i_epik_Tot_abs_Q>
0

> <r_epik_Metal_State_Penalty>
-0

> <b_epik_Metal_Only>
0

> <s_lp_Force_Field>
OPLS_2005

> <r_lp_Energy>
43.7776

> <b_lp_Chiralities_Consistent>
1

> <s_lp_Variant>
AV-unprocessed.smi:261-10

> <Gold.Version>
5.8.1

> <Gold.Id.Protein>
6NUR|6NUR_protein|mol2

> <Gold.PLP.Fitness>
43.4128

> <Gold.PLP.PLP>
-30.9259

> <Gold.PLP.part.hbond>
-5.0000

> <Gold.PLP.part.metal>
0.0000

> <Gold.PLP.part.buried>
-5.6475

> <Gold.PLP.part.nonpolar>
-20.8338

> <Gold.PLP.part.repulsive>
0.9562

> <Gold.PLP.ligand.clash>
0.0000

> <Gold.PLP.ligand.torsion>
0.3740

> <Gold.PLP.Chemscore.Hbond>
3.5440

> <Gold.PLP.Chemscore.CHOScore>
0.7446

> <Gold.PLP.Chemscore.Metal>
0.0000

> <Gold.Chemscore.Hbonds>
donor molecule, donor type, donor heavy atom, donor atom, acceptor molecule, acceptor atom, score
      L1  H    21    42       P1 10171  1.00
      P1  H  6896  6908       L1     8  0.34
      P1  H  6931  6943       L1     2  0.96
      P1  H  6934  6947       L1     2  0.83
      L1  C    17    38       P1  7948  0.86

> <Gold.PLP.Chemscore.Internal.Correction>
0.3690

> <Gold.Rescore>
     Score         DG    S(hbond)    S(metal)    S(lipo)     H(rot)  DE(clash)    DE(int)     intcor
     12.40     -14.60       3.24        0.00      63.66       3.57       0.01       2.19       ----

> <Gold.Chemscore.Fitness>
12.3980

> <Gold.Chemscore.DG>
-14.5957

> <Gold.Chemscore.ZeroCoef>
-5.4800

> <Gold.Chemscore.Hbond>
3.2384

> <Gold.Chemscore.Metal>
0.0000

> <Gold.Chemscore.Lipo>
63.6646

> <Gold.Chemscore.Internal_Hbond>
0.0000

> <Gold.Chemscore.DEClash>
0.0082

> <Gold.Chemscore.DEInternal>
2.1895

> <Gold.Chemscore.Rot>
3.5740

> <Gold.Chemscore.Internal.Correction>
   9.000000E+99

> <Gold.Chemscore.Hbonds>
donor molecule, donor type, donor heavy atom, donor atom, acceptor molecule, acceptor atom, score
      L1  H    21    42       P1 10171  0.98
      P1  H  6896  6908       L1     8  0.05
      P1  H  6931  6943       L1     2  0.83
      P1  H  6934  6947       L1     2  0.52

> <Gold.Chemscore.Hbond.Weighted>
-10.8164

> <Gold.Chemscore.Metal.Weighted>
-0.0000

> <Gold.Chemscore.Lipo.Weighted>
-7.4488

> <Gold.Chemscore.Internal_Hbond.Weighted>
0.0000

> <Gold.Chemscore.DEClash.Weighted>
0.0082

> <Gold.Chemscore.DEInternal.Weighted>
2.1895

> <Gold.Chemscore.Rot.Weighted>
9.1495

> <Gold.Chemscore.Internal.Correction.Weighted>
   9.000000E+99

> <Gold.Protein.RotatedTorsions>
[ 6907 6896 6895 6894 ] final  142.92 input  -60.11 | X-H torsion
[ 7974 7965 7964 7962 ] final -145.49 input  175.53 | X-H torsion
[ 8008 7997 7996 7995 ] final -150.28 input   59.86 | X-H torsion
[ 10167 10162 10161 10158 ] final   35.03 input  -65.29 | X-H torsion
[ 10718 10713 10712 10709 ] final   58.17 input   66.30 | X-H torsion
[ 10763 10752 10751 10750 ] final  104.34 input  -60.55 | X-H torsion
[ 11005 11000 10999 10996 ] final  126.88 input  -57.11 | X-H torsion

> <Gold.Protein.ActiveResidues>
 VAL166  LYS551  ARG553  GLY616  TRP617  ASP618  TYR619  PRO620  LYS621  CYS622 
 ASP623  PHE694  ASN695  SER759  ASP760  ASP761  ALA762  ILE779  LEU786  VAL792 
 PHE793  MET794  SER795  GLU796  ALA797  LYS798  CYS799  TRP800  GLU811  SER814 

> <Gold.Protein.RotatedAtoms>
  152.2127  133.4923  159.5118 H   0  0  0  0  0  0  0  0  0  0  0  0  # atno 6907 bound_to 6896
  150.6994  134.1446  159.4127 H   0  0  0  0  0  0  0  0  0  0  0  0  # atno 6908 bound_to 6896
  151.9366  135.0232  160.0583 H   0  0  0  0  0  0  0  0  0  0  0  0  # atno 6909 bound_to 6896
  144.8224  140.5576  143.5570 H   0  0  0  0  0  0  0  0  0  0  0  0  # atno 7974 bound_to 7965
  155.6210  140.0681  157.2678 H   0  0  0  0  0  0  0  0  0  0  0  0  # atno 8008 bound_to 7997
  154.4229  140.1784  156.1420 H   0  0  0  0  0  0  0  0  0  0  0  0  # atno 8009 bound_to 7997
  156.0009  140.3336  155.6848 H   0  0  0  0  0  0  0  0  0  0  0  0  # atno 8010 bound_to 7997
  140.4260  144.1392  150.6153 H   0  0  0  0  0  0  0  0  0  0  0  0  # atno 10167 bound_to 10162
  157.5575  130.8811  149.9058 H   0  0  0  0  0  0  0  0  0  0  0  0  # atno 10718 bound_to 10713
  153.3646  135.3946  155.1744 H   0  0  0  0  0  0  0  0  0  0  0  0  # atno 10763 bound_to 10752
  154.8685  135.3688  154.5055 H   0  0  0  0  0  0  0  0  0  0  0  0  # atno 10764 bound_to 10752
  153.5518  135.7083  153.5648 H   0  0  0  0  0  0  0  0  0  0  0  0  # atno 10765 bound_to 10752
  139.9479  134.9627  156.8773 H   0  0  0  0  0  0  0  0  0  0  0  0  # atno 11005 bound_to 11000
  145.5076  139.1480  143.3622 LP  0  0  0  0  0  0  0  0  0  0  0  0  # atno 17320 bound_to 7965
  146.2529  140.5216  142.8886 LP  0  0  0  0  0  0  0  0  0  0  0  0  # atno 17321 bound_to 7965
  140.4481  143.2498  151.9385 LP  0  0  0  0  0  0  0  0  0  0  0  0  # atno 17342 bound_to 10162
  139.4783  144.5589  151.8270 LP  0  0  0  0  0  0  0  0  0  0  0  0  # atno 17343 bound_to 10162
  156.0632  130.3696  150.0937 LP  0  0  0  0  0  0  0  0  0  0  0  0  # atno 17370 bound_to 10713
  156.9104  130.9650  151.3564 LP  0  0  0  0  0  0  0  0  0  0  0  0  # atno 17371 bound_to 10713
  140.5790  134.0370  155.7457 LP  0  0  0  0  0  0  0  0  0  0  0  0  # atno 17394 bound_to 11000
  141.1134  133.9579  157.2867 LP  0  0  0  0  0  0  0  0  0  0  0  0  # atno 17395 bound_to 11000

$$$$
