AV-unprocessed.smi:637|AV-procd|sdf|3141|dock9
  -GOLD-   22720 0 63D 1   1.00000     0.00000
 Structure written by MMmdl.
 38 40  0  0  0  0  0  0  0  0  1 V2000
  151.7729  145.3168  159.7016 C   0  0  0  0  0  0  0  0  0  0  0  0
  152.1377  143.8716  159.6659 C   0  0  0  0  0  0  0  0  0  0  0  0
  152.7987  143.1488  160.6291 C   0  0  0  0  0  0  0  0  0  0  0  0
  152.9938  141.7800  160.2770 C   0  0  0  0  0  0  0  0  0  0  0  0
  152.4711  141.4909  159.0389 C   0  0  0  0  0  0  0  0  0  0  0  0
  152.5605  140.1551  158.4715 C   0  0  0  0  0  0  0  0  0  0  0  0
  153.5939  139.2232  158.8896 C   0  0  0  0  0  0  0  0  0  0  0  0
  153.6311  137.9898  158.3408 C   0  0  0  0  0  0  0  0  0  0  0  0
  152.6599  137.5652  157.3347 C   0  0  0  0  0  0  0  0  0  0  0  0
  152.6677  136.4481  156.8180 O   0  0  0  0  0  0  0  0  0  0  0  0
  151.7415  138.5246  157.0180 N   0  0  0  0  0  0  0  0  0  0  0  0
  150.6866  138.2759  156.0282 C   0  0  0  0  0  0  0  0  0  0  0  0
  150.8397  139.1553  154.7682 C   0  0  2  0  0  0  0  0  0  0  0  0
  151.7527  140.1988  155.0485 O   0  0  0  0  0  0  0  0  0  0  0  0
  149.4914  139.7019  154.3239 C   0  0  0  0  0  0  0  0  0  0  0  0
  149.2282  141.0857  154.4151 C   0  0  0  0  0  0  0  0  0  0  0  0
  147.9867  141.6017  153.9949 C   0  0  0  0  0  0  0  0  0  0  0  0
  147.0025  140.7374  153.4783 C   0  0  0  0  0  0  0  0  0  0  0  0
  147.2603  139.3566  153.3813 C   0  0  0  0  0  0  0  0  0  0  0  0
  146.3157  138.5247  152.8824 F   0  0  0  0  0  0  0  0  0  0  0  0
  148.5013  138.8403  153.8013 C   0  0  0  0  0  0  0  0  0  0  0  0
  151.6971  139.7882  157.5790 N   0  0  0  0  0  0  0  0  0  0  0  0
  151.7288  142.8776  158.2889 S   0  0  0  0  0  0  0  0  0  0  0  0
  152.1618  145.7988  160.5988 H   0  0  0  0  0  0  0  0  0  0  0  0
  150.6901  145.4423  159.6938 H   0  0  0  0  0  0  0  0  0  0  0  0
  152.1806  145.8397  158.8362 H   0  0  0  0  0  0  0  0  0  0  0  0
  153.1483  143.5527  161.5679 H   0  0  0  0  0  0  0  0  0  0  0  0
  153.5000  141.0906  160.9376 H   0  0  0  0  0  0  0  0  0  0  0  0
  154.3247  139.5109  159.6303 H   0  0  0  0  0  0  0  0  0  0  0  0
  154.3991  137.2972  158.6524 H   0  0  0  0  0  0  0  0  0  0  0  0
  150.7295  137.2225  155.7442 H   0  0  0  0  0  0  0  0  0  0  0  0
  149.6954  138.4083  156.4671 H   0  0  0  0  0  0  0  0  0  0  0  0
  151.2560  138.5691  153.9478 H   0  0  0  0  0  0  0  0  0  0  0  0
  151.3044  140.8613  155.5516 H   0  0  0  0  0  0  0  0  0  0  0  0
  149.9789  141.7575  154.8051 H   0  0  0  0  0  0  0  0  0  0  0  0
  147.7898  142.6612  154.0678 H   0  0  0  0  0  0  0  0  0  0  0  0
  146.0513  141.1335  153.1547 H   0  0  0  0  0  0  0  0  0  0  0  0
  148.6920  137.7803  153.7178 H   0  0  0  0  0  0  0  0  0  0  0  0
  1  2  1  0  0  0  0
  1 24  1  0  0  0  0
  1 25  1  0  0  0  0
  1 26  1  0  0  0  0
  2 23  1  0  0  0  0
  2  3  2  0  0  0  0
  3  4  1  0  0  0  0
  3 27  1  0  0  0  0
  4  5  2  0  0  0  0
  4 28  1  0  0  0  0
  5  6  1  0  0  0  0
  5 23  1  0  0  0  0
  6 22  2  0  0  0  0
  6  7  1  0  0  0  0
  7  8  2  0  0  0  0
  7 29  1  0  0  0  0
  8  9  1  0  0  0  0
  8 30  1  0  0  0  0
  9 10  2  0  0  0  0
  9 11  1  0  0  0  0
 11 12  1  0  0  0  0
 11 22  1  0  0  0  0
 12 13  1  0  0  0  0
 12 31  1  0  0  0  0
 12 32  1  0  0  0  0
 13 14  1  0  0  0  0
 13 15  1  0  0  0  0
 13 33  1  0  0  0  0
 14 34  1  0  0  0  0
 15 21  1  0  0  0  0
 15 16  2  0  0  0  0
 16 17  1  0  0  0  0
 16 35  1  0  0  0  0
 17 18  2  0  0  0  0
 17 36  1  0  0  0  0
 18 19  1  0  0  0  0
 18 37  1  0  0  0  0
 19 20  1  0  0  0  0
 19 21  2  0  0  0  0
 21 38  1  0  0  0  0
M  END
> <s_m_source_file>
AV-unprocessed.smi

> <i_m_source_file_index>
637

> <i_lp_mmshare_version>
43012

> <i_f3d_flags>
0

> <s_epik_input>
W0NIM11jMVtjSF1bY0hdYyhzMSktYzJbY0hdW2NIXWMoPU8pbihuMilbQ0gyXVtDQEhdKFtPSF0pYzNbY0hdW2NIXVtjSF1jKEYpW2NIXTM=

> <s_epik_cmdline>
J2VwaWtfcHl0aG9uJywgJy1waCcsICc3LjAnLCAnLXRuJywgJzgnLCAnLW1hJywgJzIwMCcsICctbWV0YWxfYmluZGluZycsICctaW1hZScsICc8aW5maWxlLm1hZT4nLCAnLW9tYWUnLCAnPG91dGZpbGUubWFlPic=

> <r_lp_tautomer_probability>
1

> <r_epik_Ionization_Penalty>
2.26963e-07

> <r_epik_Ionization_Penalty_Charging>
5.89185e-08

> <r_epik_Ionization_Penalty_Neutral>
1.68044e-07

> <r_epik_State_Penalty>
-0

> <r_epik_Charging_Adjusted_Penalty>
5.89185e-08

> <i_epik_Tot_Q>
0

> <i_epik_Tot_abs_Q>
0

> <r_epik_Metal_State_Penalty>
-0

> <b_epik_Metal_Only>
0

> <s_lp_Force_Field>
OPLS_2005

> <r_lp_Energy>
28.2523

> <b_lp_Chiralities_Consistent>
1

> <s_lp_Variant>
AV-unprocessed.smi:637-1

> <Gold.Version>
5.8.1

> <Gold.Id.Protein>
6NUR|6NUR_protein|mol2

> <Gold.PLP.Fitness>
50.1044

> <Gold.PLP.PLP>
-47.1849

> <Gold.PLP.part.hbond>
-2.0000

> <Gold.PLP.part.metal>
0.0000

> <Gold.PLP.part.buried>
-3.0898

> <Gold.PLP.part.nonpolar>
-42.6334

> <Gold.PLP.part.repulsive>
0.0000

> <Gold.PLP.ligand.clash>
0.0111

> <Gold.PLP.ligand.torsion>
1.0489

> <Gold.PLP.Chemscore.Hbond>
1.6720

> <Gold.PLP.Chemscore.CHOScore>
0.0000

> <Gold.PLP.Chemscore.Metal>
0.0000

> <Gold.Chemscore.Hbonds>
donor molecule, donor type, donor heavy atom, donor atom, acceptor molecule, acceptor atom, score
      P1  H  7989  7998       L1    14  0.68
      P1  H 10752 10765       L1    10  1.00

> <Gold.PLP.Chemscore.Internal.Correction>
0.0125

> <Gold.Rescore>
     Score         DG    S(hbond)    S(metal)    S(lipo)     H(rot)  DE(clash)    DE(int)     intcor
     17.33     -20.30       1.04        0.00     136.97       1.82       0.11       2.86       ----

> <Gold.Chemscore.Fitness>
17.3330

> <Gold.Chemscore.DG>
-20.2994

> <Gold.Chemscore.ZeroCoef>
-5.4800

> <Gold.Chemscore.Hbond>
1.0357

> <Gold.Chemscore.Metal>
0.0000

> <Gold.Chemscore.Lipo>
136.9655

> <Gold.Chemscore.Internal_Hbond>
0.0000

> <Gold.Chemscore.DEClash>
0.1077

> <Gold.Chemscore.DEInternal>
2.8587

> <Gold.Chemscore.Rot>
1.8222

> <Gold.Chemscore.Internal.Correction>
   9.000000E+99

> <Gold.Chemscore.Hbonds>
donor molecule, donor type, donor heavy atom, donor atom, acceptor molecule, acceptor atom, score
      P1  H  7989  7998       L1    14  0.02
      P1  H 10752 10765       L1    10  0.95

> <Gold.Chemscore.Hbond.Weighted>
-3.4593

> <Gold.Chemscore.Metal.Weighted>
-0.0000

> <Gold.Chemscore.Lipo.Weighted>
-16.0250

> <Gold.Chemscore.Internal_Hbond.Weighted>
0.0000

> <Gold.Chemscore.DEClash.Weighted>
0.1077

> <Gold.Chemscore.DEInternal.Weighted>
2.8587

> <Gold.Chemscore.Rot.Weighted>
4.6649

> <Gold.Chemscore.Internal.Correction.Weighted>
   9.000000E+99

> <Gold.Protein.RotatedTorsions>
[ 6907 6896 6895 6894 ] final  152.55 input  -60.11 | X-H torsion
[ 7974 7965 7964 7962 ] final  -82.76 input  175.53 | X-H torsion
[ 8008 7997 7996 7995 ] final  176.59 input   59.86 | X-H torsion
[ 10167 10162 10161 10158 ] final  -90.22 input  -65.29 | X-H torsion
[ 10718 10713 10712 10709 ] final   92.46 input   66.30 | X-H torsion
[ 10763 10752 10751 10750 ] final -138.98 input  -60.55 | X-H torsion
[ 11005 11000 10999 10996 ] final   96.93 input  -57.11 | X-H torsion

> <Gold.Protein.ActiveResidues>
 VAL166  LYS551  ARG553  GLY616  TRP617  ASP618  TYR619  PRO620  LYS621  CYS622 
 ASP623  PHE694  ASN695  SER759  ASP760  ASP761  ALA762  ILE779  LEU786  VAL792 
 PHE793  MET794  SER795  GLU796  ALA797  LYS798  CYS799  TRP800  GLU811  SER814 

> <Gold.Protein.RotatedAtoms>
  152.0851  133.4172  159.4518 H   0  0  0  0  0  0  0  0  0  0  0  0  # atno 6907 bound_to 6896
  150.6862  134.2937  159.4686 H   0  0  0  0  0  0  0  0  0  0  0  0  # atno 6908 bound_to 6896
  152.0783  134.9488  160.0624 H   0  0  0  0  0  0  0  0  0  0  0  0  # atno 6909 bound_to 6896
  145.5291  140.9523  143.1613 H   0  0  0  0  0  0  0  0  0  0  0  0  # atno 7974 bound_to 7965
  156.0749  140.1380  156.9784 H   0  0  0  0  0  0  0  0  0  0  0  0  # atno 8008 bound_to 7997
  154.4552  140.0964  156.6786 H   0  0  0  0  0  0  0  0  0  0  0  0  # atno 8009 bound_to 7997
  155.5169  140.3455  155.4401 H   0  0  0  0  0  0  0  0  0  0  0  0  # atno 8010 bound_to 7997
  140.3570  143.2861  151.9659 H   0  0  0  0  0  0  0  0  0  0  0  0  # atno 10167 bound_to 10162
  157.6958  131.0444  150.3884 H   0  0  0  0  0  0  0  0  0  0  0  0  # atno 10718 bound_to 10713
  154.8622  135.3596  154.5472 H   0  0  0  0  0  0  0  0  0  0  0  0  # atno 10763 bound_to 10752
  153.6092  135.7010  153.5358 H   0  0  0  0  0  0  0  0  0  0  0  0  # atno 10764 bound_to 10752
  153.3224  135.4147  155.1389 H   0  0  0  0  0  0  0  0  0  0  0  0  # atno 10765 bound_to 10752
  139.8778  134.8976  156.4232 H   0  0  0  0  0  0  0  0  0  0  0  0  # atno 11005 bound_to 11000
  144.7635  139.6899  143.7224 LP  0  0  0  0  0  0  0  0  0  0  0  0  # atno 17320 bound_to 7965
  146.2056  139.5378  142.9715 LP  0  0  0  0  0  0  0  0  0  0  0  0  # atno 17321 bound_to 7965
  139.4819  144.6026  151.7579 LP  0  0  0  0  0  0  0  0  0  0  0  0  # atno 17342 bound_to 10162
  140.5164  144.0947  150.6009 LP  0  0  0  0  0  0  0  0  0  0  0  0  # atno 17343 bound_to 10162
  156.4291  130.3968  149.6773 LP  0  0  0  0  0  0  0  0  0  0  0  0  # atno 17370 bound_to 10713
  156.3997  130.7668  151.2675 LP  0  0  0  0  0  0  0  0  0  0  0  0  # atno 17371 bound_to 10713
  140.9119  133.7706  155.9801 LP  0  0  0  0  0  0  0  0  0  0  0  0  # atno 17394 bound_to 11000
  140.8537  134.2923  157.5264 LP  0  0  0  0  0  0  0  0  0  0  0  0  # atno 17395 bound_to 11000

$$$$
