AV-unprocessed.smi:3327|AV-procd|sdf|12790|dock2
  -GOLD-   2272019143D 1   1.00000     0.00000
 Structure written by MMmdl.
 40 41  0  0  0  0  0  0  0  0  1 V2000
  154.5728  140.5619  162.1078 C   0  0  0  0  0  0  0  0  0  0  0  0
  153.5046  141.4034  161.3958 C   0  0  1  0  0  0  0  0  0  0  0  0
  153.1994  142.7052  162.1691 C   0  0  0  0  0  0  0  0  0  0  0  0
  152.2178  143.6135  161.4045 C   0  0  0  0  0  0  0  0  0  0  0  0
  152.6876  143.8283  159.9554 C   0  0  0  0  0  0  0  0  0  0  0  0
  152.8410  142.5165  159.3120 N   0  0  0  0  0  0  0  0  0  0  0  0
  152.0412  142.0186  158.3371 C   0  0  0  0  0  0  0  0  0  0  0  0
  152.2063  140.8915  157.8656 O   0  0  0  0  0  0  0  0  0  0  0  0
  150.8891  142.8890  157.8050 C   0  0  0  0  0  0  0  0  0  0  0  0
  150.3501  142.4203  156.5215 N   0  0  0  0  0  0  0  0  0  0  0  0
  149.4823  141.2696  156.7206 C   0  0  0  0  0  0  0  0  0  0  0  0
  149.2830  140.5384  155.3850 C   0  0  0  0  0  0  0  0  0  0  0  0
  150.3189  139.5492  155.1579 N   0  0  0  0  0  0  0  0  0  0  0  0
  150.1806  138.1881  154.9834 C   0  0  0  0  0  0  0  0  0  0  0  0
  151.4324  137.6720  154.8067 C   0  0  0  0  0  0  0  0  0  0  0  0
  152.2819  138.8106  154.8899 C   0  0  0  0  0  0  0  0  0  0  0  0
  151.6126  139.9326  155.1008 N   0  0  0  0  0  0  0  0  0  0  0  0
  153.9096  141.7292  159.9419 C   0  0  0  0  0  0  0  0  0  0  0  0
  155.5224  141.0946  162.1692 H   0  0  0  0  0  0  0  0  0  0  0  0
  154.7504  139.6248  161.5793 H   0  0  0  0  0  0  0  0  0  0  0  0
  154.2639  140.3138  163.1234 H   0  0  0  0  0  0  0  0  0  0  0  0
  152.5890  140.8106  161.3625 H   0  0  0  0  0  0  0  0  0  0  0  0
  152.7992  142.4743  163.1567 H   0  0  0  0  0  0  0  0  0  0  0  0
  154.1286  143.2521  162.3341 H   0  0  0  0  0  0  0  0  0  0  0  0
  151.2245  143.1623  161.4033 H   0  0  0  0  0  0  0  0  0  0  0  0
  152.1226  144.5724  161.9143 H   0  0  0  0  0  0  0  0  0  0  0  0
  152.0016  144.4966  159.4378 H   0  0  0  0  0  0  0  0  0  0  0  0
  153.6491  144.3435  159.9493 H   0  0  0  0  0  0  0  0  0  0  0  0
  150.0865  142.8957  158.5445 H   0  0  0  0  0  0  0  0  0  0  0  0
  151.2487  143.9124  157.6889 H   0  0  0  0  0  0  0  0  0  0  0  0
  149.8362  143.1516  156.0511 H   0  0  0  0  0  0  0  0  0  0  0  0
  149.9246  140.5960  157.4561 H   0  0  0  0  0  0  0  0  0  0  0  0
  148.5179  141.5971  157.1123 H   0  0  0  0  0  0  0  0  0  0  0  0
  148.3156  140.0342  155.3672 H   0  0  0  0  0  0  0  0  0  0  0  0
  149.2873  141.2452  154.5536 H   0  0  0  0  0  0  0  0  0  0  0  0
  149.2144  137.7055  155.0007 H   0  0  0  0  0  0  0  0  0  0  0  0
  151.7002  136.6387  154.6428 H   0  0  0  0  0  0  0  0  0  0  0  0
  153.3577  138.8549  154.8042 H   0  0  0  0  0  0  0  0  0  0  0  0
  154.8373  142.3032  159.9263 H   0  0  0  0  0  0  0  0  0  0  0  0
  154.1258  140.8072  159.4003 H   0  0  0  0  0  0  0  0  0  0  0  0
  1  2  1  0  0  0  0
  1 19  1  0  0  0  0
  1 20  1  0  0  0  0
  1 21  1  0  0  0  0
  2 18  1  0  0  0  0
  2  3  1  0  0  0  0
  2 22  1  0  0  0  0
  3  4  1  0  0  0  0
  3 23  1  0  0  0  0
  3 24  1  0  0  0  0
  4  5  1  0  0  0  0
  4 25  1  0  0  0  0
  4 26  1  0  0  0  0
  5  6  1  0  0  0  0
  5 27  1  0  0  0  0
  5 28  1  0  0  0  0
  6  7  1  0  0  0  0
  6 18  1  0  0  0  0
  7  8  2  0  0  0  0
  7  9  1  0  0  0  0
  9 10  1  0  0  0  0
  9 29  1  0  0  0  0
  9 30  1  0  0  0  0
 10 11  1  0  0  0  0
 10 31  1  0  0  0  0
 11 12  1  0  0  0  0
 11 32  1  0  0  0  0
 11 33  1  0  0  0  0
 12 13  1  0  0  0  0
 12 34  1  0  0  0  0
 12 35  1  0  0  0  0
 13 17  1  0  0  0  0
 13 14  1  0  0  0  0
 14 15  2  0  0  0  0
 14 36  1  0  0  0  0
 15 16  1  0  0  0  0
 15 37  1  0  0  0  0
 16 17  2  0  0  0  0
 16 38  1  0  0  0  0
 18 39  1  0  0  0  0
 18 40  1  0  0  0  0
M  END
> <s_m_source_file>
AV-unprocessed.smi

> <i_m_source_file_index>
3327

> <i_lp_mmshare_version>
43012

> <i_f3d_flags>
0

> <s_epik_input>
W0NIM11bQ0BASF0xW0NIMl1bQ0gyXVtDSDJdTihbQ0gyXTEpQyg9TylbQ0gyXVtOSF1bQ0gyXVtDSDJdbjJbY0hdW2NIXVtjSF1uMg==

> <s_epik_cmdline>
J2VwaWtfcHl0aG9uJywgJy1waCcsICc3LjAnLCAnLXRuJywgJzgnLCAnLW1hJywgJzIwMCcsICctbWV0YWxfYmluZGluZycsICctaW1hZScsICc8aW5maWxlLm1hZT4nLCAnLW9tYWUnLCAnPG91dGZpbGUubWFlPic=

> <r_lp_tautomer_probability>
1

> <r_epik_Ionization_Penalty>
0.752964

> <r_epik_Ionization_Penalty_Charging>
0

> <r_epik_Ionization_Penalty_Neutral>
0.752964

> <r_epik_State_Penalty>
0.778238

> <r_epik_Charging_Adjusted_Penalty>
0.778238

> <i_epik_Tot_Q>
0

> <i_epik_Tot_abs_Q>
0

> <r_epik_Metal_State_Penalty>
0.776974

> <b_epik_Metal_Only>
0

> <s_lp_Force_Field>
OPLS_2005

> <r_lp_Energy>
25.5335

> <b_lp_Chiralities_Consistent>
1

> <s_lp_Variant>
AV-unprocessed.smi:3327-4

> <Gold.Version>
5.8.1

> <Gold.Id.Protein>
6NUR|6NUR_protein|mol2

> <Gold.PLP.Fitness>
51.7272

> <Gold.PLP.PLP>
-46.7421

> <Gold.PLP.part.hbond>
-2.0000

> <Gold.PLP.part.metal>
0.0000

> <Gold.PLP.part.buried>
-4.5732

> <Gold.PLP.part.nonpolar>
-39.7551

> <Gold.PLP.part.repulsive>
0.0503

> <Gold.PLP.ligand.clash>
0.0000

> <Gold.PLP.ligand.torsion>
0.5347

> <Gold.PLP.Chemscore.Hbond>
2.0000

> <Gold.PLP.Chemscore.CHOScore>
0.0000

> <Gold.PLP.Chemscore.Metal>
0.0000

> <Gold.Chemscore.Hbonds>
donor molecule, donor type, donor heavy atom, donor atom, acceptor molecule, acceptor atom, score
      L1  H    10    31       P1  8028  1.00
      P1  H  7989  7998       L1    17  1.00

> <Gold.PLP.Chemscore.Internal.Correction>
0.0545

> <Gold.Rescore>
     Score         DG    S(hbond)    S(metal)    S(lipo)     H(rot)  DE(clash)    DE(int)     intcor
     19.04     -19.68       1.88        0.00     105.59       1.73       0.00       0.64       ----

> <Gold.Chemscore.Fitness>
19.0377

> <Gold.Chemscore.DG>
-19.6835

> <Gold.Chemscore.ZeroCoef>
-5.4800

> <Gold.Chemscore.Hbond>
1.8795

> <Gold.Chemscore.Metal>
0.0000

> <Gold.Chemscore.Lipo>
105.5891

> <Gold.Chemscore.Internal_Hbond>
0.0000

> <Gold.Chemscore.DEClash>
0.0033

> <Gold.Chemscore.DEInternal>
0.6426

> <Gold.Chemscore.Rot>
1.7296

> <Gold.Chemscore.Internal.Correction>
   9.000000E+99

> <Gold.Chemscore.Hbonds>
donor molecule, donor type, donor heavy atom, donor atom, acceptor molecule, acceptor atom, score
      L1  H    10    31       P1  8028  1.00
      P1  H  7989  7998       L1    17  0.19

> <Gold.Chemscore.Hbond.Weighted>
-6.2774

> <Gold.Chemscore.Metal.Weighted>
-0.0000

> <Gold.Chemscore.Lipo.Weighted>
-12.3539

> <Gold.Chemscore.Internal_Hbond.Weighted>
0.0000

> <Gold.Chemscore.DEClash.Weighted>
0.0033

> <Gold.Chemscore.DEInternal.Weighted>
0.6426

> <Gold.Chemscore.Rot.Weighted>
4.4278

> <Gold.Chemscore.Internal.Correction.Weighted>
   9.000000E+99

> <Gold.Protein.RotatedTorsions>
[ 6907 6896 6895 6894 ] final  -89.19 input  -60.11 | X-H torsion
[ 7974 7965 7964 7962 ] final -118.12 input  175.53 | X-H torsion
[ 8008 7997 7996 7995 ] final  -56.31 input   59.86 | X-H torsion
[ 10167 10162 10161 10158 ] final  113.78 input  -65.29 | X-H torsion
[ 10718 10713 10712 10709 ] final  -14.36 input   66.30 | X-H torsion
[ 10763 10752 10751 10750 ] final  -48.29 input  -60.55 | X-H torsion
[ 11005 11000 10999 10996 ] final    0.60 input  -57.11 | X-H torsion

> <Gold.Protein.ActiveResidues>
 VAL166  LYS551  ARG553  GLY616  TRP617  ASP618  TYR619  PRO620  LYS621  CYS622 
 ASP623  PHE694  ASN695  SER759  ASP760  ASP761  ALA762  ILE779  LEU786  VAL792 
 PHE793  MET794  SER795  GLU796  ALA797  LYS798  CYS799  TRP800  GLU811  SER814 

> <Gold.Protein.RotatedAtoms>
  150.6872  134.2625  159.4554 H   0  0  0  0  0  0  0  0  0  0  0  0  # atno 6907 bound_to 6896
  152.0554  134.9625  160.0584 H   0  0  0  0  0  0  0  0  0  0  0  0  # atno 6908 bound_to 6896
  152.1073  133.4247  159.4652 H   0  0  0  0  0  0  0  0  0  0  0  0  # atno 6909 bound_to 6896
  145.0774  140.8402  143.4059 H   0  0  0  0  0  0  0  0  0  0  0  0  # atno 7974 bound_to 7965
  154.4225  140.1133  156.5616 H   0  0  0  0  0  0  0  0  0  0  0  0  # atno 8008 bound_to 7997
  155.6305  140.3495  155.4662 H   0  0  0  0  0  0  0  0  0  0  0  0  # atno 8009 bound_to 7997
  155.9952  140.1187  157.0590 H   0  0  0  0  0  0  0  0  0  0  0  0  # atno 8010 bound_to 7997
  139.6436  144.7125  151.2187 H   0  0  0  0  0  0  0  0  0  0  0  0  # atno 10167 bound_to 10162
  156.6171  130.4865  149.6179 H   0  0  0  0  0  0  0  0  0  0  0  0  # atno 10718 bound_to 10713
  154.0753  135.6599  153.4830 H   0  0  0  0  0  0  0  0  0  0  0  0  # atno 10763 bound_to 10752
  153.0375  135.5167  154.7527 H   0  0  0  0  0  0  0  0  0  0  0  0  # atno 10764 bound_to 10752
  154.6605  135.3014  154.9840 H   0  0  0  0  0  0  0  0  0  0  0  0  # atno 10765 bound_to 10752
  140.6248  133.9628  155.8243 H   0  0  0  0  0  0  0  0  0  0  0  0  # atno 11005 bound_to 11000
  145.1219  139.2688  143.5584 LP  0  0  0  0  0  0  0  0  0  0  0  0  # atno 17320 bound_to 7965
  146.3530  140.0845  142.8616 LP  0  0  0  0  0  0  0  0  0  0  0  0  # atno 17321 bound_to 7965
  140.7503  143.6269  150.8460 LP  0  0  0  0  0  0  0  0  0  0  0  0  # atno 17342 bound_to 10162
  139.9909  143.5847  152.2910 LP  0  0  0  0  0  0  0  0  0  0  0  0  # atno 17343 bound_to 10162
  156.2342  130.6812  151.1493 LP  0  0  0  0  0  0  0  0  0  0  0  0  # atno 17370 bound_to 10713
  157.7238  131.0664  150.6022 LP  0  0  0  0  0  0  0  0  0  0  0  0  # atno 17371 bound_to 10713
  141.0717  134.0195  157.3516 LP  0  0  0  0  0  0  0  0  0  0  0  0  # atno 17394 bound_to 11000
  139.9139  135.0194  156.7803 LP  0  0  0  0  0  0  0  0  0  0  0  0  # atno 17395 bound_to 11000

$$$$
