AV-unprocessed.smi:312|AV-procd|sdf|2308|dock5
  -GOLD-   2262022203D 1   1.00000     0.00000
 Structure written by MMmdl.
 35 36  0  0  0  0  0  0  0  0  1 V2000
  149.4517  140.3219  157.5238 C   0  0  0  0  0  0  0  0  0  0  0  0
  150.5858  140.7507  156.5832 C   0  0  1  0  0  0  0  0  0  0  0  0
  150.0732  141.7046  155.4834 C   0  0  0  0  0  0  0  0  0  0  0  0
  149.0121  141.1205  154.6834 N   0  0  0  0  0  0  0  0  0  0  0  0
  147.7976  141.7043  154.3460 C   0  0  0  0  0  0  0  0  0  0  0  0
  147.1219  140.7874  153.5734 C   0  0  0  0  0  0  0  0  0  0  0  0
  147.8934  139.6368  153.4291 N   0  0  0  0  0  0  0  0  0  0  0  0
  148.9971  139.9074  154.1141 C   0  0  0  0  0  0  0  0  0  0  0  0
  151.6416  141.3859  157.3708 N   0  0  0  0  0  0  0  0  0  0  0  0
  151.4537  142.2395  158.3902 C   0  0  0  0  0  0  0  0  0  0  0  0
  150.3409  142.6099  158.7660 O   0  0  0  0  0  0  0  0  0  0  0  0
  152.7205  142.7389  159.1028 C   0  0  0  0  0  0  0  0  0  0  0  0
  153.4440  141.5968  159.8545 C   0  0  0  0  0  0  0  0  0  0  0  0
  153.4601  141.9780  161.3406 C   0  0  0  0  0  0  0  0  0  0  0  0
  152.3630  143.0263  161.5021 C   0  0  0  0  0  0  0  0  0  0  0  0
  152.3922  143.7907  160.1795 C   0  0  0  0  0  0  0  0  0  0  0  0
  148.6574  139.8154  156.9749 H   0  0  0  0  0  0  0  0  0  0  0  0
  149.0097  141.1799  158.0318 H   0  0  0  0  0  0  0  0  0  0  0  0
  149.8138  139.6325  158.2873 H   0  0  0  0  0  0  0  0  0  0  0  0
  150.9690  139.8448  156.1094 H   0  0  0  0  0  0  0  0  0  0  0  0
  149.6867  142.6205  155.9323 H   0  0  0  0  0  0  0  0  0  0  0  0
  150.8882  142.0016  154.8217 H   0  0  0  0  0  0  0  0  0  0  0  0
  147.5256  142.6988  154.6682 H   0  0  0  0  0  0  0  0  0  0  0  0
  146.1475  140.8664  153.1146 H   0  0  0  0  0  0  0  0  0  0  0  0
  149.8168  139.2092  154.1990 H   0  0  0  0  0  0  0  0  0  0  0  0
  152.5921  141.1406  157.1345 H   0  0  0  0  0  0  0  0  0  0  0  0
  153.3909  143.1810  158.3635 H   0  0  0  0  0  0  0  0  0  0  0  0
  152.9361  140.6390  159.7260 H   0  0  0  0  0  0  0  0  0  0  0  0
  154.4597  141.4603  159.4817 H   0  0  0  0  0  0  0  0  0  0  0  0
  153.3141  141.1181  161.9950 H   0  0  0  0  0  0  0  0  0  0  0  0
  154.4243  142.4222  161.5911 H   0  0  0  0  0  0  0  0  0  0  0  0
  151.3965  142.5363  161.6277 H   0  0  0  0  0  0  0  0  0  0  0  0
  152.5240  143.6731  162.3649 H   0  0  0  0  0  0  0  0  0  0  0  0
  153.1844  144.5399  160.2079 H   0  0  0  0  0  0  0  0  0  0  0  0
  151.4571  144.3233  159.9980 H   0  0  0  0  0  0  0  0  0  0  0  0
  1  2  1  0  0  0  0
  1 17  1  0  0  0  0
  1 18  1  0  0  0  0
  1 19  1  0  0  0  0
  2  3  1  0  0  0  0
  2  9  1  0  0  0  0
  2 20  1  0  0  0  0
  3  4  1  0  0  0  0
  3 21  1  0  0  0  0
  3 22  1  0  0  0  0
  4  8  1  0  0  0  0
  4  5  1  0  0  0  0
  5  6  2  0  0  0  0
  5 23  1  0  0  0  0
  6  7  1  0  0  0  0
  6 24  1  0  0  0  0
  7  8  2  0  0  0  0
  8 25  1  0  0  0  0
  9 10  1  0  0  0  0
  9 26  1  0  0  0  0
 10 11  2  0  0  0  0
 10 12  1  0  0  0  0
 12 16  1  0  0  0  0
 12 13  1  0  0  0  0
 12 27  1  0  0  0  0
 13 14  1  0  0  0  0
 13 28  1  0  0  0  0
 13 29  1  0  0  0  0
 14 15  1  0  0  0  0
 14 30  1  0  0  0  0
 14 31  1  0  0  0  0
 15 16  1  0  0  0  0
 15 32  1  0  0  0  0
 15 33  1  0  0  0  0
 16 34  1  0  0  0  0
 16 35  1  0  0  0  0
M  END
> <s_m_source_file>
AV-unprocessed.smi

> <i_m_source_file_index>
312

> <i_lp_mmshare_version>
43012

> <i_f3d_flags>
0

> <s_epik_input>
W2NIXTFuW2NIXVtjSF1uMVtDSDJdW0NAQEhdKFtDSDNdKVtOSF1DKD1PKVtDSF0yW0NIMl1bQ0gyXVtDSDJdW0NIMl0y

> <s_epik_cmdline>
J2VwaWtfcHl0aG9uJywgJy1waCcsICc3LjAnLCAnLXRuJywgJzgnLCAnLW1hJywgJzIwMCcsICctbWV0YWxfYmluZGluZycsICctaW1hZScsICc8aW5maWxlLm1hZT4nLCAnLW9tYWUnLCAnPG91dGZpbGUubWFlPic=

> <r_lp_tautomer_probability>
1

> <r_epik_Ionization_Penalty>
0.642614

> <r_epik_Ionization_Penalty_Charging>
0.642614

> <r_epik_Ionization_Penalty_Neutral>
3.44135e-08

> <r_epik_State_Penalty>
0.660429

> <r_epik_Charging_Adjusted_Penalty>
1.30304

> <i_epik_Tot_Q>
0

> <i_epik_Tot_abs_Q>
0

> <r_epik_Metal_State_Penalty>
0.31224

> <b_epik_Metal_Only>
0

> <s_lp_Force_Field>
OPLS_2005

> <r_lp_Energy>
21.6538

> <b_lp_Chiralities_Consistent>
1

> <s_lp_Variant>
AV-unprocessed.smi:312-4

> <Gold.Version>
5.8.1

> <Gold.Id.Protein>
6NUR|6NUR_protein|mol2

> <Gold.PLP.Fitness>
42.1603

> <Gold.PLP.PLP>
-37.2000

> <Gold.PLP.part.hbond>
0.0000

> <Gold.PLP.part.metal>
0.0000

> <Gold.PLP.part.buried>
-4.6861

> <Gold.PLP.part.nonpolar>
-33.7886

> <Gold.PLP.part.repulsive>
0.6654

> <Gold.PLP.ligand.clash>
0.0000

> <Gold.PLP.ligand.torsion>
0.4863

> <Gold.PLP.Chemscore.Hbond>
0.0000

> <Gold.PLP.Chemscore.CHOScore>
1.9699

> <Gold.PLP.Chemscore.Metal>
0.0000

> <Gold.Chemscore.Hbonds>
donor molecule, donor type, donor heavy atom, donor atom, acceptor molecule, acceptor atom, score
      L1  C     5    23       P1  8028  0.84
      L1  C     6    24       P1 10175  0.91

> <Gold.PLP.Chemscore.Internal.Correction>
0.0232

> <Gold.Rescore>
     Score         DG    S(hbond)    S(metal)    S(lipo)     H(rot)  DE(clash)    DE(int)     intcor
      9.79     -11.26       0.00        0.00      87.83       1.76       0.07       1.40       ----

> <Gold.Chemscore.Fitness>
9.7903

> <Gold.Chemscore.DG>
-11.2598

> <Gold.Chemscore.ZeroCoef>
-5.4800

> <Gold.Chemscore.Hbond>
0.0000

> <Gold.Chemscore.Metal>
0.0000

> <Gold.Chemscore.Lipo>
87.8298

> <Gold.Chemscore.Internal_Hbond>
0.0000

> <Gold.Chemscore.DEClash>
0.0735

> <Gold.Chemscore.DEInternal>
1.3960

> <Gold.Chemscore.Rot>
1.7563

> <Gold.Chemscore.Internal.Correction>
   9.000000E+99

> <Gold.Chemscore.Hbond.Weighted>
-0.0000

> <Gold.Chemscore.Metal.Weighted>
-0.0000

> <Gold.Chemscore.Lipo.Weighted>
-10.2761

> <Gold.Chemscore.Internal_Hbond.Weighted>
0.0000

> <Gold.Chemscore.DEClash.Weighted>
0.0735

> <Gold.Chemscore.DEInternal.Weighted>
1.3960

> <Gold.Chemscore.Rot.Weighted>
4.4962

> <Gold.Chemscore.Internal.Correction.Weighted>
   9.000000E+99

> <Gold.Protein.RotatedTorsions>
[ 6907 6896 6895 6894 ] final -131.93 input  -60.11 | X-H torsion
[ 7974 7965 7964 7962 ] final   28.22 input  175.53 | X-H torsion
[ 8008 7997 7996 7995 ] final -145.47 input   59.86 | X-H torsion
[ 10167 10162 10161 10158 ] final -114.17 input  -65.29 | X-H torsion
[ 10718 10713 10712 10709 ] final  -52.93 input   66.30 | X-H torsion
[ 10763 10752 10751 10750 ] final -127.53 input  -60.55 | X-H torsion
[ 11005 11000 10999 10996 ] final   62.48 input  -57.11 | X-H torsion

> <Gold.Protein.ActiveResidues>
 VAL166  LYS551  ARG553  GLY616  TRP617  ASP618  TYR619  PRO620  LYS621  CYS622 
 ASP623  PHE694  ASN695  SER759  ASP760  ASP761  ALA762  ILE779  LEU786  VAL792 
 PHE793  MET794  SER795  GLU796  ALA797  LYS798  CYS799  TRP800  GLU811  SER814 

> <Gold.Protein.RotatedAtoms>
  150.9566  133.6491  159.2761 H   0  0  0  0  0  0  0  0  0  0  0  0  # atno 6907 bound_to 6896
  151.3828  135.0941  159.9511 H   0  0  0  0  0  0  0  0  0  0  0  0  # atno 6908 bound_to 6896
  152.5131  133.9097  159.7536 H   0  0  0  0  0  0  0  0  0  0  0  0  # atno 6909 bound_to 6896
  146.1741  139.7086  142.8947 H   0  0  0  0  0  0  0  0  0  0  0  0  # atno 7974 bound_to 7965
  155.5437  140.0610  157.2865 H   0  0  0  0  0  0  0  0  0  0  0  0  # atno 8008 bound_to 7997
  154.4443  140.1915  156.0660 H   0  0  0  0  0  0  0  0  0  0  0  0  # atno 8009 bound_to 7997
  156.0566  140.3277  155.7417 H   0  0  0  0  0  0  0  0  0  0  0  0  # atno 8010 bound_to 7997
  140.1039  143.4588  152.1795 H   0  0  0  0  0  0  0  0  0  0  0  0  # atno 10167 bound_to 10162
  156.1579  130.4150  149.9840 H   0  0  0  0  0  0  0  0  0  0  0  0  # atno 10718 bound_to 10713
  154.8753  135.3958  154.3609 H   0  0  0  0  0  0  0  0  0  0  0  0  # atno 10763 bound_to 10752
  153.4382  135.7026  153.6191 H   0  0  0  0  0  0  0  0  0  0  0  0  # atno 10764 bound_to 10752
  153.4784  135.3775  155.2398 H   0  0  0  0  0  0  0  0  0  0  0  0  # atno 10765 bound_to 10752
  140.0089  134.6326  155.9811 H   0  0  0  0  0  0  0  0  0  0  0  0  # atno 11005 bound_to 11000
  145.4260  141.0411  143.2937 LP  0  0  0  0  0  0  0  0  0  0  0  0  # atno 17320 bound_to 7965
  144.8208  139.5794  143.6987 LP  0  0  0  0  0  0  0  0  0  0  0  0  # atno 17321 bound_to 7965
  139.5656  144.7433  151.4032 LP  0  0  0  0  0  0  0  0  0  0  0  0  # atno 17342 bound_to 10162
  140.6963  143.7741  150.7332 LP  0  0  0  0  0  0  0  0  0  0  0  0  # atno 17343 bound_to 10162
  156.7678  130.9175  151.3643 LP  0  0  0  0  0  0  0  0  0  0  0  0  # atno 17370 bound_to 10713
  157.6709  130.9050  150.0038 LP  0  0  0  0  0  0  0  0  0  0  0  0  # atno 17371 bound_to 10713
  141.1697  133.6537  156.4606 LP  0  0  0  0  0  0  0  0  0  0  0  0  # atno 17394 bound_to 11000
  140.4590  134.6859  157.5076 LP  0  0  0  0  0  0  0  0  0  0  0  0  # atno 17395 bound_to 11000

$$$$
