AV-unprocessed.smi:2439|AV-procd|sdf|9613|dock7
  -GOLD-   2272013243D 1   1.00000     0.00000
 Structure written by MMmdl.
 40 42  0  0  0  0  0  0  0  0  1 V2000
  154.2713  141.2631  161.2645 N   0  0  0  0  0  0  0  0  0  0  0  0
  153.4595  141.8713  160.7080 C   0  0  0  0  0  0  0  0  0  0  0  0
  152.4367  142.6377  160.0065 C   0  0  0  0  0  0  0  0  0  0  0  0
  152.1918  143.9697  160.4007 C   0  0  0  0  0  0  0  0  0  0  0  0
  151.2068  144.7149  159.7270 C   0  0  0  0  0  0  0  0  0  0  0  0
  150.5025  144.0938  158.6796 C   0  0  0  0  0  0  0  0  0  0  0  0
  150.7263  142.8209  158.2921 N   0  0  0  0  0  0  0  0  0  0  0  0
  151.6725  142.0957  158.9380 C   0  0  0  0  0  0  0  0  0  0  0  0
  151.8812  140.7721  158.5116 N   0  0  0  0  0  0  0  0  0  0  0  0
  151.0669  140.1840  157.4573 C   0  0  0  0  0  0  0  0  0  0  0  0
  151.2565  140.9241  156.1198 C   0  0  2  0  0  0  0  0  0  0  0  0
  149.9990  141.6975  155.6786 C   0  0  0  0  0  0  0  0  0  0  0  0
  148.9234  140.8195  155.2331 N   0  0  0  0  0  0  0  0  0  0  0  0
  147.7589  141.5915  154.8017 C   0  0  0  0  0  0  0  0  0  0  0  0
  146.5906  140.6960  154.3610 C   0  0  0  0  0  0  0  0  0  0  0  0
  147.0410  139.7478  153.2410 C   0  0  0  0  0  0  0  0  0  0  0  0
  148.2974  138.9780  153.6760 C   0  0  0  0  0  0  0  0  0  0  0  0
  149.4006  139.9426  154.1599 C   0  0  2  0  0  0  0  0  0  0  0  0
  150.6475  139.1529  154.6047 C   0  0  0  0  0  0  0  0  0  0  0  0
  151.6603  140.0413  155.0710 O   0  0  0  0  0  0  0  0  0  0  0  0
  152.7495  144.4203  161.2094 H   0  0  0  0  0  0  0  0  0  0  0  0
  150.9972  145.7368  160.0058 H   0  0  0  0  0  0  0  0  0  0  0  0
  149.7394  144.6327  158.1379 H   0  0  0  0  0  0  0  0  0  0  0  0
  152.4903  140.1665  159.0432 H   0  0  0  0  0  0  0  0  0  0  0  0
  151.3001  139.1244  157.3534 H   0  0  0  0  0  0  0  0  0  0  0  0
  150.0209  140.2457  157.7590 H   0  0  0  0  0  0  0  0  0  0  0  0
  152.0610  141.6487  156.2528 H   0  0  0  0  0  0  0  0  0  0  0  0
  149.6502  142.3268  156.4985 H   0  0  0  0  0  0  0  0  0  0  0  0
  150.2719  142.3747  154.8676 H   0  0  0  0  0  0  0  0  0  0  0  0
  147.4252  142.2361  155.6158 H   0  0  0  0  0  0  0  0  0  0  0  0
  148.0371  142.2527  153.9795 H   0  0  0  0  0  0  0  0  0  0  0  0
  146.2304  140.1176  155.2129 H   0  0  0  0  0  0  0  0  0  0  0  0
  145.7543  141.3080  154.0224 H   0  0  0  0  0  0  0  0  0  0  0  0
  146.2396  139.0540  152.9861 H   0  0  0  0  0  0  0  0  0  0  0  0
  147.2577  140.3226  152.3398 H   0  0  0  0  0  0  0  0  0  0  0  0
  148.0379  138.2833  154.4765 H   0  0  0  0  0  0  0  0  0  0  0  0
  148.6631  138.3722  152.8463 H   0  0  0  0  0  0  0  0  0  0  0  0
  149.6929  140.5647  153.3120 H   0  0  0  0  0  0  0  0  0  0  0  0
  150.3964  138.4284  155.3800 H   0  0  0  0  0  0  0  0  0  0  0  0
  151.0505  138.5826  153.7677 H   0  0  0  0  0  0  0  0  0  0  0  0
  1  2  3  0  0  0  0
  2  3  1  0  0  0  0
  3  8  1  0  0  0  0
  3  4  2  0  0  0  0
  4  5  1  0  0  0  0
  4 21  1  0  0  0  0
  5  6  2  0  0  0  0
  5 22  1  0  0  0  0
  6  7  1  0  0  0  0
  6 23  1  0  0  0  0
  7  8  2  0  0  0  0
  8  9  1  0  0  0  0
  9 10  1  0  0  0  0
  9 24  1  0  0  0  0
 10 11  1  0  0  0  0
 10 25  1  0  0  0  0
 10 26  1  0  0  0  0
 11 20  1  0  0  0  0
 11 12  1  0  0  0  0
 11 27  1  0  0  0  0
 12 13  1  0  0  0  0
 12 28  1  0  0  0  0
 12 29  1  0  0  0  0
 13 18  1  0  0  0  0
 13 14  1  0  0  0  0
 14 15  1  0  0  0  0
 14 30  1  0  0  0  0
 14 31  1  0  0  0  0
 15 16  1  0  0  0  0
 15 32  1  0  0  0  0
 15 33  1  0  0  0  0
 16 17  1  0  0  0  0
 16 34  1  0  0  0  0
 16 35  1  0  0  0  0
 17 18  1  0  0  0  0
 17 36  1  0  0  0  0
 17 37  1  0  0  0  0
 18 19  1  0  0  0  0
 18 38  1  0  0  0  0
 19 20  1  0  0  0  0
 19 39  1  0  0  0  0
 19 40  1  0  0  0  0
M  END
> <s_m_source_file>
AV-unprocessed.smi

> <i_m_source_file_index>
2439

> <i_lp_mmshare_version>
43012

> <i_f3d_flags>
0

> <s_epik_input>
TiNDYzFbY0hdW2NIXVtjSF1uYzFbTkhdW0NIMl1bQ0BIXShbQ0gyXTIpT1tDSDJdW0NAQEhdKE4yMylbQ0gyXVtDSDJdW0NIMl1bQ0gyXTM=

> <s_epik_cmdline>
J2VwaWtfcHl0aG9uJywgJy1waCcsICc3LjAnLCAnLXRuJywgJzgnLCAnLW1hJywgJzIwMCcsICctbWV0YWxfYmluZGluZycsICctaW1hZScsICc8aW5maWxlLm1hZT4nLCAnLW9tYWUnLCAnPG91dGZpbGUubWFlPic=

> <r_epik_Ionization_Penalty>
1.22355

> <r_epik_Ionization_Penalty_Charging>
0

> <r_epik_Ionization_Penalty_Neutral>
1.22355

> <r_epik_State_Penalty>
1.29103

> <r_epik_Charging_Adjusted_Penalty>
1.29103

> <i_epik_Tot_Q>
0

> <i_epik_Tot_abs_Q>
0

> <r_epik_Metal_State_Penalty>
1.29103

> <b_epik_Metal_Only>
0

> <s_lp_Force_Field>
OPLS_2005

> <r_lp_Energy>
40.6055

> <b_lp_Chiralities_Consistent>
1

> <s_lp_Variant>
AV-unprocessed.smi:2439-11

> <Gold.Version>
5.8.1

> <Gold.Id.Protein>
6NUR|6NUR_protein|mol2

> <Gold.PLP.Fitness>
47.1545

> <Gold.PLP.PLP>
-42.8752

> <Gold.PLP.part.hbond>
-1.9565

> <Gold.PLP.part.metal>
0.0000

> <Gold.PLP.part.buried>
-5.3022

> <Gold.PLP.part.nonpolar>
-36.5381

> <Gold.PLP.part.repulsive>
0.3438

> <Gold.PLP.ligand.clash>
0.0000

> <Gold.PLP.ligand.torsion>
0.7351

> <Gold.PLP.Chemscore.Hbond>
0.8000

> <Gold.PLP.Chemscore.CHOScore>
1.1146

> <Gold.PLP.Chemscore.Metal>
0.0000

> <Gold.Chemscore.Hbonds>
donor molecule, donor type, donor heavy atom, donor atom, acceptor molecule, acceptor atom, score
      P1  H  7989  7998       L1    20  0.50
      L1  C     6    23       P1  8028  0.34
      L1  C     6    23       P1  8029  0.78

> <Gold.PLP.Chemscore.Internal.Correction>
0.0057

> <Gold.Rescore>
     Score         DG    S(hbond)    S(metal)    S(lipo)     H(rot)  DE(clash)    DE(int)     intcor
     14.02     -14.96       0.30        0.00      99.80       1.25       0.12       0.83       ----

> <Gold.Chemscore.Fitness>
14.0158

> <Gold.Chemscore.DG>
-14.9644

> <Gold.Chemscore.ZeroCoef>
-5.4800

> <Gold.Chemscore.Hbond>
0.3007

> <Gold.Chemscore.Metal>
0.0000

> <Gold.Chemscore.Lipo>
99.7958

> <Gold.Chemscore.Internal_Hbond>
0.0000

> <Gold.Chemscore.DEClash>
0.1171

> <Gold.Chemscore.DEInternal>
0.8315

> <Gold.Chemscore.Rot>
1.2485

> <Gold.Chemscore.Internal.Correction>
   9.000000E+99

> <Gold.Chemscore.Hbonds>
donor molecule, donor type, donor heavy atom, donor atom, acceptor molecule, acceptor atom, score
      P1  H  7989  7998       L1    20  0.02

> <Gold.Chemscore.Hbond.Weighted>
-1.0044

> <Gold.Chemscore.Metal.Weighted>
-0.0000

> <Gold.Chemscore.Lipo.Weighted>
-11.6761

> <Gold.Chemscore.Internal_Hbond.Weighted>
0.0000

> <Gold.Chemscore.DEClash.Weighted>
0.1171

> <Gold.Chemscore.DEInternal.Weighted>
0.8315

> <Gold.Chemscore.Rot.Weighted>
3.1961

> <Gold.Chemscore.Internal.Correction.Weighted>
   9.000000E+99

> <Gold.Protein.RotatedTorsions>
[ 6907 6896 6895 6894 ] final   -8.83 input  -60.11 | X-H torsion
[ 7974 7965 7964 7962 ] final   11.88 input  175.53 | X-H torsion
[ 8008 7997 7996 7995 ] final  -26.37 input   59.86 | X-H torsion
[ 10167 10162 10161 10158 ] final -170.17 input  -65.29 | X-H torsion
[ 10718 10713 10712 10709 ] final  -79.59 input   66.30 | X-H torsion
[ 10763 10752 10751 10750 ] final   52.00 input  -60.55 | X-H torsion
[ 11005 11000 10999 10996 ] final  -96.23 input  -57.11 | X-H torsion

> <Gold.Protein.ActiveResidues>
 VAL166  LYS551  ARG553  GLY616  TRP617  ASP618  TYR619  PRO620  LYS621  CYS622 
 ASP623  PHE694  ASN695  SER759  ASP760  ASP761  ALA762  ILE779  LEU786  VAL792 
 PHE793  MET794  SER795  GLU796  ALA797  LYS798  CYS799  TRP800  GLU811  SER814 

> <Gold.Protein.RotatedAtoms>
  151.4274  135.1005  159.9631 H   0  0  0  0  0  0  0  0  0  0  0  0  # atno 6907 bound_to 6896
  152.4968  133.8650  159.7280 H   0  0  0  0  0  0  0  0  0  0  0  0  # atno 6908 bound_to 6896
  150.9179  133.6858  159.2867 H   0  0  0  0  0  0  0  0  0  0  0  0  # atno 6909 bound_to 6896
  146.2362  139.9420  142.8482 H   0  0  0  0  0  0  0  0  0  0  0  0  # atno 7974 bound_to 7965
  154.4429  140.1901  156.0764 H   0  0  0  0  0  0  0  0  0  0  0  0  # atno 8008 bound_to 7997
  156.0472  140.3313  155.7283 H   0  0  0  0  0  0  0  0  0  0  0  0  # atno 8009 bound_to 7997
  155.5612  140.0604  157.2819 H   0  0  0  0  0  0  0  0  0  0  0  0  # atno 8010 bound_to 7997
  139.5878  144.1280  152.1597 H   0  0  0  0  0  0  0  0  0  0  0  0  # atno 10167 bound_to 10162
  156.0089  130.4550  150.3672 H   0  0  0  0  0  0  0  0  0  0  0  0  # atno 10718 bound_to 10713
  152.9787  135.5827  154.4508 H   0  0  0  0  0  0  0  0  0  0  0  0  # atno 10763 bound_to 10752
  154.4097  135.2770  155.2047 H   0  0  0  0  0  0  0  0  0  0  0  0  # atno 10764 bound_to 10752
  154.3842  135.6140  153.5861 H   0  0  0  0  0  0  0  0  0  0  0  0  # atno 10765 bound_to 10752
  141.1418  133.8082  157.0543 H   0  0  0  0  0  0  0  0  0  0  0  0  # atno 11005 bound_to 11000
  145.1943  140.9826  143.4192 LP  0  0  0  0  0  0  0  0  0  0  0  0  # atno 17320 bound_to 7965
  144.9829  139.3765  143.6253 LP  0  0  0  0  0  0  0  0  0  0  0  0  # atno 17321 bound_to 7965
  140.0848  144.5670  150.7096 LP  0  0  0  0  0  0  0  0  0  0  0  0  # atno 17342 bound_to 10162
  140.7146  143.2534  151.4473 LP  0  0  0  0  0  0  0  0  0  0  0  0  # atno 17343 bound_to 10162
  157.1758  131.0380  151.2773 LP  0  0  0  0  0  0  0  0  0  0  0  0  # atno 17370 bound_to 10713
  157.4189  130.7426  149.6897 LP  0  0  0  0  0  0  0  0  0  0  0  0  # atno 17371 bound_to 10713
  140.0612  134.9754  157.1308 LP  0  0  0  0  0  0  0  0  0  0  0  0  # atno 17394 bound_to 11000
  140.3846  134.2250  155.7169 LP  0  0  0  0  0  0  0  0  0  0  0  0  # atno 17395 bound_to 11000

$$$$
