AV-unprocessed.smi:3242|AV-procd|sdf|12393|dock5
  -GOLD-   2272018263D 1   1.00000     0.00000
 Structure written by MMmdl.
 40 41  0  0  0  0  0  0  0  0  1 V2000
  145.4561  142.7435  154.3059 C   0  0  0  0  0  0  0  0  0  0  0  0
  146.7195  142.0381  154.2950 N   0  0  0  0  0  0  0  0  0  0  0  0
  147.7896  142.1767  155.1519 C   0  0  0  0  0  0  0  0  0  0  0  0
  148.7526  141.2927  154.7522 C   0  0  0  0  0  0  0  0  0  0  0  0
  150.1061  141.0313  155.3606 C   0  0  0  0  0  0  0  0  0  0  0  0
  150.0211  140.6377  156.8450 C   0  0  0  0  0  0  0  0  0  0  0  0
  150.8040  141.5471  157.6760 N   0  0  0  0  0  0  0  0  0  0  0  0
  151.8815  141.2097  158.4048 C   0  0  0  0  0  0  0  0  0  0  0  0
  152.2981  140.0510  158.4572 O   0  0  0  0  0  0  0  0  0  0  0  0
  152.5089  142.2541  159.0083 N   0  0  0  0  0  0  0  0  0  0  0  0
  152.0107  143.6466  158.9749 C   0  0  0  0  0  0  0  0  0  0  0  0
  152.2671  144.4683  160.2562 C   0  0  0  0  0  0  0  0  0  0  0  0
  151.9428  143.7312  161.5691 C   0  0  0  0  0  0  0  0  0  0  0  0
  153.1153  142.8857  162.0943 C   0  0  0  0  0  0  0  0  0  0  0  0
  153.4699  141.6685  161.2259 C   0  0  0  0  0  0  0  0  0  0  0  0
  153.7546  142.0226  159.7556 C   0  0  0  0  0  0  0  0  0  0  0  0
  148.1664  140.6562  153.6211 C   0  0  0  0  0  0  0  0  0  0  0  0
  146.9505  141.1024  153.3514 N   0  0  0  0  0  0  0  0  0  0  0  0
  145.4487  143.4858  155.1045 H   0  0  0  0  0  0  0  0  0  0  0  0
  144.6415  142.0377  154.4703 H   0  0  0  0  0  0  0  0  0  0  0  0
  145.3062  143.2488  153.3511 H   0  0  0  0  0  0  0  0  0  0  0  0
  147.7762  142.8793  155.9723 H   0  0  0  0  0  0  0  0  0  0  0  0
  150.6178  140.2368  154.8162 H   0  0  0  0  0  0  0  0  0  0  0  0
  150.7450  141.9093  155.2628 H   0  0  0  0  0  0  0  0  0  0  0  0
  148.9838  140.6487  157.1806 H   0  0  0  0  0  0  0  0  0  0  0  0
  150.3800  139.6138  156.9623 H   0  0  0  0  0  0  0  0  0  0  0  0
  150.5334  142.5195  157.6627 H   0  0  0  0  0  0  0  0  0  0  0  0
  152.4463  144.1563  158.1146 H   0  0  0  0  0  0  0  0  0  0  0  0
  150.9305  143.6651  158.8239 H   0  0  0  0  0  0  0  0  0  0  0  0
  153.2951  144.8318  160.2781 H   0  0  0  0  0  0  0  0  0  0  0  0
  151.6523  145.3672  160.2001 H   0  0  0  0  0  0  0  0  0  0  0  0
  151.7064  144.4769  162.3287 H   0  0  0  0  0  0  0  0  0  0  0  0
  151.0443  143.1225  161.4582 H   0  0  0  0  0  0  0  0  0  0  0  0
  153.9957  143.5201  162.2033 H   0  0  0  0  0  0  0  0  0  0  0  0
  152.8770  142.5365  163.0993 H   0  0  0  0  0  0  0  0  0  0  0  0
  154.3552  141.1943  161.6504 H   0  0  0  0  0  0  0  0  0  0  0  0
  152.6763  140.9226  161.2872 H   0  0  0  0  0  0  0  0  0  0  0  0
  154.3224  141.2121  159.2952 H   0  0  0  0  0  0  0  0  0  0  0  0
  154.4153  142.8874  159.6863 H   0  0  0  0  0  0  0  0  0  0  0  0
  148.5850  139.8821  152.9951 H   0  0  0  0  0  0  0  0  0  0  0  0
  1  2  1  0  0  0  0
  1 19  1  0  0  0  0
  1 20  1  0  0  0  0
  1 21  1  0  0  0  0
  2 18  1  0  0  0  0
  2  3  1  0  0  0  0
  3  4  2  0  0  0  0
  3 22  1  0  0  0  0
  4  5  1  0  0  0  0
  4 17  1  0  0  0  0
  5  6  1  0  0  0  0
  5 23  1  0  0  0  0
  5 24  1  0  0  0  0
  6  7  1  0  0  0  0
  6 25  1  0  0  0  0
  6 26  1  0  0  0  0
  7  8  1  0  0  0  0
  7 27  1  0  0  0  0
  8  9  2  0  0  0  0
  8 10  1  0  0  0  0
 10 16  1  0  0  0  0
 10 11  1  0  0  0  0
 11 12  1  0  0  0  0
 11 28  1  0  0  0  0
 11 29  1  0  0  0  0
 12 13  1  0  0  0  0
 12 30  1  0  0  0  0
 12 31  1  0  0  0  0
 13 14  1  0  0  0  0
 13 32  1  0  0  0  0
 13 33  1  0  0  0  0
 14 15  1  0  0  0  0
 14 34  1  0  0  0  0
 14 35  1  0  0  0  0
 15 16  1  0  0  0  0
 15 36  1  0  0  0  0
 15 37  1  0  0  0  0
 16 38  1  0  0  0  0
 16 39  1  0  0  0  0
 17 18  2  0  0  0  0
 17 40  1  0  0  0  0
M  END
> <s_m_source_file>
AV-unprocessed.smi

> <i_m_source_file_index>
3242

> <i_lp_mmshare_version>
43012

> <i_f3d_flags>
0

> <s_epik_input>
W0NIM11uMVtjSF1jKFtjSF1uMSlbQ0gyXVtDSDJdW05IXUMoPU8pTjJbQ0gyXVtDSDJdW0NIMl1bQ0gyXVtDSDJdW0NIMl0y

> <s_epik_cmdline>
J2VwaWtfcHl0aG9uJywgJy1waCcsICc3LjAnLCAnLXRuJywgJzgnLCAnLW1hJywgJzIwMCcsICctbWV0YWxfYmluZGluZycsICctaW1hZScsICc8aW5maWxlLm1hZT4nLCAnLW9tYWUnLCAnPG91dGZpbGUubWFlPic=

> <r_lp_tautomer_probability>
1

> <r_epik_Ionization_Penalty>
0.000572484

> <r_epik_Ionization_Penalty_Charging>
0

> <r_epik_Ionization_Penalty_Neutral>
0.000572484

> <r_epik_State_Penalty>
-0

> <r_epik_Charging_Adjusted_Penalty>
0

> <i_epik_Tot_Q>
0

> <i_epik_Tot_abs_Q>
0

> <r_epik_Metal_State_Penalty>
-0

> <b_epik_Metal_Only>
0

> <s_lp_Force_Field>
OPLS_2005

> <r_lp_Energy>
29.8159

> <b_lp_Chiralities_Consistent>
1

> <s_lp_Variant>
AV-unprocessed.smi:3242-1

> <Gold.Version>
5.8.1

> <Gold.Id.Protein>
6NUR|6NUR_protein|mol2

> <Gold.PLP.Fitness>
46.9155

> <Gold.PLP.PLP>
-42.5375

> <Gold.PLP.part.hbond>
0.0000

> <Gold.PLP.part.metal>
0.0000

> <Gold.PLP.part.buried>
1.2359

> <Gold.PLP.part.nonpolar>
-43.4039

> <Gold.PLP.part.repulsive>
0.2325

> <Gold.PLP.ligand.clash>
0.0754

> <Gold.PLP.ligand.torsion>
0.3956

> <Gold.PLP.Chemscore.Hbond>
0.0000

> <Gold.PLP.Chemscore.CHOScore>
1.7335

> <Gold.PLP.Chemscore.Metal>
0.0000

> <Gold.Chemscore.Hbonds>
donor molecule, donor type, donor heavy atom, donor atom, acceptor molecule, acceptor atom, score
      L1  C     3    22       P1  8028  0.72
      L1  C    17    40       P1  7957  1.00

> <Gold.PLP.Chemscore.Internal.Correction>
0.0441

> <Gold.Rescore>
     Score         DG    S(hbond)    S(metal)    S(lipo)     H(rot)  DE(clash)    DE(int)     intcor
     13.63     -14.33       0.00        0.00     105.01       1.34       0.26       0.45       ----

> <Gold.Chemscore.Fitness>
13.6256

> <Gold.Chemscore.DG>
-14.3316

> <Gold.Chemscore.ZeroCoef>
-5.4800

> <Gold.Chemscore.Hbond>
0.0000

> <Gold.Chemscore.Metal>
0.0000

> <Gold.Chemscore.Lipo>
105.0067

> <Gold.Chemscore.Internal_Hbond>
0.0000

> <Gold.Chemscore.DEClash>
0.2551

> <Gold.Chemscore.DEInternal>
0.4509

> <Gold.Chemscore.Rot>
1.3415

> <Gold.Chemscore.Internal.Correction>
   9.000000E+99

> <Gold.Chemscore.Hbond.Weighted>
-0.0000

> <Gold.Chemscore.Metal.Weighted>
-0.0000

> <Gold.Chemscore.Lipo.Weighted>
-12.2858

> <Gold.Chemscore.Internal_Hbond.Weighted>
0.0000

> <Gold.Chemscore.DEClash.Weighted>
0.2551

> <Gold.Chemscore.DEInternal.Weighted>
0.4509

> <Gold.Chemscore.Rot.Weighted>
3.4342

> <Gold.Chemscore.Internal.Correction.Weighted>
   9.000000E+99

> <Gold.Protein.RotatedTorsions>
[ 6907 6896 6895 6894 ] final  163.93 input  -60.11 | X-H torsion
[ 7974 7965 7964 7962 ] final -165.11 input  175.53 | X-H torsion
[ 8008 7997 7996 7995 ] final  -70.09 input   59.86 | X-H torsion
[ 10167 10162 10161 10158 ] final  119.72 input  -65.29 | X-H torsion
[ 10718 10713 10712 10709 ] final    0.67 input   66.30 | X-H torsion
[ 10763 10752 10751 10750 ] final  134.73 input  -60.55 | X-H torsion
[ 11005 11000 10999 10996 ] final -136.96 input  -57.11 | X-H torsion

> <Gold.Protein.ActiveResidues>
 VAL166  LYS551  ARG553  GLY616  TRP617  ASP618  TYR619  PRO620  LYS621  CYS622 
 ASP623  PHE694  ASN695  SER759  ASP760  ASP761  ALA762  ILE779  LEU786  VAL792 
 PHE793  MET794  SER795  GLU796  ALA797  LYS798  CYS799  TRP800  GLU811  SER814 

> <Gold.Protein.RotatedAtoms>
  151.9177  133.3577  159.3885 H   0  0  0  0  0  0  0  0  0  0  0  0  # atno 6907 bound_to 6896
  150.7044  134.4667  159.5415 H   0  0  0  0  0  0  0  0  0  0  0  0  # atno 6908 bound_to 6896
  152.2285  134.8345  160.0527 H   0  0  0  0  0  0  0  0  0  0  0  0  # atno 6909 bound_to 6896
  144.7278  140.2862  143.6228 H   0  0  0  0  0  0  0  0  0  0  0  0  # atno 7974 bound_to 7965
  154.4986  140.0841  156.7751 H   0  0  0  0  0  0  0  0  0  0  0  0  # atno 8008 bound_to 7997
  155.4056  140.3439  155.4242 H   0  0  0  0  0  0  0  0  0  0  0  0  # atno 8009 bound_to 7997
  156.1427  140.1534  156.8882 H   0  0  0  0  0  0  0  0  0  0  0  0  # atno 8010 bound_to 7997
  139.6028  144.7061  151.3023 H   0  0  0  0  0  0  0  0  0  0  0  0  # atno 10167 bound_to 10162
  156.8368  130.5507  149.5681 H   0  0  0  0  0  0  0  0  0  0  0  0  # atno 10718 bound_to 10713
  153.8284  135.3107  155.3416 H   0  0  0  0  0  0  0  0  0  0  0  0  # atno 10763 bound_to 10752
  154.7983  135.4742  154.0218 H   0  0  0  0  0  0  0  0  0  0  0  0  # atno 10764 bound_to 10752
  153.1649  135.6867  153.8779 H   0  0  0  0  0  0  0  0  0  0  0  0  # atno 10765 bound_to 10752
  140.8756  134.1997  157.4624 H   0  0  0  0  0  0  0  0  0  0  0  0  # atno 11005 bound_to 11000
  145.7900  139.1923  143.2108 LP  0  0  0  0  0  0  0  0  0  0  0  0  # atno 17320 bound_to 7965
  146.0763  140.7813  142.9663 LP  0  0  0  0  0  0  0  0  0  0  0  0  # atno 17321 bound_to 7965
  140.7262  143.6996  150.7856 LP  0  0  0  0  0  0  0  0  0  0  0  0  # atno 17342 bound_to 10162
  140.0575  143.5188  152.2644 LP  0  0  0  0  0  0  0  0  0  0  0  0  # atno 17343 bound_to 10162
  156.0903  130.5891  150.9721 LP  0  0  0  0  0  0  0  0  0  0  0  0  # atno 17370 bound_to 10713
  157.6377  131.0914  150.8314 LP  0  0  0  0  0  0  0  0  0  0  0  0  # atno 17371 bound_to 10713
  139.8715  134.9794  156.5035 LP  0  0  0  0  0  0  0  0  0  0  0  0  # atno 17394 bound_to 11000
  140.8522  133.8123  155.9180 LP  0  0  0  0  0  0  0  0  0  0  0  0  # atno 17395 bound_to 11000

$$$$
