AV-unprocessed.smi:652|AV-procd|sdf|3200|dock4
  -GOLD-   22720 0133D 1   1.00000     0.00000
 Structure written by MMmdl.
 49 50  0  0  0  0  0  0  0  0  3 V2000
  144.4742  135.7311  151.2538 C   0  0  0  0  0  0  0  0  0  0  0  0
  145.8681  135.1153  151.4336 C   0  0  0  0  0  0  0  0  0  0  0  0
  145.7930  133.5925  151.6299 C   0  0  0  0  0  0  0  0  0  0  0  0
  146.5339  135.7460  152.5701 N   0  0  0  0  0  0  0  0  0  0  0  0
  146.1041  135.7113  153.8413 C   0  0  0  0  0  0  0  0  0  0  0  0
  145.0804  135.1260  154.1952 O   0  0  0  0  0  0  0  0  0  0  0  0
  146.9627  136.4479  154.8730 C   0  0  0  0  0  0  0  0  0  0  0  0
  146.9638  137.9729  154.6473 C   0  0  0  0  0  0  0  0  0  0  0  0
  148.0264  138.4034  153.7002 N   0  3  1  0  0  0  0  0  0  0  0  0
  147.5515  139.3624  152.6735 C   0  0  0  0  0  0  0  0  0  0  0  0
  147.4192  140.7799  153.2574 C   0  0  0  0  0  0  0  0  0  0  0  0
  148.6706  141.1824  153.8010 O   0  0  0  0  0  0  0  0  0  0  0  0
  149.0960  140.3488  154.8751 C   0  0  2  0  0  0  0  0  0  0  0  0
  150.4181  140.9120  155.4172 C   0  0  0  0  0  0  0  0  0  0  0  0
  150.2260  142.1967  156.0738 N   0  0  0  0  0  0  0  0  0  0  0  0
  150.9170  142.4988  157.2548 C   0  0  0  0  0  0  0  0  0  0  0  0
  151.8270  141.6208  157.8885 C   0  0  0  0  0  0  0  0  0  0  0  0
  152.4569  142.0518  159.0684 C   0  0  0  0  0  0  0  0  0  0  0  0
  152.1390  143.3359  159.5450 C   0  0  0  0  0  0  0  0  0  0  0  0
  151.2646  144.1598  158.9255 N   0  0  0  0  0  0  0  0  0  0  0  0
  150.6778  143.7183  157.7988 N   0  3  0  0  0  0  0  0  0  0  0  0
  149.2674  138.9069  154.3444 C   0  0  0  0  0  0  0  0  0  0  0  0
  143.9642  135.2997  150.3919 H   0  0  0  0  0  0  0  0  0  0  0  0
  144.5371  136.8079  151.0931 H   0  0  0  0  0  0  0  0  0  0  0  0
  143.8475  135.5606  152.1299 H   0  0  0  0  0  0  0  0  0  0  0  0
  146.4413  135.3213  150.5277 H   0  0  0  0  0  0  0  0  0  0  0  0
  145.2976  133.1138  150.7848 H   0  0  0  0  0  0  0  0  0  0  0  0
  145.2353  133.3349  152.5309 H   0  0  0  0  0  0  0  0  0  0  0  0
  146.7873  133.1532  151.7162 H   0  0  0  0  0  0  0  0  0  0  0  0
  147.3871  136.2484  152.3712 H   0  0  0  0  0  0  0  0  0  0  0  0
  146.5791  136.1998  155.8624 H   0  0  0  0  0  0  0  0  0  0  0  0
  147.9856  136.0700  154.8283 H   0  0  0  0  0  0  0  0  0  0  0  0
  145.9935  138.2525  154.2332 H   0  0  0  0  0  0  0  0  0  0  0  0
  147.0541  138.5066  155.5935 H   0  0  0  0  0  0  0  0  0  0  0  0
  148.2743  139.3764  151.8566 H   0  0  0  0  0  0  0  0  0  0  0  0
  146.6077  139.0306  152.2395 H   0  0  0  0  0  0  0  0  0  0  0  0
  147.1349  141.4821  152.4736 H   0  0  0  0  0  0  0  0  0  0  0  0
  146.6409  140.8253  154.0207 H   0  0  0  0  0  0  0  0  0  0  0  0
  148.3523  140.3678  155.6734 H   0  0  0  0  0  0  0  0  0  0  0  0
  150.8392  140.2157  156.1435 H   0  0  0  0  0  0  0  0  0  0  0  0
  151.1417  141.0140  154.6075 H   0  0  0  0  0  0  0  0  0  0  0  0
  149.7671  142.9375  155.5629 H   0  0  0  0  0  0  0  0  0  0  0  0
  152.0447  140.6399  157.4932 H   0  0  0  0  0  0  0  0  0  0  0  0
  153.1602  141.4209  159.5917 H   0  0  0  0  0  0  0  0  0  0  0  0
  152.5970  143.7138  160.4474 H   0  0  0  0  0  0  0  0  0  0  0  0
  149.5914  138.2388  155.1413 H   0  0  0  0  0  0  0  0  0  0  0  0
  150.0614  138.8904  153.5966 H   0  0  0  0  0  0  0  0  0  0  0  0
  148.2813  137.5664  153.1949 H   0  0  0  0  0  0  0  0  0  0  0  0
  150.0170  144.3352  157.3258 H   0  0  0  0  0  0  0  0  0  0  0  0
  1  2  1  0  0  0  0
  1 23  1  0  0  0  0
  1 24  1  0  0  0  0
  1 25  1  0  0  0  0
  2  3  1  0  0  0  0
  2  4  1  0  0  0  0
  2 26  1  0  0  0  0
  3 27  1  0  0  0  0
  3 28  1  0  0  0  0
  3 29  1  0  0  0  0
  4  5  1  0  0  0  0
  4 30  1  0  0  0  0
  5  6  2  0  0  0  0
  5  7  1  0  0  0  0
  7  8  1  0  0  0  0
  7 31  1  0  0  0  0
  7 32  1  0  0  0  0
  8  9  1  0  0  0  0
  8 33  1  0  0  0  0
  8 34  1  0  0  0  0
  9 22  1  0  0  0  0
  9 10  1  0  0  0  0
  9 48  1  0  0  0  0
 10 11  1  0  0  0  0
 10 35  1  0  0  0  0
 10 36  1  0  0  0  0
 11 12  1  0  0  0  0
 11 37  1  0  0  0  0
 11 38  1  0  0  0  0
 12 13  1  0  0  0  0
 13 14  1  0  0  0  0
 13 22  1  0  0  0  0
 13 39  1  0  0  0  0
 14 15  1  0  0  0  0
 14 40  1  0  0  0  0
 14 41  1  0  0  0  0
 15 16  1  0  0  0  0
 15 42  1  0  0  0  0
 16 21  1  0  0  0  0
 16 17  2  0  0  0  0
 17 18  1  0  0  0  0
 17 43  1  0  0  0  0
 18 19  2  0  0  0  0
 18 44  1  0  0  0  0
 19 20  1  0  0  0  0
 19 45  1  0  0  0  0
 20 21  2  0  0  0  0
 21 49  1  0  0  0  0
 22 46  1  0  0  0  0
 22 47  1  0  0  0  0
M  CHG  1   9   1
M  CHG  1  21   1
M  END
> <s_m_source_file>
AV-unprocessed.smi

> <i_m_source_file_index>
652

> <i_lp_mmshare_version>
43012

> <i_f3d_flags>
0

> <s_epik_input>
W0NIM11bQ0hdKFtDSDNdKVtOSF1DKD1PKVtDSDJdW0NIMl1OMVtDSDJdW0NIMl1PW0NASF0oW0NIMl0xKVtDSDJdW05IXWMyW2NIXVtjSF1bY0hdbm4y

> <s_epik_cmdline>
J2VwaWtfcHl0aG9uJywgJy1waCcsICc3LjAnLCAnLXRuJywgJzgnLCAnLW1hJywgJzIwMCcsICctbWV0YWxfYmluZGluZycsICctaW1hZScsICc8aW5maWxlLm1hZT4nLCAnLW9tYWUnLCAnPG91dGZpbGUubWFlPic=

> <r_lp_tautomer_probability>
0.966961

> <r_epik_Ionization_Penalty>
2.79885

> <r_epik_Ionization_Penalty_Charging>
2.79884

> <r_epik_Ionization_Penalty_Neutral>
3.2567e-06

> <r_epik_State_Penalty>
2.43203

> <r_epik_Charging_Adjusted_Penalty>
5.23087

> <i_epik_Tot_Q>
2

> <i_epik_Tot_abs_Q>
2

> <r_epik_Metal_State_Penalty>
2.43963

> <b_epik_Metal_Only>
0

> <s_lp_Force_Field>
OPLS_2005

> <r_lp_Energy>
31.8364

> <b_lp_Chiralities_Consistent>
1

> <s_lp_Variant>
AV-unprocessed.smi:652-9

> <Gold.Version>
5.8.1

> <Gold.Id.Protein>
6NUR|6NUR_protein|mol2

> <Gold.PLP.Fitness>
54.0513

> <Gold.PLP.PLP>
-33.9363

> <Gold.PLP.part.hbond>
-4.8185

> <Gold.PLP.part.metal>
0.0000

> <Gold.PLP.part.buried>
-1.2459

> <Gold.PLP.part.nonpolar>
-28.4002

> <Gold.PLP.part.repulsive>
1.1196

> <Gold.PLP.ligand.clash>
0.0000

> <Gold.PLP.ligand.torsion>
0.9654

> <Gold.PLP.Chemscore.Hbond>
7.2890

> <Gold.PLP.Chemscore.CHOScore>
0.0000

> <Gold.PLP.Chemscore.Metal>
0.0000

> <Gold.Chemscore.Hbonds>
donor molecule, donor type, donor heavy atom, donor atom, acceptor molecule, acceptor atom, score
      L1  H     4    30       P1  7948  0.98
      L1  H     9    48       P1  7948  2.00
      L1  H    15    42       P1  8028  1.89
      L1  H    21    49       P1  8028  1.98
      P1  H  8011  8017       L1    12  0.44

> <Gold.PLP.Chemscore.Internal.Correction>
0.1788

> <Gold.Rescore>
     Score         DG    S(hbond)    S(metal)    S(lipo)     H(rot)  DE(clash)    DE(int)     intcor
     17.87     -21.97       3.77        0.00      84.38       2.33       2.08       2.02       ----

> <Gold.Chemscore.Fitness>
17.8722

> <Gold.Chemscore.DG>
-21.9703

> <Gold.Chemscore.ZeroCoef>
-5.4800

> <Gold.Chemscore.Hbond>
3.7692

> <Gold.Chemscore.Metal>
0.0000

> <Gold.Chemscore.Lipo>
84.3811

> <Gold.Chemscore.Internal_Hbond>
0.0000

> <Gold.Chemscore.DEClash>
2.0826

> <Gold.Chemscore.DEInternal>
2.0155

> <Gold.Chemscore.Rot>
2.3326

> <Gold.Chemscore.Internal.Correction>
   9.000000E+99

> <Gold.Chemscore.Hbonds>
donor molecule, donor type, donor heavy atom, donor atom, acceptor molecule, acceptor atom, score
      L1  H     4    30       P1  7948  0.93
      L1  H     9    48       P1  7948  0.97
      L1  H    15    42       P1  8028  0.89
      L1  H    21    49       P1  8028  0.44
      P1  H  8011  8017       L1    12  0.32

> <Gold.Chemscore.Hbond.Weighted>
-12.5890

> <Gold.Chemscore.Metal.Weighted>
-0.0000

> <Gold.Chemscore.Lipo.Weighted>
-9.8726

> <Gold.Chemscore.Internal_Hbond.Weighted>
0.0000

> <Gold.Chemscore.DEClash.Weighted>
2.0826

> <Gold.Chemscore.DEInternal.Weighted>
2.0155

> <Gold.Chemscore.Rot.Weighted>
5.9714

> <Gold.Chemscore.Internal.Correction.Weighted>
   9.000000E+99

> <Gold.Protein.RotatedTorsions>
[ 6907 6896 6895 6894 ] final   35.27 input  -60.11 | X-H torsion
[ 7974 7965 7964 7962 ] final  172.19 input  175.53 | X-H torsion
[ 8008 7997 7996 7995 ] final -167.12 input   59.86 | X-H torsion
[ 10167 10162 10161 10158 ] final  -88.29 input  -65.29 | X-H torsion
[ 10718 10713 10712 10709 ] final  -33.81 input   66.30 | X-H torsion
[ 10763 10752 10751 10750 ] final  -84.49 input  -60.55 | X-H torsion
[ 11005 11000 10999 10996 ] final -110.53 input  -57.11 | X-H torsion

> <Gold.Protein.ActiveResidues>
 VAL166  LYS551  ARG553  GLY616  TRP617  ASP618  TYR619  PRO620  LYS621  CYS622 
 ASP623  PHE694  ASN695  SER759  ASP760  ASP761  ALA762  ILE779  LEU786  VAL792 
 PHE793  MET794  SER795  GLU796  ALA797  LYS798  CYS799  TRP800  GLU811  SER814 

> <Gold.Protein.RotatedAtoms>
  152.1138  134.9255  160.0565 H   0  0  0  0  0  0  0  0  0  0  0  0  # atno 6907 bound_to 6896
  152.0423  133.3978  159.4350 H   0  0  0  0  0  0  0  0  0  0  0  0  # atno 6908 bound_to 6896
  150.6845  134.3322  159.4875 H   0  0  0  0  0  0  0  0  0  0  0  0  # atno 6909 bound_to 6896
  144.7274  139.9462  143.6430 H   0  0  0  0  0  0  0  0  0  0  0  0  # atno 7974 bound_to 7965
  155.8732  140.0997  157.1536 H   0  0  0  0  0  0  0  0  0  0  0  0  # atno 8008 bound_to 7997
  154.3999  140.1343  156.4168 H   0  0  0  0  0  0  0  0  0  0  0  0  # atno 8009 bound_to 7997
  155.7726  140.3460  155.5257 H   0  0  0  0  0  0  0  0  0  0  0  0  # atno 8010 bound_to 7997
  140.3761  143.2771  151.9441 H   0  0  0  0  0  0  0  0  0  0  0  0  # atno 10167 bound_to 10162
  156.3581  130.4319  149.7647 H   0  0  0  0  0  0  0  0  0  0  0  0  # atno 10718 bound_to 10713
  154.6001  135.5519  153.7366 H   0  0  0  0  0  0  0  0  0  0  0  0  # atno 10763 bound_to 10752
  153.0151  135.6364  154.1726 H   0  0  0  0  0  0  0  0  0  0  0  0  # atno 10764 bound_to 10752
  154.1666  135.2894  155.3073 H   0  0  0  0  0  0  0  0  0  0  0  0  # atno 10765 bound_to 10752
  141.0786  133.9258  157.2336 H   0  0  0  0  0  0  0  0  0  0  0  0  # atno 11005 bound_to 11000
  146.0746  139.3735  143.0502 LP  0  0  0  0  0  0  0  0  0  0  0  0  # atno 17320 bound_to 7965
  145.7922  140.9809  143.1043 LP  0  0  0  0  0  0  0  0  0  0  0  0  # atno 17321 bound_to 7965
  139.4799  144.5862  151.7850 LP  0  0  0  0  0  0  0  0  0  0  0  0  # atno 17342 bound_to 10162
  140.4984  144.1205  150.5965 LP  0  0  0  0  0  0  0  0  0  0  0  0  # atno 17343 bound_to 10162
  156.4822  130.8046  151.3060 LP  0  0  0  0  0  0  0  0  0  0  0  0  # atno 17370 bound_to 10713
  157.7470  131.0002  150.2918 LP  0  0  0  0  0  0  0  0  0  0  0  0  # atno 17371 bound_to 10713
  139.9599  135.0156  156.9232 LP  0  0  0  0  0  0  0  0  0  0  0  0  # atno 17394 bound_to 11000
  140.5518  134.0620  155.7371 LP  0  0  0  0  0  0  0  0  0  0  0  0  # atno 17395 bound_to 11000

$$$$
