AV-unprocessed.smi:1703|AV-procd|sdf|6861|dock8
  -GOLD-   22720 8 53D 1   1.00000     0.00000
 Structure written by MMmdl.
 49 51  0  0  0  0  0  0  0  0  2 V2000
  146.0504  132.3109  151.5159 C   0  0  0  0  0  0  0  0  0  0  0  0
  146.5008  133.6681  152.0670 C   0  0  2  0  0  0  0  0  0  0  0  0
  147.4409  133.5180  153.2769 C   0  0  0  0  0  0  0  0  0  0  0  0
  147.7820  134.8504  153.8294 N   0  3  2  0  0  0  0  0  0  0  0  0
  148.7773  134.8058  154.9308 C   0  0  0  0  0  0  0  0  0  0  0  0
  149.2769  136.2094  155.3250 C   0  0  1  0  0  0  0  0  0  0  0  0
  149.6474  136.1916  156.6907 O   0  0  0  0  0  0  0  0  0  0  0  0
  150.4809  136.6517  154.4690 C   0  0  0  0  0  0  0  0  0  0  0  0
  150.5809  138.1001  154.3428 N   0  0  0  0  0  0  0  0  0  0  0  0
  151.6349  138.8976  154.6506 C   0  0  0  0  0  0  0  0  0  0  0  0
  152.9140  138.3540  155.2093 C   0  0  0  0  0  0  0  0  0  0  0  0
  154.0315  138.6501  154.3996 O   0  0  0  0  0  0  0  0  0  0  0  0
  151.4610  140.2009  154.4300 N   0  0  0  0  0  0  0  0  0  0  0  0
  150.1716  140.2569  153.9383 C   0  0  0  0  0  0  0  0  0  0  0  0
  149.3977  141.3609  153.5149 C   0  0  0  0  0  0  0  0  0  0  0  0
  148.0828  141.1716  153.0420 C   0  0  0  0  0  0  0  0  0  0  0  0
  147.5232  139.8787  152.9872 C   0  0  0  0  0  0  0  0  0  0  0  0
  148.2770  138.7649  153.4047 C   0  0  0  0  0  0  0  0  0  0  0  0
  149.5903  138.9588  153.8740 C   0  0  0  0  0  0  0  0  0  0  0  0
  146.5488  135.5835  154.1996 C   0  0  0  0  0  0  0  0  0  0  0  0
  145.5869  135.6879  152.9997 C   0  0  1  0  0  0  0  0  0  0  0  0
  146.0502  136.6895  151.9266 C   0  0  0  0  0  0  0  0  0  0  0  0
  145.3358  134.3914  152.4569 O   0  0  0  0  0  0  0  0  0  0  0  0
  146.9045  131.7153  151.1922 H   0  0  0  0  0  0  0  0  0  0  0  0
  145.3909  132.4392  150.6571 H   0  0  0  0  0  0  0  0  0  0  0  0
  145.5084  131.7382  152.2690 H   0  0  0  0  0  0  0  0  0  0  0  0
  147.0153  134.2014  151.2676 H   0  0  0  0  0  0  0  0  0  0  0  0
  146.9679  132.9116  154.0510 H   0  0  0  0  0  0  0  0  0  0  0  0
  148.3434  132.9914  152.9686 H   0  0  0  0  0  0  0  0  0  0  0  0
  148.3328  134.3372  155.8106 H   0  0  0  0  0  0  0  0  0  0  0  0
  149.6126  134.1681  154.6373 H   0  0  0  0  0  0  0  0  0  0  0  0
  148.4768  136.9388  155.2063 H   0  0  0  0  0  0  0  0  0  0  0  0
  149.7792  135.2943  156.9576 H   0  0  0  0  0  0  0  0  0  0  0  0
  151.4103  136.2773  154.9003 H   0  0  0  0  0  0  0  0  0  0  0  0
  150.4181  136.2142  153.4726 H   0  0  0  0  0  0  0  0  0  0  0  0
  153.0782  138.7473  156.2120 H   0  0  0  0  0  0  0  0  0  0  0  0
  152.8329  137.2708  155.3071 H   0  0  0  0  0  0  0  0  0  0  0  0
  153.8043  138.4773  153.4988 H   0  0  0  0  0  0  0  0  0  0  0  0
  149.8171  142.3554  153.5532 H   0  0  0  0  0  0  0  0  0  0  0  0
  147.5007  142.0229  152.7201 H   0  0  0  0  0  0  0  0  0  0  0  0
  146.5152  139.7427  152.6235 H   0  0  0  0  0  0  0  0  0  0  0  0
  147.8500  137.7744  153.3621 H   0  0  0  0  0  0  0  0  0  0  0  0
  146.0580  135.0606  155.0221 H   0  0  0  0  0  0  0  0  0  0  0  0
  146.7970  136.5817  154.5630 H   0  0  0  0  0  0  0  0  0  0  0  0
  144.6283  136.0493  153.3733 H   0  0  0  0  0  0  0  0  0  0  0  0
  146.1071  137.6973  152.3381 H   0  0  0  0  0  0  0  0  0  0  0  0
  145.3503  136.7153  151.0910 H   0  0  0  0  0  0  0  0  0  0  0  0
  147.0359  136.4475  151.5300 H   0  0  0  0  0  0  0  0  0  0  0  0
  148.2119  135.3800  153.0839 H   0  0  0  0  0  0  0  0  0  0  0  0
  1  2  1  0  0  0  0
  1 24  1  0  0  0  0
  1 25  1  0  0  0  0
  1 26  1  0  0  0  0
  2 23  1  0  0  0  0
  2  3  1  0  0  0  0
  2 27  1  0  0  0  0
  3  4  1  0  0  0  0
  3 28  1  0  0  0  0
  3 29  1  0  0  0  0
  4  5  1  0  0  0  0
  4 20  1  0  0  0  0
  4 49  1  0  0  0  0
  5  6  1  0  0  0  0
  5 30  1  0  0  0  0
  5 31  1  0  0  0  0
  6  7  1  0  0  0  0
  6  8  1  0  0  0  0
  6 32  1  0  0  0  0
  7 33  1  0  0  0  0
  8  9  1  0  0  0  0
  8 34  1  0  0  0  0
  8 35  1  0  0  0  0
  9 19  1  0  0  0  0
  9 10  1  0  0  0  0
 10 11  1  0  0  0  0
 10 13  2  0  0  0  0
 11 12  1  0  0  0  0
 11 36  1  0  0  0  0
 11 37  1  0  0  0  0
 12 38  1  0  0  0  0
 13 14  1  0  0  0  0
 14 19  2  0  0  0  0
 14 15  1  0  0  0  0
 15 16  2  0  0  0  0
 15 39  1  0  0  0  0
 16 17  1  0  0  0  0
 16 40  1  0  0  0  0
 17 18  2  0  0  0  0
 17 41  1  0  0  0  0
 18 19  1  0  0  0  0
 18 42  1  0  0  0  0
 20 21  1  0  0  0  0
 20 43  1  0  0  0  0
 20 44  1  0  0  0  0
 21 22  1  0  0  0  0
 21 23  1  0  0  0  0
 21 45  1  0  0  0  0
 22 46  1  0  0  0  0
 22 47  1  0  0  0  0
 22 48  1  0  0  0  0
M  CHG  1   4   1
M  END
> <s_m_source_file>
AV-unprocessed.smi

> <i_m_source_file_index>
1703

> <i_lp_mmshare_version>
43012

> <i_f3d_flags>
0

> <s_epik_input>
W0NIM11bQ0BASF0xW0NIMl1OKFtDSDJdW0NASF0oTzEpW0NIM10pW0NIMl1bQ0BIXShbT0hdKVtDSDJdbihjKG4yKVtDSDJdW09IXSljKGMyMylbY0hdW2NIXVtjSF1bY0hdMw==

> <s_epik_cmdline>
J2VwaWtfcHl0aG9uJywgJy1waCcsICc3LjAnLCAnLXRuJywgJzgnLCAnLW1hJywgJzIwMCcsICctbWV0YWxfYmluZGluZycsICctaW1hZScsICc8aW5maWxlLm1hZT4nLCAnLW9tYWUnLCAnPG91dGZpbGUubWFlPic=

> <r_epik_Ionization_Penalty>
0.655661

> <r_epik_Ionization_Penalty_Charging>
0.608065

> <r_epik_Ionization_Penalty_Neutral>
0.0475963

> <r_epik_State_Penalty>
0.695267

> <r_epik_Charging_Adjusted_Penalty>
1.30333

> <i_epik_Tot_Q>
1

> <i_epik_Tot_abs_Q>
1

> <r_epik_Metal_State_Penalty>
0.653591

> <b_epik_Metal_Only>
0

> <s_lp_Force_Field>
OPLS_2005

> <r_lp_Energy>
24.4185

> <b_lp_Chiralities_Consistent>
1

> <s_lp_Variant>
AV-unprocessed.smi:1703-9

> <Gold.Version>
5.8.1

> <Gold.Id.Protein>
6NUR|6NUR_protein|mol2

> <Gold.PLP.Fitness>
47.6439

> <Gold.PLP.PLP>
-36.9988

> <Gold.PLP.part.hbond>
-3.2140

> <Gold.PLP.part.metal>
0.0000

> <Gold.PLP.part.buried>
-1.0208

> <Gold.PLP.part.nonpolar>
-33.4638

> <Gold.PLP.part.repulsive>
0.1512

> <Gold.PLP.ligand.clash>
0.0000

> <Gold.PLP.ligand.torsion>
0.6936

> <Gold.PLP.Chemscore.Hbond>
4.0000

> <Gold.PLP.Chemscore.CHOScore>
0.0000

> <Gold.PLP.Chemscore.Metal>
0.0000

> <Gold.Chemscore.Hbonds>
donor molecule, donor type, donor heavy atom, donor atom, acceptor molecule, acceptor atom, score
      L1  H     4    49       P1  7948  2.00
      P1  H  7997  8008       L1    12  0.48

> <Gold.PLP.Chemscore.Internal.Correction>
0.0322

> <Gold.Rescore>
     Score         DG    S(hbond)    S(metal)    S(lipo)     H(rot)  DE(clash)    DE(int)     intcor
     14.52     -15.33       2.09        0.00      89.23       2.96       0.06       0.76       ----

> <Gold.Chemscore.Fitness>
14.5203

> <Gold.Chemscore.DG>
-15.3315

> <Gold.Chemscore.ZeroCoef>
-5.4800

> <Gold.Chemscore.Hbond>
2.0933

> <Gold.Chemscore.Metal>
0.0000

> <Gold.Chemscore.Lipo>
89.2336

> <Gold.Chemscore.Internal_Hbond>
0.0000

> <Gold.Chemscore.DEClash>
0.0555

> <Gold.Chemscore.DEInternal>
0.7557

> <Gold.Chemscore.Rot>
2.9611

> <Gold.Chemscore.Internal.Correction>
   9.000000E+99

> <Gold.Chemscore.Hbonds>
donor molecule, donor type, donor heavy atom, donor atom, acceptor molecule, acceptor atom, score
      L1  H     4    49       P1  7948  0.99
      P1  H  7997  8008       L1    12  0.04

> <Gold.Chemscore.Hbond.Weighted>
-6.9915

> <Gold.Chemscore.Metal.Weighted>
-0.0000

> <Gold.Chemscore.Lipo.Weighted>
-10.4403

> <Gold.Chemscore.Internal_Hbond.Weighted>
0.0000

> <Gold.Chemscore.DEClash.Weighted>
0.0555

> <Gold.Chemscore.DEInternal.Weighted>
0.7557

> <Gold.Chemscore.Rot.Weighted>
7.5803

> <Gold.Chemscore.Internal.Correction.Weighted>
   9.000000E+99

> <Gold.Protein.RotatedTorsions>
[ 6907 6896 6895 6894 ] final  -80.20 input  -60.11 | X-H torsion
[ 7974 7965 7964 7962 ] final -130.47 input  175.53 | X-H torsion
[ 8008 7997 7996 7995 ] final    0.97 input   59.86 | X-H torsion
[ 10167 10162 10161 10158 ] final -115.40 input  -65.29 | X-H torsion
[ 10718 10713 10712 10709 ] final  150.21 input   66.30 | X-H torsion
[ 10763 10752 10751 10750 ] final   95.54 input  -60.55 | X-H torsion
[ 11005 11000 10999 10996 ] final  144.89 input  -57.11 | X-H torsion

> <Gold.Protein.ActiveResidues>
 VAL166  LYS551  ARG553  GLY616  TRP617  ASP618  TYR619  PRO620  LYS621  CYS622 
 ASP623  PHE694  ASN695  SER759  ASP760  ASP761  ALA762  ILE779  LEU786  VAL792 
 PHE793  MET794  SER795  GLU796  ALA797  LYS798  CYS799  TRP800  GLU811  SER814 

> <Gold.Protein.RotatedAtoms>
  150.6934  134.4006  159.5116 H   0  0  0  0  0  0  0  0  0  0  0  0  # atno 6907 bound_to 6896
  152.1780  134.8776  160.0538 H   0  0  0  0  0  0  0  0  0  0  0  0  # atno 6908 bound_to 6896
  151.9777  133.3712  159.4132 H   0  0  0  0  0  0  0  0  0  0  0  0  # atno 6909 bound_to 6896
  144.9471  140.7304  143.4810 H   0  0  0  0  0  0  0  0  0  0  0  0  # atno 7974 bound_to 7965
  154.6742  140.2618  155.6975 H   0  0  0  0  0  0  0  0  0  0  0  0  # atno 8008 bound_to 7997
  156.2671  140.2823  156.1185 H   0  0  0  0  0  0  0  0  0  0  0  0  # atno 8009 bound_to 7997
  155.1124  140.0376  157.2718 H   0  0  0  0  0  0  0  0  0  0  0  0  # atno 8010 bound_to 7997
  140.0904  143.4704  152.1873 H   0  0  0  0  0  0  0  0  0  0  0  0  # atno 10167 bound_to 10162
  157.2864  131.0845  151.1494 H   0  0  0  0  0  0  0  0  0  0  0  0  # atno 10718 bound_to 10713
  153.2544  135.4250  155.0831 H   0  0  0  0  0  0  0  0  0  0  0  0  # atno 10763 bound_to 10752
  154.8395  135.3434  154.6466 H   0  0  0  0  0  0  0  0  0  0  0  0  # atno 10764 bound_to 10752
  153.6887  135.7035  153.5153 H   0  0  0  0  0  0  0  0  0  0  0  0  # atno 10765 bound_to 10752
  140.0668  134.9174  157.1278 H   0  0  0  0  0  0  0  0  0  0  0  0  # atno 11005 bound_to 11000
  145.2900  139.1887  143.4745 LP  0  0  0  0  0  0  0  0  0  0  0  0  # atno 17320 bound_to 7965
  146.3307  140.2876  142.8613 LP  0  0  0  0  0  0  0  0  0  0  0  0  # atno 17321 bound_to 7965
  139.5728  144.7471  151.3846 LP  0  0  0  0  0  0  0  0  0  0  0  0  # atno 17342 bound_to 10162
  140.7031  143.7581  150.7436 LP  0  0  0  0  0  0  0  0  0  0  0  0  # atno 17343 bound_to 10162
  157.2908  130.6795  149.6113 LP  0  0  0  0  0  0  0  0  0  0  0  0  # atno 17370 bound_to 10713
  155.9665  130.4421  150.5368 LP  0  0  0  0  0  0  0  0  0  0  0  0  # atno 17371 bound_to 10713
  140.3687  134.2414  155.7180 LP  0  0  0  0  0  0  0  0  0  0  0  0  # atno 17394 bound_to 11000
  141.1996  133.8008  157.0529 LP  0  0  0  0  0  0  0  0  0  0  0  0  # atno 17395 bound_to 11000

$$$$
