AV-unprocessed.smi:2227|AV-procd|sdf|9021|dock2
  -GOLD-   2272012223D 1   1.00000     0.00000
 Structure written by MMmdl.
 43 45  0  0  0  0  0  0  0  0  2 V2000
  150.7863  137.0091  154.6928 C   0  0  0  0  0  0  0  0  0  0  0  0
  151.3273  138.3605  154.2051 C   0  0  0  0  0  0  0  0  0  0  0  0
  152.7757  138.5874  154.6633 C   0  0  0  0  0  0  0  0  0  0  0  0
  150.4261  139.4887  154.6278 C   0  0  0  0  0  0  0  0  0  0  0  0
  149.7838  140.3104  153.7875 N   0  3  0  0  0  0  0  0  0  0  0  0
  149.0758  141.2521  154.4812 C   0  0  0  0  0  0  0  0  0  0  0  0
  149.3025  141.0043  155.8086 C   0  0  0  0  0  0  0  0  0  0  0  0
  150.1404  139.9192  155.8724 N   0  0  0  0  0  0  0  0  0  0  0  0
  150.6592  139.3108  157.1068 C   0  0  0  0  0  0  0  0  0  0  0  0
  151.7056  140.2006  157.7820 C   0  0  0  0  0  0  0  0  0  0  0  0
  152.8780  139.8317  157.8460 O   0  0  0  0  0  0  0  0  0  0  0  0
  151.2625  141.3612  158.2894 N   0  0  0  0  0  0  0  0  0  0  0  0
  152.0757  142.3538  158.9836 C   0  0  0  0  0  0  0  0  0  0  0  0
  152.5079  141.8568  160.3514 C   0  0  0  0  0  0  0  0  0  0  0  0
  153.0647  142.7955  161.3956 C   0  0  0  0  0  0  0  0  0  0  0  0
  153.9683  141.7837  160.7288 C   0  0  0  0  0  0  0  0  0  0  0  0
  151.3720  143.6958  159.1062 C   0  0  0  0  0  0  0  0  0  0  0  0
  151.3606  144.6865  157.9657 C   0  0  0  0  0  0  0  0  0  0  0  0
  152.1495  144.9862  159.2193 C   0  0  0  0  0  0  0  0  0  0  0  0
  149.7742  136.8349  154.3261 H   0  0  0  0  0  0  0  0  0  0  0  0
  150.7571  136.9623  155.7817 H   0  0  0  0  0  0  0  0  0  0  0  0
  151.4096  136.1864  154.3415 H   0  0  0  0  0  0  0  0  0  0  0  0
  151.3313  138.3464  153.1167 H   0  0  0  0  0  0  0  0  0  0  0  0
  153.1653  139.5297  154.2770 H   0  0  0  0  0  0  0  0  0  0  0  0
  153.4283  137.7908  154.3049 H   0  0  0  0  0  0  0  0  0  0  0  0
  152.8540  138.6144  155.7505 H   0  0  0  0  0  0  0  0  0  0  0  0
  148.4839  142.0112  153.9908 H   0  0  0  0  0  0  0  0  0  0  0  0
  148.9433  141.5122  156.6921 H   0  0  0  0  0  0  0  0  0  0  0  0
  149.8233  139.1646  157.7918 H   0  0  0  0  0  0  0  0  0  0  0  0
  151.0534  138.3207  156.8739 H   0  0  0  0  0  0  0  0  0  0  0  0
  150.2816  141.5778  158.1855 H   0  0  0  0  0  0  0  0  0  0  0  0
  152.9876  142.5133  158.4044 H   0  0  0  0  0  0  0  0  0  0  0  0
  151.8815  141.0535  160.7359 H   0  0  0  0  0  0  0  0  0  0  0  0
  153.2028  143.8401  161.1244 H   0  0  0  0  0  0  0  0  0  0  0  0
  152.7856  142.6158  162.4318 H   0  0  0  0  0  0  0  0  0  0  0  0
  154.2921  140.9292  161.3193 H   0  0  0  0  0  0  0  0  0  0  0  0
  154.6994  142.1633  160.0181 H   0  0  0  0  0  0  0  0  0  0  0  0
  150.4591  143.6501  159.6974 H   0  0  0  0  0  0  0  0  0  0  0  0
  151.9256  144.4403  157.0690 H   0  0  0  0  0  0  0  0  0  0  0  0
  150.4441  145.2487  157.7994 H   0  0  0  0  0  0  0  0  0  0  0  0
  151.7597  145.7495  159.8897 H   0  0  0  0  0  0  0  0  0  0  0  0
  153.2340  144.9401  159.1458 H   0  0  0  0  0  0  0  0  0  0  0  0
  149.8225  140.2427  152.7783 H   0  0  0  0  0  0  0  0  0  0  0  0
  1  2  1  0  0  0  0
  1 20  1  0  0  0  0
  1 21  1  0  0  0  0
  1 22  1  0  0  0  0
  2  3  1  0  0  0  0
  2  4  1  0  0  0  0
  2 23  1  0  0  0  0
  3 24  1  0  0  0  0
  3 25  1  0  0  0  0
  3 26  1  0  0  0  0
  4  8  1  0  0  0  0
  4  5  2  0  0  0  0
  5  6  1  0  0  0  0
  5 43  1  0  0  0  0
  6  7  2  0  0  0  0
  6 27  1  0  0  0  0
  7  8  1  0  0  0  0
  7 28  1  0  0  0  0
  8  9  1  0  0  0  0
  9 10  1  0  0  0  0
  9 29  1  0  0  0  0
  9 30  1  0  0  0  0
 10 11  2  0  0  0  0
 10 12  1  0  0  0  0
 12 13  1  0  0  0  0
 12 31  1  0  0  0  0
 13 14  1  0  0  0  0
 13 17  1  0  0  0  0
 13 32  1  0  0  0  0
 14 16  1  0  0  0  0
 14 15  1  0  0  0  0
 14 33  1  0  0  0  0
 15 16  1  0  0  0  0
 15 34  1  0  0  0  0
 15 35  1  0  0  0  0
 16 36  1  0  0  0  0
 16 37  1  0  0  0  0
 17 19  1  0  0  0  0
 17 18  1  0  0  0  0
 17 38  1  0  0  0  0
 18 19  1  0  0  0  0
 18 39  1  0  0  0  0
 18 40  1  0  0  0  0
 19 41  1  0  0  0  0
 19 42  1  0  0  0  0
M  CHG  1   5   1
M  END
> <s_m_source_file>
AV-unprocessed.smi

> <i_m_source_file_index>
2227

> <i_lp_mmshare_version>
43012

> <i_f3d_flags>
0

> <s_epik_input>
W0NIM11bQ0hdKFtDSDNdKWMxbltjSF1bY0hdbjFbQ0gyXUMoPU8pW05IXVtDSF0oW0NIXTJbQ0gyXVtDSDJdMilbQ0hdM1tDSDJdW0NIMl0z

> <s_epik_cmdline>
J2VwaWtfcHl0aG9uJywgJy1waCcsICc3LjAnLCAnLXRuJywgJzgnLCAnLW1hJywgJzIwMCcsICctbWV0YWxfYmluZGluZycsICctaW1hZScsICc8aW5maWxlLm1hZT4nLCAnLW9tYWUnLCAnPG91dGZpbGUubWFlPic=

> <r_lp_tautomer_probability>
1

> <r_epik_Ionization_Penalty>
0.258813

> <r_epik_Ionization_Penalty_Charging>
0

> <r_epik_Ionization_Penalty_Neutral>
0.258813

> <r_epik_State_Penalty>
0.250457

> <r_epik_Charging_Adjusted_Penalty>
0.250457

> <i_epik_Tot_Q>
1

> <i_epik_Tot_abs_Q>
1

> <r_epik_Metal_State_Penalty>
0.539096

> <b_epik_Metal_Only>
0

> <s_lp_Force_Field>
OPLS_2005

> <r_lp_Energy>
28.4044

> <b_lp_Chiralities_Consistent>
1

> <s_lp_Variant>
AV-unprocessed.smi:2227-1

> <Gold.Version>
5.8.1

> <Gold.Id.Protein>
6NUR|6NUR_protein|mol2

> <Gold.PLP.Fitness>
50.7469

> <Gold.PLP.PLP>
-46.0240

> <Gold.PLP.part.hbond>
-2.0000

> <Gold.PLP.part.metal>
0.0000

> <Gold.PLP.part.buried>
-6.9557

> <Gold.PLP.part.nonpolar>
-39.0328

> <Gold.PLP.part.repulsive>
2.0984

> <Gold.PLP.ligand.clash>
0.0000

> <Gold.PLP.ligand.torsion>
1.7467

> <Gold.PLP.Chemscore.Hbond>
2.0000

> <Gold.PLP.Chemscore.CHOScore>
0.0000

> <Gold.PLP.Chemscore.Metal>
0.0000

> <Gold.Chemscore.Hbonds>
donor molecule, donor type, donor heavy atom, donor atom, acceptor molecule, acceptor atom, score
      L1  H     5    43       P1  7957  1.00
      P1  H  7997  8008       L1    11  1.00

> <Gold.PLP.Chemscore.Internal.Correction>
2.2164

> <Gold.Rescore>
     Score         DG    S(hbond)    S(metal)    S(lipo)     H(rot)  DE(clash)    DE(int)     intcor
     19.72     -21.76       2.00        0.00     120.25       1.74       0.22       1.82       ----

> <Gold.Chemscore.Fitness>
19.7230

> <Gold.Chemscore.DG>
-21.7642

> <Gold.Chemscore.ZeroCoef>
-5.4800

> <Gold.Chemscore.Hbond>
1.9961

> <Gold.Chemscore.Metal>
0.0000

> <Gold.Chemscore.Lipo>
120.2532

> <Gold.Chemscore.Internal_Hbond>
0.0000

> <Gold.Chemscore.DEClash>
0.2172

> <Gold.Chemscore.DEInternal>
1.8240

> <Gold.Chemscore.Rot>
1.7392

> <Gold.Chemscore.Internal.Correction>
   9.000000E+99

> <Gold.Chemscore.Hbonds>
donor molecule, donor type, donor heavy atom, donor atom, acceptor molecule, acceptor atom, score
      L1  H     5    43       P1  7957  1.00
      P1  H  7997  8008       L1    11  0.99

> <Gold.Chemscore.Hbond.Weighted>
-6.6669

> <Gold.Chemscore.Metal.Weighted>
-0.0000

> <Gold.Chemscore.Lipo.Weighted>
-14.0696

> <Gold.Chemscore.Internal_Hbond.Weighted>
0.0000

> <Gold.Chemscore.DEClash.Weighted>
0.2172

> <Gold.Chemscore.DEInternal.Weighted>
1.8240

> <Gold.Chemscore.Rot.Weighted>
4.4524

> <Gold.Chemscore.Internal.Correction.Weighted>
   9.000000E+99

> <Gold.Protein.RotatedTorsions>
[ 6907 6896 6895 6894 ] final -165.08 input  -60.11 | X-H torsion
[ 7974 7965 7964 7962 ] final  158.68 input  175.53 | X-H torsion
[ 8008 7997 7996 7995 ] final  -72.09 input   59.86 | X-H torsion
[ 10167 10162 10161 10158 ] final  119.36 input  -65.29 | X-H torsion
[ 10718 10713 10712 10709 ] final   98.72 input   66.30 | X-H torsion
[ 10763 10752 10751 10750 ] final   99.90 input  -60.55 | X-H torsion
[ 11005 11000 10999 10996 ] final  -50.65 input  -57.11 | X-H torsion

> <Gold.Protein.ActiveResidues>
 VAL166  LYS551  ARG553  GLY616  TRP617  ASP618  TYR619  PRO620  LYS621  CYS622 
 ASP623  PHE694  ASN695  SER759  ASP760  ASP761  ALA762  ILE779  LEU786  VAL792 
 PHE793  MET794  SER795  GLU796  ALA797  LYS798  CYS799  TRP800  GLU811  SER814 

> <Gold.Protein.RotatedAtoms>
  151.4220  133.3695  159.2757 H   0  0  0  0  0  0  0  0  0  0  0  0  # atno 6907 bound_to 6896
  150.9286  134.8704  159.7547 H   0  0  0  0  0  0  0  0  0  0  0  0  # atno 6908 bound_to 6896
  152.5017  134.4163  159.9518 H   0  0  0  0  0  0  0  0  0  0  0  0  # atno 6909 bound_to 6896
  144.7832  139.7511  143.6251 H   0  0  0  0  0  0  0  0  0  0  0  0  # atno 7974 bound_to 7965
  154.5139  140.0803  156.8043 H   0  0  0  0  0  0  0  0  0  0  0  0  # atno 8008 bound_to 7997
  155.3724  140.3423  155.4225 H   0  0  0  0  0  0  0  0  0  0  0  0  # atno 8009 bound_to 7997
  156.1605  140.1587  156.8607 H   0  0  0  0  0  0  0  0  0  0  0  0  # atno 8010 bound_to 7997
  139.6051  144.7068  151.2972 H   0  0  0  0  0  0  0  0  0  0  0  0  # atno 10167 bound_to 10162
  157.6890  131.0648  150.4839 H   0  0  0  0  0  0  0  0  0  0  0  0  # atno 10718 bound_to 10713
  153.3072  135.4097  155.1304 H   0  0  0  0  0  0  0  0  0  0  0  0  # atno 10763 bound_to 10752
  154.8566  135.3555  154.5772 H   0  0  0  0  0  0  0  0  0  0  0  0  # atno 10764 bound_to 10752
  153.6200  135.7065  153.5373 H   0  0  0  0  0  0  0  0  0  0  0  0  # atno 10765 bound_to 10752
  141.0828  133.6649  156.3762 H   0  0  0  0  0  0  0  0  0  0  0  0  # atno 11005 bound_to 11000
  146.2051  139.5371  142.9718 LP  0  0  0  0  0  0  0  0  0  0  0  0  # atno 17320 bound_to 7965
  145.5992  141.0358  143.2027 LP  0  0  0  0  0  0  0  0  0  0  0  0  # atno 17321 bound_to 7965
  140.7279  143.6951  150.7891 LP  0  0  0  0  0  0  0  0  0  0  0  0  # atno 17342 bound_to 10162
  140.0535  143.5226  152.2662 LP  0  0  0  0  0  0  0  0  0  0  0  0  # atno 17343 bound_to 10162
  156.5169  130.4152  149.6271 LP  0  0  0  0  0  0  0  0  0  0  0  0  # atno 17370 bound_to 10713
  156.3189  130.7270  151.2178 LP  0  0  0  0  0  0  0  0  0  0  0  0  # atno 17371 bound_to 10713
  140.5431  134.6101  157.5386 LP  0  0  0  0  0  0  0  0  0  0  0  0  # atno 17394 bound_to 11000
  139.9643  134.7400  156.0172 LP  0  0  0  0  0  0  0  0  0  0  0  0  # atno 17395 bound_to 11000

$$$$
