AV-unprocessed.smi:1214|AV-procd|sdf|5093|dock1
  -GOLD-   22720 4143D 1   1.00000     0.00000
 Structure written by MMmdl.
 33 34  0  0  0  0  0  0  0  0  1 V2000
  144.3441  134.5740  152.6638 C   0  0  0  0  0  0  0  0  0  0  0  0
  144.6962  133.6796  151.4858 C   0  0  0  0  0  0  0  0  0  0  0  0
  143.6566  133.1077  150.7219 C   0  0  0  0  0  0  0  0  0  0  0  0
  143.9804  132.2804  149.6334 C   0  0  0  0  0  0  0  0  0  0  0  0
  145.3390  132.0581  149.3537 C   0  0  0  0  0  0  0  0  0  0  0  0
  146.3383  132.6011  150.0787 N   0  0  0  0  0  0  0  0  0  0  0  0
  146.0455  133.4074  151.1315 C   0  0  0  0  0  0  0  0  0  0  0  0
  147.0416  134.0076  151.9620 N   0  0  0  0  0  0  0  0  0  0  0  0
  147.3564  133.8214  153.2618 C   0  0  0  0  0  0  0  0  0  0  0  0
  146.7310  133.0238  153.9584 O   0  0  0  0  0  0  0  0  0  0  0  0
  148.3684  134.5635  153.7400 N   0  0  0  0  0  0  0  0  0  0  0  0
  148.8662  134.5333  155.1102 C   0  0  1  0  0  0  0  0  0  0  0  0
  149.9732  133.4770  155.2993 C   0  0  0  0  0  0  0  0  0  0  0  0
  150.7029  133.7586  156.6188 C   0  0  0  0  0  0  0  0  0  0  0  0
  150.6042  135.5702  156.8815 S   0  0  0  0  0  0  0  0  0  0  0  0
  149.9272  135.8289  158.1612 O   0  0  0  0  0  0  0  0  0  0  0  0
  151.9040  136.1864  156.5749 O   0  0  0  0  0  0  0  0  0  0  0  0
  149.4441  135.8994  155.5030 C   0  0  0  0  0  0  0  0  0  0  0  0
  143.2644  134.6738  152.7786 H   0  0  0  0  0  0  0  0  0  0  0  0
  144.7594  135.5721  152.5224 H   0  0  0  0  0  0  0  0  0  0  0  0
  144.7423  134.1603  153.5907 H   0  0  0  0  0  0  0  0  0  0  0  0
  142.6214  133.2981  150.9654 H   0  0  0  0  0  0  0  0  0  0  0  0
  143.2077  131.8274  149.0298 H   0  0  0  0  0  0  0  0  0  0  0  0
  145.6330  131.4273  148.5277 H   0  0  0  0  0  0  0  0  0  0  0  0
  147.5917  134.7170  151.5002 H   0  0  0  0  0  0  0  0  0  0  0  0
  148.8313  135.1920  153.0983 H   0  0  0  0  0  0  0  0  0  0  0  0
  148.0479  134.3051  155.7957 H   0  0  0  0  0  0  0  0  0  0  0  0
  149.5765  132.4616  155.2721 H   0  0  0  0  0  0  0  0  0  0  0  0
  150.6898  133.5599  154.4807 H   0  0  0  0  0  0  0  0  0  0  0  0
  150.1960  133.2711  157.4517 H   0  0  0  0  0  0  0  0  0  0  0  0
  151.7436  133.4349  156.6064 H   0  0  0  0  0  0  0  0  0  0  0  0
  150.0174  136.3371  154.6850 H   0  0  0  0  0  0  0  0  0  0  0  0
  148.6811  136.6127  155.8149 H   0  0  0  0  0  0  0  0  0  0  0  0
  1  2  1  0  0  0  0
  1 19  1  0  0  0  0
  1 20  1  0  0  0  0
  1 21  1  0  0  0  0
  2  7  1  0  0  0  0
  2  3  2  0  0  0  0
  3  4  1  0  0  0  0
  3 22  1  0  0  0  0
  4  5  2  0  0  0  0
  4 23  1  0  0  0  0
  5  6  1  0  0  0  0
  5 24  1  0  0  0  0
  6  7  2  0  0  0  0
  7  8  1  0  0  0  0
  8  9  1  0  0  0  0
  8 25  1  0  0  0  0
  9 10  2  0  0  0  0
  9 11  1  0  0  0  0
 11 12  1  0  0  0  0
 11 26  1  0  0  0  0
 12 18  1  0  0  0  0
 12 13  1  0  0  0  0
 12 27  1  0  0  0  0
 13 14  1  0  0  0  0
 13 28  1  0  0  0  0
 13 29  1  0  0  0  0
 14 15  1  0  0  0  0
 14 30  1  0  0  0  0
 14 31  1  0  0  0  0
 15 16  2  0  0  0  0
 15 17  2  0  0  0  0
 15 18  1  0  0  0  0
 18 32  1  0  0  0  0
 18 33  1  0  0  0  0
M  END
> <s_m_source_file>
AV-unprocessed.smi

> <i_m_source_file_index>
1214

> <i_lp_mmshare_version>
43012

> <i_f3d_flags>
0

> <s_epik_input>
W0NIM11jMVtjSF1bY0hdW2NIXW5jMVtOSF1DKD1PKVtOSF1bQ0BASF0oW0NIMl0yKVtDSDJdW0NIMl1TMig9Tyk9Tw==

> <s_epik_cmdline>
J2VwaWtfcHl0aG9uJywgJy1waCcsICc3LjAnLCAnLXRuJywgJzgnLCAnLW1hJywgJzIwMCcsICctbWV0YWxfYmluZGluZycsICctaW1hZScsICc8aW5maWxlLm1hZT4nLCAnLW9tYWUnLCAnPG91dGZpbGUubWFlPic=

> <r_lp_tautomer_probability>
1

> <r_epik_Ionization_Penalty>
4.18367e-05

> <r_epik_Ionization_Penalty_Charging>
0

> <r_epik_Ionization_Penalty_Neutral>
4.18367e-05

> <r_epik_State_Penalty>
-0

> <r_epik_Charging_Adjusted_Penalty>
0

> <i_epik_Tot_Q>
0

> <i_epik_Tot_abs_Q>
0

> <r_epik_Metal_State_Penalty>
-0

> <b_epik_Metal_Only>
0

> <s_lp_Force_Field>
OPLS_2005

> <r_lp_Energy>
8.88594

> <b_lp_Chiralities_Consistent>
1

> <s_lp_Variant>
AV-unprocessed.smi:1214-2

> <Gold.Version>
5.8.1

> <Gold.Id.Protein>
6NUR|6NUR_protein|mol2

> <Gold.PLP.Fitness>
38.2069

> <Gold.PLP.PLP>
-29.0192

> <Gold.PLP.part.hbond>
-4.0000

> <Gold.PLP.part.metal>
0.0000

> <Gold.PLP.part.buried>
-2.7347

> <Gold.PLP.part.nonpolar>
-22.2051

> <Gold.PLP.part.repulsive>
0.3162

> <Gold.PLP.ligand.clash>
0.0000

> <Gold.PLP.ligand.torsion>
0.9993

> <Gold.PLP.Chemscore.Hbond>
3.7280

> <Gold.PLP.Chemscore.CHOScore>
0.0000

> <Gold.PLP.Chemscore.Metal>
0.0000

> <Gold.Chemscore.Hbonds>
donor molecule, donor type, donor heavy atom, donor atom, acceptor molecule, acceptor atom, score
      L1  H     8    25       P1  7948  0.88
      L1  H    11    26       P1  7948  1.00
      P1  H  6896  6907       L1    16  0.98
      P1  H 10752 10765       L1    17  0.88

> <Gold.PLP.Chemscore.Internal.Correction>
0.0022

> <Gold.Rescore>
     Score         DG    S(hbond)    S(metal)    S(lipo)     H(rot)  DE(clash)    DE(int)     intcor
     19.62     -20.60       3.31        0.00      56.53       1.00       0.00       0.98       ----

> <Gold.Chemscore.Fitness>
19.6204

> <Gold.Chemscore.DG>
-20.6035

> <Gold.Chemscore.ZeroCoef>
-5.4800

> <Gold.Chemscore.Hbond>
3.3141

> <Gold.Chemscore.Metal>
0.0000

> <Gold.Chemscore.Lipo>
56.5338

> <Gold.Chemscore.Internal_Hbond>
0.0000

> <Gold.Chemscore.DEClash>
0.0000

> <Gold.Chemscore.DEInternal>
0.9831

> <Gold.Chemscore.Rot>
1.0000

> <Gold.Chemscore.Internal.Correction>
   9.000000E+99

> <Gold.Chemscore.Hbonds>
donor molecule, donor type, donor heavy atom, donor atom, acceptor molecule, acceptor atom, score
      L1  H     8    25       P1  7948  0.25
      L1  H    11    26       P1  7948  0.49
      P1  H  6896  6907       L1    16  0.59
      P1  H 10752 10765       L1    17  0.85

> <Gold.Chemscore.Hbond.Weighted>
-11.0690

> <Gold.Chemscore.Metal.Weighted>
-0.0000

> <Gold.Chemscore.Lipo.Weighted>
-6.6145

> <Gold.Chemscore.Internal_Hbond.Weighted>
0.0000

> <Gold.Chemscore.DEClash.Weighted>
0.0000

> <Gold.Chemscore.DEInternal.Weighted>
0.9831

> <Gold.Chemscore.Rot.Weighted>
2.5600

> <Gold.Chemscore.Internal.Correction.Weighted>
   9.000000E+99

> <Gold.Protein.RotatedTorsions>
[ 6907 6896 6895 6894 ] final  -68.98 input  -60.11 | X-H torsion
[ 7974 7965 7964 7962 ] final -149.34 input  175.53 | X-H torsion
[ 8008 7997 7996 7995 ] final  -55.53 input   59.86 | X-H torsion
[ 10167 10162 10161 10158 ] final  -87.91 input  -65.29 | X-H torsion
[ 10718 10713 10712 10709 ] final -147.83 input   66.30 | X-H torsion
[ 10763 10752 10751 10750 ] final -146.89 input  -60.55 | X-H torsion
[ 11005 11000 10999 10996 ] final -130.50 input  -57.11 | X-H torsion

> <Gold.Protein.ActiveResidues>
 VAL166  LYS551  ARG553  GLY616  TRP617  ASP618  TYR619  PRO620  LYS621  CYS622 
 ASP623  PHE694  ASN695  SER759  ASP760  ASP761  ALA762  ILE779  LEU786  VAL792 
 PHE793  MET794  SER795  GLU796  ALA797  LYS798  CYS799  TRP800  GLU811  SER814 

> <Gold.Protein.RotatedAtoms>
  150.7328  134.5662  159.5866 H   0  0  0  0  0  0  0  0  0  0  0  0  # atno 6907 bound_to 6896
  152.3112  134.7491  160.0345 H   0  0  0  0  0  0  0  0  0  0  0  0  # atno 6908 bound_to 6896
  151.8039  133.3337  159.3572 H   0  0  0  0  0  0  0  0  0  0  0  0  # atno 6909 bound_to 6896
  144.7973  140.5078  143.5731 H   0  0  0  0  0  0  0  0  0  0  0  0  # atno 7974 bound_to 7965
  154.4198  140.1150  156.5492 H   0  0  0  0  0  0  0  0  0  0  0  0  # atno 8008 bound_to 7997
  155.6428  140.3496  155.4701 H   0  0  0  0  0  0  0  0  0  0  0  0  # atno 8009 bound_to 7997
  155.9857  140.1169  157.0675 H   0  0  0  0  0  0  0  0  0  0  0  0  # atno 8010 bound_to 7997
  140.3799  143.2754  151.9397 H   0  0  0  0  0  0  0  0  0  0  0  0  # atno 10167 bound_to 10162
  156.4125  130.7988  151.2207 H   0  0  0  0  0  0  0  0  0  0  0  0  # atno 10718 bound_to 10713
  154.8313  135.3374  154.6733 H   0  0  0  0  0  0  0  0  0  0  0  0  # atno 10763 bound_to 10752
  153.7352  135.6949  153.4984 H   0  0  0  0  0  0  0  0  0  0  0  0  # atno 10764 bound_to 10752
  153.2283  135.4425  155.0519 H   0  0  0  0  0  0  0  0  0  0  0  0  # atno 10765 bound_to 10752
  140.9340  134.1282  157.4210 H   0  0  0  0  0  0  0  0  0  0  0  0  # atno 11005 bound_to 11000
  145.5640  139.1480  143.3325 LP  0  0  0  0  0  0  0  0  0  0  0  0  # atno 17320 bound_to 7965
  146.2245  140.5775  142.9002 LP  0  0  0  0  0  0  0  0  0  0  0  0  # atno 17321 bound_to 7965
  139.4796  144.5829  151.7903 LP  0  0  0  0  0  0  0  0  0  0  0  0  # atno 17342 bound_to 10162
  140.4948  144.1256  150.5958 LP  0  0  0  0  0  0  0  0  0  0  0  0  # atno 17343 bound_to 10162
  157.7507  131.0253  150.3914 LP  0  0  0  0  0  0  0  0  0  0  0  0  # atno 17370 bound_to 10713
  156.4215  130.3954  149.6822 LP  0  0  0  0  0  0  0  0  0  0  0  0  # atno 17371 bound_to 10713
  139.8803  135.0014  156.6069 LP  0  0  0  0  0  0  0  0  0  0  0  0  # atno 17394 bound_to 11000
  140.7824  133.8649  155.8579 LP  0  0  0  0  0  0  0  0  0  0  0  0  # atno 17395 bound_to 11000

$$$$
