AV-unprocessed.smi:215|AV-procd|sdf|1657|dock2
  -GOLD-   2262020 53D 1   1.00000     0.00000
 Structure written by MMmdl.
 59 62  0  0  0  0  0  0  0  0  2 V2000
  145.6052  133.8017  154.4770 C   0  0  0  0  0  0  0  0  0  0  0  0
  145.9174  132.6428  153.5035 C   0  0  1  0  0  0  0  0  0  0  0  0
  145.1717  132.7422  152.1559 C   0  0  1  0  0  0  0  0  0  0  0  0
  143.7255  133.1025  152.2531 N   0  3  1  0  0  0  0  0  0  0  0  0
  143.5125  134.5580  152.4593 C   0  0  0  0  0  0  0  0  0  0  0  0
  142.9283  132.5814  151.1075 C   0  0  0  0  0  0  0  0  0  0  0  0
  143.7524  132.4285  149.8154 C   0  0  0  0  0  0  0  0  0  0  0  0
  143.3054  133.3423  148.8370 O   0  0  0  0  0  0  0  0  0  0  0  0
  146.0511  133.7319  151.3729 C   0  0  0  0  0  0  0  0  0  0  0  0
  147.4734  133.4342  151.8636 C   0  0  0  0  0  0  0  0  0  0  0  0
  147.3151  132.6644  153.0931 N   0  0  0  0  0  0  0  0  0  0  0  0
  148.3612  132.4093  153.9255 C   0  0  0  0  0  0  0  0  0  0  0  0
  148.7162  133.3700  154.8195 N   0  0  0  0  0  0  0  0  0  0  0  0
  149.7282  133.1727  155.6683 C   0  0  0  0  0  0  0  0  0  0  0  0
  150.5181  132.1058  155.7880 N   0  0  0  0  0  0  0  0  0  0  0  0
  150.1846  131.1405  154.8850 C   0  0  0  0  0  0  0  0  0  0  0  0
  149.1293  131.2053  153.9282 C   0  0  0  0  0  0  0  0  0  0  0  0
  149.1002  130.0240  153.1940 N   0  0  0  0  0  0  0  0  0  0  0  0
  150.0656  129.3034  153.6938 C   0  0  0  0  0  0  0  0  0  0  0  0
  150.7875  129.9092  154.6955 N   0  0  0  0  0  0  0  0  0  0  0  0
  151.8685  129.3345  155.4414 C   0  0  0  0  0  0  0  0  0  0  0  0
  153.2656  129.1954  154.8318 C   0  0  0  0  0  0  0  0  0  0  0  0
  153.4901  127.9093  155.6590 C   0  0  0  0  0  0  0  0  0  0  0  0
  154.2168  126.7855  154.8996 C   0  0  0  0  0  0  0  0  0  0  0  0
  153.4328  126.2669  153.8450 O   0  0  0  0  0  0  0  0  0  0  0  0
  154.1966  128.1514  157.0098 C   0  0  0  0  0  0  0  0  0  0  0  0
  155.5694  128.4462  156.8517 O   0  0  0  0  0  0  0  0  0  0  0  0
  151.9465  127.8272  155.6924 C   0  0  0  0  0  0  0  0  0  0  0  0
  145.6811  131.6882  153.9700 H   0  0  0  0  0  0  0  0  0  0  0  0
  145.2410  131.7747  151.6539 H   0  0  0  0  0  0  0  0  0  0  0  0
  144.5655  133.7821  154.7991 H   0  0  0  0  0  0  0  0  0  0  0  0
  145.7957  134.7763  154.0276 H   0  0  0  0  0  0  0  0  0  0  0  0
  146.2137  133.7378  155.3787 H   0  0  0  0  0  0  0  0  0  0  0  0
  143.9468  135.1339  151.6411 H   0  0  0  0  0  0  0  0  0  0  0  0
  143.9622  134.8989  153.3915 H   0  0  0  0  0  0  0  0  0  0  0  0
  142.4554  134.8096  152.5227 H   0  0  0  0  0  0  0  0  0  0  0  0
  142.4866  131.6232  151.3853 H   0  0  0  0  0  0  0  0  0  0  0  0
  142.0898  133.2414  150.8875 H   0  0  0  0  0  0  0  0  0  0  0  0
  144.8205  132.5611  149.9808 H   0  0  0  0  0  0  0  0  0  0  0  0
  143.6232  131.4212  149.4184 H   0  0  0  0  0  0  0  0  0  0  0  0
  142.4583  133.6730  149.0966 H   0  0  0  0  0  0  0  0  0  0  0  0
  145.9602  133.6199  150.2919 H   0  0  0  0  0  0  0  0  0  0  0  0
  145.7890  134.7602  151.6259 H   0  0  0  0  0  0  0  0  0  0  0  0
  148.0156  132.8319  151.1338 H   0  0  0  0  0  0  0  0  0  0  0  0
  148.0312  134.3567  152.0297 H   0  0  0  0  0  0  0  0  0  0  0  0
  149.9345  133.9862  156.3483 H   0  0  0  0  0  0  0  0  0  0  0  0
  150.2822  128.3068  153.3372 H   0  0  0  0  0  0  0  0  0  0  0  0
  151.9096  129.8847  156.3828 H   0  0  0  0  0  0  0  0  0  0  0  0
  153.2300  129.0168  153.7554 H   0  0  0  0  0  0  0  0  0  0  0  0
  153.9430  130.0176  155.0651 H   0  0  0  0  0  0  0  0  0  0  0  0
  155.1455  127.1523  154.4615 H   0  0  0  0  0  0  0  0  0  0  0  0
  154.4954  125.9705  155.5685 H   0  0  0  0  0  0  0  0  0  0  0  0
  153.1575  126.9829  153.2936 H   0  0  0  0  0  0  0  0  0  0  0  0
  153.7259  128.9676  157.5584 H   0  0  0  0  0  0  0  0  0  0  0  0
  154.1237  127.2753  157.6546 H   0  0  0  0  0  0  0  0  0  0  0  0
  156.0593  127.9502  157.4894 H   0  0  0  0  0  0  0  0  0  0  0  0
  151.5194  127.5063  156.6430 H   0  0  0  0  0  0  0  0  0  0  0  0
  151.5381  127.2425  154.8657 H   0  0  0  0  0  0  0  0  0  0  0  0
  143.3758  132.6360  153.0785 H   0  0  0  0  0  0  0  0  0  0  0  0
  1  2  1  0  0  0  0
  1 31  1  0  0  0  0
  1 32  1  0  0  0  0
  1 33  1  0  0  0  0
  2 29  1  0  0  0  0
  2 11  1  0  0  0  0
  2  3  1  0  0  0  0
  3 30  1  0  0  0  0
  3  4  1  0  0  0  0
  3  9  1  0  0  0  0
  4  5  1  0  0  0  0
  4  6  1  0  0  0  0
  4 59  1  0  0  0  0
  5 34  1  0  0  0  0
  5 35  1  0  0  0  0
  5 36  1  0  0  0  0
  6  7  1  0  0  0  0
  6 37  1  0  0  0  0
  6 38  1  0  0  0  0
  7  8  1  0  0  0  0
  7 39  1  0  0  0  0
  7 40  1  0  0  0  0
  8 41  1  0  0  0  0
  9 10  1  0  0  0  0
  9 42  1  0  0  0  0
  9 43  1  0  0  0  0
 10 11  1  0  0  0  0
 10 44  1  0  0  0  0
 10 45  1  0  0  0  0
 11 12  1  0  0  0  0
 12 17  1  0  0  0  0
 12 13  2  0  0  0  0
 13 14  1  0  0  0  0
 14 15  2  0  0  0  0
 14 46  1  0  0  0  0
 15 16  1  0  0  0  0
 16 20  1  0  0  0  0
 16 17  2  0  0  0  0
 17 18  1  0  0  0  0
 18 19  2  0  0  0  0
 19 20  1  0  0  0  0
 19 47  1  0  0  0  0
 20 21  1  0  0  0  0
 21 28  1  0  0  0  0
 21 22  1  0  0  0  0
 21 48  1  0  0  0  0
 22 23  1  0  0  0  0
 22 49  1  0  0  0  0
 22 50  1  0  0  0  0
 23 24  1  0  0  0  0
 23 26  1  0  0  0  0
 23 28  1  0  0  0  0
 24 25  1  0  0  0  0
 24 51  1  0  0  0  0
 24 52  1  0  0  0  0
 25 53  1  0  0  0  0
 26 27  1  0  0  0  0
 26 54  1  0  0  0  0
 26 55  1  0  0  0  0
 27 56  1  0  0  0  0
 28 57  1  0  0  0  0
 28 58  1  0  0  0  0
M  CHG  1   4   1
M  END
> <s_m_source_file>
AV-unprocessed.smi

> <i_m_source_file_index>
215

> <i_lp_mmshare_version>
43012

> <i_f3d_flags>
0

> <s_epik_input>
W09IXVtDSDJdW0NIMl1OKFtDSDNdKVtDQEBIXShbQ0BIXTFbQ0gzXSlbQ0gyXVtDSDJdTjFjKG5bY0hdbjIpYyhjMjMpbltjSF1uM1tDSF0oW0NIMl00KVtDSDJdQzQoW0NIMl1bT0hdKVtDSDJdW09IXQ==

> <s_epik_cmdline>
J2VwaWtfcHl0aG9uJywgJy1waCcsICc3LjAnLCAnLXRuJywgJzgnLCAnLW1hJywgJzIwMCcsICctbWV0YWxfYmluZGluZycsICctaW1hZScsICc8aW5maWxlLm1hZT4nLCAnLW9tYWUnLCAnPG91dGZpbGUubWFlPic=

> <r_lp_tautomer_probability>
1

> <r_epik_Ionization_Penalty>
0.0036237

> <r_epik_Ionization_Penalty_Charging>
0.0032725

> <r_epik_Ionization_Penalty_Neutral>
0.000351196

> <r_epik_State_Penalty>
-0

> <r_epik_Charging_Adjusted_Penalty>
0.0032725

> <i_epik_Tot_Q>
1

> <i_epik_Tot_abs_Q>
1

> <r_epik_Metal_State_Penalty>
-0

> <b_epik_Metal_Only>
0

> <s_lp_Force_Field>
OPLS_2005

> <r_lp_Energy>
65.1718

> <b_lp_Chiralities_Consistent>
1

> <s_lp_Variant>
AV-unprocessed.smi:215-8

> <Gold.Version>
5.8.1

> <Gold.Id.Protein>
6NUR|6NUR_protein|mol2

> <Gold.PLP.Fitness>
45.4724

> <Gold.PLP.PLP>
-37.2804

> <Gold.PLP.part.hbond>
-2.9666

> <Gold.PLP.part.metal>
0.0000

> <Gold.PLP.part.buried>
-2.8488

> <Gold.PLP.part.nonpolar>
-32.3944

> <Gold.PLP.part.repulsive>
1.0141

> <Gold.PLP.ligand.clash>
0.0000

> <Gold.PLP.ligand.torsion>
3.6731

> <Gold.PLP.Chemscore.Hbond>
4.0000

> <Gold.PLP.Chemscore.CHOScore>
0.9116

> <Gold.PLP.Chemscore.Metal>
0.0000

> <Gold.Chemscore.Hbonds>
donor molecule, donor type, donor heavy atom, donor atom, acceptor molecule, acceptor atom, score
      L1  H     4    59       P1 10957  1.90
      L1  H     8    41       P1 10186  1.00
      L1  H    25    53       P1 10737  1.00
      L1  C    19    47       P1 10737  0.90

> <Gold.PLP.Chemscore.Internal.Correction>
0.8035

> <Gold.Rescore>
     Score         DG    S(hbond)    S(metal)    S(lipo)     H(rot)  DE(clash)    DE(int)     intcor
      7.29     -11.61       2.88        0.00      68.00       4.48       0.07       4.25       ----

> <Gold.Chemscore.Fitness>
7.2879

> <Gold.Chemscore.DG>
-11.6063

> <Gold.Chemscore.ZeroCoef>
-5.4800

> <Gold.Chemscore.Hbond>
2.8850

> <Gold.Chemscore.Metal>
0.0000

> <Gold.Chemscore.Lipo>
68.0002

> <Gold.Chemscore.Internal_Hbond>
0.0000

> <Gold.Chemscore.DEClash>
0.0713

> <Gold.Chemscore.DEInternal>
4.2470

> <Gold.Chemscore.Rot>
4.4787

> <Gold.Chemscore.Internal.Correction>
   9.000000E+99

> <Gold.Chemscore.Hbonds>
donor molecule, donor type, donor heavy atom, donor atom, acceptor molecule, acceptor atom, score
      L1  H     4    59       P1 10957  0.20
      L1  H     8    41       P1 10186  1.00
      L1  H    25    53       P1 10737  0.78

> <Gold.Chemscore.Hbond.Weighted>
-9.6357

> <Gold.Chemscore.Metal.Weighted>
-0.0000

> <Gold.Chemscore.Lipo.Weighted>
-7.9560

> <Gold.Chemscore.Internal_Hbond.Weighted>
0.0000

> <Gold.Chemscore.DEClash.Weighted>
0.0713

> <Gold.Chemscore.DEInternal.Weighted>
4.2470

> <Gold.Chemscore.Rot.Weighted>
11.4655

> <Gold.Chemscore.Internal.Correction.Weighted>
   9.000000E+99

> <Gold.Protein.RotatedTorsions>
[ 6907 6896 6895 6894 ] final   71.50 input  -60.11 | X-H torsion
[ 7974 7965 7964 7962 ] final  -80.17 input  175.53 | X-H torsion
[ 8008 7997 7996 7995 ] final  -38.91 input   59.86 | X-H torsion
[ 10167 10162 10161 10158 ] final  -88.90 input  -65.29 | X-H torsion
[ 10718 10713 10712 10709 ] final  137.73 input   66.30 | X-H torsion
[ 10763 10752 10751 10750 ] final  126.80 input  -60.55 | X-H torsion
[ 11005 11000 10999 10996 ] final  121.27 input  -57.11 | X-H torsion

> <Gold.Protein.ActiveResidues>
 VAL166  LYS551  ARG553  GLY616  TRP617  ASP618  TYR619  PRO620  LYS621  CYS622 
 ASP623  PHE694  ASN695  SER759  ASP760  ASP761  ALA762  ILE779  LEU786  VAL792 
 PHE793  MET794  SER795  GLU796  ALA797  LYS798  CYS799  TRP800  GLU811  SER814 

> <Gold.Protein.RotatedAtoms>
  152.4813  134.4711  159.9635 H   0  0  0  0  0  0  0  0  0  0  0  0  # atno 6907 bound_to 6896
  151.4716  133.3562  159.2832 H   0  0  0  0  0  0  0  0  0  0  0  0  # atno 6908 bound_to 6896
  150.8889  134.8316  159.7340 H   0  0  0  0  0  0  0  0  0  0  0  0  # atno 6909 bound_to 6896
  145.5635  140.9478  143.1434 H   0  0  0  0  0  0  0  0  0  0  0  0  # atno 7974 bound_to 7965
  154.4030  140.1565  156.2778 H   0  0  0  0  0  0  0  0  0  0  0  0  # atno 8008 bound_to 7997
  155.8897  140.3439  155.5925 H   0  0  0  0  0  0  0  0  0  0  0  0  # atno 8009 bound_to 7997
  155.7573  140.0813  157.2163 H   0  0  0  0  0  0  0  0  0  0  0  0  # atno 8010 bound_to 7997
  140.3701  143.2798  151.9511 H   0  0  0  0  0  0  0  0  0  0  0  0  # atno 10167 bound_to 10162
  157.4330  131.1050  151.0229 H   0  0  0  0  0  0  0  0  0  0  0  0  # atno 10718 bound_to 10713
  153.6992  135.3286  155.3220 H   0  0  0  0  0  0  0  0  0  0  0  0  # atno 10763 bound_to 10752
  154.8418  135.4450  154.1428 H   0  0  0  0  0  0  0  0  0  0  0  0  # atno 10764 bound_to 10752
  153.2491  135.6979  153.7777 H   0  0  0  0  0  0  0  0  0  0  0  0  # atno 10765 bound_to 10752
  139.9219  134.9638  156.7933 H   0  0  0  0  0  0  0  0  0  0  0  0  # atno 11005 bound_to 11000
  144.7471  139.7290  143.7288 LP  0  0  0  0  0  0  0  0  0  0  0  0  # atno 17320 bound_to 7965
  146.1834  139.5038  142.9852 LP  0  0  0  0  0  0  0  0  0  0  0  0  # atno 17321 bound_to 7965
  139.4804  144.5915  151.7764 LP  0  0  0  0  0  0  0  0  0  0  0  0  # atno 17342 bound_to 10162
  140.5042  144.1124  150.5978 LP  0  0  0  0  0  0  0  0  0  0  0  0  # atno 17343 bound_to 10162
  157.1119  130.6025  149.5484 LP  0  0  0  0  0  0  0  0  0  0  0  0  # atno 17370 bound_to 10713
  155.9920  130.4976  150.7322 LP  0  0  0  0  0  0  0  0  0  0  0  0  # atno 17371 bound_to 10713
  140.6449  133.9784  155.7726 LP  0  0  0  0  0  0  0  0  0  0  0  0  # atno 17394 bound_to 11000
  141.0746  134.0154  157.3476 LP  0  0  0  0  0  0  0  0  0  0  0  0  # atno 17395 bound_to 11000

$$$$
