AV-unprocessed.smi:89|AV-procd|sdf|827|dock8
  -GOLD-   2262017243D 1   1.00000     0.00000
 Structure written by MMmdl.
 54 56  0  0  0  0  0  0  0  0  1 V2000
  147.7706  139.8160  153.7834 C   0  0  0  0  0  0  0  0  0  0  0  0
  148.1468  138.3413  154.0023 C   0  0  0  0  0  0  0  0  0  0  0  0
  148.7198  138.0737  155.3230 N   0  0  0  0  0  0  0  0  0  0  0  0
  149.8303  138.7884  155.6311 C   0  0  0  0  0  0  0  0  0  0  0  0
  151.0015  138.3807  155.0813 N   0  0  0  0  0  0  0  0  0  0  0  0
  152.1344  139.0340  155.3524 C   0  0  0  0  0  0  0  0  0  0  0  0
  152.3171  140.0951  156.1404 N   0  0  0  0  0  0  0  0  0  0  0  0
  151.1449  140.4992  156.7085 C   0  0  0  0  0  0  0  0  0  0  0  0
  149.8644  139.9098  156.5087 C   0  0  0  0  0  0  0  0  0  0  0  0
  148.9085  140.5987  157.2457 N   0  0  0  0  0  0  0  0  0  0  0  0
  149.5841  141.5397  157.8455 C   0  0  0  0  0  0  0  0  0  0  0  0
  150.9376  141.5431  157.5936 N   0  0  0  0  0  0  0  0  0  0  0  0
  151.9223  142.4648  158.1396 C   0  0  0  0  0  0  0  0  0  0  0  0
  151.4978  143.9577  158.1133 C   0  0  1  0  0  0  0  0  0  0  0  0
  151.2995  144.3183  156.7601 O   0  0  0  0  0  0  0  0  0  0  0  0
  150.2360  144.2706  158.9150 C   0  0  0  0  0  0  0  0  0  0  0  0
  150.7494  144.7830  160.2661 C   0  0  0  0  0  0  0  0  0  0  0  0
  152.1617  144.9036  160.1404 O   0  0  0  0  0  0  0  0  0  0  0  0
  152.5041  144.9117  158.7631 C   0  0  0  0  0  0  0  0  0  0  0  0
  148.6707  136.6825  155.8019 C   0  0  1  0  0  0  0  0  0  0  0  0
  149.6355  135.7568  155.0365 C   0  0  0  0  0  0  0  0  0  0  0  0
  148.8684  136.5298  157.3294 C   0  0  0  0  0  0  0  0  0  0  0  0
  148.5774  134.8041  157.9425 S   0  0  0  0  0  0  0  0  0  0  0  0
  147.3255  134.3145  157.3461 O   0  0  0  0  0  0  0  0  0  0  0  0
  149.8138  134.0193  157.8020 O   0  0  0  0  0  0  0  0  0  0  0  0
  148.2686  135.0716  159.7440 C   0  0  0  0  0  0  0  0  0  0  0  0
  148.4147  136.5430  160.1484 C   0  0  0  0  0  0  0  0  0  0  0  0
  147.2730  139.9458  152.8226 H   0  0  0  0  0  0  0  0  0  0  0  0
  148.6464  140.4654  153.7862 H   0  0  0  0  0  0  0  0  0  0  0  0
  147.0888  140.1653  154.5595 H   0  0  0  0  0  0  0  0  0  0  0  0
  147.2484  137.7342  153.8890 H   0  0  0  0  0  0  0  0  0  0  0  0
  148.8324  138.0152  153.2207 H   0  0  0  0  0  0  0  0  0  0  0  0
  153.0211  138.6495  154.8702 H   0  0  0  0  0  0  0  0  0  0  0  0
  149.1112  142.2557  158.5017 H   0  0  0  0  0  0  0  0  0  0  0  0
  152.1450  142.1564  159.1621 H   0  0  0  0  0  0  0  0  0  0  0  0
  152.8481  142.3340  157.5772 H   0  0  0  0  0  0  0  0  0  0  0  0
  150.3718  144.4171  156.6093 H   0  0  0  0  0  0  0  0  0  0  0  0
  149.6654  145.0687  158.4368 H   0  0  0  0  0  0  0  0  0  0  0  0
  149.5668  143.4156  159.0113 H   0  0  0  0  0  0  0  0  0  0  0  0
  150.3117  145.7520  160.5080 H   0  0  0  0  0  0  0  0  0  0  0  0
  150.5134  144.0944  161.0776 H   0  0  0  0  0  0  0  0  0  0  0  0
  153.5426  144.6279  158.5939 H   0  0  0  0  0  0  0  0  0  0  0  0
  152.3731  145.9291  158.3894 H   0  0  0  0  0  0  0  0  0  0  0  0
  147.6651  136.3278  155.5771 H   0  0  0  0  0  0  0  0  0  0  0  0
  149.4878  134.7168  155.3284 H   0  0  0  0  0  0  0  0  0  0  0  0
  150.6769  136.0058  155.2402 H   0  0  0  0  0  0  0  0  0  0  0  0
  149.4800  135.8124  153.9592 H   0  0  0  0  0  0  0  0  0  0  0  0
  149.8857  136.8005  157.6101 H   0  0  0  0  0  0  0  0  0  0  0  0
  148.2207  137.2062  157.8865 H   0  0  0  0  0  0  0  0  0  0  0  0
  147.2726  134.6988  159.9829 H   0  0  0  0  0  0  0  0  0  0  0  0
  148.9844  134.4603  160.2937 H   0  0  0  0  0  0  0  0  0  0  0  0
  148.2970  136.6584  161.2259 H   0  0  0  0  0  0  0  0  0  0  0  0
  147.6591  137.1651  159.6701 H   0  0  0  0  0  0  0  0  0  0  0  0
  149.3967  136.9322  159.8788 H   0  0  0  0  0  0  0  0  0  0  0  0
  1  2  1  0  0  0  0
  1 28  1  0  0  0  0
  1 29  1  0  0  0  0
  1 30  1  0  0  0  0
  2  3  1  0  0  0  0
  2 31  1  0  0  0  0
  2 32  1  0  0  0  0
  3  4  1  0  0  0  0
  3 20  1  0  0  0  0
  4  9  1  0  0  0  0
  4  5  2  0  0  0  0
  5  6  1  0  0  0  0
  6  7  2  0  0  0  0
  6 33  1  0  0  0  0
  7  8  1  0  0  0  0
  8 12  1  0  0  0  0
  8  9  2  0  0  0  0
  9 10  1  0  0  0  0
 10 11  2  0  0  0  0
 11 12  1  0  0  0  0
 11 34  1  0  0  0  0
 12 13  1  0  0  0  0
 13 14  1  0  0  0  0
 13 35  1  0  0  0  0
 13 36  1  0  0  0  0
 14 19  1  0  0  0  0
 14 15  1  0  0  0  0
 14 16  1  0  0  0  0
 15 37  1  0  0  0  0
 16 17  1  0  0  0  0
 16 38  1  0  0  0  0
 16 39  1  0  0  0  0
 17 18  1  0  0  0  0
 17 40  1  0  0  0  0
 17 41  1  0  0  0  0
 18 19  1  0  0  0  0
 19 42  1  0  0  0  0
 19 43  1  0  0  0  0
 20 21  1  0  0  0  0
 20 22  1  0  0  0  0
 20 44  1  0  0  0  0
 21 45  1  0  0  0  0
 21 46  1  0  0  0  0
 21 47  1  0  0  0  0
 22 23  1  0  0  0  0
 22 48  1  0  0  0  0
 22 49  1  0  0  0  0
 23 24  2  0  0  0  0
 23 25  2  0  0  0  0
 23 26  1  0  0  0  0
 26 27  1  0  0  0  0
 26 50  1  0  0  0  0
 26 51  1  0  0  0  0
 27 52  1  0  0  0  0
 27 53  1  0  0  0  0
 27 54  1  0  0  0  0
M  END
> <s_m_source_file>
AV-unprocessed.smi

> <i_m_source_file_index>
89

> <i_lp_mmshare_version>
43012

> <i_f3d_flags>
0

> <s_epik_input>
W0NIM11bQ0gyXVMoPU8pKD1PKVtDSDJdW0NAQEhdKFtDSDNdKU4oW0NIMl1bQ0gzXSljKG5bY0hdbjEpYyhjMTIpbltjSF1uMltDSDJdW0NAQF0zKFtPSF0pW0NIMl1bQ0gyXU9bQ0gyXTM=

> <s_epik_cmdline>
J2VwaWtfcHl0aG9uJywgJy1waCcsICc3LjAnLCAnLXRuJywgJzgnLCAnLW1hJywgJzIwMCcsICctbWV0YWxfYmluZGluZycsICctaW1hZScsICc8aW5maWxlLm1hZT4nLCAnLW9tYWUnLCAnPG91dGZpbGUubWFlPic=

> <r_lp_tautomer_probability>
1

> <r_epik_Ionization_Penalty>
0.00103773

> <r_epik_Ionization_Penalty_Charging>
0

> <r_epik_Ionization_Penalty_Neutral>
0.00103773

> <r_epik_State_Penalty>
0.000558914

> <r_epik_Charging_Adjusted_Penalty>
0.000558914

> <i_epik_Tot_Q>
0

> <i_epik_Tot_abs_Q>
0

> <r_epik_Metal_State_Penalty>
-0

> <b_epik_Metal_Only>
0

> <s_lp_Force_Field>
OPLS_2005

> <r_lp_Energy>
30.4714

> <b_lp_Chiralities_Consistent>
1

> <s_lp_Variant>
AV-unprocessed.smi:89-3

> <Gold.Version>
5.8.1

> <Gold.Id.Protein>
6NUR|6NUR_protein|mol2

> <Gold.PLP.Fitness>
43.4119

> <Gold.PLP.PLP>
-35.4725

> <Gold.PLP.part.hbond>
-3.0000

> <Gold.PLP.part.metal>
0.0000

> <Gold.PLP.part.buried>
-3.3807

> <Gold.PLP.part.nonpolar>
-29.0222

> <Gold.PLP.part.repulsive>
0.2788

> <Gold.PLP.ligand.clash>
0.0000

> <Gold.PLP.ligand.torsion>
1.1468

> <Gold.PLP.Chemscore.Hbond>
3.0000

> <Gold.PLP.Chemscore.CHOScore>
0.0000

> <Gold.PLP.Chemscore.Metal>
0.0000

> <Gold.Chemscore.Hbonds>
donor molecule, donor type, donor heavy atom, donor atom, acceptor molecule, acceptor atom, score
      L1  H    15    37       P1  8028  1.00
      P1  H  6896  6908       L1    25  1.00
      P1  H  7997  8010       L1     7  1.00

> <Gold.PLP.Chemscore.Internal.Correction>
1.2329

> <Gold.Rescore>
     Score         DG    S(hbond)    S(metal)    S(lipo)     H(rot)  DE(clash)    DE(int)     intcor
     11.83     -15.85       2.73        0.00      86.20       3.45       0.67       3.35       ----

> <Gold.Chemscore.Fitness>
11.8305

> <Gold.Chemscore.DG>
-15.8516

> <Gold.Chemscore.ZeroCoef>
-5.4800

> <Gold.Chemscore.Hbond>
2.7317

> <Gold.Chemscore.Metal>
0.0000

> <Gold.Chemscore.Lipo>
86.2044

> <Gold.Chemscore.Internal_Hbond>
0.0000

> <Gold.Chemscore.DEClash>
0.6741

> <Gold.Chemscore.DEInternal>
3.3470

> <Gold.Chemscore.Rot>
3.4524

> <Gold.Chemscore.Internal.Correction>
   9.000000E+99

> <Gold.Chemscore.Hbonds>
donor molecule, donor type, donor heavy atom, donor atom, acceptor molecule, acceptor atom, score
      L1  H    15    37       P1  8028  0.96
      P1  H  6896  6908       L1    25  0.92
      P1  H  7997  8010       L1     7  0.33

> <Gold.Chemscore.Hbond.Weighted>
-9.1239

> <Gold.Chemscore.Metal.Weighted>
-0.0000

> <Gold.Chemscore.Lipo.Weighted>
-10.0859

> <Gold.Chemscore.Internal_Hbond.Weighted>
0.0000

> <Gold.Chemscore.DEClash.Weighted>
0.6741

> <Gold.Chemscore.DEInternal.Weighted>
3.3470

> <Gold.Chemscore.Rot.Weighted>
8.8382

> <Gold.Chemscore.Internal.Correction.Weighted>
   9.000000E+99

> <Gold.Protein.RotatedTorsions>
[ 6907 6896 6895 6894 ] final  118.15 input  -60.11 | X-H torsion
[ 7974 7965 7964 7962 ] final    4.77 input  175.53 | X-H torsion
[ 8008 7997 7996 7995 ] final   79.15 input   59.86 | X-H torsion
[ 10167 10162 10161 10158 ] final  -54.22 input  -65.29 | X-H torsion
[ 10718 10713 10712 10709 ] final -131.64 input   66.30 | X-H torsion
[ 10763 10752 10751 10750 ] final -123.78 input  -60.55 | X-H torsion
[ 11005 11000 10999 10996 ] final -178.68 input  -57.11 | X-H torsion

> <Gold.Protein.ActiveResidues>
 VAL166  LYS551  ARG553  GLY616  TRP617  ASP618  TYR619  PRO620  LYS621  CYS622 
 ASP623  PHE694  ASN695  SER759  ASP760  ASP761  ALA762  ILE779  LEU786  VAL792 
 PHE793  MET794  SER795  GLU796  ALA797  LYS798  CYS799  TRP800  GLU811  SER814 

> <Gold.Protein.RotatedAtoms>
  152.4563  133.7729  159.6808 H   0  0  0  0  0  0  0  0  0  0  0  0  # atno 6907 bound_to 6896
  150.8490  133.7806  159.3038 H   0  0  0  0  0  0  0  0  0  0  0  0  # atno 6908 bound_to 6896
  151.5407  135.1071  159.9977 H   0  0  0  0  0  0  0  0  0  0  0  0  # atno 6909 bound_to 6896
  146.2443  140.0485  142.8377 H   0  0  0  0  0  0  0  0  0  0  0  0  # atno 7974 bound_to 7965
  155.8656  140.3451  155.5786 H   0  0  0  0  0  0  0  0  0  0  0  0  # atno 8008 bound_to 7997
  155.7884  140.0868  157.2041 H   0  0  0  0  0  0  0  0  0  0  0  0  # atno 8009 bound_to 7997
  154.4014  140.1487  156.3121 H   0  0  0  0  0  0  0  0  0  0  0  0  # atno 8010 bound_to 7997
  140.6442  143.2525  151.4904 H   0  0  0  0  0  0  0  0  0  0  0  0  # atno 10167 bound_to 10162
  156.2265  130.7011  151.0812 H   0  0  0  0  0  0  0  0  0  0  0  0  # atno 10718 bound_to 10713
  154.8713  135.4086  154.2999 H   0  0  0  0  0  0  0  0  0  0  0  0  # atno 10763 bound_to 10752
  153.3860  135.7013  153.6535 H   0  0  0  0  0  0  0  0  0  0  0  0  # atno 10764 bound_to 10752
  153.5337  135.3662  155.2659 H   0  0  0  0  0  0  0  0  0  0  0  0  # atno 10765 bound_to 10752
  140.4271  134.6553  157.4693 H   0  0  0  0  0  0  0  0  0  0  0  0  # atno 11005 bound_to 11000
  145.1006  140.9343  143.4715 LP  0  0  0  0  0  0  0  0  0  0  0  0  # atno 17320 bound_to 7965
  145.0677  139.3056  143.5848 LP  0  0  0  0  0  0  0  0  0  0  0  0  # atno 17321 bound_to 7965
  139.5652  144.2059  152.1754 LP  0  0  0  0  0  0  0  0  0  0  0  0  # atno 17342 bound_to 10162
  140.1338  144.5264  150.6786 LP  0  0  0  0  0  0  0  0  0  0  0  0  # atno 17343 bound_to 10162
  157.7113  131.0733  150.6491 LP  0  0  0  0  0  0  0  0  0  0  0  0  # atno 17370 bound_to 10713
  156.6557  130.4498  149.5704 LP  0  0  0  0  0  0  0  0  0  0  0  0  # atno 17371 bound_to 10713
  140.0160  134.6619  155.9309 LP  0  0  0  0  0  0  0  0  0  0  0  0  # atno 17394 bound_to 11000
  141.1761  133.6540  156.4833 LP  0  0  0  0  0  0  0  0  0  0  0  0  # atno 17395 bound_to 11000

$$$$
