AV-unprocessed.smi:1336|AV-procd|sdf|5496|dock10
  -GOLD-   22720 5 73D 1   1.00000     0.00000
 Structure written by MMmdl.
 43 43  0  0  0  0  0  0  0  0  1 V2000
  152.3021  143.3971  160.4457 C   0  0  0  0  0  0  0  0  0  0  0  0
  152.2663  144.2956  159.2015 C   0  0  0  0  0  0  0  0  0  0  0  0
  150.8443  144.6704  158.7547 C   0  0  0  0  0  0  0  0  0  0  0  0
  150.3025  143.6780  157.8323 N   0  0  0  0  0  0  0  0  0  0  0  0
  150.1152  142.3775  158.1025 C   0  0  0  0  0  0  0  0  0  0  0  0
  150.3993  141.8609  159.1849 O   0  0  0  0  0  0  0  0  0  0  0  0
  149.4896  141.5398  156.9745 C   0  0  2  0  0  0  0  0  0  0  0  0
  150.5074  141.4601  155.8246 C   0  0  0  0  0  0  0  0  0  0  0  0
  148.2858  142.1937  156.4676 N   0  0  0  0  0  0  0  0  0  0  0  0
  147.0251  141.7878  156.6945 C   0  0  0  0  0  0  0  0  0  0  0  0
  146.7470  140.7480  157.2917 O   0  0  0  0  0  0  0  0  0  0  0  0
  145.9053  142.6959  156.1762 C   0  0  0  0  0  0  0  0  0  0  0  0
  145.2117  143.3890  157.3164 C   0  0  0  0  0  0  0  0  0  0  0  0
  144.0944  144.1833  157.2384 C   0  0  0  0  0  0  0  0  0  0  0  0
  143.6491  144.8342  158.7918 S   0  0  0  0  0  0  0  0  0  0  0  0
  145.0144  143.9845  159.5074 C   0  0  0  0  0  0  0  0  0  0  0  0
  145.3627  144.0648  160.9598 C   0  0  0  0  0  0  0  0  0  0  0  0
  146.7433  144.7000  161.1834 C   0  0  0  0  0  0  0  0  0  0  0  0
  145.1984  142.7135  161.6699 C   0  0  0  0  0  0  0  0  0  0  0  0
  145.7102  143.2702  158.6184 N   0  0  0  0  0  0  0  0  0  0  0  0
  153.3274  143.1230  160.6950 H   0  0  0  0  0  0  0  0  0  0  0  0
  151.7418  142.4763  160.2820 H   0  0  0  0  0  0  0  0  0  0  0  0
  151.8755  143.8992  161.3144 H   0  0  0  0  0  0  0  0  0  0  0  0
  152.8427  145.2016  159.3922 H   0  0  0  0  0  0  0  0  0  0  0  0
  152.7704  143.7833  158.3814 H   0  0  0  0  0  0  0  0  0  0  0  0
  150.1871  144.7199  159.6232 H   0  0  0  0  0  0  0  0  0  0  0  0
  150.8520  145.6692  158.3154 H   0  0  0  0  0  0  0  0  0  0  0  0
  150.0386  144.0096  156.9160 H   0  0  0  0  0  0  0  0  0  0  0  0
  149.2543  140.5346  157.3301 H   0  0  0  0  0  0  0  0  0  0  0  0
  151.4316  140.9781  156.1465 H   0  0  0  0  0  0  0  0  0  0  0  0
  150.7640  142.4479  155.4387 H   0  0  0  0  0  0  0  0  0  0  0  0
  150.1103  140.8753  154.9941 H   0  0  0  0  0  0  0  0  0  0  0  0
  148.4184  143.0626  155.9708 H   0  0  0  0  0  0  0  0  0  0  0  0
  146.3350  143.4209  155.4841 H   0  0  0  0  0  0  0  0  0  0  0  0
  145.1925  142.1027  155.6019 H   0  0  0  0  0  0  0  0  0  0  0  0
  143.5163  144.4359  156.3620 H   0  0  0  0  0  0  0  0  0  0  0  0
  144.6360  144.7407  161.4124 H   0  0  0  0  0  0  0  0  0  0  0  0
  146.7965  145.6916  160.7328 H   0  0  0  0  0  0  0  0  0  0  0  0
  147.5354  144.0932  160.7432 H   0  0  0  0  0  0  0  0  0  0  0  0
  146.9591  144.8074  162.2466 H   0  0  0  0  0  0  0  0  0  0  0  0
  144.1844  142.3297  161.5525 H   0  0  0  0  0  0  0  0  0  0  0  0
  145.3951  142.8052  162.7384 H   0  0  0  0  0  0  0  0  0  0  0  0
  145.8859  141.9685  161.2683 H   0  0  0  0  0  0  0  0  0  0  0  0
  1  2  1  0  0  0  0
  1 21  1  0  0  0  0
  1 22  1  0  0  0  0
  1 23  1  0  0  0  0
  2  3  1  0  0  0  0
  2 24  1  0  0  0  0
  2 25  1  0  0  0  0
  3  4  1  0  0  0  0
  3 26  1  0  0  0  0
  3 27  1  0  0  0  0
  4  5  1  0  0  0  0
  4 28  1  0  0  0  0
  5  6  2  0  0  0  0
  5  7  1  0  0  0  0
  7  8  1  0  0  0  0
  7  9  1  0  0  0  0
  7 29  1  0  0  0  0
  8 30  1  0  0  0  0
  8 31  1  0  0  0  0
  8 32  1  0  0  0  0
  9 10  1  0  0  0  0
  9 33  1  0  0  0  0
 10 11  2  0  0  0  0
 10 12  1  0  0  0  0
 12 13  1  0  0  0  0
 12 34  1  0  0  0  0
 12 35  1  0  0  0  0
 13 20  1  0  0  0  0
 13 14  2  0  0  0  0
 14 15  1  0  0  0  0
 14 36  1  0  0  0  0
 15 16  1  0  0  0  0
 16 17  1  0  0  0  0
 16 20  2  0  0  0  0
 17 18  1  0  0  0  0
 17 19  1  0  0  0  0
 17 37  1  0  0  0  0
 18 38  1  0  0  0  0
 18 39  1  0  0  0  0
 18 40  1  0  0  0  0
 19 41  1  0  0  0  0
 19 42  1  0  0  0  0
 19 43  1  0  0  0  0
M  END
> <s_m_source_file>
AV-unprocessed.smi

> <i_m_source_file_index>
1336

> <i_lp_mmshare_version>
43012

> <i_f3d_flags>
0

> <s_epik_input>
W0NIM11bQ0gyXVtDSDJdW05IXUMoPU8pW0NASF0oW0NIM10pW05IXUMoPU8pW0NIMl1jMVtjSF1zYyhuMSlbQ0hdKFtDSDNdKVtDSDNd

> <s_epik_cmdline>
J2VwaWtfcHl0aG9uJywgJy1waCcsICc3LjAnLCAnLXRuJywgJzgnLCAnLW1hJywgJzIwMCcsICctbWV0YWxfYmluZGluZycsICctaW1hZScsICc8aW5maWxlLm1hZT4nLCAnLW9tYWUnLCAnPG91dGZpbGUubWFlPic=

> <r_lp_tautomer_probability>
1

> <r_epik_Ionization_Penalty>
3.10785e-05

> <r_epik_Ionization_Penalty_Charging>
0

> <r_epik_Ionization_Penalty_Neutral>
3.10785e-05

> <r_epik_State_Penalty>
-0

> <r_epik_Charging_Adjusted_Penalty>
0

> <i_epik_Tot_Q>
0

> <i_epik_Tot_abs_Q>
0

> <r_epik_Metal_State_Penalty>
-0

> <b_epik_Metal_Only>
0

> <s_lp_Force_Field>
OPLS_2005

> <r_lp_Energy>
-3.8093

> <b_lp_Chiralities_Consistent>
1

> <s_lp_Variant>
AV-unprocessed.smi:1336-1

> <Gold.Version>
5.8.1

> <Gold.Id.Protein>
6NUR|6NUR_protein|mol2

> <Gold.PLP.Fitness>
43.1848

> <Gold.PLP.PLP>
-38.6903

> <Gold.PLP.part.hbond>
-2.5349

> <Gold.PLP.part.metal>
0.0000

> <Gold.PLP.part.buried>
-6.3678

> <Gold.PLP.part.nonpolar>
-29.7775

> <Gold.PLP.part.repulsive>
0.1730

> <Gold.PLP.ligand.clash>
0.0000

> <Gold.PLP.ligand.torsion>
0.6773

> <Gold.PLP.Chemscore.Hbond>
1.8960

> <Gold.PLP.Chemscore.CHOScore>
0.0000

> <Gold.PLP.Chemscore.Metal>
0.0000

> <Gold.Chemscore.Hbonds>
donor molecule, donor type, donor heavy atom, donor atom, acceptor molecule, acceptor atom, score
      L1  H     4    28       P1  8028  1.00
      L1  H     9    33       P1  8028  1.00

> <Gold.PLP.Chemscore.Internal.Correction>
0.1612

> <Gold.Rescore>
     Score         DG    S(hbond)    S(metal)    S(lipo)     H(rot)  DE(clash)    DE(int)     intcor
     14.66     -16.69       1.90        0.00      86.21       2.04       0.06       1.98       ----

> <Gold.Chemscore.Fitness>
14.6586

> <Gold.Chemscore.DG>
-16.6907

> <Gold.Chemscore.ZeroCoef>
-5.4800

> <Gold.Chemscore.Hbond>
1.8967

> <Gold.Chemscore.Metal>
0.0000

> <Gold.Chemscore.Lipo>
86.2062

> <Gold.Chemscore.Internal_Hbond>
0.0000

> <Gold.Chemscore.DEClash>
0.0569

> <Gold.Chemscore.DEInternal>
1.9752

> <Gold.Chemscore.Rot>
2.0353

> <Gold.Chemscore.Internal.Correction>
   9.000000E+99

> <Gold.Chemscore.Hbonds>
donor molecule, donor type, donor heavy atom, donor atom, acceptor molecule, acceptor atom, score
      L1  H     4    28       P1  8028  0.94
      L1  H     9    33       P1  8028  0.94

> <Gold.Chemscore.Hbond.Weighted>
-6.3350

> <Gold.Chemscore.Metal.Weighted>
-0.0000

> <Gold.Chemscore.Lipo.Weighted>
-10.0861

> <Gold.Chemscore.Internal_Hbond.Weighted>
0.0000

> <Gold.Chemscore.DEClash.Weighted>
0.0569

> <Gold.Chemscore.DEInternal.Weighted>
1.9752

> <Gold.Chemscore.Rot.Weighted>
5.2104

> <Gold.Chemscore.Internal.Correction.Weighted>
   9.000000E+99

> <Gold.Protein.RotatedTorsions>
[ 6907 6896 6895 6894 ] final  133.90 input  -60.11 | X-H torsion
[ 7974 7965 7964 7962 ] final   99.63 input  175.53 | X-H torsion
[ 8008 7997 7996 7995 ] final  149.35 input   59.86 | X-H torsion
[ 10167 10162 10161 10158 ] final  121.74 input  -65.29 | X-H torsion
[ 10718 10713 10712 10709 ] final   46.85 input   66.30 | X-H torsion
[ 10763 10752 10751 10750 ] final   75.53 input  -60.55 | X-H torsion
[ 11005 11000 10999 10996 ] final  139.82 input  -57.11 | X-H torsion

> <Gold.Protein.ActiveResidues>
 VAL166  LYS551  ARG553  GLY616  TRP617  ASP618  TYR619  PRO620  LYS621  CYS622 
 ASP623  PHE694  ASN695  SER759  ASP760  ASP761  ALA762  ILE779  LEU786  VAL792 
 PHE793  MET794  SER795  GLU796  ALA797  LYS798  CYS799  TRP800  GLU811  SER814 

> <Gold.Protein.RotatedAtoms>
  152.3171  133.5814  159.5719 H   0  0  0  0  0  0  0  0  0  0  0  0  # atno 6907 bound_to 6896
  150.7352  134.0067  159.3665 H   0  0  0  0  0  0  0  0  0  0  0  0  # atno 6908 bound_to 6896
  151.7954  135.0724  160.0444 H   0  0  0  0  0  0  0  0  0  0  0  0  # atno 6909 bound_to 6896
  145.3963  139.2354  143.3324 H   0  0  0  0  0  0  0  0  0  0  0  0  # atno 7974 bound_to 7965
  156.2758  140.2104  156.5843 H   0  0  0  0  0  0  0  0  0  0  0  0  # atno 8008 bound_to 7997
  154.7033  140.0519  157.0502 H   0  0  0  0  0  0  0  0  0  0  0  0  # atno 8009 bound_to 7997
  155.0705  140.3176  155.4635 H   0  0  0  0  0  0  0  0  0  0  0  0  # atno 8010 bound_to 7997
  139.5901  144.7022  151.3311 H   0  0  0  0  0  0  0  0  0  0  0  0  # atno 10167 bound_to 10162
  157.4524  130.8146  149.7801 H   0  0  0  0  0  0  0  0  0  0  0  0  # atno 10718 bound_to 10713
  153.0661  135.4985  154.8203 H   0  0  0  0  0  0  0  0  0  0  0  0  # atno 10763 bound_to 10752
  154.6955  135.2992  154.9420 H   0  0  0  0  0  0  0  0  0  0  0  0  # atno 10764 bound_to 10752
  154.0160  135.6748  153.4821 H   0  0  0  0  0  0  0  0  0  0  0  0  # atno 10765 bound_to 10752
  140.0282  134.9364  157.0611 H   0  0  0  0  0  0  0  0  0  0  0  0  # atno 11005 bound_to 11000
  146.2773  140.4654  142.8790 LP  0  0  0  0  0  0  0  0  0  0  0  0  # atno 17320 bound_to 7965
  144.8405  140.6849  143.6233 LP  0  0  0  0  0  0  0  0  0  0  0  0  # atno 17321 bound_to 7965
  140.7165  143.7251  150.7666 LP  0  0  0  0  0  0  0  0  0  0  0  0  # atno 17342 bound_to 10162
  140.0804  143.4974  152.2533 LP  0  0  0  0  0  0  0  0  0  0  0  0  # atno 17343 bound_to 10162
  155.9992  130.3890  150.2671 LP  0  0  0  0  0  0  0  0  0  0  0  0  # atno 17370 bound_to 10713
  157.0843  131.0152  151.3145 LP  0  0  0  0  0  0  0  0  0  0  0  0  # atno 17371 bound_to 10713
  140.4270  134.1821  155.7166 LP  0  0  0  0  0  0  0  0  0  0  0  0  # atno 17394 bound_to 11000
  141.1816  133.8403  157.1239 LP  0  0  0  0  0  0  0  0  0  0  0  0  # atno 17395 bound_to 11000

$$$$
