AV-unprocessed.smi:3031|AV-procd|sdf|11549|dock8
  -GOLD-   2272016503D 1   1.00000     0.00000
 Structure written by MMmdl.
 48 49  0  0  0  0  0  0  0  0  3 V2000
  145.0709  131.4314  150.5043 C   0  0  0  0  0  0  0  0  0  0  0  0
  144.8382  132.6987  151.2756 C   0  0  0  0  0  0  0  0  0  0  0  0
  145.7585  133.3947  152.1091 C   0  0  0  0  0  0  0  0  0  0  0  0
  145.2377  134.4832  152.6517 N   0  0  0  0  0  0  0  0  0  0  0  0
  143.9731  134.5257  152.1802 N   0  0  0  0  0  0  0  0  0  0  0  0
  143.0777  135.5965  152.5882 C   0  0  0  0  0  0  0  0  0  0  0  0
  141.9046  135.1063  153.4624 C   0  0  2  0  0  0  0  0  0  0  0  0
  140.9548  136.2658  153.8033 C   0  0  0  0  0  0  0  0  0  0  0  0
  142.4211  134.4640  154.6928 N   0  3  0  0  0  0  0  0  0  0  0  0
  143.5146  135.1907  155.3733 C   0  0  0  0  0  0  0  0  0  0  0  0
  143.9180  134.4913  156.6831 C   0  0  2  0  0  0  0  0  0  0  0  0
  143.1614  133.3015  156.8053 O   0  0  0  0  0  0  0  0  0  0  0  0
  143.6403  135.3765  157.9166 C   0  0  0  0  0  0  0  0  0  0  0  0
  142.5010  134.8855  158.7351 N   0  3  0  0  0  0  0  0  0  0  0  0
  142.8935  133.9047  159.7784 C   0  0  0  0  0  0  0  0  0  0  0  0
  141.6567  133.4214  160.5557 C   0  0  0  0  0  0  0  0  0  0  0  0
  140.9833  134.5375  161.1231 O   0  0  0  0  0  0  0  0  0  0  0  0
  140.5212  135.4414  160.1277 C   0  0  0  0  0  0  0  0  0  0  0  0
  141.7196  135.9929  159.3366 C   0  0  0  0  0  0  0  0  0  0  0  0
  143.7022  133.4530  151.3569 C   0  0  0  0  0  0  0  0  0  0  0  0
  144.8403  130.5499  151.1028 H   0  0  0  0  0  0  0  0  0  0  0  0
  146.1084  131.3392  150.1825 H   0  0  0  0  0  0  0  0  0  0  0  0
  144.4522  131.3828  149.6079 H   0  0  0  0  0  0  0  0  0  0  0  0
  146.7835  133.1409  152.3364 H   0  0  0  0  0  0  0  0  0  0  0  0
  143.6594  136.3488  153.1231 H   0  0  0  0  0  0  0  0  0  0  0  0
  142.6996  136.0784  151.6856 H   0  0  0  0  0  0  0  0  0  0  0  0
  141.3437  134.3638  152.8929 H   0  0  0  0  0  0  0  0  0  0  0  0
  140.5914  136.7500  152.8962 H   0  0  0  0  0  0  0  0  0  0  0  0
  141.4545  137.0255  154.4053 H   0  0  0  0  0  0  0  0  0  0  0  0
  140.0800  135.9232  154.3558 H   0  0  0  0  0  0  0  0  0  0  0  0
  141.6528  134.4127  155.3470 H   0  0  0  0  0  0  0  0  0  0  0  0
  144.3742  135.2362  154.7044 H   0  0  0  0  0  0  0  0  0  0  0  0
  143.2103  136.2196  155.5722 H   0  0  0  0  0  0  0  0  0  0  0  0
  144.9753  134.2320  156.6316 H   0  0  0  0  0  0  0  0  0  0  0  0
  142.2552  133.4923  156.6124 H   0  0  0  0  0  0  0  0  0  0  0  0
  144.5280  135.4447  158.5476 H   0  0  0  0  0  0  0  0  0  0  0  0
  143.4345  136.3926  157.5751 H   0  0  0  0  0  0  0  0  0  0  0  0
  143.3925  133.0460  159.3308 H   0  0  0  0  0  0  0  0  0  0  0  0
  143.6052  134.3650  160.4658 H   0  0  0  0  0  0  0  0  0  0  0  0
  140.9801  132.8634  159.9063 H   0  0  0  0  0  0  0  0  0  0  0  0
  141.9574  132.7464  161.3571 H   0  0  0  0  0  0  0  0  0  0  0  0
  139.8124  134.9422  159.4650 H   0  0  0  0  0  0  0  0  0  0  0  0
  139.9836  136.2568  160.6125 H   0  0  0  0  0  0  0  0  0  0  0  0
  142.3629  136.5812  159.9932 H   0  0  0  0  0  0  0  0  0  0  0  0
  141.3612  136.6625  158.5533 H   0  0  0  0  0  0  0  0  0  0  0  0
  142.7334  133.3155  150.8992 H   0  0  0  0  0  0  0  0  0  0  0  0
  142.7188  133.5235  154.4766 H   0  0  0  0  0  0  0  0  0  0  0  0
  141.8736  134.4107  158.1009 H   0  0  0  0  0  0  0  0  0  0  0  0
  1  2  1  0  0  0  0
  1 21  1  0  0  0  0
  1 22  1  0  0  0  0
  1 23  1  0  0  0  0
  2 20  2  0  0  0  0
  2  3  1  0  0  0  0
  3  4  2  0  0  0  0
  3 24  1  0  0  0  0
  4  5  1  0  0  0  0
  5  6  1  0  0  0  0
  5 20  1  0  0  0  0
  6  7  1  0  0  0  0
  6 25  1  0  0  0  0
  6 26  1  0  0  0  0
  7  8  1  0  0  0  0
  7  9  1  0  0  0  0
  7 27  1  0  0  0  0
  8 28  1  0  0  0  0
  8 29  1  0  0  0  0
  8 30  1  0  0  0  0
  9 10  1  0  0  0  0
  9 31  1  0  0  0  0
  9 47  1  0  0  0  0
 10 11  1  0  0  0  0
 10 32  1  0  0  0  0
 10 33  1  0  0  0  0
 11 12  1  0  0  0  0
 11 13  1  0  0  0  0
 11 34  1  0  0  0  0
 12 35  1  0  0  0  0
 13 14  1  0  0  0  0
 13 36  1  0  0  0  0
 13 37  1  0  0  0  0
 14 19  1  0  0  0  0
 14 15  1  0  0  0  0
 14 48  1  0  0  0  0
 15 16  1  0  0  0  0
 15 38  1  0  0  0  0
 15 39  1  0  0  0  0
 16 17  1  0  0  0  0
 16 40  1  0  0  0  0
 16 41  1  0  0  0  0
 17 18  1  0  0  0  0
 18 19  1  0  0  0  0
 18 42  1  0  0  0  0
 18 43  1  0  0  0  0
 19 44  1  0  0  0  0
 19 45  1  0  0  0  0
 20 46  1  0  0  0  0
M  CHG  1   9   1
M  CHG  1  14   1
M  END
> <s_m_source_file>
AV-unprocessed.smi

> <i_m_source_file_index>
3031

> <i_lp_mmshare_version>
43012

> <i_f3d_flags>
0

> <s_epik_input>
W0NIM11jMVtjSF1ubihbY0hdMSlbQ0gyXVtDQEhdKFtDSDNdKVtOSF1bQ0gyXVtDQEhdKFtPSF0pW0NIMl1OMltDSDJdW0NIMl1PW0NIMl1bQ0gyXTI=

> <s_epik_cmdline>
J2VwaWtfcHl0aG9uJywgJy1waCcsICc3LjAnLCAnLXRuJywgJzgnLCAnLW1hJywgJzIwMCcsICctbWV0YWxfYmluZGluZycsICctaW1hZScsICc8aW5maWxlLm1hZT4nLCAnLW9tYWUnLCAnPG91dGZpbGUubWFlPic=

> <r_lp_tautomer_probability>
1

> <r_epik_Ionization_Penalty>
1.76542

> <r_epik_Ionization_Penalty_Charging>
1.76348

> <r_epik_Ionization_Penalty_Neutral>
0.00194017

> <r_epik_State_Penalty>
1.49348

> <r_epik_Charging_Adjusted_Penalty>
3.25696

> <i_epik_Tot_Q>
2

> <i_epik_Tot_abs_Q>
2

> <r_epik_Metal_State_Penalty>
1.49349

> <b_epik_Metal_Only>
0

> <s_lp_Force_Field>
OPLS_2005

> <r_lp_Energy>
27.3319

> <b_lp_Chiralities_Consistent>
1

> <s_lp_Variant>
AV-unprocessed.smi:3031-9

> <Gold.Version>
5.8.1

> <Gold.Id.Protein>
6NUR|6NUR_protein|mol2

> <Gold.PLP.Fitness>
44.7205

> <Gold.PLP.PLP>
-30.7008

> <Gold.PLP.part.hbond>
-5.0000

> <Gold.PLP.part.metal>
0.0000

> <Gold.PLP.part.buried>
-6.6272

> <Gold.PLP.part.nonpolar>
-19.2808

> <Gold.PLP.part.repulsive>
0.1207

> <Gold.PLP.ligand.clash>
0.0000

> <Gold.PLP.ligand.torsion>
2.0222

> <Gold.PLP.Chemscore.Hbond>
4.9840

> <Gold.PLP.Chemscore.CHOScore>
1.0000

> <Gold.PLP.Chemscore.Metal>
0.0000

> <Gold.Chemscore.Hbonds>
donor molecule, donor type, donor heavy atom, donor atom, acceptor molecule, acceptor atom, score
      L1  H     9    31       P1 11000  1.00
      L1  H     9    47       P1 10957  1.98
      L1  H    12    35       P1 11000  1.00
      L1  H    14    48       P1 11000  0.96
      L1  C    20    46       P1 10186  1.00

> <Gold.PLP.Chemscore.Internal.Correction>
0.1121

> <Gold.Rescore>
     Score         DG    S(hbond)    S(metal)    S(lipo)     H(rot)  DE(clash)    DE(int)     intcor
     12.58     -14.63       2.59        0.00      64.23       2.74       0.03       2.02       ----

> <Gold.Chemscore.Fitness>
12.5774

> <Gold.Chemscore.DG>
-14.6298

> <Gold.Chemscore.ZeroCoef>
-5.4800

> <Gold.Chemscore.Hbond>
2.5923

> <Gold.Chemscore.Metal>
0.0000

> <Gold.Chemscore.Lipo>
64.2272

> <Gold.Chemscore.Internal_Hbond>
0.0000

> <Gold.Chemscore.DEClash>
0.0279

> <Gold.Chemscore.DEInternal>
2.0245

> <Gold.Chemscore.Rot>
2.7434

> <Gold.Chemscore.Internal.Correction>
   9.000000E+99

> <Gold.Chemscore.Hbonds>
donor molecule, donor type, donor heavy atom, donor atom, acceptor molecule, acceptor atom, score
      L1  H     9    31       P1 11000  0.26
      L1  H     9    47       P1 10957  0.94
      L1  H    12    35       P1 11000  0.94
      L1  H    14    48       P1 11000  0.23

> <Gold.Chemscore.Hbond.Weighted>
-8.6583

> <Gold.Chemscore.Metal.Weighted>
-0.0000

> <Gold.Chemscore.Lipo.Weighted>
-7.5146

> <Gold.Chemscore.Internal_Hbond.Weighted>
0.0000

> <Gold.Chemscore.DEClash.Weighted>
0.0279

> <Gold.Chemscore.DEInternal.Weighted>
2.0245

> <Gold.Chemscore.Rot.Weighted>
7.0231

> <Gold.Chemscore.Internal.Correction.Weighted>
   9.000000E+99

> <Gold.Protein.RotatedTorsions>
[ 6907 6896 6895 6894 ] final   44.88 input  -60.11 | X-H torsion
[ 7974 7965 7964 7962 ] final -155.35 input  175.53 | X-H torsion
[ 8008 7997 7996 7995 ] final -121.87 input   59.86 | X-H torsion
[ 10167 10162 10161 10158 ] final  -41.77 input  -65.29 | X-H torsion
[ 10718 10713 10712 10709 ] final  156.33 input   66.30 | X-H torsion
[ 10763 10752 10751 10750 ] final   76.69 input  -60.55 | X-H torsion
[ 11005 11000 10999 10996 ] final  117.13 input  -57.11 | X-H torsion

> <Gold.Protein.ActiveResidues>
 VAL166  LYS551  ARG553  GLY616  TRP617  ASP618  TYR619  PRO620  LYS621  CYS622 
 ASP623  PHE694  ASN695  SER759  ASP760  ASP761  ALA762  ILE779  LEU786  VAL792 
 PHE793  MET794  SER795  GLU796  ALA797  LYS798  CYS799  TRP800  GLU811  SER814 

> <Gold.Protein.RotatedAtoms>
  152.2378  134.8258  160.0464 H   0  0  0  0  0  0  0  0  0  0  0  0  # atno 6907 bound_to 6896
  151.8984  133.3527  159.3830 H   0  0  0  0  0  0  0  0  0  0  0  0  # atno 6908 bound_to 6896
  150.7044  134.4779  159.5500 H   0  0  0  0  0  0  0  0  0  0  0  0  # atno 6909 bound_to 6896
  144.7644  140.4262  143.5952 H   0  0  0  0  0  0  0  0  0  0  0  0  # atno 7974 bound_to 7965
  155.1550  140.0404  157.2829 H   0  0  0  0  0  0  0  0  0  0  0  0  # atno 8008 bound_to 7997
  154.6377  140.2539  155.7332 H   0  0  0  0  0  0  0  0  0  0  0  0  # atno 8009 bound_to 7997
  156.2517  140.2862  156.0757 H   0  0  0  0  0  0  0  0  0  0  0  0  # atno 8010 bound_to 7997
  140.6991  143.3075  151.3114 H   0  0  0  0  0  0  0  0  0  0  0  0  # atno 10167 bound_to 10162
  157.2064  131.0688  151.1995 H   0  0  0  0  0  0  0  0  0  0  0  0  # atno 10718 bound_to 10713
  153.0743  135.4942  154.8372 H   0  0  0  0  0  0  0  0  0  0  0  0  # atno 10763 bound_to 10752
  154.7066  135.3012  154.9263 H   0  0  0  0  0  0  0  0  0  0  0  0  # atno 10764 bound_to 10752
  153.9970  135.6771  153.4810 H   0  0  0  0  0  0  0  0  0  0  0  0  # atno 10765 bound_to 10752
  139.9064  134.9606  156.7303 H   0  0  0  0  0  0  0  0  0  0  0  0  # atno 11005 bound_to 11000
  145.6515  139.1566  143.2859 LP  0  0  0  0  0  0  0  0  0  0  0  0  # atno 17320 bound_to 7965
  146.1739  140.6603  142.9220 LP  0  0  0  0  0  0  0  0  0  0  0  0  # atno 17321 bound_to 7965
  139.6486  144.0404  152.2609 LP  0  0  0  0  0  0  0  0  0  0  0  0  # atno 17342 bound_to 10162
  139.9933  144.6346  150.7795 LP  0  0  0  0  0  0  0  0  0  0  0  0  # atno 17343 bound_to 10162
  157.3716  130.7184  149.6568 LP  0  0  0  0  0  0  0  0  0  0  0  0  # atno 17370 bound_to 10713
  155.9695  130.4197  150.4389 LP  0  0  0  0  0  0  0  0  0  0  0  0  # atno 17371 bound_to 10713
  140.6930  133.9373  155.7978 LP  0  0  0  0  0  0  0  0  0  0  0  0  # atno 17394 bound_to 11000
  141.0428  134.0597  157.3881 LP  0  0  0  0  0  0  0  0  0  0  0  0  # atno 17395 bound_to 11000

$$$$
