AV-unprocessed.smi:531|AV-procd|sdf|2847|dock1
  -GOLD-   2262023333D 1   1.00000     0.00000
 Structure written by MMmdl.
 45 47  0  0  0  0  0  0  0  0  2 V2000
  146.7592  140.5955  153.8522 C   0  0  0  0  0  0  0  0  0  0  0  0
  147.3013  141.9643  154.2699 C   0  0  0  0  0  0  0  0  0  0  0  0
  148.7132  141.8874  154.3420 O   0  0  0  0  0  0  0  0  0  0  0  0
  149.1799  141.3711  155.5771 C   0  0  0  0  0  0  0  0  0  0  0  0
  150.5005  142.0565  155.9547 C   0  0  0  0  0  0  0  0  0  0  0  0
  151.3105  141.2203  156.8405 N   0  0  0  0  0  0  0  0  0  0  0  0
  151.8134  141.5401  158.0648 C   0  0  0  0  0  0  0  0  0  0  0  0
  151.6365  142.7989  158.6436 N   0  0  0  0  0  0  0  0  0  0  0  0
  151.1235  143.0672  159.9877 C   0  0  0  0  0  0  0  0  0  0  0  0
  152.0258  144.0509  160.7545 C   0  0  0  0  0  0  0  0  0  0  0  0
  152.1607  145.3690  159.9798 C   0  0  0  0  0  0  0  0  0  0  0  0
  152.5907  145.0859  158.5336 C   0  0  0  0  0  0  0  0  0  0  0  0
  151.6620  144.0461  157.8809 C   0  0  0  0  0  0  0  0  0  0  0  0
  152.4433  140.5414  158.6855 N   0  0  0  0  0  0  0  0  0  0  0  0
  152.3569  139.5021  157.7731 C   0  0  0  0  0  0  0  0  0  0  0  0
  151.6739  139.8793  156.6586 C   0  0  0  0  0  0  0  0  0  0  0  0
  151.3833  138.9654  155.5286 C   0  0  0  0  0  0  0  0  0  0  0  0
  150.7448  139.3422  154.5484 O   0  0  0  0  0  0  0  0  0  0  0  0
  151.8974  137.7112  155.7310 N   0  5  0  0  0  0  0  0  0  0  0  0
  152.5972  137.2910  156.8409 C   0  0  0  0  0  0  0  0  0  0  0  0
  153.0187  136.1383  156.9459 O   0  0  0  0  0  0  0  0  0  0  0  0
  152.8372  138.1675  157.8657 N   0  0  0  0  0  0  0  0  0  0  0  0
  153.5742  137.7472  159.0611 C   0  0  0  0  0  0  0  0  0  0  0  0
  145.6712  140.6093  153.7876 H   0  0  0  0  0  0  0  0  0  0  0  0
  147.0429  139.8274  154.5723 H   0  0  0  0  0  0  0  0  0  0  0  0
  147.1498  140.3010  152.8779 H   0  0  0  0  0  0  0  0  0  0  0  0
  147.0015  142.7234  153.5459 H   0  0  0  0  0  0  0  0  0  0  0  0
  146.8896  142.2477  155.2396 H   0  0  0  0  0  0  0  0  0  0  0  0
  148.4376  141.5377  156.3588 H   0  0  0  0  0  0  0  0  0  0  0  0
  149.3318  140.2939  155.4955 H   0  0  0  0  0  0  0  0  0  0  0  0
  151.0659  142.3096  155.0615 H   0  0  0  0  0  0  0  0  0  0  0  0
  150.3000  143.0144  156.4239 H   0  0  0  0  0  0  0  0  0  0  0  0
  150.1195  143.4845  159.8993 H   0  0  0  0  0  0  0  0  0  0  0  0
  151.0032  142.1376  160.5423 H   0  0  0  0  0  0  0  0  0  0  0  0
  151.6147  144.2415  161.7460 H   0  0  0  0  0  0  0  0  0  0  0  0
  153.0121  143.6118  160.9061 H   0  0  0  0  0  0  0  0  0  0  0  0
  151.2033  145.8913  159.9792 H   0  0  0  0  0  0  0  0  0  0  0  0
  152.8781  146.0280  160.4696 H   0  0  0  0  0  0  0  0  0  0  0  0
  152.5844  146.0097  157.9544 H   0  0  0  0  0  0  0  0  0  0  0  0
  153.6171  144.7175  158.5201 H   0  0  0  0  0  0  0  0  0  0  0  0
  152.0017  143.8449  156.8643 H   0  0  0  0  0  0  0  0  0  0  0  0
  150.6482  144.4400  157.7976 H   0  0  0  0  0  0  0  0  0  0  0  0
  154.5501  137.3418  158.7898 H   0  0  0  0  0  0  0  0  0  0  0  0
  153.0199  136.9747  159.5958 H   0  0  0  0  0  0  0  0  0  0  0  0
  153.7488  138.5665  159.7580 H   0  0  0  0  0  0  0  0  0  0  0  0
  1  2  1  0  0  0  0
  1 24  1  0  0  0  0
  1 25  1  0  0  0  0
  1 26  1  0  0  0  0
  2  3  1  0  0  0  0
  2 27  1  0  0  0  0
  2 28  1  0  0  0  0
  3  4  1  0  0  0  0
  4  5  1  0  0  0  0
  4 29  1  0  0  0  0
  4 30  1  0  0  0  0
  5  6  1  0  0  0  0
  5 31  1  0  0  0  0
  5 32  1  0  0  0  0
  6 16  1  0  0  0  0
  6  7  1  0  0  0  0
  7  8  1  0  0  0  0
  7 14  2  0  0  0  0
  8 13  1  0  0  0  0
  8  9  1  0  0  0  0
  9 10  1  0  0  0  0
  9 33  1  0  0  0  0
  9 34  1  0  0  0  0
 10 11  1  0  0  0  0
 10 35  1  0  0  0  0
 10 36  1  0  0  0  0
 11 12  1  0  0  0  0
 11 37  1  0  0  0  0
 11 38  1  0  0  0  0
 12 13  1  0  0  0  0
 12 39  1  0  0  0  0
 12 40  1  0  0  0  0
 13 41  1  0  0  0  0
 13 42  1  0  0  0  0
 14 15  1  0  0  0  0
 15 22  1  0  0  0  0
 15 16  2  0  0  0  0
 16 17  1  0  0  0  0
 17 18  2  0  0  0  0
 17 19  1  0  0  0  0
 19 20  1  0  0  0  0
 20 21  2  0  0  0  0
 20 22  1  0  0  0  0
 22 23  1  0  0  0  0
 23 43  1  0  0  0  0
 23 44  1  0  0  0  0
 23 45  1  0  0  0  0
M  CHG  1  19  -1
M  END
> <s_m_source_file>
AV-unprocessed.smi

> <i_m_source_file_index>
531

> <i_lp_mmshare_version>
43012

> <i_f3d_flags>
0

> <s_epik_input>
W0NIM11uMWMoPU8pW25IXWMoPU8pYyhjMTIpbihbQ0gyXVtDSDJdT1tDSDJdW0NIM10pYyhuMilOM1tDSDJdW0NIMl1bQ0gyXVtDSDJdW0NIMl0z

> <s_epik_cmdline>
J2VwaWtfcHl0aG9uJywgJy1waCcsICc3LjAnLCAnLXRuJywgJzgnLCAnLW1hJywgJzIwMCcsICctbWV0YWxfYmluZGluZycsICctaW1hZScsICc8aW5maWxlLm1hZT4nLCAnLW9tYWUnLCAnPG91dGZpbGUubWFlPic=

> <r_lp_tautomer_probability>
1

> <r_epik_Ionization_Penalty>
5.10252

> <r_epik_Ionization_Penalty_Charging>
0.0734613

> <r_epik_Ionization_Penalty_Neutral>
5.02906

> <r_epik_State_Penalty>
5.02576

> <r_epik_Charging_Adjusted_Penalty>
5.09922

> <i_epik_Tot_Q>
-1

> <i_epik_Tot_abs_Q>
1

> <r_epik_Metal_State_Penalty>
1.13821

> <b_epik_Metal_Only>
1

> <s_lp_Force_Field>
OPLS_2005

> <r_lp_Energy>
41.0851

> <b_lp_Chiralities_Consistent>
1

> <s_lp_Variant>
AV-unprocessed.smi:531-2

> <Gold.Version>
5.8.1

> <Gold.Id.Protein>
6NUR|6NUR_protein|mol2

> <Gold.PLP.Fitness>
49.6596

> <Gold.PLP.PLP>
-43.6697

> <Gold.PLP.part.hbond>
-3.8707

> <Gold.PLP.part.metal>
0.0000

> <Gold.PLP.part.buried>
-4.9502

> <Gold.PLP.part.nonpolar>
-35.1618

> <Gold.PLP.part.repulsive>
0.3536

> <Gold.PLP.ligand.clash>
0.0000

> <Gold.PLP.ligand.torsion>
1.2535

> <Gold.PLP.Chemscore.Hbond>
2.6080

> <Gold.PLP.Chemscore.CHOScore>
0.0000

> <Gold.PLP.Chemscore.Metal>
0.0000

> <Gold.Chemscore.Hbonds>
donor molecule, donor type, donor heavy atom, donor atom, acceptor molecule, acceptor atom, score
      P1  H  7989  7998       L1    18  0.94
      P1  H  8011  8017       L1     3  0.11
      P1  H 10752 10764       L1    21  0.99

> <Gold.PLP.Chemscore.Internal.Correction>
0.6730

> <Gold.Rescore>
     Score         DG    S(hbond)    S(metal)    S(lipo)     H(rot)  DE(clash)    DE(int)     intcor
     16.03     -20.38       2.29        0.00      96.72       1.59       0.56       3.79       ----

> <Gold.Chemscore.Fitness>
16.0347

> <Gold.Chemscore.DG>
-20.3790

> <Gold.Chemscore.ZeroCoef>
-5.4800

> <Gold.Chemscore.Hbond>
2.2928

> <Gold.Chemscore.Metal>
0.0000

> <Gold.Chemscore.Lipo>
96.7239

> <Gold.Chemscore.Internal_Hbond>
0.0000

> <Gold.Chemscore.DEClash>
0.5567

> <Gold.Chemscore.DEInternal>
3.7876

> <Gold.Chemscore.Rot>
1.5920

> <Gold.Chemscore.Internal.Correction>
   9.000000E+99

> <Gold.Chemscore.Hbonds>
donor molecule, donor type, donor heavy atom, donor atom, acceptor molecule, acceptor atom, score
      P1  H  7989  7998       L1    18  0.82
      P1  H  8011  8017       L1     3  0.10
      P1  H 10752 10764       L1    21  0.90

> <Gold.Chemscore.Hbond.Weighted>
-7.6580

> <Gold.Chemscore.Metal.Weighted>
-0.0000

> <Gold.Chemscore.Lipo.Weighted>
-11.3167

> <Gold.Chemscore.Internal_Hbond.Weighted>
0.0000

> <Gold.Chemscore.DEClash.Weighted>
0.5567

> <Gold.Chemscore.DEInternal.Weighted>
3.7876

> <Gold.Chemscore.Rot.Weighted>
4.0756

> <Gold.Chemscore.Internal.Correction.Weighted>
   9.000000E+99

> <Gold.Protein.RotatedTorsions>
[ 6907 6896 6895 6894 ] final -156.98 input  -60.11 | X-H torsion
[ 7974 7965 7964 7962 ] final  -73.57 input  175.53 | X-H torsion
[ 8008 7997 7996 7995 ] final -142.26 input   59.86 | X-H torsion
[ 10167 10162 10161 10158 ] final -126.97 input  -65.29 | X-H torsion
[ 10718 10713 10712 10709 ] final  -40.45 input   66.30 | X-H torsion
[ 10763 10752 10751 10750 ] final   18.03 input  -60.55 | X-H torsion
[ 11005 11000 10999 10996 ] final    7.22 input  -57.11 | X-H torsion

> <Gold.Protein.ActiveResidues>
 VAL166  LYS551  ARG553  GLY616  TRP617  ASP618  TYR619  PRO620  LYS621  CYS622 
 ASP623  PHE694  ASN695  SER759  ASP760  ASP761  ALA762  ILE779  LEU786  VAL792 
 PHE793  MET794  SER795  GLU796  ALA797  LYS798  CYS799  TRP800  GLU811  SER814 

> <Gold.Protein.RotatedAtoms>
  151.2959  133.4144  159.2636 H   0  0  0  0  0  0  0  0  0  0  0  0  # atno 6907 bound_to 6896
  151.0237  134.9489  159.8084 H   0  0  0  0  0  0  0  0  0  0  0  0  # atno 6908 bound_to 6896
  152.5330  134.2921  159.9099 H   0  0  0  0  0  0  0  0  0  0  0  0  # atno 6909 bound_to 6896
  145.6505  140.9284  143.0987 H   0  0  0  0  0  0  0  0  0  0  0  0  # atno 7974 bound_to 7965
  155.4912  140.0568  157.2953 H   0  0  0  0  0  0  0  0  0  0  0  0  # atno 8008 bound_to 7997
  154.4622  140.2002  156.0164 H   0  0  0  0  0  0  0  0  0  0  0  0  # atno 8009 bound_to 7997
  156.0911  140.3233  155.7821 H   0  0  0  0  0  0  0  0  0  0  0  0  # atno 8010 bound_to 7997
  139.9658  143.5899  152.2430 H   0  0  0  0  0  0  0  0  0  0  0  0  # atno 10167 bound_to 10162
  156.2812  130.4217  149.8335 H   0  0  0  0  0  0  0  0  0  0  0  0  # atno 10718 bound_to 10713
  153.1285  135.6735  153.9217 H   0  0  0  0  0  0  0  0  0  0  0  0  # atno 10763 bound_to 10752
  153.8710  135.3069  155.3443 H   0  0  0  0  0  0  0  0  0  0  0  0  # atno 10764 bound_to 10752
  154.7686  135.4951  153.9685 H   0  0  0  0  0  0  0  0  0  0  0  0  # atno 10765 bound_to 10752
  140.5507  134.0286  155.7936 H   0  0  0  0  0  0  0  0  0  0  0  0  # atno 11005 bound_to 11000
  144.7124  139.8320  143.7410 LP  0  0  0  0  0  0  0  0  0  0  0  0  # atno 17320 bound_to 7965
  146.1208  139.4225  143.0230 LP  0  0  0  0  0  0  0  0  0  0  0  0  # atno 17321 bound_to 7965
  139.6519  144.7661  151.2132 LP  0  0  0  0  0  0  0  0  0  0  0  0  # atno 17342 bound_to 10162
  140.7538  143.6148  150.8570 LP  0  0  0  0  0  0  0  0  0  0  0  0  # atno 17343 bound_to 10162
  156.5782  130.8454  151.3375 LP  0  0  0  0  0  0  0  0  0  0  0  0  # atno 17370 bound_to 10713
  157.7315  130.9701  150.1882 LP  0  0  0  0  0  0  0  0  0  0  0  0  # atno 17371 bound_to 10713
  141.1173  133.9518  157.2797 LP  0  0  0  0  0  0  0  0  0  0  0  0  # atno 17394 bound_to 11000
  139.9457  135.0184  156.8844 LP  0  0  0  0  0  0  0  0  0  0  0  0  # atno 17395 bound_to 11000

$$$$
