AV-unprocessed.smi:3076|AV-procd|sdf|11725|dock2
  -GOLD-   2272017123D 1   1.00000     0.00000
 Structure written by MMmdl.
 21 21  0  0  0  0  0  0  0  0  2 V2000
  148.3818  138.5620  153.0917 N   0  3  0  0  0  0  0  0  0  0  0  0
  148.9609  138.8587  154.4136 C   0  0  0  0  0  0  0  0  0  0  0  0
  149.1898  140.3682  154.6095 C   0  0  2  0  0  0  0  0  0  0  0  0
  149.5794  140.9333  153.3727 O   0  0  0  0  0  0  0  0  0  0  0  0
  150.2167  140.6310  155.6995 C   0  0  0  0  0  0  0  0  0  0  0  0
  150.1410  141.7757  156.5233 C   0  0  0  0  0  0  0  0  0  0  0  0
  151.1272  141.9723  157.5088 C   0  0  0  0  0  0  0  0  0  0  0  0
  152.1537  141.0150  157.6311 C   0  0  0  0  0  0  0  0  0  0  0  0
  152.2395  139.9179  156.8488 N   0  0  0  0  0  0  0  0  0  0  0  0
  151.2897  139.7364  155.9065 C   0  0  0  0  0  0  0  0  0  0  0  0
  148.8458  139.1157  152.3859 H   0  0  0  0  0  0  0  0  0  0  0  0
  147.3969  138.7868  153.1043 H   0  0  0  0  0  0  0  0  0  0  0  0
  148.2746  138.4820  155.1728 H   0  0  0  0  0  0  0  0  0  0  0  0
  149.8949  138.3062  154.5255 H   0  0  0  0  0  0  0  0  0  0  0  0
  148.2503  140.8403  154.9010 H   0  0  0  0  0  0  0  0  0  0  0  0
  149.6255  140.2436  152.7273 H   0  0  0  0  0  0  0  0  0  0  0  0
  149.3432  142.4942  156.4029 H   0  0  0  0  0  0  0  0  0  0  0  0
  151.0987  142.8366  158.1559 H   0  0  0  0  0  0  0  0  0  0  0  0
  152.9270  141.1350  158.3753 H   0  0  0  0  0  0  0  0  0  0  0  0
  151.3926  138.8500  155.2975 H   0  0  0  0  0  0  0  0  0  0  0  0
  148.4992  137.5808  152.8837 H   0  0  0  0  0  0  0  0  0  0  0  0
  1  2  1  0  0  0  0
  1 11  1  0  0  0  0
  1 12  1  0  0  0  0
  1 21  1  0  0  0  0
  2  3  1  0  0  0  0
  2 13  1  0  0  0  0
  2 14  1  0  0  0  0
  3  4  1  0  0  0  0
  3  5  1  0  0  0  0
  3 15  1  0  0  0  0
  4 16  1  0  0  0  0
  5 10  1  0  0  0  0
  5  6  2  0  0  0  0
  6  7  1  0  0  0  0
  6 17  1  0  0  0  0
  7  8  2  0  0  0  0
  7 18  1  0  0  0  0
  8  9  1  0  0  0  0
  8 19  1  0  0  0  0
  9 10  2  0  0  0  0
 10 20  1  0  0  0  0
M  CHG  1   1   1
M  END
> <s_m_source_file>
AV-unprocessed.smi

> <i_m_source_file_index>
3076

> <i_lp_mmshare_version>
43012

> <i_f3d_flags>
0

> <s_epik_input>
W05IMl1bQ0gyXVtDQEhdKFtPSF0pYzFbY0hdW2NIXVtjSF1uW2NIXTE=

> <s_epik_cmdline>
J2VwaWtfcHl0aG9uJywgJy1waCcsICc3LjAnLCAnLXRuJywgJzgnLCAnLW1hJywgJzIwMCcsICctbWV0YWxfYmluZGluZycsICctaW1hZScsICc8aW5maWxlLm1hZT4nLCAnLW9tYWUnLCAnPG91dGZpbGUubWFlPic=

> <r_epik_Ionization_Penalty>
0.0145342

> <r_epik_Ionization_Penalty_Charging>
0.0140431

> <r_epik_Ionization_Penalty_Neutral>
0.000491123

> <r_epik_State_Penalty>
0.0109628

> <r_epik_Charging_Adjusted_Penalty>
0.0250059

> <i_epik_Tot_Q>
1

> <i_epik_Tot_abs_Q>
1

> <r_epik_Metal_State_Penalty>
0.0109916

> <b_epik_Metal_Only>
0

> <s_lp_Force_Field>
OPLS_2005

> <r_lp_Energy>
5.00299

> <b_lp_Chiralities_Consistent>
1

> <s_lp_Variant>
AV-unprocessed.smi:3076-1

> <Gold.Version>
5.8.1

> <Gold.Id.Protein>
6NUR|6NUR_protein|mol2

> <Gold.PLP.Fitness>
36.4318

> <Gold.PLP.PLP>
-21.2217

> <Gold.PLP.part.hbond>
-5.6509

> <Gold.PLP.part.metal>
0.0000

> <Gold.PLP.part.buried>
-3.1917

> <Gold.PLP.part.nonpolar>
-12.6629

> <Gold.PLP.part.repulsive>
0.0784

> <Gold.PLP.ligand.clash>
0.0000

> <Gold.PLP.ligand.torsion>
0.9769

> <Gold.PLP.Chemscore.Hbond>
5.7190

> <Gold.PLP.Chemscore.CHOScore>
0.0000

> <Gold.PLP.Chemscore.Metal>
0.0000

> <Gold.Chemscore.Hbonds>
donor molecule, donor type, donor heavy atom, donor atom, acceptor molecule, acceptor atom, score
      L1  H     1    11       P1  7957  1.00
      L1  H     1    21       P1  7948  2.00
      L1  H     4    16       P1  7957  0.80
      P1  H  7989  7998       L1     4  0.10
      P1  H  7997  8008       L1     9  0.51
      P1  H  8011  8017       L1     4  1.00

> <Gold.PLP.Chemscore.Internal.Correction>
0.0070

> <Gold.Rescore>
     Score         DG    S(hbond)    S(metal)    S(lipo)     H(rot)  DE(clash)    DE(int)     intcor
     15.95     -16.31       3.13        0.00      44.67       1.90       0.00       0.35       ----

> <Gold.Chemscore.Fitness>
15.9514

> <Gold.Chemscore.DG>
-16.3069

> <Gold.Chemscore.ZeroCoef>
-5.4800

> <Gold.Chemscore.Hbond>
3.1317

> <Gold.Chemscore.Metal>
0.0000

> <Gold.Chemscore.Lipo>
44.6681

> <Gold.Chemscore.Internal_Hbond>
0.0000

> <Gold.Chemscore.DEClash>
0.0015

> <Gold.Chemscore.DEInternal>
0.3540

> <Gold.Chemscore.Rot>
1.8981

> <Gold.Chemscore.Internal.Correction>
   9.000000E+99

> <Gold.Chemscore.Hbonds>
donor molecule, donor type, donor heavy atom, donor atom, acceptor molecule, acceptor atom, score
      L1  H     1    11       P1  7957  1.00
      L1  H     1    21       P1  7948  0.97
      L1  H     4    16       P1  7957  0.77
      P1  H  7997  8008       L1     9  0.05
      P1  H  8011  8017       L1     4  0.30

> <Gold.Chemscore.Hbond.Weighted>
-10.4599

> <Gold.Chemscore.Metal.Weighted>
-0.0000

> <Gold.Chemscore.Lipo.Weighted>
-5.2262

> <Gold.Chemscore.Internal_Hbond.Weighted>
0.0000

> <Gold.Chemscore.DEClash.Weighted>
0.0015

> <Gold.Chemscore.DEInternal.Weighted>
0.3540

> <Gold.Chemscore.Rot.Weighted>
4.8592

> <Gold.Chemscore.Internal.Correction.Weighted>
   9.000000E+99

> <Gold.Protein.RotatedTorsions>
[ 6907 6896 6895 6894 ] final  -92.73 input  -60.11 | X-H torsion
[ 7974 7965 7964 7962 ] final -138.06 input  175.53 | X-H torsion
[ 8008 7997 7996 7995 ] final  -54.76 input   59.86 | X-H torsion
[ 10167 10162 10161 10158 ] final   62.98 input  -65.29 | X-H torsion
[ 10718 10713 10712 10709 ] final   20.60 input   66.30 | X-H torsion
[ 10763 10752 10751 10750 ] final  -27.55 input  -60.55 | X-H torsion
[ 11005 11000 10999 10996 ] final -130.07 input  -57.11 | X-H torsion

> <Gold.Protein.ActiveResidues>
 VAL166  LYS551  ARG553  GLY616  TRP617  ASP618  TYR619  PRO620  LYS621  CYS622 
 ASP623  PHE694  ASN695  SER759  ASP760  ASP761  ALA762  ILE779  LEU786  VAL792 
 PHE793  MET794  SER795  GLU796  ALA797  LYS798  CYS799  TRP800  GLU811  SER814 

> <Gold.Protein.RotatedAtoms>
  150.6911  134.2077  159.4346 H   0  0  0  0  0  0  0  0  0  0  0  0  # atno 6907 bound_to 6896
  152.0041  134.9910  160.0575 H   0  0  0  0  0  0  0  0  0  0  0  0  # atno 6908 bound_to 6896
  152.1551  133.4511  159.4870 H   0  0  0  0  0  0  0  0  0  0  0  0  # atno 6909 bound_to 6896
  144.8789  140.6479  143.5218 H   0  0  0  0  0  0  0  0  0  0  0  0  # atno 7974 bound_to 7965
  154.4173  140.1169  156.5367 H   0  0  0  0  0  0  0  0  0  0  0  0  # atno 8008 bound_to 7997
  155.6550  140.3496  155.4742 H   0  0  0  0  0  0  0  0  0  0  0  0  # atno 8009 bound_to 7997
  155.9761  140.1151  157.0758 H   0  0  0  0  0  0  0  0  0  0  0  0  # atno 8010 bound_to 7997
  140.1380  144.4580  150.6827 H   0  0  0  0  0  0  0  0  0  0  0  0  # atno 10167 bound_to 10162
  157.1267  130.6573  149.5940 H   0  0  0  0  0  0  0  0  0  0  0  0  # atno 10718 bound_to 10713
  153.7340  135.6937  153.4982 H   0  0  0  0  0  0  0  0  0  0  0  0  # atno 10763 bound_to 10752
  153.2116  135.4401  155.0385 H   0  0  0  0  0  0  0  0  0  0  0  0  # atno 10764 bound_to 10752
  154.8243  135.3438  154.6868 H   0  0  0  0  0  0  0  0  0  0  0  0  # atno 10765 bound_to 10752
  140.9378  134.1234  157.4178 H   0  0  0  0  0  0  0  0  0  0  0  0  # atno 11005 bound_to 11000
  145.3990  139.1601  143.4188 LP  0  0  0  0  0  0  0  0  0  0  0  0  # atno 17320 bound_to 7965
  146.2981  140.4085  142.8714 LP  0  0  0  0  0  0  0  0  0  0  0  0  # atno 17321 bound_to 7965
  140.6777  143.2312  151.5464 LP  0  0  0  0  0  0  0  0  0  0  0  0  # atno 17342 bound_to 10162
  139.5486  144.2455  152.1489 LP  0  0  0  0  0  0  0  0  0  0  0  0  # atno 17343 bound_to 10162
  155.9816  130.4825  150.6839 LP  0  0  0  0  0  0  0  0  0  0  0  0  # atno 17370 bound_to 10713
  157.4428  131.0863  151.0926 LP  0  0  0  0  0  0  0  0  0  0  0  0  # atno 17371 bound_to 10713
  139.8812  135.0026  156.6139 LP  0  0  0  0  0  0  0  0  0  0  0  0  # atno 17394 bound_to 11000
  140.7776  133.8687  155.8541 LP  0  0  0  0  0  0  0  0  0  0  0  0  # atno 17395 bound_to 11000

$$$$
