AV-unprocessed.smi:316|AV-procd|sdf|2324|dock1
  -GOLD-   2262022223D 1   1.00000     0.00000
 Structure written by MMmdl.
 42 43  0  0  0  0  0  0  0  0  1 V2000
  158.3895  141.4965  158.3262 C   0  0  0  0  0  0  0  0  0  0  0  0
  157.8425  140.5131  159.2482 N   0  0  0  0  0  0  0  0  0  0  0  0
  157.2355  139.3791  158.8697 C   0  0  0  0  0  0  0  0  0  0  0  0
  157.0883  139.0539  157.6914 O   0  0  0  0  0  0  0  0  0  0  0  0
  156.7216  138.4725  159.9904 C   0  0  0  0  0  0  0  0  0  0  0  0
  155.6408  139.1594  160.8474 C   0  0  0  0  0  0  0  0  0  0  0  0
  154.5821  139.7324  160.0240 N   0  0  0  0  0  0  0  0  0  0  0  0
  154.0995  140.9766  160.1498 C   0  0  0  0  0  0  0  0  0  0  0  0
  154.4997  141.7784  160.9941 O   0  0  0  0  0  0  0  0  0  0  0  0
  153.1245  141.2120  159.2563 N   0  0  0  0  0  0  0  0  0  0  0  0
  152.3155  142.3761  159.1231 C   0  0  0  0  0  0  0  0  0  0  0  0
  152.5958  143.5625  159.8445 C   0  0  0  0  0  0  0  0  0  0  0  0
  151.8049  144.7039  159.6295 C   0  0  0  0  0  0  0  0  0  0  0  0
  150.7684  144.6258  158.6848 C   0  0  0  0  0  0  0  0  0  0  0  0
  150.4984  143.5100  157.9784 N   0  0  0  0  0  0  0  0  0  0  0  0
  151.2430  142.3960  158.1856 C   0  0  0  0  0  0  0  0  0  0  0  0
  150.9036  141.2509  157.4290 N   0  0  0  0  0  0  0  0  0  0  0  0
  151.8950  140.6066  156.5737 C   0  0  0  0  0  0  0  0  0  0  0  0
  151.0883  139.7046  155.6441 C   0  0  0  0  0  0  0  0  0  0  0  0
  149.8189  140.5205  155.4201 C   0  0  0  0  0  0  0  0  0  0  0  0
  149.6058  141.2328  156.7601 C   0  0  0  0  0  0  0  0  0  0  0  0
  158.8056  142.3365  158.8823 H   0  0  0  0  0  0  0  0  0  0  0  0
  157.6142  141.8789  157.6609 H   0  0  0  0  0  0  0  0  0  0  0  0
  159.1848  141.0601  157.7207 H   0  0  0  0  0  0  0  0  0  0  0  0
  157.9235  140.7090  160.2356 H   0  0  0  0  0  0  0  0  0  0  0  0
  156.3209  137.5629  159.5419 H   0  0  0  0  0  0  0  0  0  0  0  0
  157.5596  138.1663  160.6188 H   0  0  0  0  0  0  0  0  0  0  0  0
  155.2105  138.4557  161.5628 H   0  0  0  0  0  0  0  0  0  0  0  0
  156.0806  139.9674  161.4331 H   0  0  0  0  0  0  0  0  0  0  0  0
  154.1928  139.1398  159.3051 H   0  0  0  0  0  0  0  0  0  0  0  0
  152.8494  140.4286  158.6820 H   0  0  0  0  0  0  0  0  0  0  0  0
  153.4170  143.6242  160.5419 H   0  0  0  0  0  0  0  0  0  0  0  0
  151.9972  145.6209  160.1665 H   0  0  0  0  0  0  0  0  0  0  0  0
  150.1429  145.4833  158.4855 H   0  0  0  0  0  0  0  0  0  0  0  0
  152.4365  141.3450  155.9807 H   0  0  0  0  0  0  0  0  0  0  0  0
  152.6185  140.0408  157.1611 H   0  0  0  0  0  0  0  0  0  0  0  0
  151.6148  139.4674  154.7193 H   0  0  0  0  0  0  0  0  0  0  0  0
  150.8455  138.7683  156.1487 H   0  0  0  0  0  0  0  0  0  0  0  0
  149.9928  141.2581  154.6355 H   0  0  0  0  0  0  0  0  0  0  0  0
  148.9655  139.9099  155.1240 H   0  0  0  0  0  0  0  0  0  0  0  0
  148.9036  140.6671  157.3726 H   0  0  0  0  0  0  0  0  0  0  0  0
  149.2001  142.2356  156.6186 H   0  0  0  0  0  0  0  0  0  0  0  0
  1  2  1  0  0  0  0
  1 22  1  0  0  0  0
  1 23  1  0  0  0  0
  1 24  1  0  0  0  0
  2  3  1  0  0  0  0
  2 25  1  0  0  0  0
  3  4  2  0  0  0  0
  3  5  1  0  0  0  0
  5  6  1  0  0  0  0
  5 26  1  0  0  0  0
  5 27  1  0  0  0  0
  6  7  1  0  0  0  0
  6 28  1  0  0  0  0
  6 29  1  0  0  0  0
  7  8  1  0  0  0  0
  7 30  1  0  0  0  0
  8  9  2  0  0  0  0
  8 10  1  0  0  0  0
 10 11  1  0  0  0  0
 10 31  1  0  0  0  0
 11 16  1  0  0  0  0
 11 12  2  0  0  0  0
 12 13  1  0  0  0  0
 12 32  1  0  0  0  0
 13 14  2  0  0  0  0
 13 33  1  0  0  0  0
 14 15  1  0  0  0  0
 14 34  1  0  0  0  0
 15 16  2  0  0  0  0
 16 17  1  0  0  0  0
 17 21  1  0  0  0  0
 17 18  1  0  0  0  0
 18 19  1  0  0  0  0
 18 35  1  0  0  0  0
 18 36  1  0  0  0  0
 19 20  1  0  0  0  0
 19 37  1  0  0  0  0
 19 38  1  0  0  0  0
 20 21  1  0  0  0  0
 20 39  1  0  0  0  0
 20 40  1  0  0  0  0
 21 41  1  0  0  0  0
 21 42  1  0  0  0  0
M  END
> <s_m_source_file>
AV-unprocessed.smi

> <i_m_source_file_index>
316

> <i_lp_mmshare_version>
43012

> <i_f3d_flags>
0

> <s_epik_input>
W0NIM11bTkhdQyg9TylbQ0gyXVtDSDJdW05IXUMoPU8pW05IXWMxW2NIXVtjSF1bY0hdbmMxTjJbQ0gyXVtDSDJdW0NIMl1bQ0gyXTI=

> <s_epik_cmdline>
J2VwaWtfcHl0aG9uJywgJy1waCcsICc3LjAnLCAnLXRuJywgJzgnLCAnLW1hJywgJzIwMCcsICctbWV0YWxfYmluZGluZycsICctaW1hZScsICc8aW5maWxlLm1hZT4nLCAnLW9tYWUnLCAnPG91dGZpbGUubWFlPic=

> <r_lp_tautomer_probability>
1

> <r_epik_Ionization_Penalty>
0.0916714

> <r_epik_Ionization_Penalty_Charging>
0

> <r_epik_Ionization_Penalty_Neutral>
0.0916714

> <r_epik_State_Penalty>
0.0814442

> <r_epik_Charging_Adjusted_Penalty>
0.0814442

> <i_epik_Tot_Q>
0

> <i_epik_Tot_abs_Q>
0

> <r_epik_Metal_State_Penalty>
0.0705089

> <b_epik_Metal_Only>
0

> <s_lp_Force_Field>
OPLS_2005

> <r_lp_Energy>
29.6087

> <b_lp_Chiralities_Consistent>
1

> <s_lp_Variant>
AV-unprocessed.smi:316-1

> <Gold.Version>
5.8.1

> <Gold.Id.Protein>
6NUR|6NUR_protein|mol2

> <Gold.PLP.Fitness>
40.4689

> <Gold.PLP.PLP>
-34.8210

> <Gold.PLP.part.hbond>
-2.0000

> <Gold.PLP.part.metal>
0.0000

> <Gold.PLP.part.buried>
-6.4137

> <Gold.PLP.part.nonpolar>
-28.8040

> <Gold.PLP.part.repulsive>
1.4431

> <Gold.PLP.ligand.clash>
0.0000

> <Gold.PLP.ligand.torsion>
0.3078

> <Gold.PLP.Chemscore.Hbond>
1.0000

> <Gold.PLP.Chemscore.CHOScore>
0.9695

> <Gold.PLP.Chemscore.Metal>
0.0000

> <Gold.Chemscore.Hbonds>
donor molecule, donor type, donor heavy atom, donor atom, acceptor molecule, acceptor atom, score
      P1  H  7997  8008       L1     4  1.00
      L1  C    14    34       P1  8029  0.89

> <Gold.PLP.Chemscore.Internal.Correction>
0.3548

> <Gold.Rescore>
     Score         DG    S(hbond)    S(metal)    S(lipo)     H(rot)  DE(clash)    DE(int)     intcor
     11.97     -13.78       0.98        0.00      85.42       1.94       0.03       1.78       ----

> <Gold.Chemscore.Fitness>
11.9701

> <Gold.Chemscore.DG>
-13.7834

> <Gold.Chemscore.ZeroCoef>
-5.4800

> <Gold.Chemscore.Hbond>
0.9835

> <Gold.Chemscore.Metal>
0.0000

> <Gold.Chemscore.Lipo>
85.4209

> <Gold.Chemscore.Internal_Hbond>
0.0000

> <Gold.Chemscore.DEClash>
0.0292

> <Gold.Chemscore.DEInternal>
1.7841

> <Gold.Chemscore.Rot>
1.9437

> <Gold.Chemscore.Internal.Correction>
   9.000000E+99

> <Gold.Chemscore.Hbonds>
donor molecule, donor type, donor heavy atom, donor atom, acceptor molecule, acceptor atom, score
      P1  H  7997  8008       L1     4  0.54

> <Gold.Chemscore.Hbond.Weighted>
-3.2850

> <Gold.Chemscore.Metal.Weighted>
-0.0000

> <Gold.Chemscore.Lipo.Weighted>
-9.9942

> <Gold.Chemscore.Internal_Hbond.Weighted>
0.0000

> <Gold.Chemscore.DEClash.Weighted>
0.0292

> <Gold.Chemscore.DEInternal.Weighted>
1.7841

> <Gold.Chemscore.Rot.Weighted>
4.9759

> <Gold.Chemscore.Internal.Correction.Weighted>
   9.000000E+99

> <Gold.Protein.RotatedTorsions>
[ 6907 6896 6895 6894 ] final  109.12 input  -60.11 | X-H torsion
[ 7974 7965 7964 7962 ] final  -82.13 input  175.53 | X-H torsion
[ 8008 7997 7996 7995 ] final -177.44 input   59.86 | X-H torsion
[ 10167 10162 10161 10158 ] final   91.61 input  -65.29 | X-H torsion
[ 10718 10713 10712 10709 ] final   28.11 input   66.30 | X-H torsion
[ 10763 10752 10751 10750 ] final  166.53 input  -60.55 | X-H torsion
[ 11005 11000 10999 10996 ] final  -65.88 input  -57.11 | X-H torsion

> <Gold.Protein.ActiveResidues>
 VAL166  LYS551  ARG553  GLY616  TRP617  ASP618  TYR619  PRO620  LYS621  CYS622 
 ASP623  PHE694  ASN695  SER759  ASP760  ASP761  ALA762  ILE779  LEU786  VAL792 
 PHE793  MET794  SER795  GLU796  ALA797  LYS798  CYS799  TRP800  GLU811  SER814 

> <Gold.Protein.RotatedAtoms>
  152.5081  133.8989  159.7431 H   0  0  0  0  0  0  0  0  0  0  0  0  # atno 6907 bound_to 6896
  150.9410  133.6648  159.2797 H   0  0  0  0  0  0  0  0  0  0  0  0  # atno 6908 bound_to 6896
  151.3960  135.0968  159.9593 H   0  0  0  0  0  0  0  0  0  0  0  0  # atno 6909 bound_to 6896
  145.5374  140.9514  143.1570 H   0  0  0  0  0  0  0  0  0  0  0  0  # atno 7974 bound_to 7965
  156.0069  140.1232  157.0492 H   0  0  0  0  0  0  0  0  0  0  0  0  # atno 8008 bound_to 7997
  154.4262  140.1095  156.5845 H   0  0  0  0  0  0  0  0  0  0  0  0  # atno 8009 bound_to 7997
  155.6134  140.3471  155.4631 H   0  0  0  0  0  0  0  0  0  0  0  0  # atno 8010 bound_to 7997
  139.8358  144.6665  150.9344 H   0  0  0  0  0  0  0  0  0  0  0  0  # atno 10167 bound_to 10162
  157.2291  130.7015  149.6305 H   0  0  0  0  0  0  0  0  0  0  0  0  # atno 10718 bound_to 10713
  154.3404  135.2754  155.2425 H   0  0  0  0  0  0  0  0  0  0  0  0  # atno 10763 bound_to 10752
  154.4698  135.5886  153.6317 H   0  0  0  0  0  0  0  0  0  0  0  0  # atno 10764 bound_to 10752
  152.9858  135.6085  154.3605 H   0  0  0  0  0  0  0  0  0  0  0  0  # atno 10765 bound_to 10752
  141.1467  133.6689  156.6053 H   0  0  0  0  0  0  0  0  0  0  0  0  # atno 11005 bound_to 11000
  144.7594  139.6993  143.7240 LP  0  0  0  0  0  0  0  0  0  0  0  0  # atno 17320 bound_to 7965
  146.2004  139.5295  142.9747 LP  0  0  0  0  0  0  0  0  0  0  0  0  # atno 17321 bound_to 7965
  140.7803  143.3958  151.1231 LP  0  0  0  0  0  0  0  0  0  0  0  0  # atno 17342 bound_to 10162
  139.7609  143.8637  152.3100 LP  0  0  0  0  0  0  0  0  0  0  0  0  # atno 17343 bound_to 10162
  155.9676  130.4494  150.5659 LP  0  0  0  0  0  0  0  0  0  0  0  0  # atno 17370 bound_to 10713
  157.3496  131.0731  151.1723 LP  0  0  0  0  0  0  0  0  0  0  0  0  # atno 17371 bound_to 10713
  140.3656  134.7650  157.4564 LP  0  0  0  0  0  0  0  0  0  0  0  0  # atno 17394 bound_to 11000
  140.0750  134.5809  155.8600 LP  0  0  0  0  0  0  0  0  0  0  0  0  # atno 17395 bound_to 11000

$$$$
