AV-unprocessed.smi:1833|AV-procd|sdf|7465|dock6
  -GOLD-   22720 9153D 1   1.00000     0.00000
 Structure written by MMmdl.
 42 43  0  0  0  0  0  0  0  0  2 V2000
  144.5113  132.2110  151.4910 C   0  0  0  0  0  0  0  0  0  0  0  0
  145.6786  131.2158  151.5631 C   0  0  0  0  0  0  0  0  0  0  0  0
  146.5755  131.4706  152.7186 N   0  3  1  0  0  0  0  0  0  0  0  0
  147.5426  130.3622  152.9319 C   0  0  0  0  0  0  0  0  0  0  0  0
  148.3661  130.5790  154.2125 C   0  0  0  0  0  0  0  0  0  0  0  0
  149.0866  131.9330  154.1829 C   0  0  0  0  0  0  0  0  0  0  0  0
  148.0726  133.0601  153.9314 C   0  0  1  0  0  0  0  0  0  0  0  0
  148.7613  134.3433  153.8218 N   0  0  0  0  0  0  0  0  0  0  0  0
  149.5442  134.8908  154.7624 C   0  0  0  0  0  0  0  0  0  0  0  0
  149.7829  134.3722  155.8529 O   0  0  0  0  0  0  0  0  0  0  0  0
  150.0349  136.0752  154.3719 N   0  0  0  0  0  0  0  0  0  0  0  0
  150.9030  136.9256  155.1781 C   0  0  0  0  0  0  0  0  0  0  0  0
  151.3700  138.1653  154.3986 C   0  0  0  0  0  0  0  0  0  0  0  0
  150.3512  139.2550  154.4023 C   0  0  0  0  0  0  0  0  0  0  0  0
  150.6313  140.5246  154.7093 N   0  0  0  0  0  0  0  0  0  0  0  0
  149.5009  141.3449  154.6739 C   0  0  0  0  0  0  0  0  0  0  0  0
  148.3487  140.6753  154.3483 C   0  0  0  0  0  0  0  0  0  0  0  0
  148.6435  138.9804  154.0723 S   0  0  0  0  0  0  0  0  0  0  0  0
  147.2641  132.7875  152.6492 C   0  0  0  0  0  0  0  0  0  0  0  0
  143.8226  131.9344  150.6923 H   0  0  0  0  0  0  0  0  0  0  0  0
  144.8482  133.2266  151.2858 H   0  0  0  0  0  0  0  0  0  0  0  0
  143.9456  132.2242  152.4231 H   0  0  0  0  0  0  0  0  0  0  0  0
  145.2536  130.2153  151.6540 H   0  0  0  0  0  0  0  0  0  0  0  0
  146.2510  131.2246  150.6344 H   0  0  0  0  0  0  0  0  0  0  0  0
  147.0078  129.4147  153.0091 H   0  0  0  0  0  0  0  0  0  0  0  0
  148.2040  130.2833  152.0676 H   0  0  0  0  0  0  0  0  0  0  0  0
  147.7091  130.5332  155.0823 H   0  0  0  0  0  0  0  0  0  0  0  0
  149.0916  129.7738  154.3310 H   0  0  0  0  0  0  0  0  0  0  0  0
  149.6123  132.0973  155.1244 H   0  0  0  0  0  0  0  0  0  0  0  0
  149.8441  131.9273  153.3976 H   0  0  0  0  0  0  0  0  0  0  0  0
  147.3710  133.0818  154.7677 H   0  0  0  0  0  0  0  0  0  0  0  0
  148.6345  134.8544  152.9601 H   0  0  0  0  0  0  0  0  0  0  0  0
  149.7851  136.4192  153.4562 H   0  0  0  0  0  0  0  0  0  0  0  0
  150.3447  137.2330  156.0628 H   0  0  0  0  0  0  0  0  0  0  0  0
  151.7605  136.3524  155.5357 H   0  0  0  0  0  0  0  0  0  0  0  0
  152.2969  138.5552  154.8217 H   0  0  0  0  0  0  0  0  0  0  0  0
  151.5876  137.8986  153.3640 H   0  0  0  0  0  0  0  0  0  0  0  0
  149.6071  142.3960  154.8978 H   0  0  0  0  0  0  0  0  0  0  0  0
  147.3493  141.0739  154.2570 H   0  0  0  0  0  0  0  0  0  0  0  0
  147.9166  132.8102  151.7745 H   0  0  0  0  0  0  0  0  0  0  0  0
  146.5339  133.5856  152.5187 H   0  0  0  0  0  0  0  0  0  0  0  0
  145.9859  131.4903  153.5385 H   0  0  0  0  0  0  0  0  0  0  0  0
  1  2  1  0  0  0  0
  1 20  1  0  0  0  0
  1 21  1  0  0  0  0
  1 22  1  0  0  0  0
  2  3  1  0  0  0  0
  2 23  1  0  0  0  0
  2 24  1  0  0  0  0
  3 19  1  0  0  0  0
  3  4  1  0  0  0  0
  3 42  1  0  0  0  0
  4  5  1  0  0  0  0
  4 25  1  0  0  0  0
  4 26  1  0  0  0  0
  5  6  1  0  0  0  0
  5 27  1  0  0  0  0
  5 28  1  0  0  0  0
  6  7  1  0  0  0  0
  6 29  1  0  0  0  0
  6 30  1  0  0  0  0
  7  8  1  0  0  0  0
  7 19  1  0  0  0  0
  7 31  1  0  0  0  0
  8  9  1  0  0  0  0
  8 32  1  0  0  0  0
  9 10  2  0  0  0  0
  9 11  1  0  0  0  0
 11 12  1  0  0  0  0
 11 33  1  0  0  0  0
 12 13  1  0  0  0  0
 12 34  1  0  0  0  0
 12 35  1  0  0  0  0
 13 14  1  0  0  0  0
 13 36  1  0  0  0  0
 13 37  1  0  0  0  0
 14 18  1  0  0  0  0
 14 15  2  0  0  0  0
 15 16  1  0  0  0  0
 16 17  2  0  0  0  0
 16 38  1  0  0  0  0
 17 18  1  0  0  0  0
 17 39  1  0  0  0  0
 19 40  1  0  0  0  0
 19 41  1  0  0  0  0
M  CHG  1   3   1
M  END
> <s_m_source_file>
AV-unprocessed.smi

> <i_m_source_file_index>
1833

> <i_lp_mmshare_version>
43012

> <i_f3d_flags>
0

> <s_epik_input>
W0NIM11bQ0gyXU4xW0NIMl1bQ0gyXVtDSDJdW0NASF0oW0NIMl0xKVtOSF1DKD1PKVtOSF1bQ0gyXVtDSDJdYzJuW2NIXVtjSF1zMg==

> <s_epik_cmdline>
J2VwaWtfcHl0aG9uJywgJy1waCcsICc3LjAnLCAnLXRuJywgJzgnLCAnLW1hJywgJzIwMCcsICctbWV0YWxfYmluZGluZycsICctaW1hZScsICc8aW5maWxlLm1hZT4nLCAnLW9tYWUnLCAnPG91dGZpbGUubWFlPic=

> <r_lp_tautomer_probability>
1

> <r_epik_Ionization_Penalty>
0.00269629

> <r_epik_Ionization_Penalty_Charging>
0.00233899

> <r_epik_Ionization_Penalty_Neutral>
0.000357304

> <r_epik_State_Penalty>
-0

> <r_epik_Charging_Adjusted_Penalty>
0.00233899

> <i_epik_Tot_Q>
1

> <i_epik_Tot_abs_Q>
1

> <r_epik_Metal_State_Penalty>
-0

> <b_epik_Metal_Only>
0

> <s_lp_Force_Field>
OPLS_2005

> <r_lp_Energy>
7.28856

> <b_lp_Chiralities_Consistent>
1

> <s_lp_Variant>
AV-unprocessed.smi:1833-1

> <Gold.Version>
5.8.1

> <Gold.Id.Protein>
6NUR|6NUR_protein|mol2

> <Gold.PLP.Fitness>
46.5489

> <Gold.PLP.PLP>
-35.1223

> <Gold.PLP.part.hbond>
-3.6895

> <Gold.PLP.part.metal>
0.0000

> <Gold.PLP.part.buried>
-0.6140

> <Gold.PLP.part.nonpolar>
-29.2751

> <Gold.PLP.part.repulsive>
0.1751

> <Gold.PLP.ligand.clash>
0.0000

> <Gold.PLP.ligand.torsion>
0.2876

> <Gold.PLP.Chemscore.Hbond>
3.0000

> <Gold.PLP.Chemscore.CHOScore>
0.9834

> <Gold.PLP.Chemscore.Metal>
0.0000

> <Gold.Chemscore.Hbonds>
donor molecule, donor type, donor heavy atom, donor atom, acceptor molecule, acceptor atom, score
      L1  H     8    32       P1  7948  1.00
      L1  H    11    33       P1  7948  1.00
      P1  H  7989  7998       L1    15  1.00
      L1  C    16    38       P1  8028  0.98

> <Gold.PLP.Chemscore.Internal.Correction>
0.0516

> <Gold.Rescore>
     Score         DG    S(hbond)    S(metal)    S(lipo)     H(rot)  DE(clash)    DE(int)     intcor
     17.32     -17.83       2.22        0.00      79.60       1.71       0.04       0.47       ----

> <Gold.Chemscore.Fitness>
17.3204

> <Gold.Chemscore.DG>
-17.8314

> <Gold.Chemscore.ZeroCoef>
-5.4800

> <Gold.Chemscore.Hbond>
2.2240

> <Gold.Chemscore.Metal>
0.0000

> <Gold.Chemscore.Lipo>
79.5971

> <Gold.Chemscore.Internal_Hbond>
0.0000

> <Gold.Chemscore.DEClash>
0.0362

> <Gold.Chemscore.DEInternal>
0.4748

> <Gold.Chemscore.Rot>
1.7147

> <Gold.Chemscore.Internal.Correction>
   9.000000E+99

> <Gold.Chemscore.Hbonds>
donor molecule, donor type, donor heavy atom, donor atom, acceptor molecule, acceptor atom, score
      L1  H     8    32       P1  7948  0.34
      L1  H    11    33       P1  7948  0.25
      P1  H  7989  7998       L1    15  0.18

> <Gold.Chemscore.Hbond.Weighted>
-7.4281

> <Gold.Chemscore.Metal.Weighted>
-0.0000

> <Gold.Chemscore.Lipo.Weighted>
-9.3129

> <Gold.Chemscore.Internal_Hbond.Weighted>
0.0000

> <Gold.Chemscore.DEClash.Weighted>
0.0362

> <Gold.Chemscore.DEInternal.Weighted>
0.4748

> <Gold.Chemscore.Rot.Weighted>
4.3896

> <Gold.Chemscore.Internal.Correction.Weighted>
   9.000000E+99

> <Gold.Protein.RotatedTorsions>
[ 6907 6896 6895 6894 ] final  -50.77 input  -60.11 | X-H torsion
[ 7974 7965 7964 7962 ] final  141.51 input  175.53 | X-H torsion
[ 8008 7997 7996 7995 ] final  167.22 input   59.86 | X-H torsion
[ 10167 10162 10161 10158 ] final   -0.51 input  -65.29 | X-H torsion
[ 10718 10713 10712 10709 ] final  108.82 input   66.30 | X-H torsion
[ 10763 10752 10751 10750 ] final  145.90 input  -60.55 | X-H torsion
[ 11005 11000 10999 10996 ] final -130.39 input  -57.11 | X-H torsion

> <Gold.Protein.ActiveResidues>
 VAL166  LYS551  ARG553  GLY616  TRP617  ASP618  TYR619  PRO620  LYS621  CYS622 
 ASP623  PHE694  ASN695  SER759  ASP760  ASP761  ALA762  ILE779  LEU786  VAL792 
 PHE793  MET794  SER795  GLU796  ALA797  LYS798  CYS799  TRP800  GLU811  SER814 

> <Gold.Protein.RotatedAtoms>
  150.8675  134.8041  159.7129 H   0  0  0  0  0  0  0  0  0  0  0  0  # atno 6907 bound_to 6896
  152.4691  134.5001  159.9732 H   0  0  0  0  0  0  0  0  0  0  0  0  # atno 6908 bound_to 6896
  151.5094  133.3449  159.2918 H   0  0  0  0  0  0  0  0  0  0  0  0  # atno 6909 bound_to 6896
  144.9090  139.5319  143.5718 H   0  0  0  0  0  0  0  0  0  0  0  0  # atno 7974 bound_to 7965
  156.1652  140.1623  156.8543 H   0  0  0  0  0  0  0  0  0  0  0  0  # atno 8008 bound_to 7997
  154.5201  140.0780  156.8190 H   0  0  0  0  0  0  0  0  0  0  0  0  # atno 8009 bound_to 7997
  155.3625  140.3396  155.4243 H   0  0  0  0  0  0  0  0  0  0  0  0  # atno 8010 bound_to 7997
  140.6770  143.6886  150.8046 H   0  0  0  0  0  0  0  0  0  0  0  0  # atno 10167 bound_to 10162
  157.6569  131.0901  150.6362 H   0  0  0  0  0  0  0  0  0  0  0  0  # atno 10718 bound_to 10713
  154.0131  135.2912  155.3390 H   0  0  0  0  0  0  0  0  0  0  0  0  # atno 10763 bound_to 10752
  154.7091  135.5157  153.8643 H   0  0  0  0  0  0  0  0  0  0  0  0  # atno 10764 bound_to 10752
  153.0714  135.6649  154.0360 H   0  0  0  0  0  0  0  0  0  0  0  0  # atno 10765 bound_to 10752
  140.9349  134.1270  157.4202 H   0  0  0  0  0  0  0  0  0  0  0  0  # atno 11005 bound_to 11000
  146.3148  139.7880  142.8992 LP  0  0  0  0  0  0  0  0  0  0  0  0  # atno 17320 bound_to 7965
  145.3487  141.0303  143.3351 LP  0  0  0  0  0  0  0  0  0  0  0  0  # atno 17321 bound_to 7965
  140.0580  143.5183  152.2641 LP  0  0  0  0  0  0  0  0  0  0  0  0  # atno 17342 bound_to 10162
  139.6069  144.7598  151.3041 LP  0  0  0  0  0  0  0  0  0  0  0  0  # atno 17343 bound_to 10162
  156.6667  130.4528  149.5670 LP  0  0  0  0  0  0  0  0  0  0  0  0  # atno 17370 bound_to 10713
  156.2027  130.6630  151.1185 LP  0  0  0  0  0  0  0  0  0  0  0  0  # atno 17371 bound_to 10713
  139.8805  135.0017  156.6086 LP  0  0  0  0  0  0  0  0  0  0  0  0  # atno 17394 bound_to 11000
  140.7812  133.8658  155.8569 LP  0  0  0  0  0  0  0  0  0  0  0  0  # atno 17395 bound_to 11000

$$$$
