AV-unprocessed.smi:514|AV-procd|sdf|2779|dock5
  -GOLD-   2262023253D 1   1.00000     0.00000
 Structure written by MMmdl.
 44 46  0  0  0  0  0  0  0  0  2 V2000
  148.9481  134.1581  154.5303 C   0  0  0  0  0  0  0  0  0  0  0  0
  150.2780  134.4730  155.2295 C   0  0  0  0  0  0  0  0  0  0  0  0
  150.8574  135.6747  154.7411 O   0  0  0  0  0  0  0  0  0  0  0  0
  150.6017  136.8137  155.5489 C   0  0  0  0  0  0  0  0  0  0  0  0
  150.7697  138.0743  154.6854 C   0  0  0  0  0  0  0  0  0  0  0  0
  150.7384  139.2977  155.4823 N   0  0  0  0  0  0  0  0  0  0  0  0
  149.8853  140.3592  155.3919 C   0  0  0  0  0  0  0  0  0  0  0  0
  148.8556  140.4492  154.4456 N   0  0  0  0  0  0  0  0  0  0  0  0
  148.2884  141.7137  153.9786 C   0  0  0  0  0  0  0  0  0  0  0  0
  146.7484  141.6904  154.0463 C   0  0  0  0  0  0  0  0  0  0  0  0
  146.2329  140.6334  153.1837 N   0  0  0  0  0  0  0  0  0  0  0  0
  146.7750  139.3597  153.6424 C   0  0  0  0  0  0  0  0  0  0  0  0
  148.3145  139.4029  153.5767 C   0  0  0  0  0  0  0  0  0  0  0  0
  150.0883  141.3032  156.3144 N   0  0  0  0  0  0  0  0  0  0  0  0
  151.1661  140.8198  157.0369 C   0  0  0  0  0  0  0  0  0  0  0  0
  151.5688  139.6106  156.5653 C   0  0  0  0  0  0  0  0  0  0  0  0
  152.6764  138.8266  157.1585 C   0  0  0  0  0  0  0  0  0  0  0  0
  152.9923  137.7284  156.7058 O   0  0  0  0  0  0  0  0  0  0  0  0
  153.2533  139.4687  158.2233 N   0  5  0  0  0  0  0  0  0  0  0  0
  152.8794  140.6950  158.7294 C   0  0  0  0  0  0  0  0  0  0  0  0
  153.4483  141.1991  159.6987 O   0  0  0  0  0  0  0  0  0  0  0  0
  151.8464  141.3837  158.1502 N   0  0  0  0  0  0  0  0  0  0  0  0
  151.4270  142.6906  158.6646 C   0  0  0  0  0  0  0  0  0  0  0  0
  148.4729  133.2878  154.9830 H   0  0  0  0  0  0  0  0  0  0  0  0
  149.0857  133.9394  153.4720 H   0  0  0  0  0  0  0  0  0  0  0  0
  148.2557  134.9960  154.6136 H   0  0  0  0  0  0  0  0  0  0  0  0
  150.0901  134.6104  156.2943 H   0  0  0  0  0  0  0  0  0  0  0  0
  150.9754  133.6384  155.1441 H   0  0  0  0  0  0  0  0  0  0  0  0
  149.5924  136.7601  155.9567 H   0  0  0  0  0  0  0  0  0  0  0  0
  151.2811  136.8419  156.3992 H   0  0  0  0  0  0  0  0  0  0  0  0
  151.6974  138.0328  154.1193 H   0  0  0  0  0  0  0  0  0  0  0  0
  149.9873  138.1229  153.9288 H   0  0  0  0  0  0  0  0  0  0  0  0
  148.6569  142.5332  154.5962 H   0  0  0  0  0  0  0  0  0  0  0  0
  148.6272  141.9159  152.9616 H   0  0  0  0  0  0  0  0  0  0  0  0
  146.4086  141.5354  155.0713 H   0  0  0  0  0  0  0  0  0  0  0  0
  146.3433  142.6461  153.7137 H   0  0  0  0  0  0  0  0  0  0  0  0
  145.2247  140.6129  153.2372 H   0  0  0  0  0  0  0  0  0  0  0  0
  146.4304  139.1496  154.6557 H   0  0  0  0  0  0  0  0  0  0  0  0
  146.3943  138.5639  153.0022 H   0  0  0  0  0  0  0  0  0  0  0  0
  148.6374  139.5915  152.5519 H   0  0  0  0  0  0  0  0  0  0  0  0
  148.7243  138.4313  153.8332 H   0  0  0  0  0  0  0  0  0  0  0  0
  151.0134  142.5875  159.6684 H   0  0  0  0  0  0  0  0  0  0  0  0
  150.6673  143.1624  158.0420 H   0  0  0  0  0  0  0  0  0  0  0  0
  152.2735  143.3770  158.7123 H   0  0  0  0  0  0  0  0  0  0  0  0
  1  2  1  0  0  0  0
  1 24  1  0  0  0  0
  1 25  1  0  0  0  0
  1 26  1  0  0  0  0
  2  3  1  0  0  0  0
  2 27  1  0  0  0  0
  2 28  1  0  0  0  0
  3  4  1  0  0  0  0
  4  5  1  0  0  0  0
  4 29  1  0  0  0  0
  4 30  1  0  0  0  0
  5  6  1  0  0  0  0
  5 31  1  0  0  0  0
  5 32  1  0  0  0  0
  6 16  1  0  0  0  0
  6  7  1  0  0  0  0
  7  8  1  0  0  0  0
  7 14  2  0  0  0  0
  8 13  1  0  0  0  0
  8  9  1  0  0  0  0
  9 10  1  0  0  0  0
  9 33  1  0  0  0  0
  9 34  1  0  0  0  0
 10 11  1  0  0  0  0
 10 35  1  0  0  0  0
 10 36  1  0  0  0  0
 11 12  1  0  0  0  0
 11 37  1  0  0  0  0
 12 13  1  0  0  0  0
 12 38  1  0  0  0  0
 12 39  1  0  0  0  0
 13 40  1  0  0  0  0
 13 41  1  0  0  0  0
 14 15  1  0  0  0  0
 15 22  1  0  0  0  0
 15 16  2  0  0  0  0
 16 17  1  0  0  0  0
 17 18  2  0  0  0  0
 17 19  1  0  0  0  0
 19 20  1  0  0  0  0
 20 21  2  0  0  0  0
 20 22  1  0  0  0  0
 22 23  1  0  0  0  0
 23 42  1  0  0  0  0
 23 43  1  0  0  0  0
 23 44  1  0  0  0  0
M  CHG  1  19  -1
M  END
> <s_m_source_file>
AV-unprocessed.smi

> <i_m_source_file_index>
514

> <i_lp_mmshare_version>
43012

> <i_f3d_flags>
0

> <s_epik_input>
W0NIM11uMWMoPU8pW25IXWMoPU8pYyhjMTIpbihbQ0gyXVtDSDJdT1tDSDJdW0NIM10pYyhuMilOM1tDSDJdW0NIMl1bTkhdW0NIMl1bQ0gyXTM=

> <s_epik_cmdline>
J2VwaWtfcHl0aG9uJywgJy1waCcsICc3LjAnLCAnLXRuJywgJzgnLCAnLW1hJywgJzIwMCcsICctbWV0YWxfYmluZGluZycsICctaW1hZScsICc8aW5maWxlLm1hZT4nLCAnLW9tYWUnLCAnPG91dGZpbGUubWFlPic=

> <r_epik_Ionization_Penalty>
8.82895

> <r_epik_Ionization_Penalty_Charging>
0.0771612

> <r_epik_Ionization_Penalty_Neutral>
8.75178

> <r_epik_State_Penalty>
8.91747

> <r_epik_Charging_Adjusted_Penalty>
8.99464

> <i_epik_Tot_Q>
-1

> <i_epik_Tot_abs_Q>
1

> <r_epik_Metal_State_Penalty>
4.86816

> <b_epik_Metal_Only>
1

> <s_lp_Force_Field>
OPLS_2005

> <r_lp_Energy>
52.9187

> <b_lp_Chiralities_Consistent>
1

> <s_lp_Variant>
AV-unprocessed.smi:514-4

> <Gold.Version>
5.8.1

> <Gold.Id.Protein>
6NUR|6NUR_protein|mol2

> <Gold.PLP.Fitness>
44.8119

> <Gold.PLP.PLP>
-35.8424

> <Gold.PLP.part.hbond>
-3.0000

> <Gold.PLP.part.metal>
0.0000

> <Gold.PLP.part.buried>
-1.0352

> <Gold.PLP.part.nonpolar>
-32.0712

> <Gold.PLP.part.repulsive>
0.2437

> <Gold.PLP.ligand.clash>
0.0000

> <Gold.PLP.ligand.torsion>
0.5888

> <Gold.PLP.Chemscore.Hbond>
3.3568

> <Gold.PLP.Chemscore.CHOScore>
0.0000

> <Gold.PLP.Chemscore.Metal>
0.0000

> <Gold.Chemscore.Hbonds>
donor molecule, donor type, donor heavy atom, donor atom, acceptor molecule, acceptor atom, score
      L1  H    11    37       P1 10175  1.00
      P1  H  7997  8008       L1    19  1.34
      P1  H 10752 10763       L1     3  0.88

> <Gold.PLP.Chemscore.Internal.Correction>
0.0767

> <Gold.Rescore>
     Score         DG    S(hbond)    S(metal)    S(lipo)     H(rot)  DE(clash)    DE(int)     intcor
     11.40     -14.52       1.90        0.00      60.15       1.70       0.25       2.87       ----

> <Gold.Chemscore.Fitness>
11.4010

> <Gold.Chemscore.DG>
-14.5234

> <Gold.Chemscore.ZeroCoef>
-5.4800

> <Gold.Chemscore.Hbond>
1.8998

> <Gold.Chemscore.Metal>
0.0000

> <Gold.Chemscore.Lipo>
60.1540

> <Gold.Chemscore.Internal_Hbond>
0.0000

> <Gold.Chemscore.DEClash>
0.2535

> <Gold.Chemscore.DEInternal>
2.8689

> <Gold.Chemscore.Rot>
1.6953

> <Gold.Chemscore.Internal.Correction>
   9.000000E+99

> <Gold.Chemscore.Hbonds>
donor molecule, donor type, donor heavy atom, donor atom, acceptor molecule, acceptor atom, score
      L1  H    11    37       P1 10175  0.86
      P1  H  7997  8008       L1    19  0.02
      P1  H 10752 10763       L1     3  0.35

> <Gold.Chemscore.Hbond.Weighted>
-6.3453

> <Gold.Chemscore.Metal.Weighted>
-0.0000

> <Gold.Chemscore.Lipo.Weighted>
-7.0380

> <Gold.Chemscore.Internal_Hbond.Weighted>
0.0000

> <Gold.Chemscore.DEClash.Weighted>
0.2535

> <Gold.Chemscore.DEInternal.Weighted>
2.8689

> <Gold.Chemscore.Rot.Weighted>
4.3399

> <Gold.Chemscore.Internal.Correction.Weighted>
   9.000000E+99

> <Gold.Protein.RotatedTorsions>
[ 6907 6896 6895 6894 ] final  -10.99 input  -60.11 | X-H torsion
[ 7974 7965 7964 7962 ] final -160.21 input  175.53 | X-H torsion
[ 8008 7997 7996 7995 ] final -112.84 input   59.86 | X-H torsion
[ 10167 10162 10161 10158 ] final  -84.52 input  -65.29 | X-H torsion
[ 10718 10713 10712 10709 ] final  -36.25 input   66.30 | X-H torsion
[ 10763 10752 10751 10750 ] final   61.80 input  -60.55 | X-H torsion
[ 11005 11000 10999 10996 ] final  143.91 input  -57.11 | X-H torsion

> <Gold.Protein.ActiveResidues>
 VAL166  LYS551  ARG553  GLY616  TRP617  ASP618  TYR619  PRO620  LYS621  CYS622 
 ASP623  PHE694  ASN695  SER759  ASP760  ASP761  ALA762  ILE779  LEU786  VAL792 
 PHE793  MET794  SER795  GLU796  ALA797  LYS798  CYS799  TRP800  GLU811  SER814 

> <Gold.Protein.RotatedAtoms>
  151.3932  135.0959  159.9532 H   0  0  0  0  0  0  0  0  0  0  0  0  # atno 6907 bound_to 6896
  152.5073  133.8959  159.7427 H   0  0  0  0  0  0  0  0  0  0  0  0  # atno 6908 bound_to 6896
  150.9417  133.6593  159.2818 H   0  0  0  0  0  0  0  0  0  0  0  0  # atno 6909 bound_to 6896
  144.7436  140.3574  143.6103 H   0  0  0  0  0  0  0  0  0  0  0  0  # atno 7974 bound_to 7965
  155.0114  140.0393  157.2401 H   0  0  0  0  0  0  0  0  0  0  0  0  # atno 8008 bound_to 7997
  154.7457  140.2757  155.6312 H   0  0  0  0  0  0  0  0  0  0  0  0  # atno 8009 bound_to 7997
  156.2874  140.2657  156.2197 H   0  0  0  0  0  0  0  0  0  0  0  0  # atno 8010 bound_to 7997
  140.4125  143.2617  151.8999 H   0  0  0  0  0  0  0  0  0  0  0  0  # atno 10167 bound_to 10162
  156.3290  130.4276  149.7889 H   0  0  0  0  0  0  0  0  0  0  0  0  # atno 10718 bound_to 10713
  152.9962  135.5488  154.6091 H   0  0  0  0  0  0  0  0  0  0  0  0  # atno 10763 bound_to 10752
  154.5416  135.2820  155.1092 H   0  0  0  0  0  0  0  0  0  0  0  0  # atno 10764 bound_to 10752
  154.2367  135.6423  153.5246 H   0  0  0  0  0  0  0  0  0  0  0  0  # atno 10765 bound_to 10752
  140.0590  134.9215  157.1151 H   0  0  0  0  0  0  0  0  0  0  0  0  # atno 11005 bound_to 11000
  145.7212  139.1710  143.2483 LP  0  0  0  0  0  0  0  0  0  0  0  0  # atno 17320 bound_to 7965
  146.1275  140.7229  142.9428 LP  0  0  0  0  0  0  0  0  0  0  0  0  # atno 17321 bound_to 7965
  139.4782  144.5522  151.8368 LP  0  0  0  0  0  0  0  0  0  0  0  0  # atno 17342 bound_to 10162
  140.4623  144.1705  150.5907 LP  0  0  0  0  0  0  0  0  0  0  0  0  # atno 17343 bound_to 10162
  156.5169  130.8197  151.3189 LP  0  0  0  0  0  0  0  0  0  0  0  0  # atno 17370 bound_to 10713
  157.7427  130.9895  150.2535 LP  0  0  0  0  0  0  0  0  0  0  0  0  # atno 17371 bound_to 10713
  140.3799  134.2299  155.7171 LP  0  0  0  0  0  0  0  0  0  0  0  0  # atno 17394 bound_to 11000
  141.1965  133.8081  157.0669 LP  0  0  0  0  0  0  0  0  0  0  0  0  # atno 17395 bound_to 11000

$$$$
