AV-unprocessed.smi:2973|AV-procd|sdf|11349|dock3
  -GOLD-   2272016263D 1   1.00000     0.00000
 Structure written by MMmdl.
 49 51  0  0  0  0  0  0  0  0  3 V2000
  153.4003  139.5892  159.4482 C   0  0  0  0  0  0  0  0  0  0  0  0
  152.8526  140.7442  158.5801 C   0  0  2  0  0  0  0  0  0  0  0  0
  152.0175  141.7068  159.4538 C   0  0  0  0  0  0  0  0  0  0  0  0
  151.5113  142.9161  158.6542 C   0  0  0  0  0  0  0  0  0  0  0  0
  150.6973  142.4730  157.4322 C   0  0  0  0  0  0  0  0  0  0  0  0
  151.5148  141.5226  156.5401 C   0  0  0  0  0  0  0  0  0  0  0  0
  152.0745  140.2895  157.2992 C   0  0  1  0  0  0  0  0  0  0  0  0
  152.9582  139.5601  156.4055 N   0  5  0  0  0  0  0  0  0  0  0  0
  152.4629  138.3168  156.2082 C   0  0  0  0  0  0  0  0  0  0  0  0
  152.9623  137.4262  155.5208 O   0  0  0  0  0  0  0  0  0  0  0  0
  151.3113  138.1428  156.8828 N   0  0  0  0  0  0  0  0  0  0  0  0
  150.5376  136.8947  156.9127 C   0  0  0  0  0  0  0  0  0  0  0  0
  150.3271  136.2905  155.5176 C   0  0  0  0  0  0  0  0  0  0  0  0
  150.6768  136.8974  154.5039 O   0  0  0  0  0  0  0  0  0  0  0  0
  149.7623  135.0743  155.4827 N   0  0  0  0  0  0  0  0  0  0  0  0
  149.4648  134.3268  154.2673 C   0  0  0  0  0  0  0  0  0  0  0  0
  148.5251  133.1413  154.5470 C   0  0  0  0  0  0  0  0  0  0  0  0
  147.5665  132.8873  153.4007 C   0  0  0  0  0  0  0  0  0  0  0  0
  146.7752  131.7202  153.3301 C   0  0  0  0  0  0  0  0  0  0  0  0
  145.8955  131.5492  152.2409 C   0  0  0  0  0  0  0  0  0  0  0  0
  145.8251  132.5473  151.2471 C   0  0  0  0  0  0  0  0  0  0  0  0
  146.6371  133.6934  151.3681 C   0  0  0  0  0  0  0  0  0  0  0  0
  147.4669  133.8212  152.4269 N   0  3  0  0  0  0  0  0  0  0  0  0
  150.9899  139.2472  157.5655 C   0  0  0  0  0  0  0  0  0  0  0  0
  150.0102  139.4117  158.2936 O   0  0  0  0  0  0  0  0  0  0  0  0
  152.5990  138.9897  159.8807 H   0  0  0  0  0  0  0  0  0  0  0  0
  153.9977  139.9755  160.2741 H   0  0  0  0  0  0  0  0  0  0  0  0
  154.0424  138.9218  158.8735 H   0  0  0  0  0  0  0  0  0  0  0  0
  153.7227  141.3085  158.2395 H   0  0  0  0  0  0  0  0  0  0  0  0
  151.1714  141.1803  159.8958 H   0  0  0  0  0  0  0  0  0  0  0  0
  152.6207  142.0610  160.2904 H   0  0  0  0  0  0  0  0  0  0  0  0
  150.9027  143.5561  159.2935 H   0  0  0  0  0  0  0  0  0  0  0  0
  152.3594  143.5198  158.3287 H   0  0  0  0  0  0  0  0  0  0  0  0
  149.7761  141.9899  157.7574 H   0  0  0  0  0  0  0  0  0  0  0  0
  150.3934  143.3468  156.8555 H   0  0  0  0  0  0  0  0  0  0  0  0
  150.8976  141.2044  155.6981 H   0  0  0  0  0  0  0  0  0  0  0  0
  152.3420  142.0850  156.1035 H   0  0  0  0  0  0  0  0  0  0  0  0
  151.0373  136.1529  157.5375 H   0  0  0  0  0  0  0  0  0  0  0  0
  149.5701  137.0749  157.3851 H   0  0  0  0  0  0  0  0  0  0  0  0
  149.5142  134.6430  156.3614 H   0  0  0  0  0  0  0  0  0  0  0  0
  149.0295  134.9922  153.5195 H   0  0  0  0  0  0  0  0  0  0  0  0
  150.4075  133.9680  153.8532 H   0  0  0  0  0  0  0  0  0  0  0  0
  149.1069  132.2369  154.7308 H   0  0  0  0  0  0  0  0  0  0  0  0
  147.9462  133.3218  155.4539 H   0  0  0  0  0  0  0  0  0  0  0  0
  146.8387  130.9662  154.1015 H   0  0  0  0  0  0  0  0  0  0  0  0
  145.2816  130.6631  152.1691 H   0  0  0  0  0  0  0  0  0  0  0  0
  145.1575  132.4357  150.4050 H   0  0  0  0  0  0  0  0  0  0  0  0
  146.6473  134.5058  150.6561 H   0  0  0  0  0  0  0  0  0  0  0  0
  148.0448  134.6594  152.4938 H   0  0  0  0  0  0  0  0  0  0  0  0
  1  2  1  0  0  0  0
  1 26  1  0  0  0  0
  1 27  1  0  0  0  0
  1 28  1  0  0  0  0
  2  7  1  0  0  0  0
  2  3  1  0  0  0  0
  2 29  1  0  0  0  0
  3  4  1  0  0  0  0
  3 30  1  0  0  0  0
  3 31  1  0  0  0  0
  4  5  1  0  0  0  0
  4 32  1  0  0  0  0
  4 33  1  0  0  0  0
  5  6  1  0  0  0  0
  5 34  1  0  0  0  0
  5 35  1  0  0  0  0
  6  7  1  0  0  0  0
  6 36  1  0  0  0  0
  6 37  1  0  0  0  0
  7 24  1  0  0  0  0
  7  8  1  0  0  0  0
  8  9  1  0  0  0  0
  9 10  2  0  0  0  0
  9 11  1  0  0  0  0
 11 12  1  0  0  0  0
 11 24  1  0  0  0  0
 12 13  1  0  0  0  0
 12 38  1  0  0  0  0
 12 39  1  0  0  0  0
 13 14  2  0  0  0  0
 13 15  1  0  0  0  0
 15 16  1  0  0  0  0
 15 40  1  0  0  0  0
 16 17  1  0  0  0  0
 16 41  1  0  0  0  0
 16 42  1  0  0  0  0
 17 18  1  0  0  0  0
 17 43  1  0  0  0  0
 17 44  1  0  0  0  0
 18 23  1  0  0  0  0
 18 19  2  0  0  0  0
 19 20  1  0  0  0  0
 19 45  1  0  0  0  0
 20 21  2  0  0  0  0
 20 46  1  0  0  0  0
 21 22  1  0  0  0  0
 21 47  1  0  0  0  0
 22 23  2  0  0  0  0
 22 48  1  0  0  0  0
 23 49  1  0  0  0  0
 24 25  2  0  0  0  0
M  CHG  1   8  -1
M  CHG  1  23   1
M  END
> <s_m_source_file>
AV-unprocessed.smi

> <i_m_source_file_index>
2973

> <i_lp_mmshare_version>
43012

> <i_f3d_flags>
0

> <s_epik_input>
W0NIMl0xW0NIMl1bQ0gyXVtDSDJdW0NAQEhdKFtDSDNdKVtDQF0xMltOSF1DKD1PKU4oQzI9TylbQ0gyXUMoPU8pW05IXVtDSDJdW0NIMl1jM1tjSF1bY0hdW2NIXVtjSF1uMw==

> <s_epik_cmdline>
J2VwaWtfcHl0aG9uJywgJy1waCcsICc3LjAnLCAnLXRuJywgJzgnLCAnLW1hJywgJzIwMCcsICctbWV0YWxfYmluZGluZycsICctaW1hZScsICc8aW5maWxlLm1hZT4nLCAnLW9tYWUnLCAnPG91dGZpbGUubWFlPic=

> <r_lp_tautomer_probability>
1

> <r_epik_Ionization_Penalty>
7.89073

> <r_epik_Ionization_Penalty_Charging>
7.89073

> <r_epik_Ionization_Penalty_Neutral>
1.56557e-07

> <r_epik_State_Penalty>
8.01193

> <r_epik_Charging_Adjusted_Penalty>
15.9027

> <i_epik_Tot_Q>
0

> <i_epik_Tot_abs_Q>
2

> <r_epik_Metal_State_Penalty>
3.98737

> <b_epik_Metal_Only>
1

> <s_lp_Force_Field>
OPLS_2005

> <r_lp_Energy>
17.4929

> <b_lp_Chiralities_Consistent>
1

> <s_lp_Variant>
AV-unprocessed.smi:2973-13

> <Gold.Version>
5.8.1

> <Gold.Id.Protein>
6NUR|6NUR_protein|mol2

> <Gold.PLP.Fitness>
48.4579

> <Gold.PLP.PLP>
-36.5311

> <Gold.PLP.part.hbond>
-3.0000

> <Gold.PLP.part.metal>
0.0000

> <Gold.PLP.part.buried>
-5.9952

> <Gold.PLP.part.nonpolar>
-27.4366

> <Gold.PLP.part.repulsive>
0.3857

> <Gold.PLP.ligand.clash>
0.0000

> <Gold.PLP.ligand.torsion>
0.6441

> <Gold.PLP.Chemscore.Hbond>
4.3840

> <Gold.PLP.Chemscore.CHOScore>
0.0000

> <Gold.PLP.Chemscore.Metal>
0.0000

> <Gold.Chemscore.Hbonds>
donor molecule, donor type, donor heavy atom, donor atom, acceptor molecule, acceptor atom, score
      L1  H    23    49       P1  7948  2.00
      P1  H  7997  8008       L1     8  1.92
      P1  H 10752 10763       L1    10  0.42

> <Gold.PLP.Chemscore.Internal.Correction>
0.0630

> <Gold.Rescore>
     Score         DG    S(hbond)    S(metal)    S(lipo)     H(rot)  DE(clash)    DE(int)     intcor
     13.55     -18.24       2.21        0.00      87.75       1.92       0.10       4.59       ----

> <Gold.Chemscore.Fitness>
13.5479

> <Gold.Chemscore.DG>
-18.2365

> <Gold.Chemscore.ZeroCoef>
-5.4800

> <Gold.Chemscore.Hbond>
2.2150

> <Gold.Chemscore.Metal>
0.0000

> <Gold.Chemscore.Lipo>
87.7545

> <Gold.Chemscore.Internal_Hbond>
0.0000

> <Gold.Chemscore.DEClash>
0.0998

> <Gold.Chemscore.DEInternal>
4.5888

> <Gold.Chemscore.Rot>
1.9175

> <Gold.Chemscore.Internal.Correction>
   9.000000E+99

> <Gold.Chemscore.Hbonds>
donor molecule, donor type, donor heavy atom, donor atom, acceptor molecule, acceptor atom, score
      L1  H    23    49       P1  7948  0.54
      P1  H  7997  8008       L1     8  0.59
      P1  H 10752 10763       L1    10  0.41

> <Gold.Chemscore.Hbond.Weighted>
-7.3980

> <Gold.Chemscore.Metal.Weighted>
-0.0000

> <Gold.Chemscore.Lipo.Weighted>
-10.2673

> <Gold.Chemscore.Internal_Hbond.Weighted>
0.0000

> <Gold.Chemscore.DEClash.Weighted>
0.0998

> <Gold.Chemscore.DEInternal.Weighted>
4.5888

> <Gold.Chemscore.Rot.Weighted>
4.9087

> <Gold.Chemscore.Internal.Correction.Weighted>
   9.000000E+99

> <Gold.Protein.RotatedTorsions>
[ 6907 6896 6895 6894 ] final    3.34 input  -60.11 | X-H torsion
[ 7974 7965 7964 7962 ] final   87.39 input  175.53 | X-H torsion
[ 8008 7997 7996 7995 ] final  -58.80 input   59.86 | X-H torsion
[ 10167 10162 10161 10158 ] final  -98.37 input  -65.29 | X-H torsion
[ 10718 10713 10712 10709 ] final -177.33 input   66.30 | X-H torsion
[ 10763 10752 10751 10750 ] final   77.00 input  -60.55 | X-H torsion
[ 11005 11000 10999 10996 ] final  146.80 input  -57.11 | X-H torsion

> <Gold.Protein.ActiveResidues>
 VAL166  LYS551  ARG553  GLY616  TRP617  ASP618  TYR619  PRO620  LYS621  CYS622 
 ASP623  PHE694  ASN695  SER759  ASP760  ASP761  ALA762  ILE779  LEU786  VAL792 
 PHE793  MET794  SER795  GLU796  ALA797  LYS798  CYS799  TRP800  GLU811  SER814 

> <Gold.Protein.RotatedAtoms>
  151.6235  135.1030  160.0106 H   0  0  0  0  0  0  0  0  0  0  0  0  # atno 6907 bound_to 6896
  152.4145  133.7012  159.6435 H   0  0  0  0  0  0  0  0  0  0  0  0  # atno 6908 bound_to 6896
  150.8034  133.8482  159.3239 H   0  0  0  0  0  0  0  0  0  0  0  0  # atno 6909 bound_to 6896
  145.5596  139.2302  143.2467 H   0  0  0  0  0  0  0  0  0  0  0  0  # atno 7974 bound_to 7965
  154.4324  140.1076  156.6014 H   0  0  0  0  0  0  0  0  0  0  0  0  # atno 8008 bound_to 7997
  155.5907  140.3492  155.4547 H   0  0  0  0  0  0  0  0  0  0  0  0  # atno 8009 bound_to 7997
  156.0249  140.1247  157.0309 H   0  0  0  0  0  0  0  0  0  0  0  0  # atno 8010 bound_to 7997
  140.2737  143.3327  152.0510 H   0  0  0  0  0  0  0  0  0  0  0  0  # atno 10167 bound_to 10162
  156.8279  130.9643  151.3108 H   0  0  0  0  0  0  0  0  0  0  0  0  # atno 10718 bound_to 10713
  153.0766  135.4930  154.8417 H   0  0  0  0  0  0  0  0  0  0  0  0  # atno 10763 bound_to 10752
  154.7096  135.3017  154.9220 H   0  0  0  0  0  0  0  0  0  0  0  0  # atno 10764 bound_to 10752
  153.9918  135.6777  153.4807 H   0  0  0  0  0  0  0  0  0  0  0  0  # atno 10765 bound_to 10752
  140.0823  134.9090  157.1520 H   0  0  0  0  0  0  0  0  0  0  0  0  # atno 11005 bound_to 11000
  146.1861  140.6420  142.9167 LP  0  0  0  0  0  0  0  0  0  0  0  0  # atno 17320 bound_to 7965
  144.7489  140.5141  143.6815 LP  0  0  0  0  0  0  0  0  0  0  0  0  # atno 17321 bound_to 7965
  139.4982  144.6639  151.6401 LP  0  0  0  0  0  0  0  0  0  0  0  0  # atno 17342 bound_to 10162
  140.5869  143.9848  150.6301 LP  0  0  0  0  0  0  0  0  0  0  0  0  # atno 17343 bound_to 10162
  157.6422  130.8815  149.9471 LP  0  0  0  0  0  0  0  0  0  0  0  0  # atno 17370 bound_to 10713
  156.0951  130.3660  150.0321 LP  0  0  0  0  0  0  0  0  0  0  0  0  # atno 17371 bound_to 10713
  140.3470  134.2640  155.7203 LP  0  0  0  0  0  0  0  0  0  0  0  0  # atno 17394 bound_to 11000
  141.2051  133.7870  157.0253 LP  0  0  0  0  0  0  0  0  0  0  0  0  # atno 17395 bound_to 11000

$$$$
