AV-unprocessed.smi:2527|AV-procd|sdf|9945|dock9
  -GOLD-   2272013583D 1   1.00000     0.00000
 Structure written by MMmdl.
 35 37  0  0  0  0  0  0  0  0  2 V2000
  155.1781  144.1582  166.0373 C   0  0  0  0  0  0  0  0  0  0  0  0
  154.4468  143.0789  165.4841 O   0  0  0  0  0  0  0  0  0  0  0  0
  154.2290  143.2252  164.0900 C   0  0  0  0  0  0  0  0  0  0  0  0
  153.7451  141.8924  163.5016 C   0  0  0  0  0  0  0  0  0  0  0  0
  153.6599  141.9351  162.0490 N   0  0  0  0  0  0  0  0  0  0  0  0
  154.1695  141.0481  161.1580 C   0  0  0  0  0  0  0  0  0  0  0  0
  155.0638  139.6184  161.6952 S   0  0  0  0  0  0  0  0  0  0  0  0
  155.5321  138.9051  160.0909 C   0  0  0  0  0  0  0  0  0  0  0  0
  154.6151  137.7982  159.6203 C   0  0  0  0  0  0  0  0  0  0  0  0
  154.8630  137.2316  158.4039 N   0  0  0  0  0  0  0  0  0  0  0  0
  153.9362  136.2953  158.2285 C   0  0  0  0  0  0  0  0  0  0  0  0
  153.8859  135.5968  157.2183 O   0  0  0  0  0  0  0  0  0  0  0  0
  153.1241  136.2763  159.3139 N   0  5  0  0  0  0  0  0  0  0  0  0
  153.6027  137.2825  160.2150 N   0  0  0  0  0  0  0  0  0  0  0  0
  153.9373  141.3318  159.8746 N   0  0  0  0  0  0  0  0  0  0  0  0
  153.2116  142.5036  159.9411 C   0  0  0  0  0  0  0  0  0  0  0  0
  152.6654  143.3049  158.9133 C   0  0  0  0  0  0  0  0  0  0  0  0
  151.9448  144.4758  159.2280 C   0  0  0  0  0  0  0  0  0  0  0  0
  151.2827  145.4419  157.9611 Cl  0  0  0  0  0  0  0  0  0  0  0  0
  151.7617  144.8603  160.5725 C   0  0  0  0  0  0  0  0  0  0  0  0
  152.2994  144.0762  161.6112 C   0  0  0  0  0  0  0  0  0  0  0  0
  153.0181  142.9091  161.2907 C   0  0  0  0  0  0  0  0  0  0  0  0
  155.6074  137.4826  157.7708 H   0  0  0  0  0  0  0  0  0  0  0  0
  155.3148  143.9971  167.1067 H   0  0  0  0  0  0  0  0  0  0  0  0
  154.6490  145.1027  165.9039 H   0  0  0  0  0  0  0  0  0  0  0  0
  156.1650  144.2410  165.5803 H   0  0  0  0  0  0  0  0  0  0  0  0
  153.4830  144.0003  163.9084 H   0  0  0  0  0  0  0  0  0  0  0  0
  155.1512  143.5387  163.5982 H   0  0  0  0  0  0  0  0  0  0  0  0
  154.4268  141.0908  163.7871 H   0  0  0  0  0  0  0  0  0  0  0  0
  152.7724  141.6226  163.9133 H   0  0  0  0  0  0  0  0  0  0  0  0
  155.5515  139.7011  159.3454 H   0  0  0  0  0  0  0  0  0  0  0  0
  156.5449  138.5068  160.1592 H   0  0  0  0  0  0  0  0  0  0  0  0
  152.8005  143.0161  157.8814 H   0  0  0  0  0  0  0  0  0  0  0  0
  151.2070  145.7568  160.8077 H   0  0  0  0  0  0  0  0  0  0  0  0
  152.1570  144.3664  162.6415 H   0  0  0  0  0  0  0  0  0  0  0  0
  1  2  1  0  0  0  0
  1 24  1  0  0  0  0
  1 25  1  0  0  0  0
  1 26  1  0  0  0  0
  2  3  1  0  0  0  0
  3  4  1  0  0  0  0
  3 27  1  0  0  0  0
  3 28  1  0  0  0  0
  4  5  1  0  0  0  0
  4 29  1  0  0  0  0
  4 30  1  0  0  0  0
  5 22  1  0  0  0  0
  5  6  1  0  0  0  0
  6  7  1  0  0  0  0
  6 15  2  0  0  0  0
  7  8  1  0  0  0  0
  8 31  1  0  0  0  0
  8 32  1  0  0  0  0
  8  9  1  0  0  0  0
  9 14  2  0  0  0  0
  9 10  1  0  0  0  0
 10 11  1  0  0  0  0
 10 23  1  0  0  0  0
 11 13  1  0  0  0  0
 11 12  2  0  0  0  0
 13 14  1  0  0  0  0
 15 16  1  0  0  0  0
 16 22  2  0  0  0  0
 16 17  1  0  0  0  0
 17 18  2  0  0  0  0
 17 33  1  0  0  0  0
 18 19  1  0  0  0  0
 18 20  1  0  0  0  0
 20 21  2  0  0  0  0
 20 34  1  0  0  0  0
 21 22  1  0  0  0  0
 21 35  1  0  0  0  0
M  CHG  1  13  -1
M  END
> <s_m_source_file>
AV-unprocessed.smi

> <i_m_source_file_index>
2527

> <i_lp_mmshare_version>
43012

> <i_f3d_flags>
0

> <s_epik_input>
W2NIXTFjKENsKVtjSF1bY0hdYyhjMTIpbihbQ0gyXVtDSDJdT1tDSDNdKWMobjIpU1tDSDJdYzNuYyg9TylbbkhdW25IXTM=

> <s_epik_cmdline>
J2VwaWtfcHl0aG9uJywgJy1waCcsICc3LjAnLCAnLXRuJywgJzgnLCAnLW1hJywgJzIwMCcsICctbWV0YWxfYmluZGluZycsICctaW1hZScsICc8aW5maWxlLm1hZT4nLCAnLW9tYWUnLCAnPG91dGZpbGUubWFlPic=

> <r_lp_tautomer_probability>
0.999897

> <r_epik_Ionization_Penalty>
2.94119

> <r_epik_Ionization_Penalty_Charging>
1.40065e-06

> <r_epik_Ionization_Penalty_Neutral>
2.94119

> <r_epik_State_Penalty>
4.57578

> <r_epik_Charging_Adjusted_Penalty>
4.57578

> <i_epik_Tot_Q>
-1

> <i_epik_Tot_abs_Q>
1

> <r_epik_Metal_State_Penalty>
2.1052

> <b_epik_Metal_Only>
1

> <s_lp_Force_Field>
OPLS_2005

> <r_lp_Energy>
14.3955

> <b_lp_Chiralities_Consistent>
1

> <s_lp_Variant>
AV-unprocessed.smi:2527-4

> <Gold.Version>
5.8.1

> <Gold.Id.Protein>
6NUR|6NUR_protein|mol2

> <Gold.PLP.Fitness>
54.0557

> <Gold.PLP.PLP>
-45.8781

> <Gold.PLP.part.hbond>
-2.9877

> <Gold.PLP.part.metal>
0.0000

> <Gold.PLP.part.buried>
-5.5666

> <Gold.PLP.part.nonpolar>
-36.1055

> <Gold.PLP.part.repulsive>
0.1050

> <Gold.PLP.ligand.clash>
0.0000

> <Gold.PLP.ligand.torsion>
0.4221

> <Gold.PLP.Chemscore.Hbond>
3.0000

> <Gold.PLP.Chemscore.CHOScore>
0.0000

> <Gold.PLP.Chemscore.Metal>
0.0000

> <Gold.Chemscore.Hbonds>
donor molecule, donor type, donor heavy atom, donor atom, acceptor molecule, acceptor atom, score
      P1  H  6896  6909       L1    13  1.92
      P1  H 10752 10763       L1    12  1.00

> <Gold.PLP.Chemscore.Internal.Correction>
0.0219

> <Gold.Rescore>
     Score         DG    S(hbond)    S(metal)    S(lipo)     H(rot)  DE(clash)    DE(int)     intcor
     16.70     -19.01       1.90        0.00     122.87       2.81       1.95       0.36       ----

> <Gold.Chemscore.Fitness>
16.7008

> <Gold.Chemscore.DG>
-19.0052

> <Gold.Chemscore.ZeroCoef>
-5.4800

> <Gold.Chemscore.Hbond>
1.8986

> <Gold.Chemscore.Metal>
0.0000

> <Gold.Chemscore.Lipo>
122.8677

> <Gold.Chemscore.Internal_Hbond>
0.0000

> <Gold.Chemscore.DEClash>
1.9457

> <Gold.Chemscore.DEInternal>
0.3587

> <Gold.Chemscore.Rot>
2.8092

> <Gold.Chemscore.Internal.Correction>
   9.000000E+99

> <Gold.Chemscore.Hbonds>
donor molecule, donor type, donor heavy atom, donor atom, acceptor molecule, acceptor atom, score
      P1  H  6896  6909       L1    13  0.88
      P1  H 10752 10763       L1    12  1.00

> <Gold.Chemscore.Hbond.Weighted>
-6.3413

> <Gold.Chemscore.Metal.Weighted>
-0.0000

> <Gold.Chemscore.Lipo.Weighted>
-14.3755

> <Gold.Chemscore.Internal_Hbond.Weighted>
0.0000

> <Gold.Chemscore.DEClash.Weighted>
1.9457

> <Gold.Chemscore.DEInternal.Weighted>
0.3587

> <Gold.Chemscore.Rot.Weighted>
7.1916

> <Gold.Chemscore.Internal.Correction.Weighted>
   9.000000E+99

> <Gold.Protein.RotatedTorsions>
[ 6907 6896 6895 6894 ] final  167.31 input  -60.11 | X-H torsion
[ 7974 7965 7964 7962 ] final  138.78 input  175.53 | X-H torsion
[ 8008 7997 7996 7995 ] final  115.74 input   59.86 | X-H torsion
[ 10167 10162 10161 10158 ] final -172.25 input  -65.29 | X-H torsion
[ 10718 10713 10712 10709 ] final  158.88 input   66.30 | X-H torsion
[ 10763 10752 10751 10750 ] final  129.98 input  -60.55 | X-H torsion
[ 11005 11000 10999 10996 ] final  120.29 input  -57.11 | X-H torsion

> <Gold.Protein.ActiveResidues>
 VAL166  LYS551  ARG553  GLY616  TRP617  ASP618  TYR619  PRO620  LYS621  CYS622 
 ASP623  PHE694  ASN695  SER759  ASP760  ASP761  ALA762  ILE779  LEU786  VAL792 
 PHE793  MET794  SER795  GLU796  ALA797  LYS798  CYS799  TRP800  GLU811  SER814 

> <Gold.Protein.RotatedAtoms>
  151.8653  133.3465  159.3716 H   0  0  0  0  0  0  0  0  0  0  0  0  # atno 6907 bound_to 6896
  150.7167  134.5166  159.5642 H   0  0  0  0  0  0  0  0  0  0  0  0  # atno 6908 bound_to 6896
  152.2688  134.7956  160.0469 H   0  0  0  0  0  0  0  0  0  0  0  0  # atno 6909 bound_to 6896
  144.9340  139.5011  143.5604 H   0  0  0  0  0  0  0  0  0  0  0  0  # atno 7974 bound_to 7965
  156.2399  140.2932  156.0416 H   0  0  0  0  0  0  0  0  0  0  0  0  # atno 8008 bound_to 7997
  155.1981  140.0409  157.2929 H   0  0  0  0  0  0  0  0  0  0  0  0  # atno 8009 bound_to 7997
  154.6149  140.2461  155.7629 H   0  0  0  0  0  0  0  0  0  0  0  0  # atno 8010 bound_to 7997
  139.5755  144.1542  152.1444 H   0  0  0  0  0  0  0  0  0  0  0  0  # atno 10167 bound_to 10162
  157.1719  131.0612  151.2178 H   0  0  0  0  0  0  0  0  0  0  0  0  # atno 10718 bound_to 10713
  153.7506  135.3210  155.3320 H   0  0  0  0  0  0  0  0  0  0  0  0  # atno 10763 bound_to 10752
  154.8264  135.4566  154.0936 H   0  0  0  0  0  0  0  0  0  0  0  0  # atno 10764 bound_to 10752
  153.2137  135.6939  153.8165 H   0  0  0  0  0  0  0  0  0  0  0  0  # atno 10765 bound_to 10752
  139.9179  134.9634  156.7785 H   0  0  0  0  0  0  0  0  0  0  0  0  # atno 11005 bound_to 11000
  146.3259  139.8312  142.8908 LP  0  0  0  0  0  0  0  0  0  0  0  0  # atno 17320 bound_to 7965
  145.3096  141.0216  143.3562 LP  0  0  0  0  0  0  0  0  0  0  0  0  # atno 17321 bound_to 7965
  140.1084  144.5479  150.6941 LP  0  0  0  0  0  0  0  0  0  0  0  0  # atno 17342 bound_to 10162
  140.7038  143.2453  151.4787 LP  0  0  0  0  0  0  0  0  0  0  0  0  # atno 17343 bound_to 10162
  157.4035  130.7346  149.6785 LP  0  0  0  0  0  0  0  0  0  0  0  0  # atno 17370 bound_to 10713
  155.9737  130.4114  150.3981 LP  0  0  0  0  0  0  0  0  0  0  0  0  # atno 17371 bound_to 10713
  140.6563  133.9685  155.7781 LP  0  0  0  0  0  0  0  0  0  0  0  0  # atno 17394 bound_to 11000
  141.0674  134.0257  157.3575 LP  0  0  0  0  0  0  0  0  0  0  0  0  # atno 17395 bound_to 11000

$$$$
