AV-unprocessed.smi:1049|AV-procd|sdf|4611|dock5
  -GOLD-   22720 3113D 1   1.00000     0.00000
 Structure written by MMmdl.
 41 42  0  0  0  0  0  0  0  0  2 V2000
  153.4792  142.5811  162.7790 C   0  0  0  0  0  0  0  0  0  0  0  0
  152.6238  142.8547  161.5341 C   0  0  1  0  0  0  0  0  0  0  0  0
  152.2107  144.3402  161.4463 C   0  0  0  0  0  0  0  0  0  0  0  0
  151.4592  144.6533  160.1387 C   0  0  0  0  0  0  0  0  0  0  0  0
  152.2411  144.1351  158.9190 C   0  0  0  0  0  0  0  0  0  0  0  0
  152.4767  142.6908  159.0876 N   0  0  0  0  0  0  0  0  0  0  0  0
  151.8623  141.6900  158.4064 C   0  0  0  0  0  0  0  0  0  0  0  0
  152.3257  140.5524  158.3122 O   0  0  0  0  0  0  0  0  0  0  0  0
  150.7018  142.0331  157.8214 N   0  0  0  0  0  0  0  0  0  0  0  0
  149.8589  141.1376  157.0381 C   0  0  0  0  0  0  0  0  0  0  0  0
  150.0048  141.4040  155.5295 C   0  0  0  0  0  0  0  0  0  0  0  0
  148.6962  141.4669  154.7982 C   0  0  0  0  0  0  0  0  0  0  0  0
  148.0134  142.5843  154.5181 N   0  3  0  0  0  0  0  0  0  0  0  0
  146.8493  142.2847  153.8655 C   0  0  0  0  0  0  0  0  0  0  0  0
  146.8092  140.9200  153.7554 C   0  0  0  0  0  0  0  0  0  0  0  0
  147.9495  140.4420  154.3495 N   0  0  0  0  0  0  0  0  0  0  0  0
  148.3299  139.0311  154.4736 C   0  0  0  0  0  0  0  0  0  0  0  0
  147.4708  138.2602  153.8071 F   0  0  0  0  0  0  0  0  0  0  0  0
  149.5717  138.8400  154.0273 F   0  0  0  0  0  0  0  0  0  0  0  0
  153.3489  142.4263  160.2401 C   0  0  0  0  0  0  0  0  0  0  0  0
  154.4095  143.1497  162.7540 H   0  0  0  0  0  0  0  0  0  0  0  0
  153.7367  141.5243  162.8532 H   0  0  0  0  0  0  0  0  0  0  0  0
  152.9455  142.8549  163.6895 H   0  0  0  0  0  0  0  0  0  0  0  0
  151.7149  142.2573  161.6222 H   0  0  0  0  0  0  0  0  0  0  0  0
  151.5938  144.6130  162.3031 H   0  0  0  0  0  0  0  0  0  0  0  0
  153.1029  144.9660  161.4985 H   0  0  0  0  0  0  0  0  0  0  0  0
  150.4718  144.1904  160.1632 H   0  0  0  0  0  0  0  0  0  0  0  0
  151.2960  145.7279  160.0518 H   0  0  0  0  0  0  0  0  0  0  0  0
  151.7123  144.3954  158.0025 H   0  0  0  0  0  0  0  0  0  0  0  0
  153.2021  144.6470  158.8495 H   0  0  0  0  0  0  0  0  0  0  0  0
  150.3793  142.9834  157.9352 H   0  0  0  0  0  0  0  0  0  0  0  0
  150.1026  140.1006  157.2759 H   0  0  0  0  0  0  0  0  0  0  0  0
  148.8241  141.2928  157.3446 H   0  0  0  0  0  0  0  0  0  0  0  0
  150.5240  142.3482  155.3683 H   0  0  0  0  0  0  0  0  0  0  0  0
  150.5891  140.6204  155.0460 H   0  0  0  0  0  0  0  0  0  0  0  0
  146.1538  143.0449  153.5408 H   0  0  0  0  0  0  0  0  0  0  0  0
  146.0685  140.2691  153.3137 H   0  0  0  0  0  0  0  0  0  0  0  0
  148.3019  138.7374  155.5236 H   0  0  0  0  0  0  0  0  0  0  0  0
  154.2784  142.9862  160.1248 H   0  0  0  0  0  0  0  0  0  0  0  0
  153.6452  141.3784  160.3071 H   0  0  0  0  0  0  0  0  0  0  0  0
  148.3191  143.5193  154.7576 H   0  0  0  0  0  0  0  0  0  0  0  0
  1  2  1  0  0  0  0
  1 21  1  0  0  0  0
  1 22  1  0  0  0  0
  1 23  1  0  0  0  0
  2 20  1  0  0  0  0
  2  3  1  0  0  0  0
  2 24  1  0  0  0  0
  3  4  1  0  0  0  0
  3 25  1  0  0  0  0
  3 26  1  0  0  0  0
  4  5  1  0  0  0  0
  4 27  1  0  0  0  0
  4 28  1  0  0  0  0
  5  6  1  0  0  0  0
  5 29  1  0  0  0  0
  5 30  1  0  0  0  0
  6  7  1  0  0  0  0
  6 20  1  0  0  0  0
  7  8  2  0  0  0  0
  7  9  1  0  0  0  0
  9 10  1  0  0  0  0
  9 31  1  0  0  0  0
 10 11  1  0  0  0  0
 10 32  1  0  0  0  0
 10 33  1  0  0  0  0
 11 12  1  0  0  0  0
 11 34  1  0  0  0  0
 11 35  1  0  0  0  0
 12 16  1  0  0  0  0
 12 13  2  0  0  0  0
 13 14  1  0  0  0  0
 13 41  1  0  0  0  0
 14 15  2  0  0  0  0
 14 36  1  0  0  0  0
 15 16  1  0  0  0  0
 15 37  1  0  0  0  0
 16 17  1  0  0  0  0
 17 18  1  0  0  0  0
 17 19  1  0  0  0  0
 17 38  1  0  0  0  0
 20 39  1  0  0  0  0
 20 40  1  0  0  0  0
M  CHG  1  13   1
M  END
> <s_m_source_file>
AV-unprocessed.smi

> <i_m_source_file_index>
1049

> <i_lp_mmshare_version>
43012

> <i_f3d_flags>
0

> <s_epik_input>
W0NIM11bQ0BASF0xW0NIMl1bQ0gyXVtDSDJdTihbQ0gyXTEpQyg9TylbTkhdW0NIMl1bQ0gyXWMybltjSF1bY0hdbjJbQ0hdKEYpRg==

> <s_epik_cmdline>
J2VwaWtfcHl0aG9uJywgJy1waCcsICc3LjAnLCAnLXRuJywgJzgnLCAnLW1hJywgJzIwMCcsICctbWV0YWxfYmluZGluZycsICctaW1hZScsICc8aW5maWxlLm1hZT4nLCAnLW9tYWUnLCAnPG91dGZpbGUubWFlPic=

> <r_lp_tautomer_probability>
1

> <r_epik_Ionization_Penalty>
1.09766

> <r_epik_Ionization_Penalty_Charging>
0

> <r_epik_Ionization_Penalty_Neutral>
1.09766

> <r_epik_State_Penalty>
1.15444

> <r_epik_Charging_Adjusted_Penalty>
1.15444

> <i_epik_Tot_Q>
1

> <i_epik_Tot_abs_Q>
1

> <r_epik_Metal_State_Penalty>
1.24204

> <b_epik_Metal_Only>
0

> <s_lp_Force_Field>
OPLS_2005

> <r_lp_Energy>
35.939

> <b_lp_Chiralities_Consistent>
1

> <s_lp_Variant>
AV-unprocessed.smi:1049-4

> <Gold.Version>
5.8.1

> <Gold.Id.Protein>
6NUR|6NUR_protein|mol2

> <Gold.PLP.Fitness>
55.6376

> <Gold.PLP.PLP>
-49.1778

> <Gold.PLP.part.hbond>
-1.0000

> <Gold.PLP.part.metal>
0.0000

> <Gold.PLP.part.buried>
-6.9850

> <Gold.PLP.part.nonpolar>
-41.8490

> <Gold.PLP.part.repulsive>
0.2603

> <Gold.PLP.ligand.clash>
0.3168

> <Gold.PLP.ligand.torsion>
1.1403

> <Gold.PLP.Chemscore.Hbond>
2.0000

> <Gold.PLP.Chemscore.CHOScore>
1.0000

> <Gold.PLP.Chemscore.Metal>
0.0000

> <Gold.Chemscore.Hbonds>
donor molecule, donor type, donor heavy atom, donor atom, acceptor molecule, acceptor atom, score
      L1  H    13    41       P1  8028  2.00
      L1  C    15    37       P1 10175  0.99

> <Gold.PLP.Chemscore.Internal.Correction>
0.0573

> <Gold.Rescore>
     Score         DG    S(hbond)    S(metal)    S(lipo)     H(rot)  DE(clash)    DE(int)     intcor
     15.52     -16.53       0.98        0.00     101.62       1.61       0.05       0.95       ----

> <Gold.Chemscore.Fitness>
15.5241

> <Gold.Chemscore.DG>
-16.5267

> <Gold.Chemscore.ZeroCoef>
-5.4800

> <Gold.Chemscore.Hbond>
0.9779

> <Gold.Chemscore.Metal>
0.0000

> <Gold.Chemscore.Lipo>
101.6228

> <Gold.Chemscore.Internal_Hbond>
0.0000

> <Gold.Chemscore.DEClash>
0.0502

> <Gold.Chemscore.DEInternal>
0.9525

> <Gold.Chemscore.Rot>
1.6051

> <Gold.Chemscore.Internal.Correction>
   9.000000E+99

> <Gold.Chemscore.Hbonds>
donor molecule, donor type, donor heavy atom, donor atom, acceptor molecule, acceptor atom, score
      L1  H    13    41       P1  8028  0.94

> <Gold.Chemscore.Hbond.Weighted>
-3.2660

> <Gold.Chemscore.Metal.Weighted>
-0.0000

> <Gold.Chemscore.Lipo.Weighted>
-11.8899

> <Gold.Chemscore.Internal_Hbond.Weighted>
0.0000

> <Gold.Chemscore.DEClash.Weighted>
0.0502

> <Gold.Chemscore.DEInternal.Weighted>
0.9525

> <Gold.Chemscore.Rot.Weighted>
4.1092

> <Gold.Chemscore.Internal.Correction.Weighted>
   9.000000E+99

> <Gold.Protein.RotatedTorsions>
[ 6907 6896 6895 6894 ] final   29.33 input  -60.11 | X-H torsion
[ 7974 7965 7964 7962 ] final -165.91 input  175.53 | X-H torsion
[ 8008 7997 7996 7995 ] final  -43.48 input   59.86 | X-H torsion
[ 10167 10162 10161 10158 ] final -112.97 input  -65.29 | X-H torsion
[ 10718 10713 10712 10709 ] final  -91.67 input   66.30 | X-H torsion
[ 10763 10752 10751 10750 ] final  -61.61 input  -60.55 | X-H torsion
[ 11005 11000 10999 10996 ] final   32.51 input  -57.11 | X-H torsion

> <Gold.Protein.ActiveResidues>
 VAL166  LYS551  ARG553  GLY616  TRP617  ASP618  TYR619  PRO620  LYS621  CYS622 
 ASP623  PHE694  ASN695  SER759  ASP760  ASP761  ALA762  ILE779  LEU786  VAL792 
 PHE793  MET794  SER795  GLU796  ALA797  LYS798  CYS799  TRP800  GLU811  SER814 

> <Gold.Protein.RotatedAtoms>
  152.0300  134.9773  160.0572 H   0  0  0  0  0  0  0  0  0  0  0  0  # atno 6907 bound_to 6896
  152.1254  133.4372  159.4703 H   0  0  0  0  0  0  0  0  0  0  0  0  # atno 6908 bound_to 6896
  150.6852  134.2404  159.4513 H   0  0  0  0  0  0  0  0  0  0  0  0  # atno 6909 bound_to 6896
  144.7258  140.2744  143.6245 H   0  0  0  0  0  0  0  0  0  0  0  0  # atno 7974 bound_to 7965
  154.3997  140.1447  156.3525 H   0  0  0  0  0  0  0  0  0  0  0  0  # atno 8008 bound_to 7997
  155.8255  140.3468  155.5519 H   0  0  0  0  0  0  0  0  0  0  0  0  # atno 8009 bound_to 7997
  155.8243  140.0902  157.1821 H   0  0  0  0  0  0  0  0  0  0  0  0  # atno 8010 bound_to 7997
  140.1169  143.4477  152.1716 H   0  0  0  0  0  0  0  0  0  0  0  0  # atno 10167 bound_to 10162
  155.9995  130.4957  150.5509 H   0  0  0  0  0  0  0  0  0  0  0  0  # atno 10718 bound_to 10713
  154.2872  135.6260  153.5370 H   0  0  0  0  0  0  0  0  0  0  0  0  # atno 10763 bound_to 10752
  152.9857  135.5647  154.5430 H   0  0  0  0  0  0  0  0  0  0  0  0  # atno 10764 bound_to 10752
  154.5033  135.2873  155.1378 H   0  0  0  0  0  0  0  0  0  0  0  0  # atno 10765 bound_to 10752
  140.2727  134.3063  155.7823 H   0  0  0  0  0  0  0  0  0  0  0  0  # atno 11005 bound_to 11000
  145.8011  139.1964  143.2047 LP  0  0  0  0  0  0  0  0  0  0  0  0  # atno 17320 bound_to 7965
  146.0676  140.7904  142.9704 LP  0  0  0  0  0  0  0  0  0  0  0  0  # atno 17321 bound_to 7965
  139.5589  144.7392  151.4213 LP  0  0  0  0  0  0  0  0  0  0  0  0  # atno 17342 bound_to 10162
  140.6894  143.7898  150.7233 LP  0  0  0  0  0  0  0  0  0  0  0  0  # atno 17343 bound_to 10162
  157.3432  131.0720  151.1771 LP  0  0  0  0  0  0  0  0  0  0  0  0  # atno 17370 bound_to 10713
  157.2612  130.6660  149.5976 LP  0  0  0  0  0  0  0  0  0  0  0  0  # atno 17371 bound_to 10713
  141.2175  133.7477  156.9359 LP  0  0  0  0  0  0  0  0  0  0  0  0  # atno 17394 bound_to 11000
  140.1358  134.9326  157.2399 LP  0  0  0  0  0  0  0  0  0  0  0  0  # atno 17395 bound_to 11000

$$$$
