AV-unprocessed.smi:2368|AV-procd|sdf|9430|dock2
  -GOLD-   2272013 63D 1   1.00000     0.00000
 Structure written by MMmdl.
 36 37  0  0  0  0  0  0  0  0  2 V2000
  150.5090  141.3227  155.7126 C   0  0  0  0  0  0  0  0  0  0  0  0
  149.2409  141.1092  154.9086 C   0  0  0  0  0  0  0  0  0  0  0  0
  148.3579  142.1301  154.8445 N   0  3  0  0  0  0  0  0  0  0  0  0
  147.1944  142.0544  154.1658 C   0  0  0  0  0  0  0  0  0  0  0  0
  146.8585  140.8728  153.4769 C   0  0  0  0  0  0  0  0  0  0  0  0
  147.7567  139.7760  153.4956 C   0  0  0  0  0  0  0  0  0  0  0  0
  147.4866  138.5422  152.8404 N   0  0  0  0  0  0  0  0  0  0  0  0
  146.2967  138.0300  152.4833 C   0  0  0  0  0  0  0  0  0  0  0  0
  145.2043  138.5554  152.6961 O   0  0  0  0  0  0  0  0  0  0  0  0
  146.4441  136.8645  151.8384 N   0  0  0  0  0  0  0  0  0  0  0  0
  145.3488  136.0664  151.2995 C   0  0  1  0  0  0  0  0  0  0  0  0
  145.8344  134.6954  150.9120 C   0  0  0  0  0  0  0  0  0  0  0  0
  145.1674  133.7202  151.5250 C   0  0  0  0  0  0  0  0  0  0  0  0
  144.1113  134.2418  152.4646 C   0  0  2  0  0  0  0  0  0  0  0  0
  142.7049  133.6904  152.1616 C   0  0  0  0  0  0  0  0  0  0  0  0
  141.7995  133.9570  153.2145 O   0  0  0  0  0  0  0  0  0  0  0  0
  144.2368  135.7827  152.3445 C   0  0  0  0  0  0  0  0  0  0  0  0
  148.9587  139.8964  154.2367 C   0  0  0  0  0  0  0  0  0  0  0  0
  150.0797  138.5787  154.3160 Cl  0  0  0  0  0  0  0  0  0  0  0  0
  144.9327  136.5456  150.4114 H   0  0  0  0  0  0  0  0  0  0  0  0
  144.3950  133.9382  153.4732 H   0  0  0  0  0  0  0  0  0  0  0  0
  150.5763  140.5894  156.5168 H   0  0  0  0  0  0  0  0  0  0  0  0
  150.5363  142.3176  156.1589 H   0  0  0  0  0  0  0  0  0  0  0  0
  151.3857  141.2140  155.0734 H   0  0  0  0  0  0  0  0  0  0  0  0
  146.5676  142.9338  154.1987 H   0  0  0  0  0  0  0  0  0  0  0  0
  145.9135  140.8259  152.9574 H   0  0  0  0  0  0  0  0  0  0  0  0
  148.2996  138.0353  152.5216 H   0  0  0  0  0  0  0  0  0  0  0  0
  147.3776  136.5043  151.7032 H   0  0  0  0  0  0  0  0  0  0  0  0
  146.6311  134.5477  150.1977 H   0  0  0  0  0  0  0  0  0  0  0  0
  145.3469  132.6637  151.3900 H   0  0  0  0  0  0  0  0  0  0  0  0
  142.3146  134.1357  151.2460 H   0  0  0  0  0  0  0  0  0  0  0  0
  142.7486  132.6132  151.9983 H   0  0  0  0  0  0  0  0  0  0  0  0
  141.8768  133.2702  153.8591 H   0  0  0  0  0  0  0  0  0  0  0  0
  144.4801  136.2119  153.3175 H   0  0  0  0  0  0  0  0  0  0  0  0
  143.2985  136.2420  152.0313 H   0  0  0  0  0  0  0  0  0  0  0  0
  148.5789  142.9965  155.3363 H   0  0  0  0  0  0  0  0  0  0  0  0
  1  2  1  0  0  0  0
  1 22  1  0  0  0  0
  1 23  1  0  0  0  0
  1 24  1  0  0  0  0
  2 18  1  0  0  0  0
  2  3  2  0  0  0  0
  3  4  1  0  0  0  0
  3 36  1  0  0  0  0
  4  5  2  0  0  0  0
  4 25  1  0  0  0  0
  5  6  1  0  0  0  0
  5 26  1  0  0  0  0
  6  7  1  0  0  0  0
  6 18  2  0  0  0  0
  7  8  1  0  0  0  0
  7 27  1  0  0  0  0
  8  9  2  0  0  0  0
  8 10  1  0  0  0  0
 10 11  1  0  0  0  0
 10 28  1  0  0  0  0
 11 20  1  0  0  0  0
 11 17  1  0  0  0  0
 11 12  1  0  0  0  0
 12 13  2  0  0  0  0
 12 29  1  0  0  0  0
 13 14  1  0  0  0  0
 13 30  1  0  0  0  0
 14 21  1  0  0  0  0
 14 15  1  0  0  0  0
 14 17  1  0  0  0  0
 15 16  1  0  0  0  0
 15 31  1  0  0  0  0
 15 32  1  0  0  0  0
 16 33  1  0  0  0  0
 17 34  1  0  0  0  0
 17 35  1  0  0  0  0
 18 19  1  0  0  0  0
M  CHG  1   3   1
M  END
> <s_m_source_file>
AV-unprocessed.smi

> <i_m_source_file_index>
2368

> <i_lp_mmshare_version>
43012

> <i_f3d_flags>
0

> <s_epik_input>
W0NIM11jMW5bY0hdW2NIXWMoYzFDbClbTkhdQyg9TylbTkhdW0NAQEhdMltDSF09W0NIXVtDQEBIXShbQ0gyXTIpW0NIMl1bT0hd

> <s_epik_cmdline>
J2VwaWtfcHl0aG9uJywgJy1waCcsICc3LjAnLCAnLXRuJywgJzgnLCAnLW1hJywgJzIwMCcsICctbWV0YWxfYmluZGluZycsICctaW1hZScsICc8aW5maWxlLm1hZT4nLCAnLW9tYWUnLCAnPG91dGZpbGUubWFlPic=

> <r_epik_Ionization_Penalty>
2.4467

> <r_epik_Ionization_Penalty_Charging>
2.44668

> <r_epik_Ionization_Penalty_Neutral>
1.95078e-05

> <r_epik_State_Penalty>
2.60786

> <r_epik_Charging_Adjusted_Penalty>
5.05454

> <i_epik_Tot_Q>
1

> <i_epik_Tot_abs_Q>
1

> <r_epik_Metal_State_Penalty>
2.61736

> <b_epik_Metal_Only>
0

> <s_lp_Force_Field>
OPLS_2005

> <r_lp_Energy>
27.7863

> <b_lp_Chiralities_Consistent>
1

> <s_lp_Variant>
AV-unprocessed.smi:2368-6

> <Gold.Version>
5.8.1

> <Gold.Id.Protein>
6NUR|6NUR_protein|mol2

> <Gold.PLP.Fitness>
47.4727

> <Gold.PLP.PLP>
-33.4603

> <Gold.PLP.part.hbond>
-4.9324

> <Gold.PLP.part.metal>
0.0000

> <Gold.PLP.part.buried>
-2.2916

> <Gold.PLP.part.nonpolar>
-31.9493

> <Gold.PLP.part.repulsive>
4.8384

> <Gold.PLP.ligand.clash>
0.0000

> <Gold.PLP.ligand.torsion>
0.3069

> <Gold.PLP.Chemscore.Hbond>
4.8712

> <Gold.PLP.Chemscore.CHOScore>
0.0000

> <Gold.PLP.Chemscore.Metal>
0.0000

> <Gold.Chemscore.Hbonds>
donor molecule, donor type, donor heavy atom, donor atom, acceptor molecule, acceptor atom, score
      L1  H     3    36       P1  8028  2.00
      L1  H     7    27       P1  7948  0.90
      L1  H    10    28       P1  7948  1.00
      L1  H    16    33       P1 10957  1.00

> <Gold.PLP.Chemscore.Internal.Correction>
0.0124

> <Gold.Rescore>
     Score         DG    S(hbond)    S(metal)    S(lipo)     H(rot)  DE(clash)    DE(int)     intcor
     19.17     -23.13       3.90        0.00      79.05       1.81       1.65       2.31       ----

> <Gold.Chemscore.Fitness>
19.1691

> <Gold.Chemscore.DG>
-23.1280

> <Gold.Chemscore.ZeroCoef>
-5.4800

> <Gold.Chemscore.Hbond>
3.8991

> <Gold.Chemscore.Metal>
0.0000

> <Gold.Chemscore.Lipo>
79.0481

> <Gold.Chemscore.Internal_Hbond>
0.0000

> <Gold.Chemscore.DEClash>
1.6482

> <Gold.Chemscore.DEInternal>
2.3107

> <Gold.Chemscore.Rot>
1.8061

> <Gold.Chemscore.Internal.Correction>
   9.000000E+99

> <Gold.Chemscore.Hbonds>
donor molecule, donor type, donor heavy atom, donor atom, acceptor molecule, acceptor atom, score
      L1  H     3    36       P1  8028  1.00
      L1  H     7    27       P1  7948  0.85
      L1  H    10    28       P1  7948  0.97
      L1  H    16    33       P1 10957  0.98

> <Gold.Chemscore.Hbond.Weighted>
-13.0231

> <Gold.Chemscore.Metal.Weighted>
-0.0000

> <Gold.Chemscore.Lipo.Weighted>
-9.2486

> <Gold.Chemscore.Internal_Hbond.Weighted>
0.0000

> <Gold.Chemscore.DEClash.Weighted>
1.6482

> <Gold.Chemscore.DEInternal.Weighted>
2.3107

> <Gold.Chemscore.Rot.Weighted>
4.6237

> <Gold.Chemscore.Internal.Correction.Weighted>
   9.000000E+99

> <Gold.Protein.RotatedTorsions>
[ 6907 6896 6895 6894 ] final  -23.83 input  -60.11 | X-H torsion
[ 7974 7965 7964 7962 ] final   77.22 input  175.53 | X-H torsion
[ 8008 7997 7996 7995 ] final  147.64 input   59.86 | X-H torsion
[ 10167 10162 10161 10158 ] final   37.63 input  -65.29 | X-H torsion
[ 10718 10713 10712 10709 ] final  -59.82 input   66.30 | X-H torsion
[ 10763 10752 10751 10750 ] final  -41.93 input  -60.55 | X-H torsion
[ 11005 11000 10999 10996 ] final  139.04 input  -57.11 | X-H torsion

> <Gold.Protein.ActiveResidues>
 VAL166  LYS551  ARG553  GLY616  TRP617  ASP618  TYR619  PRO620  LYS621  CYS622 
 ASP623  PHE694  ASN695  SER759  ASP760  ASP761  ALA762  ILE779  LEU786  VAL792 
 PHE793  MET794  SER795  GLU796  ALA797  LYS798  CYS799  TRP800  GLU811  SER814 

> <Gold.Protein.RotatedAtoms>
  151.1983  135.0432  159.8861 H   0  0  0  0  0  0  0  0  0  0  0  0  # atno 6907 bound_to 6896
  152.5434  134.0879  159.8274 H   0  0  0  0  0  0  0  0  0  0  0  0  # atno 6908 bound_to 6896
  151.1016  133.5192  159.2642 H   0  0  0  0  0  0  0  0  0  0  0  0  # atno 6909 bound_to 6896
  145.6929  139.2558  143.1749 H   0  0  0  0  0  0  0  0  0  0  0  0  # atno 7974 bound_to 7965
  156.2818  140.2150  156.5571 H   0  0  0  0  0  0  0  0  0  0  0  0  # atno 8008 bound_to 7997
  154.7243  140.0501  157.0691 H   0  0  0  0  0  0  0  0  0  0  0  0  # atno 8009 bound_to 7997
  155.0436  140.3148  155.4719 H   0  0  0  0  0  0  0  0  0  0  0  0  # atno 8010 bound_to 7997
  140.4014  144.1719  150.6134 H   0  0  0  0  0  0  0  0  0  0  0  0  # atno 10167 bound_to 10162
  156.1034  130.4183  150.0768 H   0  0  0  0  0  0  0  0  0  0  0  0  # atno 10718 bound_to 10713
  153.9706  135.6729  153.4747 H   0  0  0  0  0  0  0  0  0  0  0  0  # atno 10763 bound_to 10752
  153.0795  135.4931  154.8469 H   0  0  0  0  0  0  0  0  0  0  0  0  # atno 10764 bound_to 10752
  154.7221  135.3119  154.8991 H   0  0  0  0  0  0  0  0  0  0  0  0  # atno 10765 bound_to 10752
  140.0226  134.9389  157.0505 H   0  0  0  0  0  0  0  0  0  0  0  0  # atno 11005 bound_to 11000
  146.0866  140.7704  142.9615 LP  0  0  0  0  0  0  0  0  0  0  0  0  # atno 17320 bound_to 7965
  144.6991  140.3572  143.7171 LP  0  0  0  0  0  0  0  0  0  0  0  0  # atno 17321 bound_to 7965
  140.4736  143.2404  151.9054 LP  0  0  0  0  0  0  0  0  0  0  0  0  # atno 17342 bound_to 10162
  139.4784  144.5344  151.8620 LP  0  0  0  0  0  0  0  0  0  0  0  0  # atno 17343 bound_to 10162
  156.8749  130.9537  151.3605 LP  0  0  0  0  0  0  0  0  0  0  0  0  # atno 17370 bound_to 10713
  157.6208  130.8653  149.9105 LP  0  0  0  0  0  0  0  0  0  0  0  0  # atno 17371 bound_to 10713
  140.4361  134.1730  155.7171 LP  0  0  0  0  0  0  0  0  0  0  0  0  # atno 17394 bound_to 11000
  141.1783  133.8467  157.1345 LP  0  0  0  0  0  0  0  0  0  0  0  0  # atno 17395 bound_to 11000

$$$$
