AV-unprocessed.smi:1795|AV-procd|sdf|7239|dock2
  -GOLD-   22720 8483D 1   1.00000     0.00000
 Structure written by MMmdl.
 47 48  0  0  0  0  0  0  0  0  1 V2000
  147.2401  141.2372  154.6006 C   0  0  0  0  0  0  0  0  0  0  0  0
  148.6671  141.0949  154.0433 C   0  0  2  0  0  0  0  0  0  0  0  0
  149.1551  139.6335  153.9805 C   0  0  0  0  0  0  0  0  0  0  0  0
  149.5004  139.0697  155.2913 N   0  0  0  0  0  0  0  0  0  0  0  0
  149.9914  137.6740  155.2022 C   0  0  1  0  0  0  0  0  0  0  0  0
  151.2796  137.5434  154.3488 C   0  0  0  0  0  0  0  0  0  0  0  0
  150.2473  137.0258  156.5908 C   0  0  0  0  0  0  0  0  0  0  0  0
  149.0986  137.1514  157.4823 N   0  0  0  0  0  0  0  0  0  0  0  0
  148.6940  136.2157  158.3530 C   0  0  0  0  0  0  0  0  0  0  0  0
  149.2668  135.1341  158.4940 O   0  0  0  0  0  0  0  0  0  0  0  0
  147.4473  136.5689  159.1778 C   0  0  0  0  0  0  0  0  0  0  0  0
  147.1434  135.5939  160.2387 N   0  0  0  0  0  0  0  0  0  0  0  0
  147.0294  134.2438  159.8512 C   0  0  0  0  0  0  0  0  0  0  0  0
  146.7578  133.2714  160.7358 C   0  0  0  0  0  0  0  0  0  0  0  0
  146.5799  133.6391  162.1205 C   0  0  0  0  0  0  0  0  0  0  0  0
  146.6915  134.9267  162.5030 C   0  0  0  0  0  0  0  0  0  0  0  0
  146.9909  135.9926  161.5395 C   0  0  0  0  0  0  0  0  0  0  0  0
  147.0978  137.1709  161.8810 O   0  0  0  0  0  0  0  0  0  0  0  0
  150.4657  139.9704  155.9282 C   0  0  0  0  0  0  0  0  0  0  0  0
  149.9452  141.4136  156.0479 C   0  0  1  0  0  0  0  0  0  0  0  0
  150.9937  142.3561  156.6488 C   0  0  0  0  0  0  0  0  0  0  0  0
  149.6007  141.9025  154.7564 O   0  0  0  0  0  0  0  0  0  0  0  0
  146.5231  140.7159  153.9661 H   0  0  0  0  0  0  0  0  0  0  0  0
  146.9413  142.2846  154.6432 H   0  0  0  0  0  0  0  0  0  0  0  0
  147.1478  140.8209  155.6033 H   0  0  0  0  0  0  0  0  0  0  0  0
  148.6471  141.4830  153.0246 H   0  0  0  0  0  0  0  0  0  0  0  0
  148.3690  139.0556  153.4996 H   0  0  0  0  0  0  0  0  0  0  0  0
  150.0259  139.5810  153.3250 H   0  0  0  0  0  0  0  0  0  0  0  0
  149.2216  137.0788  154.7082 H   0  0  0  0  0  0  0  0  0  0  0  0
  151.6795  136.5300  154.3445 H   0  0  0  0  0  0  0  0  0  0  0  0
  152.0660  138.2018  154.7199 H   0  0  0  0  0  0  0  0  0  0  0  0
  151.1054  137.7816  153.3006 H   0  0  0  0  0  0  0  0  0  0  0  0
  150.5192  135.9770  156.4586 H   0  0  0  0  0  0  0  0  0  0  0  0
  151.0713  137.5044  157.1166 H   0  0  0  0  0  0  0  0  0  0  0  0
  148.5720  138.0113  157.4285 H   0  0  0  0  0  0  0  0  0  0  0  0
  147.5774  137.5659  159.6030 H   0  0  0  0  0  0  0  0  0  0  0  0
  146.5992  136.6598  158.4973 H   0  0  0  0  0  0  0  0  0  0  0  0
  147.1833  134.0528  158.7991 H   0  0  0  0  0  0  0  0  0  0  0  0
  146.6784  132.2411  160.4211 H   0  0  0  0  0  0  0  0  0  0  0  0
  146.3578  132.8775  162.8535 H   0  0  0  0  0  0  0  0  0  0  0  0
  146.5572  135.1826  163.5438 H   0  0  0  0  0  0  0  0  0  0  0  0
  150.6948  139.6344  156.9376 H   0  0  0  0  0  0  0  0  0  0  0  0
  151.4032  139.9614  155.3699 H   0  0  0  0  0  0  0  0  0  0  0  0
  149.0645  141.4302  156.6905 H   0  0  0  0  0  0  0  0  0  0  0  0
  151.2810  142.0356  157.6504 H   0  0  0  0  0  0  0  0  0  0  0  0
  150.6061  143.3722  156.7246 H   0  0  0  0  0  0  0  0  0  0  0  0
  151.8946  142.3877  156.0352 H   0  0  0  0  0  0  0  0  0  0  0  0
  1  2  1  0  0  0  0
  1 23  1  0  0  0  0
  1 24  1  0  0  0  0
  1 25  1  0  0  0  0
  2 22  1  0  0  0  0
  2  3  1  0  0  0  0
  2 26  1  0  0  0  0
  3  4  1  0  0  0  0
  3 27  1  0  0  0  0
  3 28  1  0  0  0  0
  4  5  1  0  0  0  0
  4 19  1  0  0  0  0
  5  6  1  0  0  0  0
  5  7  1  0  0  0  0
  5 29  1  0  0  0  0
  6 30  1  0  0  0  0
  6 31  1  0  0  0  0
  6 32  1  0  0  0  0
  7  8  1  0  0  0  0
  7 33  1  0  0  0  0
  7 34  1  0  0  0  0
  8  9  1  0  0  0  0
  8 35  1  0  0  0  0
  9 10  2  0  0  0  0
  9 11  1  0  0  0  0
 11 12  1  0  0  0  0
 11 36  1  0  0  0  0
 11 37  1  0  0  0  0
 12 17  1  0  0  0  0
 12 13  1  0  0  0  0
 13 14  2  0  0  0  0
 13 38  1  0  0  0  0
 14 15  1  0  0  0  0
 14 39  1  0  0  0  0
 15 16  2  0  0  0  0
 15 40  1  0  0  0  0
 16 17  1  0  0  0  0
 16 41  1  0  0  0  0
 17 18  2  0  0  0  0
 19 20  1  0  0  0  0
 19 42  1  0  0  0  0
 19 43  1  0  0  0  0
 20 21  1  0  0  0  0
 20 22  1  0  0  0  0
 20 44  1  0  0  0  0
 21 45  1  0  0  0  0
 21 46  1  0  0  0  0
 21 47  1  0  0  0  0
M  END
> <s_m_source_file>
AV-unprocessed.smi

> <i_m_source_file_index>
1795

> <i_lp_mmshare_version>
43012

> <i_f3d_flags>
0

> <s_epik_input>
W0NIM11bQ0BASF0xW0NIMl1OKFtDSDJdW0NASF0oTzEpW0NIM10pW0NASF0oW0NIM10pW0NIMl1bTkhdQyg9TylbQ0gyXW4yW2NIXVtjSF1bY0hdW2NIXWMyPU8=

> <s_epik_cmdline>
J2VwaWtfcHl0aG9uJywgJy1waCcsICc3LjAnLCAnLXRuJywgJzgnLCAnLW1hJywgJzIwMCcsICctbWV0YWxfYmluZGluZycsICctaW1hZScsICc8aW5maWxlLm1hZT4nLCAnLW9tYWUnLCAnPG91dGZpbGUubWFlPic=

> <r_lp_tautomer_probability>
1

> <r_epik_Ionization_Penalty>
0.237383

> <r_epik_Ionization_Penalty_Charging>
3.58805e-07

> <r_epik_Ionization_Penalty_Neutral>
0.237382

> <r_epik_State_Penalty>
0.228245

> <r_epik_Charging_Adjusted_Penalty>
0.228245

> <i_epik_Tot_Q>
0

> <i_epik_Tot_abs_Q>
0

> <r_epik_Metal_State_Penalty>
0.228221

> <b_epik_Metal_Only>
0

> <s_lp_Force_Field>
OPLS_2005

> <r_lp_Energy>
40.7521

> <b_lp_Chiralities_Consistent>
1

> <s_lp_Variant>
AV-unprocessed.smi:1795-3

> <Gold.Version>
5.8.1

> <Gold.Id.Protein>
6NUR|6NUR_protein|mol2

> <Gold.PLP.Fitness>
45.7916

> <Gold.PLP.PLP>
-39.0199

> <Gold.PLP.part.hbond>
-4.5982

> <Gold.PLP.part.metal>
0.0000

> <Gold.PLP.part.buried>
-1.5288

> <Gold.PLP.part.nonpolar>
-34.2322

> <Gold.PLP.part.repulsive>
1.0195

> <Gold.PLP.ligand.clash>
0.0000

> <Gold.PLP.ligand.torsion>
0.2840

> <Gold.PLP.Chemscore.Hbond>
2.4187

> <Gold.PLP.Chemscore.CHOScore>
0.0000

> <Gold.PLP.Chemscore.Metal>
0.0000

> <Gold.Chemscore.Hbonds>
donor molecule, donor type, donor heavy atom, donor atom, acceptor molecule, acceptor atom, score
      P1  H  6896  6908       L1    10  1.00
      P1  H  6931  6943       L1    18  0.46
      P1  H  6934  6947       L1    18  0.76

> <Gold.PLP.Chemscore.Internal.Correction>
0.0837

> <Gold.Rescore>
     Score         DG    S(hbond)    S(metal)    S(lipo)     H(rot)  DE(clash)    DE(int)     intcor
     16.15     -18.52       2.33        0.00      84.96       1.83       0.86       1.51       ----

> <Gold.Chemscore.Fitness>
16.1549

> <Gold.Chemscore.DG>
-18.5234

> <Gold.Chemscore.ZeroCoef>
-5.4800

> <Gold.Chemscore.Hbond>
2.3279

> <Gold.Chemscore.Metal>
0.0000

> <Gold.Chemscore.Lipo>
84.9615

> <Gold.Chemscore.Internal_Hbond>
0.0000

> <Gold.Chemscore.DEClash>
0.8614

> <Gold.Chemscore.DEInternal>
1.5071

> <Gold.Chemscore.Rot>
1.8251

> <Gold.Chemscore.Internal.Correction>
   9.000000E+99

> <Gold.Chemscore.Hbonds>
donor molecule, donor type, donor heavy atom, donor atom, acceptor molecule, acceptor atom, score
      P1  H  6896  6908       L1    10  1.00
      P1  H  6931  6943       L1    18  0.47
      P1  H  6934  6947       L1    18  0.72

> <Gold.Chemscore.Hbond.Weighted>
-7.7752

> <Gold.Chemscore.Metal.Weighted>
-0.0000

> <Gold.Chemscore.Lipo.Weighted>
-9.9405

> <Gold.Chemscore.Internal_Hbond.Weighted>
0.0000

> <Gold.Chemscore.DEClash.Weighted>
0.8614

> <Gold.Chemscore.DEInternal.Weighted>
1.5071

> <Gold.Chemscore.Rot.Weighted>
4.6724

> <Gold.Chemscore.Internal.Correction.Weighted>
   9.000000E+99

> <Gold.Protein.RotatedTorsions>
[ 6907 6896 6895 6894 ] final  172.19 input  -60.11 | X-H torsion
[ 7974 7965 7964 7962 ] final  -54.14 input  175.53 | X-H torsion
[ 8008 7997 7996 7995 ] final   77.87 input   59.86 | X-H torsion
[ 10167 10162 10161 10158 ] final   89.88 input  -65.29 | X-H torsion
[ 10718 10713 10712 10709 ] final  -24.30 input   66.30 | X-H torsion
[ 10763 10752 10751 10750 ] final   -2.95 input  -60.55 | X-H torsion
[ 11005 11000 10999 10996 ] final   -7.64 input  -57.11 | X-H torsion

> <Gold.Protein.ActiveResidues>
 VAL166  LYS551  ARG553  GLY616  TRP617  ASP618  TYR619  PRO620  LYS621  CYS622 
 ASP623  PHE694  ASN695  SER759  ASP760  ASP761  ALA762  ILE779  LEU786  VAL792 
 PHE793  MET794  SER795  GLU796  ALA797  LYS798  CYS799  TRP800  GLU811  SER814 

> <Gold.Protein.RotatedAtoms>
  151.7883  133.3356  159.3491 H   0  0  0  0  0  0  0  0  0  0  0  0  # atno 6907 bound_to 6896
  150.7401  134.5866  159.5975 H   0  0  0  0  0  0  0  0  0  0  0  0  # atno 6908 bound_to 6896
  152.3228  134.7360  160.0361 H   0  0  0  0  0  0  0  0  0  0  0  0  # atno 6909 bound_to 6896
  145.8889  140.8086  142.9802 H   0  0  0  0  0  0  0  0  0  0  0  0  # atno 7974 bound_to 7965
  155.8478  140.3459  155.5673 H   0  0  0  0  0  0  0  0  0  0  0  0  # atno 8008 bound_to 7997
  155.8071  140.0893  157.1944 H   0  0  0  0  0  0  0  0  0  0  0  0  # atno 8009 bound_to 7997
  154.4006  140.1454  156.3330 H   0  0  0  0  0  0  0  0  0  0  0  0  # atno 8010 bound_to 7997
  139.8529  144.6584  150.9149 H   0  0  0  0  0  0  0  0  0  0  0  0  # atno 10167 bound_to 10162
  156.4794  130.4542  149.6820 H   0  0  0  0  0  0  0  0  0  0  0  0  # atno 10718 bound_to 10713
  153.3649  135.6992  153.6683 H   0  0  0  0  0  0  0  0  0  0  0  0  # atno 10763 bound_to 10752
  153.5357  135.3583  155.2696 H   0  0  0  0  0  0  0  0  0  0  0  0  # atno 10764 bound_to 10752
  154.8673  135.4191  154.2914 H   0  0  0  0  0  0  0  0  0  0  0  0  # atno 10765 bound_to 10752
  140.7149  133.8877  155.8778 H   0  0  0  0  0  0  0  0  0  0  0  0  # atno 11005 bound_to 11000
  144.6729  140.1498  143.7431 LP  0  0  0  0  0  0  0  0  0  0  0  0  # atno 17320 bound_to 7965
  145.8933  139.2388  143.1537 LP  0  0  0  0  0  0  0  0  0  0  0  0  # atno 17321 bound_to 7965
  140.7785  143.3812  151.1474 LP  0  0  0  0  0  0  0  0  0  0  0  0  # atno 17342 bound_to 10162
  139.7448  143.8868  152.3060 LP  0  0  0  0  0  0  0  0  0  0  0  0  # atno 17343 bound_to 10162
  156.3537  130.7445  151.2408 LP  0  0  0  0  0  0  0  0  0  0  0  0  # atno 17370 bound_to 10713
  157.7484  131.0370  150.4435 LP  0  0  0  0  0  0  0  0  0  0  0  0  # atno 17371 bound_to 10713
  141.0053  134.1095  157.4277 LP  0  0  0  0  0  0  0  0  0  0  0  0  # atno 17394 bound_to 11000
  139.8862  135.0079  156.6484 LP  0  0  0  0  0  0  0  0  0  0  0  0  # atno 17395 bound_to 11000

$$$$
