AV-unprocessed.smi:1686|AV-procd|sdf|6760|dock7
  -GOLD-   22720 7523D 1   1.00000     0.00000
 Structure written by MMmdl.
 41 43  0  0  0  0  0  0  0  0  1 V2000
  150.0317  135.7197  155.3055 C   0  0  0  0  0  0  0  0  0  0  0  0
  150.8032  136.9687  155.6218 C   0  0  0  0  0  0  0  0  0  0  0  0
  151.8976  137.2498  154.9271 N   0  0  0  0  0  0  0  0  0  0  0  0
  152.3871  138.4588  155.4343 O   0  0  0  0  0  0  0  0  0  0  0  0
  151.5473  138.8426  156.4227 C   0  0  0  0  0  0  0  0  0  0  0  0
  151.7731  140.2990  157.3072 Cl  0  0  0  0  0  0  0  0  0  0  0  0
  150.5215  137.9604  156.6069 C   0  0  0  0  0  0  0  0  0  0  0  0
  149.3683  138.0197  157.5791 C   0  0  0  0  0  0  0  0  0  0  0  0
  149.4353  136.8210  158.5265 C   0  0  0  0  0  0  0  0  0  0  0  0
  150.4680  136.5876  159.1531 O   0  0  0  0  0  0  0  0  0  0  0  0
  148.3147  136.0903  158.6357 N   0  0  0  0  0  0  0  0  0  0  0  0
  148.0765  135.0139  159.5923 C   0  0  2  0  0  0  0  0  0  0  0  0
  147.8406  133.7081  158.8162 C   0  0  0  0  0  0  0  0  0  0  0  0
  146.8795  135.3936  160.4980 C   0  0  1  0  0  0  0  0  0  0  0  0
  146.4545  134.2702  161.4742 C   0  0  0  0  0  0  0  0  0  0  0  0
  146.4674  134.9688  162.8453 C   0  0  2  0  0  0  0  0  0  0  0  0
  145.3175  135.9905  162.9166 C   0  0  0  0  0  0  0  0  0  0  0  0
  145.8077  137.1169  161.9881 C   0  0  0  0  0  0  0  0  0  0  0  0
  147.1524  136.5701  161.4737 C   0  0  1  0  0  0  0  0  0  0  0  0
  147.6889  135.8688  162.7168 C   0  0  0  0  0  0  0  0  0  0  0  0
  148.9640  135.8625  155.4711 H   0  0  0  0  0  0  0  0  0  0  0  0
  150.3578  134.8914  155.9349 H   0  0  0  0  0  0  0  0  0  0  0  0
  150.1634  135.4200  154.2652 H   0  0  0  0  0  0  0  0  0  0  0  0
  149.3863  138.9361  158.1697 H   0  0  0  0  0  0  0  0  0  0  0  0
  148.4108  138.0134  157.0569 H   0  0  0  0  0  0  0  0  0  0  0  0
  147.5269  136.3621  158.0660 H   0  0  0  0  0  0  0  0  0  0  0  0
  148.9566  134.8783  160.2231 H   0  0  0  0  0  0  0  0  0  0  0  0
  147.6841  132.8639  159.4875 H   0  0  0  0  0  0  0  0  0  0  0  0
  148.6990  133.4676  158.1881 H   0  0  0  0  0  0  0  0  0  0  0  0
  146.9662  133.7832  158.1689 H   0  0  0  0  0  0  0  0  0  0  0  0
  146.0397  135.6532  159.8511 H   0  0  0  0  0  0  0  0  0  0  0  0
  145.4767  133.8544  161.2285 H   0  0  0  0  0  0  0  0  0  0  0  0
  147.1713  133.4482  161.4747 H   0  0  0  0  0  0  0  0  0  0  0  0
  146.4913  134.2769  163.6877 H   0  0  0  0  0  0  0  0  0  0  0  0
  144.3674  135.5659  162.5906 H   0  0  0  0  0  0  0  0  0  0  0  0
  145.1881  136.3619  163.9338 H   0  0  0  0  0  0  0  0  0  0  0  0
  145.1061  137.3318  161.1812 H   0  0  0  0  0  0  0  0  0  0  0  0
  145.9574  138.0387  162.5518 H   0  0  0  0  0  0  0  0  0  0  0  0
  147.8001  137.3540  161.0818 H   0  0  0  0  0  0  0  0  0  0  0  0
  147.8244  136.5390  163.5675 H   0  0  0  0  0  0  0  0  0  0  0  0
  148.6167  135.3214  162.5428 H   0  0  0  0  0  0  0  0  0  0  0  0
  1  2  1  0  0  0  0
  1 21  1  0  0  0  0
  1 22  1  0  0  0  0
  1 23  1  0  0  0  0
  2  7  1  0  0  0  0
  2  3  2  0  0  0  0
  3  4  1  0  0  0  0
  4  5  1  0  0  0  0
  5  6  1  0  0  0  0
  5  7  2  0  0  0  0
  7  8  1  0  0  0  0
  8  9  1  0  0  0  0
  8 24  1  0  0  0  0
  8 25  1  0  0  0  0
  9 10  2  0  0  0  0
  9 11  1  0  0  0  0
 11 12  1  0  0  0  0
 11 26  1  0  0  0  0
 12 13  1  0  0  0  0
 12 14  1  0  0  0  0
 12 27  1  0  0  0  0
 13 28  1  0  0  0  0
 13 29  1  0  0  0  0
 13 30  1  0  0  0  0
 14 19  1  0  0  0  0
 14 15  1  0  0  0  0
 14 31  1  0  0  0  0
 15 16  1  0  0  0  0
 15 32  1  0  0  0  0
 15 33  1  0  0  0  0
 16 20  1  0  0  0  0
 16 17  1  0  0  0  0
 16 34  1  0  0  0  0
 17 18  1  0  0  0  0
 17 35  1  0  0  0  0
 17 36  1  0  0  0  0
 18 19  1  0  0  0  0
 18 37  1  0  0  0  0
 18 38  1  0  0  0  0
 19 20  1  0  0  0  0
 19 39  1  0  0  0  0
 20 40  1  0  0  0  0
 20 41  1  0  0  0  0
M  END
> <s_m_source_file>
AV-unprocessed.smi

> <i_m_source_file_index>
1686

> <i_lp_mmshare_version>
43012

> <i_f3d_flags>
0

> <s_epik_input>
W0NIM11jMW5vYyhDbCljMVtDSDJdQyg9TylbTkhdW0NASF0oW0NIM10pW0NASF0oW0NIMl1bQ0BIXTIzKVtDQEhdKFtDSDJdMylbQ0gyXVtDSDJdMg==

> <s_epik_cmdline>
J2VwaWtfcHl0aG9uJywgJy1waCcsICc3LjAnLCAnLXRuJywgJzgnLCAnLW1hJywgJzIwMCcsICctbWV0YWxfYmluZGluZycsICctaW1hZScsICc8aW5maWxlLm1hZT4nLCAnLW9tYWUnLCAnPG91dGZpbGUubWFlPic=

> <r_lp_tautomer_probability>
1

> <r_epik_Ionization_Penalty>
2.01576e-08

> <r_epik_Ionization_Penalty_Charging>
0

> <r_epik_Ionization_Penalty_Neutral>
2.01576e-08

> <r_epik_State_Penalty>
-0

> <r_epik_Charging_Adjusted_Penalty>
0

> <i_epik_Tot_Q>
0

> <i_epik_Tot_abs_Q>
0

> <r_epik_Metal_State_Penalty>
-0

> <b_epik_Metal_Only>
0

> <s_lp_Force_Field>
OPLS_2005

> <r_lp_Energy>
45.33

> <b_lp_Chiralities_Consistent>
1

> <s_lp_Variant>
AV-unprocessed.smi:1686-3

> <Gold.Version>
5.8.1

> <Gold.Id.Protein>
6NUR|6NUR_protein|mol2

> <Gold.PLP.Fitness>
37.7418

> <Gold.PLP.PLP>
-30.6746

> <Gold.PLP.part.hbond>
-3.0000

> <Gold.PLP.part.metal>
0.0000

> <Gold.PLP.part.buried>
-5.9358

> <Gold.PLP.part.nonpolar>
-23.5940

> <Gold.PLP.part.repulsive>
0.1469

> <Gold.PLP.ligand.clash>
0.0000

> <Gold.PLP.ligand.torsion>
0.1196

> <Gold.PLP.Chemscore.Hbond>
2.4293

> <Gold.PLP.Chemscore.CHOScore>
0.0000

> <Gold.PLP.Chemscore.Metal>
0.0000

> <Gold.Chemscore.Hbonds>
donor molecule, donor type, donor heavy atom, donor atom, acceptor molecule, acceptor atom, score
      P1  H  6896  6907       L1    10  1.00
      P1  H 10752 10763       L1     3  0.90

> <Gold.PLP.Chemscore.Internal.Correction>
0.0186

> <Gold.Rescore>
     Score         DG    S(hbond)    S(metal)    S(lipo)     H(rot)  DE(clash)    DE(int)     intcor
     18.42     -18.63       1.99        0.00      87.72       1.46       0.01       0.20       ----

> <Gold.Chemscore.Fitness>
18.4194

> <Gold.Chemscore.DG>
-18.6285

> <Gold.Chemscore.ZeroCoef>
-5.4800

> <Gold.Chemscore.Hbond>
1.9867

> <Gold.Chemscore.Metal>
0.0000

> <Gold.Chemscore.Lipo>
87.7175

> <Gold.Chemscore.Internal_Hbond>
0.0000

> <Gold.Chemscore.DEClash>
0.0059

> <Gold.Chemscore.DEInternal>
0.2031

> <Gold.Chemscore.Rot>
1.4648

> <Gold.Chemscore.Internal.Correction>
   9.000000E+99

> <Gold.Chemscore.Hbonds>
donor molecule, donor type, donor heavy atom, donor atom, acceptor molecule, acceptor atom, score
      P1  H  6896  6907       L1    10  0.99
      P1  H 10752 10763       L1     3  0.63

> <Gold.Chemscore.Hbond.Weighted>
-6.6355

> <Gold.Chemscore.Metal.Weighted>
-0.0000

> <Gold.Chemscore.Lipo.Weighted>
-10.2630

> <Gold.Chemscore.Internal_Hbond.Weighted>
0.0000

> <Gold.Chemscore.DEClash.Weighted>
0.0059

> <Gold.Chemscore.DEInternal.Weighted>
0.2031

> <Gold.Chemscore.Rot.Weighted>
3.7500

> <Gold.Chemscore.Internal.Correction.Weighted>
   9.000000E+99

> <Gold.Protein.RotatedTorsions>
[ 6907 6896 6895 6894 ] final  -42.32 input  -60.11 | X-H torsion
[ 7974 7965 7964 7962 ] final  -23.14 input  175.53 | X-H torsion
[ 8008 7997 7996 7995 ] final -158.07 input   59.86 | X-H torsion
[ 10167 10162 10161 10158 ] final  -89.19 input  -65.29 | X-H torsion
[ 10718 10713 10712 10709 ] final -171.92 input   66.30 | X-H torsion
[ 10763 10752 10751 10750 ] final   65.66 input  -60.55 | X-H torsion
[ 11005 11000 10999 10996 ] final  -14.34 input  -57.11 | X-H torsion

> <Gold.Protein.ActiveResidues>
 VAL166  LYS551  ARG553  GLY616  TRP617  ASP618  TYR619  PRO620  LYS621  CYS622 
 ASP623  PHE694  ASN695  SER759  ASP760  ASP761  ALA762  ILE779  LEU786  VAL792 
 PHE793  MET794  SER795  GLU796  ALA797  LYS798  CYS799  TRP800  GLU811  SER814 

> <Gold.Protein.RotatedAtoms>
  150.9566  134.8959  159.7704 H   0  0  0  0  0  0  0  0  0  0  0  0  # atno 6907 bound_to 6896
  152.5140  134.3732  159.9335 H   0  0  0  0  0  0  0  0  0  0  0  0  # atno 6908 bound_to 6896
  151.3745  133.3802  159.2738 H   0  0  0  0  0  0  0  0  0  0  0  0  # atno 6909 bound_to 6896
  146.1634  140.4575  142.8562 H   0  0  0  0  0  0  0  0  0  0  0  0  # atno 7974 bound_to 7965
  155.7420  140.0815  157.2241 H   0  0  0  0  0  0  0  0  0  0  0  0  # atno 8008 bound_to 7997
  154.4021  140.1576  156.2682 H   0  0  0  0  0  0  0  0  0  0  0  0  # atno 8009 bound_to 7997
  155.9011  140.3409  155.6030 H   0  0  0  0  0  0  0  0  0  0  0  0  # atno 8010 bound_to 7997
  140.3673  143.2812  151.9543 H   0  0  0  0  0  0  0  0  0  0  0  0  # atno 10167 bound_to 10162
  156.7480  130.9367  151.3113 H   0  0  0  0  0  0  0  0  0  0  0  0  # atno 10718 bound_to 10713
  153.0106  135.5349  154.6702 H   0  0  0  0  0  0  0  0  0  0  0  0  # atno 10763 bound_to 10752
  154.5888  135.2857  155.0659 H   0  0  0  0  0  0  0  0  0  0  0  0  # atno 10764 bound_to 10752
  154.1760  135.6524  153.5074 H   0  0  0  0  0  0  0  0  0  0  0  0  # atno 10765 bound_to 10752
  140.7854  133.8329  155.9330 H   0  0  0  0  0  0  0  0  0  0  0  0  # atno 11005 bound_to 11000
  144.8058  140.6297  143.6448 LP  0  0  0  0  0  0  0  0  0  0  0  0  # atno 17320 bound_to 7965
  145.4530  139.1521  143.3908 LP  0  0  0  0  0  0  0  0  0  0  0  0  # atno 17321 bound_to 7965
  139.4807  144.5939  151.7724 LP  0  0  0  0  0  0  0  0  0  0  0  0  # atno 17342 bound_to 10162
  140.5068  144.1085  150.5985 LP  0  0  0  0  0  0  0  0  0  0  0  0  # atno 17343 bound_to 10162
  157.6790  130.9121  150.0219 LP  0  0  0  0  0  0  0  0  0  0  0  0  # atno 17370 bound_to 10713
  156.1420  130.3642  149.9567 LP  0  0  0  0  0  0  0  0  0  0  0  0  # atno 17371 bound_to 10713
  140.9441  134.1862  157.4776 LP  0  0  0  0  0  0  0  0  0  0  0  0  # atno 17394 bound_to 11000
  139.8737  134.9883  156.5409 LP  0  0  0  0  0  0  0  0  0  0  0  0  # atno 17395 bound_to 11000

$$$$
