AV-unprocessed.smi:2706|AV-procd|sdf|10444|dock9
  -GOLD-   2272014483D 1   1.00000     0.00000
 Structure written by MMmdl.
 43 46  0  0  0  0  0  0  0  0  1 V2000
  150.4033  137.7787  154.8169 C   0  0  0  0  0  0  0  0  0  0  0  0
  150.0874  139.1766  155.0824 N   0  0  0  0  0  0  0  0  0  0  0  0
  150.9470  139.9646  155.9601 C   0  0  0  0  0  0  0  0  0  0  0  0
  148.9801  139.7880  154.4513 C   0  0  0  0  0  0  0  0  0  0  0  0
  148.7406  141.1792  154.5575 C   0  0  0  0  0  0  0  0  0  0  0  0
  147.6205  141.7284  153.9082 C   0  0  0  0  0  0  0  0  0  0  0  0
  146.7733  140.8795  153.1741 C   0  0  0  0  0  0  0  0  0  0  0  0
  147.0693  139.5020  153.1069 C   0  0  0  0  0  0  0  0  0  0  0  0
  146.1582  138.7235  152.3449 N   0  0  0  0  0  0  0  0  0  0  0  0
  146.0647  137.3835  152.2765 C   0  0  0  0  0  0  0  0  0  0  0  0
  146.7887  136.5877  152.8762 O   0  0  0  0  0  0  0  0  0  0  0  0
  145.0701  137.0109  151.4589 N   0  0  0  0  0  0  0  0  0  0  0  0
  144.7061  135.6652  151.1541 C   0  0  2  0  0  0  0  0  0  0  0  0
  144.9681  134.6252  152.2242 C   0  0  1  0  0  0  0  0  0  0  0  0
  144.4695  133.1823  152.2466 C   0  0  1  0  0  0  0  0  0  0  0  0
  143.4446  132.9258  151.1225 C   0  0  0  0  0  0  0  0  0  0  0  0
  144.3240  132.9720  149.8531 C   0  0  0  0  0  0  0  0  0  0  0  0
  145.7279  133.2483  150.4305 C   0  0  2  0  0  0  0  0  0  0  0  0
  145.6788  132.4215  151.7114 C   0  0  0  0  0  0  0  0  0  0  0  0
  145.8341  134.6702  150.9765 C   0  0  1  0  0  0  0  0  0  0  0  0
  148.1523  138.9868  153.7378 N   0  0  0  0  0  0  0  0  0  0  0  0
  149.5808  137.1343  155.1283 H   0  0  0  0  0  0  0  0  0  0  0  0
  151.2952  137.4637  155.3587 H   0  0  0  0  0  0  0  0  0  0  0  0
  150.5880  137.6225  153.7535 H   0  0  0  0  0  0  0  0  0  0  0  0
  150.3724  140.3781  156.7895 H   0  0  0  0  0  0  0  0  0  0  0  0
  151.4024  140.7892  155.4106 H   0  0  0  0  0  0  0  0  0  0  0  0
  151.7502  139.3593  156.3806 H   0  0  0  0  0  0  0  0  0  0  0  0
  149.3898  141.8329  155.1202 H   0  0  0  0  0  0  0  0  0  0  0  0
  147.4140  142.7863  153.9729 H   0  0  0  0  0  0  0  0  0  0  0  0
  145.9084  141.2860  152.6702 H   0  0  0  0  0  0  0  0  0  0  0  0
  145.5001  139.2481  151.7882 H   0  0  0  0  0  0  0  0  0  0  0  0
  144.5292  137.7361  151.0114 H   0  0  0  0  0  0  0  0  0  0  0  0
  143.8198  135.5388  150.5370 H   0  0  0  0  0  0  0  0  0  0  0  0
  145.4511  134.9538  153.1430 H   0  0  0  0  0  0  0  0  0  0  0  0
  144.1343  132.8760  153.2378 H   0  0  0  0  0  0  0  0  0  0  0  0
  142.9890  131.9410  151.2339 H   0  0  0  0  0  0  0  0  0  0  0  0
  142.6390  133.6603  151.1137 H   0  0  0  0  0  0  0  0  0  0  0  0
  144.3008  132.0099  149.3397 H   0  0  0  0  0  0  0  0  0  0  0  0
  144.0067  133.7322  149.1388 H   0  0  0  0  0  0  0  0  0  0  0  0
  146.5477  133.0029  149.7548 H   0  0  0  0  0  0  0  0  0  0  0  0
  146.5691  132.5360  152.3325 H   0  0  0  0  0  0  0  0  0  0  0  0
  145.4920  131.3591  151.5434 H   0  0  0  0  0  0  0  0  0  0  0  0
  146.8521  135.0275  151.1222 H   0  0  0  0  0  0  0  0  0  0  0  0
  1  2  1  0  0  0  0
  1 22  1  0  0  0  0
  1 23  1  0  0  0  0
  1 24  1  0  0  0  0
  2  3  1  0  0  0  0
  2  4  1  0  0  0  0
  3 25  1  0  0  0  0
  3 26  1  0  0  0  0
  3 27  1  0  0  0  0
  4 21  1  0  0  0  0
  4  5  2  0  0  0  0
  5  6  1  0  0  0  0
  5 28  1  0  0  0  0
  6  7  2  0  0  0  0
  6 29  1  0  0  0  0
  7  8  1  0  0  0  0
  7 30  1  0  0  0  0
  8  9  1  0  0  0  0
  8 21  2  0  0  0  0
  9 10  1  0  0  0  0
  9 31  1  0  0  0  0
 10 11  2  0  0  0  0
 10 12  1  0  0  0  0
 12 13  1  0  0  0  0
 12 32  1  0  0  0  0
 13 20  1  0  0  0  0
 13 14  1  0  0  0  0
 13 33  1  0  0  0  0
 14 20  1  0  0  0  0
 14 15  1  0  0  0  0
 14 34  1  0  0  0  0
 15 19  1  0  0  0  0
 15 16  1  0  0  0  0
 15 35  1  0  0  0  0
 16 17  1  0  0  0  0
 16 36  1  0  0  0  0
 16 37  1  0  0  0  0
 17 18  1  0  0  0  0
 17 38  1  0  0  0  0
 17 39  1  0  0  0  0
 18 19  1  0  0  0  0
 18 20  1  0  0  0  0
 18 40  1  0  0  0  0
 19 41  1  0  0  0  0
 19 42  1  0  0  0  0
 20 43  1  0  0  0  0
M  END
> <s_m_source_file>
AV-unprocessed.smi

> <i_m_source_file_index>
2706

> <i_lp_mmshare_version>
43012

> <i_f3d_flags>
0

> <s_epik_input>
W0NIM11OKFtDSDNdKWMxW2NIXVtjSF1bY0hdYyhuMSlbTkhdQyg9TylbTkhdW0NASF0yW0NAQEhdM1tDQEBIXShbQ0gyXTQpW0NIMl1bQ0gyXVtDQEBIXTRbQ0BIXTIz

> <s_epik_cmdline>
J2VwaWtfcHl0aG9uJywgJy1waCcsICc3LjAnLCAnLXRuJywgJzgnLCAnLW1hJywgJzIwMCcsICctbWV0YWxfYmluZGluZycsICctaW1hZScsICc8aW5maWxlLm1hZT4nLCAnLW9tYWUnLCAnPG91dGZpbGUubWFlPic=

> <r_lp_tautomer_probability>
1

> <r_epik_Ionization_Penalty>
0.0296788

> <r_epik_Ionization_Penalty_Charging>
0

> <r_epik_Ionization_Penalty_Neutral>
0.0296788

> <r_epik_State_Penalty>
0.0248512

> <r_epik_Charging_Adjusted_Penalty>
0.0248512

> <i_epik_Tot_Q>
0

> <i_epik_Tot_abs_Q>
0

> <r_epik_Metal_State_Penalty>
0.0237882

> <b_epik_Metal_Only>
0

> <s_lp_Force_Field>
OPLS_2005

> <r_lp_Energy>
79.5337

> <b_lp_Chiralities_Consistent>
1

> <s_lp_Variant>
AV-unprocessed.smi:2706-1

> <Gold.Version>
5.8.1

> <Gold.Id.Protein>
6NUR|6NUR_protein|mol2

> <Gold.PLP.Fitness>
41.4637

> <Gold.PLP.PLP>
-37.9025

> <Gold.PLP.part.hbond>
-2.0000

> <Gold.PLP.part.metal>
0.0000

> <Gold.PLP.part.buried>
-3.0712

> <Gold.PLP.part.nonpolar>
-38.7547

> <Gold.PLP.part.repulsive>
6.7695

> <Gold.PLP.ligand.clash>
0.0000

> <Gold.PLP.ligand.torsion>
0.3856

> <Gold.PLP.Chemscore.Hbond>
1.4306

> <Gold.PLP.Chemscore.CHOScore>
0.0000

> <Gold.PLP.Chemscore.Metal>
0.0000

> <Gold.Chemscore.Hbonds>
donor molecule, donor type, donor heavy atom, donor atom, acceptor molecule, acceptor atom, score
      L1  H     9    31       P1 10175  0.23
      L1  H    12    32       P1 10171  1.00

> <Gold.PLP.Chemscore.Internal.Correction>
0.0406

> <Gold.Rescore>
     Score         DG    S(hbond)    S(metal)    S(lipo)     H(rot)  DE(clash)    DE(int)     intcor
     11.47     -18.22       1.55        0.00      86.68       1.00       2.33       4.43       ----

> <Gold.Chemscore.Fitness>
11.4685

> <Gold.Chemscore.DG>
-18.2233

> <Gold.Chemscore.ZeroCoef>
-5.4800

> <Gold.Chemscore.Hbond>
1.5453

> <Gold.Chemscore.Metal>
0.0000

> <Gold.Chemscore.Lipo>
86.6848

> <Gold.Chemscore.Internal_Hbond>
0.0000

> <Gold.Chemscore.DEClash>
2.3289

> <Gold.Chemscore.DEInternal>
4.4259

> <Gold.Chemscore.Rot>
1.0000

> <Gold.Chemscore.Internal.Correction>
   9.000000E+99

> <Gold.Chemscore.Hbonds>
donor molecule, donor type, donor heavy atom, donor atom, acceptor molecule, acceptor atom, score
      L1  H     9    31       P1 10175  0.21
      L1  H    12    32       P1 10171  0.98

> <Gold.Chemscore.Hbond.Weighted>
-5.1612

> <Gold.Chemscore.Metal.Weighted>
-0.0000

> <Gold.Chemscore.Lipo.Weighted>
-10.1421

> <Gold.Chemscore.Internal_Hbond.Weighted>
0.0000

> <Gold.Chemscore.DEClash.Weighted>
2.3289

> <Gold.Chemscore.DEInternal.Weighted>
4.4259

> <Gold.Chemscore.Rot.Weighted>
2.5600

> <Gold.Chemscore.Internal.Correction.Weighted>
   9.000000E+99

> <Gold.Protein.RotatedTorsions>
[ 6907 6896 6895 6894 ] final -117.68 input  -60.11 | X-H torsion
[ 7974 7965 7964 7962 ] final  -16.09 input  175.53 | X-H torsion
[ 8008 7997 7996 7995 ] final -152.40 input   59.86 | X-H torsion
[ 10167 10162 10161 10158 ] final  132.32 input  -65.29 | X-H torsion
[ 10718 10713 10712 10709 ] final  131.25 input   66.30 | X-H torsion
[ 10763 10752 10751 10750 ] final   -1.51 input  -60.55 | X-H torsion
[ 11005 11000 10999 10996 ] final -133.04 input  -57.11 | X-H torsion

> <Gold.Protein.ActiveResidues>
 VAL166  LYS551  ARG553  GLY616  TRP617  ASP618  TYR619  PRO620  LYS621  CYS622 
 ASP623  PHE694  ASN695  SER759  ASP760  ASP761  ALA762  ILE779  LEU786  VAL792 
 PHE793  MET794  SER795  GLU796  ALA797  LYS798  CYS799  TRP800  GLU811  SER814 

> <Gold.Protein.RotatedAtoms>
  150.8156  133.8343  159.3161 H   0  0  0  0  0  0  0  0  0  0  0  0  # atno 6907 bound_to 6896
  151.6116  135.1038  160.0092 H   0  0  0  0  0  0  0  0  0  0  0  0  # atno 6908 bound_to 6896
  152.4247  133.7135  159.6549 H   0  0  0  0  0  0  0  0  0  0  0  0  # atno 6909 bound_to 6896
  146.2003  140.3586  142.8426 H   0  0  0  0  0  0  0  0  0  0  0  0  # atno 7974 bound_to 7965
  155.6546  140.0716  157.2575 H   0  0  0  0  0  0  0  0  0  0  0  0  # atno 8008 bound_to 7997
  154.4155  140.1727  156.1761 H   0  0  0  0  0  0  0  0  0  0  0  0  # atno 8009 bound_to 7997
  155.9748  140.3359  155.6612 H   0  0  0  0  0  0  0  0  0  0  0  0  # atno 8010 bound_to 7997
  139.5345  144.6667  151.4835 H   0  0  0  0  0  0  0  0  0  0  0  0  # atno 10167 bound_to 10162
  157.4985  131.1093  150.9459 H   0  0  0  0  0  0  0  0  0  0  0  0  # atno 10718 bound_to 10713
  153.3458  135.6983  153.6829 H   0  0  0  0  0  0  0  0  0  0  0  0  # atno 10763 bound_to 10752
  153.5576  135.3541  155.2786 H   0  0  0  0  0  0  0  0  0  0  0  0  # atno 10764 bound_to 10752
  154.8645  135.4241  154.2681 H   0  0  0  0  0  0  0  0  0  0  0  0  # atno 10765 bound_to 10752
  140.9116  134.1560  157.4384 H   0  0  0  0  0  0  0  0  0  0  0  0  # atno 11005 bound_to 11000
  144.8669  140.7219  143.6071 LP  0  0  0  0  0  0  0  0  0  0  0  0  # atno 17320 bound_to 7965
  145.3506  139.1707  143.4437 LP  0  0  0  0  0  0  0  0  0  0  0  0  # atno 17321 bound_to 7965
  140.6543  143.8632  150.6818 LP  0  0  0  0  0  0  0  0  0  0  0  0  # atno 17342 bound_to 10162
  140.2007  143.3962  152.1794 LP  0  0  0  0  0  0  0  0  0  0  0  0  # atno 17343 bound_to 10162
  157.0138  130.5647  149.5323 LP  0  0  0  0  0  0  0  0  0  0  0  0  # atno 17370 bound_to 10713
  156.0215  130.5310  150.8288 LP  0  0  0  0  0  0  0  0  0  0  0  0  # atno 17371 bound_to 10713
  139.8758  134.9938  156.5662 LP  0  0  0  0  0  0  0  0  0  0  0  0  # atno 17394 bound_to 11000
  140.8102  133.8435  155.8803 LP  0  0  0  0  0  0  0  0  0  0  0  0  # atno 17395 bound_to 11000

$$$$
