AV-unprocessed.smi:1334|AV-procd|sdf|5492|dock5
  -GOLD-   22720 5 73D 1   1.00000     0.00000
 Structure written by MMmdl.
 38 39  0  0  0  0  0  0  0  0  1 V2000
  148.2935  140.4274  153.1036 C   0  0  0  0  0  0  0  0  0  0  0  0
  148.5748  141.5618  154.1092 C   0  0  2  0  0  0  0  0  0  0  0  0
  149.7203  141.2136  155.0702 C   0  0  0  0  0  0  0  0  0  0  0  0
  150.3892  140.1942  154.8966 O   0  0  0  0  0  0  0  0  0  0  0  0
  149.9199  142.0635  156.0906 N   0  0  0  0  0  0  0  0  0  0  0  0
  150.8898  141.8849  157.1684 C   0  0  0  0  0  0  0  0  0  0  0  0
  151.4295  143.2333  157.6833 C   0  0  0  0  0  0  0  0  0  0  0  0
  152.0296  143.1814  159.0824 C   0  0  0  0  0  0  0  0  0  0  0  0
  153.0620  142.3683  159.3813 C   0  0  0  0  0  0  0  0  0  0  0  0
  153.6733  142.2326  160.7648 C   0  0  0  0  0  0  0  0  0  0  0  0
  152.8018  142.8697  161.8597 C   0  0  0  0  0  0  0  0  0  0  0  0
  152.2310  144.2178  161.4043 C   0  0  0  0  0  0  0  0  0  0  0  0
  151.3710  144.0632  160.1378 C   0  0  0  0  0  0  0  0  0  0  0  0
  147.3878  141.9400  154.8671 N   0  0  0  0  0  0  0  0  0  0  0  0
  146.2218  142.4313  154.4430 C   0  0  0  0  0  0  0  0  0  0  0  0
  145.3659  142.7067  155.4172 N   0  0  0  0  0  0  0  0  0  0  0  0
  146.1267  142.3543  156.4951 C   0  0  0  0  0  0  0  0  0  0  0  0
  147.3493  141.8997  156.2229 N   0  0  0  0  0  0  0  0  0  0  0  0
  149.1800  140.2014  152.5101 H   0  0  0  0  0  0  0  0  0  0  0  0
  147.5012  140.7115  152.4105 H   0  0  0  0  0  0  0  0  0  0  0  0
  147.9849  139.5051  153.5975 H   0  0  0  0  0  0  0  0  0  0  0  0
  148.8751  142.4373  153.5307 H   0  0  0  0  0  0  0  0  0  0  0  0
  149.3254  142.8774  156.1489 H   0  0  0  0  0  0  0  0  0  0  0  0
  150.4624  141.3223  157.9995 H   0  0  0  0  0  0  0  0  0  0  0  0
  151.7148  141.2794  156.7926 H   0  0  0  0  0  0  0  0  0  0  0  0
  152.1812  143.6175  156.9932 H   0  0  0  0  0  0  0  0  0  0  0  0
  150.6163  143.9605  157.6767 H   0  0  0  0  0  0  0  0  0  0  0  0
  153.5088  141.7610  158.6076 H   0  0  0  0  0  0  0  0  0  0  0  0
  153.8296  141.1767  160.9859 H   0  0  0  0  0  0  0  0  0  0  0  0
  154.6579  142.6982  160.7466 H   0  0  0  0  0  0  0  0  0  0  0  0
  151.9772  142.1988  162.1041 H   0  0  0  0  0  0  0  0  0  0  0  0
  153.3827  142.9912  162.7744 H   0  0  0  0  0  0  0  0  0  0  0  0
  151.6408  144.6692  162.2022 H   0  0  0  0  0  0  0  0  0  0  0  0
  153.0527  144.9058  161.2020 H   0  0  0  0  0  0  0  0  0  0  0  0
  151.1647  145.0520  159.7297 H   0  0  0  0  0  0  0  0  0  0  0  0
  150.4065  143.6219  160.3913 H   0  0  0  0  0  0  0  0  0  0  0  0
  145.9951  142.5941  153.3995 H   0  0  0  0  0  0  0  0  0  0  0  0
  145.7717  142.4436  157.5111 H   0  0  0  0  0  0  0  0  0  0  0  0
  1  2  1  0  0  0  0
  1 19  1  0  0  0  0
  1 20  1  0  0  0  0
  1 21  1  0  0  0  0
  2  3  1  0  0  0  0
  2 14  1  0  0  0  0
  2 22  1  0  0  0  0
  3  4  2  0  0  0  0
  3  5  1  0  0  0  0
  5  6  1  0  0  0  0
  5 23  1  0  0  0  0
  6  7  1  0  0  0  0
  6 24  1  0  0  0  0
  6 25  1  0  0  0  0
  7  8  1  0  0  0  0
  7 26  1  0  0  0  0
  7 27  1  0  0  0  0
  8 13  1  0  0  0  0
  8  9  2  0  0  0  0
  9 10  1  0  0  0  0
  9 28  1  0  0  0  0
 10 11  1  0  0  0  0
 10 29  1  0  0  0  0
 10 30  1  0  0  0  0
 11 12  1  0  0  0  0
 11 31  1  0  0  0  0
 11 32  1  0  0  0  0
 12 13  1  0  0  0  0
 12 33  1  0  0  0  0
 12 34  1  0  0  0  0
 13 35  1  0  0  0  0
 13 36  1  0  0  0  0
 14 18  1  0  0  0  0
 14 15  1  0  0  0  0
 15 16  2  0  0  0  0
 15 37  1  0  0  0  0
 16 17  1  0  0  0  0
 17 18  2  0  0  0  0
 17 38  1  0  0  0  0
M  END
> <s_m_source_file>
AV-unprocessed.smi

> <i_m_source_file_index>
1334

> <i_lp_mmshare_version>
43012

> <i_f3d_flags>
0

> <s_epik_input>
bjFbY0hdbltjSF1uMVtDQEhdKFtDSDNdKUMoPU8pW05IXVtDSDJdW0NIMl1DMj1bQ0hdW0NIMl1bQ0gyXVtDSDJdW0NIMl0y

> <s_epik_cmdline>
J2VwaWtfcHl0aG9uJywgJy1waCcsICc3LjAnLCAnLXRuJywgJzgnLCAnLW1hJywgJzIwMCcsICctbWV0YWxfYmluZGluZycsICctaW1hZScsICc8aW5maWxlLm1hZT4nLCAnLW9tYWUnLCAnPG91dGZpbGUubWFlPic=

> <r_lp_tautomer_probability>
1

> <r_epik_Ionization_Penalty>
1.26383e-05

> <r_epik_Ionization_Penalty_Charging>
0

> <r_epik_Ionization_Penalty_Neutral>
1.26383e-05

> <r_epik_State_Penalty>
-0

> <r_epik_Charging_Adjusted_Penalty>
0

> <i_epik_Tot_Q>
0

> <i_epik_Tot_abs_Q>
0

> <r_epik_Metal_State_Penalty>
-0

> <b_epik_Metal_Only>
0

> <s_lp_Force_Field>
OPLS_2005

> <r_lp_Energy>
12.0281

> <b_lp_Chiralities_Consistent>
1

> <s_lp_Variant>
AV-unprocessed.smi:1334-1

> <Gold.Version>
5.8.1

> <Gold.Id.Protein>
6NUR|6NUR_protein|mol2

> <Gold.PLP.Fitness>
47.0222

> <Gold.PLP.PLP>
-42.0044

> <Gold.PLP.part.hbond>
-2.0000

> <Gold.PLP.part.metal>
0.0000

> <Gold.PLP.part.buried>
1.2222

> <Gold.PLP.part.nonpolar>
-40.9296

> <Gold.PLP.part.repulsive>
0.4801

> <Gold.PLP.ligand.clash>
0.0000

> <Gold.PLP.ligand.torsion>
0.5522

> <Gold.PLP.Chemscore.Hbond>
2.0000

> <Gold.PLP.Chemscore.CHOScore>
0.0000

> <Gold.PLP.Chemscore.Metal>
0.0000

> <Gold.Chemscore.Hbonds>
donor molecule, donor type, donor heavy atom, donor atom, acceptor molecule, acceptor atom, score
      L1  H     5    23       P1  8028  1.00
      P1  H  7989  7998       L1     4  0.95

> <Gold.PLP.Chemscore.Internal.Correction>
0.1221

> <Gold.Rescore>
     Score         DG    S(hbond)    S(metal)    S(lipo)     H(rot)  DE(clash)    DE(int)     intcor
     13.19     -17.14       1.59        0.00     106.84       2.40       2.17       1.78       ----

> <Gold.Chemscore.Fitness>
13.1898

> <Gold.Chemscore.DG>
-17.1438

> <Gold.Chemscore.ZeroCoef>
-5.4800

> <Gold.Chemscore.Hbond>
1.5898

> <Gold.Chemscore.Metal>
0.0000

> <Gold.Chemscore.Lipo>
106.8430

> <Gold.Chemscore.Internal_Hbond>
0.0000

> <Gold.Chemscore.DEClash>
2.1738

> <Gold.Chemscore.DEInternal>
1.7803

> <Gold.Chemscore.Rot>
2.4011

> <Gold.Chemscore.Internal.Correction>
   9.000000E+99

> <Gold.Chemscore.Hbonds>
donor molecule, donor type, donor heavy atom, donor atom, acceptor molecule, acceptor atom, score
      L1  H     5    23       P1  8028  0.94
      P1  H  7989  7998       L1     4  0.21

> <Gold.Chemscore.Hbond.Weighted>
-5.3100

> <Gold.Chemscore.Metal.Weighted>
-0.0000

> <Gold.Chemscore.Lipo.Weighted>
-12.5006

> <Gold.Chemscore.Internal_Hbond.Weighted>
0.0000

> <Gold.Chemscore.DEClash.Weighted>
2.1738

> <Gold.Chemscore.DEInternal.Weighted>
1.7803

> <Gold.Chemscore.Rot.Weighted>
6.1469

> <Gold.Chemscore.Internal.Correction.Weighted>
   9.000000E+99

> <Gold.Protein.RotatedTorsions>
[ 6907 6896 6895 6894 ] final  -38.23 input  -60.11 | X-H torsion
[ 7974 7965 7964 7962 ] final -169.81 input  175.53 | X-H torsion
[ 8008 7997 7996 7995 ] final  124.23 input   59.86 | X-H torsion
[ 10167 10162 10161 10158 ] final -104.50 input  -65.29 | X-H torsion
[ 10718 10713 10712 10709 ] final  163.95 input   66.30 | X-H torsion
[ 10763 10752 10751 10750 ] final   58.37 input  -60.55 | X-H torsion
[ 11005 11000 10999 10996 ] final  -69.45 input  -57.11 | X-H torsion

> <Gold.Protein.ActiveResidues>
 VAL166  LYS551  ARG553  GLY616  TRP617  ASP618  TYR619  PRO620  LYS621  CYS622 
 ASP623  PHE694  ASN695  SER759  ASP760  ASP761  ALA762  ILE779  LEU786  VAL792 
 PHE793  MET794  SER795  GLU796  ALA797  LYS798  CYS799  TRP800  GLU811  SER814 

> <Gold.Protein.RotatedAtoms>
  151.0050  134.9352  159.7975 H   0  0  0  0  0  0  0  0  0  0  0  0  # atno 6907 bound_to 6896
  152.5288  134.3103  159.9121 H   0  0  0  0  0  0  0  0  0  0  0  0  # atno 6908 bound_to 6896
  151.3109  133.4039  159.2681 H   0  0  0  0  0  0  0  0  0  0  0  0  # atno 6909 bound_to 6896
  144.7179  140.2166  143.6321 H   0  0  0  0  0  0  0  0  0  0  0  0  # atno 7974 bound_to 7965
  156.2794  140.2744  156.1754 H   0  0  0  0  0  0  0  0  0  0  0  0  # atno 8008 bound_to 7997
  155.0611  140.0386  157.2595 H   0  0  0  0  0  0  0  0  0  0  0  0  # atno 8009 bound_to 7997
  154.7116  140.2670  155.6629 H   0  0  0  0  0  0  0  0  0  0  0  0  # atno 8010 bound_to 7997
  140.2086  143.3763  152.1069 H   0  0  0  0  0  0  0  0  0  0  0  0  # atno 10167 bound_to 10162
  157.1013  131.0443  151.2496 H   0  0  0  0  0  0  0  0  0  0  0  0  # atno 10718 bound_to 10713
  152.9869  135.5609  154.5541 H   0  0  0  0  0  0  0  0  0  0  0  0  # atno 10763 bound_to 10752
  154.4972  135.2795  155.1452 H   0  0  0  0  0  0  0  0  0  0  0  0  # atno 10764 bound_to 10752
  154.2897  135.6328  153.5433 H   0  0  0  0  0  0  0  0  0  0  0  0  # atno 10765 bound_to 10752
  141.1554  133.6765  156.6601 H   0  0  0  0  0  0  0  0  0  0  0  0  # atno 11005 bound_to 11000
  145.8541  139.2190  143.1755 LP  0  0  0  0  0  0  0  0  0  0  0  0  # atno 17320 bound_to 7965
  146.0234  140.8326  142.9912 LP  0  0  0  0  0  0  0  0  0  0  0  0  # atno 17321 bound_to 7965
  139.5188  144.7011  151.5489 LP  0  0  0  0  0  0  0  0  0  0  0  0  # atno 17342 bound_to 10162
  140.6339  143.9022  150.6630 LP  0  0  0  0  0  0  0  0  0  0  0  0  # atno 17343 bound_to 10162
  157.4638  130.7669  149.7260 LP  0  0  0  0  0  0  0  0  0  0  0  0  # atno 17370 bound_to 10713
  155.9873  130.3968  150.3172 LP  0  0  0  0  0  0  0  0  0  0  0  0  # atno 17371 bound_to 10713
  140.3254  134.7973  157.4285 LP  0  0  0  0  0  0  0  0  0  0  0  0  # atno 17394 bound_to 11000
  140.1061  134.5407  155.8308 LP  0  0  0  0  0  0  0  0  0  0  0  0  # atno 17395 bound_to 11000

$$$$
