AV-unprocessed.smi:101|AV-procd|sdf|931|dock1
  -GOLD-   2262017443D 1   1.00000     0.00000
 Structure written by MMmdl.
 43 45  0  0  0  0  0  0  0  0  2 V2000
  145.4342  135.7286  158.2252 C   0  0  0  0  0  0  0  0  0  0  0  0
  146.5656  136.6957  157.9228 C   0  0  0  0  0  0  0  0  0  0  0  0
  147.1577  136.7575  156.7093 C   0  0  0  0  0  0  0  0  0  0  0  0
  148.1788  137.6524  156.4348 N   0  0  0  0  0  0  0  0  0  0  0  0
  148.8246  137.7227  155.0662 C   0  0  2  0  0  0  0  0  0  0  0  0
  150.2137  137.8228  155.2127 O   0  0  0  0  0  0  0  0  0  0  0  0
  150.7026  138.9715  154.5299 C   0  0  2  0  0  0  0  0  0  0  0  0
  151.9579  139.5206  155.2256 C   0  0  0  0  0  0  0  0  0  0  0  0
  151.6043  140.5460  156.1407 O   0  0  0  0  0  0  0  0  0  0  0  0
  152.2310  140.6510  157.3261 C   0  0  0  0  0  0  0  0  0  0  0  0
  152.9001  139.7460  157.8288 O   0  0  0  0  0  0  0  0  0  0  0  0
  152.0292  141.9823  157.9674 C   0  0  0  0  0  0  0  0  0  0  0  0
  152.5890  142.2303  159.2424 C   0  0  0  0  0  0  0  0  0  0  0  0
  152.4132  143.4775  159.8725 C   0  0  0  0  0  0  0  0  0  0  0  0
  151.6770  144.4929  159.2346 C   0  0  0  0  0  0  0  0  0  0  0  0
  151.1187  144.2601  157.9642 C   0  0  0  0  0  0  0  0  0  0  0  0
  151.2928  143.0133  157.3326 C   0  0  0  0  0  0  0  0  0  0  0  0
  149.5093  139.9247  154.4591 C   0  0  1  0  0  0  0  0  0  0  0  0
  149.6124  140.8686  153.4099 O   0  0  0  0  0  0  0  0  0  0  0  0
  148.3370  138.9667  154.2973 C   0  0  1  0  0  0  0  0  0  0  0  0
  148.0630  138.6455  152.9460 O   0  0  0  0  0  0  0  0  0  0  0  0
  148.6249  138.5379  157.4506 C   0  0  0  0  0  0  0  0  0  0  0  0
  149.5307  139.3247  157.1731 O   0  0  0  0  0  0  0  0  0  0  0  0
  148.0400  138.4759  158.6804 N   0  5  0  0  0  0  0  0  0  0  0  0
  147.0358  137.6021  158.9769 C   0  0  0  0  0  0  0  0  0  0  0  0
  146.5202  137.5531  160.0932 O   0  0  0  0  0  0  0  0  0  0  0  0
  145.1614  135.1483  157.3435 H   0  0  0  0  0  0  0  0  0  0  0  0
  144.5480  136.2708  158.5565 H   0  0  0  0  0  0  0  0  0  0  0  0
  145.7275  135.0336  159.0123 H   0  0  0  0  0  0  0  0  0  0  0  0
  146.8087  136.0873  155.9393 H   0  0  0  0  0  0  0  0  0  0  0  0
  148.5758  136.7745  154.5857 H   0  0  0  0  0  0  0  0  0  0  0  0
  150.9650  138.6463  153.5216 H   0  0  0  0  0  0  0  0  0  0  0  0
  152.4783  138.7129  155.7421 H   0  0  0  0  0  0  0  0  0  0  0  0
  152.6443  139.9299  154.4837 H   0  0  0  0  0  0  0  0  0  0  0  0
  153.1574  141.4655  159.7521 H   0  0  0  0  0  0  0  0  0  0  0  0
  152.8430  143.6545  160.8475 H   0  0  0  0  0  0  0  0  0  0  0  0
  151.5404  145.4485  159.7190 H   0  0  0  0  0  0  0  0  0  0  0  0
  150.5519  145.0377  157.4737 H   0  0  0  0  0  0  0  0  0  0  0  0
  150.8472  142.8681  156.3592 H   0  0  0  0  0  0  0  0  0  0  0  0
  149.3862  140.4575  155.4023 H   0  0  0  0  0  0  0  0  0  0  0  0
  149.4012  140.4343  152.5978 H   0  0  0  0  0  0  0  0  0  0  0  0
  147.4269  139.3776  154.7358 H   0  0  0  0  0  0  0  0  0  0  0  0
  148.6164  139.1811  152.3978 H   0  0  0  0  0  0  0  0  0  0  0  0
  1  2  1  0  0  0  0
  1 27  1  0  0  0  0
  1 28  1  0  0  0  0
  1 29  1  0  0  0  0
  2 25  1  0  0  0  0
  2  3  2  0  0  0  0
  3  4  1  0  0  0  0
  3 30  1  0  0  0  0
  4  5  1  0  0  0  0
  4 22  1  0  0  0  0
  5 20  1  0  0  0  0
  5  6  1  0  0  0  0
  5 31  1  0  0  0  0
  6  7  1  0  0  0  0
  7  8  1  0  0  0  0
  7 18  1  0  0  0  0
  7 32  1  0  0  0  0
  8  9  1  0  0  0  0
  8 33  1  0  0  0  0
  8 34  1  0  0  0  0
  9 10  1  0  0  0  0
 10 11  2  0  0  0  0
 10 12  1  0  0  0  0
 12 17  1  0  0  0  0
 12 13  2  0  0  0  0
 13 14  1  0  0  0  0
 13 35  1  0  0  0  0
 14 15  2  0  0  0  0
 14 36  1  0  0  0  0
 15 16  1  0  0  0  0
 15 37  1  0  0  0  0
 16 17  2  0  0  0  0
 16 38  1  0  0  0  0
 17 39  1  0  0  0  0
 18 19  1  0  0  0  0
 18 20  1  0  0  0  0
 18 40  1  0  0  0  0
 19 41  1  0  0  0  0
 20 21  1  0  0  0  0
 20 42  1  0  0  0  0
 21 43  1  0  0  0  0
 22 23  2  0  0  0  0
 22 24  1  0  0  0  0
 24 25  1  0  0  0  0
 25 26  2  0  0  0  0
M  CHG  1  24  -1
M  END
> <s_m_source_file>
AV-unprocessed.smi

> <i_m_source_file_index>
101

> <i_lp_mmshare_version>
43012

> <i_f3d_flags>
0

> <s_epik_input>
Tz1jMVtuSF1jKD1PKW4oW2NIXWMxW0NIM10pW0NAQEhdMk9bQ0BIXShbQ0BASF0oW09IXSlbQ0BIXTJbT0hdKVtDSDJdT0MoPU8pYzNbY0hdW2NIXVtjSF1bY0hdW2NIXTM=

> <s_epik_cmdline>
J2VwaWtfcHl0aG9uJywgJy1waCcsICc3LjAnLCAnLXRuJywgJzgnLCAnLW1hJywgJzIwMCcsICctbWV0YWxfYmluZGluZycsICctaW1hZScsICc8aW5maWxlLm1hZT4nLCAnLW9tYWUnLCAnPG91dGZpbGUubWFlPic=

> <r_lp_tautomer_probability>
0.999537

> <r_epik_Ionization_Penalty>
3.21006

> <r_epik_Ionization_Penalty_Charging>
5.75142e-08

> <r_epik_Ionization_Penalty_Neutral>
3.21006

> <r_epik_State_Penalty>
3.20925

> <r_epik_Charging_Adjusted_Penalty>
3.20925

> <i_epik_Tot_Q>
-1

> <i_epik_Tot_abs_Q>
1

> <r_epik_Metal_State_Penalty>
0.119957

> <b_epik_Metal_Only>
1

> <s_epik_Chemistry_Notes>
This compound has an ester and may undergo hydrolysis at high or low pH. This compound contains an acetal/aminal-like group ( X-CH(R)-Y where X, Y are N, S, or O) that may be acid/base labile, releasing an aldehyde.

> <s_lp_Force_Field>
OPLS_2005

> <r_lp_Energy>
43.2015

> <b_lp_Chiralities_Consistent>
1

> <s_lp_Variant>
AV-unprocessed.smi:101-19

> <Gold.Version>
5.8.1

> <Gold.Id.Protein>
6NUR|6NUR_protein|mol2

> <Gold.PLP.Fitness>
51.1115

> <Gold.PLP.PLP>
-40.4132

> <Gold.PLP.part.hbond>
-7.6720

> <Gold.PLP.part.metal>
0.0000

> <Gold.PLP.part.buried>
-4.7159

> <Gold.PLP.part.nonpolar>
-27.6397

> <Gold.PLP.part.repulsive>
0.1092

> <Gold.PLP.ligand.clash>
0.0000

> <Gold.PLP.ligand.torsion>
1.3594

> <Gold.PLP.Chemscore.Hbond>
4.4220

> <Gold.PLP.Chemscore.CHOScore>
0.0000

> <Gold.PLP.Chemscore.Metal>
0.0000

> <Gold.Chemscore.Hbonds>
donor molecule, donor type, donor heavy atom, donor atom, acceptor molecule, acceptor atom, score
      L1  H    19    41       P1  7957  0.93
      L1  H    21    43       P1  7957  1.00
      P1  H  6934  6947       L1    26  1.00
      P1  H  7989  7998       L1    19  0.20
      P1  H  7997  8008       L1    11  0.98
      P1  H  8011  8017       L1    19  0.20

> <Gold.PLP.Chemscore.Internal.Correction>
0.1510

> <Gold.Rescore>
     Score         DG    S(hbond)    S(metal)    S(lipo)     H(rot)  DE(clash)    DE(int)     intcor
     10.61     -18.06       3.09        0.00      90.86       3.27       0.29       7.17       ----

> <Gold.Chemscore.Fitness>
10.6071

> <Gold.Chemscore.DG>
-18.0615

> <Gold.Chemscore.ZeroCoef>
-5.4800

> <Gold.Chemscore.Hbond>
3.0870

> <Gold.Chemscore.Metal>
0.0000

> <Gold.Chemscore.Lipo>
90.8619

> <Gold.Chemscore.Internal_Hbond>
0.0000

> <Gold.Chemscore.DEClash>
0.2888

> <Gold.Chemscore.DEInternal>
7.1657

> <Gold.Chemscore.Rot>
3.2656

> <Gold.Chemscore.Internal.Correction>
   9.000000E+99

> <Gold.Chemscore.Hbonds>
donor molecule, donor type, donor heavy atom, donor atom, acceptor molecule, acceptor atom, score
      L1  H    19    41       P1  7957  0.87
      L1  H    21    43       P1  7957  1.00
      P1  H  6934  6947       L1    26  0.40
      P1  H  7989  7998       L1    19  0.01
      P1  H  7997  8008       L1    11  0.41

> <Gold.Chemscore.Hbond.Weighted>
-10.3105

> <Gold.Chemscore.Metal.Weighted>
-0.0000

> <Gold.Chemscore.Lipo.Weighted>
-10.6308

> <Gold.Chemscore.Internal_Hbond.Weighted>
0.0000

> <Gold.Chemscore.DEClash.Weighted>
0.2888

> <Gold.Chemscore.DEInternal.Weighted>
7.1657

> <Gold.Chemscore.Rot.Weighted>
8.3598

> <Gold.Chemscore.Internal.Correction.Weighted>
   9.000000E+99

> <Gold.Protein.RotatedTorsions>
[ 6907 6896 6895 6894 ] final  100.66 input  -60.11 | X-H torsion
[ 7974 7965 7964 7962 ] final  168.81 input  175.53 | X-H torsion
[ 8008 7997 7996 7995 ] final  -93.82 input   59.86 | X-H torsion
[ 10167 10162 10161 10158 ] final  122.85 input  -65.29 | X-H torsion
[ 10718 10713 10712 10709 ] final   83.59 input   66.30 | X-H torsion
[ 10763 10752 10751 10750 ] final  153.03 input  -60.55 | X-H torsion
[ 11005 11000 10999 10996 ] final  -87.96 input  -57.11 | X-H torsion

> <Gold.Protein.ActiveResidues>
 VAL166  LYS551  ARG553  GLY616  TRP617  ASP618  TYR619  PRO620  LYS621  CYS622 
 ASP623  PHE694  ASN695  SER759  ASP760  ASP761  ALA762  ILE779  LEU786  VAL792 
 PHE793  MET794  SER795  GLU796  ALA797  LYS798  CYS799  TRP800  GLU811  SER814 

> <Gold.Protein.RotatedAtoms>
  152.5367  134.0244  159.7995 H   0  0  0  0  0  0  0  0  0  0  0  0  # atno 6907 bound_to 6896
  151.0425  133.5686  159.2657 H   0  0  0  0  0  0  0  0  0  0  0  0  # atno 6908 bound_to 6896
  151.2651  135.0674  159.9166 H   0  0  0  0  0  0  0  0  0  0  0  0  # atno 6909 bound_to 6896
  144.7376  139.8962  143.6406 H   0  0  0  0  0  0  0  0  0  0  0  0  # atno 7974 bound_to 7965
  154.7406  140.0495  157.0807 H   0  0  0  0  0  0  0  0  0  0  0  0  # atno 8008 bound_to 7997
  155.0184  140.3144  155.4783 H   0  0  0  0  0  0  0  0  0  0  0  0  # atno 8009 bound_to 7997
  156.2863  140.2171  156.5301 H   0  0  0  0  0  0  0  0  0  0  0  0  # atno 8010 bound_to 7997
  139.5834  144.6996  151.3470 H   0  0  0  0  0  0  0  0  0  0  0  0  # atno 10167 bound_to 10162
  157.6882  131.0097  150.2546 H   0  0  0  0  0  0  0  0  0  0  0  0  # atno 10718 bound_to 10713
  154.1297  135.2827  155.3188 H   0  0  0  0  0  0  0  0  0  0  0  0  # atno 10763 bound_to 10752
  154.6364  135.5417  153.7742 H   0  0  0  0  0  0  0  0  0  0  0  0  # atno 10764 bound_to 10752
  153.0285  135.6475  154.1448 H   0  0  0  0  0  0  0  0  0  0  0  0  # atno 10765 bound_to 10752
  141.1609  133.7542  156.9382 H   0  0  0  0  0  0  0  0  0  0  0  0  # atno 11005 bound_to 11000
  146.1105  139.4109  143.0290 LP  0  0  0  0  0  0  0  0  0  0  0  0  # atno 17320 bound_to 7965
  145.7450  140.9994  143.1281 LP  0  0  0  0  0  0  0  0  0  0  0  0  # atno 17321 bound_to 7965
  140.7109  143.7392  150.7566 LP  0  0  0  0  0  0  0  0  0  0  0  0  # atno 17342 bound_to 10162
  140.0930  143.4859  152.2468 LP  0  0  0  0  0  0  0  0  0  0  0  0  # atno 17343 bound_to 10162
  156.3136  130.3775  149.7639 LP  0  0  0  0  0  0  0  0  0  0  0  0  # atno 17370 bound_to 10713
  156.5231  130.8224  151.3211 LP  0  0  0  0  0  0  0  0  0  0  0  0  # atno 17371 bound_to 10713
  140.1339  134.9338  157.2375 LP  0  0  0  0  0  0  0  0  0  0  0  0  # atno 17394 bound_to 11000
  140.2919  134.3231  155.7313 LP  0  0  0  0  0  0  0  0  0  0  0  0  # atno 17395 bound_to 11000

$$$$
