AV-unprocessed.smi:1209|AV-procd|sdf|5072|dock3
  -GOLD-   22720 4113D 1   1.00000     0.00000
 Structure written by MMmdl.
 49 51  0  0  0  0  0  0  0  0  2 V2000
  147.0735  133.4572  162.1949 C   0  0  0  0  0  0  0  0  0  0  0  0
  147.6697  134.6469  161.5239 C   0  0  0  0  0  0  0  0  0  0  0  0
  148.4174  134.8001  160.3915 C   0  0  0  0  0  0  0  0  0  0  0  0
  148.6470  136.2023  160.3273 C   0  0  0  0  0  0  0  0  0  0  0  0
  149.4125  136.9805  159.2903 C   0  0  0  0  0  0  0  0  0  0  0  0
  148.6115  137.3215  158.1084 N   0  0  0  0  0  0  0  0  0  0  0  0
  147.2630  137.7246  158.4988 C   0  0  0  0  0  0  0  0  0  0  0  0
  149.2358  138.3810  157.3143 C   0  0  0  0  0  0  0  0  0  0  0  0
  150.7212  138.1490  156.9542 C   0  0  1  0  0  0  0  0  0  0  0  0
  150.8510  138.2117  155.5502 O   0  0  0  0  0  0  0  0  0  0  0  0
  151.6671  139.2063  157.5583 C   0  0  0  0  0  0  0  0  0  0  0  0
  151.1616  140.5769  157.4084 N   0  0  0  0  0  0  0  0  0  0  0  0
  150.3673  141.1192  156.4455 C   0  0  0  0  0  0  0  0  0  0  0  0
  150.1730  142.4290  156.7640 N   0  3  0  0  0  0  0  0  0  0  0  0
  150.8602  142.7291  157.9423 C   0  0  0  0  0  0  0  0  0  0  0  0
  150.9667  143.9153  158.6589 C   0  0  0  0  0  0  0  0  0  0  0  0
  151.7551  143.8915  159.8317 C   0  0  0  0  0  0  0  0  0  0  0  0
  151.8929  145.1711  160.6389 C   0  0  0  0  0  0  0  0  0  0  0  0
  152.4064  142.7022  160.2504 C   0  0  0  0  0  0  0  0  0  0  0  0
  153.2514  142.6882  161.5130 C   0  0  0  0  0  0  0  0  0  0  0  0
  152.2856  141.5061  159.5075 C   0  0  0  0  0  0  0  0  0  0  0  0
  151.5024  141.5464  158.3569 C   0  0  0  0  0  0  0  0  0  0  0  0
  148.0857  136.8380  161.3425 N   0  0  0  0  0  0  0  0  0  0  0  0
  147.4572  135.8524  162.1118 O   0  0  0  0  0  0  0  0  0  0  0  0
  147.5638  132.5400  161.8677 H   0  0  0  0  0  0  0  0  0  0  0  0
  146.0117  133.3755  161.9621 H   0  0  0  0  0  0  0  0  0  0  0  0
  147.1788  133.5279  163.2776 H   0  0  0  0  0  0  0  0  0  0  0  0
  148.7461  134.0298  159.7102 H   0  0  0  0  0  0  0  0  0  0  0  0
  149.8218  137.8922  159.7290 H   0  0  0  0  0  0  0  0  0  0  0  0
  150.2771  136.3856  159.0034 H   0  0  0  0  0  0  0  0  0  0  0  0
  146.6591  137.9586  157.6215 H   0  0  0  0  0  0  0  0  0  0  0  0
  147.2852  138.6073  159.1395 H   0  0  0  0  0  0  0  0  0  0  0  0
  146.7497  136.9275  159.0369 H   0  0  0  0  0  0  0  0  0  0  0  0
  148.6845  138.5212  156.3829 H   0  0  0  0  0  0  0  0  0  0  0  0
  149.1245  139.3209  157.8551 H   0  0  0  0  0  0  0  0  0  0  0  0
  151.0570  137.1626  157.2673 H   0  0  0  0  0  0  0  0  0  0  0  0
  149.9853  138.2533  155.1724 H   0  0  0  0  0  0  0  0  0  0  0  0
  151.8363  139.0211  158.6202 H   0  0  0  0  0  0  0  0  0  0  0  0
  152.6441  139.1625  157.0746 H   0  0  0  0  0  0  0  0  0  0  0  0
  149.9575  140.6019  155.5898 H   0  0  0  0  0  0  0  0  0  0  0  0
  150.4690  144.8173  158.3343 H   0  0  0  0  0  0  0  0  0  0  0  0
  151.4937  145.0341  161.6441 H   0  0  0  0  0  0  0  0  0  0  0  0
  151.3515  145.9963  160.1750 H   0  0  0  0  0  0  0  0  0  0  0  0
  152.9402  145.4634  160.7177 H   0  0  0  0  0  0  0  0  0  0  0  0
  153.6686  141.6988  161.7037 H   0  0  0  0  0  0  0  0  0  0  0  0
  152.6512  142.9680  162.3789 H   0  0  0  0  0  0  0  0  0  0  0  0
  154.0824  143.3885  161.4255 H   0  0  0  0  0  0  0  0  0  0  0  0
  152.7821  140.6005  159.8243 H   0  0  0  0  0  0  0  0  0  0  0  0
  149.6128  143.0689  156.2153 H   0  0  0  0  0  0  0  0  0  0  0  0
  1  2  1  0  0  0  0
  1 25  1  0  0  0  0
  1 26  1  0  0  0  0
  1 27  1  0  0  0  0
  2 24  1  0  0  0  0
  2  3  2  0  0  0  0
  3  4  1  0  0  0  0
  3 28  1  0  0  0  0
  4  5  1  0  0  0  0
  4 23  2  0  0  0  0
  5  6  1  0  0  0  0
  5 29  1  0  0  0  0
  5 30  1  0  0  0  0
  6  7  1  0  0  0  0
  6  8  1  0  0  0  0
  7 31  1  0  0  0  0
  7 32  1  0  0  0  0
  7 33  1  0  0  0  0
  8  9  1  0  0  0  0
  8 34  1  0  0  0  0
  8 35  1  0  0  0  0
  9 10  1  0  0  0  0
  9 11  1  0  0  0  0
  9 36  1  0  0  0  0
 10 37  1  0  0  0  0
 11 12  1  0  0  0  0
 11 38  1  0  0  0  0
 11 39  1  0  0  0  0
 12 22  1  0  0  0  0
 12 13  1  0  0  0  0
 13 14  2  0  0  0  0
 13 40  1  0  0  0  0
 14 15  1  0  0  0  0
 14 49  1  0  0  0  0
 15 22  2  0  0  0  0
 15 16  1  0  0  0  0
 16 17  2  0  0  0  0
 16 41  1  0  0  0  0
 17 18  1  0  0  0  0
 17 19  1  0  0  0  0
 18 42  1  0  0  0  0
 18 43  1  0  0  0  0
 18 44  1  0  0  0  0
 19 20  1  0  0  0  0
 19 21  2  0  0  0  0
 20 45  1  0  0  0  0
 20 46  1  0  0  0  0
 20 47  1  0  0  0  0
 21 22  1  0  0  0  0
 21 48  1  0  0  0  0
 23 24  1  0  0  0  0
M  CHG  1  14   1
M  END
> <s_m_source_file>
AV-unprocessed.smi

> <i_m_source_file_index>
1209

> <i_lp_mmshare_version>
43012

> <i_f3d_flags>
0

> <s_epik_input>
W0NIM11jMVtjSF1jKG5vMSlbQ0gyXU4oW0NIM10pW0NIMl1bQ0BIXShbT0hdKVtDSDJdbihbY0hdbjIpYyhjMjMpW2NIXWMoW0NIM10pYyhbY0hdMylbQ0gzXQ==

> <s_epik_cmdline>
J2VwaWtfcHl0aG9uJywgJy1waCcsICc3LjAnLCAnLXRuJywgJzgnLCAnLW1hJywgJzIwMCcsICctbWV0YWxfYmluZGluZycsICctaW1hZScsICc8aW5maWxlLm1hZT4nLCAnLW9tYWUnLCAnPG91dGZpbGUubWFlPic=

> <r_epik_Ionization_Penalty>
1.23608

> <r_epik_Ionization_Penalty_Charging>
1.21624

> <r_epik_Ionization_Penalty_Neutral>
0.0198409

> <r_epik_State_Penalty>
1.27749

> <r_epik_Charging_Adjusted_Penalty>
2.49372

> <i_epik_Tot_Q>
1

> <i_epik_Tot_abs_Q>
1

> <r_epik_Metal_State_Penalty>
1.34809

> <b_epik_Metal_Only>
0

> <s_lp_Force_Field>
OPLS_2005

> <r_lp_Energy>
23.0789

> <b_lp_Chiralities_Consistent>
1

> <s_lp_Variant>
AV-unprocessed.smi:1209-4

> <Gold.Version>
5.8.1

> <Gold.Id.Protein>
6NUR|6NUR_protein|mol2

> <Gold.PLP.Fitness>
55.3782

> <Gold.PLP.PLP>
-47.4212

> <Gold.PLP.part.hbond>
-3.0000

> <Gold.PLP.part.metal>
0.0000

> <Gold.PLP.part.buried>
-7.1380

> <Gold.PLP.part.nonpolar>
-37.2817

> <Gold.PLP.part.repulsive>
0.0668

> <Gold.PLP.ligand.clash>
0.0000

> <Gold.PLP.ligand.torsion>
1.7550

> <Gold.PLP.Chemscore.Hbond>
3.7920

> <Gold.PLP.Chemscore.CHOScore>
0.0000

> <Gold.PLP.Chemscore.Metal>
0.0000

> <Gold.Chemscore.Hbonds>
donor molecule, donor type, donor heavy atom, donor atom, acceptor molecule, acceptor atom, score
      L1  H    14    49       P1  8028  2.00
      P1  H  6931  6943       L1    23  1.00
      P1  H  6934  6947       L1    23  0.07

> <Gold.PLP.Chemscore.Internal.Correction>
0.0910

> <Gold.Rescore>
     Score         DG    S(hbond)    S(metal)    S(lipo)     H(rot)  DE(clash)    DE(int)     intcor
     19.54     -21.34       2.57        0.00     117.39       2.53       0.03       1.77       ----

> <Gold.Chemscore.Fitness>
19.5432

> <Gold.Chemscore.DG>
-21.3417

> <Gold.Chemscore.ZeroCoef>
-5.4800

> <Gold.Chemscore.Hbond>
2.5731

> <Gold.Chemscore.Metal>
0.0000

> <Gold.Chemscore.Lipo>
117.3941

> <Gold.Chemscore.Internal_Hbond>
0.0000

> <Gold.Chemscore.DEClash>
0.0310

> <Gold.Chemscore.DEInternal>
1.7675

> <Gold.Chemscore.Rot>
2.5265

> <Gold.Chemscore.Internal.Correction>
   9.000000E+99

> <Gold.Chemscore.Hbonds>
donor molecule, donor type, donor heavy atom, donor atom, acceptor molecule, acceptor atom, score
      L1  H    14    49       P1  8028  0.99
      P1  H  6931  6943       L1    23  0.85
      P1  H  6934  6947       L1    23  0.09

> <Gold.Chemscore.Hbond.Weighted>
-8.5943

> <Gold.Chemscore.Metal.Weighted>
-0.0000

> <Gold.Chemscore.Lipo.Weighted>
-13.7351

> <Gold.Chemscore.Internal_Hbond.Weighted>
0.0000

> <Gold.Chemscore.DEClash.Weighted>
0.0310

> <Gold.Chemscore.DEInternal.Weighted>
1.7675

> <Gold.Chemscore.Rot.Weighted>
6.4677

> <Gold.Chemscore.Internal.Correction.Weighted>
   9.000000E+99

> <Gold.Protein.RotatedTorsions>
[ 6907 6896 6895 6894 ] final   83.24 input  -60.11 | X-H torsion
[ 7974 7965 7964 7962 ] final  -13.76 input  175.53 | X-H torsion
[ 8008 7997 7996 7995 ] final   75.65 input   59.86 | X-H torsion
[ 10167 10162 10161 10158 ] final   -7.95 input  -65.29 | X-H torsion
[ 10718 10713 10712 10709 ] final  124.45 input   66.30 | X-H torsion
[ 10763 10752 10751 10750 ] final -179.24 input  -60.55 | X-H torsion
[ 11005 11000 10999 10996 ] final  157.17 input  -57.11 | X-H torsion

> <Gold.Protein.ActiveResidues>
 VAL166  LYS551  ARG553  GLY616  TRP617  ASP618  TYR619  PRO620  LYS621  CYS622 
 ASP623  PHE694  ASN695  SER759  ASP760  ASP761  ALA762  ILE779  LEU786  VAL792 
 PHE793  MET794  SER795  GLU796  ALA797  LYS798  CYS799  TRP800  GLU811  SER814 

> <Gold.Protein.RotatedAtoms>
  152.5321  134.2926  159.9048 H   0  0  0  0  0  0  0  0  0  0  0  0  # atno 6907 bound_to 6896
  151.2878  133.4173  159.2638 H   0  0  0  0  0  0  0  0  0  0  0  0  # atno 6908 bound_to 6896
  151.0227  134.9497  159.8125 H   0  0  0  0  0  0  0  0  0  0  0  0  # atno 6909 bound_to 6896
  146.2101  140.3251  142.8394 H   0  0  0  0  0  0  0  0  0  0  0  0  # atno 7974 bound_to 7965
  155.8160  140.3471  155.5486 H   0  0  0  0  0  0  0  0  0  0  0  0  # atno 8008 bound_to 7997
  155.8391  140.0939  157.1765 H   0  0  0  0  0  0  0  0  0  0  0  0  # atno 8009 bound_to 7997
  154.4005  140.1398  156.3694 H   0  0  0  0  0  0  0  0  0  0  0  0  # atno 8010 bound_to 7997
  140.7044  143.6024  150.8785 H   0  0  0  0  0  0  0  0  0  0  0  0  # atno 10167 bound_to 10162
  157.5584  131.1091  150.8581 H   0  0  0  0  0  0  0  0  0  0  0  0  # atno 10718 bound_to 10713
  154.5375  135.2804  155.1125 H   0  0  0  0  0  0  0  0  0  0  0  0  # atno 10763 bound_to 10752
  154.2620  135.6320  153.5282 H   0  0  0  0  0  0  0  0  0  0  0  0  # atno 10764 bound_to 10752
  152.9971  135.5608  154.5906 H   0  0  0  0  0  0  0  0  0  0  0  0  # atno 10765 bound_to 10752
  140.1744  134.8520  157.2729 H   0  0  0  0  0  0  0  0  0  0  0  0  # atno 11005 bound_to 11000
  144.8892  140.7502  143.5937 LP  0  0  0  0  0  0  0  0  0  0  0  0  # atno 17320 bound_to 7965
  145.3173  139.1799  143.4607 LP  0  0  0  0  0  0  0  0  0  0  0  0  # atno 17321 bound_to 7965
  139.9748  143.6017  152.2962 LP  0  0  0  0  0  0  0  0  0  0  0  0  # atno 17342 bound_to 10162
  139.6616  144.7662  151.1951 LP  0  0  0  0  0  0  0  0  0  0  0  0  # atno 17343 bound_to 10162
  156.9086  130.5272  149.5281 LP  0  0  0  0  0  0  0  0  0  0  0  0  # atno 17370 bound_to 10713
  156.0640  130.5687  150.9250 LP  0  0  0  0  0  0  0  0  0  0  0  0  # atno 17371 bound_to 10713
  140.2340  134.3875  155.7509 LP  0  0  0  0  0  0  0  0  0  0  0  0  # atno 17394 bound_to 11000
  141.2219  133.7230  156.8685 LP  0  0  0  0  0  0  0  0  0  0  0  0  # atno 17395 bound_to 11000

$$$$
