AV-unprocessed.smi:3032|AV-procd|sdf|11558|dock4
  -GOLD-   2272016523D 1   1.00000     0.00000
 Structure written by MMmdl.
 37 38  0  0  0  0  0  0  0  0  1 V2000
  153.2369  141.9484  160.9739 C   0  0  0  0  0  0  0  0  0  0  0  0
  152.2679  142.6902  160.0424 C   0  0  1  0  0  0  0  0  0  0  0  0
  152.8067  144.0822  159.6601 C   0  0  0  0  0  0  0  0  0  0  0  0
  151.8438  144.8218  158.7174 C   0  0  0  0  0  0  0  0  0  0  0  0
  151.5427  143.9886  157.4618 C   0  0  0  0  0  0  0  0  0  0  0  0
  150.9844  142.6004  157.8370 C   0  0  1  0  0  0  0  0  0  0  0  0
  150.7042  141.7561  156.5876 C   0  0  0  0  0  0  0  0  0  0  0  0
  151.2887  140.6854  156.4197 O   0  0  0  0  0  0  0  0  0  0  0  0
  149.7858  142.2372  155.7339 N   0  0  0  0  0  0  0  0  0  0  0  0
  149.2879  141.5449  154.5471 C   0  0  0  0  0  0  0  0  0  0  0  0
  148.8030  140.1172  154.8673 C   0  0  0  0  0  0  0  0  0  0  0  0
  149.8542  139.0649  154.6994 C   0  0  0  0  0  0  0  0  0  0  0  0
  149.6127  137.7723  154.9290 N   0  0  0  0  0  0  0  0  0  0  0  0
  150.7468  137.0662  154.7408 N   0  0  0  0  0  0  0  0  0  0  0  0
  151.6129  138.0176  154.3969 C   0  0  0  0  0  0  0  0  0  0  0  0
  151.1159  139.2901  154.3491 N   0  0  0  0  0  0  0  0  0  0  0  0
  151.9635  141.8651  158.7771 C   0  0  0  0  0  0  0  0  0  0  0  0
  148.7401  137.3500  155.2126 H   0  0  0  0  0  0  0  0  0  0  0  0
  154.2004  141.7812  160.4913 H   0  0  0  0  0  0  0  0  0  0  0  0
  152.8367  140.9764  161.2634 H   0  0  0  0  0  0  0  0  0  0  0  0
  153.4157  142.5162  161.8871 H   0  0  0  0  0  0  0  0  0  0  0  0
  151.3323  142.8293  160.5859 H   0  0  0  0  0  0  0  0  0  0  0  0
  152.9686  144.6799  160.5578 H   0  0  0  0  0  0  0  0  0  0  0  0
  153.7797  143.9813  159.1775 H   0  0  0  0  0  0  0  0  0  0  0  0
  150.9133  145.0402  159.2427 H   0  0  0  0  0  0  0  0  0  0  0  0
  152.2707  145.7835  158.4314 H   0  0  0  0  0  0  0  0  0  0  0  0
  150.8304  144.5232  156.8320 H   0  0  0  0  0  0  0  0  0  0  0  0
  152.4563  143.8828  156.8742 H   0  0  0  0  0  0  0  0  0  0  0  0
  150.0437  142.7465  158.3713 H   0  0  0  0  0  0  0  0  0  0  0  0
  149.3665  143.1304  155.9482 H   0  0  0  0  0  0  0  0  0  0  0  0
  148.4639  142.1263  154.1331 H   0  0  0  0  0  0  0  0  0  0  0  0
  150.0539  141.5109  153.7705 H   0  0  0  0  0  0  0  0  0  0  0  0
  148.4302  140.0783  155.8918 H   0  0  0  0  0  0  0  0  0  0  0  0
  147.9572  139.8660  154.2266 H   0  0  0  0  0  0  0  0  0  0  0  0
  152.6435  137.7869  154.1711 H   0  0  0  0  0  0  0  0  0  0  0  0
  152.8962  141.6501  158.2521 H   0  0  0  0  0  0  0  0  0  0  0  0
  151.5445  140.8992  159.0633 H   0  0  0  0  0  0  0  0  0  0  0  0
  1  2  1  0  0  0  0
  1 19  1  0  0  0  0
  1 20  1  0  0  0  0
  1 21  1  0  0  0  0
  2 17  1  0  0  0  0
  2  3  1  0  0  0  0
  2 22  1  0  0  0  0
  3  4  1  0  0  0  0
  3 23  1  0  0  0  0
  3 24  1  0  0  0  0
  4  5  1  0  0  0  0
  4 25  1  0  0  0  0
  4 26  1  0  0  0  0
  5  6  1  0  0  0  0
  5 27  1  0  0  0  0
  5 28  1  0  0  0  0
  6  7  1  0  0  0  0
  6 17  1  0  0  0  0
  6 29  1  0  0  0  0
  7  8  2  0  0  0  0
  7  9  1  0  0  0  0
  9 10  1  0  0  0  0
  9 30  1  0  0  0  0
 10 11  1  0  0  0  0
 10 31  1  0  0  0  0
 10 32  1  0  0  0  0
 11 33  1  0  0  0  0
 11 34  1  0  0  0  0
 11 12  1  0  0  0  0
 12 16  2  0  0  0  0
 12 13  1  0  0  0  0
 13 18  1  0  0  0  0
 13 14  1  0  0  0  0
 14 15  2  0  0  0  0
 15 16  1  0  0  0  0
 15 35  1  0  0  0  0
 17 36  1  0  0  0  0
 17 37  1  0  0  0  0
M  END
> <s_m_source_file>
AV-unprocessed.smi

> <i_m_source_file_index>
3032

> <i_lp_mmshare_version>
43012

> <i_f3d_flags>
0

> <s_epik_input>
W0NIM11bQ0BASF0xW0NIMl1bQ0gyXVtDSDJdW0NASF0oW0NIMl0xKUMoPU8pW05IXVtDSDJdW0NIMl1jMm5uW2NIXVtuSF0y

> <s_epik_cmdline>
J2VwaWtfcHl0aG9uJywgJy1waCcsICc3LjAnLCAnLXRuJywgJzgnLCAnLW1hJywgJzIwMCcsICctbWV0YWxfYmluZGluZycsICctaW1hZScsICc8aW5maWxlLm1hZT4nLCAnLW9tYWUnLCAnPG91dGZpbGUubWFlPic=

> <r_lp_tautomer_probability>
0.948284

> <r_epik_Ionization_Penalty>
0.000474052

> <r_epik_Ionization_Penalty_Charging>
0

> <r_epik_Ionization_Penalty_Neutral>
0.000474052

> <r_epik_State_Penalty>
0.271807

> <r_epik_Charging_Adjusted_Penalty>
0.271807

> <i_epik_Tot_Q>
0

> <i_epik_Tot_abs_Q>
0

> <r_epik_Metal_State_Penalty>
0.397201

> <b_epik_Metal_Only>
0

> <s_lp_Force_Field>
OPLS_2005

> <r_lp_Energy>
10.7407

> <b_lp_Chiralities_Consistent>
1

> <s_lp_Variant>
AV-unprocessed.smi:3032-2

> <Gold.Version>
5.8.1

> <Gold.Id.Protein>
6NUR|6NUR_protein|mol2

> <Gold.PLP.Fitness>
44.8321

> <Gold.PLP.PLP>
-39.3416

> <Gold.PLP.part.hbond>
-2.0000

> <Gold.PLP.part.metal>
0.0000

> <Gold.PLP.part.buried>
-3.9942

> <Gold.PLP.part.nonpolar>
-33.9365

> <Gold.PLP.part.repulsive>
0.4832

> <Gold.PLP.ligand.clash>
0.0000

> <Gold.PLP.ligand.torsion>
0.2636

> <Gold.PLP.Chemscore.Hbond>
2.0000

> <Gold.PLP.Chemscore.CHOScore>
0.0000

> <Gold.PLP.Chemscore.Metal>
0.0000

> <Gold.Chemscore.Hbonds>
donor molecule, donor type, donor heavy atom, donor atom, acceptor molecule, acceptor atom, score
      L1  H     9    30       P1  8028  1.00
      P1  H  7989  7998       L1    16  1.00

> <Gold.PLP.Chemscore.Internal.Correction>
0.0177

> <Gold.Rescore>
     Score         DG    S(hbond)    S(metal)    S(lipo)     H(rot)  DE(clash)    DE(int)     intcor
     12.82     -17.13       1.97        0.00      92.55       2.25       0.03       4.28       ----

> <Gold.Chemscore.Fitness>
12.8180

> <Gold.Chemscore.DG>
-17.1338

> <Gold.Chemscore.ZeroCoef>
-5.4800

> <Gold.Chemscore.Hbond>
1.9720

> <Gold.Chemscore.Metal>
0.0000

> <Gold.Chemscore.Lipo>
92.5451

> <Gold.Chemscore.Internal_Hbond>
0.0000

> <Gold.Chemscore.DEClash>
0.0313

> <Gold.Chemscore.DEInternal>
4.2845

> <Gold.Chemscore.Rot>
2.2501

> <Gold.Chemscore.Internal.Correction>
   9.000000E+99

> <Gold.Chemscore.Hbonds>
donor molecule, donor type, donor heavy atom, donor atom, acceptor molecule, acceptor atom, score
      L1  H     9    30       P1  8028  0.98
      P1  H  7989  7998       L1    16  0.99

> <Gold.Chemscore.Hbond.Weighted>
-6.5864

> <Gold.Chemscore.Metal.Weighted>
-0.0000

> <Gold.Chemscore.Lipo.Weighted>
-10.8278

> <Gold.Chemscore.Internal_Hbond.Weighted>
0.0000

> <Gold.Chemscore.DEClash.Weighted>
0.0313

> <Gold.Chemscore.DEInternal.Weighted>
4.2845

> <Gold.Chemscore.Rot.Weighted>
5.7603

> <Gold.Chemscore.Internal.Correction.Weighted>
   9.000000E+99

> <Gold.Protein.RotatedTorsions>
[ 6907 6896 6895 6894 ] final   13.50 input  -60.11 | X-H torsion
[ 7974 7965 7964 7962 ] final   72.80 input  175.53 | X-H torsion
[ 8008 7997 7996 7995 ] final   71.12 input   59.86 | X-H torsion
[ 10167 10162 10161 10158 ] final  139.32 input  -65.29 | X-H torsion
[ 10718 10713 10712 10709 ] final    4.56 input   66.30 | X-H torsion
[ 10763 10752 10751 10750 ] final -149.99 input  -60.55 | X-H torsion
[ 11005 11000 10999 10996 ] final -108.81 input  -57.11 | X-H torsion

> <Gold.Protein.ActiveResidues>
 VAL166  LYS551  ARG553  GLY616  TRP617  ASP618  TYR619  PRO620  LYS621  CYS622 
 ASP623  PHE694  ASN695  SER759  ASP760  ASP761  ALA762  ILE779  LEU786  VAL792 
 PHE793  MET794  SER795  GLU796  ALA797  LYS798  CYS799  TRP800  GLU811  SER814 

> <Gold.Protein.RotatedAtoms>
  151.7873  135.0745  160.0382 H   0  0  0  0  0  0  0  0  0  0  0  0  # atno 6907 bound_to 6896
  152.3181  133.5819  159.5734 H   0  0  0  0  0  0  0  0  0  0  0  0  # atno 6908 bound_to 6896
  150.7355  133.9968  159.3667 H   0  0  0  0  0  0  0  0  0  0  0  0  # atno 6909 bound_to 6896
  145.7488  139.2751  143.1443 H   0  0  0  0  0  0  0  0  0  0  0  0  # atno 7974 bound_to 7965
  155.7491  140.3489  155.5141 H   0  0  0  0  0  0  0  0  0  0  0  0  # atno 8008 bound_to 7997
  155.9022  140.1036  157.1363 H   0  0  0  0  0  0  0  0  0  0  0  0  # atno 8009 bound_to 7997
  154.4045  140.1284  156.4437 H   0  0  0  0  0  0  0  0  0  0  0  0  # atno 8010 bound_to 7997
  139.5083  144.6302  151.5837 H   0  0  0  0  0  0  0  0  0  0  0  0  # atno 10167 bound_to 10162
  156.8944  130.5699  149.5649 H   0  0  0  0  0  0  0  0  0  0  0  0  # atno 10718 bound_to 10713
  154.8145  135.3295  154.7214 H   0  0  0  0  0  0  0  0  0  0  0  0  # atno 10763 bound_to 10752
  153.7857  135.6915  153.4885 H   0  0  0  0  0  0  0  0  0  0  0  0  # atno 10764 bound_to 10752
  153.1950  135.4537  155.0144 H   0  0  0  0  0  0  0  0  0  0  0  0  # atno 10765 bound_to 10752
  141.0881  133.9103  157.2138 H   0  0  0  0  0  0  0  0  0  0  0  0  # atno 11005 bound_to 11000
  146.0377  140.8196  142.9844 LP  0  0  0  0  0  0  0  0  0  0  0  0  # atno 17320 bound_to 7965
  144.6854  140.2863  143.7284 LP  0  0  0  0  0  0  0  0  0  0  0  0  # atno 17321 bound_to 7965
  140.6032  143.9572  150.6400 LP  0  0  0  0  0  0  0  0  0  0  0  0  # atno 17342 bound_to 10162
  140.2791  143.3402  152.1168 LP  0  0  0  0  0  0  0  0  0  0  0  0  # atno 17343 bound_to 10162
  156.0613  130.5665  150.9198 LP  0  0  0  0  0  0  0  0  0  0  0  0  # atno 17370 bound_to 10713
  157.6064  131.0939  150.8872 LP  0  0  0  0  0  0  0  0  0  0  0  0  # atno 17371 bound_to 10713
  139.9703  135.0130  156.9494 LP  0  0  0  0  0  0  0  0  0  0  0  0  # atno 17394 bound_to 11000
  140.5315  134.0809  155.7317 LP  0  0  0  0  0  0  0  0  0  0  0  0  # atno 17395 bound_to 11000

$$$$
