AV-unprocessed.smi:1239|AV-procd|sdf|5186|dock3
  -GOLD-   22720 4263D 1   1.00000     0.00000
 Structure written by MMmdl.
 48 49  0  0  0  0  0  0  0  0  2 V2000
  145.8525  135.4027  151.5047 C   0  0  0  0  0  0  0  0  0  0  0  0
  145.1723  136.4369  152.4379 C   0  0  1  0  0  0  0  0  0  0  0  0
  145.6298  137.8652  152.0292 C   0  0  0  0  0  0  0  0  0  0  0  0
  146.9823  138.1809  152.4846 N   0  0  0  0  0  0  0  0  0  0  0  0
  147.3200  139.2131  153.2710 C   0  0  0  0  0  0  0  0  0  0  0  0
  146.5133  140.0392  153.6969 O   0  0  0  0  0  0  0  0  0  0  0  0
  148.6434  139.2297  153.5076 N   0  0  0  0  0  0  0  0  0  0  0  0
  149.3857  140.1253  154.3251 C   0  0  0  0  0  0  0  0  0  0  0  0
  150.5707  139.6456  154.9210 C   0  0  0  0  0  0  0  0  0  0  0  0
  151.3308  140.4921  155.7543 C   0  0  0  0  0  0  0  0  0  0  0  0
  150.8959  141.8181  155.9969 C   0  0  0  0  0  0  0  0  0  0  0  0
  151.5987  142.7245  156.8200 N   0  0  0  0  0  0  0  0  0  0  0  0
  151.6502  144.1380  156.4634 C   0  0  0  0  0  0  0  0  0  0  0  0
  152.2714  142.2435  158.0197 C   0  0  0  0  0  0  0  0  0  0  0  0
  149.7451  142.2297  155.4109 N   0  3  0  0  0  0  0  0  0  0  0  0
  148.9880  141.4541  154.6054 C   0  0  0  0  0  0  0  0  0  0  0  0
  143.6985  136.2866  152.4801 N   0  0  0  0  0  0  0  0  0  0  0  0
  143.2803  134.9341  152.8677 C   0  0  0  0  0  0  0  0  0  0  0  0
  141.7514  134.7767  152.9369 C   0  0  0  0  0  0  0  0  0  0  0  0
  141.2134  135.7297  153.8426 O   0  0  0  0  0  0  0  0  0  0  0  0
  141.5269  137.0617  153.4611 C   0  0  0  0  0  0  0  0  0  0  0  0
  143.0539  137.2378  153.3934 C   0  0  0  0  0  0  0  0  0  0  0  0
  146.9327  135.5332  151.4558 H   0  0  0  0  0  0  0  0  0  0  0  0
  145.4674  135.4780  150.4873 H   0  0  0  0  0  0  0  0  0  0  0  0
  145.7097  134.3782  151.8445 H   0  0  0  0  0  0  0  0  0  0  0  0
  145.5560  136.2566  153.4434 H   0  0  0  0  0  0  0  0  0  0  0  0
  145.5269  137.9919  150.9501 H   0  0  0  0  0  0  0  0  0  0  0  0
  145.0028  138.6271  152.4885 H   0  0  0  0  0  0  0  0  0  0  0  0
  147.7157  137.5590  152.1775 H   0  0  0  0  0  0  0  0  0  0  0  0
  149.1886  138.5336  153.0201 H   0  0  0  0  0  0  0  0  0  0  0  0
  150.9022  138.6334  154.7404 H   0  0  0  0  0  0  0  0  0  0  0  0
  152.2374  140.1065  156.1965 H   0  0  0  0  0  0  0  0  0  0  0  0
  150.6459  144.5619  156.4303 H   0  0  0  0  0  0  0  0  0  0  0  0
  152.1155  144.2699  155.4860 H   0  0  0  0  0  0  0  0  0  0  0  0
  152.2292  144.7102  157.1885 H   0  0  0  0  0  0  0  0  0  0  0  0
  153.0256  141.4988  157.7636 H   0  0  0  0  0  0  0  0  0  0  0  0
  151.5544  141.7932  158.7067 H   0  0  0  0  0  0  0  0  0  0  0  0
  152.7715  143.0562  158.5466 H   0  0  0  0  0  0  0  0  0  0  0  0
  148.0925  141.9290  154.2341 H   0  0  0  0  0  0  0  0  0  0  0  0
  143.6419  134.1988  152.1514 H   0  0  0  0  0  0  0  0  0  0  0  0
  143.7144  134.6760  153.8349 H   0  0  0  0  0  0  0  0  0  0  0  0
  141.3038  134.9063  151.9501 H   0  0  0  0  0  0  0  0  0  0  0  0
  141.4889  133.7753  153.2776 H   0  0  0  0  0  0  0  0  0  0  0  0
  141.0685  137.2906  152.4977 H   0  0  0  0  0  0  0  0  0  0  0  0
  141.0986  137.7497  154.1901 H   0  0  0  0  0  0  0  0  0  0  0  0
  143.4758  137.1340  154.3942 H   0  0  0  0  0  0  0  0  0  0  0  0
  143.2373  138.2622  153.0756 H   0  0  0  0  0  0  0  0  0  0  0  0
  149.4284  143.1826  155.5908 H   0  0  0  0  0  0  0  0  0  0  0  0
  1  2  1  0  0  0  0
  1 23  1  0  0  0  0
  1 24  1  0  0  0  0
  1 25  1  0  0  0  0
  2  3  1  0  0  0  0
  2 17  1  0  0  0  0
  2 26  1  0  0  0  0
  3  4  1  0  0  0  0
  3 27  1  0  0  0  0
  3 28  1  0  0  0  0
  4  5  1  0  0  0  0
  4 29  1  0  0  0  0
  5  6  2  0  0  0  0
  5  7  1  0  0  0  0
  7  8  1  0  0  0  0
  7 30  1  0  0  0  0
  8 16  1  0  0  0  0
  8  9  2  0  0  0  0
  9 10  1  0  0  0  0
  9 31  1  0  0  0  0
 10 11  2  0  0  0  0
 10 32  1  0  0  0  0
 11 12  1  0  0  0  0
 11 15  1  0  0  0  0
 12 13  1  0  0  0  0
 12 14  1  0  0  0  0
 13 33  1  0  0  0  0
 13 34  1  0  0  0  0
 13 35  1  0  0  0  0
 14 36  1  0  0  0  0
 14 37  1  0  0  0  0
 14 38  1  0  0  0  0
 15 16  2  0  0  0  0
 15 48  1  0  0  0  0
 16 39  1  0  0  0  0
 17 22  1  0  0  0  0
 17 18  1  0  0  0  0
 18 19  1  0  0  0  0
 18 40  1  0  0  0  0
 18 41  1  0  0  0  0
 19 20  1  0  0  0  0
 19 42  1  0  0  0  0
 19 43  1  0  0  0  0
 20 21  1  0  0  0  0
 21 22  1  0  0  0  0
 21 44  1  0  0  0  0
 21 45  1  0  0  0  0
 22 46  1  0  0  0  0
 22 47  1  0  0  0  0
M  CHG  1  15   1
M  END
> <s_m_source_file>
AV-unprocessed.smi

> <i_m_source_file_index>
1239

> <i_lp_mmshare_version>
43012

> <i_f3d_flags>
0

> <s_epik_input>
W0NIMl0xW0NIMl1PW0NIMl1bQ0gyXU4xW0NASF0oW0NIM10pW0NIMl1bTkhdQyg9TylbTkhdYzJbY0hdW2NIXWMoTihbQ0gzXSlbQ0gzXSluW2NIXTI=

> <s_epik_cmdline>
J2VwaWtfcHl0aG9uJywgJy1waCcsICc3LjAnLCAnLXRuJywgJzgnLCAnLW1hJywgJzIwMCcsICctbWV0YWxfYmluZGluZycsICctaW1hZScsICc8aW5maWxlLm1hZT4nLCAnLW9tYWUnLCAnPG91dGZpbGUubWFlPic=

> <r_lp_tautomer_probability>
0.999994

> <r_epik_Ionization_Penalty>
0.528791

> <r_epik_Ionization_Penalty_Charging>
0.26278

> <r_epik_Ionization_Penalty_Neutral>
0.26601

> <r_epik_State_Penalty>
0.520375

> <r_epik_Charging_Adjusted_Penalty>
0.783156

> <i_epik_Tot_Q>
1

> <i_epik_Tot_abs_Q>
1

> <r_epik_Metal_State_Penalty>
0.806531

> <b_epik_Metal_Only>
0

> <s_lp_Force_Field>
OPLS_2005

> <r_lp_Energy>
38.5694

> <b_lp_Chiralities_Consistent>
1

> <s_lp_Variant>
AV-unprocessed.smi:1239-2

> <Gold.Version>
5.8.1

> <Gold.Id.Protein>
6NUR|6NUR_protein|mol2

> <Gold.PLP.Fitness>
45.1954

> <Gold.PLP.PLP>
-37.9494

> <Gold.PLP.part.hbond>
-3.3563

> <Gold.PLP.part.metal>
0.0000

> <Gold.PLP.part.buried>
-3.0531

> <Gold.PLP.part.nonpolar>
-32.3662

> <Gold.PLP.part.repulsive>
1.0478

> <Gold.PLP.ligand.clash>
0.0000

> <Gold.PLP.ligand.torsion>
0.8982

> <Gold.PLP.Chemscore.Hbond>
3.0000

> <Gold.PLP.Chemscore.CHOScore>
0.0000

> <Gold.PLP.Chemscore.Metal>
0.0000

> <Gold.Chemscore.Hbonds>
donor molecule, donor type, donor heavy atom, donor atom, acceptor molecule, acceptor atom, score
      L1  H     4    29       P1  7948  1.00
      L1  H    15    48       P1  8028  2.00

> <Gold.PLP.Chemscore.Internal.Correction>
0.0425

> <Gold.Rescore>
     Score         DG    S(hbond)    S(metal)    S(lipo)     H(rot)  DE(clash)    DE(int)     intcor
     16.06     -17.33       1.99        0.00      76.52       1.46       0.05       1.23       ----

> <Gold.Chemscore.Fitness>
16.0587

> <Gold.Chemscore.DG>
-17.3340

> <Gold.Chemscore.ZeroCoef>
-5.4800

> <Gold.Chemscore.Hbond>
1.9878

> <Gold.Chemscore.Metal>
0.0000

> <Gold.Chemscore.Lipo>
76.5245

> <Gold.Chemscore.Internal_Hbond>
0.0000

> <Gold.Chemscore.DEClash>
0.0453

> <Gold.Chemscore.DEInternal>
1.2299

> <Gold.Chemscore.Rot>
1.4604

> <Gold.Chemscore.Internal.Correction>
   9.000000E+99

> <Gold.Chemscore.Hbonds>
donor molecule, donor type, donor heavy atom, donor atom, acceptor molecule, acceptor atom, score
      L1  H     4    29       P1  7948  1.00
      L1  H    15    48       P1  8028  0.99

> <Gold.Chemscore.Hbond.Weighted>
-6.6391

> <Gold.Chemscore.Metal.Weighted>
-0.0000

> <Gold.Chemscore.Lipo.Weighted>
-8.9534

> <Gold.Chemscore.Internal_Hbond.Weighted>
0.0000

> <Gold.Chemscore.DEClash.Weighted>
0.0453

> <Gold.Chemscore.DEInternal.Weighted>
1.2299

> <Gold.Chemscore.Rot.Weighted>
3.7385

> <Gold.Chemscore.Internal.Correction.Weighted>
   9.000000E+99

> <Gold.Protein.RotatedTorsions>
[ 6907 6896 6895 6894 ] final   20.45 input  -60.11 | X-H torsion
[ 7974 7965 7964 7962 ] final -131.93 input  175.53 | X-H torsion
[ 8008 7997 7996 7995 ] final -177.45 input   59.86 | X-H torsion
[ 10167 10162 10161 10158 ] final   11.80 input  -65.29 | X-H torsion
[ 10718 10713 10712 10709 ] final  174.78 input   66.30 | X-H torsion
[ 10763 10752 10751 10750 ] final  -14.42 input  -60.55 | X-H torsion
[ 11005 11000 10999 10996 ] final  -90.21 input  -57.11 | X-H torsion

> <Gold.Protein.ActiveResidues>
 VAL166  LYS551  ARG553  GLY616  TRP617  ASP618  TYR619  PRO620  LYS621  CYS622 
 ASP623  PHE694  ASN695  SER759  ASP760  ASP761  ALA762  ILE779  LEU786  VAL792 
 PHE793  MET794  SER795  GLU796  ALA797  LYS798  CYS799  TRP800  GLU811  SER814 

> <Gold.Protein.RotatedAtoms>
  151.8966  135.0395  160.0502 H   0  0  0  0  0  0  0  0  0  0  0  0  # atno 6907 bound_to 6896
  152.2393  133.5117  159.5269 H   0  0  0  0  0  0  0  0  0  0  0  0  # atno 6908 bound_to 6896
  150.7048  134.1027  159.4014 H   0  0  0  0  0  0  0  0  0  0  0  0  # atno 6909 bound_to 6896
  144.9333  140.7153  143.4892 H   0  0  0  0  0  0  0  0  0  0  0  0  # atno 7974 bound_to 7965
  156.0071  140.1232  157.0491 H   0  0  0  0  0  0  0  0  0  0  0  0  # atno 8008 bound_to 7997
  154.4262  140.1095  156.5846 H   0  0  0  0  0  0  0  0  0  0  0  0  # atno 8009 bound_to 7997
  155.6132  140.3471  155.4631 H   0  0  0  0  0  0  0  0  0  0  0  0  # atno 8010 bound_to 7997
  140.6109  143.8410  150.7064 H   0  0  0  0  0  0  0  0  0  0  0  0  # atno 10167 bound_to 10162
  156.9446  131.0012  151.2961 H   0  0  0  0  0  0  0  0  0  0  0  0  # atno 10718 bound_to 10713
  153.5281  135.7015  153.5697 H   0  0  0  0  0  0  0  0  0  0  0  0  # atno 10763 bound_to 10752
  153.3717  135.3943  155.1793 H   0  0  0  0  0  0  0  0  0  0  0  0  # atno 10764 bound_to 10752
  154.8687  135.3813  154.4775 H   0  0  0  0  0  0  0  0  0  0  0  0  # atno 10765 bound_to 10752
  141.1570  133.7678  156.9706 H   0  0  0  0  0  0  0  0  0  0  0  0  # atno 11005 bound_to 11000
  145.3107  139.1819  143.4640 LP  0  0  0  0  0  0  0  0  0  0  0  0  # atno 17320 bound_to 7965
  146.3256  140.3112  142.8627 LP  0  0  0  0  0  0  0  0  0  0  0  0  # atno 17321 bound_to 7965
  140.1978  143.3984  152.1815 LP  0  0  0  0  0  0  0  0  0  0  0  0  # atno 17342 bound_to 10162
  139.5360  144.7210  151.4891 LP  0  0  0  0  0  0  0  0  0  0  0  0  # atno 17343 bound_to 10162
  157.5762  130.8345  149.8459 LP  0  0  0  0  0  0  0  0  0  0  0  0  # atno 17370 bound_to 10713
  156.0389  130.3744  150.1487 LP  0  0  0  0  0  0  0  0  0  0  0  0  # atno 17371 bound_to 10713
  140.1132  134.9464  157.2096 LP  0  0  0  0  0  0  0  0  0  0  0  0  # atno 17394 bound_to 11000
  140.3167  134.2963  155.7255 LP  0  0  0  0  0  0  0  0  0  0  0  0  # atno 17395 bound_to 11000

$$$$
