AV-unprocessed.smi:160|AV-procd|sdf|1344|dock10
  -GOLD-   2262019 43D 1   1.00000     0.00000
 Structure written by MMmdl.
 29 30  0  0  0  0  0  0  0  0  1 V2000
  154.8022  138.1237  159.8451 N   0  0  0  0  0  0  0  0  0  0  0  0
  153.6663  137.4533  159.6256 C   0  0  0  0  0  0  0  0  0  0  0  0
  153.2960  136.5298  160.3485 O   0  0  0  0  0  0  0  0  0  0  0  0
  152.8551  137.8929  158.4383 C   0  0  0  0  0  0  0  0  0  0  0  0
  151.9500  137.0551  157.8505 N   0  0  0  0  0  0  0  0  0  0  0  0
  151.5080  137.8633  156.8954 C   0  0  0  0  0  0  0  0  0  0  0  0
  152.0828  139.0704  156.8891 N   0  0  0  0  0  0  0  0  0  0  0  0
  151.8485  140.2397  155.9792 C   0  0  1  0  0  0  0  0  0  0  0  0
  150.8412  139.8962  155.0741 O   0  0  0  0  0  0  0  0  0  0  0  0
  149.6173  140.5143  155.4593 C   0  0  2  0  0  0  0  0  0  0  0  0
  148.6725  140.5974  154.2510 C   0  0  0  0  0  0  0  0  0  0  0  0
  149.3864  141.0195  153.1086 O   0  0  0  0  0  0  0  0  0  0  0  0
  150.1125  141.8745  155.9521 C   0  0  1  0  0  0  0  0  0  0  0  0
  149.1520  142.5626  156.7320 O   0  0  0  0  0  0  0  0  0  0  0  0
  151.3847  141.5176  156.7204 C   0  0  1  0  0  0  0  0  0  0  0  0
  151.1538  141.3368  158.1098 O   0  0  0  0  0  0  0  0  0  0  0  0
  152.9791  139.1100  157.9071 N   0  0  0  0  0  0  0  0  0  0  0  0
  152.7941  140.3657  155.4506 H   0  0  0  0  0  0  0  0  0  0  0  0
  149.1563  139.9669  156.2838 H   0  0  0  0  0  0  0  0  0  0  0  0
  150.3786  142.4944  155.0946 H   0  0  0  0  0  0  0  0  0  0  0  0
  152.1396  142.2953  156.6008 H   0  0  0  0  0  0  0  0  0  0  0  0
  155.3909  137.8763  160.6266 H   0  0  0  0  0  0  0  0  0  0  0  0
  155.0634  138.8763  159.2240 H   0  0  0  0  0  0  0  0  0  0  0  0
  150.7508  137.5682  156.1839 H   0  0  0  0  0  0  0  0  0  0  0  0
  148.2561  139.6140  154.0311 H   0  0  0  0  0  0  0  0  0  0  0  0
  147.8351  141.2681  154.4458 H   0  0  0  0  0  0  0  0  0  0  0  0
  149.4829  140.2827  152.5247 H   0  0  0  0  0  0  0  0  0  0  0  0
  149.0489  143.4336  156.3804 H   0  0  0  0  0  0  0  0  0  0  0  0
  150.5807  142.0240  158.4132 H   0  0  0  0  0  0  0  0  0  0  0  0
  1  2  1  0  0  0  0
  1 22  1  0  0  0  0
  1 23  1  0  0  0  0
  2  3  2  0  0  0  0
  2  4  1  0  0  0  0
  4 17  2  0  0  0  0
  4  5  1  0  0  0  0
  5  6  2  0  0  0  0
  6  7  1  0  0  0  0
  6 24  1  0  0  0  0
  7  8  1  0  0  0  0
  7 17  1  0  0  0  0
  8 18  1  0  0  0  0
  8 15  1  0  0  0  0
  8  9  1  0  0  0  0
  9 10  1  0  0  0  0
 10 19  1  0  0  0  0
 10 11  1  0  0  0  0
 10 13  1  0  0  0  0
 11 12  1  0  0  0  0
 11 25  1  0  0  0  0
 11 26  1  0  0  0  0
 12 27  1  0  0  0  0
 13 20  1  0  0  0  0
 13 14  1  0  0  0  0
 13 15  1  0  0  0  0
 14 28  1  0  0  0  0
 15 21  1  0  0  0  0
 15 16  1  0  0  0  0
 16 29  1  0  0  0  0
M  END
> <s_m_source_file>
AV-unprocessed.smi

> <i_m_source_file_index>
160

> <i_lp_mmshare_version>
43012

> <i_f3d_flags>
0

> <s_epik_input>
W05IMl1DKD1PKWMxbltjSF1uKG4xKVtDQEBIXTJPW0NASF0oW0NIMl1bT0hdKVtDQEBIXShbT0hdKVtDQEhdMltPSF0=

> <s_epik_cmdline>
J2VwaWtfcHl0aG9uJywgJy1waCcsICc3LjAnLCAnLXRuJywgJzgnLCAnLW1hJywgJzIwMCcsICctbWV0YWxfYmluZGluZycsICctaW1hZScsICc8aW5maWxlLm1hZT4nLCAnLW9tYWUnLCAnPG91dGZpbGUubWFlPic=

> <r_lp_tautomer_probability>
1

> <r_epik_Ionization_Penalty>
1.06932e-05

> <r_epik_Ionization_Penalty_Charging>
0

> <r_epik_Ionization_Penalty_Neutral>
1.06932e-05

> <r_epik_State_Penalty>
-0

> <r_epik_Charging_Adjusted_Penalty>
0

> <i_epik_Tot_Q>
0

> <i_epik_Tot_abs_Q>
0

> <r_epik_Metal_State_Penalty>
0.0142097

> <b_epik_Metal_Only>
0

> <s_epik_Chemistry_Notes>
This compound contains an acetal/aminal-like group ( X-CH(R)-Y where X, Y are N, S, or O) that may be acid/base labile, releasing an aldehyde.

> <s_lp_Force_Field>
OPLS_2005

> <r_lp_Energy>
46.1789

> <b_lp_Chiralities_Consistent>
1

> <s_lp_Variant>
AV-unprocessed.smi:160-2

> <Gold.Version>
5.8.1

> <Gold.Id.Protein>
6NUR|6NUR_protein|mol2

> <Gold.PLP.Fitness>
39.1007

> <Gold.PLP.PLP>
-22.2502

> <Gold.PLP.part.hbond>
-6.3707

> <Gold.PLP.part.metal>
0.0000

> <Gold.PLP.part.buried>
-4.4478

> <Gold.PLP.part.nonpolar>
-11.6919

> <Gold.PLP.part.repulsive>
0.0885

> <Gold.PLP.ligand.clash>
0.0000

> <Gold.PLP.ligand.torsion>
0.2966

> <Gold.PLP.Chemscore.Hbond>
5.8090

> <Gold.PLP.Chemscore.CHOScore>
0.0000

> <Gold.PLP.Chemscore.Metal>
0.0000

> <Gold.Chemscore.Hbonds>
donor molecule, donor type, donor heavy atom, donor atom, acceptor molecule, acceptor atom, score
      L1  H    12    27       P1  7957  0.50
      L1  H    14    28       P1  8028  0.88
      P1  H  6896  6907       L1     3  1.00
      P1  H  7989  7998       L1     9  0.80
      P1  H  7997  8010       L1    17  0.91
      P1  H  8011  8017       L1    12  1.00

> <Gold.PLP.Chemscore.Internal.Correction>
0.0165

> <Gold.Rescore>
     Score         DG    S(hbond)    S(metal)    S(lipo)     H(rot)  DE(clash)    DE(int)     intcor
     12.15     -12.82       4.34        0.00      27.84       4.06       0.03       0.64       ----

> <Gold.Chemscore.Fitness>
12.1526

> <Gold.Chemscore.DG>
-12.8245

> <Gold.Chemscore.ZeroCoef>
-5.4800

> <Gold.Chemscore.Hbond>
4.3357

> <Gold.Chemscore.Metal>
0.0000

> <Gold.Chemscore.Lipo>
27.8365

> <Gold.Chemscore.Internal_Hbond>
0.0000

> <Gold.Chemscore.DEClash>
0.0285

> <Gold.Chemscore.DEInternal>
0.6435

> <Gold.Chemscore.Rot>
4.0600

> <Gold.Chemscore.Internal.Correction>
   9.000000E+99

> <Gold.Chemscore.Hbonds>
donor molecule, donor type, donor heavy atom, donor atom, acceptor molecule, acceptor atom, score
      L1  H    12    27       P1  7957  0.49
      L1  H    14    28       P1  8028  0.85
      P1  H  6896  6907       L1     3  0.99
      P1  H  7989  7998       L1     9  0.08
      P1  H  7997  8010       L1    17  0.35
      P1  H  8011  8017       L1    12  0.70

> <Gold.Chemscore.Hbond.Weighted>
-14.4813

> <Gold.Chemscore.Metal.Weighted>
-0.0000

> <Gold.Chemscore.Lipo.Weighted>
-3.2569

> <Gold.Chemscore.Internal_Hbond.Weighted>
0.0000

> <Gold.Chemscore.DEClash.Weighted>
0.0285

> <Gold.Chemscore.DEInternal.Weighted>
0.6435

> <Gold.Chemscore.Rot.Weighted>
10.3936

> <Gold.Chemscore.Internal.Correction.Weighted>
   9.000000E+99

> <Gold.Protein.RotatedTorsions>
[ 6907 6896 6895 6894 ] final   33.92 input  -60.11 | X-H torsion
[ 7974 7965 7964 7962 ] final -117.43 input  175.53 | X-H torsion
[ 8008 7997 7996 7995 ] final   31.20 input   59.86 | X-H torsion
[ 10167 10162 10161 10158 ] final  120.62 input  -65.29 | X-H torsion
[ 10718 10713 10712 10709 ] final  -12.23 input   66.30 | X-H torsion
[ 10763 10752 10751 10750 ] final   -3.49 input  -60.55 | X-H torsion
[ 11005 11000 10999 10996 ] final  -23.59 input  -57.11 | X-H torsion

> <Gold.Protein.ActiveResidues>
 VAL166  LYS551  ARG553  GLY616  TRP617  ASP618  TYR619  PRO620  LYS621  CYS622 
 ASP623  PHE694  ASN695  SER759  ASP760  ASP761  ALA762  ILE779  LEU786  VAL792 
 PHE793  MET794  SER795  GLU796  ALA797  LYS798  CYS799  TRP800  GLU811  SER814 

> <Gold.Protein.RotatedAtoms>
  152.0953  134.9379  160.0570 H   0  0  0  0  0  0  0  0  0  0  0  0  # atno 6907 bound_to 6896
  152.0615  133.4059  159.4428 H   0  0  0  0  0  0  0  0  0  0  0  0  # atno 6908 bound_to 6896
  150.6838  134.3115  159.4792 H   0  0  0  0  0  0  0  0  0  0  0  0  # atno 6909 bound_to 6896
  145.0853  140.8453  143.4014 H   0  0  0  0  0  0  0  0  0  0  0  0  # atno 7974 bound_to 7965
  155.1026  140.3231  155.4543 H   0  0  0  0  0  0  0  0  0  0  0  0  # atno 8008 bound_to 7997
  156.2713  140.2058  156.6098 H   0  0  0  0  0  0  0  0  0  0  0  0  # atno 8009 bound_to 7997
  154.6818  140.0525  157.0260 H   0  0  0  0  0  0  0  0  0  0  0  0  # atno 8010 bound_to 7997
  139.5971  144.7045  151.3151 H   0  0  0  0  0  0  0  0  0  0  0  0  # atno 10167 bound_to 10162
  156.6475  130.4945  149.6073 H   0  0  0  0  0  0  0  0  0  0  0  0  # atno 10718 bound_to 10713
  153.3720  135.6995  153.6630 H   0  0  0  0  0  0  0  0  0  0  0  0  # atno 10763 bound_to 10752
  153.5276  135.3599  155.2661 H   0  0  0  0  0  0  0  0  0  0  0  0  # atno 10764 bound_to 10752
  154.8682  135.4173  154.3000 H   0  0  0  0  0  0  0  0  0  0  0  0  # atno 10765 bound_to 10752
  140.8765  133.7683  156.0250 H   0  0  0  0  0  0  0  0  0  0  0  0  # atno 11005 bound_to 11000
  145.1130  139.2744  143.5628 LP  0  0  0  0  0  0  0  0  0  0  0  0  # atno 17320 bound_to 7965
  146.3531  140.0731  142.8622 LP  0  0  0  0  0  0  0  0  0  0  0  0  # atno 17321 bound_to 7965
  140.7220  143.7109  150.7770 LP  0  0  0  0  0  0  0  0  0  0  0  0  # atno 17342 bound_to 10162
  140.0677  143.5091  152.2595 LP  0  0  0  0  0  0  0  0  0  0  0  0  # atno 17343 bound_to 10162
  156.2110  130.6679  151.1269 LP  0  0  0  0  0  0  0  0  0  0  0  0  # atno 17370 bound_to 10713
  157.7151  131.0714  150.6356 LP  0  0  0  0  0  0  0  0  0  0  0  0  # atno 17371 bound_to 10713
  140.8511  134.2952  157.5275 LP  0  0  0  0  0  0  0  0  0  0  0  0  # atno 17394 bound_to 11000
  139.8716  134.9468  156.3949 LP  0  0  0  0  0  0  0  0  0  0  0  0  # atno 17395 bound_to 11000

$$$$
