AV-unprocessed.smi:2198|AV-procd|sdf|8918|dock3
  -GOLD-   2272012133D 1   1.00000     0.00000
 Structure written by MMmdl.
 43 44  0  0  0  0  0  0  0  0  1 V2000
  150.7771  135.1783  154.4317 C   0  0  0  0  0  0  0  0  0  0  0  0
  150.7438  136.4531  155.2467 C   0  0  0  0  0  0  0  0  0  0  0  0
  150.4424  136.2526  156.5837 N   0  0  0  0  0  0  0  0  0  0  0  0
  150.3724  137.3638  157.4056 C   0  0  0  0  0  0  0  0  0  0  0  0
  150.0198  137.0572  158.8507 C   0  0  0  0  0  0  0  0  0  0  0  0
  150.6036  138.6108  156.9218 C   0  0  0  0  0  0  0  0  0  0  0  0
  150.5293  139.8631  157.7925 C   0  0  0  0  0  0  0  0  0  0  0  0
  151.8387  140.6406  157.9332 C   0  0  0  0  0  0  0  0  0  0  0  0
  152.8890  140.1590  157.5098 O   0  0  0  0  0  0  0  0  0  0  0  0
  151.7614  141.8394  158.5304 N   0  0  0  0  0  0  0  0  0  0  0  0
  152.8798  142.7513  158.7608 C   0  0  1  0  0  0  0  0  0  0  0  0
  152.3960  144.2119  158.8777 C   0  0  0  0  0  0  0  0  0  0  0  0
  151.6013  144.4559  160.1719 C   0  0  0  0  0  0  0  0  0  0  0  0
  152.4088  144.0390  161.4111 C   0  0  0  0  0  0  0  0  0  0  0  0
  152.8667  142.5705  161.3222 C   0  0  2  0  0  0  0  0  0  0  0  0
  153.6799  142.1610  162.5581 C   0  0  0  0  0  0  0  0  0  0  0  0
  153.6605  142.3272  160.0208 C   0  0  0  0  0  0  0  0  0  0  0  0
  150.9410  138.7599  155.4864 C   0  0  0  0  0  0  0  0  0  0  0  0
  151.1826  139.8603  154.9922 O   0  0  0  0  0  0  0  0  0  0  0  0
  150.9839  137.6023  154.6926 N   0  0  0  0  0  0  0  0  0  0  0  0
  150.2630  135.3431  156.9842 H   0  0  0  0  0  0  0  0  0  0  0  0
  150.8546  135.3992  153.3663 H   0  0  0  0  0  0  0  0  0  0  0  0
  149.8679  134.5975  154.5918 H   0  0  0  0  0  0  0  0  0  0  0  0
  151.6345  134.5683  154.7174 H   0  0  0  0  0  0  0  0  0  0  0  0
  149.0927  137.5572  159.1319 H   0  0  0  0  0  0  0  0  0  0  0  0
  150.8123  137.3967  159.5177 H   0  0  0  0  0  0  0  0  0  0  0  0
  149.8840  135.9872  159.0132 H   0  0  0  0  0  0  0  0  0  0  0  0
  150.1747  139.5757  158.7831 H   0  0  0  0  0  0  0  0  0  0  0  0
  149.7666  140.5471  157.4191 H   0  0  0  0  0  0  0  0  0  0  0  0
  150.8541  142.1498  158.8461 H   0  0  0  0  0  0  0  0  0  0  0  0
  153.5593  142.6780  157.9095 H   0  0  0  0  0  0  0  0  0  0  0  0
  153.2615  144.8756  158.8628 H   0  0  0  0  0  0  0  0  0  0  0  0
  151.7927  144.4858  158.0112 H   0  0  0  0  0  0  0  0  0  0  0  0
  151.3290  145.5090  160.2449 H   0  0  0  0  0  0  0  0  0  0  0  0
  150.6643  143.8986  160.1403 H   0  0  0  0  0  0  0  0  0  0  0  0
  153.2772  144.6911  161.5146 H   0  0  0  0  0  0  0  0  0  0  0  0
  151.8039  144.1875  162.3063 H   0  0  0  0  0  0  0  0  0  0  0  0
  151.9751  141.9426  161.2998 H   0  0  0  0  0  0  0  0  0  0  0  0
  154.5921  142.7518  162.6468 H   0  0  0  0  0  0  0  0  0  0  0  0
  153.9671  141.1104  162.5083 H   0  0  0  0  0  0  0  0  0  0  0  0
  153.1022  142.3015  163.4722 H   0  0  0  0  0  0  0  0  0  0  0  0
  153.9441  141.2766  159.9444 H   0  0  0  0  0  0  0  0  0  0  0  0
  154.5950  142.8885  160.0619 H   0  0  0  0  0  0  0  0  0  0  0  0
  1 22  1  0  0  0  0
  1 23  1  0  0  0  0
  1 24  1  0  0  0  0
  1  2  1  0  0  0  0
  2  3  1  0  0  0  0
  2 20  2  0  0  0  0
  3  4  1  0  0  0  0
  3 21  1  0  0  0  0
  4  6  2  0  0  0  0
  4  5  1  0  0  0  0
  5 25  1  0  0  0  0
  5 26  1  0  0  0  0
  5 27  1  0  0  0  0
  6 18  1  0  0  0  0
  6  7  1  0  0  0  0
  7  8  1  0  0  0  0
  7 28  1  0  0  0  0
  7 29  1  0  0  0  0
  8  9  2  0  0  0  0
  8 10  1  0  0  0  0
 10 11  1  0  0  0  0
 10 30  1  0  0  0  0
 11 17  1  0  0  0  0
 11 12  1  0  0  0  0
 11 31  1  0  0  0  0
 12 13  1  0  0  0  0
 12 32  1  0  0  0  0
 12 33  1  0  0  0  0
 13 14  1  0  0  0  0
 13 34  1  0  0  0  0
 13 35  1  0  0  0  0
 14 15  1  0  0  0  0
 14 36  1  0  0  0  0
 14 37  1  0  0  0  0
 15 16  1  0  0  0  0
 15 17  1  0  0  0  0
 15 38  1  0  0  0  0
 16 39  1  0  0  0  0
 16 40  1  0  0  0  0
 16 41  1  0  0  0  0
 17 42  1  0  0  0  0
 17 43  1  0  0  0  0
 18 19  2  0  0  0  0
 18 20  1  0  0  0  0
M  END
> <s_m_source_file>
AV-unprocessed.smi

> <i_m_source_file_index>
2198

> <i_lp_mmshare_version>
43012

> <i_f3d_flags>
0

> <s_epik_input>
W0NIM11jMW5jKFtDSDNdKWMoYyg9TylbbkhdMSlbQ0gyXUMoPU8pW05IXVtDQEBIXTJbQ0gyXVtDSDJdW0NIMl1bQ0BASF0oW0NIM10pW0NIMl0y

> <s_epik_cmdline>
J2VwaWtfcHl0aG9uJywgJy1waCcsICc3LjAnLCAnLXRuJywgJzgnLCAnLW1hJywgJzIwMCcsICctbWV0YWxfYmluZGluZycsICctaW1hZScsICc8aW5maWxlLm1hZT4nLCAnLW9tYWUnLCAnPG91dGZpbGUubWFlPic=

> <r_lp_tautomer_probability>
0.156392

> <r_epik_Ionization_Penalty>
0.0136514

> <r_epik_Ionization_Penalty_Charging>
0.0135207

> <r_epik_Ionization_Penalty_Neutral>
0.000130657

> <r_epik_State_Penalty>
1.15342

> <r_epik_Charging_Adjusted_Penalty>
1.16694

> <i_epik_Tot_Q>
0

> <i_epik_Tot_abs_Q>
0

> <r_epik_Metal_State_Penalty>
1.31404

> <b_epik_Metal_Only>
0

> <s_lp_Force_Field>
OPLS_2005

> <r_lp_Energy>
13.6567

> <b_lp_Chiralities_Consistent>
1

> <s_lp_Variant>
AV-unprocessed.smi:2198-8

> <Gold.Version>
5.8.1

> <Gold.Id.Protein>
6NUR|6NUR_protein|mol2

> <Gold.PLP.Fitness>
46.9244

> <Gold.PLP.PLP>
-41.7489

> <Gold.PLP.part.hbond>
-2.0000

> <Gold.PLP.part.metal>
0.0000

> <Gold.PLP.part.buried>
-6.4202

> <Gold.PLP.part.nonpolar>
-32.7890

> <Gold.PLP.part.repulsive>
0.3113

> <Gold.PLP.ligand.clash>
0.0000

> <Gold.PLP.ligand.torsion>
0.4160

> <Gold.PLP.Chemscore.Hbond>
2.0000

> <Gold.PLP.Chemscore.CHOScore>
0.0000

> <Gold.PLP.Chemscore.Metal>
0.0000

> <Gold.Chemscore.Hbonds>
donor molecule, donor type, donor heavy atom, donor atom, acceptor molecule, acceptor atom, score
      P1  H  7989  7998       L1    19  1.00
      P1  H  7997  8009       L1     9  1.00

> <Gold.PLP.Chemscore.Internal.Correction>
0.0076

> <Gold.Rescore>
     Score         DG    S(hbond)    S(metal)    S(lipo)     H(rot)  DE(clash)    DE(int)     intcor
     19.93     -20.35       1.94        0.00     104.03       1.48       0.22       0.20       ----

> <Gold.Chemscore.Fitness>
19.9331

> <Gold.Chemscore.DG>
-20.3550

> <Gold.Chemscore.ZeroCoef>
-5.4800

> <Gold.Chemscore.Hbond>
1.9439

> <Gold.Chemscore.Metal>
0.0000

> <Gold.Chemscore.Lipo>
104.0307

> <Gold.Chemscore.Internal_Hbond>
0.0000

> <Gold.Chemscore.DEClash>
0.2204

> <Gold.Chemscore.DEInternal>
0.2015

> <Gold.Chemscore.Rot>
1.4801

> <Gold.Chemscore.Internal.Correction>
   9.000000E+99

> <Gold.Chemscore.Hbonds>
donor molecule, donor type, donor heavy atom, donor atom, acceptor molecule, acceptor atom, score
      P1  H  7989  7998       L1    19  1.00
      P1  H  7997  8009       L1     9  0.96

> <Gold.Chemscore.Hbond.Weighted>
-6.4925

> <Gold.Chemscore.Metal.Weighted>
-0.0000

> <Gold.Chemscore.Lipo.Weighted>
-12.1716

> <Gold.Chemscore.Internal_Hbond.Weighted>
0.0000

> <Gold.Chemscore.DEClash.Weighted>
0.2204

> <Gold.Chemscore.DEInternal.Weighted>
0.2015

> <Gold.Chemscore.Rot.Weighted>
3.7891

> <Gold.Chemscore.Internal.Correction.Weighted>
   9.000000E+99

> <Gold.Protein.RotatedTorsions>
[ 6907 6896 6895 6894 ] final  151.56 input  -60.11 | X-H torsion
[ 7974 7965 7964 7962 ] final -125.02 input  175.53 | X-H torsion
[ 8008 7997 7996 7995 ] final  170.72 input   59.86 | X-H torsion
[ 10167 10162 10161 10158 ] final  102.27 input  -65.29 | X-H torsion
[ 10718 10713 10712 10709 ] final  103.20 input   66.30 | X-H torsion
[ 10763 10752 10751 10750 ] final  -45.26 input  -60.55 | X-H torsion
[ 11005 11000 10999 10996 ] final  -72.45 input  -57.11 | X-H torsion

> <Gold.Protein.ActiveResidues>
 VAL166  LYS551  ARG553  GLY616  TRP617  ASP618  TYR619  PRO620  LYS621  CYS622 
 ASP623  PHE694  ASN695  SER759  ASP760  ASP761  ALA762  ILE779  LEU786  VAL792 
 PHE793  MET794  SER795  GLU796  ALA797  LYS798  CYS799  TRP800  GLU811  SER814 

> <Gold.Protein.RotatedAtoms>
  152.0990  133.4239  159.4577 H   0  0  0  0  0  0  0  0  0  0  0  0  # atno 6907 bound_to 6896
  150.6863  134.2783  159.4626 H   0  0  0  0  0  0  0  0  0  0  0  0  # atno 6908 bound_to 6896
  152.0642  134.9575  160.0625 H   0  0  0  0  0  0  0  0  0  0  0  0  # atno 6909 bound_to 6896
  145.0020  140.7829  143.4490 H   0  0  0  0  0  0  0  0  0  0  0  0  # atno 7974 bound_to 7965
  156.1339  140.1530  156.9024 H   0  0  0  0  0  0  0  0  0  0  0  0  # atno 8008 bound_to 7997
  154.4931  140.0845  156.7677 H   0  0  0  0  0  0  0  0  0  0  0  0  # atno 8009 bound_to 7997
  155.4205  140.3423  155.4273 H   0  0  0  0  0  0  0  0  0  0  0  0  # atno 8010 bound_to 7997
  139.7365  144.7022  151.0641 H   0  0  0  0  0  0  0  0  0  0  0  0  # atno 10167 bound_to 10162
  157.6780  131.0772  150.5519 H   0  0  0  0  0  0  0  0  0  0  0  0  # atno 10718 bound_to 10713
  154.0257  135.6663  153.4776 H   0  0  0  0  0  0  0  0  0  0  0  0  # atno 10763 bound_to 10752
  153.0561  135.5055  154.7981 H   0  0  0  0  0  0  0  0  0  0  0  0  # atno 10764 bound_to 10752
  154.6910  135.3061  154.9445 H   0  0  0  0  0  0  0  0  0  0  0  0  # atno 10765 bound_to 10752
  141.1608  133.6847  156.7060 H   0  0  0  0  0  0  0  0  0  0  0  0  # atno 11005 bound_to 11000
  145.2140  139.2191  143.5128 LP  0  0  0  0  0  0  0  0  0  0  0  0  # atno 17320 bound_to 7965
  146.3454  140.1984  142.8589 LP  0  0  0  0  0  0  0  0  0  0  0  0  # atno 17321 bound_to 7965
  140.7779  143.4978  150.9810 LP  0  0  0  0  0  0  0  0  0  0  0  0  # atno 17342 bound_to 10162
  139.8666  143.7246  152.3169 LP  0  0  0  0  0  0  0  0  0  0  0  0  # atno 17343 bound_to 10162
  156.5823  130.4307  149.5972 LP  0  0  0  0  0  0  0  0  0  0  0  0  # atno 17370 bound_to 10713
  156.2651  130.6985  151.1765 LP  0  0  0  0  0  0  0  0  0  0  0  0  # atno 17371 bound_to 10713
  140.2923  134.8231  157.4027 LP  0  0  0  0  0  0  0  0  0  0  0  0  # atno 17394 bound_to 11000
  140.1336  134.5063  155.8086 LP  0  0  0  0  0  0  0  0  0  0  0  0  # atno 17395 bound_to 11000

$$$$
