AV-unprocessed.smi:2130|AV-procd|sdf|8686|dock3
  -GOLD-   2272011443D 1   1.00000     0.00000
 Structure written by MMmdl.
 32 33  0  0  0  0  0  0  0  0  1 V2000
  151.7939  144.4668  160.1282 C   0  0  0  0  0  0  0  0  0  0  0  0
  152.4081  143.0813  160.0241 C   0  0  0  0  0  0  0  0  0  0  0  0
  153.1730  142.4975  160.9525 C   0  0  0  0  0  0  0  0  0  0  0  0
  153.7346  140.9162  160.4679 S   0  0  0  0  0  0  0  0  0  0  0  0
  152.8671  141.0790  158.8988 C   0  0  0  0  0  0  0  0  0  0  0  0
  152.8830  140.2041  158.0344 O   0  0  0  0  0  0  0  0  0  0  0  0
  152.2146  142.3112  158.8686 N   0  0  0  0  0  0  0  0  0  0  0  0
  151.3927  142.7489  157.7325 C   0  0  0  0  0  0  0  0  0  0  0  0
  150.3299  141.7235  157.3160 C   0  0  0  0  0  0  0  0  0  0  0  0
  150.4026  140.5483  157.6783 O   0  0  0  0  0  0  0  0  0  0  0  0
  149.3430  142.1942  156.5385 N   0  0  0  0  0  0  0  0  0  0  0  0
  148.2440  141.4042  155.9929 C   0  0  1  0  0  0  0  0  0  0  0  0
  146.9620  141.7486  156.7634 C   0  0  0  0  0  0  0  0  0  0  0  0
  148.0455  141.6003  154.4990 C   0  0  0  0  0  0  0  0  0  0  0  0
  146.8748  142.3939  153.9682 C   0  0  0  0  0  0  0  0  0  0  0  0
  146.9357  140.8992  153.7513 C   0  0  0  0  0  0  0  0  0  0  0  0
  152.2835  145.0397  160.9163 H   0  0  0  0  0  0  0  0  0  0  0  0
  150.7337  144.3946  160.3710 H   0  0  0  0  0  0  0  0  0  0  0  0
  151.9053  145.0280  159.2005 H   0  0  0  0  0  0  0  0  0  0  0  0
  153.4537  142.9173  161.9072 H   0  0  0  0  0  0  0  0  0  0  0  0
  150.8851  143.6808  157.9869 H   0  0  0  0  0  0  0  0  0  0  0  0
  152.0217  142.9889  156.8750 H   0  0  0  0  0  0  0  0  0  0  0  0
  149.3613  143.1734  156.2934 H   0  0  0  0  0  0  0  0  0  0  0  0
  148.4536  140.3477  156.1708 H   0  0  0  0  0  0  0  0  0  0  0  0
  146.1232  141.1423  156.4206 H   0  0  0  0  0  0  0  0  0  0  0  0
  146.6889  142.7962  156.6329 H   0  0  0  0  0  0  0  0  0  0  0  0
  147.0830  141.5656  157.8316 H   0  0  0  0  0  0  0  0  0  0  0  0
  148.9783  141.7246  153.9517 H   0  0  0  0  0  0  0  0  0  0  0  0
  146.1458  142.7661  154.6855 H   0  0  0  0  0  0  0  0  0  0  0  0
  147.0516  143.0355  153.1074 H   0  0  0  0  0  0  0  0  0  0  0  0
  147.1562  140.5436  152.7469 H   0  0  0  0  0  0  0  0  0  0  0  0
  146.2458  140.2821  154.3232 H   0  0  0  0  0  0  0  0  0  0  0  0
  1  2  1  0  0  0  0
  1 17  1  0  0  0  0
  1 18  1  0  0  0  0
  1 19  1  0  0  0  0
  2  7  1  0  0  0  0
  2  3  2  0  0  0  0
  3  4  1  0  0  0  0
  3 20  1  0  0  0  0
  4  5  1  0  0  0  0
  5  6  2  0  0  0  0
  5  7  1  0  0  0  0
  7  8  1  0  0  0  0
  8  9  1  0  0  0  0
  8 21  1  0  0  0  0
  8 22  1  0  0  0  0
  9 10  2  0  0  0  0
  9 11  1  0  0  0  0
 11 12  1  0  0  0  0
 11 23  1  0  0  0  0
 12 13  1  0  0  0  0
 12 14  1  0  0  0  0
 12 24  1  0  0  0  0
 13 25  1  0  0  0  0
 13 26  1  0  0  0  0
 13 27  1  0  0  0  0
 14 16  1  0  0  0  0
 14 15  1  0  0  0  0
 14 28  1  0  0  0  0
 15 16  1  0  0  0  0
 15 29  1  0  0  0  0
 15 30  1  0  0  0  0
 16 31  1  0  0  0  0
 16 32  1  0  0  0  0
M  END
> <s_m_source_file>
AV-unprocessed.smi

> <i_m_source_file_index>
2130

> <i_lp_mmshare_version>
43012

> <i_f3d_flags>
0

> <s_epik_input>
W0NIM11jMVtjSF1zYyg9TyluMVtDSDJdQyg9TylbTkhdW0NASF0oW0NIM10pW0NIXTJbQ0gyXVtDSDJdMg==

> <s_epik_cmdline>
J2VwaWtfcHl0aG9uJywgJy1waCcsICc3LjAnLCAnLXRuJywgJzgnLCAnLW1hJywgJzIwMCcsICctbWV0YWxfYmluZGluZycsICctaW1hZScsICc8aW5maWxlLm1hZT4nLCAnLW9tYWUnLCAnPG91dGZpbGUubWFlPic=

> <r_lp_tautomer_probability>
1

> <r_epik_Ionization_Penalty>
1.32882e-06

> <r_epik_Ionization_Penalty_Charging>
1.22222e-06

> <r_epik_Ionization_Penalty_Neutral>
1.066e-07

> <r_epik_State_Penalty>
-0

> <r_epik_Charging_Adjusted_Penalty>
1.22222e-06

> <i_epik_Tot_Q>
0

> <i_epik_Tot_abs_Q>
0

> <r_epik_Metal_State_Penalty>
-0

> <b_epik_Metal_Only>
0

> <s_lp_Force_Field>
OPLS_2005

> <r_lp_Energy>
16.4034

> <b_lp_Chiralities_Consistent>
1

> <s_lp_Variant>
AV-unprocessed.smi:2130-2

> <Gold.Version>
5.8.1

> <Gold.Id.Protein>
6NUR|6NUR_protein|mol2

> <Gold.PLP.Fitness>
41.6261

> <Gold.PLP.PLP>
-36.7090

> <Gold.PLP.part.hbond>
-2.0000

> <Gold.PLP.part.metal>
0.0000

> <Gold.PLP.part.buried>
-5.1994

> <Gold.PLP.part.nonpolar>
-30.7149

> <Gold.PLP.part.repulsive>
0.0377

> <Gold.PLP.ligand.clash>
0.0000

> <Gold.PLP.ligand.torsion>
1.0634

> <Gold.PLP.Chemscore.Hbond>
1.9920

> <Gold.PLP.Chemscore.CHOScore>
0.0000

> <Gold.PLP.Chemscore.Metal>
0.0000

> <Gold.Chemscore.Hbonds>
donor molecule, donor type, donor heavy atom, donor atom, acceptor molecule, acceptor atom, score
      L1  H    11    23       P1  8028  1.00
      P1  H  7997  8009       L1     6  0.98

> <Gold.PLP.Chemscore.Internal.Correction>
1.0679

> <Gold.Rescore>
     Score         DG    S(hbond)    S(metal)    S(lipo)     H(rot)  DE(clash)    DE(int)     intcor
     13.14     -17.03       1.90        0.00      79.22       1.59       0.15       3.74       ----

> <Gold.Chemscore.Fitness>
13.1404

> <Gold.Chemscore.DG>
-17.0297

> <Gold.Chemscore.ZeroCoef>
-5.4800

> <Gold.Chemscore.Hbond>
1.9034

> <Gold.Chemscore.Metal>
0.0000

> <Gold.Chemscore.Lipo>
79.2248

> <Gold.Chemscore.Internal_Hbond>
0.0000

> <Gold.Chemscore.DEClash>
0.1508

> <Gold.Chemscore.DEInternal>
3.7384

> <Gold.Chemscore.Rot>
1.5926

> <Gold.Chemscore.Internal.Correction>
   9.000000E+99

> <Gold.Chemscore.Hbonds>
donor molecule, donor type, donor heavy atom, donor atom, acceptor molecule, acceptor atom, score
      L1  H    11    23       P1  8028  1.00
      P1  H  7997  8009       L1     6  0.88

> <Gold.Chemscore.Hbond.Weighted>
-6.3574

> <Gold.Chemscore.Metal.Weighted>
-0.0000

> <Gold.Chemscore.Lipo.Weighted>
-9.2693

> <Gold.Chemscore.Internal_Hbond.Weighted>
0.0000

> <Gold.Chemscore.DEClash.Weighted>
0.1508

> <Gold.Chemscore.DEInternal.Weighted>
3.7384

> <Gold.Chemscore.Rot.Weighted>
4.0771

> <Gold.Chemscore.Internal.Correction.Weighted>
   9.000000E+99

> <Gold.Protein.RotatedTorsions>
[ 6907 6896 6895 6894 ] final  145.19 input  -60.11 | X-H torsion
[ 7974 7965 7964 7962 ] final -149.98 input  175.53 | X-H torsion
[ 8008 7997 7996 7995 ] final  165.41 input   59.86 | X-H torsion
[ 10167 10162 10161 10158 ] final  -94.40 input  -65.29 | X-H torsion
[ 10718 10713 10712 10709 ] final   72.32 input   66.30 | X-H torsion
[ 10763 10752 10751 10750 ] final    1.43 input  -60.55 | X-H torsion
[ 11005 11000 10999 10996 ] final -159.41 input  -57.11 | X-H torsion

> <Gold.Protein.ActiveResidues>
 VAL166  LYS551  ARG553  GLY616  TRP617  ASP618  TYR619  PRO620  LYS621  CYS622 
 ASP623  PHE694  ASN695  SER759  ASP760  ASP761  ALA762  ILE779  LEU786  VAL792 
 PHE793  MET794  SER795  GLU796  ALA797  LYS798  CYS799  TRP800  GLU811  SER814 

> <Gold.Protein.RotatedAtoms>
  152.1840  133.4727  159.4972 H   0  0  0  0  0  0  0  0  0  0  0  0  # atno 6907 bound_to 6896
  150.6939  134.1797  159.4253 H   0  0  0  0  0  0  0  0  0  0  0  0  # atno 6908 bound_to 6896
  151.9709  135.0077  160.0603 H   0  0  0  0  0  0  0  0  0  0  0  0  # atno 6909 bound_to 6896
  144.7935  140.4993  143.5756 H   0  0  0  0  0  0  0  0  0  0  0  0  # atno 7974 bound_to 7965
  156.1803  140.1671  156.8287 H   0  0  0  0  0  0  0  0  0  0  0  0  # atno 8008 bound_to 7997
  154.5352  140.0748  156.8449 H   0  0  0  0  0  0  0  0  0  0  0  0  # atno 8009 bound_to 7997
  155.3325  140.3380  155.4242 H   0  0  0  0  0  0  0  0  0  0  0  0  # atno 8010 bound_to 7997
  140.3148  143.3084  152.0110 H   0  0  0  0  0  0  0  0  0  0  0  0  # atno 10167 bound_to 10162
  157.6495  130.9573  150.0912 H   0  0  0  0  0  0  0  0  0  0  0  0  # atno 10718 bound_to 10713
  153.3081  135.6961  153.7140 H   0  0  0  0  0  0  0  0  0  0  0  0  # atno 10763 bound_to 10752
  153.6028  135.3459  155.2952 H   0  0  0  0  0  0  0  0  0  0  0  0  # atno 10764 bound_to 10752
  154.8568  135.4345  154.2212 H   0  0  0  0  0  0  0  0  0  0  0  0  # atno 10765 bound_to 10752
  140.6428  134.4533  157.5234 H   0  0  0  0  0  0  0  0  0  0  0  0  # atno 11005 bound_to 11000
  145.5733  139.1484  143.3276 LP  0  0  0  0  0  0  0  0  0  0  0  0  # atno 17320 bound_to 7965
  146.2195  140.5866  142.9023 LP  0  0  0  0  0  0  0  0  0  0  0  0  # atno 17321 bound_to 7965
  139.4886  144.6357  151.6981 LP  0  0  0  0  0  0  0  0  0  0  0  0  # atno 17342 bound_to 10162
  140.5536  144.0384  150.6138 LP  0  0  0  0  0  0  0  0  0  0  0  0  # atno 17343 bound_to 10162
  156.1861  130.3652  149.8971 LP  0  0  0  0  0  0  0  0  0  0  0  0  # atno 17370 bound_to 10713
  156.6911  130.8896  151.3588 LP  0  0  0  0  0  0  0  0  0  0  0  0  # atno 17371 bound_to 10713
  139.9074  134.8420  156.1656 LP  0  0  0  0  0  0  0  0  0  0  0  0  # atno 17394 bound_to 11000
  141.0594  133.6849  156.1923 LP  0  0  0  0  0  0  0  0  0  0  0  0  # atno 17395 bound_to 11000

$$$$
