AV-unprocessed.smi:1510|AV-procd|sdf|6097|dock3
  -GOLD-   22720 6223D 1   1.00000     0.00000
 Structure written by MMmdl.
 33 34  0  0  0  0  0  0  0  0  1 V2000
  151.5567  136.1887  156.1445 O   0  0  0  0  0  0  0  0  0  0  0  0
  151.0742  136.6087  155.0916 C   0  0  0  0  0  0  0  0  0  0  0  0
  151.7012  137.8002  154.3522 C   0  0  0  0  0  0  0  0  0  0  0  0
  151.0931  139.0923  154.7010 N   0  0  0  0  0  0  0  0  0  0  0  0
  149.9242  139.3726  154.0096 N   0  0  0  0  0  0  0  0  0  0  0  0
  149.2862  140.4699  154.2405 C   0  0  0  0  0  0  0  0  0  0  0  0
  148.1308  140.7050  153.5368 O   0  0  0  0  0  0  0  0  0  0  0  0
  149.7696  141.4274  155.2107 C   0  0  0  0  0  0  0  0  0  0  0  0
  150.9114  141.1475  155.8761 C   0  0  0  0  0  0  0  0  0  0  0  0
  151.6589  139.9106  155.6408 C   0  0  0  0  0  0  0  0  0  0  0  0
  152.7002  139.6291  156.2336 O   0  0  0  0  0  0  0  0  0  0  0  0
  149.9767  136.0831  154.5303 N   0  0  0  0  0  0  0  0  0  0  0  0
  149.2233  134.9667  155.0837 C   0  0  0  0  0  0  0  0  0  0  0  0
  149.4709  133.6905  154.2683 C   0  0  1  0  0  0  0  0  0  0  0  0
  149.8678  132.4851  155.1169 C   0  0  0  0  0  0  0  0  0  0  0  0
  149.4845  131.3383  154.2096 C   0  0  0  0  0  0  0  0  0  0  0  0
  148.1988  131.8557  153.5683 C   0  0  0  0  0  0  0  0  0  0  0  0
  148.2820  133.2791  153.5986 O   0  0  0  0  0  0  0  0  0  0  0  0
  148.3460  140.5237  152.6347 H   0  0  0  0  0  0  0  0  0  0  0  0
  152.7745  137.8254  154.5503 H   0  0  0  0  0  0  0  0  0  0  0  0
  151.6077  137.6195  153.2799 H   0  0  0  0  0  0  0  0  0  0  0  0
  149.2232  142.3414  155.3910 H   0  0  0  0  0  0  0  0  0  0  0  0
  151.2845  141.8535  156.6033 H   0  0  0  0  0  0  0  0  0  0  0  0
  149.6338  136.4876  153.6710 H   0  0  0  0  0  0  0  0  0  0  0  0
  149.5276  134.8080  156.1195 H   0  0  0  0  0  0  0  0  0  0  0  0
  148.1599  135.2109  155.0925 H   0  0  0  0  0  0  0  0  0  0  0  0
  150.2411  133.8654  153.5147 H   0  0  0  0  0  0  0  0  0  0  0  0
  150.9240  132.4836  155.3875 H   0  0  0  0  0  0  0  0  0  0  0  0
  149.2780  132.4482  156.0341 H   0  0  0  0  0  0  0  0  0  0  0  0
  150.2526  131.1934  153.4486 H   0  0  0  0  0  0  0  0  0  0  0  0
  149.3476  130.3960  154.7406 H   0  0  0  0  0  0  0  0  0  0  0  0
  148.0715  131.4881  152.5498 H   0  0  0  0  0  0  0  0  0  0  0  0
  147.3288  131.5482  154.1496 H   0  0  0  0  0  0  0  0  0  0  0  0
  1  2  2  0  0  0  0
  2  3  1  0  0  0  0
  2 12  1  0  0  0  0
  3 20  1  0  0  0  0
  3 21  1  0  0  0  0
  3  4  1  0  0  0  0
  4  5  1  0  0  0  0
  4 10  1  0  0  0  0
  5  6  2  0  0  0  0
  6  7  1  0  0  0  0
  6  8  1  0  0  0  0
  7 19  1  0  0  0  0
  8 22  1  0  0  0  0
  8  9  2  0  0  0  0
  9 23  1  0  0  0  0
  9 10  1  0  0  0  0
 10 11  2  0  0  0  0
 12 13  1  0  0  0  0
 12 24  1  0  0  0  0
 13 14  1  0  0  0  0
 13 25  1  0  0  0  0
 13 26  1  0  0  0  0
 14 18  1  0  0  0  0
 14 15  1  0  0  0  0
 14 27  1  0  0  0  0
 15 16  1  0  0  0  0
 15 28  1  0  0  0  0
 15 29  1  0  0  0  0
 16 17  1  0  0  0  0
 16 30  1  0  0  0  0
 16 31  1  0  0  0  0
 17 18  1  0  0  0  0
 17 32  1  0  0  0  0
 17 33  1  0  0  0  0
M  END
> <s_m_source_file>
AV-unprocessed.smi

> <i_m_source_file_index>
1510

> <i_lp_mmshare_version>
43012

> <i_f3d_flags>
0

> <s_epik_input>
TzFbQ0gyXVtDSDJdW0NIMl1bQ0BIXTFbQ0gyXVtOSF1DKD1PKVtDSDJdbjJbbkhdYyg9TylbY0hdW2NIXWMyPU8=

> <s_epik_cmdline>
J2VwaWtfcHl0aG9uJywgJy1waCcsICc3LjAnLCAnLXRuJywgJzgnLCAnLW1hJywgJzIwMCcsICctbWV0YWxfYmluZGluZycsICctaW1hZScsICc8aW5maWxlLm1hZT4nLCAnLW9tYWUnLCAnPG91dGZpbGUubWFlPic=

> <r_lp_tautomer_probability>
0.9996

> <r_epik_Ionization_Penalty>
2.13037

> <r_epik_Ionization_Penalty_Charging>
3.76e-08

> <r_epik_Ionization_Penalty_Neutral>
2.13037

> <r_epik_State_Penalty>
1.70753

> <r_epik_Charging_Adjusted_Penalty>
1.70753

> <i_epik_Tot_Q>
0

> <i_epik_Tot_abs_Q>
0

> <r_epik_Metal_State_Penalty>
1.70753

> <b_epik_Metal_Only>
0

> <s_lp_Force_Field>
OPLS_2005

> <r_lp_Energy>
28.362

> <b_lp_Chiralities_Consistent>
1

> <s_lp_Variant>
AV-unprocessed.smi:1510-4

> <Gold.Version>
5.8.1

> <Gold.Id.Protein>
6NUR|6NUR_protein|mol2

> <Gold.PLP.Fitness>
44.0597

> <Gold.PLP.PLP>
-35.7946

> <Gold.PLP.part.hbond>
-4.9209

> <Gold.PLP.part.metal>
0.0000

> <Gold.PLP.part.buried>
-1.1800

> <Gold.PLP.part.nonpolar>
-29.6337

> <Gold.PLP.part.repulsive>
1.4781

> <Gold.PLP.ligand.clash>
0.0000

> <Gold.PLP.ligand.torsion>
1.4784

> <Gold.PLP.Chemscore.Hbond>
3.7382

> <Gold.PLP.Chemscore.CHOScore>
0.0000

> <Gold.PLP.Chemscore.Metal>
0.0000

> <Gold.Chemscore.Hbonds>
donor molecule, donor type, donor heavy atom, donor atom, acceptor molecule, acceptor atom, score
      L1  H     7    19       P1  7957  1.00
      L1  H    12    24       P1  7948  0.98
      P1  H  7997  8008       L1    11  1.00
      P1  H 10752 10763       L1     1  0.48

> <Gold.PLP.Chemscore.Internal.Correction>
0.0073

> <Gold.Rescore>
     Score         DG    S(hbond)    S(metal)    S(lipo)     H(rot)  DE(clash)    DE(int)     intcor
     11.59     -13.11       2.63        0.00      49.20       2.69       0.08       1.45       ----

> <Gold.Chemscore.Fitness>
11.5853

> <Gold.Chemscore.DG>
-13.1141

> <Gold.Chemscore.ZeroCoef>
-5.4800

> <Gold.Chemscore.Hbond>
2.6268

> <Gold.Chemscore.Metal>
0.0000

> <Gold.Chemscore.Lipo>
49.2001

> <Gold.Chemscore.Internal_Hbond>
0.0000

> <Gold.Chemscore.DEClash>
0.0806

> <Gold.Chemscore.DEInternal>
1.4482

> <Gold.Chemscore.Rot>
2.6937

> <Gold.Chemscore.Internal.Correction>
   9.000000E+99

> <Gold.Chemscore.Hbonds>
donor molecule, donor type, donor heavy atom, donor atom, acceptor molecule, acceptor atom, score
      L1  H     7    19       P1  7957  0.94
      L1  H    12    24       P1  7948  0.55
      P1  H  7997  8008       L1    11  1.00
      P1  H 10752 10763       L1     1  0.06

> <Gold.Chemscore.Hbond.Weighted>
-8.7736

> <Gold.Chemscore.Metal.Weighted>
-0.0000

> <Gold.Chemscore.Lipo.Weighted>
-5.7564

> <Gold.Chemscore.Internal_Hbond.Weighted>
0.0000

> <Gold.Chemscore.DEClash.Weighted>
0.0806

> <Gold.Chemscore.DEInternal.Weighted>
1.4482

> <Gold.Chemscore.Rot.Weighted>
6.8959

> <Gold.Chemscore.Internal.Correction.Weighted>
   9.000000E+99

> <Gold.Protein.RotatedTorsions>
[ 6907 6896 6895 6894 ] final -147.42 input  -60.11 | X-H torsion
[ 7974 7965 7964 7962 ] final  -14.80 input  175.53 | X-H torsion
[ 8008 7997 7996 7995 ] final  -44.00 input   59.86 | X-H torsion
[ 10167 10162 10161 10158 ] final  117.70 input  -65.29 | X-H torsion
[ 10718 10713 10712 10709 ] final  -76.30 input   66.30 | X-H torsion
[ 10763 10752 10751 10750 ] final  107.15 input  -60.55 | X-H torsion
[ 11005 11000 10999 10996 ] final  -28.18 input  -57.11 | X-H torsion

> <Gold.Protein.ActiveResidues>
 VAL166  LYS551  ARG553  GLY616  TRP617  ASP618  TYR619  PRO620  LYS621  CYS622 
 ASP623  PHE694  ASN695  SER759  ASP760  ASP761  ALA762  ILE779  LEU786  VAL792 
 PHE793  MET794  SER795  GLU796  ALA797  LYS798  CYS799  TRP800  GLU811  SER814 

> <Gold.Protein.RotatedAtoms>
  151.1554  133.4880  159.2594 H   0  0  0  0  0  0  0  0  0  0  0  0  # atno 6907 bound_to 6896
  151.1510  135.0227  159.8678 H   0  0  0  0  0  0  0  0  0  0  0  0  # atno 6908 bound_to 6896
  152.5463  134.1438  159.8543 H   0  0  0  0  0  0  0  0  0  0  0  0  # atno 6909 bound_to 6896
  146.2059  140.3400  142.8407 H   0  0  0  0  0  0  0  0  0  0  0  0  # atno 7974 bound_to 7965
  154.3997  140.1433  156.3611 H   0  0  0  0  0  0  0  0  0  0  0  0  # atno 8008 bound_to 7997
  155.8180  140.3470  155.5476 H   0  0  0  0  0  0  0  0  0  0  0  0  # atno 8009 bound_to 7997
  155.8318  140.0913  157.1778 H   0  0  0  0  0  0  0  0  0  0  0  0  # atno 8010 bound_to 7997
  139.6161  144.7092  151.2736 H   0  0  0  0  0  0  0  0  0  0  0  0  # atno 10167 bound_to 10162
  156.0179  130.4462  150.3173 H   0  0  0  0  0  0  0  0  0  0  0  0  # atno 10718 bound_to 10713
  153.4028  135.3853  155.1999 H   0  0  0  0  0  0  0  0  0  0  0  0  # atno 10763 bound_to 10752
  154.8731  135.3775  154.4597 H   0  0  0  0  0  0  0  0  0  0  0  0  # atno 10764 bound_to 10752
  153.5097  135.7087  153.5849 H   0  0  0  0  0  0  0  0  0  0  0  0  # atno 10765 bound_to 10752
  140.9186  133.7414  156.0769 H   0  0  0  0  0  0  0  0  0  0  0  0  # atno 11005 bound_to 11000
  144.8792  140.7377  143.5997 LP  0  0  0  0  0  0  0  0  0  0  0  0  # atno 17320 bound_to 7965
  145.3320  139.1757  143.4532 LP  0  0  0  0  0  0  0  0  0  0  0  0  # atno 17321 bound_to 7965
  140.7352  143.6744  150.8054 LP  0  0  0  0  0  0  0  0  0  0  0  0  # atno 17342 bound_to 10162
  140.0347  143.5407  152.2744 LP  0  0  0  0  0  0  0  0  0  0  0  0  # atno 17343 bound_to 10162
  157.1274  131.0263  151.2984 LP  0  0  0  0  0  0  0  0  0  0  0  0  # atno 17370 bound_to 10713
  157.4578  130.7636  149.7209 LP  0  0  0  0  0  0  0  0  0  0  0  0  # atno 17371 bound_to 10713
  140.8017  134.3500  157.5437 LP  0  0  0  0  0  0  0  0  0  0  0  0  # atno 17394 bound_to 11000
  139.8771  134.9202  156.3245 LP  0  0  0  0  0  0  0  0  0  0  0  0  # atno 17395 bound_to 11000

$$$$
