AV-unprocessed.smi:2184|AV-procd|sdf|8873|dock6
  -GOLD-   2272012 73D 1   1.00000     0.00000
 Structure written by MMmdl.
 47 48  0  0  0  0  0  0  0  0  1 V2000
  154.6827  133.0074  162.2970 C   0  0  0  0  0  0  0  0  0  0  0  0
  154.9677  134.7094  161.7385 S   0  0  0  0  0  0  0  0  0  0  0  0
  155.2271  135.5560  163.3264 C   0  0  2  0  0  0  0  0  0  0  0  0
  154.0128  135.3462  164.2450 C   0  0  0  0  0  0  0  0  0  0  0  0
  155.5285  137.0479  163.1363 C   0  0  0  0  0  0  0  0  0  0  0  0
  154.8388  137.9001  163.6968 O   0  0  0  0  0  0  0  0  0  0  0  0
  156.5578  137.3519  162.3326 N   0  0  0  0  0  0  0  0  0  0  0  0
  156.9844  138.7094  162.0151 C   0  0  0  0  0  0  0  0  0  0  0  0
  155.9065  139.5837  161.3892 C   0  0  0  0  0  0  0  0  0  0  0  0
  154.9891  140.3401  162.1510 C   0  0  0  0  0  0  0  0  0  0  0  0
  154.0239  141.1184  161.4839 C   0  0  0  0  0  0  0  0  0  0  0  0
  153.9971  141.1255  160.0692 C   0  0  0  0  0  0  0  0  0  0  0  0
  153.0393  141.9013  159.3805 N   0  0  0  0  0  0  0  0  0  0  0  0
  152.3763  142.9804  160.1101 C   0  0  0  0  0  0  0  0  0  0  0  0
  151.6051  143.9079  159.1505 C   0  0  1  0  0  0  0  0  0  0  0  0
  152.5158  144.8555  158.3494 C   0  0  0  0  0  0  0  0  0  0  0  0
  150.7478  143.1396  158.3036 O   0  0  0  0  0  0  0  0  0  0  0  0
  151.4074  142.1234  157.5497 C   0  0  2  0  0  0  0  0  0  0  0  0
  150.3528  141.4000  156.7058 C   0  0  0  0  0  0  0  0  0  0  0  0
  152.1355  141.1616  158.5055 C   0  0  0  0  0  0  0  0  0  0  0  0
  154.8746  140.3917  159.3416 N   0  0  0  0  0  0  0  0  0  0  0  0
  155.7980  139.6479  159.9858 C   0  0  0  0  0  0  0  0  0  0  0  0
  154.4675  132.3661  161.4424 H   0  0  0  0  0  0  0  0  0  0  0  0
  153.8352  132.9667  162.9810 H   0  0  0  0  0  0  0  0  0  0  0  0
  155.5625  132.6144  162.8061 H   0  0  0  0  0  0  0  0  0  0  0  0
  156.0860  135.0845  163.8067 H   0  0  0  0  0  0  0  0  0  0  0  0
  154.1445  135.8554  165.2007 H   0  0  0  0  0  0  0  0  0  0  0  0
  153.8659  134.2869  164.4574 H   0  0  0  0  0  0  0  0  0  0  0  0
  153.0947  135.7204  163.7899 H   0  0  0  0  0  0  0  0  0  0  0  0
  157.0734  136.5953  161.9074 H   0  0  0  0  0  0  0  0  0  0  0  0
  157.3342  139.1930  162.9285 H   0  0  0  0  0  0  0  0  0  0  0  0
  157.8334  138.6678  161.3310 H   0  0  0  0  0  0  0  0  0  0  0  0
  155.0082  140.3325  163.2304 H   0  0  0  0  0  0  0  0  0  0  0  0
  153.3101  141.6857  162.0622 H   0  0  0  0  0  0  0  0  0  0  0  0
  151.6834  142.5412  160.8293 H   0  0  0  0  0  0  0  0  0  0  0  0
  153.1024  143.5636  160.6780 H   0  0  0  0  0  0  0  0  0  0  0  0
  150.9504  144.5371  159.7537 H   0  0  0  0  0  0  0  0  0  0  0  0
  153.0555  145.5269  159.0175 H   0  0  0  0  0  0  0  0  0  0  0  0
  151.9308  145.4710  157.6659 H   0  0  0  0  0  0  0  0  0  0  0  0
  153.2603  144.3172  157.7634 H   0  0  0  0  0  0  0  0  0  0  0  0
  152.1279  142.5784  156.8694 H   0  0  0  0  0  0  0  0  0  0  0  0
  150.8061  140.6165  156.0980 H   0  0  0  0  0  0  0  0  0  0  0  0
  149.8503  142.0942  156.0322 H   0  0  0  0  0  0  0  0  0  0  0  0
  149.5924  140.9376  157.3358 H   0  0  0  0  0  0  0  0  0  0  0  0
  152.6634  140.4105  157.9196 H   0  0  0  0  0  0  0  0  0  0  0  0
  151.4122  140.6282  159.1238 H   0  0  0  0  0  0  0  0  0  0  0  0
  156.4725  139.0841  159.3584 H   0  0  0  0  0  0  0  0  0  0  0  0
  1  2  1  0  0  0  0
  1 23  1  0  0  0  0
  1 24  1  0  0  0  0
  1 25  1  0  0  0  0
  2  3  1  0  0  0  0
  3  4  1  0  0  0  0
  3  5  1  0  0  0  0
  3 26  1  0  0  0  0
  4 27  1  0  0  0  0
  4 28  1  0  0  0  0
  4 29  1  0  0  0  0
  5  6  2  0  0  0  0
  5  7  1  0  0  0  0
  7  8  1  0  0  0  0
  7 30  1  0  0  0  0
  8  9  1  0  0  0  0
  8 31  1  0  0  0  0
  8 32  1  0  0  0  0
  9 22  1  0  0  0  0
  9 10  2  0  0  0  0
 10 11  1  0  0  0  0
 10 33  1  0  0  0  0
 11 12  2  0  0  0  0
 11 34  1  0  0  0  0
 12 13  1  0  0  0  0
 12 21  1  0  0  0  0
 13 20  1  0  0  0  0
 13 14  1  0  0  0  0
 14 15  1  0  0  0  0
 14 35  1  0  0  0  0
 14 36  1  0  0  0  0
 15 16  1  0  0  0  0
 15 17  1  0  0  0  0
 15 37  1  0  0  0  0
 16 38  1  0  0  0  0
 16 39  1  0  0  0  0
 16 40  1  0  0  0  0
 17 18  1  0  0  0  0
 18 19  1  0  0  0  0
 18 20  1  0  0  0  0
 18 41  1  0  0  0  0
 19 42  1  0  0  0  0
 19 43  1  0  0  0  0
 19 44  1  0  0  0  0
 20 45  1  0  0  0  0
 20 46  1  0  0  0  0
 21 22  2  0  0  0  0
 22 47  1  0  0  0  0
M  END
> <s_m_source_file>
AV-unprocessed.smi

> <i_m_source_file_index>
2184

> <i_lp_mmshare_version>
43012

> <i_f3d_flags>
0

> <s_epik_input>
W0NIM11TW0NASF0oW0NIM10pQyg9TylbTkhdW0NIMl1jMVtjSF1bY0hdYyhuW2NIXTEpTjJbQ0gyXVtDQEBIXShbQ0gzXSlPW0NAQEhdKFtDSDNdKVtDSDJdMg==

> <s_epik_cmdline>
J2VwaWtfcHl0aG9uJywgJy1waCcsICc3LjAnLCAnLXRuJywgJzgnLCAnLW1hJywgJzIwMCcsICctbWV0YWxfYmluZGluZycsICctaW1hZScsICc8aW5maWxlLm1hZT4nLCAnLW9tYWUnLCAnPG91dGZpbGUubWFlPic=

> <r_lp_tautomer_probability>
1

> <r_epik_Ionization_Penalty>
0.00551702

> <r_epik_Ionization_Penalty_Charging>
0

> <r_epik_Ionization_Penalty_Neutral>
0.00551702

> <r_epik_State_Penalty>
0.00403758

> <r_epik_Charging_Adjusted_Penalty>
0.00403758

> <i_epik_Tot_Q>
0

> <i_epik_Tot_abs_Q>
0

> <r_epik_Metal_State_Penalty>
-0

> <b_epik_Metal_Only>
0

> <s_lp_Force_Field>
OPLS_2005

> <r_lp_Energy>
19.1656

> <b_lp_Chiralities_Consistent>
1

> <s_lp_Variant>
AV-unprocessed.smi:2184-5

> <Gold.Version>
5.8.1

> <Gold.Id.Protein>
6NUR|6NUR_protein|mol2

> <Gold.PLP.Fitness>
40.7096

> <Gold.PLP.PLP>
-39.1146

> <Gold.PLP.part.hbond>
-1.0000

> <Gold.PLP.part.metal>
0.0000

> <Gold.PLP.part.buried>
-3.5771

> <Gold.PLP.part.nonpolar>
-35.0529

> <Gold.PLP.part.repulsive>
0.1409

> <Gold.PLP.ligand.clash>
0.0000

> <Gold.PLP.ligand.torsion>
0.6484

> <Gold.PLP.Chemscore.Hbond>
0.8406

> <Gold.PLP.Chemscore.CHOScore>
0.0000

> <Gold.PLP.Chemscore.Metal>
0.0000

> <Gold.Chemscore.Hbonds>
donor molecule, donor type, donor heavy atom, donor atom, acceptor molecule, acceptor atom, score
      P1  H  7997  8008       L1    21  0.82

> <Gold.PLP.Chemscore.Internal.Correction>
0.3701

> <Gold.Rescore>
     Score         DG    S(hbond)    S(metal)    S(lipo)     H(rot)  DE(clash)    DE(int)     intcor
     17.18     -18.08       0.81        0.00     119.55       1.59       0.29       0.61       ----

> <Gold.Chemscore.Fitness>
17.1824

> <Gold.Chemscore.DG>
-18.0814

> <Gold.Chemscore.ZeroCoef>
-5.4800

> <Gold.Chemscore.Hbond>
0.8074

> <Gold.Chemscore.Metal>
0.0000

> <Gold.Chemscore.Lipo>
119.5490

> <Gold.Chemscore.Internal_Hbond>
0.0000

> <Gold.Chemscore.DEClash>
0.2918

> <Gold.Chemscore.DEInternal>
0.6072

> <Gold.Chemscore.Rot>
1.5947

> <Gold.Chemscore.Internal.Correction>
   9.000000E+99

> <Gold.Chemscore.Hbonds>
donor molecule, donor type, donor heavy atom, donor atom, acceptor molecule, acceptor atom, score
      P1  H  7997  8008       L1    21  0.42

> <Gold.Chemscore.Hbond.Weighted>
-2.6966

> <Gold.Chemscore.Metal.Weighted>
-0.0000

> <Gold.Chemscore.Lipo.Weighted>
-13.9872

> <Gold.Chemscore.Internal_Hbond.Weighted>
0.0000

> <Gold.Chemscore.DEClash.Weighted>
0.2918

> <Gold.Chemscore.DEInternal.Weighted>
0.6072

> <Gold.Chemscore.Rot.Weighted>
4.0824

> <Gold.Chemscore.Internal.Correction.Weighted>
   9.000000E+99

> <Gold.Protein.RotatedTorsions>
[ 6907 6896 6895 6894 ] final   73.97 input  -60.11 | X-H torsion
[ 7974 7965 7964 7962 ] final  -96.83 input  175.53 | X-H torsion
[ 8008 7997 7996 7995 ] final -123.17 input   59.86 | X-H torsion
[ 10167 10162 10161 10158 ] final  -53.34 input  -65.29 | X-H torsion
[ 10718 10713 10712 10709 ] final  -39.68 input   66.30 | X-H torsion
[ 10763 10752 10751 10750 ] final   74.53 input  -60.55 | X-H torsion
[ 11005 11000 10999 10996 ] final -122.40 input  -57.11 | X-H torsion

> <Gold.Protein.ActiveResidues>
 VAL166  LYS551  ARG553  GLY616  TRP617  ASP618  TYR619  PRO620  LYS621  CYS622 
 ASP623  PHE694  ASN695  SER759  ASP760  ASP761  ALA762  ILE779  LEU786  VAL792 
 PHE793  MET794  SER795  GLU796  ALA797  LYS798  CYS799  TRP800  GLU811  SER814 

> <Gold.Protein.RotatedAtoms>
  152.4951  134.4341  159.9521 H   0  0  0  0  0  0  0  0  0  0  0  0  # atno 6907 bound_to 6896
  151.4321  133.3661  159.2778 H   0  0  0  0  0  0  0  0  0  0  0  0  # atno 6908 bound_to 6896
  150.9147  134.8587  159.7508 H   0  0  0  0  0  0  0  0  0  0  0  0  # atno 6909 bound_to 6896
  145.3416  140.9461  143.2604 H   0  0  0  0  0  0  0  0  0  0  0  0  # atno 7974 bound_to 7965
  155.1762  140.0409  157.2873 H   0  0  0  0  0  0  0  0  0  0  0  0  # atno 8008 bound_to 7997
  154.6235  140.2506  155.7493 H   0  0  0  0  0  0  0  0  0  0  0  0  # atno 8009 bound_to 7997
  156.2446  140.2890  156.0554 H   0  0  0  0  0  0  0  0  0  0  0  0  # atno 8010 bound_to 7997
  140.6490  143.2553  151.4778 H   0  0  0  0  0  0  0  0  0  0  0  0  # atno 10167 bound_to 10162
  156.2897  130.4227  149.8251 H   0  0  0  0  0  0  0  0  0  0  0  0  # atno 10718 bound_to 10713
  153.0593  135.5022  154.8055 H   0  0  0  0  0  0  0  0  0  0  0  0  # atno 10763 bound_to 10752
  154.6857  135.2976  154.9553 H   0  0  0  0  0  0  0  0  0  0  0  0  # atno 10764 bound_to 10752
  154.0324  135.6728  153.4835 H   0  0  0  0  0  0  0  0  0  0  0  0  # atno 10765 bound_to 10752
  140.9998  134.0419  157.3552 H   0  0  0  0  0  0  0  0  0  0  0  0  # atno 11005 bound_to 11000
  144.8785  139.4936  143.6734 LP  0  0  0  0  0  0  0  0  0  0  0  0  # atno 17320 bound_to 7965
  146.3005  139.7411  142.9095 LP  0  0  0  0  0  0  0  0  0  0  0  0  # atno 17321 bound_to 7965
  139.5703  144.1944  152.1826 LP  0  0  0  0  0  0  0  0  0  0  0  0  # atno 17342 bound_to 10162
  140.1238  144.5349  150.6845 LP  0  0  0  0  0  0  0  0  0  0  0  0  # atno 17343 bound_to 10162
  156.5669  130.8407  151.3345 LP  0  0  0  0  0  0  0  0  0  0  0  0  # atno 17370 bound_to 10713
  157.7339  130.9737  150.2000 LP  0  0  0  0  0  0  0  0  0  0  0  0  # atno 17371 bound_to 10713
  139.9033  135.0172  156.7370 LP  0  0  0  0  0  0  0  0  0  0  0  0  # atno 17394 bound_to 11000
  140.6908  133.9392  155.7965 LP  0  0  0  0  0  0  0  0  0  0  0  0  # atno 17395 bound_to 11000

$$$$
