AV-unprocessed.smi:1539|AV-procd|sdf|6197|dock5
  -GOLD-   22720 6363D 1   1.00000     0.00000
 Structure written by MMmdl.
 41 42  0  0  0  0  0  0  0  0  1 V2000
  149.9606  136.0741  157.5784 C   0  0  0  0  0  0  0  0  0  0  0  0
  149.2667  137.1879  156.7905 C   0  0  0  0  0  0  0  0  0  0  0  0
  148.4763  137.9174  157.3899 O   0  0  0  0  0  0  0  0  0  0  0  0
  149.5307  137.3284  155.4680 N   0  0  0  0  0  0  0  0  0  0  0  0
  150.5171  136.4772  154.7859 C   0  0  0  0  0  0  0  0  0  0  0  0
  151.9437  137.0527  154.9158 C   0  0  0  0  0  0  0  0  0  0  0  0
  152.0862  138.4838  154.3513 C   0  0  0  0  0  0  0  0  0  0  0  0
  151.2215  139.4402  155.0692 N   0  0  0  0  0  0  0  0  0  0  0  0
  151.5497  140.0676  156.2291 C   0  0  0  0  0  0  0  0  0  0  0  0
  152.5731  139.8173  156.8678 O   0  0  0  0  0  0  0  0  0  0  0  0
  150.6779  141.0123  156.6228 N   0  0  0  0  0  0  0  0  0  0  0  0
  150.8189  141.8405  157.8141 C   0  0  0  0  0  0  0  0  0  0  0  0
  151.2534  143.2701  157.4541 C   0  0  0  0  0  0  0  0  0  0  0  0
  151.3928  144.0958  158.6360 N   0  0  0  0  0  0  0  0  0  0  0  0
  152.2543  143.8881  159.7048 C   0  0  0  0  0  0  0  0  0  0  0  0
  152.0402  144.9217  160.5885 C   0  0  0  0  0  0  0  0  0  0  0  0
  151.0585  145.7728  160.0858 N   0  0  0  0  0  0  0  0  0  0  0  0
  150.7230  145.2192  158.9274 C   0  0  0  0  0  0  0  0  0  0  0  0
  149.8974  139.6160  154.4444 C   0  0  0  0  0  0  0  0  0  0  0  0
  148.9630  138.3871  154.6141 C   0  0  0  0  0  0  0  0  0  0  0  0
  149.8120  135.1054  157.1011 H   0  0  0  0  0  0  0  0  0  0  0  0
  149.5561  136.0103  158.5891 H   0  0  0  0  0  0  0  0  0  0  0  0
  151.0301  136.2691  157.6581 H   0  0  0  0  0  0  0  0  0  0  0  0
  150.4906  135.4611  155.1834 H   0  0  0  0  0  0  0  0  0  0  0  0
  150.2648  136.3725  153.7303 H   0  0  0  0  0  0  0  0  0  0  0  0
  152.2521  137.0333  155.9617 H   0  0  0  0  0  0  0  0  0  0  0  0
  152.6365  136.3949  154.3905 H   0  0  0  0  0  0  0  0  0  0  0  0
  153.1299  138.7995  154.3824 H   0  0  0  0  0  0  0  0  0  0  0  0
  151.8333  138.4739  153.2903 H   0  0  0  0  0  0  0  0  0  0  0  0
  149.8650  141.1747  156.0463 H   0  0  0  0  0  0  0  0  0  0  0  0
  149.8829  141.8530  158.3756 H   0  0  0  0  0  0  0  0  0  0  0  0
  151.5625  141.3766  158.4630 H   0  0  0  0  0  0  0  0  0  0  0  0
  152.2064  143.2585  156.9233 H   0  0  0  0  0  0  0  0  0  0  0  0
  150.5258  143.7398  156.7907 H   0  0  0  0  0  0  0  0  0  0  0  0
  152.9293  143.0458  159.7463 H   0  0  0  0  0  0  0  0  0  0  0  0
  152.5141  145.1174  161.5392 H   0  0  0  0  0  0  0  0  0  0  0  0
  149.9737  145.6424  158.2743 H   0  0  0  0  0  0  0  0  0  0  0  0
  149.3863  140.4993  154.8300 H   0  0  0  0  0  0  0  0  0  0  0  0
  150.0290  139.8296  153.3828 H   0  0  0  0  0  0  0  0  0  0  0  0
  148.7528  137.9698  153.6286 H   0  0  0  0  0  0  0  0  0  0  0  0
  147.9844  138.7135  154.9654 H   0  0  0  0  0  0  0  0  0  0  0  0
  1  2  1  0  0  0  0
  1 21  1  0  0  0  0
  1 22  1  0  0  0  0
  1 23  1  0  0  0  0
  2  3  2  0  0  0  0
  2  4  1  0  0  0  0
  4 20  1  0  0  0  0
  4  5  1  0  0  0  0
  5  6  1  0  0  0  0
  5 24  1  0  0  0  0
  5 25  1  0  0  0  0
  6  7  1  0  0  0  0
  6 26  1  0  0  0  0
  6 27  1  0  0  0  0
  7  8  1  0  0  0  0
  7 28  1  0  0  0  0
  7 29  1  0  0  0  0
  8  9  1  0  0  0  0
  8 19  1  0  0  0  0
  9 10  2  0  0  0  0
  9 11  1  0  0  0  0
 11 12  1  0  0  0  0
 11 30  1  0  0  0  0
 12 13  1  0  0  0  0
 12 31  1  0  0  0  0
 12 32  1  0  0  0  0
 13 14  1  0  0  0  0
 13 33  1  0  0  0  0
 13 34  1  0  0  0  0
 14 18  1  0  0  0  0
 14 15  1  0  0  0  0
 15 16  2  0  0  0  0
 15 35  1  0  0  0  0
 16 17  1  0  0  0  0
 16 36  1  0  0  0  0
 17 18  2  0  0  0  0
 18 37  1  0  0  0  0
 19 20  1  0  0  0  0
 19 38  1  0  0  0  0
 19 39  1  0  0  0  0
 20 40  1  0  0  0  0
 20 41  1  0  0  0  0
M  END
> <s_m_source_file>
AV-unprocessed.smi

> <i_m_source_file_index>
1539

> <i_lp_mmshare_version>
43012

> <i_f3d_flags>
0

> <s_epik_input>
W0NIM11DKD1PKU4xW0NIMl1bQ0gyXVtDSDJdTihbQ0gyXVtDSDJdMSlDKD1PKVtOSF1bQ0gyXVtDSDJdbjJbY0hdW2NIXW5bY0hdMg==

> <s_epik_cmdline>
J2VwaWtfcHl0aG9uJywgJy1waCcsICc3LjAnLCAnLXRuJywgJzgnLCAnLW1hJywgJzIwMCcsICctbWV0YWxfYmluZGluZycsICctaW1hZScsICc8aW5maWxlLm1hZT4nLCAnLW9tYWUnLCAnPG91dGZpbGUubWFlPic=

> <r_lp_tautomer_probability>
1

> <r_epik_Ionization_Penalty>
0.624284

> <r_epik_Ionization_Penalty_Charging>
0.624238

> <r_epik_Ionization_Penalty_Neutral>
4.66445e-05

> <r_epik_State_Penalty>
0.64053

> <r_epik_Charging_Adjusted_Penalty>
1.26477

> <i_epik_Tot_Q>
0

> <i_epik_Tot_abs_Q>
0

> <r_epik_Metal_State_Penalty>
0.307534

> <b_epik_Metal_Only>
0

> <s_lp_Force_Field>
OPLS_2005

> <r_lp_Energy>
41.7081

> <b_lp_Chiralities_Consistent>
1

> <s_lp_Variant>
AV-unprocessed.smi:1539-2

> <Gold.Version>
5.8.1

> <Gold.Id.Protein>
6NUR|6NUR_protein|mol2

> <Gold.PLP.Fitness>
40.3750

> <Gold.PLP.PLP>
-36.3395

> <Gold.PLP.part.hbond>
-2.7589

> <Gold.PLP.part.metal>
0.0000

> <Gold.PLP.part.buried>
-1.4767

> <Gold.PLP.part.nonpolar>
-32.3360

> <Gold.PLP.part.repulsive>
0.2926

> <Gold.PLP.ligand.clash>
1.7069

> <Gold.PLP.ligand.torsion>
0.1361

> <Gold.PLP.Chemscore.Hbond>
1.0000

> <Gold.PLP.Chemscore.CHOScore>
1.0000

> <Gold.PLP.Chemscore.Metal>
0.0000

> <Gold.Chemscore.Hbonds>
donor molecule, donor type, donor heavy atom, donor atom, acceptor molecule, acceptor atom, score
      P1  H  7997  8010       L1    10  1.00
      L1  C    18    37       P1  8029  1.00

> <Gold.PLP.Chemscore.Internal.Correction>
0.0147

> <Gold.Rescore>
     Score         DG    S(hbond)    S(metal)    S(lipo)     H(rot)  DE(clash)    DE(int)     intcor
     12.14     -13.60       1.00        0.00      77.05       1.65       1.34       0.12       ----

> <Gold.Chemscore.Fitness>
12.1364

> <Gold.Chemscore.DG>
-13.6050

> <Gold.Chemscore.ZeroCoef>
-5.4800

> <Gold.Chemscore.Hbond>
0.9995

> <Gold.Chemscore.Metal>
0.0000

> <Gold.Chemscore.Lipo>
77.0497

> <Gold.Chemscore.Internal_Hbond>
0.0000

> <Gold.Chemscore.DEClash>
1.3449

> <Gold.Chemscore.DEInternal>
0.1237

> <Gold.Chemscore.Rot>
1.6516

> <Gold.Chemscore.Internal.Correction>
   9.000000E+99

> <Gold.Chemscore.Hbonds>
donor molecule, donor type, donor heavy atom, donor atom, acceptor molecule, acceptor atom, score
      P1  H  7997  8010       L1    10  1.00

> <Gold.Chemscore.Hbond.Weighted>
-3.3382

> <Gold.Chemscore.Metal.Weighted>
-0.0000

> <Gold.Chemscore.Lipo.Weighted>
-9.0148

> <Gold.Chemscore.Internal_Hbond.Weighted>
0.0000

> <Gold.Chemscore.DEClash.Weighted>
1.3449

> <Gold.Chemscore.DEInternal.Weighted>
0.1237

> <Gold.Chemscore.Rot.Weighted>
4.2280

> <Gold.Chemscore.Internal.Correction.Weighted>
   9.000000E+99

> <Gold.Protein.RotatedTorsions>
[ 6907 6896 6895 6894 ] final -162.92 input  -60.11 | X-H torsion
[ 7974 7965 7964 7962 ] final  150.24 input  175.53 | X-H torsion
[ 8008 7997 7996 7995 ] final   67.33 input   59.86 | X-H torsion
[ 10167 10162 10161 10158 ] final  107.43 input  -65.29 | X-H torsion
[ 10718 10713 10712 10709 ] final   -8.29 input   66.30 | X-H torsion
[ 10763 10752 10751 10750 ] final   45.62 input  -60.55 | X-H torsion
[ 11005 11000 10999 10996 ] final -144.10 input  -57.11 | X-H torsion

> <Gold.Protein.ActiveResidues>
 VAL166  LYS551  ARG553  GLY616  TRP617  ASP618  TYR619  PRO620  LYS621  CYS622 
 ASP623  PHE694  ASN695  SER759  ASP760  ASP761  ALA762  ILE779  LEU786  VAL792 
 PHE793  MET794  SER795  GLU796  ALA797  LYS798  CYS799  TRP800  GLU811  SER814 

> <Gold.Protein.RotatedAtoms>
  151.3879  133.3799  159.2717 H   0  0  0  0  0  0  0  0  0  0  0  0  # atno 6907 bound_to 6896
  150.9528  134.8927  159.7693 H   0  0  0  0  0  0  0  0  0  0  0  0  # atno 6908 bound_to 6896
  152.5118  134.3835  159.9411 H   0  0  0  0  0  0  0  0  0  0  0  0  # atno 6909 bound_to 6896
  144.8379  139.6383  143.6030 H   0  0  0  0  0  0  0  0  0  0  0  0  # atno 7974 bound_to 7965
  155.6912  140.3496  155.4894 H   0  0  0  0  0  0  0  0  0  0  0  0  # atno 8008 bound_to 7997
  155.9522  140.1121  157.0989 H   0  0  0  0  0  0  0  0  0  0  0  0  # atno 8009 bound_to 7997
  154.4124  140.1192  156.5054 H   0  0  0  0  0  0  0  0  0  0  0  0  # atno 8010 bound_to 7997
  139.6927  144.7105  151.1320 H   0  0  0  0  0  0  0  0  0  0  0  0  # atno 10167 bound_to 10162
  156.7048  130.5104  149.5907 H   0  0  0  0  0  0  0  0  0  0  0  0  # atno 10718 bound_to 10713
  152.9822  135.6034  154.3467 H   0  0  0  0  0  0  0  0  0  0  0  0  # atno 10763 bound_to 10752
  154.3159  135.2770  155.2545 H   0  0  0  0  0  0  0  0  0  0  0  0  # atno 10764 bound_to 10752
  154.4733  135.5936  153.6393 H   0  0  0  0  0  0  0  0  0  0  0  0  # atno 10765 bound_to 10752
  140.8058  134.2802  157.4960 H   0  0  0  0  0  0  0  0  0  0  0  0  # atno 11005 bound_to 11000
  146.2675  139.6555  142.9319 LP  0  0  0  0  0  0  0  0  0  0  0  0  # atno 17320 bound_to 7965
  145.4757  141.0437  143.2674 LP  0  0  0  0  0  0  0  0  0  0  0  0  # atno 17321 bound_to 7965
  140.7687  143.5536  150.9177 LP  0  0  0  0  0  0  0  0  0  0  0  0  # atno 17342 bound_to 10162
  139.9214  143.6602  152.3096 LP  0  0  0  0  0  0  0  0  0  0  0  0  # atno 17343 bound_to 10162
  156.1703  130.6432  151.0829 LP  0  0  0  0  0  0  0  0  0  0  0  0  # atno 17370 bound_to 10713
  157.6959  131.0794  150.6970 LP  0  0  0  0  0  0  0  0  0  0  0  0  # atno 17371 bound_to 10713
  139.8718  134.9455  156.3913 LP  0  0  0  0  0  0  0  0  0  0  0  0  # atno 17394 bound_to 11000
  140.9248  133.7620  155.9951 LP  0  0  0  0  0  0  0  0  0  0  0  0  # atno 17395 bound_to 11000

$$$$
