AV-unprocessed.smi:1986|AV-procd|sdf|8048|dock8
  -GOLD-   2272010243D 1   1.00000     0.00000
 Structure written by MMmdl.
 47 48  0  0  0  0  0  0  0  0  3 V2000
  147.0062  139.6848  153.6146 C   0  0  0  0  0  0  0  0  0  0  0  0
  146.8636  138.1634  153.4312 C   0  0  0  0  0  0  0  0  0  0  0  0
  147.5765  137.2747  154.4952 C   0  0  1  0  0  0  0  0  0  0  0  0
  148.9683  137.8753  154.8268 C   0  0  0  0  0  0  0  0  0  0  0  0
  146.7582  137.2745  155.8209 C   0  0  0  0  0  0  0  0  0  0  0  0
  147.5810  136.8518  156.9493 N   0  0  0  0  0  0  0  0  0  0  0  0
  147.6038  137.3898  158.1774 C   0  0  0  0  0  0  0  0  0  0  0  0
  146.8205  138.2616  158.5517 O   0  0  0  0  0  0  0  0  0  0  0  0
  148.7176  136.9015  159.1165 C   0  0  0  0  0  0  0  0  0  0  0  0
  148.2172  136.0949  160.2437 N   0  0  0  0  0  0  0  0  0  0  0  0
  147.8995  136.8691  161.4409 N   0  5  0  0  0  0  0  0  0  0  0  0
  147.4621  136.2199  162.5523 C   0  0  0  0  0  0  0  0  0  0  0  0
  147.1900  136.8013  163.5994 O   0  0  0  0  0  0  0  0  0  0  0  0
  147.2922  134.7784  162.4806 C   0  0  0  0  0  0  0  0  0  0  0  0
  147.5487  134.0956  161.3479 C   0  0  0  0  0  0  0  0  0  0  0  0
  148.0262  134.7488  160.1358 C   0  0  0  0  0  0  0  0  0  0  0  0
  148.2399  134.1339  159.0915 O   0  0  0  0  0  0  0  0  0  0  0  0
  147.7419  135.8569  153.9975 N   0  3  0  0  0  0  0  0  0  0  0  0
  148.6438  134.9910  154.8092 C   0  0  0  0  0  0  0  0  0  0  0  0
  148.8981  133.6544  154.0952 C   0  0  0  0  0  0  0  0  0  0  0  0
  147.6597  132.9993  153.8628 O   0  0  0  0  0  0  0  0  0  0  0  0
  146.8134  133.7651  153.0177 C   0  0  0  0  0  0  0  0  0  0  0  0
  146.4887  135.1143  153.6818 C   0  0  0  0  0  0  0  0  0  0  0  0
  146.4649  140.2127  152.8293 H   0  0  0  0  0  0  0  0  0  0  0  0
  148.0455  140.0073  153.5570 H   0  0  0  0  0  0  0  0  0  0  0  0
  146.5977  140.0214  154.5669 H   0  0  0  0  0  0  0  0  0  0  0  0
  145.7968  137.9411  153.4162 H   0  0  0  0  0  0  0  0  0  0  0  0
  147.2331  137.9182  152.4360 H   0  0  0  0  0  0  0  0  0  0  0  0
  148.8843  138.7943  155.4076 H   0  0  0  0  0  0  0  0  0  0  0  0
  149.5323  138.1293  153.9293 H   0  0  0  0  0  0  0  0  0  0  0  0
  149.5736  137.1867  155.4174 H   0  0  0  0  0  0  0  0  0  0  0  0
  146.3301  138.2600  156.0079 H   0  0  0  0  0  0  0  0  0  0  0  0
  145.9028  136.6026  155.7562 H   0  0  0  0  0  0  0  0  0  0  0  0
  148.2572  136.1228  156.7692 H   0  0  0  0  0  0  0  0  0  0  0  0
  149.4493  136.3305  158.5421 H   0  0  0  0  0  0  0  0  0  0  0  0
  149.2558  137.7751  159.4882 H   0  0  0  0  0  0  0  0  0  0  0  0
  146.9450  134.2441  163.3526 H   0  0  0  0  0  0  0  0  0  0  0  0
  147.4032  133.0257  161.3378 H   0  0  0  0  0  0  0  0  0  0  0  0
  149.6060  135.4686  154.9841 H   0  0  0  0  0  0  0  0  0  0  0  0
  148.2001  134.7917  155.7848 H   0  0  0  0  0  0  0  0  0  0  0  0
  149.4305  133.8075  153.1567 H   0  0  0  0  0  0  0  0  0  0  0  0
  149.5249  133.0120  154.7135 H   0  0  0  0  0  0  0  0  0  0  0  0
  147.2870  133.9127  152.0466 H   0  0  0  0  0  0  0  0  0  0  0  0
  145.8958  133.2043  152.8396 H   0  0  0  0  0  0  0  0  0  0  0  0
  145.9119  134.9429  154.5907 H   0  0  0  0  0  0  0  0  0  0  0  0
  145.8532  135.6700  152.9949 H   0  0  0  0  0  0  0  0  0  0  0  0
  148.2087  135.9600  153.1070 H   0  0  0  0  0  0  0  0  0  0  0  0
  1  2  1  0  0  0  0
  1 24  1  0  0  0  0
  1 25  1  0  0  0  0
  1 26  1  0  0  0  0
  2  3  1  0  0  0  0
  2 27  1  0  0  0  0
  2 28  1  0  0  0  0
  3  4  1  0  0  0  0
  3  5  1  0  0  0  0
  3 18  1  0  0  0  0
  4 29  1  0  0  0  0
  4 30  1  0  0  0  0
  4 31  1  0  0  0  0
  5  6  1  0  0  0  0
  5 32  1  0  0  0  0
  5 33  1  0  0  0  0
  6  7  1  0  0  0  0
  6 34  1  0  0  0  0
  7  8  2  0  0  0  0
  7  9  1  0  0  0  0
  9 35  1  0  0  0  0
  9 36  1  0  0  0  0
  9 10  1  0  0  0  0
 10 11  1  0  0  0  0
 10 16  1  0  0  0  0
 11 12  1  0  0  0  0
 12 13  2  0  0  0  0
 12 14  1  0  0  0  0
 14 37  1  0  0  0  0
 14 15  2  0  0  0  0
 15 38  1  0  0  0  0
 15 16  1  0  0  0  0
 16 17  2  0  0  0  0
 18 23  1  0  0  0  0
 18 19  1  0  0  0  0
 18 47  1  0  0  0  0
 19 20  1  0  0  0  0
 19 39  1  0  0  0  0
 19 40  1  0  0  0  0
 20 21  1  0  0  0  0
 20 41  1  0  0  0  0
 20 42  1  0  0  0  0
 21 22  1  0  0  0  0
 22 23  1  0  0  0  0
 22 43  1  0  0  0  0
 22 44  1  0  0  0  0
 23 45  1  0  0  0  0
 23 46  1  0  0  0  0
M  CHG  1  11  -1
M  CHG  1  18   1
M  END
> <s_m_source_file>
AV-unprocessed.smi

> <i_m_source_file_index>
1986

> <i_lp_mmshare_version>
43012

> <i_f3d_flags>
0

> <s_epik_input>
W0NIMl0xW0NIMl1PW0NIMl1bQ0gyXU4xW0NAQF0oW0NIM10pKFtDSDJdW0NIM10pW0NIMl1bTkhdQyg9TylbQ0gyXW4yW25IXWMoPU8pW2NIXVtjSF1jMj1P

> <s_epik_cmdline>
J2VwaWtfcHl0aG9uJywgJy1waCcsICc3LjAnLCAnLXRuJywgJzgnLCAnLW1hJywgJzIwMCcsICctbWV0YWxfYmluZGluZycsICctaW1hZScsICc8aW5maWxlLm1hZT4nLCAnLW9tYWUnLCAnPG91dGZpbGUubWFlPic=

> <r_lp_tautomer_probability>
1

> <r_epik_Ionization_Penalty>
0.604767

> <r_epik_Ionization_Penalty_Charging>
0.604766

> <r_epik_Ionization_Penalty_Neutral>
8.70177e-08

> <r_epik_State_Penalty>
0.54579

> <r_epik_Charging_Adjusted_Penalty>
1.15056

> <i_epik_Tot_Q>
0

> <i_epik_Tot_abs_Q>
2

> <r_epik_Metal_State_Penalty>
0.54579

> <b_epik_Metal_Only>
0

> <s_lp_Force_Field>
OPLS_2005

> <r_lp_Energy>
39.3648

> <b_lp_Chiralities_Consistent>
1

> <s_lp_Variant>
AV-unprocessed.smi:1986-3

> <Gold.Version>
5.8.1

> <Gold.Id.Protein>
6NUR|6NUR_protein|mol2

> <Gold.PLP.Fitness>
42.3729

> <Gold.PLP.PLP>
-28.8662

> <Gold.PLP.part.hbond>
-5.0567

> <Gold.PLP.part.metal>
0.0000

> <Gold.PLP.part.buried>
0.0981

> <Gold.PLP.part.nonpolar>
-23.9561

> <Gold.PLP.part.repulsive>
0.1091

> <Gold.PLP.ligand.clash>
0.5630

> <Gold.PLP.ligand.torsion>
1.1416

> <Gold.PLP.Chemscore.Hbond>
5.4080

> <Gold.PLP.Chemscore.CHOScore>
0.0000

> <Gold.PLP.Chemscore.Metal>
0.0000

> <Gold.Chemscore.Hbonds>
donor molecule, donor type, donor heavy atom, donor atom, acceptor molecule, acceptor atom, score
      L1  H    18    47       P1  7948  1.69
      P1  H  6931  6943       L1    11  2.00
      P1  H  6934  6947       L1    11  0.42

> <Gold.PLP.Chemscore.Internal.Correction>
0.1290

> <Gold.Rescore>
     Score         DG    S(hbond)    S(metal)    S(lipo)     H(rot)  DE(clash)    DE(int)     intcor
     10.27     -12.01       2.18        0.00      48.16       2.50       0.55       1.19       ----

> <Gold.Chemscore.Fitness>
10.2742

> <Gold.Chemscore.DG>
-12.0057

> <Gold.Chemscore.ZeroCoef>
-5.4800

> <Gold.Chemscore.Hbond>
2.1809

> <Gold.Chemscore.Metal>
0.0000

> <Gold.Chemscore.Lipo>
48.1592

> <Gold.Chemscore.Internal_Hbond>
0.0000

> <Gold.Chemscore.DEClash>
0.5457

> <Gold.Chemscore.DEInternal>
1.1857

> <Gold.Chemscore.Rot>
2.4973

> <Gold.Chemscore.Internal.Correction>
   9.000000E+99

> <Gold.Chemscore.Hbonds>
donor molecule, donor type, donor heavy atom, donor atom, acceptor molecule, acceptor atom, score
      L1  H    18    47       P1  7948  0.82
      P1  H  6931  6943       L1    11  0.71
      P1  H  6934  6947       L1    11  0.17

> <Gold.Chemscore.Hbond.Weighted>
-7.2841

> <Gold.Chemscore.Metal.Weighted>
-0.0000

> <Gold.Chemscore.Lipo.Weighted>
-5.6346

> <Gold.Chemscore.Internal_Hbond.Weighted>
0.0000

> <Gold.Chemscore.DEClash.Weighted>
0.5457

> <Gold.Chemscore.DEInternal.Weighted>
1.1857

> <Gold.Chemscore.Rot.Weighted>
6.3930

> <Gold.Chemscore.Internal.Correction.Weighted>
   9.000000E+99

> <Gold.Protein.RotatedTorsions>
[ 6907 6896 6895 6894 ] final  -11.28 input  -60.11 | X-H torsion
[ 7974 7965 7964 7962 ] final -171.04 input  175.53 | X-H torsion
[ 8008 7997 7996 7995 ] final  -40.92 input   59.86 | X-H torsion
[ 10167 10162 10161 10158 ] final  -22.46 input  -65.29 | X-H torsion
[ 10718 10713 10712 10709 ] final   30.71 input   66.30 | X-H torsion
[ 10763 10752 10751 10750 ] final    0.67 input  -60.55 | X-H torsion
[ 11005 11000 10999 10996 ] final  -12.25 input  -57.11 | X-H torsion

> <Gold.Protein.ActiveResidues>
 VAL166  LYS551  ARG553  GLY616  TRP617  ASP618  TYR619  PRO620  LYS621  CYS622 
 ASP623  PHE694  ASN695  SER759  ASP760  ASP761  ALA762  ILE779  LEU786  VAL792 
 PHE793  MET794  SER795  GLU796  ALA797  LYS798  CYS799  TRP800  GLU811  SER814 

> <Gold.Protein.RotatedAtoms>
  151.3886  135.0952  159.9518 H   0  0  0  0  0  0  0  0  0  0  0  0  # atno 6907 bound_to 6896
  152.5086  133.9001  159.7447 H   0  0  0  0  0  0  0  0  0  0  0  0  # atno 6908 bound_to 6896
  150.9450  133.6557  159.2812 H   0  0  0  0  0  0  0  0  0  0  0  0  # atno 6909 bound_to 6896
  144.7162  140.1982  143.6341 H   0  0  0  0  0  0  0  0  0  0  0  0  # atno 7974 bound_to 7965
  154.4008  140.1513  156.3105 H   0  0  0  0  0  0  0  0  0  0  0  0  # atno 8008 bound_to 7997
  155.8619  140.3453  155.5741 H   0  0  0  0  0  0  0  0  0  0  0  0  # atno 8009 bound_to 7997
  155.7870  140.0851  157.2019 H   0  0  0  0  0  0  0  0  0  0  0  0  # atno 8010 bound_to 7997
  140.7286  143.4532  151.0486 H   0  0  0  0  0  0  0  0  0  0  0  0  # atno 10167 bound_to 10162
  157.2631  130.7171  149.6464 H   0  0  0  0  0  0  0  0  0  0  0  0  # atno 10718 bound_to 10713
  153.3178  135.6967  153.7058 H   0  0  0  0  0  0  0  0  0  0  0  0  # atno 10763 bound_to 10752
  153.5910  135.3480  155.2911 H   0  0  0  0  0  0  0  0  0  0  0  0  # atno 10764 bound_to 10752
  154.8590  135.4318  154.2333 H   0  0  0  0  0  0  0  0  0  0  0  0  # atno 10765 bound_to 10752
  140.7637  133.8494  155.9147 H   0  0  0  0  0  0  0  0  0  0  0  0  # atno 11005 bound_to 11000
  145.8705  139.2269  143.1664 LP  0  0  0  0  0  0  0  0  0  0  0  0  # atno 17320 bound_to 7965
  146.0089  140.8453  142.9981 LP  0  0  0  0  0  0  0  0  0  0  0  0  # atno 17321 bound_to 7965
  139.8210  143.7820  152.3177 LP  0  0  0  0  0  0  0  0  0  0  0  0  # atno 17342 bound_to 10162
  139.7902  144.7413  150.9965 LP  0  0  0  0  0  0  0  0  0  0  0  0  # atno 17343 bound_to 10162
  155.9664  130.4391  150.5246 LP  0  0  0  0  0  0  0  0  0  0  0  0  # atno 17370 bound_to 10713
  157.3154  131.0672  151.1970 LP  0  0  0  0  0  0  0  0  0  0  0  0  # atno 17371 bound_to 10713
  140.9639  134.1620  157.4632 LP  0  0  0  0  0  0  0  0  0  0  0  0  # atno 17394 bound_to 11000
  139.8766  134.9954  156.5744 LP  0  0  0  0  0  0  0  0  0  0  0  0  # atno 17395 bound_to 11000

$$$$
