AV-unprocessed.smi:281|AV-procd|sdf|2104|dock9
  -GOLD-   2262021393D 1   1.00000     0.00000
 Structure written by MMmdl.
 55 59  0  0  0  0  0  0  0  0  1 V2000
  148.3996  141.9024  154.0806 C   0  0  0  0  0  0  0  0  0  0  0  0
  148.8022  140.6194  154.8139 C   0  0  1  0  0  0  0  0  0  0  0  0
  147.9535  139.4137  154.3824 C   0  0  0  0  0  0  0  0  0  0  0  0
  148.4378  138.2202  155.0567 N   0  0  0  0  0  0  0  0  0  0  0  0
  147.6478  137.1383  154.8998 C   0  0  0  0  0  0  0  0  0  0  0  0
  147.7807  136.1423  155.8089 N   0  0  0  0  0  0  0  0  0  0  0  0
  147.0344  135.0388  155.7026 C   0  0  0  0  0  0  0  0  0  0  0  0
  146.1180  134.7354  154.7802 N   0  0  0  0  0  0  0  0  0  0  0  0
  145.9847  135.7372  153.8637 C   0  0  0  0  0  0  0  0  0  0  0  0
  146.7003  136.9672  153.8515 C   0  0  0  0  0  0  0  0  0  0  0  0
  146.2923  137.7428  152.7731 N   0  0  0  0  0  0  0  0  0  0  0  0
  145.3897  137.0110  152.1791 C   0  0  0  0  0  0  0  0  0  0  0  0
  145.1513  135.7854  152.7598 N   0  0  0  0  0  0  0  0  0  0  0  0
  144.2159  134.7693  152.3030 C   0  0  0  0  0  0  0  0  0  0  0  0
  144.5917  134.1627  150.9305 C   0  0  2  0  0  0  0  0  0  0  0  0
  144.2832  135.0957  149.9096 O   0  0  0  0  0  0  0  0  0  0  0  0
  143.8812  132.8478  150.6159 C   0  0  0  0  0  0  0  0  0  0  0  0
  144.9210  132.0788  149.8133 C   0  0  0  0  0  0  0  0  0  0  0  0
  146.1267  132.4104  150.4795 O   0  0  0  0  0  0  0  0  0  0  0  0
  146.0842  133.7927  150.8168 C   0  0  0  0  0  0  0  0  0  0  0  0
  149.8455  137.9631  154.7903 C   0  0  0  0  0  0  0  0  0  0  0  0
  150.7143  139.1914  155.1598 C   0  0  2  0  0  0  0  0  0  0  0  0
  152.1410  138.9963  154.6735 C   0  0  0  0  0  0  0  0  0  0  0  0
  152.7613  138.1499  155.7790 C   0  0  0  0  0  0  0  0  0  0  0  0
  152.0828  138.5227  156.9741 O   0  0  0  0  0  0  0  0  0  0  0  0
  150.9456  139.3348  156.6821 C   0  0  1  0  0  0  0  0  0  0  0  0
  151.3115  140.7551  157.1544 C   0  0  0  0  0  0  0  0  0  0  0  0
  150.1794  140.3616  154.5310 O   0  0  0  0  0  0  0  0  0  0  0  0
  147.3563  142.1539  154.2727 H   0  0  0  0  0  0  0  0  0  0  0  0
  148.5272  141.7974  153.0026 H   0  0  0  0  0  0  0  0  0  0  0  0
  149.0102  142.7443  154.4080 H   0  0  0  0  0  0  0  0  0  0  0  0
  148.6677  140.7781  155.8838 H   0  0  0  0  0  0  0  0  0  0  0  0
  146.9052  139.5821  154.6333 H   0  0  0  0  0  0  0  0  0  0  0  0
  148.0122  139.2812  153.3013 H   0  0  0  0  0  0  0  0  0  0  0  0
  147.1963  134.2901  156.4639 H   0  0  0  0  0  0  0  0  0  0  0  0
  144.8749  137.3457  151.2904 H   0  0  0  0  0  0  0  0  0  0  0  0
  144.1588  133.9860  153.0603 H   0  0  0  0  0  0  0  0  0  0  0  0
  143.2235  135.2199  152.2548 H   0  0  0  0  0  0  0  0  0  0  0  0
  145.0072  135.1278  149.3032 H   0  0  0  0  0  0  0  0  0  0  0  0
  143.6790  132.2983  151.5361 H   0  0  0  0  0  0  0  0  0  0  0  0
  142.9343  132.9714  150.0882 H   0  0  0  0  0  0  0  0  0  0  0  0
  144.7434  131.0031  149.8115 H   0  0  0  0  0  0  0  0  0  0  0  0
  144.9591  132.4278  148.7803 H   0  0  0  0  0  0  0  0  0  0  0  0
  146.5907  134.3679  150.0397 H   0  0  0  0  0  0  0  0  0  0  0  0
  146.6282  133.9550  151.7479 H   0  0  0  0  0  0  0  0  0  0  0  0
  150.1694  137.0805  155.3438 H   0  0  0  0  0  0  0  0  0  0  0  0
  149.9691  137.7360  153.7307 H   0  0  0  0  0  0  0  0  0  0  0  0
  152.2094  138.5298  153.6902 H   0  0  0  0  0  0  0  0  0  0  0  0
  152.6549  139.9567  154.6166 H   0  0  0  0  0  0  0  0  0  0  0  0
  152.5885  137.0890  155.5943 H   0  0  0  0  0  0  0  0  0  0  0  0
  153.8366  138.3060  155.8668 H   0  0  0  0  0  0  0  0  0  0  0  0
  150.0835  138.9829  157.2499 H   0  0  0  0  0  0  0  0  0  0  0  0
  150.4983  141.4618  156.9983 H   0  0  0  0  0  0  0  0  0  0  0  0
  152.1876  141.1417  156.6342 H   0  0  0  0  0  0  0  0  0  0  0  0
  151.5373  140.7569  158.2210 H   0  0  0  0  0  0  0  0  0  0  0  0
  1  2  1  0  0  0  0
  1 29  1  0  0  0  0
  1 30  1  0  0  0  0
  1 31  1  0  0  0  0
  2 28  1  0  0  0  0
  2  3  1  0  0  0  0
  2 32  1  0  0  0  0
  3  4  1  0  0  0  0
  3 33  1  0  0  0  0
  3 34  1  0  0  0  0
  4  5  1  0  0  0  0
  4 21  1  0  0  0  0
  5 10  1  0  0  0  0
  5  6  2  0  0  0  0
  6  7  1  0  0  0  0
  7  8  2  0  0  0  0
  7 35  1  0  0  0  0
  8  9  1  0  0  0  0
  9 13  1  0  0  0  0
  9 10  2  0  0  0  0
 10 11  1  0  0  0  0
 11 12  2  0  0  0  0
 12 13  1  0  0  0  0
 12 36  1  0  0  0  0
 13 14  1  0  0  0  0
 14 15  1  0  0  0  0
 14 37  1  0  0  0  0
 14 38  1  0  0  0  0
 15 20  1  0  0  0  0
 15 16  1  0  0  0  0
 15 17  1  0  0  0  0
 16 39  1  0  0  0  0
 17 18  1  0  0  0  0
 17 40  1  0  0  0  0
 17 41  1  0  0  0  0
 18 19  1  0  0  0  0
 18 42  1  0  0  0  0
 18 43  1  0  0  0  0
 19 20  1  0  0  0  0
 20 44  1  0  0  0  0
 20 45  1  0  0  0  0
 21 22  1  0  0  0  0
 21 46  1  0  0  0  0
 21 47  1  0  0  0  0
 22 26  1  0  0  0  0
 22 23  1  0  0  0  0
 22 28  1  0  0  0  0
 23 24  1  0  0  0  0
 23 48  1  0  0  0  0
 23 49  1  0  0  0  0
 24 25  1  0  0  0  0
 24 50  1  0  0  0  0
 24 51  1  0  0  0  0
 25 26  1  0  0  0  0
 26 27  1  0  0  0  0
 26 52  1  0  0  0  0
 27 53  1  0  0  0  0
 27 54  1  0  0  0  0
 27 55  1  0  0  0  0
M  END
> <s_m_source_file>
AV-unprocessed.smi

> <i_m_source_file_index>
281

> <i_lp_mmshare_version>
43012

> <i_f3d_flags>
0

> <s_epik_input>
W0NIM11bQ0BASF0xT1tDSDJdW0NIMl1bQ0BAXTEyW0NIMl1OKFtDSDJdW0NASF0oTzIpW0NIM10pYyhuW2NIXW4zKWMoYzM0KW5bY0hdbjRbQ0gyXVtDQEBdNShbT0hdKVtDSDJdW0NIMl1PW0NIMl01

> <s_epik_cmdline>
J2VwaWtfcHl0aG9uJywgJy1waCcsICc3LjAnLCAnLXRuJywgJzgnLCAnLW1hJywgJzIwMCcsICctbWV0YWxfYmluZGluZycsICctaW1hZScsICc8aW5maWxlLm1hZT4nLCAnLW9tYWUnLCAnPG91dGZpbGUubWFlPic=

> <r_lp_tautomer_probability>
1

> <r_epik_Ionization_Penalty>
0.00571331

> <r_epik_Ionization_Penalty_Charging>
0

> <r_epik_Ionization_Penalty_Neutral>
0.00571331

> <r_epik_State_Penalty>
0.00399586

> <r_epik_Charging_Adjusted_Penalty>
0.00399586

> <i_epik_Tot_Q>
0

> <i_epik_Tot_abs_Q>
0

> <r_epik_Metal_State_Penalty>
-0

> <b_epik_Metal_Only>
0

> <s_lp_Force_Field>
OPLS_2005

> <r_lp_Energy>
57.1517

> <b_lp_Chiralities_Consistent>
1

> <s_lp_Variant>
AV-unprocessed.smi:281-4

> <Gold.Version>
5.8.1

> <Gold.Id.Protein>
6NUR|6NUR_protein|mol2

> <Gold.PLP.Fitness>
43.7587

> <Gold.PLP.PLP>
-35.8268

> <Gold.PLP.part.hbond>
-2.0000

> <Gold.PLP.part.metal>
0.0000

> <Gold.PLP.part.buried>
-3.6866

> <Gold.PLP.part.nonpolar>
-30.8529

> <Gold.PLP.part.repulsive>
0.7064

> <Gold.PLP.ligand.clash>
0.0000

> <Gold.PLP.ligand.torsion>
0.5840

> <Gold.PLP.Chemscore.Hbond>
1.9920

> <Gold.PLP.Chemscore.CHOScore>
1.0000

> <Gold.PLP.Chemscore.Metal>
0.0000

> <Gold.Chemscore.Hbonds>
donor molecule, donor type, donor heavy atom, donor atom, acceptor molecule, acceptor atom, score
      L1  H    16    39       P1  7921  0.99
      P1  H  7989  7998       L1    28  0.99
      L1  C    12    36       P1 10171  1.00

> <Gold.PLP.Chemscore.Internal.Correction>
0.1238

> <Gold.Rescore>
     Score         DG    S(hbond)    S(metal)    S(lipo)     H(rot)  DE(clash)    DE(int)     intcor
     14.06     -16.91       1.85        0.00      90.74       2.09       1.01       1.84       ----

> <Gold.Chemscore.Fitness>
14.0571

> <Gold.Chemscore.DG>
-16.9103

> <Gold.Chemscore.ZeroCoef>
-5.4800

> <Gold.Chemscore.Hbond>
1.8476

> <Gold.Chemscore.Metal>
0.0000

> <Gold.Chemscore.Lipo>
90.7414

> <Gold.Chemscore.Internal_Hbond>
0.0000

> <Gold.Chemscore.DEClash>
1.0087

> <Gold.Chemscore.DEInternal>
1.8445

> <Gold.Chemscore.Rot>
2.0927

> <Gold.Chemscore.Internal.Correction>
   9.000000E+99

> <Gold.Chemscore.Hbonds>
donor molecule, donor type, donor heavy atom, donor atom, acceptor molecule, acceptor atom, score
      L1  H    16    39       P1  7921  0.92
      P1  H  7989  7998       L1    28  0.28

> <Gold.Chemscore.Hbond.Weighted>
-6.1709

> <Gold.Chemscore.Metal.Weighted>
-0.0000

> <Gold.Chemscore.Lipo.Weighted>
-10.6167

> <Gold.Chemscore.Internal_Hbond.Weighted>
0.0000

> <Gold.Chemscore.DEClash.Weighted>
1.0087

> <Gold.Chemscore.DEInternal.Weighted>
1.8445

> <Gold.Chemscore.Rot.Weighted>
5.3573

> <Gold.Chemscore.Internal.Correction.Weighted>
   9.000000E+99

> <Gold.Protein.RotatedTorsions>
[ 6907 6896 6895 6894 ] final   -7.53 input  -60.11 | X-H torsion
[ 7974 7965 7964 7962 ] final -168.95 input  175.53 | X-H torsion
[ 8008 7997 7996 7995 ] final  -86.80 input   59.86 | X-H torsion
[ 10167 10162 10161 10158 ] final   68.43 input  -65.29 | X-H torsion
[ 10718 10713 10712 10709 ] final -144.48 input   66.30 | X-H torsion
[ 10763 10752 10751 10750 ] final   62.23 input  -60.55 | X-H torsion
[ 11005 11000 10999 10996 ] final   78.97 input  -57.11 | X-H torsion

> <Gold.Protein.ActiveResidues>
 VAL166  LYS551  ARG553  GLY616  TRP617  ASP618  TYR619  PRO620  LYS621  CYS622 
 ASP623  PHE694  ASN695  SER759  ASP760  ASP761  ALA762  ILE779  LEU786  VAL792 
 PHE793  MET794  SER795  GLU796  ALA797  LYS798  CYS799  TRP800  GLU811  SER814 

> <Gold.Protein.RotatedAtoms>
  151.4481  135.1027  159.9689 H   0  0  0  0  0  0  0  0  0  0  0  0  # atno 6907 bound_to 6896
  152.4898  133.8466  159.7190 H   0  0  0  0  0  0  0  0  0  0  0  0  # atno 6908 bound_to 6896
  150.9041  133.7021  159.2898 H   0  0  0  0  0  0  0  0  0  0  0  0  # atno 6909 bound_to 6896
  144.7194  140.2294  143.6306 H   0  0  0  0  0  0  0  0  0  0  0  0  # atno 7974 bound_to 7965
  154.6560  140.0574  157.0009 H   0  0  0  0  0  0  0  0  0  0  0  0  # atno 8008 bound_to 7997
  155.1299  140.3255  155.4458 H   0  0  0  0  0  0  0  0  0  0  0  0  # atno 8009 bound_to 7997
  156.2597  140.1982  156.6419 H   0  0  0  0  0  0  0  0  0  0  0  0  # atno 8010 bound_to 7997
  140.0787  144.5089  150.7177 H   0  0  0  0  0  0  0  0  0  0  0  0  # atno 10167 bound_to 10162
  156.3706  130.7786  151.1966 H   0  0  0  0  0  0  0  0  0  0  0  0  # atno 10718 bound_to 10713
  152.9976  135.5472  154.6159 H   0  0  0  0  0  0  0  0  0  0  0  0  # atno 10763 bound_to 10752
  154.5470  135.2824  155.1046 H   0  0  0  0  0  0  0  0  0  0  0  0  # atno 10764 bound_to 10752
  154.2301  135.6435  153.5225 H   0  0  0  0  0  0  0  0  0  0  0  0  # atno 10765 bound_to 10752
  139.9191  134.7805  156.1718 H   0  0  0  0  0  0  0  0  0  0  0  0  # atno 11005 bound_to 11000
  145.8425  139.2136  143.1819 LP  0  0  0  0  0  0  0  0  0  0  0  0  # atno 17320 bound_to 7965
  146.0333  140.8236  142.9865 LP  0  0  0  0  0  0  0  0  0  0  0  0  # atno 17321 bound_to 7965
  140.7089  143.2489  151.4643 LP  0  0  0  0  0  0  0  0  0  0  0  0  # atno 17342 bound_to 10162
  139.5792  144.1748  152.1945 LP  0  0  0  0  0  0  0  0  0  0  0  0  # atno 17343 bound_to 10162
  157.7483  131.0373  150.4450 LP  0  0  0  0  0  0  0  0  0  0  0  0  # atno 17370 bound_to 10713
  156.4677  130.4046  149.6537 LP  0  0  0  0  0  0  0  0  0  0  0  0  # atno 17371 bound_to 10713
  141.0696  133.6803  156.2113 LP  0  0  0  0  0  0  0  0  0  0  0  0  # atno 17394 bound_to 11000
  140.6529  134.5048  157.5578 LP  0  0  0  0  0  0  0  0  0  0  0  0  # atno 17395 bound_to 11000

$$$$
