AV-unprocessed.smi:246|AV-procd|sdf|1884|dock9
  -GOLD-   2262020533D 1   1.00000     0.00000
 Structure written by MMmdl.
 57 60  0  0  0  0  0  0  0  0  1 V2000
  153.2692  142.6864  161.7260 C   0  0  0  0  0  0  0  0  0  0  0  0
  153.4747  142.2084  160.2818 C   0  0  0  0  0  0  0  0  0  0  0  0
  152.3753  142.5529  159.4507 O   0  0  0  0  0  0  0  0  0  0  0  0
  152.4472  142.0199  158.1363 C   0  0  0  0  0  0  0  0  0  0  0  0
  151.1932  142.4374  157.3630 C   0  0  0  0  0  0  0  0  0  0  0  0
  150.2279  141.4022  157.4679 O   0  0  0  0  0  0  0  0  0  0  0  0
  149.1081  141.5708  156.6115 C   0  0  1  0  0  0  0  0  0  0  0  0
  149.4554  141.4570  155.1245 C   0  0  0  0  0  0  0  0  0  0  0  0
  148.1502  140.9831  154.4797 C   0  0  0  0  0  0  0  0  0  0  0  0
  147.4107  140.3091  155.5417 N   0  0  0  0  0  0  0  0  0  0  0  0
  146.5272  139.3090  155.2822 C   0  0  0  0  0  0  0  0  0  0  0  0
  145.7968  138.8128  156.3163 N   0  0  0  0  0  0  0  0  0  0  0  0
  144.9102  137.8338  156.1177 C   0  0  0  0  0  0  0  0  0  0  0  0
  144.5987  137.2097  154.9817 N   0  0  0  0  0  0  0  0  0  0  0  0
  145.3322  137.6915  153.9389 C   0  0  0  0  0  0  0  0  0  0  0  0
  146.3119  138.7256  153.9968 C   0  0  0  0  0  0  0  0  0  0  0  0
  146.8457  138.9272  152.7274 N   0  0  0  0  0  0  0  0  0  0  0  0
  146.2150  138.0747  151.9678 C   0  0  0  0  0  0  0  0  0  0  0  0
  145.2811  137.2990  152.6138 N   0  0  0  0  0  0  0  0  0  0  0  0
  144.4260  136.2888  152.0182 C   0  0  0  0  0  0  0  0  0  0  0  0
  145.1068  135.5274  150.8606 C   0  0  2  0  0  0  0  0  0  0  0  0
  144.3756  135.8111  149.6845 O   0  0  0  0  0  0  0  0  0  0  0  0
  145.1751  133.9958  151.0559 C   0  0  1  0  0  0  0  0  0  0  0  0
  143.8195  133.2863  150.9962 C   0  0  0  0  0  0  0  0  0  0  0  0
  144.1645  131.8687  150.5653 C   0  0  0  0  0  0  0  0  0  0  0  0
  145.6082  131.9728  150.0703 C   0  0  0  0  0  0  0  0  0  0  0  0
  145.8594  133.3667  149.9823 O   0  0  0  0  0  0  0  0  0  0  0  0
  148.1114  140.4288  156.8106 C   0  0  0  0  0  0  0  0  0  0  0  0
  148.6052  142.5199  156.8070 H   0  0  0  0  0  0  0  0  0  0  0  0
  154.0771  142.3331  162.3669 H   0  0  0  0  0  0  0  0  0  0  0  0
  152.3322  142.3065  162.1335 H   0  0  0  0  0  0  0  0  0  0  0  0
  153.2503  143.7732  161.7962 H   0  0  0  0  0  0  0  0  0  0  0  0
  154.4105  142.5889  159.8704 H   0  0  0  0  0  0  0  0  0  0  0  0
  153.5566  141.1213  160.2814 H   0  0  0  0  0  0  0  0  0  0  0  0
  153.3398  142.3579  157.6102 H   0  0  0  0  0  0  0  0  0  0  0  0
  152.4925  140.9315  158.1933 H   0  0  0  0  0  0  0  0  0  0  0  0
  150.7872  143.3526  157.7963 H   0  0  0  0  0  0  0  0  0  0  0  0
  151.4424  142.6486  156.3225 H   0  0  0  0  0  0  0  0  0  0  0  0
  149.8234  142.3894  154.6958 H   0  0  0  0  0  0  0  0  0  0  0  0
  150.2247  140.6960  154.9852 H   0  0  0  0  0  0  0  0  0  0  0  0
  147.5625  141.8317  154.1281 H   0  0  0  0  0  0  0  0  0  0  0  0
  148.3550  140.3327  153.6283 H   0  0  0  0  0  0  0  0  0  0  0  0
  144.3731  137.5040  156.9947 H   0  0  0  0  0  0  0  0  0  0  0  0
  146.4065  137.9975  150.9077 H   0  0  0  0  0  0  0  0  0  0  0  0
  144.1207  135.5922  152.8004 H   0  0  0  0  0  0  0  0  0  0  0  0
  143.5178  136.7794  151.6660 H   0  0  0  0  0  0  0  0  0  0  0  0
  146.1167  135.9138  150.7174 H   0  0  0  0  0  0  0  0  0  0  0  0
  144.8948  135.5525  148.9386 H   0  0  0  0  0  0  0  0  0  0  0  0
  145.6798  133.7525  151.9931 H   0  0  0  0  0  0  0  0  0  0  0  0
  143.2859  133.3201  151.9464 H   0  0  0  0  0  0  0  0  0  0  0  0
  143.1853  133.7505  150.2395 H   0  0  0  0  0  0  0  0  0  0  0  0
  144.0909  131.1657  151.3957 H   0  0  0  0  0  0  0  0  0  0  0  0
  143.4921  131.5298  149.7765 H   0  0  0  0  0  0  0  0  0  0  0  0
  146.2956  131.5297  150.7923 H   0  0  0  0  0  0  0  0  0  0  0  0
  145.7610  131.4829  149.1084 H   0  0  0  0  0  0  0  0  0  0  0  0
  148.6349  139.4945  157.0189 H   0  0  0  0  0  0  0  0  0  0  0  0
  147.4301  140.6384  157.6357 H   0  0  0  0  0  0  0  0  0  0  0  0
  1  2  1  0  0  0  0
  1 30  1  0  0  0  0
  1 31  1  0  0  0  0
  1 32  1  0  0  0  0
  2  3  1  0  0  0  0
  2 33  1  0  0  0  0
  2 34  1  0  0  0  0
  3  4  1  0  0  0  0
  4  5  1  0  0  0  0
  4 35  1  0  0  0  0
  4 36  1  0  0  0  0
  5  6  1  0  0  0  0
  5 37  1  0  0  0  0
  5 38  1  0  0  0  0
  6  7  1  0  0  0  0
  7 29  1  0  0  0  0
  7 28  1  0  0  0  0
  7  8  1  0  0  0  0
  8  9  1  0  0  0  0
  8 39  1  0  0  0  0
  8 40  1  0  0  0  0
  9 10  1  0  0  0  0
  9 41  1  0  0  0  0
  9 42  1  0  0  0  0
 10 11  1  0  0  0  0
 10 28  1  0  0  0  0
 11 16  1  0  0  0  0
 11 12  2  0  0  0  0
 12 13  1  0  0  0  0
 13 14  2  0  0  0  0
 13 43  1  0  0  0  0
 14 15  1  0  0  0  0
 15 19  1  0  0  0  0
 15 16  2  0  0  0  0
 16 17  1  0  0  0  0
 17 18  2  0  0  0  0
 18 19  1  0  0  0  0
 18 44  1  0  0  0  0
 19 20  1  0  0  0  0
 20 21  1  0  0  0  0
 20 45  1  0  0  0  0
 20 46  1  0  0  0  0
 21 22  1  0  0  0  0
 21 23  1  0  0  0  0
 21 47  1  0  0  0  0
 22 48  1  0  0  0  0
 23 27  1  0  0  0  0
 23 24  1  0  0  0  0
 23 49  1  0  0  0  0
 24 25  1  0  0  0  0
 24 50  1  0  0  0  0
 24 51  1  0  0  0  0
 25 26  1  0  0  0  0
 25 52  1  0  0  0  0
 25 53  1  0  0  0  0
 26 27  1  0  0  0  0
 26 54  1  0  0  0  0
 26 55  1  0  0  0  0
 28 56  1  0  0  0  0
 28 57  1  0  0  0  0
M  END
> <s_m_source_file>
AV-unprocessed.smi

> <i_m_source_file_index>
246

> <i_lp_mmshare_version>
43012

> <i_f3d_flags>
0

> <s_epik_input>
W0NIM11bQ0gyXU9bQ0gyXVtDSDJdT1tDQEhdMVtDSDJdW0NIMl1OKFtDSDJdMSljKG5bY0hdbjIpYyhjMjMpbltjSF1uM1tDSDJdW0NASF0oW09IXSlbQ0BASF00W0NIMl1bQ0gyXVtDSDJdTzQ=

> <s_epik_cmdline>
J2VwaWtfcHl0aG9uJywgJy1waCcsICc3LjAnLCAnLXRuJywgJzgnLCAnLW1hJywgJzIwMCcsICctbWV0YWxfYmluZGluZycsICctaW1hZScsICc8aW5maWxlLm1hZT4nLCAnLW9tYWUnLCAnPG91dGZpbGUubWFlPic=

> <r_lp_tautomer_probability>
1

> <r_epik_Ionization_Penalty>
0.0024631

> <r_epik_Ionization_Penalty_Charging>
0

> <r_epik_Ionization_Penalty_Neutral>
0.0024631

> <r_epik_State_Penalty>
0.00162428

> <r_epik_Charging_Adjusted_Penalty>
0.00162428

> <i_epik_Tot_Q>
0

> <i_epik_Tot_abs_Q>
0

> <r_epik_Metal_State_Penalty>
-0

> <b_epik_Metal_Only>
0

> <s_lp_Force_Field>
OPLS_2005

> <r_lp_Energy>
49.6926

> <b_lp_Chiralities_Consistent>
1

> <s_lp_Variant>
AV-unprocessed.smi:246-5

> <Gold.Version>
5.8.1

> <Gold.Id.Protein>
6NUR|6NUR_protein|mol2

> <Gold.PLP.Fitness>
46.6401

> <Gold.PLP.PLP>
-46.3398

> <Gold.PLP.part.hbond>
-2.0000

> <Gold.PLP.part.metal>
0.0000

> <Gold.PLP.part.buried>
-8.2764

> <Gold.PLP.part.nonpolar>
-37.8894

> <Gold.PLP.part.repulsive>
1.0528

> <Gold.PLP.ligand.clash>
0.0000

> <Gold.PLP.ligand.torsion>
1.6375

> <Gold.PLP.Chemscore.Hbond>
1.0000

> <Gold.PLP.Chemscore.CHOScore>
0.0000

> <Gold.PLP.Chemscore.Metal>
0.0000

> <Gold.Chemscore.Hbonds>
donor molecule, donor type, donor heavy atom, donor atom, acceptor molecule, acceptor atom, score
      L1  H    22    48       P1  7921  1.00
      L1  C    18    44       P1 10171  0.13

> <Gold.PLP.Chemscore.Internal.Correction>
0.5754

> <Gold.Rescore>
     Score         DG    S(hbond)    S(metal)    S(lipo)     H(rot)  DE(clash)    DE(int)     intcor
     10.80     -13.49       1.00        0.00     107.81       3.10       0.01       2.67       ----

> <Gold.Chemscore.Fitness>
10.8021

> <Gold.Chemscore.DG>
-13.4910

> <Gold.Chemscore.ZeroCoef>
-5.4800

> <Gold.Chemscore.Hbond>
1.0000

> <Gold.Chemscore.Metal>
0.0000

> <Gold.Chemscore.Lipo>
107.8085

> <Gold.Chemscore.Internal_Hbond>
0.0000

> <Gold.Chemscore.DEClash>
0.0147

> <Gold.Chemscore.DEInternal>
2.6741

> <Gold.Chemscore.Rot>
3.1026

> <Gold.Chemscore.Internal.Correction>
   9.000000E+99

> <Gold.Chemscore.Hbonds>
donor molecule, donor type, donor heavy atom, donor atom, acceptor molecule, acceptor atom, score
      L1  H    22    48       P1  7921  0.99

> <Gold.Chemscore.Hbond.Weighted>
-3.3400

> <Gold.Chemscore.Metal.Weighted>
-0.0000

> <Gold.Chemscore.Lipo.Weighted>
-12.6136

> <Gold.Chemscore.Internal_Hbond.Weighted>
0.0000

> <Gold.Chemscore.DEClash.Weighted>
0.0147

> <Gold.Chemscore.DEInternal.Weighted>
2.6741

> <Gold.Chemscore.Rot.Weighted>
7.9426

> <Gold.Chemscore.Internal.Correction.Weighted>
   9.000000E+99

> <Gold.Protein.RotatedTorsions>
[ 6907 6896 6895 6894 ] final   61.20 input  -60.11 | X-H torsion
[ 7974 7965 7964 7962 ] final   79.22 input  175.53 | X-H torsion
[ 8008 7997 7996 7995 ] final  -26.51 input   59.86 | X-H torsion
[ 10167 10162 10161 10158 ] final -129.09 input  -65.29 | X-H torsion
[ 10718 10713 10712 10709 ] final   51.99 input   66.30 | X-H torsion
[ 10763 10752 10751 10750 ] final  165.23 input  -60.55 | X-H torsion
[ 11005 11000 10999 10996 ] final   78.46 input  -57.11 | X-H torsion

> <Gold.Protein.ActiveResidues>
 VAL166  LYS551  ARG553  GLY616  TRP617  ASP618  TYR619  PRO620  LYS621  CYS622 
 ASP623  PHE694  ASN695  SER759  ASP760  ASP761  ALA762  ILE779  LEU786  VAL792 
 PHE793  MET794  SER795  GLU796  ALA797  LYS798  CYS799  TRP800  GLU811  SER814 

> <Gold.Protein.RotatedAtoms>
  152.4068  134.6193  160.0046 H   0  0  0  0  0  0  0  0  0  0  0  0  # atno 6907 bound_to 6896
  151.6382  133.3322  159.3132 H   0  0  0  0  0  0  0  0  0  0  0  0  # atno 6908 bound_to 6896
  150.7962  134.7065  159.6624 H   0  0  0  0  0  0  0  0  0  0  0  0  # atno 6909 bound_to 6896
  145.6671  139.2486  143.1889 H   0  0  0  0  0  0  0  0  0  0  0  0  # atno 7974 bound_to 7965
  154.4421  140.1897  156.0787 H   0  0  0  0  0  0  0  0  0  0  0  0  # atno 8008 bound_to 7997
  156.0455  140.3315  155.7265 H   0  0  0  0  0  0  0  0  0  0  0  0  # atno 8009 bound_to 7997
  155.5635  140.0606  157.2814 H   0  0  0  0  0  0  0  0  0  0  0  0  # atno 8010 bound_to 7997
  139.9435  143.6136  152.2497 H   0  0  0  0  0  0  0  0  0  0  0  0  # atno 10167 bound_to 10162
  157.5033  130.8452  149.8343 H   0  0  0  0  0  0  0  0  0  0  0  0  # atno 10718 bound_to 10713
  154.3209  135.2756  155.2520 H   0  0  0  0  0  0  0  0  0  0  0  0  # atno 10763 bound_to 10752
  154.4874  135.5842  153.6437 H   0  0  0  0  0  0  0  0  0  0  0  0  # atno 10764 bound_to 10752
  152.9877  135.6126  154.3393 H   0  0  0  0  0  0  0  0  0  0  0  0  # atno 10765 bound_to 10752
  139.9212  134.7765  156.1652 H   0  0  0  0  0  0  0  0  0  0  0  0  # atno 11005 bound_to 11000
  146.1077  140.7467  142.9518 LP  0  0  0  0  0  0  0  0  0  0  0  0  # atno 17320 bound_to 7965
  144.7069  140.3888  143.7111 LP  0  0  0  0  0  0  0  0  0  0  0  0  # atno 17321 bound_to 7965
  139.6686  144.7661  151.1827 LP  0  0  0  0  0  0  0  0  0  0  0  0  # atno 17342 bound_to 10162
  140.7604  143.5900  150.8806 LP  0  0  0  0  0  0  0  0  0  0  0  0  # atno 17343 bound_to 10162
  156.0242  130.3785  150.1871 LP  0  0  0  0  0  0  0  0  0  0  0  0  # atno 17370 bound_to 10713
  157.0060  130.9937  151.3378 LP  0  0  0  0  0  0  0  0  0  0  0  0  # atno 17371 bound_to 10713
  141.0734  133.6786  156.2186 LP  0  0  0  0  0  0  0  0  0  0  0  0  # atno 17394 bound_to 11000
  140.6469  134.5107  157.5574 LP  0  0  0  0  0  0  0  0  0  0  0  0  # atno 17395 bound_to 11000

$$$$
