AV-unprocessed.smi:3350|AV-procd|sdf|12943|dock2
  -GOLD-   2272019373D 1   1.00000     0.00000
 Structure written by MMmdl.
 41 42  0  0  0  0  0  0  0  0  1 V2000
  146.0230  134.0443  153.2157 C   0  0  0  0  0  0  0  0  0  0  0  0
  145.6116  135.4345  152.7121 C   0  0  2  0  0  0  0  0  0  0  0  0
  145.2306  135.4010  151.2155 C   0  0  0  0  0  0  0  0  0  0  0  0
  145.1645  134.0515  150.6815 N   0  0  0  0  0  0  0  0  0  0  0  0
  144.0473  133.2902  150.4063 C   0  0  0  0  0  0  0  0  0  0  0  0
  144.4829  132.0843  149.9373 C   0  0  0  0  0  0  0  0  0  0  0  0
  145.9003  132.2053  149.9606 C   0  0  0  0  0  0  0  0  0  0  0  0
  146.3052  133.3852  150.4021 N   0  0  0  0  0  0  0  0  0  0  0  0
  146.7127  136.3688  152.9432 N   0  0  0  0  0  0  0  0  0  0  0  0
  146.6339  137.5075  153.6465 C   0  0  0  0  0  0  0  0  0  0  0  0
  145.6262  137.8781  154.2488 O   0  0  0  0  0  0  0  0  0  0  0  0
  147.7773  138.2066  153.5786 N   0  0  0  0  0  0  0  0  0  0  0  0
  148.0305  139.5449  154.1170 C   0  0  2  0  0  0  0  0  0  0  0  0
  147.3635  140.6306  153.2516 C   0  0  0  0  0  0  0  0  0  0  0  0
  149.5400  139.7925  154.3427 C   0  0  1  0  0  0  0  0  0  0  0  0
  149.8676  141.0777  155.1064 C   0  0  0  0  0  0  0  0  0  0  0  0
  151.1844  140.7663  155.8038 C   0  0  0  0  0  0  0  0  0  0  0  0
  151.3693  139.2611  155.6019 C   0  0  0  0  0  0  0  0  0  0  0  0
  150.0947  138.7943  155.1868 O   0  0  0  0  0  0  0  0  0  0  0  0
  145.2142  133.3249  153.0839 H   0  0  0  0  0  0  0  0  0  0  0  0
  146.2698  134.0684  154.2777 H   0  0  0  0  0  0  0  0  0  0  0  0
  146.8941  133.6673  152.6784 H   0  0  0  0  0  0  0  0  0  0  0  0
  144.7384  135.7403  153.2913 H   0  0  0  0  0  0  0  0  0  0  0  0
  144.2683  135.8887  151.0538 H   0  0  0  0  0  0  0  0  0  0  0  0
  145.9624  135.9591  150.6297 H   0  0  0  0  0  0  0  0  0  0  0  0
  143.0473  133.6622  150.5739 H   0  0  0  0  0  0  0  0  0  0  0  0
  143.8813  131.2431  149.6272 H   0  0  0  0  0  0  0  0  0  0  0  0
  146.6421  131.4760  149.6703 H   0  0  0  0  0  0  0  0  0  0  0  0
  147.5884  136.1556  152.4886 H   0  0  0  0  0  0  0  0  0  0  0  0
  148.5352  137.7964  153.0529 H   0  0  0  0  0  0  0  0  0  0  0  0
  147.5412  139.5593  155.0916 H   0  0  0  0  0  0  0  0  0  0  0  0
  147.4290  141.6088  153.7284 H   0  0  0  0  0  0  0  0  0  0  0  0
  146.3059  140.4149  153.0975 H   0  0  0  0  0  0  0  0  0  0  0  0
  147.8329  140.7141  152.2712 H   0  0  0  0  0  0  0  0  0  0  0  0
  150.0837  139.7898  153.3962 H   0  0  0  0  0  0  0  0  0  0  0  0
  149.9336  141.9455  154.4495 H   0  0  0  0  0  0  0  0  0  0  0  0
  149.1006  141.2825  155.8548 H   0  0  0  0  0  0  0  0  0  0  0  0
  152.0166  141.3227  155.3717 H   0  0  0  0  0  0  0  0  0  0  0  0
  151.1241  141.0198  156.8629 H   0  0  0  0  0  0  0  0  0  0  0  0
  152.0966  139.0679  154.8125 H   0  0  0  0  0  0  0  0  0  0  0  0
  151.7044  138.7521  156.5058 H   0  0  0  0  0  0  0  0  0  0  0  0
  1  2  1  0  0  0  0
  1 20  1  0  0  0  0
  1 21  1  0  0  0  0
  1 22  1  0  0  0  0
  2  3  1  0  0  0  0
  2  9  1  0  0  0  0
  2 23  1  0  0  0  0
  3  4  1  0  0  0  0
  3 24  1  0  0  0  0
  3 25  1  0  0  0  0
  4  8  1  0  0  0  0
  4  5  1  0  0  0  0
  5  6  2  0  0  0  0
  5 26  1  0  0  0  0
  6  7  1  0  0  0  0
  6 27  1  0  0  0  0
  7  8  2  0  0  0  0
  7 28  1  0  0  0  0
  9 10  1  0  0  0  0
  9 29  1  0  0  0  0
 10 11  2  0  0  0  0
 10 12  1  0  0  0  0
 12 13  1  0  0  0  0
 12 30  1  0  0  0  0
 13 14  1  0  0  0  0
 13 15  1  0  0  0  0
 13 31  1  0  0  0  0
 14 32  1  0  0  0  0
 14 33  1  0  0  0  0
 14 34  1  0  0  0  0
 15 19  1  0  0  0  0
 15 16  1  0  0  0  0
 15 35  1  0  0  0  0
 16 17  1  0  0  0  0
 16 36  1  0  0  0  0
 16 37  1  0  0  0  0
 17 18  1  0  0  0  0
 17 38  1  0  0  0  0
 17 39  1  0  0  0  0
 18 19  1  0  0  0  0
 18 40  1  0  0  0  0
 18 41  1  0  0  0  0
M  END
> <s_m_source_file>
AV-unprocessed.smi

> <i_m_source_file_index>
3350

> <i_lp_mmshare_version>
43012

> <i_f3d_flags>
0

> <s_epik_input>
bjFbY0hdW2NIXVtjSF1uMVtDSDJdW0NAQEhdKFtDSDNdKVtOSF1DKD1PKVtOSF1bQ0BIXShbQ0gzXSlbQ0BASF0yW0NIMl1bQ0gyXVtDSDJdTzI=

> <s_epik_cmdline>
J2VwaWtfcHl0aG9uJywgJy1waCcsICc3LjAnLCAnLXRuJywgJzgnLCAnLW1hJywgJzIwMCcsICctbWV0YWxfYmluZGluZycsICctaW1hZScsICc8aW5maWxlLm1hZT4nLCAnLW9tYWUnLCAnPG91dGZpbGUubWFlPic=

> <r_lp_tautomer_probability>
1

> <r_epik_Ionization_Penalty>
6.42349e-05

> <r_epik_Ionization_Penalty_Charging>
0

> <r_epik_Ionization_Penalty_Neutral>
6.42349e-05

> <r_epik_State_Penalty>
-0

> <r_epik_Charging_Adjusted_Penalty>
0

> <i_epik_Tot_Q>
0

> <i_epik_Tot_abs_Q>
0

> <r_epik_Metal_State_Penalty>
-0

> <b_epik_Metal_Only>
0

> <s_lp_Force_Field>
OPLS_2005

> <r_lp_Energy>
15.1483

> <b_lp_Chiralities_Consistent>
1

> <s_lp_Variant>
AV-unprocessed.smi:3350-5

> <Gold.Version>
5.8.1

> <Gold.Id.Protein>
6NUR|6NUR_protein|mol2

> <Gold.PLP.Fitness>
42.8134

> <Gold.PLP.PLP>
-33.5674

> <Gold.PLP.part.hbond>
-1.9912

> <Gold.PLP.part.metal>
0.0000

> <Gold.PLP.part.buried>
-3.8867

> <Gold.PLP.part.nonpolar>
-29.3845

> <Gold.PLP.part.repulsive>
0.6494

> <Gold.PLP.ligand.clash>
0.0000

> <Gold.PLP.ligand.torsion>
1.2374

> <Gold.PLP.Chemscore.Hbond>
1.8640

> <Gold.PLP.Chemscore.CHOScore>
2.0000

> <Gold.PLP.Chemscore.Metal>
0.0000

> <Gold.Chemscore.Hbonds>
donor molecule, donor type, donor heavy atom, donor atom, acceptor molecule, acceptor atom, score
      L1  H     9    29       P1  7948  0.91
      L1  H    12    30       P1  7948  0.85
      L1  C     5    26       P1 10186  1.00
      L1  C     7    28       P1 10747  1.00

> <Gold.PLP.Chemscore.Internal.Correction>
0.1287

> <Gold.Rescore>
     Score         DG    S(hbond)    S(metal)    S(lipo)     H(rot)  DE(clash)    DE(int)     intcor
     14.46     -16.76       1.93        0.00      81.24       1.82       0.04       2.25       ----

> <Gold.Chemscore.Fitness>
14.4619

> <Gold.Chemscore.DG>
-16.7564

> <Gold.Chemscore.ZeroCoef>
-5.4800

> <Gold.Chemscore.Hbond>
1.9251

> <Gold.Chemscore.Metal>
0.0000

> <Gold.Chemscore.Lipo>
81.2371

> <Gold.Chemscore.Internal_Hbond>
0.0000

> <Gold.Chemscore.DEClash>
0.0407

> <Gold.Chemscore.DEInternal>
2.2538

> <Gold.Chemscore.Rot>
1.8197

> <Gold.Chemscore.Internal.Correction>
   9.000000E+99

> <Gold.Chemscore.Hbonds>
donor molecule, donor type, donor heavy atom, donor atom, acceptor molecule, acceptor atom, score
      L1  H     9    29       P1  7948  0.87
      L1  H    12    30       P1  7948  0.80

> <Gold.Chemscore.Hbond.Weighted>
-6.4300

> <Gold.Chemscore.Metal.Weighted>
-0.0000

> <Gold.Chemscore.Lipo.Weighted>
-9.5047

> <Gold.Chemscore.Internal_Hbond.Weighted>
0.0000

> <Gold.Chemscore.DEClash.Weighted>
0.0407

> <Gold.Chemscore.DEInternal.Weighted>
2.2538

> <Gold.Chemscore.Rot.Weighted>
4.6583

> <Gold.Chemscore.Internal.Correction.Weighted>
   9.000000E+99

> <Gold.Protein.RotatedTorsions>
[ 6907 6896 6895 6894 ] final -169.93 input  -60.11 | X-H torsion
[ 7974 7965 7964 7962 ] final  -47.85 input  175.53 | X-H torsion
[ 8008 7997 7996 7995 ] final  143.26 input   59.86 | X-H torsion
[ 10167 10162 10161 10158 ] final  -11.81 input  -65.29 | X-H torsion
[ 10718 10713 10712 10709 ] final   28.27 input   66.30 | X-H torsion
[ 10763 10752 10751 10750 ] final  -10.09 input  -60.55 | X-H torsion
[ 11005 11000 10999 10996 ] final   89.02 input  -57.11 | X-H torsion

> <Gold.Protein.ActiveResidues>
 VAL166  LYS551  ARG553  GLY616  TRP617  ASP618  TYR619  PRO620  LYS621  CYS622 
 ASP623  PHE694  ASN695  SER759  ASP760  ASP761  ALA762  ILE779  LEU786  VAL792 
 PHE793  MET794  SER795  GLU796  ALA797  LYS798  CYS799  TRP800  GLU811  SER814 

> <Gold.Protein.RotatedAtoms>
  151.4996  133.3507  159.2866 H   0  0  0  0  0  0  0  0  0  0  0  0  # atno 6907 bound_to 6896
  150.8782  134.8170  159.7216 H   0  0  0  0  0  0  0  0  0  0  0  0  # atno 6908 bound_to 6896
  152.4745  134.4890  159.9741 H   0  0  0  0  0  0  0  0  0  0  0  0  # atno 6909 bound_to 6896
  145.9573  140.7514  142.9475 H   0  0  0  0  0  0  0  0  0  0  0  0  # atno 7974 bound_to 7965
  156.2934  140.2267  156.4861 H   0  0  0  0  0  0  0  0  0  0  0  0  # atno 8008 bound_to 7997
  154.7811  140.0460  157.1149 H   0  0  0  0  0  0  0  0  0  0  0  0  # atno 8009 bound_to 7997
  154.9758  140.3072  155.4971 H   0  0  0  0  0  0  0  0  0  0  0  0  # atno 8010 bound_to 7997
  140.7147  143.5600  150.9206 H   0  0  0  0  0  0  0  0  0  0  0  0  # atno 10167 bound_to 10162
  157.2312  130.7025  149.6314 H   0  0  0  0  0  0  0  0  0  0  0  0  # atno 10718 bound_to 10713
  153.4642  135.7016  153.6032 H   0  0  0  0  0  0  0  0  0  0  0  0  # atno 10763 bound_to 10752
  153.4313  135.3802  155.2172 H   0  0  0  0  0  0  0  0  0  0  0  0  # atno 10764 bound_to 10752
  154.8727  135.3951  154.4071 H   0  0  0  0  0  0  0  0  0  0  0  0  # atno 10765 bound_to 10752
  139.8884  134.8525  156.3083 H   0  0  0  0  0  0  0  0  0  0  0  0  # atno 11005 bound_to 11000
  144.6807  140.2533  143.7329 LP  0  0  0  0  0  0  0  0  0  0  0  0  # atno 17320 bound_to 7965
  145.8089  139.1995  143.2004 LP  0  0  0  0  0  0  0  0  0  0  0  0  # atno 17321 bound_to 7965
  139.9325  143.6476  152.3073 LP  0  0  0  0  0  0  0  0  0  0  0  0  # atno 17342 bound_to 10162
  139.6932  144.7644  151.1402 LP  0  0  0  0  0  0  0  0  0  0  0  0  # atno 17343 bound_to 10162
  155.9675  130.4488  150.5634 LP  0  0  0  0  0  0  0  0  0  0  0  0  # atno 17370 bound_to 10713
  157.3476  131.0728  151.1739 LP  0  0  0  0  0  0  0  0  0  0  0  0  # atno 17371 bound_to 10713
  140.9867  133.7234  156.0752 LP  0  0  0  0  0  0  0  0  0  0  0  0  # atno 17394 bound_to 11000
  140.7679  134.3866  157.5513 LP  0  0  0  0  0  0  0  0  0  0  0  0  # atno 17395 bound_to 11000

$$$$
