AV-unprocessed.smi:24|AV-procd|sdf|176|dock2
  -GOLD-   2262015433D 1   1.00000     0.00000
 Structure written by MMmdl.
 61 65  0  0  0  0  0  0  0  0  1 V2000
  144.3700  142.3042  155.6769 C   0  0  0  0  0  0  0  0  0  0  0  0
  145.4202  142.1506  154.7334 O   0  0  0  0  0  0  0  0  0  0  0  0
  146.7074  142.0267  155.2106 C   0  0  0  0  0  0  0  0  0  0  0  0
  147.7337  141.8754  154.2562 C   0  0  0  0  0  0  0  0  0  0  0  0
  149.0773  141.7431  154.6553 C   0  0  0  0  0  0  0  0  0  0  0  0
  149.4177  141.7548  156.0231 C   0  0  0  0  0  0  0  0  0  0  0  0
  150.8819  141.6204  156.4377 C   0  0  1  0  0  0  0  0  0  0  0  0
  151.2926  142.6941  157.4491 C   0  0  0  0  0  0  0  0  0  0  0  0
  151.7470  141.8637  158.6023 C   0  0  0  0  0  0  0  0  0  0  0  0
  152.2198  142.4771  159.8633 C   0  0  0  0  0  0  0  0  0  0  0  0
  151.9495  143.8414  160.1164 C   0  0  0  0  0  0  0  0  0  0  0  0
  152.3999  144.4262  161.3163 C   0  0  0  0  0  0  0  0  0  0  0  0
  153.1133  143.6550  162.2551 C   0  0  0  0  0  0  0  0  0  0  0  0
  153.3795  142.2952  161.9988 C   0  0  0  0  0  0  0  0  0  0  0  0
  152.9344  141.6991  160.8024 C   0  0  0  0  0  0  0  0  0  0  0  0
  151.6819  140.6015  158.3890 N   0  0  0  0  0  0  0  0  0  0  0  0
  151.2087  140.3714  157.1384 N   0  0  0  0  0  0  0  0  0  0  0  0
  151.1477  139.1407  156.5833 C   0  0  0  0  0  0  0  0  0  0  0  0
  150.8150  138.9727  155.4084 O   0  0  0  0  0  0  0  0  0  0  0  0
  151.5148  137.9249  157.4608 C   0  0  0  0  0  0  0  0  0  0  0  0
  150.4076  136.9565  157.6191 N   0  0  0  0  0  0  0  0  0  0  0  0
  150.4245  135.7722  156.8413 C   0  0  0  0  0  0  0  0  0  0  0  0
  151.3323  135.5476  156.0393 O   0  0  0  0  0  0  0  0  0  0  0  0
  149.3114  134.8566  157.0649 C   0  0  0  0  0  0  0  0  0  0  0  0
  149.2369  133.7154  156.3592 F   0  0  0  0  0  0  0  0  0  0  0  0
  148.3514  135.1365  157.9702 C   0  0  0  0  0  0  0  0  0  0  0  0
  148.3584  136.2881  158.7375 N   0  0  0  0  0  0  0  0  0  0  0  0
  147.2771  136.5856  159.7556 C   0  0  2  0  0  0  0  0  0  0  0  0
  147.8767  136.6852  161.1717 C   0  0  0  0  0  0  0  0  0  0  0  0
  147.0053  135.7383  161.9727 C   0  0  0  0  0  0  0  0  0  0  0  0
  146.5893  134.7250  160.9172 C   0  0  0  0  0  0  0  0  0  0  0  0
  146.3449  135.5418  159.7799 O   0  0  0  0  0  0  0  0  0  0  0  0
  149.3947  137.2318  158.5682 C   0  0  0  0  0  0  0  0  0  0  0  0
  149.4173  138.2655  159.2402 O   0  0  0  0  0  0  0  0  0  0  0  0
  148.3959  141.9117  156.9850 C   0  0  0  0  0  0  0  0  0  0  0  0
  147.0524  142.0445  156.5851 C   0  0  0  0  0  0  0  0  0  0  0  0
  143.4212  142.3931  155.1479 H   0  0  0  0  0  0  0  0  0  0  0  0
  144.5004  143.2078  156.2738 H   0  0  0  0  0  0  0  0  0  0  0  0
  144.2986  141.4403  156.3392 H   0  0  0  0  0  0  0  0  0  0  0  0
  147.4879  141.8616  153.2045 H   0  0  0  0  0  0  0  0  0  0  0  0
  149.8464  141.6306  153.9055 H   0  0  0  0  0  0  0  0  0  0  0  0
  151.5148  141.6935  155.5510 H   0  0  0  0  0  0  0  0  0  0  0  0
  152.1014  143.3168  157.0654 H   0  0  0  0  0  0  0  0  0  0  0  0
  150.4591  143.3377  157.7343 H   0  0  0  0  0  0  0  0  0  0  0  0
  151.4048  144.4493  159.4084 H   0  0  0  0  0  0  0  0  0  0  0  0
  152.1979  145.4680  161.5167 H   0  0  0  0  0  0  0  0  0  0  0  0
  153.4571  144.1072  163.1737 H   0  0  0  0  0  0  0  0  0  0  0  0
  153.9266  141.7079  162.7217 H   0  0  0  0  0  0  0  0  0  0  0  0
  153.1507  140.6553  160.6301 H   0  0  0  0  0  0  0  0  0  0  0  0
  152.3954  137.4390  157.0375 H   0  0  0  0  0  0  0  0  0  0  0  0
  151.8515  138.2847  158.4344 H   0  0  0  0  0  0  0  0  0  0  0  0
  147.5543  134.4180  158.0844 H   0  0  0  0  0  0  0  0  0  0  0  0
  146.7909  137.4996  159.4098 H   0  0  0  0  0  0  0  0  0  0  0  0
  148.9120  136.3404  161.1700 H   0  0  0  0  0  0  0  0  0  0  0  0
  147.8458  137.7114  161.5384 H   0  0  0  0  0  0  0  0  0  0  0  0
  147.5270  135.2868  162.8169 H   0  0  0  0  0  0  0  0  0  0  0  0
  146.1285  136.2648  162.3518 H   0  0  0  0  0  0  0  0  0  0  0  0
  147.3991  134.0236  160.7116 H   0  0  0  0  0  0  0  0  0  0  0  0
  145.7038  134.1567  161.2021 H   0  0  0  0  0  0  0  0  0  0  0  0
  148.6369  141.9338  158.0377 H   0  0  0  0  0  0  0  0  0  0  0  0
  146.3044  142.1601  157.3546 H   0  0  0  0  0  0  0  0  0  0  0  0
  1  2  1  0  0  0  0
  1 37  1  0  0  0  0
  1 38  1  0  0  0  0
  1 39  1  0  0  0  0
  2  3  1  0  0  0  0
  3 36  1  0  0  0  0
  3  4  2  0  0  0  0
  4  5  1  0  0  0  0
  4 40  1  0  0  0  0
  5  6  2  0  0  0  0
  5 41  1  0  0  0  0
  6  7  1  0  0  0  0
  6 35  1  0  0  0  0
  7 17  1  0  0  0  0
  7  8  1  0  0  0  0
  7 42  1  0  0  0  0
  8  9  1  0  0  0  0
  8 43  1  0  0  0  0
  8 44  1  0  0  0  0
  9 10  1  0  0  0  0
  9 16  2  0  0  0  0
 10 15  1  0  0  0  0
 10 11  2  0  0  0  0
 11 12  1  0  0  0  0
 11 45  1  0  0  0  0
 12 13  2  0  0  0  0
 12 46  1  0  0  0  0
 13 14  1  0  0  0  0
 13 47  1  0  0  0  0
 14 15  2  0  0  0  0
 14 48  1  0  0  0  0
 15 49  1  0  0  0  0
 16 17  1  0  0  0  0
 17 18  1  0  0  0  0
 18 19  2  0  0  0  0
 18 20  1  0  0  0  0
 20 21  1  0  0  0  0
 20 50  1  0  0  0  0
 20 51  1  0  0  0  0
 21 33  1  0  0  0  0
 21 22  1  0  0  0  0
 22 23  2  0  0  0  0
 22 24  1  0  0  0  0
 24 25  1  0  0  0  0
 24 26  2  0  0  0  0
 26 27  1  0  0  0  0
 26 52  1  0  0  0  0
 27 28  1  0  0  0  0
 27 33  1  0  0  0  0
 28 32  1  0  0  0  0
 28 29  1  0  0  0  0
 28 53  1  0  0  0  0
 29 30  1  0  0  0  0
 29 54  1  0  0  0  0
 29 55  1  0  0  0  0
 30 31  1  0  0  0  0
 30 56  1  0  0  0  0
 30 57  1  0  0  0  0
 31 32  1  0  0  0  0
 31 58  1  0  0  0  0
 31 59  1  0  0  0  0
 33 34  2  0  0  0  0
 35 36  2  0  0  0  0
 35 60  1  0  0  0  0
 36 61  1  0  0  0  0
M  END
> <s_m_source_file>
AV-unprocessed.smi

> <i_m_source_file_index>
24

> <i_lp_mmshare_version>
43012

> <i_f3d_flags>
0

> <s_epik_input>
W0NIM11PYzFbY0hdW2NIXWMoW2NIXVtjSF0xKVtDQEBIXTJbQ0gyXUMoYzNbY0hdW2NIXVtjSF1bY0hdW2NIXTMpPU5OMkMoPU8pW0NIMl1uNGMoPU8pYyhGKVtjSF1uKGM0PU8pW0NAQEhdNVtDSDJdW0NIMl1bQ0gyXU81

> <s_epik_cmdline>
J2VwaWtfcHl0aG9uJywgJy1waCcsICc3LjAnLCAnLXRuJywgJzgnLCAnLW1hJywgJzIwMCcsICctbWV0YWxfYmluZGluZycsICctaW1hZScsICc8aW5maWxlLm1hZT4nLCAnLW9tYWUnLCAnPG91dGZpbGUubWFlPic=

> <r_lp_tautomer_probability>
1

> <r_epik_Ionization_Penalty>
1.46326e-08

> <r_epik_Ionization_Penalty_Charging>
4.53232e-09

> <r_epik_Ionization_Penalty_Neutral>
1.01002e-08

> <r_epik_State_Penalty>
-0

> <r_epik_Charging_Adjusted_Penalty>
4.53232e-09

> <i_epik_Tot_Q>
0

> <i_epik_Tot_abs_Q>
0

> <r_epik_Metal_State_Penalty>
-0

> <b_epik_Metal_Only>
0

> <s_epik_Chemistry_Notes>
This compound has an imine and may undergo hydrolysis. This compound contains an acetal/aminal-like group ( X-CH(R)-Y where X, Y are N, S, or O) that may be acid/base labile, releasing an aldehyde.

> <s_lp_Force_Field>
OPLS_2005

> <r_lp_Energy>
50.3667

> <b_lp_Chiralities_Consistent>
1

> <s_lp_Variant>
AV-unprocessed.smi:24-2

> <Gold.Version>
5.8.1

> <Gold.Id.Protein>
6NUR|6NUR_protein|mol2

> <Gold.PLP.Fitness>
61.2593

> <Gold.PLP.PLP>
-59.2897

> <Gold.PLP.part.hbond>
-1.8597

> <Gold.PLP.part.metal>
0.0000

> <Gold.PLP.part.buried>
-6.4259

> <Gold.PLP.part.nonpolar>
-50.8983

> <Gold.PLP.part.repulsive>
0.2471

> <Gold.PLP.ligand.clash>
0.0000

> <Gold.PLP.ligand.torsion>
0.5676

> <Gold.PLP.Chemscore.Hbond>
1.0000

> <Gold.PLP.Chemscore.CHOScore>
0.0000

> <Gold.PLP.Chemscore.Metal>
0.0000

> <Gold.Chemscore.Hbonds>
donor molecule, donor type, donor heavy atom, donor atom, acceptor molecule, acceptor atom, score
      P1  H 10752 10765       L1    23  0.81

> <Gold.PLP.Chemscore.Internal.Correction>
0.1046

> <Gold.Rescore>
     Score         DG    S(hbond)    S(metal)    S(lipo)     H(rot)  DE(clash)    DE(int)     intcor
     18.48     -20.29       0.97        0.00     142.16       1.98       0.35       1.46       ----

> <Gold.Chemscore.Fitness>
18.4755

> <Gold.Chemscore.DG>
-20.2902

> <Gold.Chemscore.ZeroCoef>
-5.4800

> <Gold.Chemscore.Hbond>
0.9681

> <Gold.Chemscore.Metal>
0.0000

> <Gold.Chemscore.Lipo>
142.1601

> <Gold.Chemscore.Internal_Hbond>
0.0000

> <Gold.Chemscore.DEClash>
0.3504

> <Gold.Chemscore.DEInternal>
1.4644

> <Gold.Chemscore.Rot>
1.9750

> <Gold.Chemscore.Internal.Correction>
   9.000000E+99

> <Gold.Chemscore.Hbonds>
donor molecule, donor type, donor heavy atom, donor atom, acceptor molecule, acceptor atom, score
      P1  H 10752 10765       L1    23  0.76

> <Gold.Chemscore.Hbond.Weighted>
-3.2335

> <Gold.Chemscore.Metal.Weighted>
-0.0000

> <Gold.Chemscore.Lipo.Weighted>
-16.6327

> <Gold.Chemscore.Internal_Hbond.Weighted>
0.0000

> <Gold.Chemscore.DEClash.Weighted>
0.3504

> <Gold.Chemscore.DEInternal.Weighted>
1.4644

> <Gold.Chemscore.Rot.Weighted>
5.0561

> <Gold.Chemscore.Internal.Correction.Weighted>
   9.000000E+99

> <Gold.Protein.RotatedTorsions>
[ 6907 6896 6895 6894 ] final  179.23 input  -60.11 | X-H torsion
[ 7974 7965 7964 7962 ] final  145.36 input  175.53 | X-H torsion
[ 8008 7997 7996 7995 ] final  -34.94 input   59.86 | X-H torsion
[ 10167 10162 10161 10158 ] final   16.18 input  -65.29 | X-H torsion
[ 10718 10713 10712 10709 ] final  -88.43 input   66.30 | X-H torsion
[ 10763 10752 10751 10750 ] final -175.30 input  -60.55 | X-H torsion
[ 11005 11000 10999 10996 ] final  109.09 input  -57.11 | X-H torsion

> <Gold.Protein.ActiveResidues>
 VAL166  LYS551  ARG553  GLY616  TRP617  ASP618  TYR619  PRO620  LYS621  CYS622 
 ASP623  PHE694  ASN695  SER759  ASP760  ASP761  ALA762  ILE779  LEU786  VAL792 
 PHE793  MET794  SER795  GLU796  ALA797  LYS798  CYS799  TRP800  GLU811  SER814 

> <Gold.Protein.RotatedAtoms>
  151.6751  133.3313  159.3205 H   0  0  0  0  0  0  0  0  0  0  0  0  # atno 6907 bound_to 6896
  150.7849  134.6829  159.6463 H   0  0  0  0  0  0  0  0  0  0  0  0  # atno 6908 bound_to 6896
  152.3916  134.6435  160.0157 H   0  0  0  0  0  0  0  0  0  0  0  0  # atno 6909 bound_to 6896
  144.8759  139.5774  143.5865 H   0  0  0  0  0  0  0  0  0  0  0  0  # atno 7974 bound_to 7965
  154.4108  140.1670  156.2132 H   0  0  0  0  0  0  0  0  0  0  0  0  # atno 8008 bound_to 7997
  155.9427  140.3407  155.6317 H   0  0  0  0  0  0  0  0  0  0  0  0  # atno 8009 bound_to 7997
  155.6969  140.0740  157.2416 H   0  0  0  0  0  0  0  0  0  0  0  0  # atno 8010 bound_to 7997
  140.5815  143.8971  150.6794 H   0  0  0  0  0  0  0  0  0  0  0  0  # atno 10167 bound_to 10162
  155.9983  130.4835  150.5019 H   0  0  0  0  0  0  0  0  0  0  0  0  # atno 10718 bound_to 10713
  154.5860  135.2840  155.0684 H   0  0  0  0  0  0  0  0  0  0  0  0  # atno 10763 bound_to 10752
  154.2003  135.6425  153.5089 H   0  0  0  0  0  0  0  0  0  0  0  0  # atno 10764 bound_to 10752
  153.0104  135.5467  154.6530 H   0  0  0  0  0  0  0  0  0  0  0  0  # atno 10765 bound_to 10752
  139.8855  134.9448  156.6072 H   0  0  0  0  0  0  0  0  0  0  0  0  # atno 11005 bound_to 11000
  146.2962  139.7285  142.9125 LP  0  0  0  0  0  0  0  0  0  0  0  0  # atno 17320 bound_to 7965
  145.4044  141.0389  143.3052 LP  0  0  0  0  0  0  0  0  0  0  0  0  # atno 17321 bound_to 7965
  140.2472  143.3620  152.1437 LP  0  0  0  0  0  0  0  0  0  0  0  0  # atno 17342 bound_to 10162
  139.5172  144.6989  151.5551 LP  0  0  0  0  0  0  0  0  0  0  0  0  # atno 17343 bound_to 10162
  157.3002  131.0643  151.2073 LP  0  0  0  0  0  0  0  0  0  0  0  0  # atno 17370 bound_to 10713
  157.3055  130.6864  149.6187 LP  0  0  0  0  0  0  0  0  0  0  0  0  # atno 17371 bound_to 10713
  140.7839  133.8637  155.8590 LP  0  0  0  0  0  0  0  0  0  0  0  0  # atno 17394 bound_to 11000
  140.9736  134.1498  157.4555 LP  0  0  0  0  0  0  0  0  0  0  0  0  # atno 17395 bound_to 11000

$$$$
