AV-unprocessed.smi:392|AV-procd|sdf|2480|dock4
  -GOLD-   2262022423D 1   1.00000     0.00000
 Structure written by MMmdl.
 32 34  0  0  0  0  0  0  0  0  1 V2000
  151.1763  144.0734  156.5988 O   0  0  0  0  0  0  0  0  0  0  0  0
  151.5222  143.0612  157.5228 C   0  0  2  0  0  0  0  0  0  0  0  0
  150.3793  142.0280  157.5532 C   0  0  0  0  0  0  0  0  0  0  0  0
  150.1630  141.4118  156.2569 N   0  0  0  0  0  0  0  0  0  0  0  0
  151.0312  140.6516  155.5619 C   0  0  0  0  0  0  0  0  0  0  0  0
  150.6288  140.1921  154.3804 N   0  0  0  0  0  0  0  0  0  0  0  0
  149.3483  140.7123  154.3001 C   0  0  0  0  0  0  0  0  0  0  0  0
  148.3720  140.5946  153.2849 C   0  0  0  0  0  0  0  0  0  0  0  0
  147.1167  141.2225  153.4248 C   0  0  0  0  0  0  0  0  0  0  0  0
  146.8185  141.9764  154.5786 C   0  0  0  0  0  0  0  0  0  0  0  0
  147.7756  142.1090  155.6030 C   0  0  0  0  0  0  0  0  0  0  0  0
  149.0261  141.4799  155.4598 C   0  0  0  0  0  0  0  0  0  0  0  0
  151.8286  143.6217  158.9074 C   0  0  0  0  0  0  0  0  0  0  0  0
  151.6223  144.9923  159.1813 C   0  0  0  0  0  0  0  0  0  0  0  0
  151.8851  145.5101  160.4640 C   0  0  0  0  0  0  0  0  0  0  0  0
  152.3540  144.6607  161.4836 C   0  0  0  0  0  0  0  0  0  0  0  0
  152.5582  143.2932  161.2195 C   0  0  0  0  0  0  0  0  0  0  0  0
  152.2958  142.7727  159.9371 C   0  0  0  0  0  0  0  0  0  0  0  0
  152.4871  141.4518  159.7047 F   0  0  0  0  0  0  0  0  0  0  0  0
  150.2352  144.1612  156.5902 H   0  0  0  0  0  0  0  0  0  0  0  0
  152.4187  142.5858  157.1235 H   0  0  0  0  0  0  0  0  0  0  0  0
  150.5813  141.2471  158.2880 H   0  0  0  0  0  0  0  0  0  0  0  0
  149.4460  142.5061  157.8542 H   0  0  0  0  0  0  0  0  0  0  0  0
  152.0177  140.4293  155.9420 H   0  0  0  0  0  0  0  0  0  0  0  0
  148.5894  140.0196  152.3971 H   0  0  0  0  0  0  0  0  0  0  0  0
  146.3783  141.1255  152.6425 H   0  0  0  0  0  0  0  0  0  0  0  0
  145.8545  142.4536  154.6766 H   0  0  0  0  0  0  0  0  0  0  0  0
  147.5521  142.6867  156.4874 H   0  0  0  0  0  0  0  0  0  0  0  0
  151.2564  145.6521  158.4084 H   0  0  0  0  0  0  0  0  0  0  0  0
  151.7246  146.5591  160.6658 H   0  0  0  0  0  0  0  0  0  0  0  0
  152.5545  145.0574  162.4680 H   0  0  0  0  0  0  0  0  0  0  0  0
  152.9144  142.6408  162.0031 H   0  0  0  0  0  0  0  0  0  0  0  0
  1  2  1  0  0  0  0
  1 20  1  0  0  0  0
  2  3  1  0  0  0  0
  2 13  1  0  0  0  0
  2 21  1  0  0  0  0
  3  4  1  0  0  0  0
  3 22  1  0  0  0  0
  3 23  1  0  0  0  0
  4 12  1  0  0  0  0
  4  5  1  0  0  0  0
  5  6  2  0  0  0  0
  5 24  1  0  0  0  0
  6  7  1  0  0  0  0
  7 12  2  0  0  0  0
  7  8  1  0  0  0  0
  8  9  2  0  0  0  0
  8 25  1  0  0  0  0
  9 10  1  0  0  0  0
  9 26  1  0  0  0  0
 10 11  2  0  0  0  0
 10 27  1  0  0  0  0
 11 12  1  0  0  0  0
 11 28  1  0  0  0  0
 13 18  1  0  0  0  0
 13 14  2  0  0  0  0
 14 15  1  0  0  0  0
 14 29  1  0  0  0  0
 15 16  2  0  0  0  0
 15 30  1  0  0  0  0
 16 17  1  0  0  0  0
 16 31  1  0  0  0  0
 17 18  2  0  0  0  0
 17 32  1  0  0  0  0
 18 19  1  0  0  0  0
M  END
> <s_m_source_file>
AV-unprocessed.smi

> <i_m_source_file_index>
392

> <i_lp_mmshare_version>
43012

> <i_f3d_flags>
0

> <s_epik_input>
RmMxW2NIXVtjSF1bY0hdW2NIXWMxW0NASF0oW09IXSlbQ0gyXW4oW2NIXW4yKWMoYzIzKVtjSF1bY0hdW2NIXVtjSF0z

> <s_epik_cmdline>
J2VwaWtfcHl0aG9uJywgJy1waCcsICc3LjAnLCAnLXRuJywgJzgnLCAnLW1hJywgJzIwMCcsICctbWV0YWxfYmluZGluZycsICctaW1hZScsICc8aW5maWxlLm1hZT4nLCAnLW9tYWUnLCAnPG91dGZpbGUubWFlPic=

> <r_epik_Ionization_Penalty>
0.0696512

> <r_epik_Ionization_Penalty_Charging>
0

> <r_epik_Ionization_Penalty_Neutral>
0.0696512

> <r_epik_State_Penalty>
0.0610247

> <r_epik_Charging_Adjusted_Penalty>
0.0610247

> <i_epik_Tot_Q>
0

> <i_epik_Tot_abs_Q>
0

> <r_epik_Metal_State_Penalty>
6.42746e-05

> <b_epik_Metal_Only>
0

> <s_lp_Force_Field>
OPLS_2005

> <r_lp_Energy>
12.7977

> <b_lp_Chiralities_Consistent>
1

> <s_lp_Variant>
AV-unprocessed.smi:392-1

> <Gold.Version>
5.8.1

> <Gold.Id.Protein>
6NUR|6NUR_protein|mol2

> <Gold.PLP.Fitness>
50.7273

> <Gold.PLP.PLP>
-44.9929

> <Gold.PLP.part.hbond>
-2.0000

> <Gold.PLP.part.metal>
0.0000

> <Gold.PLP.part.buried>
2.7610

> <Gold.PLP.part.nonpolar>
-45.8967

> <Gold.PLP.part.repulsive>
0.0976

> <Gold.PLP.ligand.clash>
0.0000

> <Gold.PLP.ligand.torsion>
0.0590

> <Gold.PLP.Chemscore.Hbond>
1.9440

> <Gold.PLP.Chemscore.CHOScore>
0.0000

> <Gold.PLP.Chemscore.Metal>
0.0000

> <Gold.Chemscore.Hbonds>
donor molecule, donor type, donor heavy atom, donor atom, acceptor molecule, acceptor atom, score
      L1  H     1    20       P1  8028  0.88
      P1  H  7989  7998       L1     6  0.91

> <Gold.PLP.Chemscore.Internal.Correction>
0.0203

> <Gold.Rescore>
     Score         DG    S(hbond)    S(metal)    S(lipo)     H(rot)  DE(clash)    DE(int)     intcor
     16.71     -18.78       0.97        0.00     127.78       1.91       1.96       0.11       ----

> <Gold.Chemscore.Fitness>
16.7055

> <Gold.Chemscore.DG>
-18.7768

> <Gold.Chemscore.ZeroCoef>
-5.4800

> <Gold.Chemscore.Hbond>
0.9701

> <Gold.Chemscore.Metal>
0.0000

> <Gold.Chemscore.Lipo>
127.7823

> <Gold.Chemscore.Internal_Hbond>
0.0000

> <Gold.Chemscore.DEClash>
1.9632

> <Gold.Chemscore.DEInternal>
0.1081

> <Gold.Chemscore.Rot>
1.9116

> <Gold.Chemscore.Internal.Correction>
   9.000000E+99

> <Gold.Chemscore.Hbonds>
donor molecule, donor type, donor heavy atom, donor atom, acceptor molecule, acceptor atom, score
      L1  H     1    20       P1  8028  0.86
      P1  H  7989  7998       L1     6  0.20

> <Gold.Chemscore.Hbond.Weighted>
-3.2400

> <Gold.Chemscore.Metal.Weighted>
-0.0000

> <Gold.Chemscore.Lipo.Weighted>
-14.9505

> <Gold.Chemscore.Internal_Hbond.Weighted>
0.0000

> <Gold.Chemscore.DEClash.Weighted>
1.9632

> <Gold.Chemscore.DEInternal.Weighted>
0.1081

> <Gold.Chemscore.Rot.Weighted>
4.8937

> <Gold.Chemscore.Internal.Correction.Weighted>
   9.000000E+99

> <Gold.Protein.RotatedTorsions>
[ 6907 6896 6895 6894 ] final   35.31 input  -60.11 | X-H torsion
[ 7974 7965 7964 7962 ] final -101.56 input  175.53 | X-H torsion
[ 8008 7997 7996 7995 ] final -151.59 input   59.86 | X-H torsion
[ 10167 10162 10161 10158 ] final   53.72 input  -65.29 | X-H torsion
[ 10718 10713 10712 10709 ] final   75.02 input   66.30 | X-H torsion
[ 10763 10752 10751 10750 ] final   94.72 input  -60.55 | X-H torsion
[ 11005 11000 10999 10996 ] final -141.69 input  -57.11 | X-H torsion

> <Gold.Protein.ActiveResidues>
 VAL166  LYS551  ARG553  GLY616  TRP617  ASP618  TYR619  PRO620  LYS621  CYS622 
 ASP623  PHE694  ASN695  SER759  ASP760  ASP761  ALA762  ILE779  LEU786  VAL792 
 PHE793  MET794  SER795  GLU796  ALA797  LYS798  CYS799  TRP800  GLU811  SER814 

> <Gold.Protein.RotatedAtoms>
  152.1144  134.9251  160.0565 H   0  0  0  0  0  0  0  0  0  0  0  0  # atno 6907 bound_to 6896
  152.0416  133.3975  159.4347 H   0  0  0  0  0  0  0  0  0  0  0  0  # atno 6908 bound_to 6896
  150.6845  134.3330  159.4878 H   0  0  0  0  0  0  0  0  0  0  0  0  # atno 6909 bound_to 6896
  145.2801  140.9324  143.2937 H   0  0  0  0  0  0  0  0  0  0  0  0  # atno 7974 bound_to 7965
  155.6418  140.0702  157.2616 H   0  0  0  0  0  0  0  0  0  0  0  0  # atno 8008 bound_to 7997
  154.4182  140.1749  156.1631 H   0  0  0  0  0  0  0  0  0  0  0  0  # atno 8009 bound_to 7997
  155.9849  140.3350  155.6701 H   0  0  0  0  0  0  0  0  0  0  0  0  # atno 8010 bound_to 7997
  140.2377  144.3617  150.6391 H   0  0  0  0  0  0  0  0  0  0  0  0  # atno 10167 bound_to 10162
  157.6617  130.9706  150.1294 H   0  0  0  0  0  0  0  0  0  0  0  0  # atno 10718 bound_to 10713
  153.2449  135.4279  155.0737 H   0  0  0  0  0  0  0  0  0  0  0  0  # atno 10763 bound_to 10752
  154.8357  135.3411  154.6596 H   0  0  0  0  0  0  0  0  0  0  0  0  # atno 10764 bound_to 10752
  153.7019  135.7028  153.5117 H   0  0  0  0  0  0  0  0  0  0  0  0  # atno 10765 bound_to 10752
  140.8299  134.2529  157.4861 H   0  0  0  0  0  0  0  0  0  0  0  0  # atno 11005 bound_to 11000
  144.9261  139.4354  143.6518 LP  0  0  0  0  0  0  0  0  0  0  0  0  # atno 17320 bound_to 7965
  146.3219  139.8147  142.8939 LP  0  0  0  0  0  0  0  0  0  0  0  0  # atno 17321 bound_to 7965
  140.6137  143.2171  151.6835 LP  0  0  0  0  0  0  0  0  0  0  0  0  # atno 17342 bound_to 10162
  139.5088  144.3599  152.0572 LP  0  0  0  0  0  0  0  0  0  0  0  0  # atno 17343 bound_to 10162
  156.2145  130.3669  149.8630 LP  0  0  0  0  0  0  0  0  0  0  0  0  # atno 17370 bound_to 10713
  156.6500  130.8740  151.3529 LP  0  0  0  0  0  0  0  0  0  0  0  0  # atno 17371 bound_to 10713
  139.8705  134.9581  156.4288 LP  0  0  0  0  0  0  0  0  0  0  0  0  # atno 17394 bound_to 11000
  140.9009  133.7780  155.9679 LP  0  0  0  0  0  0  0  0  0  0  0  0  # atno 17395 bound_to 11000

$$$$
