AV-unprocessed.smi:678|AV-procd|sdf|3315|dock6
  -GOLD-   22720 0283D 1   1.00000     0.00000
 Structure written by MMmdl.
 51 52  0  0  0  0  0  0  0  0  2 V2000
  153.6072  141.7780  160.5919 C   0  0  0  0  0  0  0  0  0  0  0  0
  152.8531  142.5616  159.5320 C   0  0  0  0  0  0  0  0  0  0  0  0
  152.8711  143.9121  159.5068 C   0  0  0  0  0  0  0  0  0  0  0  0
  152.1479  144.6489  158.4988 C   0  0  0  0  0  0  0  0  0  0  0  0
  151.4548  143.9571  157.5833 C   0  0  0  0  0  0  0  0  0  0  0  0
  151.4213  142.5501  157.5855 N   0  0  0  0  0  0  0  0  0  0  0  0
  150.6239  141.8972  156.5327 C   0  0  0  0  0  0  0  0  0  0  0  0
  149.4447  141.0895  157.0918 C   0  0  0  0  0  0  0  0  0  0  0  0
  148.8204  141.4906  158.0748 O   0  0  0  0  0  0  0  0  0  0  0  0
  149.1520  139.9489  156.4494 N   0  0  0  0  0  0  0  0  0  0  0  0
  148.1316  138.9916  156.8623 C   0  0  0  0  0  0  0  0  0  0  0  0
  147.2442  138.5762  155.6748 C   0  0  2  0  0  0  0  0  0  0  0  0
  147.9468  137.5452  154.7633 C   0  0  0  0  0  0  0  0  0  0  0  0
  147.1307  137.2222  153.5635 N   0  3  1  0  0  0  0  0  0  0  0  0
  146.0012  136.2840  153.8078 C   0  0  0  0  0  0  0  0  0  0  0  0
  144.9826  136.2502  152.6478 C   0  0  0  0  0  0  0  0  0  0  0  0
  143.6535  135.6020  153.0712 C   0  0  0  0  0  0  0  0  0  0  0  0
  145.5721  135.5179  151.4332 C   0  0  0  0  0  0  0  0  0  0  0  0
  146.7284  138.4645  152.8602 C   0  0  0  0  0  0  0  0  0  0  0  0
  146.0542  139.4553  153.8249 C   0  0  0  0  0  0  0  0  0  0  0  0
  146.9406  139.7328  154.9003 O   0  0  0  0  0  0  0  0  0  0  0  0
  152.0909  141.8056  158.5207 C   0  0  0  0  0  0  0  0  0  0  0  0
  152.0504  140.5732  158.5108 O   0  0  0  0  0  0  0  0  0  0  0  0
  154.1290  142.4418  161.2819 H   0  0  0  0  0  0  0  0  0  0  0  0
  154.3473  141.1244  160.1291 H   0  0  0  0  0  0  0  0  0  0  0  0
  152.9196  141.1625  161.1730 H   0  0  0  0  0  0  0  0  0  0  0  0
  153.4317  144.4574  160.2520 H   0  0  0  0  0  0  0  0  0  0  0  0
  152.1611  145.7289  158.4850 H   0  0  0  0  0  0  0  0  0  0  0  0
  150.8818  144.4332  156.8009 H   0  0  0  0  0  0  0  0  0  0  0  0
  150.2276  142.6310  155.8296 H   0  0  0  0  0  0  0  0  0  0  0  0
  151.2679  141.2473  155.9366 H   0  0  0  0  0  0  0  0  0  0  0  0
  149.7067  139.7052  155.6414 H   0  0  0  0  0  0  0  0  0  0  0  0
  148.5822  138.1177  157.3360 H   0  0  0  0  0  0  0  0  0  0  0  0
  147.5211  139.4746  157.6257 H   0  0  0  0  0  0  0  0  0  0  0  0
  146.3192  138.1549  156.0710 H   0  0  0  0  0  0  0  0  0  0  0  0
  148.8969  137.9574  154.4205 H   0  0  0  0  0  0  0  0  0  0  0  0
  148.1943  136.6440  155.3225 H   0  0  0  0  0  0  0  0  0  0  0  0
  146.3839  135.2832  154.0069 H   0  0  0  0  0  0  0  0  0  0  0  0
  145.4706  136.5838  154.7127 H   0  0  0  0  0  0  0  0  0  0  0  0
  144.7700  137.2691  152.3253 H   0  0  0  0  0  0  0  0  0  0  0  0
  143.8016  134.5740  153.4039 H   0  0  0  0  0  0  0  0  0  0  0  0
  142.9459  135.5824  152.2417 H   0  0  0  0  0  0  0  0  0  0  0  0
  143.1814  136.1515  153.8858 H   0  0  0  0  0  0  0  0  0  0  0  0
  145.8077  134.4799  151.6707 H   0  0  0  0  0  0  0  0  0  0  0  0
  146.4896  135.9976  151.0910 H   0  0  0  0  0  0  0  0  0  0  0  0
  144.8728  135.5166  150.5965 H   0  0  0  0  0  0  0  0  0  0  0  0
  147.6235  138.9256  152.4408 H   0  0  0  0  0  0  0  0  0  0  0  0
  146.0774  138.2387  152.0149 H   0  0  0  0  0  0  0  0  0  0  0  0
  145.8286  140.3878  153.3074 H   0  0  0  0  0  0  0  0  0  0  0  0
  145.1078  139.0652  154.2024 H   0  0  0  0  0  0  0  0  0  0  0  0
  147.7400  136.7326  152.9233 H   0  0  0  0  0  0  0  0  0  0  0  0
  1  2  1  0  0  0  0
  1 24  1  0  0  0  0
  1 25  1  0  0  0  0
  1 26  1  0  0  0  0
  2 22  1  0  0  0  0
  2  3  2  0  0  0  0
  3  4  1  0  0  0  0
  3 27  1  0  0  0  0
  4  5  2  0  0  0  0
  4 28  1  0  0  0  0
  5  6  1  0  0  0  0
  5 29  1  0  0  0  0
  6  7  1  0  0  0  0
  6 22  1  0  0  0  0
  7  8  1  0  0  0  0
  7 30  1  0  0  0  0
  7 31  1  0  0  0  0
  8  9  2  0  0  0  0
  8 10  1  0  0  0  0
 10 11  1  0  0  0  0
 10 32  1  0  0  0  0
 11 12  1  0  0  0  0
 11 33  1  0  0  0  0
 11 34  1  0  0  0  0
 12 21  1  0  0  0  0
 12 13  1  0  0  0  0
 12 35  1  0  0  0  0
 13 14  1  0  0  0  0
 13 36  1  0  0  0  0
 13 37  1  0  0  0  0
 14 15  1  0  0  0  0
 14 19  1  0  0  0  0
 14 51  1  0  0  0  0
 15 16  1  0  0  0  0
 15 38  1  0  0  0  0
 15 39  1  0  0  0  0
 16 17  1  0  0  0  0
 16 18  1  0  0  0  0
 16 40  1  0  0  0  0
 17 41  1  0  0  0  0
 17 42  1  0  0  0  0
 17 43  1  0  0  0  0
 18 44  1  0  0  0  0
 18 45  1  0  0  0  0
 18 46  1  0  0  0  0
 19 20  1  0  0  0  0
 19 47  1  0  0  0  0
 19 48  1  0  0  0  0
 20 21  1  0  0  0  0
 20 49  1  0  0  0  0
 20 50  1  0  0  0  0
 22 23  2  0  0  0  0
M  CHG  1  14   1
M  END
> <s_m_source_file>
AV-unprocessed.smi

> <i_m_source_file_index>
678

> <i_lp_mmshare_version>
43012

> <i_f3d_flags>
0

> <s_epik_input>
W0NIM11jMVtjSF1bY0hdW2NIXW4oYzE9TylbQ0gyXUMoPU8pW05IXVtDSDJdW0NAQEhdMltDSDJdTihbQ0gyXVtDSDJdTzIpW0NIMl1bQ0hdKFtDSDNdKVtDSDNd

> <s_epik_cmdline>
J2VwaWtfcHl0aG9uJywgJy1waCcsICc3LjAnLCAnLXRuJywgJzgnLCAnLW1hJywgJzIwMCcsICctbWV0YWxfYmluZGluZycsICctaW1hZScsICc8aW5maWxlLm1hZT4nLCAnLW9tYWUnLCAnPG91dGZpbGUubWFlPic=

> <r_lp_tautomer_probability>
1

> <r_epik_Ionization_Penalty>
0.0975937

> <r_epik_Ionization_Penalty_Charging>
0.0975937

> <r_epik_Ionization_Penalty_Neutral>
6.27044e-08

> <r_epik_State_Penalty>
0.0877056

> <r_epik_Charging_Adjusted_Penalty>
0.185299

> <i_epik_Tot_Q>
1

> <i_epik_Tot_abs_Q>
1

> <r_epik_Metal_State_Penalty>
0.0877109

> <b_epik_Metal_Only>
0

> <s_lp_Force_Field>
OPLS_2005

> <r_lp_Energy>
29.877

> <b_lp_Chiralities_Consistent>
1

> <s_lp_Variant>
AV-unprocessed.smi:678-3

> <Gold.Version>
5.8.1

> <Gold.Id.Protein>
6NUR|6NUR_protein|mol2

> <Gold.PLP.Fitness>
47.2729

> <Gold.PLP.PLP>
-39.8148

> <Gold.PLP.part.hbond>
-1.0000

> <Gold.PLP.part.metal>
0.0000

> <Gold.PLP.part.buried>
-2.0888

> <Gold.PLP.part.nonpolar>
-38.3287

> <Gold.PLP.part.repulsive>
0.2456

> <Gold.PLP.ligand.clash>
0.0000

> <Gold.PLP.ligand.torsion>
0.8412

> <Gold.PLP.Chemscore.Hbond>
2.0000

> <Gold.PLP.Chemscore.CHOScore>
1.0000

> <Gold.PLP.Chemscore.Metal>
0.0000

> <Gold.Chemscore.Hbonds>
donor molecule, donor type, donor heavy atom, donor atom, acceptor molecule, acceptor atom, score
      L1  H    14    51       P1  7948  2.00
      L1  C     5    29       P1  8028  1.00

> <Gold.PLP.Chemscore.Internal.Correction>
0.1405

> <Gold.Rescore>
     Score         DG    S(hbond)    S(metal)    S(lipo)     H(rot)  DE(clash)    DE(int)     intcor
     14.66     -16.85       1.00        0.00     109.90       1.89       1.25       0.93       ----

> <Gold.Chemscore.Fitness>
14.6640

> <Gold.Chemscore.DG>
-16.8452

> <Gold.Chemscore.ZeroCoef>
-5.4800

> <Gold.Chemscore.Hbond>
0.9992

> <Gold.Chemscore.Metal>
0.0000

> <Gold.Chemscore.Lipo>
109.9031

> <Gold.Chemscore.Internal_Hbond>
0.0000

> <Gold.Chemscore.DEClash>
1.2463

> <Gold.Chemscore.DEInternal>
0.9349

> <Gold.Chemscore.Rot>
1.8871

> <Gold.Chemscore.Internal.Correction>
   9.000000E+99

> <Gold.Chemscore.Hbonds>
donor molecule, donor type, donor heavy atom, donor atom, acceptor molecule, acceptor atom, score
      L1  H    14    51       P1  7948  1.00

> <Gold.Chemscore.Hbond.Weighted>
-3.3374

> <Gold.Chemscore.Metal.Weighted>
-0.0000

> <Gold.Chemscore.Lipo.Weighted>
-12.8587

> <Gold.Chemscore.Internal_Hbond.Weighted>
0.0000

> <Gold.Chemscore.DEClash.Weighted>
1.2463

> <Gold.Chemscore.DEInternal.Weighted>
0.9349

> <Gold.Chemscore.Rot.Weighted>
4.8309

> <Gold.Chemscore.Internal.Correction.Weighted>
   9.000000E+99

> <Gold.Protein.RotatedTorsions>
[ 6907 6896 6895 6894 ] final  161.86 input  -60.11 | X-H torsion
[ 7974 7965 7964 7962 ] final -129.57 input  175.53 | X-H torsion
[ 8008 7997 7996 7995 ] final -173.65 input   59.86 | X-H torsion
[ 10167 10162 10161 10158 ] final -101.04 input  -65.29 | X-H torsion
[ 10718 10713 10712 10709 ] final  143.97 input   66.30 | X-H torsion
[ 10763 10752 10751 10750 ] final  -87.89 input  -60.55 | X-H torsion
[ 11005 11000 10999 10996 ] final  -24.11 input  -57.11 | X-H torsion

> <Gold.Protein.ActiveResidues>
 VAL166  LYS551  ARG553  GLY616  TRP617  ASP618  TYR619  PRO620  LYS621  CYS622 
 ASP623  PHE694  ASN695  SER759  ASP760  ASP761  ALA762  ILE779  LEU786  VAL792 
 PHE793  MET794  SER795  GLU796  ALA797  LYS798  CYS799  TRP800  GLU811  SER814 

> <Gold.Protein.RotatedAtoms>
  151.9492  133.3660  159.3993 H   0  0  0  0  0  0  0  0  0  0  0  0  # atno 6907 bound_to 6896
  150.6984  134.4358  159.5279 H   0  0  0  0  0  0  0  0  0  0  0  0  # atno 6908 bound_to 6896
  152.2028  134.8572  160.0557 H   0  0  0  0  0  0  0  0  0  0  0  0  # atno 6909 bound_to 6896
  144.9559  140.7395  143.4759 H   0  0  0  0  0  0  0  0  0  0  0  0  # atno 7974 bound_to 7965
  155.9602  140.1143  157.0902 H   0  0  0  0  0  0  0  0  0  0  0  0  # atno 8008 bound_to 7997
  154.4130  140.1183  156.5235 H   0  0  0  0  0  0  0  0  0  0  0  0  # atno 8009 bound_to 7997
  155.6730  140.3473  155.4828 H   0  0  0  0  0  0  0  0  0  0  0  0  # atno 8010 bound_to 7997
  140.2456  143.3508  152.0762 H   0  0  0  0  0  0  0  0  0  0  0  0  # atno 10167 bound_to 10162
  157.3627  131.0967  151.0901 H   0  0  0  0  0  0  0  0  0  0  0  0  # atno 10718 bound_to 10713
  154.6386  135.5397  153.7763 H   0  0  0  0  0  0  0  0  0  0  0  0  # atno 10763 bound_to 10752
  153.0321  135.6453  154.1194 H   0  0  0  0  0  0  0  0  0  0  0  0  # atno 10764 bound_to 10752
  154.1120  135.2926  155.3208 H   0  0  0  0  0  0  0  0  0  0  0  0  # atno 10765 bound_to 10752
  140.8814  133.7651  156.0307 H   0  0  0  0  0  0  0  0  0  0  0  0  # atno 11005 bound_to 11000
  145.2773  139.1931  143.4810 LP  0  0  0  0  0  0  0  0  0  0  0  0  # atno 17320 bound_to 7965
  146.3337  140.2729  142.8606 LP  0  0  0  0  0  0  0  0  0  0  0  0  # atno 17321 bound_to 7965
  139.5063  144.6811  151.6006 LP  0  0  0  0  0  0  0  0  0  0  0  0  # atno 17342 bound_to 10162
  140.6080  143.9488  150.6433 LP  0  0  0  0  0  0  0  0  0  0  0  0  # atno 17343 bound_to 10162
  157.2034  130.6405  149.5747 LP  0  0  0  0  0  0  0  0  0  0  0  0  # atno 17370 bound_to 10713
  155.9740  130.4683  150.6356 LP  0  0  0  0  0  0  0  0  0  0  0  0  # atno 17371 bound_to 10713
  140.8456  134.3014  157.5296 LP  0  0  0  0  0  0  0  0  0  0  0  0  # atno 17394 bound_to 11000
  139.8720  134.9440  156.3869 LP  0  0  0  0  0  0  0  0  0  0  0  0  # atno 17395 bound_to 11000

$$$$
