AV-unprocessed.smi:3162|AV-procd|sdf|12064|dock1
  -GOLD-   2272017493D 1   1.00000     0.00000
 Structure written by MMmdl.
 37 37  0  0  0  0  0  0  0  0  2 V2000
  147.5527  141.5084  154.4660 C   0  0  0  0  0  0  0  0  0  0  0  0
  149.0771  141.5069  154.6616 C   0  0  0  0  0  0  0  0  0  0  0  0
  149.6715  140.1425  155.0742 C   0  0  1  0  0  0  0  0  0  0  0  0
  149.3105  139.8624  156.4851 N   0  3  0  0  0  0  0  0  0  0  0  0
  149.6989  140.8911  157.4791 C   0  0  2  0  0  0  0  0  0  0  0  0
  148.5498  141.9002  157.6382 C   0  0  0  0  0  0  0  0  0  0  0  0
  151.0272  141.5721  157.0761 C   0  0  0  0  0  0  0  0  0  0  0  0
  151.4967  142.5235  158.0664 N   0  0  0  0  0  0  0  0  0  0  0  0
  150.9633  143.7499  158.4023 C   0  0  0  0  0  0  0  0  0  0  0  0
  151.7511  144.2857  159.3814 C   0  0  0  0  0  0  0  0  0  0  0  0
  151.6014  145.5993  160.0930 C   0  0  0  0  0  0  0  0  0  0  0  0
  152.7588  143.2981  159.5731 C   0  0  0  0  0  0  0  0  0  0  0  0
  152.6063  142.2477  158.7832 N   0  0  0  0  0  0  0  0  0  0  0  0
  149.1779  139.0155  154.1522 C   0  0  0  0  0  0  0  0  0  0  0  0
  150.0991  138.3505  153.4500 N   0  0  0  0  0  0  0  0  0  0  0  0
  147.9791  138.7536  154.0714 O   0  0  0  0  0  0  0  0  0  0  0  0
  147.2126  142.4786  154.1029 H   0  0  0  0  0  0  0  0  0  0  0  0
  147.0244  141.3074  155.3983 H   0  0  0  0  0  0  0  0  0  0  0  0
  147.2481  140.7571  153.7368 H   0  0  0  0  0  0  0  0  0  0  0  0
  149.5347  141.8207  153.7224 H   0  0  0  0  0  0  0  0  0  0  0  0
  149.3473  142.2701  155.3934 H   0  0  0  0  0  0  0  0  0  0  0  0
  150.7571  140.2138  154.9991 H   0  0  0  0  0  0  0  0  0  0  0  0
  148.3111  139.7333  156.5467 H   0  0  0  0  0  0  0  0  0  0  0  0
  149.8313  140.4043  158.4463 H   0  0  0  0  0  0  0  0  0  0  0  0
  148.7565  142.6229  158.4278 H   0  0  0  0  0  0  0  0  0  0  0  0
  147.6199  141.3952  157.9012 H   0  0  0  0  0  0  0  0  0  0  0  0
  148.3775  142.4554  156.7154 H   0  0  0  0  0  0  0  0  0  0  0  0
  151.8170  140.8364  156.9240 H   0  0  0  0  0  0  0  0  0  0  0  0
  150.9071  142.0963  156.1268 H   0  0  0  0  0  0  0  0  0  0  0  0
  150.0749  144.1359  157.9241 H   0  0  0  0  0  0  0  0  0  0  0  0
  152.5566  145.9675  160.4680 H   0  0  0  0  0  0  0  0  0  0  0  0
  150.9301  145.5180  160.9479 H   0  0  0  0  0  0  0  0  0  0  0  0
  151.1964  146.3705  159.4374 H   0  0  0  0  0  0  0  0  0  0  0  0
  153.5931  143.3147  160.2589 H   0  0  0  0  0  0  0  0  0  0  0  0
  149.8248  137.5993  152.8331 H   0  0  0  0  0  0  0  0  0  0  0  0
  151.0738  138.6000  153.5412 H   0  0  0  0  0  0  0  0  0  0  0  0
  149.7604  138.9933  156.7360 H   0  0  0  0  0  0  0  0  0  0  0  0
  1  2  1  0  0  0  0
  1 17  1  0  0  0  0
  1 18  1  0  0  0  0
  1 19  1  0  0  0  0
  2  3  1  0  0  0  0
  2 20  1  0  0  0  0
  2 21  1  0  0  0  0
  3  4  1  0  0  0  0
  3 14  1  0  0  0  0
  3 22  1  0  0  0  0
  4  5  1  0  0  0  0
  4 23  1  0  0  0  0
  4 37  1  0  0  0  0
  5  6  1  0  0  0  0
  5  7  1  0  0  0  0
  5 24  1  0  0  0  0
  6 25  1  0  0  0  0
  6 26  1  0  0  0  0
  6 27  1  0  0  0  0
  7  8  1  0  0  0  0
  7 28  1  0  0  0  0
  7 29  1  0  0  0  0
  8 13  1  0  0  0  0
  8  9  1  0  0  0  0
  9 10  2  0  0  0  0
  9 30  1  0  0  0  0
 10 11  1  0  0  0  0
 10 12  1  0  0  0  0
 11 31  1  0  0  0  0
 11 32  1  0  0  0  0
 11 33  1  0  0  0  0
 12 13  2  0  0  0  0
 12 34  1  0  0  0  0
 14 15  1  0  0  0  0
 14 16  2  0  0  0  0
 15 35  1  0  0  0  0
 15 36  1  0  0  0  0
M  CHG  1   4   1
M  END
> <s_m_source_file>
AV-unprocessed.smi

> <i_m_source_file_index>
3162

> <i_lp_mmshare_version>
43012

> <i_f3d_flags>
0

> <s_epik_input>
W0NIM11bQ0gyXVtDQEBIXShDKD1PKVtOSDJdKVtOSF1bQ0BIXShbQ0gzXSlbQ0gyXW4xW2NIXWMoW0NIM10pW2NIXW4x

> <s_epik_cmdline>
J2VwaWtfcHl0aG9uJywgJy1waCcsICc3LjAnLCAnLXRuJywgJzgnLCAnLW1hJywgJzIwMCcsICctbWV0YWxfYmluZGluZycsICctaW1hZScsICc8aW5maWxlLm1hZT4nLCAnLW9tYWUnLCAnPG91dGZpbGUubWFlPic=

> <r_lp_tautomer_probability>
1

> <r_epik_Ionization_Penalty>
0.112112

> <r_epik_Ionization_Penalty_Charging>
0.112102

> <r_epik_Ionization_Penalty_Neutral>
9.73799e-06

> <r_epik_State_Penalty>
0.101811

> <r_epik_Charging_Adjusted_Penalty>
0.213914

> <i_epik_Tot_Q>
1

> <i_epik_Tot_abs_Q>
1

> <r_epik_Metal_State_Penalty>
0.101821

> <b_epik_Metal_Only>
0

> <s_lp_Force_Field>
OPLS_2005

> <r_lp_Energy>
4.43066

> <b_lp_Chiralities_Consistent>
1

> <s_lp_Variant>
AV-unprocessed.smi:3162-2

> <Gold.Version>
5.8.1

> <Gold.Id.Protein>
6NUR|6NUR_protein|mol2

> <Gold.PLP.Fitness>
40.3176

> <Gold.PLP.PLP>
-35.0274

> <Gold.PLP.part.hbond>
-2.3979

> <Gold.PLP.part.metal>
0.0000

> <Gold.PLP.part.buried>
-3.3013

> <Gold.PLP.part.nonpolar>
-30.1661

> <Gold.PLP.part.repulsive>
0.2612

> <Gold.PLP.ligand.clash>
0.0000

> <Gold.PLP.ligand.torsion>
0.5101

> <Gold.PLP.Chemscore.Hbond>
1.0000

> <Gold.PLP.Chemscore.CHOScore>
1.0171

> <Gold.PLP.Chemscore.Metal>
0.0000

> <Gold.Chemscore.Hbonds>
donor molecule, donor type, donor heavy atom, donor atom, acceptor molecule, acceptor atom, score
      L1  H    15    35       P1  7948  1.00
      L1  C     9    30       P1  8028  0.84
      L1  C     9    30       P1  8029  0.04

> <Gold.PLP.Chemscore.Internal.Correction>
0.2590

> <Gold.Rescore>
     Score         DG    S(hbond)    S(metal)    S(lipo)     H(rot)  DE(clash)    DE(int)     intcor
     10.31     -12.04       0.97        0.00      83.22       2.51       0.07       1.66       ----

> <Gold.Chemscore.Fitness>
10.3067

> <Gold.Chemscore.DG>
-12.0356

> <Gold.Chemscore.ZeroCoef>
-5.4800

> <Gold.Chemscore.Hbond>
0.9684

> <Gold.Chemscore.Metal>
0.0000

> <Gold.Chemscore.Lipo>
83.2231

> <Gold.Chemscore.Internal_Hbond>
0.0000

> <Gold.Chemscore.DEClash>
0.0671

> <Gold.Chemscore.DEInternal>
1.6618

> <Gold.Chemscore.Rot>
2.5062

> <Gold.Chemscore.Internal.Correction>
   9.000000E+99

> <Gold.Chemscore.Hbonds>
donor molecule, donor type, donor heavy atom, donor atom, acceptor molecule, acceptor atom, score
      L1  H    15    35       P1  7948  0.35

> <Gold.Chemscore.Hbond.Weighted>
-3.2344

> <Gold.Chemscore.Metal.Weighted>
-0.0000

> <Gold.Chemscore.Lipo.Weighted>
-9.7371

> <Gold.Chemscore.Internal_Hbond.Weighted>
0.0000

> <Gold.Chemscore.DEClash.Weighted>
0.0671

> <Gold.Chemscore.DEInternal.Weighted>
1.6618

> <Gold.Chemscore.Rot.Weighted>
6.4159

> <Gold.Chemscore.Internal.Correction.Weighted>
   9.000000E+99

> <Gold.Protein.RotatedTorsions>
[ 6907 6896 6895 6894 ] final -152.86 input  -60.11 | X-H torsion
[ 7974 7965 7964 7962 ] final  171.04 input  175.53 | X-H torsion
[ 8008 7997 7996 7995 ] final  138.36 input   59.86 | X-H torsion
[ 10167 10162 10161 10158 ] final -172.57 input  -65.29 | X-H torsion
[ 10718 10713 10712 10709 ] final  150.01 input   66.30 | X-H torsion
[ 10763 10752 10751 10750 ] final -138.51 input  -60.55 | X-H torsion
[ 11005 11000 10999 10996 ] final  -93.88 input  -57.11 | X-H torsion

> <Gold.Protein.ActiveResidues>
 VAL166  LYS551  ARG553  GLY616  TRP617  ASP618  TYR619  PRO620  LYS621  CYS622 
 ASP623  PHE694  ASN695  SER759  ASP760  ASP761  ALA762  ILE779  LEU786  VAL792 
 PHE793  MET794  SER795  GLU796  ALA797  LYS798  CYS799  TRP800  GLU811  SER814 

> <Gold.Protein.RotatedAtoms>
  151.2340  133.4435  159.2604 H   0  0  0  0  0  0  0  0  0  0  0  0  # atno 6907 bound_to 6896
  151.0767  134.9833  159.8346 H   0  0  0  0  0  0  0  0  0  0  0  0  # atno 6908 bound_to 6896
  152.5419  134.2282  159.8867 H   0  0  0  0  0  0  0  0  0  0  0  0  # atno 6909 bound_to 6896
  144.7306  139.9291  143.6424 H   0  0  0  0  0  0  0  0  0  0  0  0  # atno 7974 bound_to 7965
  156.2998  140.2395  156.4061 H   0  0  0  0  0  0  0  0  0  0  0  0  # atno 8008 bound_to 7997
  154.8483  140.0425  157.1607 H   0  0  0  0  0  0  0  0  0  0  0  0  # atno 8009 bound_to 7997
  154.9027  140.2979  155.5313 H   0  0  0  0  0  0  0  0  0  0  0  0  # atno 8010 bound_to 7997
  139.5737  144.1581  152.1421 H   0  0  0  0  0  0  0  0  0  0  0  0  # atno 10167 bound_to 10162
  157.2889  131.0849  151.1477 H   0  0  0  0  0  0  0  0  0  0  0  0  # atno 10718 bound_to 10713
  154.8635  135.3610  154.5396 H   0  0  0  0  0  0  0  0  0  0  0  0  # atno 10763 bound_to 10752
  153.6019  135.7012  153.5386 H   0  0  0  0  0  0  0  0  0  0  0  0  # atno 10764 bound_to 10752
  153.3284  135.4131  155.1436 H   0  0  0  0  0  0  0  0  0  0  0  0  # atno 10765 bound_to 10752
  141.1485  133.7918  157.0221 H   0  0  0  0  0  0  0  0  0  0  0  0  # atno 11005 bound_to 11000
  146.0871  139.3859  143.0429 LP  0  0  0  0  0  0  0  0  0  0  0  0  # atno 17320 bound_to 7965
  145.7762  140.9876  143.1123 LP  0  0  0  0  0  0  0  0  0  0  0  0  # atno 17321 bound_to 7965
  140.1120  144.5449  150.6919 LP  0  0  0  0  0  0  0  0  0  0  0  0  # atno 17342 bound_to 10162
  140.7021  143.2442  151.4834 LP  0  0  0  0  0  0  0  0  0  0  0  0  # atno 17343 bound_to 10162
  157.2881  130.6783  149.6100 LP  0  0  0  0  0  0  0  0  0  0  0  0  # atno 17370 bound_to 10713
  155.9666  130.4429  150.5400 LP  0  0  0  0  0  0  0  0  0  0  0  0  # atno 17371 bound_to 10713
  140.0809  134.9649  157.1622 LP  0  0  0  0  0  0  0  0  0  0  0  0  # atno 17394 bound_to 11000
  140.3579  134.2527  155.7190 LP  0  0  0  0  0  0  0  0  0  0  0  0  # atno 17395 bound_to 11000

$$$$
