AV-unprocessed.smi:535|AV-procd|sdf|2861|dock3
  -GOLD-   2262023353D 1   1.00000     0.00000
 Structure written by MMmdl.
 45 47  0  0  0  0  0  0  0  0  2 V2000
  152.8160  138.6828  155.3052 C   0  0  0  0  0  0  0  0  0  0  0  0
  152.8365  139.4712  156.4820 O   0  0  0  0  0  0  0  0  0  0  0  0
  152.7701  138.6869  157.6611 C   0  0  0  0  0  0  0  0  0  0  0  0
  152.1709  139.5413  158.7908 C   0  0  0  0  0  0  0  0  0  0  0  0
  152.9536  139.4666  160.0220 N   0  0  0  0  0  0  0  0  0  0  0  0
  153.4762  140.4805  160.7730 C   0  0  0  0  0  0  0  0  0  0  0  0
  153.3523  141.8387  160.4450 N   0  0  0  0  0  0  0  0  0  0  0  0
  153.8577  142.5226  159.2517 C   0  0  0  0  0  0  0  0  0  0  0  0
  152.7742  143.3815  158.5758 C   0  0  0  0  0  0  0  0  0  0  0  0
  152.2195  144.4179  159.5598 C   0  0  0  0  0  0  0  0  0  0  0  0
  151.7712  143.7246  160.8565 C   0  0  2  0  0  0  0  0  0  0  0  0
  151.2857  144.7400  161.8999 C   0  0  0  0  0  0  0  0  0  0  0  0
  152.9165  142.8522  161.4094 C   0  0  0  0  0  0  0  0  0  0  0  0
  154.0973  140.0718  161.8828 N   0  0  0  0  0  0  0  0  0  0  0  0
  153.9769  138.6938  161.8317 C   0  0  0  0  0  0  0  0  0  0  0  0
  153.2836  138.3041  160.7300 C   0  0  0  0  0  0  0  0  0  0  0  0
  152.9618  136.8915  160.4222 C   0  0  0  0  0  0  0  0  0  0  0  0
  152.3071  136.5897  159.4266 O   0  0  0  0  0  0  0  0  0  0  0  0
  153.4682  136.0284  161.3587 N   0  5  0  0  0  0  0  0  0  0  0  0
  154.1829  136.3809  162.4829 C   0  0  0  0  0  0  0  0  0  0  0  0
  154.6025  135.5384  163.2774 O   0  0  0  0  0  0  0  0  0  0  0  0
  154.4417  137.7018  162.7378 N   0  0  0  0  0  0  0  0  0  0  0  0
  155.1950  138.1070  163.9281 C   0  0  0  0  0  0  0  0  0  0  0  0
  152.8765  139.3294  154.4299 H   0  0  0  0  0  0  0  0  0  0  0  0
  151.8934  138.1052  155.2341 H   0  0  0  0  0  0  0  0  0  0  0  0
  153.6627  137.9959  155.2752 H   0  0  0  0  0  0  0  0  0  0  0  0
  152.1595  137.8017  157.4835 H   0  0  0  0  0  0  0  0  0  0  0  0
  153.7663  138.3327  157.9261 H   0  0  0  0  0  0  0  0  0  0  0  0
  152.0761  140.5784  158.4805 H   0  0  0  0  0  0  0  0  0  0  0  0
  151.1506  139.2235  159.0031 H   0  0  0  0  0  0  0  0  0  0  0  0
  154.6957  143.1566  159.5445 H   0  0  0  0  0  0  0  0  0  0  0  0
  154.2697  141.8130  158.5411 H   0  0  0  0  0  0  0  0  0  0  0  0
  153.1878  143.8830  157.7006 H   0  0  0  0  0  0  0  0  0  0  0  0
  151.9628  142.7489  158.2158 H   0  0  0  0  0  0  0  0  0  0  0  0
  152.9910  145.1564  159.7823 H   0  0  0  0  0  0  0  0  0  0  0  0
  151.3881  144.9593  159.1069 H   0  0  0  0  0  0  0  0  0  0  0  0
  150.9322  143.0684  160.6191 H   0  0  0  0  0  0  0  0  0  0  0  0
  152.0838  145.4248  162.1878 H   0  0  0  0  0  0  0  0  0  0  0  0
  150.9360  144.2377  162.8024 H   0  0  0  0  0  0  0  0  0  0  0  0
  150.4584  145.3353  161.5127 H   0  0  0  0  0  0  0  0  0  0  0  0
  152.5805  142.3663  162.3259 H   0  0  0  0  0  0  0  0  0  0  0  0
  153.7691  143.4733  161.6877 H   0  0  0  0  0  0  0  0  0  0  0  0
  156.1845  137.6484  163.9286 H   0  0  0  0  0  0  0  0  0  0  0  0
  154.6737  137.7954  164.8342 H   0  0  0  0  0  0  0  0  0  0  0  0
  155.3383  139.1855  163.9893 H   0  0  0  0  0  0  0  0  0  0  0  0
  1  2  1  0  0  0  0
  1 24  1  0  0  0  0
  1 25  1  0  0  0  0
  1 26  1  0  0  0  0
  2  3  1  0  0  0  0
  3  4  1  0  0  0  0
  3 27  1  0  0  0  0
  3 28  1  0  0  0  0
  4  5  1  0  0  0  0
  4 29  1  0  0  0  0
  4 30  1  0  0  0  0
  5 16  1  0  0  0  0
  5  6  1  0  0  0  0
  6  7  1  0  0  0  0
  6 14  2  0  0  0  0
  7 13  1  0  0  0  0
  7  8  1  0  0  0  0
  8  9  1  0  0  0  0
  8 31  1  0  0  0  0
  8 32  1  0  0  0  0
  9 10  1  0  0  0  0
  9 33  1  0  0  0  0
  9 34  1  0  0  0  0
 10 11  1  0  0  0  0
 10 35  1  0  0  0  0
 10 36  1  0  0  0  0
 11 12  1  0  0  0  0
 11 13  1  0  0  0  0
 11 37  1  0  0  0  0
 12 38  1  0  0  0  0
 12 39  1  0  0  0  0
 12 40  1  0  0  0  0
 13 41  1  0  0  0  0
 13 42  1  0  0  0  0
 14 15  1  0  0  0  0
 15 22  1  0  0  0  0
 15 16  2  0  0  0  0
 16 17  1  0  0  0  0
 17 18  2  0  0  0  0
 17 19  1  0  0  0  0
 19 20  1  0  0  0  0
 20 21  2  0  0  0  0
 20 22  1  0  0  0  0
 22 23  1  0  0  0  0
 23 43  1  0  0  0  0
 23 44  1  0  0  0  0
 23 45  1  0  0  0  0
M  CHG  1  19  -1
M  END
> <s_m_source_file>
AV-unprocessed.smi

> <i_m_source_file_index>
535

> <i_lp_mmshare_version>
43012

> <i_f3d_flags>
0

> <s_epik_input>
W0NIM11uMWMoPU8pW25IXWMoPU8pYyhjMTIpbihbQ0gyXVtDSDJdT1tDSDNdKWMobjIpTjNbQ0gyXVtDSDJdW0NIMl1bQ0BASF0oW0NIM10pW0NIMl0z

> <s_epik_cmdline>
J2VwaWtfcHl0aG9uJywgJy1waCcsICc3LjAnLCAnLXRuJywgJzgnLCAnLW1hJywgJzIwMCcsICctbWV0YWxfYmluZGluZycsICctaW1hZScsICc8aW5maWxlLm1hZT4nLCAnLW9tYWUnLCAnPG91dGZpbGUubWFlPic=

> <r_lp_tautomer_probability>
1

> <r_epik_Ionization_Penalty>
5.11375

> <r_epik_Ionization_Penalty_Charging>
0.0788329

> <r_epik_Ionization_Penalty_Neutral>
5.03492

> <r_epik_State_Penalty>
5.02848

> <r_epik_Charging_Adjusted_Penalty>
5.10731

> <i_epik_Tot_Q>
-1

> <i_epik_Tot_abs_Q>
1

> <r_epik_Metal_State_Penalty>
1.14014

> <b_epik_Metal_Only>
1

> <s_lp_Force_Field>
OPLS_2005

> <r_lp_Energy>
42.0611

> <b_lp_Chiralities_Consistent>
1

> <s_lp_Variant>
AV-unprocessed.smi:535-4

> <Gold.Version>
5.8.1

> <Gold.Id.Protein>
6NUR|6NUR_protein|mol2

> <Gold.PLP.Fitness>
40.3053

> <Gold.PLP.PLP>
-37.2002

> <Gold.PLP.part.hbond>
-2.0000

> <Gold.PLP.part.metal>
0.0000

> <Gold.PLP.part.buried>
3.0853

> <Gold.PLP.part.nonpolar>
-37.2138

> <Gold.PLP.part.repulsive>
0.0165

> <Gold.PLP.ligand.clash>
0.0000

> <Gold.PLP.ligand.torsion>
1.5005

> <Gold.PLP.Chemscore.Hbond>
2.0000

> <Gold.PLP.Chemscore.CHOScore>
0.0000

> <Gold.PLP.Chemscore.Metal>
0.0000

> <Gold.Chemscore.Hbonds>
donor molecule, donor type, donor heavy atom, donor atom, acceptor molecule, acceptor atom, score
      P1  H  6896  6909       L1    18  0.60
      P1  H  7997  8008       L1     2  1.00

> <Gold.PLP.Chemscore.Internal.Correction>
0.1060

> <Gold.Rescore>
     Score         DG    S(hbond)    S(metal)    S(lipo)     H(rot)  DE(clash)    DE(int)     intcor
     13.04     -19.66       1.80        0.00     101.17       1.44       3.50       3.12       ----

> <Gold.Chemscore.Fitness>
13.0400

> <Gold.Chemscore.DG>
-19.6624

> <Gold.Chemscore.ZeroCoef>
-5.4800

> <Gold.Chemscore.Hbond>
1.8037

> <Gold.Chemscore.Metal>
0.0000

> <Gold.Chemscore.Lipo>
101.1729

> <Gold.Chemscore.Internal_Hbond>
0.0000

> <Gold.Chemscore.DEClash>
3.5050

> <Gold.Chemscore.DEInternal>
3.1174

> <Gold.Chemscore.Rot>
1.4372

> <Gold.Chemscore.Internal.Correction>
   9.000000E+99

> <Gold.Chemscore.Hbonds>
donor molecule, donor type, donor heavy atom, donor atom, acceptor molecule, acceptor atom, score
      P1  H  6896  6909       L1    18  0.04
      P1  H  7997  8008       L1     2  0.20

> <Gold.Chemscore.Hbond.Weighted>
-6.0245

> <Gold.Chemscore.Metal.Weighted>
-0.0000

> <Gold.Chemscore.Lipo.Weighted>
-11.8372

> <Gold.Chemscore.Internal_Hbond.Weighted>
0.0000

> <Gold.Chemscore.DEClash.Weighted>
3.5050

> <Gold.Chemscore.DEInternal.Weighted>
3.1174

> <Gold.Chemscore.Rot.Weighted>
3.6793

> <Gold.Chemscore.Internal.Correction.Weighted>
   9.000000E+99

> <Gold.Protein.RotatedTorsions>
[ 6907 6896 6895 6894 ] final  145.04 input  -60.11 | X-H torsion
[ 7974 7965 7964 7962 ] final  -63.31 input  175.53 | X-H torsion
[ 8008 7997 7996 7995 ] final  -51.54 input   59.86 | X-H torsion
[ 10167 10162 10161 10158 ] final  -54.76 input  -65.29 | X-H torsion
[ 10718 10713 10712 10709 ] final   80.29 input   66.30 | X-H torsion
[ 10763 10752 10751 10750 ] final   69.72 input  -60.55 | X-H torsion
[ 11005 11000 10999 10996 ] final  -85.26 input  -57.11 | X-H torsion

> <Gold.Protein.ActiveResidues>
 VAL166  LYS551  ARG553  GLY616  TRP617  ASP618  TYR619  PRO620  LYS621  CYS622 
 ASP623  PHE694  ASN695  SER759  ASP760  ASP761  ALA762  ILE779  LEU786  VAL792 
 PHE793  MET794  SER795  GLU796  ALA797  LYS798  CYS799  TRP800  GLU811  SER814 

> <Gold.Protein.RotatedAtoms>
  152.1860  133.4740  159.4982 H   0  0  0  0  0  0  0  0  0  0  0  0  # atno 6907 bound_to 6896
  150.6942  134.1773  159.4244 H   0  0  0  0  0  0  0  0  0  0  0  0  # atno 6908 bound_to 6896
  151.9686  135.0088  160.0602 H   0  0  0  0  0  0  0  0  0  0  0  0  # atno 6909 bound_to 6896
  145.7806  140.8764  143.0332 H   0  0  0  0  0  0  0  0  0  0  0  0  # atno 7974 bound_to 7965
  154.4085  140.1245  156.4846 H   0  0  0  0  0  0  0  0  0  0  0  0  # atno 8008 bound_to 7997
  155.7051  140.3494  155.4930 H   0  0  0  0  0  0  0  0  0  0  0  0  # atno 8009 bound_to 7997
  155.9350  140.1076  157.1092 H   0  0  0  0  0  0  0  0  0  0  0  0  # atno 8010 bound_to 7997
  140.6412  143.2509  151.4983 H   0  0  0  0  0  0  0  0  0  0  0  0  # atno 10167 bound_to 10162
  157.6802  130.9953  150.2058 H   0  0  0  0  0  0  0  0  0  0  0  0  # atno 10718 bound_to 10713
  153.0302  135.5200  154.7332 H   0  0  0  0  0  0  0  0  0  0  0  0  # atno 10763 bound_to 10752
  154.6353  135.2905  155.0170 H   0  0  0  0  0  0  0  0  0  0  0  0  # atno 10764 bound_to 10752
  154.1107  135.6622  153.4937 H   0  0  0  0  0  0  0  0  0  0  0  0  # atno 10765 bound_to 10752
  141.1643  133.7390  156.8988 H   0  0  0  0  0  0  0  0  0  0  0  0  # atno 11005 bound_to 11000
  144.6797  139.9983  143.7484 LP  0  0  0  0  0  0  0  0  0  0  0  0  # atno 17320 bound_to 7965
  146.0078  139.3144  143.0888 LP  0  0  0  0  0  0  0  0  0  0  0  0  # atno 17321 bound_to 7965
  139.5622  144.2129  152.1709 LP  0  0  0  0  0  0  0  0  0  0  0  0  # atno 17342 bound_to 10162
  140.1401  144.5210  150.6749 LP  0  0  0  0  0  0  0  0  0  0  0  0  # atno 17343 bound_to 10162
  156.2739  130.3725  149.8003 LP  0  0  0  0  0  0  0  0  0  0  0  0  # atno 17370 bound_to 10713
  156.5712  130.8425  151.3357 LP  0  0  0  0  0  0  0  0  0  0  0  0  # atno 17371 bound_to 10713
  140.1597  134.9174  157.2699 LP  0  0  0  0  0  0  0  0  0  0  0  0  # atno 17394 bound_to 11000
  140.2626  134.3553  155.7401 LP  0  0  0  0  0  0  0  0  0  0  0  0  # atno 17395 bound_to 11000

$$$$
