AV-unprocessed.smi:1262|AV-procd|sdf|5309|dock7
  -GOLD-   22720 4433D 1   1.00000     0.00000
 Structure written by MMmdl.
 34 35  0  0  0  0  0  0  0  0  1 V2000
  146.8100  138.6678  152.4212 C   0  0  0  0  0  0  0  0  0  0  0  0
  147.1658  139.9003  153.1991 C   0  0  0  0  0  0  0  0  0  0  0  0
  148.2941  140.1093  154.0444 C   0  0  0  0  0  0  0  0  0  0  0  0
  148.1088  141.3923  154.4823 C   0  0  0  0  0  0  0  0  0  0  0  0
  148.8822  142.1299  155.3227 N   0  0  0  0  0  0  0  0  0  0  0  0
  149.9116  141.7276  156.0886 C   0  0  0  0  0  0  0  0  0  0  0  0
  150.3418  140.5761  156.1603 O   0  0  0  0  0  0  0  0  0  0  0  0
  150.4264  142.7522  156.7832 N   0  0  0  0  0  0  0  0  0  0  0  0
  151.5446  142.6554  157.7142 C   0  0  0  0  0  0  0  0  0  0  0  0
  151.9107  144.0207  158.2913 C   0  0  0  0  0  0  0  0  0  0  0  0
  152.6531  144.1113  159.6334 C   0  0  0  0  0  0  0  0  0  0  0  0
  151.8583  145.3847  159.9345 C   0  0  0  0  0  0  0  0  0  0  0  0
  150.8176  144.8939  158.9244 C   0  0  0  0  0  0  0  0  0  0  0  0
  146.9509  141.8891  153.9263 N   0  0  0  0  0  0  0  0  0  0  0  0
  146.3368  143.1924  154.0886 C   0  0  0  0  0  0  0  0  0  0  0  0
  146.3709  140.9624  153.1332 N   0  0  0  0  0  0  0  0  0  0  0  0
  147.5179  137.8618  152.6148 H   0  0  0  0  0  0  0  0  0  0  0  0
  146.8176  138.8654  151.3491 H   0  0  0  0  0  0  0  0  0  0  0  0
  145.8165  138.3070  152.6882 H   0  0  0  0  0  0  0  0  0  0  0  0
  149.0921  139.4201  154.2762 H   0  0  0  0  0  0  0  0  0  0  0  0
  148.6480  143.1103  155.3727 H   0  0  0  0  0  0  0  0  0  0  0  0
  150.0121  143.6651  156.6650 H   0  0  0  0  0  0  0  0  0  0  0  0
  151.3070  141.9503  158.5122 H   0  0  0  0  0  0  0  0  0  0  0  0
  152.3926  142.2308  157.1766 H   0  0  0  0  0  0  0  0  0  0  0  0
  152.4464  144.6232  157.5543 H   0  0  0  0  0  0  0  0  0  0  0  0
  152.4073  143.2915  160.3106 H   0  0  0  0  0  0  0  0  0  0  0  0
  153.7309  144.2531  159.5488 H   0  0  0  0  0  0  0  0  0  0  0  0
  151.4974  145.4675  160.9601 H   0  0  0  0  0  0  0  0  0  0  0  0
  152.3711  146.2911  159.6083 H   0  0  0  0  0  0  0  0  0  0  0  0
  150.4159  145.6675  158.2692 H   0  0  0  0  0  0  0  0  0  0  0  0
  150.0227  144.3091  159.3904 H   0  0  0  0  0  0  0  0  0  0  0  0
  147.0482  143.9698  153.8088 H   0  0  0  0  0  0  0  0  0  0  0  0
  146.0457  143.3318  155.1299 H   0  0  0  0  0  0  0  0  0  0  0  0
  145.4509  143.2818  153.4585 H   0  0  0  0  0  0  0  0  0  0  0  0
  1  2  1  0  0  0  0
  1 17  1  0  0  0  0
  1 18  1  0  0  0  0
  1 19  1  0  0  0  0
  2 16  2  0  0  0  0
  2  3  1  0  0  0  0
  3  4  2  0  0  0  0
  3 20  1  0  0  0  0
  4  5  1  0  0  0  0
  4 14  1  0  0  0  0
  5  6  1  0  0  0  0
  5 21  1  0  0  0  0
  6  7  2  0  0  0  0
  6  8  1  0  0  0  0
  8  9  1  0  0  0  0
  8 22  1  0  0  0  0
  9 10  1  0  0  0  0
  9 23  1  0  0  0  0
  9 24  1  0  0  0  0
 10 13  1  0  0  0  0
 10 11  1  0  0  0  0
 10 25  1  0  0  0  0
 11 12  1  0  0  0  0
 11 26  1  0  0  0  0
 11 27  1  0  0  0  0
 12 13  1  0  0  0  0
 12 28  1  0  0  0  0
 12 29  1  0  0  0  0
 13 30  1  0  0  0  0
 13 31  1  0  0  0  0
 14 15  1  0  0  0  0
 14 16  1  0  0  0  0
 15 32  1  0  0  0  0
 15 33  1  0  0  0  0
 15 34  1  0  0  0  0
M  END
> <s_m_source_file>
AV-unprocessed.smi

> <i_m_source_file_index>
1262

> <i_lp_mmshare_version>
43012

> <i_f3d_flags>
0

> <s_epik_input>
W0NIM11jMVtjSF1jKG4objEpW0NIM10pW05IXUMoPU8pW05IXVtDSDJdW0NIXTJbQ0gyXVtDSDJdW0NIMl0y

> <s_epik_cmdline>
J2VwaWtfcHl0aG9uJywgJy1waCcsICc3LjAnLCAnLXRuJywgJzgnLCAnLW1hJywgJzIwMCcsICctbWV0YWxfYmluZGluZycsICctaW1hZScsICc8aW5maWxlLm1hZT4nLCAnLW9tYWUnLCAnPG91dGZpbGUubWFlPic=

> <r_lp_tautomer_probability>
1

> <r_epik_Ionization_Penalty>
9.92667e-05

> <r_epik_Ionization_Penalty_Charging>
0

> <r_epik_Ionization_Penalty_Neutral>
9.92667e-05

> <r_epik_State_Penalty>
-0

> <r_epik_Charging_Adjusted_Penalty>
0

> <i_epik_Tot_Q>
0

> <i_epik_Tot_abs_Q>
0

> <r_epik_Metal_State_Penalty>
-0

> <b_epik_Metal_Only>
0

> <s_lp_Force_Field>
OPLS_2005

> <r_lp_Energy>
13.5599

> <b_lp_Chiralities_Consistent>
1

> <s_lp_Variant>
AV-unprocessed.smi:1262-1

> <Gold.Version>
5.8.1

> <Gold.Id.Protein>
6NUR|6NUR_protein|mol2

> <Gold.PLP.Fitness>
43.0575

> <Gold.PLP.PLP>
-37.5066

> <Gold.PLP.part.hbond>
-2.0000

> <Gold.PLP.part.metal>
0.0000

> <Gold.PLP.part.buried>
-4.3727

> <Gold.PLP.part.nonpolar>
-34.2191

> <Gold.PLP.part.repulsive>
2.4856

> <Gold.PLP.ligand.clash>
0.0000

> <Gold.PLP.ligand.torsion>
0.1691

> <Gold.PLP.Chemscore.Hbond>
1.9440

> <Gold.PLP.Chemscore.CHOScore>
0.0000

> <Gold.PLP.Chemscore.Metal>
0.0000

> <Gold.Chemscore.Hbonds>
donor molecule, donor type, donor heavy atom, donor atom, acceptor molecule, acceptor atom, score
      L1  H     5    21       P1  8028  1.00
      L1  H     8    22       P1  8028  0.94

> <Gold.PLP.Chemscore.Internal.Correction>
0.0571

> <Gold.Rescore>
     Score         DG    S(hbond)    S(metal)    S(lipo)     H(rot)  DE(clash)    DE(int)     intcor
     16.80     -19.48       1.92        0.00      91.19       1.21       1.40       1.27       ----

> <Gold.Chemscore.Fitness>
16.8041

> <Gold.Chemscore.DG>
-19.4792

> <Gold.Chemscore.ZeroCoef>
-5.4800

> <Gold.Chemscore.Hbond>
1.9247

> <Gold.Chemscore.Metal>
0.0000

> <Gold.Chemscore.Lipo>
91.1877

> <Gold.Chemscore.Internal_Hbond>
0.0000

> <Gold.Chemscore.DEClash>
1.4028

> <Gold.Chemscore.DEInternal>
1.2722

> <Gold.Chemscore.Rot>
1.2103

> <Gold.Chemscore.Internal.Correction>
   9.000000E+99

> <Gold.Chemscore.Hbonds>
donor molecule, donor type, donor heavy atom, donor atom, acceptor molecule, acceptor atom, score
      L1  H     5    21       P1  8028  0.99
      L1  H     8    22       P1  8028  0.91

> <Gold.Chemscore.Hbond.Weighted>
-6.4286

> <Gold.Chemscore.Metal.Weighted>
-0.0000

> <Gold.Chemscore.Lipo.Weighted>
-10.6690

> <Gold.Chemscore.Internal_Hbond.Weighted>
0.0000

> <Gold.Chemscore.DEClash.Weighted>
1.4028

> <Gold.Chemscore.DEInternal.Weighted>
1.2722

> <Gold.Chemscore.Rot.Weighted>
3.0984

> <Gold.Chemscore.Internal.Correction.Weighted>
   9.000000E+99

> <Gold.Protein.RotatedTorsions>
[ 6907 6896 6895 6894 ] final  -49.55 input  -60.11 | X-H torsion
[ 7974 7965 7964 7962 ] final  121.24 input  175.53 | X-H torsion
[ 8008 7997 7996 7995 ] final   16.76 input   59.86 | X-H torsion
[ 10167 10162 10161 10158 ] final  -39.49 input  -65.29 | X-H torsion
[ 10718 10713 10712 10709 ] final  -68.33 input   66.30 | X-H torsion
[ 10763 10752 10751 10750 ] final  163.16 input  -60.55 | X-H torsion
[ 11005 11000 10999 10996 ] final -159.84 input  -57.11 | X-H torsion

> <Gold.Protein.ActiveResidues>
 VAL166  LYS551  ARG553  GLY616  TRP617  ASP618  TYR619  PRO620  LYS621  CYS622 
 ASP623  PHE694  ASN695  SER759  ASP760  ASP761  ALA762  ILE779  LEU786  VAL792 
 PHE793  MET794  SER795  GLU796  ALA797  LYS798  CYS799  TRP800  GLU811  SER814 

> <Gold.Protein.RotatedAtoms>
  150.8795  134.8183  159.7213 H   0  0  0  0  0  0  0  0  0  0  0  0  # atno 6907 bound_to 6896
  152.4768  134.4819  159.9678 H   0  0  0  0  0  0  0  0  0  0  0  0  # atno 6908 bound_to 6896
  151.4896  133.3489  159.2886 H   0  0  0  0  0  0  0  0  0  0  0  0  # atno 6909 bound_to 6896
  145.1216  139.3385  143.4711 H   0  0  0  0  0  0  0  0  0  0  0  0  # atno 7974 bound_to 7965
  154.8816  140.2973  155.5422 H   0  0  0  0  0  0  0  0  0  0  0  0  # atno 8008 bound_to 7997
  156.3022  140.2441  156.3753 H   0  0  0  0  0  0  0  0  0  0  0  0  # atno 8009 bound_to 7997
  154.8712  140.0401  157.1714 H   0  0  0  0  0  0  0  0  0  0  0  0  # atno 8010 bound_to 7997
  140.7062  143.3211  151.2790 H   0  0  0  0  0  0  0  0  0  0  0  0  # atno 10167 bound_to 10162
  156.0511  130.4293  150.1985 H   0  0  0  0  0  0  0  0  0  0  0  0  # atno 10718 bound_to 10713
  154.2895  135.2761  155.2661 H   0  0  0  0  0  0  0  0  0  0  0  0  # atno 10763 bound_to 10752
  154.5147  135.5773  153.6636 H   0  0  0  0  0  0  0  0  0  0  0  0  # atno 10764 bound_to 10752
  152.9916  135.6189  154.3058 H   0  0  0  0  0  0  0  0  0  0  0  0  # atno 10765 bound_to 10752
  140.6381  134.4580  157.5232 H   0  0  0  0  0  0  0  0  0  0  0  0  # atno 11005 bound_to 11000
  146.3520  140.1178  142.8601 LP  0  0  0  0  0  0  0  0  0  0  0  0  # atno 17320 bound_to 7965
  145.0734  140.9171  143.4868 LP  0  0  0  0  0  0  0  0  0  0  0  0  # atno 17321 bound_to 7965
  139.6665  144.0096  152.2726 LP  0  0  0  0  0  0  0  0  0  0  0  0  # atno 17342 bound_to 10162
  139.9680  144.6513  150.8016 LP  0  0  0  0  0  0  0  0  0  0  0  0  # atno 17343 bound_to 10162
  157.0068  130.9939  151.3376 LP  0  0  0  0  0  0  0  0  0  0  0  0  # atno 17370 bound_to 10713
  157.5437  130.8137  149.8060 LP  0  0  0  0  0  0  0  0  0  0  0  0  # atno 17371 bound_to 10713
  139.9090  134.8385  156.1597 LP  0  0  0  0  0  0  0  0  0  0  0  0  # atno 17394 bound_to 11000
  141.0626  133.6834  156.1983 LP  0  0  0  0  0  0  0  0  0  0  0  0  # atno 17395 bound_to 11000

$$$$
