AV-unprocessed.smi:1152|AV-procd|sdf|4898|dock1
  -GOLD-   22720 3473D 1   1.00000     0.00000
 Structure written by MMmdl.
 31 32  0  0  0  0  0  0  0  0  2 V2000
  155.0003  144.2106  168.8048 C   0  0  0  0  0  0  0  0  0  0  0  0
  155.0336  143.2404  167.7200 N   0  0  0  0  0  0  0  0  0  0  0  0
  154.9125  143.5356  166.4187 C   0  0  0  0  0  0  0  0  0  0  0  0
  154.7594  144.7105  166.0788 O   0  0  0  0  0  0  0  0  0  0  0  0
  154.9787  142.4432  165.6150 N   0  5  0  0  0  0  0  0  0  0  0  0
  154.5494  142.3829  164.3342 C   0  0  0  0  0  0  0  0  0  0  0  0
  155.0098  141.5576  163.3759 N   0  0  0  0  0  0  0  0  0  0  0  0
  154.3794  141.7198  162.1527 N   0  0  0  0  0  0  0  0  0  0  0  0
  153.4423  142.6695  162.1915 C   0  0  0  0  0  0  0  0  0  0  0  0
  152.6092  143.0478  161.0069 C   0  0  0  0  0  0  0  0  0  0  0  0
  153.4467  143.2133  159.7238 C   0  0  0  0  0  0  0  0  0  0  0  0
  152.5599  143.5596  158.5164 C   0  0  0  0  0  0  0  0  0  0  0  0
  151.6968  144.8011  158.7940 C   0  0  0  0  0  0  0  0  0  0  0  0
  150.8443  144.6145  160.0595 C   0  0  0  0  0  0  0  0  0  0  0  0
  151.7186  144.2758  161.2782 C   0  0  0  0  0  0  0  0  0  0  0  0
  153.2650  143.4441  163.7562 S   0  0  0  0  0  0  0  0  0  0  0  0
  155.1210  143.7021  169.7611 H   0  0  0  0  0  0  0  0  0  0  0  0
  154.0489  144.7438  168.8190 H   0  0  0  0  0  0  0  0  0  0  0  0
  155.8069  144.9372  168.6999 H   0  0  0  0  0  0  0  0  0  0  0  0
  155.1578  142.2706  167.9712 H   0  0  0  0  0  0  0  0  0  0  0  0
  151.9353  142.2077  160.8319 H   0  0  0  0  0  0  0  0  0  0  0  0
  154.1880  144.0009  159.8654 H   0  0  0  0  0  0  0  0  0  0  0  0
  154.0029  142.2976  159.5196 H   0  0  0  0  0  0  0  0  0  0  0  0
  153.1811  143.7274  157.6362 H   0  0  0  0  0  0  0  0  0  0  0  0
  151.9147  142.7120  158.2818 H   0  0  0  0  0  0  0  0  0  0  0  0
  152.3396  145.6745  158.9115 H   0  0  0  0  0  0  0  0  0  0  0  0
  151.0521  145.0040  157.9384 H   0  0  0  0  0  0  0  0  0  0  0  0
  150.2678  145.5186  160.2566 H   0  0  0  0  0  0  0  0  0  0  0  0
  150.1196  143.8157  159.8965 H   0  0  0  0  0  0  0  0  0  0  0  0
  151.0834  144.0928  162.1456 H   0  0  0  0  0  0  0  0  0  0  0  0
  152.3415  145.1364  161.5264 H   0  0  0  0  0  0  0  0  0  0  0  0
  1  2  1  0  0  0  0
  1 17  1  0  0  0  0
  1 18  1  0  0  0  0
  1 19  1  0  0  0  0
  2  3  1  0  0  0  0
  2 20  1  0  0  0  0
  3  4  2  0  0  0  0
  3  5  1  0  0  0  0
  5  6  1  0  0  0  0
  6 16  1  0  0  0  0
  6  7  2  0  0  0  0
  7  8  1  0  0  0  0
  8  9  2  0  0  0  0
  9 10  1  0  0  0  0
  9 16  1  0  0  0  0
 10 15  1  0  0  0  0
 10 11  1  0  0  0  0
 10 21  1  0  0  0  0
 11 12  1  0  0  0  0
 11 22  1  0  0  0  0
 11 23  1  0  0  0  0
 12 13  1  0  0  0  0
 12 24  1  0  0  0  0
 12 25  1  0  0  0  0
 13 14  1  0  0  0  0
 13 26  1  0  0  0  0
 13 27  1  0  0  0  0
 14 15  1  0  0  0  0
 14 28  1  0  0  0  0
 14 29  1  0  0  0  0
 15 30  1  0  0  0  0
 15 31  1  0  0  0  0
M  CHG  1   5  -1
M  END
> <s_m_source_file>
AV-unprocessed.smi

> <i_m_source_file_index>
1152

> <i_lp_mmshare_version>
43012

> <i_f3d_flags>
0

> <s_epik_input>
W0NIM11bTkhdQyg9TylbTkhdYzFubmMoczEpW0NIXTJbQ0gyXVtDSDJdW0NIMl1bQ0gyXVtDSDJdMg==

> <s_epik_cmdline>
J2VwaWtfcHl0aG9uJywgJy1waCcsICc3LjAnLCAnLXRuJywgJzgnLCAnLW1hJywgJzIwMCcsICctbWV0YWxfYmluZGluZycsICctaW1hZScsICc8aW5maWxlLm1hZT4nLCAnLW9tYWUnLCAnPG91dGZpbGUubWFlPic=

> <r_lp_tautomer_probability>
1

> <r_epik_Ionization_Penalty>
4.62071

> <r_epik_Ionization_Penalty_Charging>
4.36597

> <r_epik_Ionization_Penalty_Neutral>
0.254736

> <r_epik_State_Penalty>
4.3656

> <r_epik_Charging_Adjusted_Penalty>
8.73157

> <i_epik_Tot_Q>
-1

> <i_epik_Tot_abs_Q>
1

> <r_epik_Metal_State_Penalty>
0.756176

> <b_epik_Metal_Only>
1

> <s_lp_Force_Field>
OPLS_2005

> <r_lp_Energy>
5.71757

> <b_lp_Chiralities_Consistent>
1

> <s_lp_Variant>
AV-unprocessed.smi:1152-2

> <Gold.Version>
5.8.1

> <Gold.Id.Protein>
6NUR|6NUR_protein|mol2

> <Gold.PLP.Fitness>
44.2514

> <Gold.PLP.PLP>
-45.0640

> <Gold.PLP.part.hbond>
-3.0000

> <Gold.PLP.part.metal>
0.0000

> <Gold.PLP.part.buried>
-6.8171

> <Gold.PLP.part.nonpolar>
-34.5792

> <Gold.PLP.part.repulsive>
0.1554

> <Gold.PLP.ligand.clash>
0.0000

> <Gold.PLP.ligand.torsion>
0.4372

> <Gold.PLP.Chemscore.Hbond>
0.0000

> <Gold.PLP.Chemscore.CHOScore>
0.0000

> <Gold.PLP.Chemscore.Metal>
0.0000

> <Gold.PLP.Chemscore.Internal.Correction>
0.0617

> <Gold.Rescore>
     Score         DG    S(hbond)    S(metal)    S(lipo)     H(rot)  DE(clash)    DE(int)     intcor
     13.24     -14.58       0.00        0.00      99.68       1.00       0.09       1.25       ----

> <Gold.Chemscore.Fitness>
13.2428

> <Gold.Chemscore.DG>
-14.5824

> <Gold.Chemscore.ZeroCoef>
-5.4800

> <Gold.Chemscore.Hbond>
0.0000

> <Gold.Chemscore.Metal>
0.0000

> <Gold.Chemscore.Lipo>
99.6787

> <Gold.Chemscore.Internal_Hbond>
0.0000

> <Gold.Chemscore.DEClash>
0.0875

> <Gold.Chemscore.DEInternal>
1.2521

> <Gold.Chemscore.Rot>
1.0000

> <Gold.Chemscore.Internal.Correction>
   9.000000E+99

> <Gold.Chemscore.Hbond.Weighted>
-0.0000

> <Gold.Chemscore.Metal.Weighted>
-0.0000

> <Gold.Chemscore.Lipo.Weighted>
-11.6624

> <Gold.Chemscore.Internal_Hbond.Weighted>
0.0000

> <Gold.Chemscore.DEClash.Weighted>
0.0875

> <Gold.Chemscore.DEInternal.Weighted>
1.2521

> <Gold.Chemscore.Rot.Weighted>
2.5600

> <Gold.Chemscore.Internal.Correction.Weighted>
   9.000000E+99

> <Gold.Protein.RotatedTorsions>
[ 6907 6896 6895 6894 ] final -160.00 input  -60.11 | X-H torsion
[ 7974 7965 7964 7962 ] final -174.85 input  175.53 | X-H torsion
[ 8008 7997 7996 7995 ] final  121.40 input   59.86 | X-H torsion
[ 10167 10162 10161 10158 ] final   41.38 input  -65.29 | X-H torsion
[ 10718 10713 10712 10709 ] final   99.97 input   66.30 | X-H torsion
[ 10763 10752 10751 10750 ] final  -39.94 input  -60.55 | X-H torsion
[ 11005 11000 10999 10996 ] final  -78.07 input  -57.11 | X-H torsion

> <Gold.Protein.ActiveResidues>
 VAL166  LYS551  ARG553  GLY616  TRP617  ASP618  TYR619  PRO620  LYS621  CYS622 
 ASP623  PHE694  ASN695  SER759  ASP760  ASP761  ALA762  ILE779  LEU786  VAL792 
 PHE793  MET794  SER795  GLU796  ALA797  LYS798  CYS799  TRP800  GLU811  SER814 

> <Gold.Protein.RotatedAtoms>
  151.3423  133.3957  159.2672 H   0  0  0  0  0  0  0  0  0  0  0  0  # atno 6907 bound_to 6896
  150.9868  134.9212  159.7887 H   0  0  0  0  0  0  0  0  0  0  0  0  # atno 6908 bound_to 6896
  152.5235  134.3387  159.9262 H   0  0  0  0  0  0  0  0  0  0  0  0  # atno 6909 bound_to 6896
  144.7130  140.1409  143.6392 H   0  0  0  0  0  0  0  0  0  0  0  0  # atno 7974 bound_to 7965
  156.2684  140.2809  156.1302 H   0  0  0  0  0  0  0  0  0  0  0  0  # atno 8008 bound_to 7997
  155.1063  140.0390  157.2729 H   0  0  0  0  0  0  0  0  0  0  0  0  # atno 8009 bound_to 7997
  154.6777  140.2602  155.6947 H   0  0  0  0  0  0  0  0  0  0  0  0  # atno 8010 bound_to 7997
  140.3649  144.2180  150.6136 H   0  0  0  0  0  0  0  0  0  0  0  0  # atno 10167 bound_to 10162
  157.6864  131.0685  150.5029 H   0  0  0  0  0  0  0  0  0  0  0  0  # atno 10718 bound_to 10713
  153.9377  135.6765  153.4744 H   0  0  0  0  0  0  0  0  0  0  0  0  # atno 10763 bound_to 10752
  153.0947  135.4857  154.8753 H   0  0  0  0  0  0  0  0  0  0  0  0  # atno 10764 bound_to 10752
  154.7394  135.3157  154.8713 H   0  0  0  0  0  0  0  0  0  0  0  0  # atno 10765 bound_to 10752
  141.1663  133.7048  156.7916 H   0  0  0  0  0  0  0  0  0  0  0  0  # atno 11005 bound_to 11000
  145.9202  139.2541  143.1386 LP  0  0  0  0  0  0  0  0  0  0  0  0  # atno 17320 bound_to 7965
  145.9628  140.8822  143.0202 LP  0  0  0  0  0  0  0  0  0  0  0  0  # atno 17321 bound_to 7965
  140.5090  143.2296  151.8563 LP  0  0  0  0  0  0  0  0  0  0  0  0  # atno 17342 bound_to 10162
  139.4810  144.4971  151.9109 LP  0  0  0  0  0  0  0  0  0  0  0  0  # atno 17343 bound_to 10162
  156.5350  130.4194  149.6182 LP  0  0  0  0  0  0  0  0  0  0  0  0  # atno 17370 bound_to 10713
  156.3036  130.7190  151.2067 LP  0  0  0  0  0  0  0  0  0  0  0  0  # atno 17371 bound_to 10713
  140.2321  134.8678  157.3487 LP  0  0  0  0  0  0  0  0  0  0  0  0  # atno 17394 bound_to 11000
  140.1880  134.4406  155.7732 LP  0  0  0  0  0  0  0  0  0  0  0  0  # atno 17395 bound_to 11000

$$$$
