AV-unprocessed.smi:356|AV-procd|sdf|2411|dock2
  -GOLD-   2262022343D 1   1.00000     0.00000
 Structure written by MMmdl.
 42 44  0  0  0  0  0  0  0  0  2 V2000
  151.4009  140.3398  156.0985 C   0  0  0  0  0  0  0  0  0  0  0  0
  151.9329  140.7498  157.4350 C   0  0  0  0  0  0  0  0  0  0  0  0
  152.8527  140.0356  158.0834 N   0  0  0  0  0  0  0  0  0  0  0  0
  153.0455  140.7678  159.2390 C   0  0  0  0  0  0  0  0  0  0  0  0
  153.8982  140.5358  160.3420 C   0  0  0  0  0  0  0  0  0  0  0  0
  153.9252  141.4381  161.4255 C   0  0  0  0  0  0  0  0  0  0  0  0
  153.1016  142.5825  161.4225 C   0  0  0  0  0  0  0  0  0  0  0  0
  152.2439  142.8323  160.3341 C   0  0  0  0  0  0  0  0  0  0  0  0
  152.2204  141.9285  159.2547 C   0  0  0  0  0  0  0  0  0  0  0  0
  151.5075  141.8751  158.0603 N   0  0  0  0  0  0  0  0  0  0  0  0
  150.5159  142.8368  157.5977 C   0  0  0  0  0  0  0  0  0  0  0  0
  149.5169  143.2412  158.7007 C   0  0  1  0  0  0  0  0  0  0  0  0
  149.5703  144.6413  158.8990 O   0  0  0  0  0  0  0  0  0  0  0  0
  148.0720  142.8490  158.3349 C   0  0  0  0  0  0  0  0  0  0  0  0
  147.0734  143.8379  158.8160 N   0  3  0  0  0  0  0  0  0  0  0  0
  145.7303  143.6216  158.2273 C   0  0  0  0  0  0  0  0  0  0  0  0
  144.7524  144.7086  158.7045 C   0  0  0  0  0  0  0  0  0  0  0  0
  144.6988  144.7115  160.1255 O   0  0  0  0  0  0  0  0  0  0  0  0
  145.9642  145.0026  160.7057 C   0  0  0  0  0  0  0  0  0  0  0  0
  146.9815  143.9244  160.2948 C   0  0  0  0  0  0  0  0  0  0  0  0
  151.8471  139.3961  155.7829 H   0  0  0  0  0  0  0  0  0  0  0  0
  151.6360  141.0963  155.3497 H   0  0  0  0  0  0  0  0  0  0  0  0
  150.3199  140.2083  156.1431 H   0  0  0  0  0  0  0  0  0  0  0  0
  154.5319  139.6614  160.3549 H   0  0  0  0  0  0  0  0  0  0  0  0
  154.5808  141.2513  162.2633 H   0  0  0  0  0  0  0  0  0  0  0  0
  153.1282  143.2682  162.2570 H   0  0  0  0  0  0  0  0  0  0  0  0
  151.6111  143.7068  160.3317 H   0  0  0  0  0  0  0  0  0  0  0  0
  151.0377  143.7162  157.2179 H   0  0  0  0  0  0  0  0  0  0  0  0
  149.9860  142.4118  156.7448 H   0  0  0  0  0  0  0  0  0  0  0  0
  149.8127  142.7596  159.6315 H   0  0  0  0  0  0  0  0  0  0  0  0
  149.2107  145.0694  158.1369 H   0  0  0  0  0  0  0  0  0  0  0  0
  148.0030  142.7575  157.2495 H   0  0  0  0  0  0  0  0  0  0  0  0
  147.8271  141.8652  158.7384 H   0  0  0  0  0  0  0  0  0  0  0  0
  145.7944  143.6417  157.1388 H   0  0  0  0  0  0  0  0  0  0  0  0
  145.3607  142.6347  158.5104 H   0  0  0  0  0  0  0  0  0  0  0  0
  145.0522  145.6914  158.3367 H   0  0  0  0  0  0  0  0  0  0  0  0
  143.7538  144.5136  158.3133 H   0  0  0  0  0  0  0  0  0  0  0  0
  146.3006  145.9939  160.3975 H   0  0  0  0  0  0  0  0  0  0  0  0
  145.8588  145.0255  161.7905 H   0  0  0  0  0  0  0  0  0  0  0  0
  146.6809  142.9574  160.7012 H   0  0  0  0  0  0  0  0  0  0  0  0
  147.9522  144.1641  160.7269 H   0  0  0  0  0  0  0  0  0  0  0  0
  147.3858  144.7399  158.4846 H   0  0  0  0  0  0  0  0  0  0  0  0
  1  2  1  0  0  0  0
  1 21  1  0  0  0  0
  1 22  1  0  0  0  0
  1 23  1  0  0  0  0
  2 10  1  0  0  0  0
  2  3  2  0  0  0  0
  3  4  1  0  0  0  0
  4  9  2  0  0  0  0
  4  5  1  0  0  0  0
  5  6  2  0  0  0  0
  5 24  1  0  0  0  0
  6  7  1  0  0  0  0
  6 25  1  0  0  0  0
  7  8  2  0  0  0  0
  7 26  1  0  0  0  0
  8  9  1  0  0  0  0
  8 27  1  0  0  0  0
  9 10  1  0  0  0  0
 10 11  1  0  0  0  0
 11 12  1  0  0  0  0
 11 28  1  0  0  0  0
 11 29  1  0  0  0  0
 12 13  1  0  0  0  0
 12 14  1  0  0  0  0
 12 30  1  0  0  0  0
 13 31  1  0  0  0  0
 14 15  1  0  0  0  0
 14 32  1  0  0  0  0
 14 33  1  0  0  0  0
 15 20  1  0  0  0  0
 15 16  1  0  0  0  0
 15 42  1  0  0  0  0
 16 17  1  0  0  0  0
 16 34  1  0  0  0  0
 16 35  1  0  0  0  0
 17 18  1  0  0  0  0
 17 36  1  0  0  0  0
 17 37  1  0  0  0  0
 18 19  1  0  0  0  0
 19 20  1  0  0  0  0
 19 38  1  0  0  0  0
 19 39  1  0  0  0  0
 20 40  1  0  0  0  0
 20 41  1  0  0  0  0
M  CHG  1  15   1
M  END
> <s_m_source_file>
AV-unprocessed.smi

> <i_m_source_file_index>
356

> <i_lp_mmshare_version>
43012

> <i_f3d_flags>
0

> <s_epik_input>
W2NIXTFbY0hdW2NIXVtjSF1jKGMxMiluKGMobjIpW0NIM10pW0NIMl1bQ0BIXShbT0hdKVtDSDJdTjNbQ0gyXVtDSDJdT1tDSDJdW0NIMl0z

> <s_epik_cmdline>
J2VwaWtfcHl0aG9uJywgJy1waCcsICc3LjAnLCAnLXRuJywgJzgnLCAnLW1hJywgJzIwMCcsICctbWV0YWxfYmluZGluZycsICctaW1hZScsICc8aW5maWxlLm1hZT4nLCAnLW9tYWUnLCAnPG91dGZpbGUubWFlPic=

> <r_epik_Ionization_Penalty>
0.706388

> <r_epik_Ionization_Penalty_Charging>
0.608065

> <r_epik_Ionization_Penalty_Neutral>
0.0983237

> <r_epik_State_Penalty>
0.742533

> <r_epik_Charging_Adjusted_Penalty>
1.3506

> <i_epik_Tot_Q>
1

> <i_epik_Tot_abs_Q>
1

> <r_epik_Metal_State_Penalty>
0.651809

> <b_epik_Metal_Only>
0

> <s_lp_Force_Field>
OPLS_2005

> <r_lp_Energy>
21.7358

> <b_lp_Chiralities_Consistent>
1

> <s_lp_Variant>
AV-unprocessed.smi:356-4

> <Gold.Version>
5.8.1

> <Gold.Id.Protein>
6NUR|6NUR_protein|mol2

> <Gold.PLP.Fitness>
46.1262

> <Gold.PLP.PLP>
-36.9277

> <Gold.PLP.part.hbond>
-3.2380

> <Gold.PLP.part.metal>
0.0000

> <Gold.PLP.part.buried>
-3.8973

> <Gold.PLP.part.nonpolar>
-30.5518

> <Gold.PLP.part.repulsive>
0.1697

> <Gold.PLP.ligand.clash>
0.0000

> <Gold.PLP.ligand.torsion>
1.4677

> <Gold.PLP.Chemscore.Hbond>
4.0000

> <Gold.PLP.Chemscore.CHOScore>
0.0000

> <Gold.PLP.Chemscore.Metal>
0.0000

> <Gold.Chemscore.Hbonds>
donor molecule, donor type, donor heavy atom, donor atom, acceptor molecule, acceptor atom, score
      L1  H    13    31       P1  8029  1.00
      L1  H    15    42       P1  8029  2.00
      P1  H  7997  8008       L1     3  1.00

> <Gold.PLP.Chemscore.Internal.Correction>
0.1340

> <Gold.Rescore>
     Score         DG    S(hbond)    S(metal)    S(lipo)     H(rot)  DE(clash)    DE(int)     intcor
     17.80     -19.53       2.42        0.00      96.28       2.07       0.24       1.49       ----

> <Gold.Chemscore.Fitness>
17.8025

> <Gold.Chemscore.DG>
-19.5271

> <Gold.Chemscore.ZeroCoef>
-5.4800

> <Gold.Chemscore.Hbond>
2.4161

> <Gold.Chemscore.Metal>
0.0000

> <Gold.Chemscore.Lipo>
96.2843

> <Gold.Chemscore.Internal_Hbond>
0.0000

> <Gold.Chemscore.DEClash>
0.2375

> <Gold.Chemscore.DEInternal>
1.4871

> <Gold.Chemscore.Rot>
2.0656

> <Gold.Chemscore.Internal.Correction>
   9.000000E+99

> <Gold.Chemscore.Hbonds>
donor molecule, donor type, donor heavy atom, donor atom, acceptor molecule, acceptor atom, score
      L1  H    13    31       P1  8029  0.43
      L1  H    15    42       P1  8029  0.97
      P1  H  7997  8008       L1     3  0.35

> <Gold.Chemscore.Hbond.Weighted>
-8.0697

> <Gold.Chemscore.Metal.Weighted>
-0.0000

> <Gold.Chemscore.Lipo.Weighted>
-11.2653

> <Gold.Chemscore.Internal_Hbond.Weighted>
0.0000

> <Gold.Chemscore.DEClash.Weighted>
0.2375

> <Gold.Chemscore.DEInternal.Weighted>
1.4871

> <Gold.Chemscore.Rot.Weighted>
5.2879

> <Gold.Chemscore.Internal.Correction.Weighted>
   9.000000E+99

> <Gold.Protein.RotatedTorsions>
[ 6907 6896 6895 6894 ] final  114.61 input  -60.11 | X-H torsion
[ 7974 7965 7964 7962 ] final   39.97 input  175.53 | X-H torsion
[ 8008 7997 7996 7995 ] final  -72.56 input   59.86 | X-H torsion
[ 10167 10162 10161 10158 ] final  174.19 input  -65.29 | X-H torsion
[ 10718 10713 10712 10709 ] final -131.09 input   66.30 | X-H torsion
[ 10763 10752 10751 10750 ] final    9.70 input  -60.55 | X-H torsion
[ 11005 11000 10999 10996 ] final   34.24 input  -57.11 | X-H torsion

> <Gold.Protein.ActiveResidues>
 VAL166  LYS551  ARG553  GLY616  TRP617  ASP618  TYR619  PRO620  LYS621  CYS622 
 ASP623  PHE694  ASN695  SER759  ASP760  ASP761  ALA762  ILE779  LEU786  VAL792 
 PHE793  MET794  SER795  GLU796  ALA797  LYS798  CYS799  TRP800  GLU811  SER814 

> <Gold.Protein.RotatedAtoms>
  152.4792  133.8212  159.7054 H   0  0  0  0  0  0  0  0  0  0  0  0  # atno 6907 bound_to 6896
  150.8829  133.7338  159.2933 H   0  0  0  0  0  0  0  0  0  0  0  0  # atno 6908 bound_to 6896
  151.4836  135.1057  159.9836 H   0  0  0  0  0  0  0  0  0  0  0  0  # atno 6909 bound_to 6896
  146.0942  139.5588  142.9456 H   0  0  0  0  0  0  0  0  0  0  0  0  # atno 7974 bound_to 7965
  154.5176  140.0795  156.8110 H   0  0  0  0  0  0  0  0  0  0  0  0  # atno 8008 bound_to 7997
  155.3647  140.3420  155.4223 H   0  0  0  0  0  0  0  0  0  0  0  0  # atno 8009 bound_to 7997
  156.1645  140.1599  156.8543 H   0  0  0  0  0  0  0  0  0  0  0  0  # atno 8010 bound_to 7997
  139.5133  144.3175  152.0234 H   0  0  0  0  0  0  0  0  0  0  0  0  # atno 10167 bound_to 10162
  156.2209  130.6978  151.0755 H   0  0  0  0  0  0  0  0  0  0  0  0  # atno 10718 bound_to 10713
  153.2112  135.6869  153.8111 H   0  0  0  0  0  0  0  0  0  0  0  0  # atno 10763 bound_to 10752
  153.7343  135.3248  155.3293 H   0  0  0  0  0  0  0  0  0  0  0  0  # atno 10764 bound_to 10752
  154.8223  135.4643  154.0920 H   0  0  0  0  0  0  0  0  0  0  0  0  # atno 10765 bound_to 10752
  140.2548  134.3261  155.7877 H   0  0  0  0  0  0  0  0  0  0  0  0  # atno 11005 bound_to 11000
  145.5981  141.0359  143.2033 LP  0  0  0  0  0  0  0  0  0  0  0  0  # atno 17320 bound_to 7965
  144.7382  139.7523  143.7321 LP  0  0  0  0  0  0  0  0  0  0  0  0  # atno 17321 bound_to 7965
  140.2618  144.4059  150.6183 LP  0  0  0  0  0  0  0  0  0  0  0  0  # atno 17342 bound_to 10162
  140.6152  143.2172  151.6807 LP  0  0  0  0  0  0  0  0  0  0  0  0  # atno 17343 bound_to 10162
  157.7087  131.0744  150.6578 LP  0  0  0  0  0  0  0  0  0  0  0  0  # atno 17370 bound_to 10713
  156.6641  130.4520  149.5678 LP  0  0  0  0  0  0  0  0  0  0  0  0  # atno 17371 bound_to 10713
  141.2197  133.7375  156.9094 LP  0  0  0  0  0  0  0  0  0  0  0  0  # atno 17394 bound_to 11000
  140.1522  134.9222  157.2607 LP  0  0  0  0  0  0  0  0  0  0  0  0  # atno 17395 bound_to 11000

$$$$
