AV-unprocessed.smi:2892|AV-procd|sdf|11121|dock2
  -GOLD-   2272015593D 1   1.00000     0.00000
 Structure written by MMmdl.
 42 42  0  0  0  0  0  0  0  0  2 V2000
  152.8055  142.3383  159.8780 C   0  0  0  0  0  0  0  0  0  0  0  0
  152.9072  141.1461  158.9152 C   0  0  0  0  0  0  0  0  0  0  0  0
  151.5409  140.5905  158.4323 C   0  0  1  0  0  0  0  0  0  0  0  0
  150.7925  141.6560  157.5980 C   0  0  0  0  0  0  0  0  0  0  0  0
  151.7109  139.2495  157.6530 C   0  0  1  0  0  0  0  0  0  0  0  0
  150.4166  138.5759  157.5604 N   0  0  0  0  0  0  0  0  0  0  0  0
  149.9725  137.5934  158.3608 C   0  0  0  0  0  0  0  0  0  0  0  0
  150.6379  137.1024  159.2724 O   0  0  0  0  0  0  0  0  0  0  0  0
  148.5513  137.0895  158.0946 C   0  0  0  0  0  0  0  0  0  0  0  0
  148.1929  135.9828  159.0530 C   0  0  0  0  0  0  0  0  0  0  0  0
  148.0467  134.5937  158.7737 C   0  0  0  0  0  0  0  0  0  0  0  0
  147.6852  134.0520  159.9734 C   0  0  0  0  0  0  0  0  0  0  0  0
  147.6382  135.0789  160.8923 N   0  0  0  0  0  0  0  0  0  0  0  0
  147.2813  135.0102  162.3014 C   0  0  0  0  0  0  0  0  0  0  0  0
  145.8367  134.5163  162.4793 C   0  0  0  0  0  0  0  0  0  0  0  0
  147.5203  136.3557  163.0062 C   0  0  0  0  0  0  0  0  0  0  0  0
  147.9560  136.2641  160.3264 N   0  0  0  0  0  0  0  0  0  0  0  0
  152.2106  139.4826  156.2167 C   0  0  0  0  0  0  0  0  0  0  0  0
  151.4394  140.0829  155.4368 O   0  0  0  0  0  0  0  0  0  0  0  0
  153.3505  139.0575  155.9211 O   0  5  0  0  0  0  0  0  0  0  0  0
  153.7918  142.6144  160.2502 H   0  0  0  0  0  0  0  0  0  0  0  0
  152.1834  142.0967  160.7399 H   0  0  0  0  0  0  0  0  0  0  0  0
  152.3883  143.2205  159.3943 H   0  0  0  0  0  0  0  0  0  0  0  0
  153.5184  141.4215  158.0550 H   0  0  0  0  0  0  0  0  0  0  0  0
  153.4677  140.3718  159.4386 H   0  0  0  0  0  0  0  0  0  0  0  0
  150.9393  140.3886  159.3203 H   0  0  0  0  0  0  0  0  0  0  0  0
  151.3422  141.9006  156.6887 H   0  0  0  0  0  0  0  0  0  0  0  0
  150.6464  142.5795  158.1562 H   0  0  0  0  0  0  0  0  0  0  0  0
  149.7973  141.3245  157.3026 H   0  0  0  0  0  0  0  0  0  0  0  0
  152.4341  138.6248  158.1810 H   0  0  0  0  0  0  0  0  0  0  0  0
  149.8039  138.8944  156.8240 H   0  0  0  0  0  0  0  0  0  0  0  0
  147.8576  137.9245  158.1976 H   0  0  0  0  0  0  0  0  0  0  0  0
  148.4724  136.7436  157.0630 H   0  0  0  0  0  0  0  0  0  0  0  0
  148.1739  134.0784  157.8333 H   0  0  0  0  0  0  0  0  0  0  0  0
  147.4561  133.0319  160.2446 H   0  0  0  0  0  0  0  0  0  0  0  0
  147.9417  134.2746  162.7631 H   0  0  0  0  0  0  0  0  0  0  0  0
  145.5889  134.4015  163.5347 H   0  0  0  0  0  0  0  0  0  0  0  0
  145.6936  133.5477  161.9998 H   0  0  0  0  0  0  0  0  0  0  0  0
  145.1183  135.2120  162.0441 H   0  0  0  0  0  0  0  0  0  0  0  0
  147.3285  136.2748  164.0764 H   0  0  0  0  0  0  0  0  0  0  0  0
  146.8694  137.1374  162.6130 H   0  0  0  0  0  0  0  0  0  0  0  0
  148.5521  136.6854  162.8807 H   0  0  0  0  0  0  0  0  0  0  0  0
  1  2  1  0  0  0  0
  1 21  1  0  0  0  0
  1 22  1  0  0  0  0
  1 23  1  0  0  0  0
  2  3  1  0  0  0  0
  2 24  1  0  0  0  0
  2 25  1  0  0  0  0
  3  4  1  0  0  0  0
  3  5  1  0  0  0  0
  3 26  1  0  0  0  0
  4 27  1  0  0  0  0
  4 28  1  0  0  0  0
  4 29  1  0  0  0  0
  5  6  1  0  0  0  0
  5 18  1  0  0  0  0
  5 30  1  0  0  0  0
  6  7  1  0  0  0  0
  6 31  1  0  0  0  0
  7  8  2  0  0  0  0
  7  9  1  0  0  0  0
  9 10  1  0  0  0  0
  9 32  1  0  0  0  0
  9 33  1  0  0  0  0
 10 17  2  0  0  0  0
 10 11  1  0  0  0  0
 11 12  2  0  0  0  0
 11 34  1  0  0  0  0
 12 13  1  0  0  0  0
 12 35  1  0  0  0  0
 13 14  1  0  0  0  0
 13 17  1  0  0  0  0
 14 15  1  0  0  0  0
 14 16  1  0  0  0  0
 14 36  1  0  0  0  0
 15 37  1  0  0  0  0
 15 38  1  0  0  0  0
 15 39  1  0  0  0  0
 16 40  1  0  0  0  0
 16 41  1  0  0  0  0
 16 42  1  0  0  0  0
 18 19  2  0  0  0  0
 18 20  1  0  0  0  0
M  CHG  1  20  -1
M  END
> <s_m_source_file>
AV-unprocessed.smi

> <i_m_source_file_index>
2892

> <i_lp_mmshare_version>
43012

> <i_f3d_flags>
0

> <s_epik_input>
W0NIM11bQ0gyXVtDQEhdKFtDSDNdKVtDQEBIXShDKD1PKVtPSF0pW05IXUMoPU8pW0NIMl1jMVtjSF1bY0hdbihuMSlbQ0hdKFtDSDNdKVtDSDNd

> <s_epik_cmdline>
J2VwaWtfcHl0aG9uJywgJy1waCcsICc3LjAnLCAnLXRuJywgJzgnLCAnLW1hJywgJzIwMCcsICctbWV0YWxfYmluZGluZycsICctaW1hZScsICc8aW5maWxlLm1hZT4nLCAnLW9tYWUnLCAnPG91dGZpbGUubWFlPic=

> <r_lp_tautomer_probability>
1

> <r_epik_Ionization_Penalty>
0.000286846

> <r_epik_Ionization_Penalty_Charging>
0.000224481

> <r_epik_Ionization_Penalty_Neutral>
6.23655e-05

> <r_epik_State_Penalty>
-0

> <r_epik_Charging_Adjusted_Penalty>
0.000224481

> <i_epik_Tot_Q>
-1

> <i_epik_Tot_abs_Q>
1

> <r_epik_Metal_State_Penalty>
-0

> <b_epik_Metal_Only>
0

> <s_lp_Force_Field>
OPLS_2005

> <r_lp_Energy>
13.265

> <b_lp_Chiralities_Consistent>
1

> <s_lp_Variant>
AV-unprocessed.smi:2892-4

> <Gold.Version>
5.8.1

> <Gold.Id.Protein>
6NUR|6NUR_protein|mol2

> <Gold.PLP.Fitness>
46.5425

> <Gold.PLP.PLP>
-37.1728

> <Gold.PLP.part.hbond>
-2.6887

> <Gold.PLP.part.metal>
0.0000

> <Gold.PLP.part.buried>
-6.5640

> <Gold.PLP.part.nonpolar>
-28.5372

> <Gold.PLP.part.repulsive>
0.0538

> <Gold.PLP.ligand.clash>
0.0000

> <Gold.PLP.ligand.torsion>
0.8117

> <Gold.PLP.Chemscore.Hbond>
3.6088

> <Gold.PLP.Chemscore.CHOScore>
0.0000

> <Gold.PLP.Chemscore.Metal>
0.0000

> <Gold.Chemscore.Hbonds>
donor molecule, donor type, donor heavy atom, donor atom, acceptor molecule, acceptor atom, score
      P1  H  6896  6907       L1     8  0.67
      P1  H  7989  7998       L1    19  0.84
      P1  H  7997  8009       L1    20  1.86

> <Gold.PLP.Chemscore.Internal.Correction>
0.1668

> <Gold.Rescore>
     Score         DG    S(hbond)    S(metal)    S(lipo)     H(rot)  DE(clash)    DE(int)     intcor
     15.35     -17.77       2.63        0.00      82.19       2.39       0.14       2.29       ----

> <Gold.Chemscore.Fitness>
15.3458

> <Gold.Chemscore.DG>
-17.7706

> <Gold.Chemscore.ZeroCoef>
-5.4800

> <Gold.Chemscore.Hbond>
2.6298

> <Gold.Chemscore.Metal>
0.0000

> <Gold.Chemscore.Lipo>
82.1914

> <Gold.Chemscore.Internal_Hbond>
0.0000

> <Gold.Chemscore.DEClash>
0.1357

> <Gold.Chemscore.DEInternal>
2.2892

> <Gold.Chemscore.Rot>
2.3865

> <Gold.Chemscore.Internal.Correction>
   9.000000E+99

> <Gold.Chemscore.Hbonds>
donor molecule, donor type, donor heavy atom, donor atom, acceptor molecule, acceptor atom, score
      P1  H  6896  6907       L1     8  0.67
      P1  H  7989  7998       L1    19  0.78
      P1  H  7997  8009       L1    20  0.72

> <Gold.Chemscore.Hbond.Weighted>
-8.7836

> <Gold.Chemscore.Metal.Weighted>
-0.0000

> <Gold.Chemscore.Lipo.Weighted>
-9.6164

> <Gold.Chemscore.Internal_Hbond.Weighted>
0.0000

> <Gold.Chemscore.DEClash.Weighted>
0.1357

> <Gold.Chemscore.DEInternal.Weighted>
2.2892

> <Gold.Chemscore.Rot.Weighted>
6.1093

> <Gold.Chemscore.Internal.Correction.Weighted>
   9.000000E+99

> <Gold.Protein.RotatedTorsions>
[ 6907 6896 6895 6894 ] final  -32.27 input  -60.11 | X-H torsion
[ 7974 7965 7964 7962 ] final -155.02 input  175.53 | X-H torsion
[ 8008 7997 7996 7995 ] final -139.59 input   59.86 | X-H torsion
[ 10167 10162 10161 10158 ] final  -48.94 input  -65.29 | X-H torsion
[ 10718 10713 10712 10709 ] final   -7.99 input   66.30 | X-H torsion
[ 10763 10752 10751 10750 ] final -121.59 input  -60.55 | X-H torsion
[ 11005 11000 10999 10996 ] final  -35.56 input  -57.11 | X-H torsion

> <Gold.Protein.ActiveResidues>
 VAL166  LYS551  ARG553  GLY616  TRP617  ASP618  TYR619  PRO620  LYS621  CYS622 
 ASP623  PHE694  ASN695  SER759  ASP760  ASP761  ALA762  ILE779  LEU786  VAL792 
 PHE793  MET794  SER795  GLU796  ALA797  LYS798  CYS799  TRP800  GLU811  SER814 

> <Gold.Protein.RotatedAtoms>
  151.0809  134.9858  159.8355 H   0  0  0  0  0  0  0  0  0  0  0  0  # atno 6907 bound_to 6896
  152.5419  134.2182  159.8787 H   0  0  0  0  0  0  0  0  0  0  0  0  # atno 6908 bound_to 6896
  151.2212  133.4457  159.2634 H   0  0  0  0  0  0  0  0  0  0  0  0  # atno 6909 bound_to 6896
  144.7661  140.4308  143.5941 H   0  0  0  0  0  0  0  0  0  0  0  0  # atno 7974 bound_to 7965
  155.4473  140.0536  157.3004 H   0  0  0  0  0  0  0  0  0  0  0  0  # atno 8008 bound_to 7997
  154.4792  140.2074  155.9760 H   0  0  0  0  0  0  0  0  0  0  0  0  # atno 8009 bound_to 7997
  156.1180  140.3193  155.8171 H   0  0  0  0  0  0  0  0  0  0  0  0  # atno 8010 bound_to 7997
  140.6708  143.2719  151.4143 H   0  0  0  0  0  0  0  0  0  0  0  0  # atno 10167 bound_to 10162
  156.7091  130.5116  149.5897 H   0  0  0  0  0  0  0  0  0  0  0  0  # atno 10718 bound_to 10713
  154.8671  135.4162  154.2645 H   0  0  0  0  0  0  0  0  0  0  0  0  # atno 10763 bound_to 10752
  153.3567  135.7001  153.6751 H   0  0  0  0  0  0  0  0  0  0  0  0  # atno 10764 bound_to 10752
  153.5668  135.3599  155.2794 H   0  0  0  0  0  0  0  0  0  0  0  0  # atno 10765 bound_to 10752
  140.9806  133.7058  156.1677 H   0  0  0  0  0  0  0  0  0  0  0  0  # atno 11005 bound_to 11000
  145.6467  139.1558  143.2885 LP  0  0  0  0  0  0  0  0  0  0  0  0  # atno 17320 bound_to 7965
  146.1768  140.6559  142.9207 LP  0  0  0  0  0  0  0  0  0  0  0  0  # atno 17321 bound_to 7965
  139.5976  144.1364  152.2161 LP  0  0  0  0  0  0  0  0  0  0  0  0  # atno 17342 bound_to 10162
  140.0738  144.5757  150.7172 LP  0  0  0  0  0  0  0  0  0  0  0  0  # atno 17343 bound_to 10162
  156.1674  130.6414  151.0795 LP  0  0  0  0  0  0  0  0  0  0  0  0  # atno 17370 bound_to 10713
  157.6943  131.0799  150.7015 LP  0  0  0  0  0  0  0  0  0  0  0  0  # atno 17371 bound_to 10713
  140.7192  134.4377  157.5576 LP  0  0  0  0  0  0  0  0  0  0  0  0  # atno 17394 bound_to 11000
  139.8948  134.8697  156.2158 LP  0  0  0  0  0  0  0  0  0  0  0  0  # atno 17395 bound_to 11000

$$$$
