AV-unprocessed.smi:103|AV-procd|sdf|990|dock7
  -GOLD-   2262017563D 1   1.00000     0.00000
 Structure written by MMmdl.
 53 55  0  0  0  0  0  0  0  0  1 V2000
  151.5638  138.7303  155.1052 C   0  0  0  0  0  0  0  0  0  0  0  0
  151.1379  137.3519  155.5943 C   0  0  0  0  0  0  0  0  0  0  0  0
  151.4299  136.3337  154.9668 O   0  0  0  0  0  0  0  0  0  0  0  0
  150.4381  137.4059  156.7405 O   0  0  0  0  0  0  0  0  0  0  0  0
  149.9238  136.2168  157.3217 C   0  0  0  0  0  0  0  0  0  0  0  0
  148.9096  136.5825  158.4132 C   0  0  1  0  0  0  0  0  0  0  0  0
  148.0172  137.5674  157.8855 O   0  0  0  0  0  0  0  0  0  0  0  0
  146.6919  137.1645  158.0235 C   0  0  1  0  0  0  0  0  0  0  0  0
  145.9184  137.6150  156.8268 N   0  0  0  0  0  0  0  0  0  0  0  0
  145.8165  138.8724  156.2661 C   0  0  0  0  0  0  0  0  0  0  0  0
  146.6504  140.3552  156.8212 S   0  0  0  0  0  0  0  0  0  0  0  0
  147.8075  140.6823  155.4302 C   0  0  0  0  0  0  0  0  0  0  0  0
  145.6396  141.4232  156.8745 O   0  0  0  0  0  0  0  0  0  0  0  0
  147.4226  139.9981  158.0209 O   0  0  0  0  0  0  0  0  0  0  0  0
  145.1190  138.9683  155.1665 N   0  0  0  0  0  0  0  0  0  0  0  0
  144.6450  137.6772  154.9815 C   0  0  0  0  0  0  0  0  0  0  0  0
  143.8158  137.0608  154.0107 C   0  0  0  0  0  0  0  0  0  0  0  0
  143.2845  137.7251  152.9753 N   0  0  0  0  0  0  0  0  0  0  0  0
  143.5474  135.7398  154.1332 N   0  0  0  0  0  0  0  0  0  0  0  0
  144.0662  135.0545  155.1572 C   0  0  0  0  0  0  0  0  0  0  0  0
  144.8570  135.4934  156.1396 N   0  0  0  0  0  0  0  0  0  0  0  0
  145.1284  136.8253  156.0155 C   0  0  0  0  0  0  0  0  0  0  0  0
  146.6947  135.6452  158.1302 C   0  0  2  0  0  0  0  0  0  0  0  0
  145.5633  135.1868  158.8574 O   0  0  0  0  0  0  0  0  0  0  0  0
  145.3915  133.8757  159.0818 C   0  0  0  0  0  0  0  0  0  0  0  0
  144.1076  133.5834  159.8460 C   0  0  0  0  0  0  0  0  0  0  0  0
  146.1551  132.9745  158.7348 O   0  0  0  0  0  0  0  0  0  0  0  0
  148.0353  135.3757  158.8111 C   0  0  2  0  0  0  0  0  0  0  0  0
  147.9814  135.0784  160.2149 O   0  0  0  0  0  0  0  0  0  0  0  0
  147.6809  135.9733  161.1849 C   0  0  0  0  0  0  0  0  0  0  0  0
  147.4896  135.3033  162.5386 C   0  0  0  0  0  0  0  0  0  0  0  0
  147.5655  137.1908  161.0580 O   0  0  0  0  0  0  0  0  0  0  0  0
  151.0267  138.9876  154.1926 H   0  0  0  0  0  0  0  0  0  0  0  0
  152.6327  138.7412  154.8921 H   0  0  0  0  0  0  0  0  0  0  0  0
  151.3546  139.4932  155.8557 H   0  0  0  0  0  0  0  0  0  0  0  0
  149.4526  135.5679  156.5830 H   0  0  0  0  0  0  0  0  0  0  0  0
  150.7544  135.6577  157.7532 H   0  0  0  0  0  0  0  0  0  0  0  0
  149.4415  136.9912  159.2725 H   0  0  0  0  0  0  0  0  0  0  0  0
  146.2482  137.6724  158.8755 H   0  0  0  0  0  0  0  0  0  0  0  0
  148.3845  141.5817  155.6431 H   0  0  0  0  0  0  0  0  0  0  0  0
  147.2386  140.8247  154.5116 H   0  0  0  0  0  0  0  0  0  0  0  0
  148.4845  139.8371  155.3089 H   0  0  0  0  0  0  0  0  0  0  0  0
  143.4704  138.7113  152.8621 H   0  0  0  0  0  0  0  0  0  0  0  0
  142.6985  137.2393  152.3117 H   0  0  0  0  0  0  0  0  0  0  0  0
  143.8142  134.0046  155.1945 H   0  0  0  0  0  0  0  0  0  0  0  0
  146.7141  135.2391  157.1176 H   0  0  0  0  0  0  0  0  0  0  0  0
  143.2409  133.7637  159.2098 H   0  0  0  0  0  0  0  0  0  0  0  0
  144.0334  134.2254  160.7238 H   0  0  0  0  0  0  0  0  0  0  0  0
  144.0861  132.5445  160.1751 H   0  0  0  0  0  0  0  0  0  0  0  0
  148.4520  134.4720  158.3655 H   0  0  0  0  0  0  0  0  0  0  0  0
  148.3828  134.7429  162.8146 H   0  0  0  0  0  0  0  0  0  0  0  0
  146.6447  134.6155  162.5034 H   0  0  0  0  0  0  0  0  0  0  0  0
  147.2965  136.0480  163.3111 H   0  0  0  0  0  0  0  0  0  0  0  0
  1  2  1  0  0  0  0
  1 33  1  0  0  0  0
  1 34  1  0  0  0  0
  1 35  1  0  0  0  0
  2  3  2  0  0  0  0
  2  4  1  0  0  0  0
  4  5  1  0  0  0  0
  5  6  1  0  0  0  0
  5 36  1  0  0  0  0
  5 37  1  0  0  0  0
  6 28  1  0  0  0  0
  6  7  1  0  0  0  0
  6 38  1  0  0  0  0
  7  8  1  0  0  0  0
  8  9  1  0  0  0  0
  8 23  1  0  0  0  0
  8 39  1  0  0  0  0
  9 22  1  0  0  0  0
  9 10  1  0  0  0  0
 10 11  1  0  0  0  0
 10 15  2  0  0  0  0
 11 12  1  0  0  0  0
 11 13  2  0  0  0  0
 11 14  2  0  0  0  0
 12 40  1  0  0  0  0
 12 41  1  0  0  0  0
 12 42  1  0  0  0  0
 15 16  1  0  0  0  0
 16 22  2  0  0  0  0
 16 17  1  0  0  0  0
 17 18  1  0  0  0  0
 17 19  2  0  0  0  0
 18 43  1  0  0  0  0
 18 44  1  0  0  0  0
 19 20  1  0  0  0  0
 20 21  2  0  0  0  0
 20 45  1  0  0  0  0
 21 22  1  0  0  0  0
 23 24  1  0  0  0  0
 23 28  1  0  0  0  0
 23 46  1  0  0  0  0
 24 25  1  0  0  0  0
 25 26  1  0  0  0  0
 25 27  2  0  0  0  0
 26 47  1  0  0  0  0
 26 48  1  0  0  0  0
 26 49  1  0  0  0  0
 28 29  1  0  0  0  0
 28 50  1  0  0  0  0
 29 30  1  0  0  0  0
 30 31  1  0  0  0  0
 30 32  2  0  0  0  0
 31 51  1  0  0  0  0
 31 52  1  0  0  0  0
 31 53  1  0  0  0  0
M  END
> <s_m_source_file>
AV-unprocessed.smi

> <i_m_source_file_index>
103

> <i_lp_mmshare_version>
43012

> <i_f3d_flags>
0

> <s_epik_input>
W0NIM11DKD1PKU9bQ0gyXVtDQEBIXTFPW0NASF0oW0NAQEhdKE9DKD1PKVtDSDNdKVtDQEhdMU9DKD1PKVtDSDNdKW4oYyhuMilTKD1PKSg9TylbQ0gzXSljKGMyMyluW2NIXW5jM1tOSDJd

> <s_epik_cmdline>
J2VwaWtfcHl0aG9uJywgJy1waCcsICc3LjAnLCAnLXRuJywgJzgnLCAnLW1hJywgJzIwMCcsICctbWV0YWxfYmluZGluZycsICctaW1hZScsICc8aW5maWxlLm1hZT4nLCAnLW9tYWUnLCAnPG91dGZpbGUubWFlPic=

> <r_lp_tautomer_probability>
1

> <r_epik_Ionization_Penalty>
1.51338e-05

> <r_epik_Ionization_Penalty_Charging>
0

> <r_epik_Ionization_Penalty_Neutral>
1.51338e-05

> <r_epik_State_Penalty>
-0

> <r_epik_Charging_Adjusted_Penalty>
0

> <i_epik_Tot_Q>
0

> <i_epik_Tot_abs_Q>
0

> <r_epik_Metal_State_Penalty>
-0

> <b_epik_Metal_Only>
0

> <s_epik_Chemistry_Notes>
This compound has an ester and may undergo hydrolysis at high or low pH. This compound contains an acetal/aminal-like group ( X-CH(R)-Y where X, Y are N, S, or O) that may be acid/base labile, releasing an aldehyde.

> <s_lp_Force_Field>
OPLS_2005

> <r_lp_Energy>
20.3067

> <b_lp_Chiralities_Consistent>
1

> <s_lp_Variant>
AV-unprocessed.smi:103-14

> <Gold.Version>
5.8.1

> <Gold.Id.Protein>
6NUR|6NUR_protein|mol2

> <Gold.PLP.Fitness>
35.5813

> <Gold.PLP.PLP>
-23.0753

> <Gold.PLP.part.hbond>
-5.1158

> <Gold.PLP.part.metal>
0.0000

> <Gold.PLP.part.buried>
-5.4226

> <Gold.PLP.part.nonpolar>
-13.6006

> <Gold.PLP.part.repulsive>
0.3299

> <Gold.PLP.ligand.clash>
1.3203

> <Gold.PLP.ligand.torsion>
1.4677

> <Gold.PLP.Chemscore.Hbond>
3.8400

> <Gold.PLP.Chemscore.CHOScore>
0.9940

> <Gold.PLP.Chemscore.Metal>
0.0000

> <Gold.Chemscore.Hbonds>
donor molecule, donor type, donor heavy atom, donor atom, acceptor molecule, acceptor atom, score
      L1  H    18    43       P1 10175  1.00
      P1  H  6931  6943       L1    32  0.88
      P1  H  6934  6947       L1    32  0.94
      P1  H 10752 10765       L1     3  1.00
      L1  C    20    45       P1 10957  0.96

> <Gold.PLP.Chemscore.Internal.Correction>
2.2596

> <Gold.Rescore>
     Score         DG    S(hbond)    S(metal)    S(lipo)     H(rot)  DE(clash)    DE(int)     intcor
      3.14     -10.94       3.74        0.00      32.74       4.25       0.00       7.80       ----

> <Gold.Chemscore.Fitness>
3.1354

> <Gold.Chemscore.DG>
-10.9357

> <Gold.Chemscore.ZeroCoef>
-5.4800

> <Gold.Chemscore.Hbond>
3.7408

> <Gold.Chemscore.Metal>
0.0000

> <Gold.Chemscore.Lipo>
32.7352

> <Gold.Chemscore.Internal_Hbond>
0.0000

> <Gold.Chemscore.DEClash>
0.0009

> <Gold.Chemscore.DEInternal>
7.7994

> <Gold.Chemscore.Rot>
4.2456

> <Gold.Chemscore.Internal.Correction>
   9.000000E+99

> <Gold.Chemscore.Hbonds>
donor molecule, donor type, donor heavy atom, donor atom, acceptor molecule, acceptor atom, score
      L1  H    18    43       P1 10175  1.00
      P1  H  6931  6943       L1    32  0.76
      P1  H  6934  6947       L1    32  0.92
      P1  H 10752 10765       L1     3  1.00

> <Gold.Chemscore.Hbond.Weighted>
-12.4944

> <Gold.Chemscore.Metal.Weighted>
-0.0000

> <Gold.Chemscore.Lipo.Weighted>
-3.8300

> <Gold.Chemscore.Internal_Hbond.Weighted>
0.0000

> <Gold.Chemscore.DEClash.Weighted>
0.0009

> <Gold.Chemscore.DEInternal.Weighted>
7.7994

> <Gold.Chemscore.Rot.Weighted>
10.8687

> <Gold.Chemscore.Internal.Correction.Weighted>
   9.000000E+99

> <Gold.Protein.RotatedTorsions>
[ 6907 6896 6895 6894 ] final -113.41 input  -60.11 | X-H torsion
[ 7974 7965 7964 7962 ] final  -15.12 input  175.53 | X-H torsion
[ 8008 7997 7996 7995 ] final  108.56 input   59.86 | X-H torsion
[ 10167 10162 10161 10158 ] final  144.56 input  -65.29 | X-H torsion
[ 10718 10713 10712 10709 ] final -136.05 input   66.30 | X-H torsion
[ 10763 10752 10751 10750 ] final  176.35 input  -60.55 | X-H torsion
[ 11005 11000 10999 10996 ] final  176.49 input  -57.11 | X-H torsion

> <Gold.Protein.ActiveResidues>
 VAL166  LYS551  ARG553  GLY616  TRP617  ASP618  TYR619  PRO620  LYS621  CYS622 
 ASP623  PHE694  ASN695  SER759  ASP760  ASP761  ALA762  ILE779  LEU786  VAL792 
 PHE793  MET794  SER795  GLU796  ALA797  LYS798  CYS799  TRP800  GLU811  SER814 

> <Gold.Protein.RotatedAtoms>
  150.7827  133.8949  159.3324 H   0  0  0  0  0  0  0  0  0  0  0  0  # atno 6907 bound_to 6896
  151.6808  135.0960  160.0225 H   0  0  0  0  0  0  0  0  0  0  0  0  # atno 6908 bound_to 6896
  152.3883  133.6603  159.6252 H   0  0  0  0  0  0  0  0  0  0  0  0  # atno 6909 bound_to 6896
  146.2045  140.3447  142.8411 H   0  0  0  0  0  0  0  0  0  0  0  0  # atno 7974 bound_to 7965
  156.1912  140.3074  155.9336 H   0  0  0  0  0  0  0  0  0  0  0  0  # atno 8008 bound_to 7997
  155.3169  140.0454  157.3054 H   0  0  0  0  0  0  0  0  0  0  0  0  # atno 8009 bound_to 7997
  154.5454  140.2275  155.8580 H   0  0  0  0  0  0  0  0  0  0  0  0  # atno 8010 bound_to 7997
  139.4944  144.5963  151.6575 H   0  0  0  0  0  0  0  0  0  0  0  0  # atno 10167 bound_to 10162
  156.2728  130.7275  151.1248 H   0  0  0  0  0  0  0  0  0  0  0  0  # atno 10718 bound_to 10713
  154.4799  135.2774  155.1578 H   0  0  0  0  0  0  0  0  0  0  0  0  # atno 10763 bound_to 10752
  154.3293  135.6193  153.5547 H   0  0  0  0  0  0  0  0  0  0  0  0  # atno 10764 bound_to 10752
  152.9874  135.5761  154.5198 H   0  0  0  0  0  0  0  0  0  0  0  0  # atno 10765 bound_to 10752
  140.3737  134.7007  157.4408 H   0  0  0  0  0  0  0  0  0  0  0  0  # atno 11005 bound_to 11000
  144.8761  140.7338  143.6016 LP  0  0  0  0  0  0  0  0  0  0  0  0  # atno 17320 bound_to 7965
  145.3367  139.1744  143.4508 LP  0  0  0  0  0  0  0  0  0  0  0  0  # atno 17321 bound_to 7965
  140.5602  144.0281  150.6166 LP  0  0  0  0  0  0  0  0  0  0  0  0  # atno 17342 bound_to 10162
  140.3364  143.3046  152.0634 LP  0  0  0  0  0  0  0  0  0  0  0  0  # atno 17343 bound_to 10162
  157.7289  131.0628  150.5797 LP  0  0  0  0  0  0  0  0  0  0  0  0  # atno 17370 bound_to 10713
  156.5895  130.4325  149.5943 LP  0  0  0  0  0  0  0  0  0  0  0  0  # atno 17371 bound_to 10713
  140.0532  134.6101  155.8836 LP  0  0  0  0  0  0  0  0  0  0  0  0  # atno 17394 bound_to 11000
  141.1946  133.6583  156.5604 LP  0  0  0  0  0  0  0  0  0  0  0  0  # atno 17395 bound_to 11000

$$$$
