AV-unprocessed.smi:157|AV-procd|sdf|1299|dock6
  -GOLD-   2262018583D 1   1.00000     0.00000
 Structure written by MMmdl.
 35 37  0  0  0  0  0  0  0  0  1 V2000
  151.6893  136.4489  158.5695 O   0  0  0  0  0  0  0  0  0  0  0  0
  152.1301  137.7719  158.7902 C   0  0  0  0  0  0  0  0  0  0  0  0
  153.6556  137.8615  158.5669 C   0  0  1  0  0  0  0  0  0  0  0  0
  154.0322  139.2360  158.6989 O   0  0  0  0  0  0  0  0  0  0  0  0
  154.7325  139.4535  159.8899 C   0  0  1  0  0  0  0  0  0  0  0  0
  154.1322  140.6225  160.6076 N   0  0  0  0  0  0  0  0  0  0  0  0
  154.3065  140.9494  161.8954 C   0  0  0  0  0  0  0  0  0  0  0  0
  153.6705  142.0446  162.2750 N   0  0  0  0  0  0  0  0  0  0  0  0
  153.0129  142.4685  161.1217 C   0  0  0  0  0  0  0  0  0  0  0  0
  153.2832  141.5975  160.0761 C   0  0  0  0  0  0  0  0  0  0  0  0
  152.9369  141.5062  158.7414 N   0  0  0  0  0  0  0  0  0  0  0  0
  151.9018  142.1717  158.3352 C   0  0  0  0  0  0  0  0  0  0  0  0
  151.0945  143.0741  159.0132 N   0  0  0  0  0  0  0  0  0  0  0  0
  151.6195  144.1717  159.8074 C   0  0  0  0  0  0  0  0  0  0  0  0
  152.1977  143.7289  161.1570 C   0  0  1  0  0  0  0  0  0  0  0  0
  151.1392  143.5099  162.0668 O   0  0  0  0  0  0  0  0  0  0  0  0
  154.5925  138.1863  160.7263 C   0  0  0  0  0  0  0  0  0  0  0  0
  154.5131  137.1502  159.6290 C   0  0  1  0  0  0  0  0  0  0  0  0
  153.9863  135.9243  160.0953 O   0  0  0  0  0  0  0  0  0  0  0  0
  153.9095  137.4874  157.5739 H   0  0  0  0  0  0  0  0  0  0  0  0
  155.7650  139.7300  159.6729 H   0  0  0  0  0  0  0  0  0  0  0  0
  152.7968  144.5458  161.5605 H   0  0  0  0  0  0  0  0  0  0  0  0
  155.5127  136.9726  159.2293 H   0  0  0  0  0  0  0  0  0  0  0  0
  152.0583  136.1411  157.7559 H   0  0  0  0  0  0  0  0  0  0  0  0
  151.5844  138.4640  158.1490 H   0  0  0  0  0  0  0  0  0  0  0  0
  151.8708  138.0168  159.8200 H   0  0  0  0  0  0  0  0  0  0  0  0
  154.9176  140.3743  162.5751 H   0  0  0  0  0  0  0  0  0  0  0  0
  151.5761  142.0428  157.3021 H   0  0  0  0  0  0  0  0  0  0  0  0
  150.1949  143.3069  158.6179 H   0  0  0  0  0  0  0  0  0  0  0  0
  152.4114  144.6431  159.2234 H   0  0  0  0  0  0  0  0  0  0  0  0
  150.8500  144.9315  159.9456 H   0  0  0  0  0  0  0  0  0  0  0  0
  151.1835  144.1762  162.7358 H   0  0  0  0  0  0  0  0  0  0  0  0
  155.4389  138.0593  161.4019 H   0  0  0  0  0  0  0  0  0  0  0  0
  153.6682  138.2216  161.3059 H   0  0  0  0  0  0  0  0  0  0  0  0
  154.6254  135.5192  160.6616 H   0  0  0  0  0  0  0  0  0  0  0  0
  1  2  1  0  0  0  0
  1 24  1  0  0  0  0
  2  3  1  0  0  0  0
  2 25  1  0  0  0  0
  2 26  1  0  0  0  0
  3 20  1  0  0  0  0
  3 18  1  0  0  0  0
  3  4  1  0  0  0  0
  4  5  1  0  0  0  0
  5 21  1  0  0  0  0
  5  6  1  0  0  0  0
  5 17  1  0  0  0  0
  6 10  1  0  0  0  0
  6  7  1  0  0  0  0
  7  8  2  0  0  0  0
  7 27  1  0  0  0  0
  8  9  1  0  0  0  0
  9 15  1  0  0  0  0
  9 10  2  0  0  0  0
 10 11  1  0  0  0  0
 11 12  2  0  0  0  0
 12 13  1  0  0  0  0
 12 28  1  0  0  0  0
 13 14  1  0  0  0  0
 13 29  1  0  0  0  0
 14 15  1  0  0  0  0
 14 30  1  0  0  0  0
 14 31  1  0  0  0  0
 15 22  1  0  0  0  0
 15 16  1  0  0  0  0
 16 32  1  0  0  0  0
 17 18  1  0  0  0  0
 17 33  1  0  0  0  0
 17 34  1  0  0  0  0
 18 23  1  0  0  0  0
 18 19  1  0  0  0  0
 19 35  1  0  0  0  0
M  END
> <s_m_source_file>
AV-unprocessed.smi

> <i_m_source_file_index>
157

> <i_lp_mmshare_version>
43012

> <i_f3d_flags>
0

> <s_epik_input>
W09IXVtDSDJdW0NASF0xT1tDQEhdKFtDSDJdW0NAQEhdMVtPSF0pbihbY0hdbjIpYyhjMjMpTj1bQ0hdW05IXVtDSDJdW0NASF0zW09IXQ==

> <s_epik_cmdline>
J2VwaWtfcHl0aG9uJywgJy1waCcsICc3LjAnLCAnLXRuJywgJzgnLCAnLW1hJywgJzIwMCcsICctbWV0YWxfYmluZGluZycsICctaW1hZScsICc8aW5maWxlLm1hZT4nLCAnLW9tYWUnLCAnPG91dGZpbGUubWFlPic=

> <r_lp_tautomer_probability>
1

> <r_epik_Ionization_Penalty>
0.0357149

> <r_epik_Ionization_Penalty_Charging>
0.0355056

> <r_epik_Ionization_Penalty_Neutral>
0.000209255

> <r_epik_State_Penalty>
0.0296046

> <r_epik_Charging_Adjusted_Penalty>
0.0651102

> <i_epik_Tot_Q>
0

> <i_epik_Tot_abs_Q>
0

> <r_epik_Metal_State_Penalty>
3.03559e-05

> <b_epik_Metal_Only>
0

> <s_epik_Chemistry_Notes>
This compound has an imine and may undergo hydrolysis. This compound contains an acetal/aminal-like group ( X-CH(R)-Y where X, Y are N, S, or O) that may be acid/base labile, releasing an aldehyde.

> <s_lp_Force_Field>
OPLS_2005

> <r_lp_Energy>
47.2619

> <b_lp_Chiralities_Consistent>
1

> <s_lp_Variant>
AV-unprocessed.smi:157-9

> <Gold.Version>
5.8.1

> <Gold.Id.Protein>
6NUR|6NUR_protein|mol2

> <Gold.PLP.Fitness>
44.1874

> <Gold.PLP.PLP>
-37.2624

> <Gold.PLP.part.hbond>
-6.1893

> <Gold.PLP.part.metal>
0.0000

> <Gold.PLP.part.buried>
-5.5937

> <Gold.PLP.part.nonpolar>
-25.9393

> <Gold.PLP.part.repulsive>
0.1062

> <Gold.PLP.ligand.clash>
0.0000

> <Gold.PLP.ligand.torsion>
0.4242

> <Gold.PLP.Chemscore.Hbond>
2.5863

> <Gold.PLP.Chemscore.CHOScore>
0.0000

> <Gold.PLP.Chemscore.Metal>
0.0000

> <Gold.Chemscore.Hbonds>
donor molecule, donor type, donor heavy atom, donor atom, acceptor molecule, acceptor atom, score
      P1  H  6896  6908       L1     1  0.24
      P1  H  6896  6909       L1    19  1.00
      P1  H  6933  6945       L1    16  0.50
      P1  H  7997  8009       L1     4  1.00

> <Gold.PLP.Chemscore.Internal.Correction>
0.0144

> <Gold.Rescore>
     Score         DG    S(hbond)    S(metal)    S(lipo)     H(rot)  DE(clash)    DE(int)     intcor
      5.95      -8.51       1.82        0.00      53.60       3.64       0.19       2.37       ----

> <Gold.Chemscore.Fitness>
5.9489

> <Gold.Chemscore.DG>
-8.5069

> <Gold.Chemscore.ZeroCoef>
-5.4800

> <Gold.Chemscore.Hbond>
1.8158

> <Gold.Chemscore.Metal>
0.0000

> <Gold.Chemscore.Lipo>
53.5959

> <Gold.Chemscore.Internal_Hbond>
0.0000

> <Gold.Chemscore.DEClash>
0.1899

> <Gold.Chemscore.DEInternal>
2.3680

> <Gold.Chemscore.Rot>
3.6362

> <Gold.Chemscore.Internal.Correction>
   9.000000E+99

> <Gold.Chemscore.Hbonds>
donor molecule, donor type, donor heavy atom, donor atom, acceptor molecule, acceptor atom, score
      P1  H  6896  6908       L1     1  0.19
      P1  H  6896  6909       L1    19  0.37
      P1  H  6933  6945       L1    16  0.48
      P1  H  7997  8009       L1     4  0.84

> <Gold.Chemscore.Hbond.Weighted>
-6.0649

> <Gold.Chemscore.Metal.Weighted>
-0.0000

> <Gold.Chemscore.Lipo.Weighted>
-6.2707

> <Gold.Chemscore.Internal_Hbond.Weighted>
0.0000

> <Gold.Chemscore.DEClash.Weighted>
0.1899

> <Gold.Chemscore.DEInternal.Weighted>
2.3680

> <Gold.Chemscore.Rot.Weighted>
9.3087

> <Gold.Chemscore.Internal.Correction.Weighted>
   9.000000E+99

> <Gold.Protein.RotatedTorsions>
[ 6907 6896 6895 6894 ] final -170.50 input  -60.11 | X-H torsion
[ 7974 7965 7964 7962 ] final  139.34 input  175.53 | X-H torsion
[ 8008 7997 7996 7995 ] final  151.17 input   59.86 | X-H torsion
[ 10167 10162 10161 10158 ] final  -43.24 input  -65.29 | X-H torsion
[ 10718 10713 10712 10709 ] final  125.14 input   66.30 | X-H torsion
[ 10763 10752 10751 10750 ] final  -97.28 input  -60.55 | X-H torsion
[ 11005 11000 10999 10996 ] final  -30.47 input  -57.11 | X-H torsion

> <Gold.Protein.ActiveResidues>
 VAL166  LYS551  ARG553  GLY616  TRP617  ASP618  TYR619  PRO620  LYS621  CYS622 
 ASP623  PHE694  ASN695  SER759  ASP760  ASP761  ALA762  ILE779  LEU786  VAL792 
 PHE793  MET794  SER795  GLU796  ALA797  LYS798  CYS799  TRP800  GLU811  SER814 

> <Gold.Protein.RotatedAtoms>
  151.5087  133.3489  159.2881 H   0  0  0  0  0  0  0  0  0  0  0  0  # atno 6907 bound_to 6896
  150.8726  134.8105  159.7177 H   0  0  0  0  0  0  0  0  0  0  0  0  # atno 6908 bound_to 6896
  152.4708  134.4974  159.9766 H   0  0  0  0  0  0  0  0  0  0  0  0  # atno 6909 bound_to 6896
  144.9288  139.5073  143.5628 H   0  0  0  0  0  0  0  0  0  0  0  0  # atno 7974 bound_to 7965
  156.2685  140.2055  156.6133 H   0  0  0  0  0  0  0  0  0  0  0  0  # atno 8008 bound_to 7997
  154.6814  140.0539  157.0293 H   0  0  0  0  0  0  0  0  0  0  0  0  # atno 8009 bound_to 7997
  155.0995  140.3204  155.4554 H   0  0  0  0  0  0  0  0  0  0  0  0  # atno 8010 bound_to 7997
  140.6941  143.2993  151.3324 H   0  0  0  0  0  0  0  0  0  0  0  0  # atno 10167 bound_to 10162
  157.5527  131.1093  150.8674 H   0  0  0  0  0  0  0  0  0  0  0  0  # atno 10718 bound_to 10713
  154.7314  135.5052  153.8970 H   0  0  0  0  0  0  0  0  0  0  0  0  # atno 10763 bound_to 10752
  153.0953  135.6670  153.9783 H   0  0  0  0  0  0  0  0  0  0  0  0  # atno 10764 bound_to 10752
  153.9584  135.3050  155.3414 H   0  0  0  0  0  0  0  0  0  0  0  0  # atno 10765 bound_to 10752
  140.9385  133.7293  156.1041 H   0  0  0  0  0  0  0  0  0  0  0  0  # atno 11005 bound_to 11000
  146.3238  139.8223  142.8924 LP  0  0  0  0  0  0  0  0  0  0  0  0  # atno 17320 bound_to 7965
  145.3176  141.0236  143.3519 LP  0  0  0  0  0  0  0  0  0  0  0  0  # atno 17321 bound_to 7965
  139.6375  144.0602  152.2527 LP  0  0  0  0  0  0  0  0  0  0  0  0  # atno 17342 bound_to 10162
  140.0097  144.6233  150.7658 LP  0  0  0  0  0  0  0  0  0  0  0  0  # atno 17343 bound_to 10162
  156.9194  130.5309  149.5279 LP  0  0  0  0  0  0  0  0  0  0  0  0  # atno 17370 bound_to 10713
  156.0591  130.5647  150.9155 LP  0  0  0  0  0  0  0  0  0  0  0  0  # atno 17371 bound_to 10713
  140.7766  134.3773  157.5496 LP  0  0  0  0  0  0  0  0  0  0  0  0  # atno 17394 bound_to 11000
  139.8814  134.9055  156.2902 LP  0  0  0  0  0  0  0  0  0  0  0  0  # atno 17395 bound_to 11000

$$$$
