AV-unprocessed.smi:1986|AV-procd|sdf|8048|dock1
  -GOLD-   2272010243D 1   1.00000     0.00000
 Structure written by MMmdl.
 47 48  0  0  0  0  0  0  0  0  3 V2000
  149.9770  134.5618  155.7637 C   0  0  0  0  0  0  0  0  0  0  0  0
  148.7948  134.8848  154.8327 C   0  0  0  0  0  0  0  0  0  0  0  0
  148.0180  133.6602  154.2609 C   0  0  1  0  0  0  0  0  0  0  0  0
  149.0037  132.4872  154.0150 C   0  0  0  0  0  0  0  0  0  0  0  0
  146.9737  133.1603  155.3033 C   0  0  0  0  0  0  0  0  0  0  0  0
  147.6086  132.8494  156.5797 N   0  0  0  0  0  0  0  0  0  0  0  0
  147.3645  133.4282  157.7644 C   0  0  0  0  0  0  0  0  0  0  0  0
  146.4589  134.2401  157.9499 O   0  0  0  0  0  0  0  0  0  0  0  0
  148.3243  133.0712  158.9098 C   0  0  0  0  0  0  0  0  0  0  0  0
  147.9811  133.7281  160.1836 N   0  0  0  0  0  0  0  0  0  0  0  0
  148.0021  135.1877  160.1304 N   0  5  0  0  0  0  0  0  0  0  0  0
  147.7341  135.8952  161.2599 C   0  0  0  0  0  0  0  0  0  0  0  0
  147.7475  137.1228  161.2957 O   0  0  0  0  0  0  0  0  0  0  0  0
  147.3973  135.1574  162.4658 C   0  0  0  0  0  0  0  0  0  0  0  0
  147.3400  133.8114  162.4738 C   0  0  0  0  0  0  0  0  0  0  0  0
  147.6268  133.0125  161.2891 C   0  0  0  0  0  0  0  0  0  0  0  0
  147.5534  131.7842  161.2842 O   0  0  0  0  0  0  0  0  0  0  0  0
  147.3191  134.0143  152.9681 N   0  3  0  0  0  0  0  0  0  0  0  0
  146.8469  132.8582  152.1541 C   0  0  0  0  0  0  0  0  0  0  0  0
  146.3493  133.3312  150.7795 C   0  0  0  0  0  0  0  0  0  0  0  0
  145.3020  134.2744  150.9545 O   0  0  0  0  0  0  0  0  0  0  0  0
  145.7484  135.4281  151.6520 C   0  0  0  0  0  0  0  0  0  0  0  0
  146.2380  135.0365  153.0570 C   0  0  0  0  0  0  0  0  0  0  0  0
  150.4432  135.4822  156.1159 H   0  0  0  0  0  0  0  0  0  0  0  0
  150.7511  133.9869  155.2561 H   0  0  0  0  0  0  0  0  0  0  0  0
  149.6622  134.0046  156.6454 H   0  0  0  0  0  0  0  0  0  0  0  0
  148.1148  135.5287  155.3899 H   0  0  0  0  0  0  0  0  0  0  0  0
  149.1795  135.4940  154.0153 H   0  0  0  0  0  0  0  0  0  0  0  0
  149.3466  132.0441  154.9504 H   0  0  0  0  0  0  0  0  0  0  0  0
  149.8981  132.8056  153.4796 H   0  0  0  0  0  0  0  0  0  0  0  0
  148.5392  131.6846  153.4409 H   0  0  0  0  0  0  0  0  0  0  0  0
  146.1832  133.8992  155.4395 H   0  0  0  0  0  0  0  0  0  0  0  0
  146.4642  132.2633  154.9521 H   0  0  0  0  0  0  0  0  0  0  0  0
  148.3625  132.1768  156.5589 H   0  0  0  0  0  0  0  0  0  0  0  0
  148.3438  131.9877  159.0398 H   0  0  0  0  0  0  0  0  0  0  0  0
  149.3351  133.3467  158.6043 H   0  0  0  0  0  0  0  0  0  0  0  0
  147.1804  135.7010  163.3735 H   0  0  0  0  0  0  0  0  0  0  0  0
  147.0801  133.3044  163.3911 H   0  0  0  0  0  0  0  0  0  0  0  0
  147.6407  132.1311  151.9938 H   0  0  0  0  0  0  0  0  0  0  0  0
  146.0344  132.3419  152.6657 H   0  0  0  0  0  0  0  0  0  0  0  0
  147.1616  133.7669  150.1982 H   0  0  0  0  0  0  0  0  0  0  0  0
  145.9685  132.4856  150.2069 H   0  0  0  0  0  0  0  0  0  0  0  0
  146.5387  135.9250  151.0884 H   0  0  0  0  0  0  0  0  0  0  0  0
  144.9215  136.1344  151.7263 H   0  0  0  0  0  0  0  0  0  0  0  0
  145.4010  134.6516  153.6396 H   0  0  0  0  0  0  0  0  0  0  0  0
  146.5823  135.9456  153.5462 H   0  0  0  0  0  0  0  0  0  0  0  0
  148.0389  134.4519  152.4095 H   0  0  0  0  0  0  0  0  0  0  0  0
  1  2  1  0  0  0  0
  1 24  1  0  0  0  0
  1 25  1  0  0  0  0
  1 26  1  0  0  0  0
  2  3  1  0  0  0  0
  2 27  1  0  0  0  0
  2 28  1  0  0  0  0
  3  4  1  0  0  0  0
  3  5  1  0  0  0  0
  3 18  1  0  0  0  0
  4 29  1  0  0  0  0
  4 30  1  0  0  0  0
  4 31  1  0  0  0  0
  5  6  1  0  0  0  0
  5 32  1  0  0  0  0
  5 33  1  0  0  0  0
  6  7  1  0  0  0  0
  6 34  1  0  0  0  0
  7  8  2  0  0  0  0
  7  9  1  0  0  0  0
  9 35  1  0  0  0  0
  9 36  1  0  0  0  0
  9 10  1  0  0  0  0
 10 11  1  0  0  0  0
 10 16  1  0  0  0  0
 11 12  1  0  0  0  0
 12 13  2  0  0  0  0
 12 14  1  0  0  0  0
 14 37  1  0  0  0  0
 14 15  2  0  0  0  0
 15 38  1  0  0  0  0
 15 16  1  0  0  0  0
 16 17  2  0  0  0  0
 18 23  1  0  0  0  0
 18 19  1  0  0  0  0
 18 47  1  0  0  0  0
 19 20  1  0  0  0  0
 19 39  1  0  0  0  0
 19 40  1  0  0  0  0
 20 21  1  0  0  0  0
 20 41  1  0  0  0  0
 20 42  1  0  0  0  0
 21 22  1  0  0  0  0
 22 23  1  0  0  0  0
 22 43  1  0  0  0  0
 22 44  1  0  0  0  0
 23 45  1  0  0  0  0
 23 46  1  0  0  0  0
M  CHG  1  11  -1
M  CHG  1  18   1
M  END
> <s_m_source_file>
AV-unprocessed.smi

> <i_m_source_file_index>
1986

> <i_lp_mmshare_version>
43012

> <i_f3d_flags>
0

> <s_epik_input>
W0NIMl0xW0NIMl1PW0NIMl1bQ0gyXU4xW0NAQF0oW0NIM10pKFtDSDJdW0NIM10pW0NIMl1bTkhdQyg9TylbQ0gyXW4yW25IXWMoPU8pW2NIXVtjSF1jMj1P

> <s_epik_cmdline>
J2VwaWtfcHl0aG9uJywgJy1waCcsICc3LjAnLCAnLXRuJywgJzgnLCAnLW1hJywgJzIwMCcsICctbWV0YWxfYmluZGluZycsICctaW1hZScsICc8aW5maWxlLm1hZT4nLCAnLW9tYWUnLCAnPG91dGZpbGUubWFlPic=

> <r_lp_tautomer_probability>
1

> <r_epik_Ionization_Penalty>
0.604767

> <r_epik_Ionization_Penalty_Charging>
0.604766

> <r_epik_Ionization_Penalty_Neutral>
8.70177e-08

> <r_epik_State_Penalty>
0.54579

> <r_epik_Charging_Adjusted_Penalty>
1.15056

> <i_epik_Tot_Q>
0

> <i_epik_Tot_abs_Q>
2

> <r_epik_Metal_State_Penalty>
0.54579

> <b_epik_Metal_Only>
0

> <s_lp_Force_Field>
OPLS_2005

> <r_lp_Energy>
39.3648

> <b_lp_Chiralities_Consistent>
1

> <s_lp_Variant>
AV-unprocessed.smi:1986-3

> <Gold.Version>
5.8.1

> <Gold.Id.Protein>
6NUR|6NUR_protein|mol2

> <Gold.PLP.Fitness>
45.7240

> <Gold.PLP.PLP>
-35.1330

> <Gold.PLP.part.hbond>
-3.0000

> <Gold.PLP.part.metal>
0.0000

> <Gold.PLP.part.buried>
-3.9625

> <Gold.PLP.part.nonpolar>
-28.1499

> <Gold.PLP.part.repulsive>
0.1612

> <Gold.PLP.ligand.clash>
0.0000

> <Gold.PLP.ligand.torsion>
0.5978

> <Gold.PLP.Chemscore.Hbond>
3.8560

> <Gold.PLP.Chemscore.CHOScore>
0.0000

> <Gold.PLP.Chemscore.Metal>
0.0000

> <Gold.Chemscore.Hbonds>
donor molecule, donor type, donor heavy atom, donor atom, acceptor molecule, acceptor atom, score
      L1  H    18    47       P1  7948  1.92
      P1  H  6931  6943       L1    13  1.00
      P1  H  6934  6947       L1    13  0.82

> <Gold.PLP.Chemscore.Internal.Correction>
0.2185

> <Gold.Rescore>
     Score         DG    S(hbond)    S(metal)    S(lipo)     H(rot)  DE(clash)    DE(int)     intcor
     13.05     -15.22       2.74        0.00      59.67       2.50       0.21       1.96       ----

> <Gold.Chemscore.Fitness>
13.0505

> <Gold.Chemscore.DG>
-15.2249

> <Gold.Chemscore.ZeroCoef>
-5.4800

> <Gold.Chemscore.Hbond>
2.7415

> <Gold.Chemscore.Metal>
0.0000

> <Gold.Chemscore.Lipo>
59.6694

> <Gold.Chemscore.Internal_Hbond>
0.0000

> <Gold.Chemscore.DEClash>
0.2117

> <Gold.Chemscore.DEInternal>
1.9627

> <Gold.Chemscore.Rot>
2.4973

> <Gold.Chemscore.Internal.Correction>
   9.000000E+99

> <Gold.Chemscore.Hbonds>
donor molecule, donor type, donor heavy atom, donor atom, acceptor molecule, acceptor atom, score
      L1  H    18    47       P1  7948  0.26
      P1  H  6931  6943       L1    13  0.95
      P1  H  6934  6947       L1    13  0.78

> <Gold.Chemscore.Hbond.Weighted>
-9.1566

> <Gold.Chemscore.Metal.Weighted>
-0.0000

> <Gold.Chemscore.Lipo.Weighted>
-6.9813

> <Gold.Chemscore.Internal_Hbond.Weighted>
0.0000

> <Gold.Chemscore.DEClash.Weighted>
0.2117

> <Gold.Chemscore.DEInternal.Weighted>
1.9627

> <Gold.Chemscore.Rot.Weighted>
6.3930

> <Gold.Chemscore.Internal.Correction.Weighted>
   9.000000E+99

> <Gold.Protein.RotatedTorsions>
[ 6907 6896 6895 6894 ] final -129.30 input  -60.11 | X-H torsion
[ 7974 7965 7964 7962 ] final -133.67 input  175.53 | X-H torsion
[ 8008 7997 7996 7995 ] final  -70.75 input   59.86 | X-H torsion
[ 10167 10162 10161 10158 ] final   10.43 input  -65.29 | X-H torsion
[ 10718 10713 10712 10709 ] final   -3.03 input   66.30 | X-H torsion
[ 10763 10752 10751 10750 ] final -136.71 input  -60.55 | X-H torsion
[ 11005 11000 10999 10996 ] final   82.31 input  -57.11 | X-H torsion

> <Gold.Protein.ActiveResidues>
 VAL166  LYS551  ARG553  GLY616  TRP617  ASP618  TYR619  PRO620  LYS621  CYS622 
 ASP623  PHE694  ASN695  SER759  ASP760  ASP761  ALA762  ILE779  LEU786  VAL792 
 PHE793  MET794  SER795  GLU796  ALA797  LYS798  CYS799  TRP800  GLU811  SER814 

> <Gold.Protein.RotatedAtoms>
  150.9272  133.6810  159.2818 H   0  0  0  0  0  0  0  0  0  0  0  0  # atno 6907 bound_to 6896
  151.4244  135.1000  159.9633 H   0  0  0  0  0  0  0  0  0  0  0  0  # atno 6908 bound_to 6896
  152.5008  133.8716  159.7356 H   0  0  0  0  0  0  0  0  0  0  0  0  # atno 6909 bound_to 6896
  144.9172  140.6969  143.4988 H   0  0  0  0  0  0  0  0  0  0  0  0  # atno 7974 bound_to 7965
  154.5035  140.0828  156.7847 H   0  0  0  0  0  0  0  0  0  0  0  0  # atno 8008 bound_to 7997
  155.3947  140.3434  155.4235 H   0  0  0  0  0  0  0  0  0  0  0  0  # atno 8009 bound_to 7997
  156.1487  140.1551  156.8793 H   0  0  0  0  0  0  0  0  0  0  0  0  # atno 8010 bound_to 7997
  140.6194  143.8236  150.7157 H   0  0  0  0  0  0  0  0  0  0  0  0  # atno 10167 bound_to 10162
  156.7821  130.5334  149.5749 H   0  0  0  0  0  0  0  0  0  0  0  0  # atno 10718 bound_to 10713
  154.8678  135.3664  154.5105 H   0  0  0  0  0  0  0  0  0  0  0  0  # atno 10763 bound_to 10752
  153.5740  135.7020  153.5497 H   0  0  0  0  0  0  0  0  0  0  0  0  # atno 10764 bound_to 10752
  153.3516  135.4070  155.1613 H   0  0  0  0  0  0  0  0  0  0  0  0  # atno 10765 bound_to 10752
  139.9068  134.8062  156.2158 H   0  0  0  0  0  0  0  0  0  0  0  0  # atno 11005 bound_to 11000
  145.3356  139.1747  143.4513 LP  0  0  0  0  0  0  0  0  0  0  0  0  # atno 17320 bound_to 7965
  146.3187  140.3391  142.8646 LP  0  0  0  0  0  0  0  0  0  0  0  0  # atno 17321 bound_to 7965
  140.1823  143.4104  152.1924 LP  0  0  0  0  0  0  0  0  0  0  0  0  # atno 17342 bound_to 10162
  139.5426  144.7270  151.4685 LP  0  0  0  0  0  0  0  0  0  0  0  0  # atno 17343 bound_to 10162
  156.1211  130.6111  151.0195 LP  0  0  0  0  0  0  0  0  0  0  0  0  # atno 17370 bound_to 10713
  157.6641  131.0875  150.7769 LP  0  0  0  0  0  0  0  0  0  0  0  0  # atno 17371 bound_to 10713
  141.0437  133.6924  156.1644 LP  0  0  0  0  0  0  0  0  0  0  0  0  # atno 17394 bound_to 11000
  140.6917  134.4659  157.5588 LP  0  0  0  0  0  0  0  0  0  0  0  0  # atno 17395 bound_to 11000

$$$$
