AV-unprocessed.smi:3179|AV-procd|sdf|12132|dock6
  -GOLD-   2272017573D 1   1.00000     0.00000
 Structure written by MMmdl.
 34 34  0  0  0  0  0  0  0  0  2 V2000
  146.3096  142.5349  154.5711 C   0  0  0  0  0  0  0  0  0  0  0  0
  147.4366  141.7022  153.9536 C   0  0  0  0  0  0  0  0  0  0  0  0
  148.6646  141.7928  154.7541 N   0  3  0  0  0  0  0  0  0  0  0  0
  149.5874  140.8202  154.8886 C   0  0  0  0  0  0  0  0  0  0  0  0
  149.4173  139.6391  154.2627 N   0  0  0  0  0  0  0  0  0  0  0  0
  150.3385  138.4966  154.3241 C   0  0  0  0  0  0  0  0  0  0  0  0
  149.7435  137.3482  155.1436 C   0  0  0  0  0  0  0  0  0  0  0  0
  150.6804  141.0277  155.6486 N   0  0  0  0  0  0  0  0  0  0  0  0
  150.9870  142.2560  156.3942 C   0  0  0  0  0  0  0  0  0  0  0  0
  151.0949  141.9796  157.8985 C   0  0  0  0  0  0  0  0  0  0  0  0
  151.3514  143.2187  158.6889 C   0  0  0  0  0  0  0  0  0  0  0  0
  150.6149  143.5865  159.7410 N   0  0  0  0  0  0  0  0  0  0  0  0
  151.0421  144.7954  160.2963 C   0  0  0  0  0  0  0  0  0  0  0  0
  152.1075  145.3539  159.6369 C   0  0  0  0  0  0  0  0  0  0  0  0
  152.6160  144.3760  158.2871 S   0  0  0  0  0  0  0  0  0  0  0  0
  145.4047  142.4690  153.9663 H   0  0  0  0  0  0  0  0  0  0  0  0
  146.5875  143.5871  154.6387 H   0  0  0  0  0  0  0  0  0  0  0  0
  146.0648  142.1853  155.5744 H   0  0  0  0  0  0  0  0  0  0  0  0
  147.1345  140.6572  153.8809 H   0  0  0  0  0  0  0  0  0  0  0  0
  147.6458  142.0510  152.9419 H   0  0  0  0  0  0  0  0  0  0  0  0
  148.5875  139.5153  153.7005 H   0  0  0  0  0  0  0  0  0  0  0  0
  150.5567  138.1595  153.3105 H   0  0  0  0  0  0  0  0  0  0  0  0
  151.2796  138.8230  154.7675 H   0  0  0  0  0  0  0  0  0  0  0  0
  150.4375  136.5088  155.1931 H   0  0  0  0  0  0  0  0  0  0  0  0
  148.8156  136.9861  154.7000 H   0  0  0  0  0  0  0  0  0  0  0  0
  149.5289  137.6619  156.1656 H   0  0  0  0  0  0  0  0  0  0  0  0
  151.3427  140.2709  155.7420 H   0  0  0  0  0  0  0  0  0  0  0  0
  151.9245  142.6725  156.0244 H   0  0  0  0  0  0  0  0  0  0  0  0
  150.2051  142.9905  156.1983 H   0  0  0  0  0  0  0  0  0  0  0  0
  150.1776  141.5150  158.2628 H   0  0  0  0  0  0  0  0  0  0  0  0
  151.9014  141.2719  158.0933 H   0  0  0  0  0  0  0  0  0  0  0  0
  150.5282  145.1871  161.1618 H   0  0  0  0  0  0  0  0  0  0  0  0
  152.6198  146.2780  159.8612 H   0  0  0  0  0  0  0  0  0  0  0  0
  148.8157  142.6627  155.2446 H   0  0  0  0  0  0  0  0  0  0  0  0
  1  2  1  0  0  0  0
  1 16  1  0  0  0  0
  1 17  1  0  0  0  0
  1 18  1  0  0  0  0
  2  3  1  0  0  0  0
  2 19  1  0  0  0  0
  2 20  1  0  0  0  0
  3  4  2  0  0  0  0
  3 34  1  0  0  0  0
  4  5  1  0  0  0  0
  4  8  1  0  0  0  0
  5  6  1  0  0  0  0
  5 21  1  0  0  0  0
  6  7  1  0  0  0  0
  6 22  1  0  0  0  0
  6 23  1  0  0  0  0
  7 24  1  0  0  0  0
  7 25  1  0  0  0  0
  7 26  1  0  0  0  0
  8  9  1  0  0  0  0
  8 27  1  0  0  0  0
  9 10  1  0  0  0  0
  9 28  1  0  0  0  0
  9 29  1  0  0  0  0
 10 11  1  0  0  0  0
 10 30  1  0  0  0  0
 10 31  1  0  0  0  0
 11 15  1  0  0  0  0
 11 12  2  0  0  0  0
 12 13  1  0  0  0  0
 13 14  2  0  0  0  0
 13 32  1  0  0  0  0
 14 15  1  0  0  0  0
 14 33  1  0  0  0  0
M  CHG  1   3   1
M  END
> <s_m_source_file>
AV-unprocessed.smi

> <i_m_source_file_index>
3179

> <i_lp_mmshare_version>
43012

> <i_f3d_flags>
0

> <s_epik_input>
W0NIM11bQ0gyXS9OPUMoXFtOSF1bQ0gyXVtDSDNdKVtOSF1bQ0gyXVtDSDJdYzFuW2NIXVtjSF1zMQ==

> <s_epik_cmdline>
J2VwaWtfcHl0aG9uJywgJy1waCcsICc3LjAnLCAnLXRuJywgJzgnLCAnLW1hJywgJzIwMCcsICctbWV0YWxfYmluZGluZycsICctaW1hZScsICc8aW5maWxlLm1hZT4nLCAnLW9tYWUnLCAnPG91dGZpbGUubWFlPic=

> <r_lp_tautomer_probability>
1

> <r_epik_Ionization_Penalty>
3.28801e-05

> <r_epik_Ionization_Penalty_Charging>
8.99277e-08

> <r_epik_Ionization_Penalty_Neutral>
3.27902e-05

> <r_epik_State_Penalty>
-0

> <r_epik_Charging_Adjusted_Penalty>
8.99277e-08

> <i_epik_Tot_Q>
1

> <i_epik_Tot_abs_Q>
1

> <r_epik_Metal_State_Penalty>
-0

> <b_epik_Metal_Only>
0

> <s_epik_Chemistry_Notes>
This compound has an imine and may undergo hydrolysis.

> <s_lp_Force_Field>
OPLS_2005

> <r_lp_Energy>
0.386487

> <b_lp_Chiralities_Consistent>
1

> <s_lp_Variant>
AV-unprocessed.smi:3179-1

> <Gold.Version>
5.8.1

> <Gold.Id.Protein>
6NUR|6NUR_protein|mol2

> <Gold.PLP.Fitness>
42.2466

> <Gold.PLP.PLP>
-36.8763

> <Gold.PLP.part.hbond>
-2.8271

> <Gold.PLP.part.metal>
0.0000

> <Gold.PLP.part.buried>
-5.4819

> <Gold.PLP.part.nonpolar>
-28.9358

> <Gold.PLP.part.repulsive>
0.8218

> <Gold.PLP.ligand.clash>
0.0000

> <Gold.PLP.ligand.torsion>
0.3243

> <Gold.PLP.Chemscore.Hbond>
2.0000

> <Gold.PLP.Chemscore.CHOScore>
0.0000

> <Gold.PLP.Chemscore.Metal>
0.0000

> <Gold.Chemscore.Hbonds>
donor molecule, donor type, donor heavy atom, donor atom, acceptor molecule, acceptor atom, score
      L1  H     3    34       P1  8028  1.69

> <Gold.PLP.Chemscore.Internal.Correction>
0.0190

> <Gold.Rescore>
     Score         DG    S(hbond)    S(metal)    S(lipo)     H(rot)  DE(clash)    DE(int)     intcor
     14.20     -14.85       0.98        0.00      89.59       1.72       0.48       0.16       ----

> <Gold.Chemscore.Fitness>
14.2016

> <Gold.Chemscore.DG>
-14.8480

> <Gold.Chemscore.ZeroCoef>
-5.4800

> <Gold.Chemscore.Hbond>
0.9839

> <Gold.Chemscore.Metal>
0.0000

> <Gold.Chemscore.Lipo>
89.5854

> <Gold.Chemscore.Internal_Hbond>
0.0000

> <Gold.Chemscore.DEClash>
0.4825

> <Gold.Chemscore.DEInternal>
0.1639

> <Gold.Chemscore.Rot>
1.7187

> <Gold.Chemscore.Internal.Correction>
   9.000000E+99

> <Gold.Chemscore.Hbonds>
donor molecule, donor type, donor heavy atom, donor atom, acceptor molecule, acceptor atom, score
      L1  H     3    34       P1  8028  0.84

> <Gold.Chemscore.Hbond.Weighted>
-3.2863

> <Gold.Chemscore.Metal.Weighted>
-0.0000

> <Gold.Chemscore.Lipo.Weighted>
-10.4815

> <Gold.Chemscore.Internal_Hbond.Weighted>
0.0000

> <Gold.Chemscore.DEClash.Weighted>
0.4825

> <Gold.Chemscore.DEInternal.Weighted>
0.1639

> <Gold.Chemscore.Rot.Weighted>
4.3998

> <Gold.Chemscore.Internal.Correction.Weighted>
   9.000000E+99

> <Gold.Protein.RotatedTorsions>
[ 6907 6896 6895 6894 ] final  -22.26 input  -60.11 | X-H torsion
[ 7974 7965 7964 7962 ] final  127.97 input  175.53 | X-H torsion
[ 8008 7997 7996 7995 ] final   65.80 input   59.86 | X-H torsion
[ 10167 10162 10161 10158 ] final   97.05 input  -65.29 | X-H torsion
[ 10718 10713 10712 10709 ] final  116.62 input   66.30 | X-H torsion
[ 10763 10752 10751 10750 ] final  132.17 input  -60.55 | X-H torsion
[ 11005 11000 10999 10996 ] final   58.41 input  -57.11 | X-H torsion

> <Gold.Protein.ActiveResidues>
 VAL166  LYS551  ARG553  GLY616  TRP617  ASP618  TYR619  PRO620  LYS621  CYS622 
 ASP623  PHE694  ASN695  SER759  ASP760  ASP761  ALA762  ILE779  LEU786  VAL792 
 PHE793  MET794  SER795  GLU796  ALA797  LYS798  CYS799  TRP800  GLU811  SER814 

> <Gold.Protein.RotatedAtoms>
  151.2212  135.0519  159.8950 H   0  0  0  0  0  0  0  0  0  0  0  0  # atno 6907 bound_to 6896
  152.5415  134.0639  159.8174 H   0  0  0  0  0  0  0  0  0  0  0  0  # atno 6908 bound_to 6896
  151.0805  133.5345  159.2652 H   0  0  0  0  0  0  0  0  0  0  0  0  # atno 6909 bound_to 6896
  145.0447  139.3933  143.5084 H   0  0  0  0  0  0  0  0  0  0  0  0  # atno 7974 bound_to 7965
  155.6675  140.3497  155.4805 H   0  0  0  0  0  0  0  0  0  0  0  0  # atno 8008 bound_to 7997
  155.9717  140.1157  157.0829 H   0  0  0  0  0  0  0  0  0  0  0  0  # atno 8009 bound_to 7997
  154.4168  140.1156  156.5301 H   0  0  0  0  0  0  0  0  0  0  0  0  # atno 8010 bound_to 7997
  139.7837  144.6878  150.9987 H   0  0  0  0  0  0  0  0  0  0  0  0  # atno 10167 bound_to 10162
  157.6149  131.1027  150.7499 H   0  0  0  0  0  0  0  0  0  0  0  0  # atno 10718 bound_to 10713
  153.7864  135.3161  155.3372 H   0  0  0  0  0  0  0  0  0  0  0  0  # atno 10763 bound_to 10752
  154.8142  135.4647  154.0601 H   0  0  0  0  0  0  0  0  0  0  0  0  # atno 10764 bound_to 10752
  153.1906  135.6908  153.8444 H   0  0  0  0  0  0  0  0  0  0  0  0  # atno 10765 bound_to 10752
  140.0379  134.5916  155.9420 H   0  0  0  0  0  0  0  0  0  0  0  0  # atno 11005 bound_to 11000
  146.3513  140.0066  142.8671 LP  0  0  0  0  0  0  0  0  0  0  0  0  # atno 17320 bound_to 7965
  145.1603  140.9669  143.4381 LP  0  0  0  0  0  0  0  0  0  0  0  0  # atno 17321 bound_to 7965
  140.7819  143.4455  151.0489 LP  0  0  0  0  0  0  0  0  0  0  0  0  # atno 17342 bound_to 10162
  139.8134  143.7919  152.3173 LP  0  0  0  0  0  0  0  0  0  0  0  0  # atno 17343 bound_to 10162
  156.7868  130.4877  149.5391 LP  0  0  0  0  0  0  0  0  0  0  0  0  # atno 17370 bound_to 10713
  156.1266  130.6148  151.0273 LP  0  0  0  0  0  0  0  0  0  0  0  0  # atno 17371 bound_to 10713
  141.1867  133.6558  156.5252 LP  0  0  0  0  0  0  0  0  0  0  0  0  # atno 17394 bound_to 11000
  140.4117  134.7266  157.4839 LP  0  0  0  0  0  0  0  0  0  0  0  0  # atno 17395 bound_to 11000

$$$$
