AV-unprocessed.smi:771|AV-procd|sdf|3683|dock1
  -GOLD-   22720 1 93D 1   1.00000     0.00000
 Structure written by MMmdl.
 41 42  0  0  0  0  0  0  0  0  3 V2000
  147.4304  132.6570  154.2580 O   0  0  0  0  0  0  0  0  0  0  0  0
  148.0025  133.6801  153.8789 C   0  0  0  0  0  0  0  0  0  0  0  0
  149.4987  133.8953  154.1492 C   0  0  0  0  0  0  0  0  0  0  0  0
  149.7786  135.0584  155.0083 N   0  0  0  0  0  0  0  0  0  0  0  0
  150.6788  136.0202  154.5086 C   0  0  0  0  0  0  0  0  0  0  0  0
  151.0134  137.1205  155.2107 C   0  0  0  0  0  0  0  0  0  0  0  0
  151.9423  138.0959  154.6837 N   0  3  0  0  0  0  0  0  0  0  0  0
  152.9928  137.7001  154.1889 O   0  0  0  0  0  0  0  0  0  0  0  0
  151.6549  139.2875  154.7468 O   0  5  0  0  0  0  0  0  0  0  0  0
  150.4115  137.2946  156.5185 C   0  0  0  0  0  0  0  0  0  0  0  0
  149.5532  136.3761  157.0039 C   0  0  0  0  0  0  0  0  0  0  0  0
  149.1939  135.1771  156.2396 C   0  0  0  0  0  0  0  0  0  0  0  0
  148.4158  134.3309  156.6803 O   0  0  0  0  0  0  0  0  0  0  0  0
  147.3861  134.6575  153.1967 N   0  0  0  0  0  0  0  0  0  0  0  0
  145.9761  134.6702  152.8168 C   0  0  0  0  0  0  0  0  0  0  0  0
  145.5906  133.4620  151.9332 C   0  0  2  0  0  0  0  0  0  0  0  0
  146.3477  133.4917  150.5884 C   0  0  0  0  0  0  0  0  0  0  0  0
  146.0342  132.2555  149.7303 C   0  0  0  0  0  0  0  0  0  0  0  0
  144.5247  132.1138  149.4880 C   0  0  0  0  0  0  0  0  0  0  0  0
  143.7483  132.0820  150.8152 C   0  0  0  0  0  0  0  0  0  0  0  0
  144.0639  133.2999  151.7056 C   0  0  2  0  0  0  0  0  0  0  0  0
  143.5100  134.4622  151.1181 O   0  0  0  0  0  0  0  0  0  0  0  0
  149.8972  132.9855  154.6007 H   0  0  0  0  0  0  0  0  0  0  0  0
  150.0237  133.9930  153.1971 H   0  0  0  0  0  0  0  0  0  0  0  0
  151.0762  135.7953  153.5292 H   0  0  0  0  0  0  0  0  0  0  0  0
  150.6452  138.1614  157.1188 H   0  0  0  0  0  0  0  0  0  0  0  0
  149.1177  136.5251  157.9809 H   0  0  0  0  0  0  0  0  0  0  0  0
  147.9358  135.4588  152.9215 H   0  0  0  0  0  0  0  0  0  0  0  0
  145.3304  134.7274  153.6947 H   0  0  0  0  0  0  0  0  0  0  0  0
  145.8033  135.5932  152.2624 H   0  0  0  0  0  0  0  0  0  0  0  0
  145.9273  132.5684  152.4615 H   0  0  0  0  0  0  0  0  0  0  0  0
  146.0881  134.3953  150.0352 H   0  0  0  0  0  0  0  0  0  0  0  0
  147.4222  133.5415  150.7676 H   0  0  0  0  0  0  0  0  0  0  0  0
  146.5581  132.3231  148.7764 H   0  0  0  0  0  0  0  0  0  0  0  0
  146.4108  131.3604  150.2266 H   0  0  0  0  0  0  0  0  0  0  0  0
  144.1739  132.9446  148.8747 H   0  0  0  0  0  0  0  0  0  0  0  0
  144.3233  131.2058  148.9187 H   0  0  0  0  0  0  0  0  0  0  0  0
  142.6767  132.0231  150.6208 H   0  0  0  0  0  0  0  0  0  0  0  0
  144.0084  131.1704  151.3548 H   0  0  0  0  0  0  0  0  0  0  0  0
  143.5630  133.1563  152.6631 H   0  0  0  0  0  0  0  0  0  0  0  0
  142.7039  134.2240  150.6846 H   0  0  0  0  0  0  0  0  0  0  0  0
  1  2  2  0  0  0  0
  2  3  1  0  0  0  0
  2 14  1  0  0  0  0
  3  4  1  0  0  0  0
  3 23  1  0  0  0  0
  3 24  1  0  0  0  0
  4 12  1  0  0  0  0
  4  5  1  0  0  0  0
  5  6  2  0  0  0  0
  5 25  1  0  0  0  0
  6  7  1  0  0  0  0
  6 10  1  0  0  0  0
  7  8  2  0  0  0  0
  7  9  1  0  0  0  0
 10 11  2  0  0  0  0
 10 26  1  0  0  0  0
 11 12  1  0  0  0  0
 11 27  1  0  0  0  0
 12 13  2  0  0  0  0
 14 15  1  0  0  0  0
 14 28  1  0  0  0  0
 15 16  1  0  0  0  0
 15 29  1  0  0  0  0
 15 30  1  0  0  0  0
 16 21  1  0  0  0  0
 16 17  1  0  0  0  0
 16 31  1  0  0  0  0
 17 18  1  0  0  0  0
 17 32  1  0  0  0  0
 17 33  1  0  0  0  0
 18 19  1  0  0  0  0
 18 34  1  0  0  0  0
 18 35  1  0  0  0  0
 19 20  1  0  0  0  0
 19 36  1  0  0  0  0
 19 37  1  0  0  0  0
 20 21  1  0  0  0  0
 20 38  1  0  0  0  0
 20 39  1  0  0  0  0
 21 22  1  0  0  0  0
 21 40  1  0  0  0  0
 22 41  1  0  0  0  0
M  CHG  1   7   1
M  CHG  1   9  -1
M  END
> <s_m_source_file>
AV-unprocessed.smi

> <i_m_source_file_index>
771

> <i_lp_mmshare_version>
43012

> <i_f3d_flags>
0

> <s_epik_input>
Tz1jMVtjSF1bY0hdYyhbTitdKD1PKVtPLV0pW2NIXW4xW0NIMl1DKD1PKVtOSF1bQ0gyXVtDQEBIXTJbQ0gyXVtDSDJdW0NIMl1bQ0gyXVtDQEhdMltPSF0=

> <s_epik_cmdline>
J2VwaWtfcHl0aG9uJywgJy1waCcsICc3LjAnLCAnLXRuJywgJzgnLCAnLW1hJywgJzIwMCcsICctbWV0YWxfYmluZGluZycsICctaW1hZScsICc8aW5maWxlLm1hZT4nLCAnLW9tYWUnLCAnPG91dGZpbGUubWFlPic=

> <r_lp_tautomer_probability>
1

> <r_epik_Ionization_Penalty>
3.77175e-07

> <r_epik_Ionization_Penalty_Charging>
7.70067e-11

> <r_epik_Ionization_Penalty_Neutral>
3.77098e-07

> <r_epik_State_Penalty>
-0

> <r_epik_Charging_Adjusted_Penalty>
7.70067e-11

> <i_epik_Tot_Q>
0

> <i_epik_Tot_abs_Q>
2

> <r_epik_Metal_State_Penalty>
-0

> <b_epik_Metal_Only>
0

> <s_lp_Force_Field>
OPLS_2005

> <r_lp_Energy>
25.3676

> <b_lp_Chiralities_Consistent>
1

> <s_lp_Variant>
AV-unprocessed.smi:771-3

> <Gold.Version>
5.8.1

> <Gold.Id.Protein>
6NUR|6NUR_protein|mol2

> <Gold.PLP.Fitness>
45.4577

> <Gold.PLP.PLP>
-34.1904

> <Gold.PLP.part.hbond>
-4.0000

> <Gold.PLP.part.metal>
0.0000

> <Gold.PLP.part.buried>
-2.8024

> <Gold.PLP.part.nonpolar>
-27.7889

> <Gold.PLP.part.repulsive>
0.1719

> <Gold.PLP.ligand.clash>
0.0000

> <Gold.PLP.ligand.torsion>
0.8732

> <Gold.PLP.Chemscore.Hbond>
3.3673

> <Gold.PLP.Chemscore.CHOScore>
0.9623

> <Gold.PLP.Chemscore.Metal>
0.0000

> <Gold.Chemscore.Hbonds>
donor molecule, donor type, donor heavy atom, donor atom, acceptor molecule, acceptor atom, score
      L1  H    14    28       P1  7948  0.99
      L1  H    22    41       P1 10186  0.98
      P1  H  7989  7998       L1     9  1.00
      P1  H 10752 10765       L1     8  0.40
      L1  C     5    25       P1  7949  0.96

> <Gold.PLP.Chemscore.Internal.Correction>
0.0250

> <Gold.Rescore>
     Score         DG    S(hbond)    S(metal)    S(lipo)     H(rot)  DE(clash)    DE(int)     intcor
     16.25     -19.11       3.24        0.00      78.03       2.48       0.29       2.56       ----

> <Gold.Chemscore.Fitness>
16.2536

> <Gold.Chemscore.DG>
-19.1087

> <Gold.Chemscore.ZeroCoef>
-5.4800

> <Gold.Chemscore.Hbond>
3.2445

> <Gold.Chemscore.Metal>
0.0000

> <Gold.Chemscore.Lipo>
78.0253

> <Gold.Chemscore.Internal_Hbond>
0.0000

> <Gold.Chemscore.DEClash>
0.2933

> <Gold.Chemscore.DEInternal>
2.5619

> <Gold.Chemscore.Rot>
2.4753

> <Gold.Chemscore.Internal.Correction>
   9.000000E+99

> <Gold.Chemscore.Hbonds>
donor molecule, donor type, donor heavy atom, donor atom, acceptor molecule, acceptor atom, score
      L1  H    14    28       P1  7948  0.94
      L1  H    22    41       P1 10186  0.50
      P1  H  7989  7998       L1     9  0.95
      P1  H 10752 10765       L1     8  0.31

> <Gold.Chemscore.Hbond.Weighted>
-10.8366

> <Gold.Chemscore.Metal.Weighted>
-0.0000

> <Gold.Chemscore.Lipo.Weighted>
-9.1290

> <Gold.Chemscore.Internal_Hbond.Weighted>
0.0000

> <Gold.Chemscore.DEClash.Weighted>
0.2933

> <Gold.Chemscore.DEInternal.Weighted>
2.5619

> <Gold.Chemscore.Rot.Weighted>
6.3369

> <Gold.Chemscore.Internal.Correction.Weighted>
   9.000000E+99

> <Gold.Protein.RotatedTorsions>
[ 6907 6896 6895 6894 ] final  129.17 input  -60.11 | X-H torsion
[ 7974 7965 7964 7962 ] final   45.11 input  175.53 | X-H torsion
[ 8008 7997 7996 7995 ] final  -69.59 input   59.86 | X-H torsion
[ 10167 10162 10161 10158 ] final  -37.13 input  -65.29 | X-H torsion
[ 10718 10713 10712 10709 ] final  109.87 input   66.30 | X-H torsion
[ 10763 10752 10751 10750 ] final  151.14 input  -60.55 | X-H torsion
[ 11005 11000 10999 10996 ] final  -50.07 input  -57.11 | X-H torsion

> <Gold.Protein.ActiveResidues>
 VAL166  LYS551  ARG553  GLY616  TRP617  ASP618  TYR619  PRO620  LYS621  CYS622 
 ASP623  PHE694  ASN695  SER759  ASP760  ASP761  ALA762  ILE779  LEU786  VAL792 
 PHE793  MET794  SER795  GLU796  ALA797  LYS798  CYS799  TRP800  GLU811  SER814 

> <Gold.Protein.RotatedAtoms>
  152.3650  133.6344  159.6043 H   0  0  0  0  0  0  0  0  0  0  0  0  # atno 6907 bound_to 6896
  150.7627  133.9363  159.3451 H   0  0  0  0  0  0  0  0  0  0  0  0  # atno 6908 bound_to 6896
  151.7195  135.0898  160.0333 H   0  0  0  0  0  0  0  0  0  0  0  0  # atno 6909 bound_to 6896
  146.0509  139.5001  142.9719 H   0  0  0  0  0  0  0  0  0  0  0  0  # atno 7974 bound_to 7965
  154.4950  140.0850  156.7677 H   0  0  0  0  0  0  0  0  0  0  0  0  # atno 8008 bound_to 7997
  155.4139  140.3442  155.4247 H   0  0  0  0  0  0  0  0  0  0  0  0  # atno 8009 bound_to 7997
  156.1381  140.1521  156.8950 H   0  0  0  0  0  0  0  0  0  0  0  0  # atno 8010 bound_to 7997
  140.7126  143.3362  151.2457 H   0  0  0  0  0  0  0  0  0  0  0  0  # atno 10167 bound_to 10162
  157.6521  131.0922  150.6518 H   0  0  0  0  0  0  0  0  0  0  0  0  # atno 10718 bound_to 10713
  154.0989  135.2847  155.3256 H   0  0  0  0  0  0  0  0  0  0  0  0  # atno 10763 bound_to 10752
  154.6569  135.5349  153.7973 H   0  0  0  0  0  0  0  0  0  0  0  0  # atno 10764 bound_to 10752
  153.0386  135.6524  154.1154 H   0  0  0  0  0  0  0  0  0  0  0  0  # atno 10765 bound_to 10752
  141.0795  133.6657  156.3678 H   0  0  0  0  0  0  0  0  0  0  0  0  # atno 11005 bound_to 11000
  145.6725  141.0212  143.1650 LP  0  0  0  0  0  0  0  0  0  0  0  0  # atno 17320 bound_to 7965
  144.7122  139.8327  143.7410 LP  0  0  0  0  0  0  0  0  0  0  0  0  # atno 17321 bound_to 7965
  139.6858  143.9777  152.2833 LP  0  0  0  0  0  0  0  0  0  0  0  0  # atno 17342 bound_to 10162
  139.9422  144.6674  150.8255 LP  0  0  0  0  0  0  0  0  0  0  0  0  # atno 17343 bound_to 10162
  156.6828  130.4572  149.5622 LP  0  0  0  0  0  0  0  0  0  0  0  0  # atno 17370 bound_to 10713
  156.1917  130.6564  151.1068 LP  0  0  0  0  0  0  0  0  0  0  0  0  # atno 17371 bound_to 10713
  140.5499  134.6037  157.5405 LP  0  0  0  0  0  0  0  0  0  0  0  0  # atno 17394 bound_to 11000
  139.9608  134.7455  156.0240 LP  0  0  0  0  0  0  0  0  0  0  0  0  # atno 17395 bound_to 11000

$$$$
