AV-unprocessed.smi:250|AV-procd|sdf|1931|dock10
  -GOLD-   2262021 53D 1   1.00000     0.00000
 Structure written by MMmdl.
 56 60  0  0  0  0  0  0  0  0  1 V2000
  152.3860  143.7409  160.8169 C   0  0  0  0  0  0  0  0  0  0  0  0
  151.8214  143.4977  159.4960 N   0  0  0  0  0  0  0  0  0  0  0  0
  151.2491  144.4038  158.6757 C   0  0  0  0  0  0  0  0  0  0  0  0
  151.0789  145.5978  158.9141 O   0  0  0  0  0  0  0  0  0  0  0  0
  150.8915  143.7800  157.5399 N   0  0  0  0  0  0  0  0  0  0  0  0
  150.9994  142.3500  157.7094 C   0  0  1  0  0  0  0  0  0  0  0  0
  151.3731  141.4354  156.5462 C   0  0  0  0  0  0  0  0  0  0  0  0
  151.4747  140.0690  157.0841 N   0  0  0  0  0  0  0  0  0  0  0  0
  151.4553  139.0841  156.1518 C   0  0  0  0  0  0  0  0  0  0  0  0
  152.2083  139.2056  155.0260 N   0  0  0  0  0  0  0  0  0  0  0  0
  152.1878  138.2483  154.0942 C   0  0  0  0  0  0  0  0  0  0  0  0
  151.4981  137.1063  154.0866 N   0  0  0  0  0  0  0  0  0  0  0  0
  150.7455  136.9739  155.2161 C   0  0  0  0  0  0  0  0  0  0  0  0
  150.6728  137.9031  156.2925 C   0  0  0  0  0  0  0  0  0  0  0  0
  149.8309  137.4128  157.2835 N   0  0  0  0  0  0  0  0  0  0  0  0
  149.4216  136.2662  156.8152 C   0  0  0  0  0  0  0  0  0  0  0  0
  149.9026  135.9333  155.5689 N   0  0  0  0  0  0  0  0  0  0  0  0
  149.6088  134.7197  154.8205 C   0  0  0  0  0  0  0  0  0  0  0  0
  150.0604  133.3856  155.4894 C   0  0  0  0  0  0  0  0  0  0  0  0
  149.8533  132.1799  154.5234 C   0  0  0  0  0  0  0  0  0  0  0  0
  148.5346  132.0631  154.0286 O   0  0  0  0  0  0  0  0  0  0  0  0
  151.5254  133.4795  155.9881 C   0  0  0  0  0  0  0  0  0  0  0  0
  151.9061  132.3228  156.9276 C   0  0  0  0  0  0  0  0  0  0  0  0
  151.0300  132.3059  158.0469 O   0  0  0  0  0  0  0  0  0  0  0  0
  149.6756  132.0730  157.6839 C   0  0  0  0  0  0  0  0  0  0  0  0
  149.1747  133.1899  156.7468 C   0  0  0  0  0  0  0  0  0  0  0  0
  152.3071  139.8594  158.2871 C   0  0  0  0  0  0  0  0  0  0  0  0
  152.0246  140.8970  159.4082 C   0  0  0  0  0  0  0  0  0  0  0  0
  152.0861  142.2791  158.7556 C   0  0  2  0  0  0  0  0  0  0  0  0
  150.0421  142.0175  158.1195 H   0  0  0  0  0  0  0  0  0  0  0  0
  153.0709  142.4057  158.2980 H   0  0  0  0  0  0  0  0  0  0  0  0
  152.0047  144.6641  161.2554 H   0  0  0  0  0  0  0  0  0  0  0  0
  153.4719  143.8148  160.7546 H   0  0  0  0  0  0  0  0  0  0  0  0
  152.1359  142.9239  161.4938 H   0  0  0  0  0  0  0  0  0  0  0  0
  150.4199  144.2175  156.7618 H   0  0  0  0  0  0  0  0  0  0  0  0
  150.6214  141.5110  155.7619 H   0  0  0  0  0  0  0  0  0  0  0  0
  152.3279  141.7286  156.1075 H   0  0  0  0  0  0  0  0  0  0  0  0
  152.8116  138.4232  153.2299 H   0  0  0  0  0  0  0  0  0  0  0  0
  148.7413  135.6315  157.3643 H   0  0  0  0  0  0  0  0  0  0  0  0
  148.5329  134.7035  154.6414 H   0  0  0  0  0  0  0  0  0  0  0  0
  150.0680  134.8147  153.8355 H   0  0  0  0  0  0  0  0  0  0  0  0
  150.4993  132.2520  153.6507 H   0  0  0  0  0  0  0  0  0  0  0  0
  150.1217  131.2470  155.0198 H   0  0  0  0  0  0  0  0  0  0  0  0
  148.2828  132.8897  153.6458 H   0  0  0  0  0  0  0  0  0  0  0  0
  152.2261  133.5206  155.1543 H   0  0  0  0  0  0  0  0  0  0  0  0
  151.6594  134.4133  156.5354 H   0  0  0  0  0  0  0  0  0  0  0  0
  151.8820  131.3629  156.4104 H   0  0  0  0  0  0  0  0  0  0  0  0
  152.9259  132.4591  157.2874 H   0  0  0  0  0  0  0  0  0  0  0  0
  149.5719  131.0861  157.2337 H   0  0  0  0  0  0  0  0  0  0  0  0
  149.0732  132.0584  158.5924 H   0  0  0  0  0  0  0  0  0  0  0  0
  149.1518  134.1158  157.3236 H   0  0  0  0  0  0  0  0  0  0  0  0
  148.1417  132.9930  156.4572 H   0  0  0  0  0  0  0  0  0  0  0  0
  152.1440  138.8539  158.6772 H   0  0  0  0  0  0  0  0  0  0  0  0
  153.3573  139.9200  157.9979 H   0  0  0  0  0  0  0  0  0  0  0  0
  151.0456  140.7226  159.8568 H   0  0  0  0  0  0  0  0  0  0  0  0
  152.7644  140.8056  160.2035 H   0  0  0  0  0  0  0  0  0  0  0  0
  1  2  1  0  0  0  0
  1 32  1  0  0  0  0
  1 33  1  0  0  0  0
  1 34  1  0  0  0  0
  2 29  1  0  0  0  0
  2  3  1  0  0  0  0
  3  4  2  0  0  0  0
  3  5  1  0  0  0  0
  5  6  1  0  0  0  0
  5 35  1  0  0  0  0
  6 30  1  0  0  0  0
  6 29  1  0  0  0  0
  6  7  1  0  0  0  0
  7  8  1  0  0  0  0
  7 36  1  0  0  0  0
  7 37  1  0  0  0  0
  8  9  1  0  0  0  0
  8 27  1  0  0  0  0
  9 14  1  0  0  0  0
  9 10  2  0  0  0  0
 10 11  1  0  0  0  0
 11 12  2  0  0  0  0
 11 38  1  0  0  0  0
 12 13  1  0  0  0  0
 13 17  1  0  0  0  0
 13 14  2  0  0  0  0
 14 15  1  0  0  0  0
 15 16  2  0  0  0  0
 16 17  1  0  0  0  0
 16 39  1  0  0  0  0
 17 18  1  0  0  0  0
 18 19  1  0  0  0  0
 18 40  1  0  0  0  0
 18 41  1  0  0  0  0
 19 26  1  0  0  0  0
 19 20  1  0  0  0  0
 19 22  1  0  0  0  0
 20 21  1  0  0  0  0
 20 42  1  0  0  0  0
 20 43  1  0  0  0  0
 21 44  1  0  0  0  0
 22 23  1  0  0  0  0
 22 45  1  0  0  0  0
 22 46  1  0  0  0  0
 23 24  1  0  0  0  0
 23 47  1  0  0  0  0
 23 48  1  0  0  0  0
 24 25  1  0  0  0  0
 25 26  1  0  0  0  0
 25 49  1  0  0  0  0
 25 50  1  0  0  0  0
 26 51  1  0  0  0  0
 26 52  1  0  0  0  0
 27 28  1  0  0  0  0
 27 53  1  0  0  0  0
 27 54  1  0  0  0  0
 28 29  1  0  0  0  0
 28 55  1  0  0  0  0
 28 56  1  0  0  0  0
 29 31  1  0  0  0  0
M  END
> <s_m_source_file>
AV-unprocessed.smi

> <i_m_source_file_index>
250

> <i_lp_mmshare_version>
43012

> <i_f3d_flags>
0

> <s_epik_input>
Tz1DKFtOSF0xKU4oW0NIM10pW0NASF0oW0NASF0xMilbQ0gyXVtDSDJdTihbQ0gyXTIpYyhuW2NIXW4zKWMoYzM0KW5bY0hdbjRbQ0gyXUM1KFtDSDJdW09IXSlbQ0gyXVtDSDJdT1tDSDJdW0NIMl01

> <s_epik_cmdline>
J2VwaWtfcHl0aG9uJywgJy1waCcsICc3LjAnLCAnLXRuJywgJzgnLCAnLW1hJywgJzIwMCcsICctbWV0YWxfYmluZGluZycsICctaW1hZScsICc8aW5maWxlLm1hZT4nLCAnLW9tYWUnLCAnPG91dGZpbGUubWFlPic=

> <r_lp_tautomer_probability>
1

> <r_epik_Ionization_Penalty>
0.00229024

> <r_epik_Ionization_Penalty_Charging>
0

> <r_epik_Ionization_Penalty_Neutral>
0.00229024

> <r_epik_State_Penalty>
0.0013961

> <r_epik_Charging_Adjusted_Penalty>
0.0013961

> <i_epik_Tot_Q>
0

> <i_epik_Tot_abs_Q>
0

> <r_epik_Metal_State_Penalty>
-0

> <b_epik_Metal_Only>
0

> <s_lp_Force_Field>
OPLS_2005

> <r_lp_Energy>
73.7244

> <b_lp_Chiralities_Consistent>
1

> <s_lp_Variant>
AV-unprocessed.smi:250-2

> <Gold.Version>
5.8.1

> <Gold.Id.Protein>
6NUR|6NUR_protein|mol2

> <Gold.PLP.Fitness>
50.1192

> <Gold.PLP.PLP>
-42.9614

> <Gold.PLP.part.hbond>
-4.3572

> <Gold.PLP.part.metal>
0.0000

> <Gold.PLP.part.buried>
-8.2583

> <Gold.PLP.part.nonpolar>
-31.3323

> <Gold.PLP.part.repulsive>
2.1323

> <Gold.PLP.ligand.clash>
0.0000

> <Gold.PLP.ligand.torsion>
1.1843

> <Gold.PLP.Chemscore.Hbond>
3.0791

> <Gold.PLP.Chemscore.CHOScore>
0.0000

> <Gold.PLP.Chemscore.Metal>
0.0000

> <Gold.Chemscore.Hbonds>
donor molecule, donor type, donor heavy atom, donor atom, acceptor molecule, acceptor atom, score
      L1  H     5    35       P1  8028  1.00
      P1  H  6896  6909       L1    24  1.00
      P1  H  7989  7998       L1    10  0.16
      P1  H 10752 10765       L1    12  0.96

> <Gold.PLP.Chemscore.Internal.Correction>
0.2891

> <Gold.Rescore>
     Score         DG    S(hbond)    S(metal)    S(lipo)     H(rot)  DE(clash)    DE(int)     intcor
     13.36     -14.94       1.70        0.00      80.73       2.22       0.40       1.18       ----

> <Gold.Chemscore.Fitness>
13.3609

> <Gold.Chemscore.DG>
-14.9363

> <Gold.Chemscore.ZeroCoef>
-5.4800

> <Gold.Chemscore.Hbond>
1.7024

> <Gold.Chemscore.Metal>
0.0000

> <Gold.Chemscore.Lipo>
80.7334

> <Gold.Chemscore.Internal_Hbond>
0.0000

> <Gold.Chemscore.DEClash>
0.3953

> <Gold.Chemscore.DEInternal>
1.1801

> <Gold.Chemscore.Rot>
2.2170

> <Gold.Chemscore.Internal.Correction>
   9.000000E+99

> <Gold.Chemscore.Hbonds>
donor molecule, donor type, donor heavy atom, donor atom, acceptor molecule, acceptor atom, score
      L1  H     5    35       P1  8028  0.97
      P1  H  6896  6909       L1    24  0.81
      P1  H  7989  7998       L1    10  0.01
      P1  H 10752 10765       L1    12  0.18

> <Gold.Chemscore.Hbond.Weighted>
-5.6861

> <Gold.Chemscore.Metal.Weighted>
-0.0000

> <Gold.Chemscore.Lipo.Weighted>
-9.4458

> <Gold.Chemscore.Internal_Hbond.Weighted>
0.0000

> <Gold.Chemscore.DEClash.Weighted>
0.3953

> <Gold.Chemscore.DEInternal.Weighted>
1.1801

> <Gold.Chemscore.Rot.Weighted>
5.6756

> <Gold.Chemscore.Internal.Correction.Weighted>
   9.000000E+99

> <Gold.Protein.RotatedTorsions>
[ 6907 6896 6895 6894 ] final  -53.75 input  -60.11 | X-H torsion
[ 7974 7965 7964 7962 ] final -176.85 input  175.53 | X-H torsion
[ 8008 7997 7996 7995 ] final   46.61 input   59.86 | X-H torsion
[ 10167 10162 10161 10158 ] final -164.05 input  -65.29 | X-H torsion
[ 10718 10713 10712 10709 ] final   38.97 input   66.30 | X-H torsion
[ 10763 10752 10751 10750 ] final  160.63 input  -60.55 | X-H torsion
[ 11005 11000 10999 10996 ] final   -1.51 input  -57.11 | X-H torsion

> <Gold.Protein.ActiveResidues>
 VAL166  LYS551  ARG553  GLY616  TRP617  ASP618  TYR619  PRO620  LYS621  CYS622 
 ASP623  PHE694  ASN695  SER759  ASP760  ASP761  ALA762  ILE779  LEU786  VAL792 
 PHE793  MET794  SER795  GLU796  ALA797  LYS798  CYS799  TRP800  GLU811  SER814 

> <Gold.Protein.RotatedAtoms>
  150.8399  134.7687  159.6923 H   0  0  0  0  0  0  0  0  0  0  0  0  # atno 6907 bound_to 6896
  152.4488  134.5434  159.9855 H   0  0  0  0  0  0  0  0  0  0  0  0  # atno 6908 bound_to 6896
  151.5576  133.3370  159.3001 H   0  0  0  0  0  0  0  0  0  0  0  0  # atno 6909 bound_to 6896
  144.7127  140.1108  143.6411 H   0  0  0  0  0  0  0  0  0  0  0  0  # atno 7974 bound_to 7965
  155.3553  140.3416  155.4240 H   0  0  0  0  0  0  0  0  0  0  0  0  # atno 8008 bound_to 7997
  156.1742  140.1642  156.8427 H   0  0  0  0  0  0  0  0  0  0  0  0  # atno 8009 bound_to 7997
  154.5265  140.0755  156.8250 H   0  0  0  0  0  0  0  0  0  0  0  0  # atno 8010 bound_to 7997
  139.6278  144.0499  152.1989 H   0  0  0  0  0  0  0  0  0  0  0  0  # atno 10167 bound_to 10162
  157.3651  130.7671  149.7077 H   0  0  0  0  0  0  0  0  0  0  0  0  # atno 10718 bound_to 10713
  154.2504  135.2771  155.2819 H   0  0  0  0  0  0  0  0  0  0  0  0  # atno 10763 bound_to 10752
  154.5470  135.5686  153.6892 H   0  0  0  0  0  0  0  0  0  0  0  0  # atno 10764 bound_to 10752
  152.9981  135.6265  154.2651 H   0  0  0  0  0  0  0  0  0  0  0  0  # atno 10765 bound_to 10752
  140.6481  133.9429  155.8364 H   0  0  0  0  0  0  0  0  0  0  0  0  # atno 11005 bound_to 11000
  145.9456  139.2698  143.1243 LP  0  0  0  0  0  0  0  0  0  0  0  0  # atno 17320 bound_to 7965
  145.9377  140.9002  143.0323 LP  0  0  0  0  0  0  0  0  0  0  0  0  # atno 17321 bound_to 7965
  140.0157  144.6191  150.7609 LP  0  0  0  0  0  0  0  0  0  0  0  0  # atno 17342 bound_to 10162
  140.7421  143.2827  151.3551 LP  0  0  0  0  0  0  0  0  0  0  0  0  # atno 17343 bound_to 10162
  155.9744  130.4103  150.3922 LP  0  0  0  0  0  0  0  0  0  0  0  0  # atno 17370 bound_to 10713
  157.2005  131.0437  151.2653 LP  0  0  0  0  0  0  0  0  0  0  0  0  # atno 17371 bound_to 10713
  141.0557  134.0420  157.3725 LP  0  0  0  0  0  0  0  0  0  0  0  0  # atno 17394 bound_to 11000
  139.9056  135.0178  156.7468 LP  0  0  0  0  0  0  0  0  0  0  0  0  # atno 17395 bound_to 11000

$$$$
