AV-unprocessed.smi:1381|AV-procd|sdf|5612|dock10
  -GOLD-   22720 5223D 1   1.00000     0.00000
 Structure written by MMmdl.
 42 43  0  0  0  0  0  0  0  0  3 V2000
  146.8443  134.3929  162.4373 C   0  0  0  0  0  0  0  0  0  0  0  0
  147.2342  133.6353  161.2142 C   0  0  0  0  0  0  0  0  0  0  0  0
  147.8401  134.0071  160.0479 C   0  0  0  0  0  0  0  0  0  0  0  0
  147.9129  132.7901  159.3168 C   0  0  0  0  0  0  0  0  0  0  0  0
  148.4226  132.6420  158.0841 N   0  5  0  0  0  0  0  0  0  0  0  0
  149.0740  133.6672  157.4891 C   0  0  0  0  0  0  0  0  0  0  0  0
  149.7203  134.5526  158.0542 O   0  0  0  0  0  0  0  0  0  0  0  0
  148.9657  133.6700  156.1541 N   0  0  0  0  0  0  0  0  0  0  0  0
  149.5484  134.6657  155.2649 C   0  0  0  0  0  0  0  0  0  0  0  0
  148.8155  136.0077  155.4186 C   0  0  0  0  0  0  0  0  0  0  0  0
  149.5060  137.1199  154.7191 N   0  3  1  0  0  0  0  0  0  0  0  0
  148.7597  138.3962  154.8255 C   0  0  0  0  0  0  0  0  0  0  0  0
  149.4764  139.5135  154.0440 C   0  0  1  0  0  0  0  0  0  0  0  0
  148.7773  140.8684  154.2021 C   0  0  0  0  0  0  0  0  0  0  0  0
  150.8066  139.6433  154.5328 O   0  0  0  0  0  0  0  0  0  0  0  0
  151.5716  138.4563  154.3560 C   0  0  1  0  0  0  0  0  0  0  0  0
  153.0036  138.7359  154.8256 C   0  0  0  0  0  0  0  0  0  0  0  0
  150.9141  137.3103  155.1478 C   0  0  0  0  0  0  0  0  0  0  0  0
  147.3840  131.7722  159.9751 N   0  0  0  0  0  0  0  0  0  0  0  0
  146.9521  132.3045  161.1960 O   0  0  0  0  0  0  0  0  0  0  0  0
  146.0884  135.1416  162.2010 H   0  0  0  0  0  0  0  0  0  0  0  0
  147.7063  134.9058  162.8635 H   0  0  0  0  0  0  0  0  0  0  0  0
  146.4356  133.7288  163.1991 H   0  0  0  0  0  0  0  0  0  0  0  0
  148.1796  134.9916  159.7633 H   0  0  0  0  0  0  0  0  0  0  0  0
  148.4317  132.9256  155.7298 H   0  0  0  0  0  0  0  0  0  0  0  0
  150.6070  134.7743  155.5013 H   0  0  0  0  0  0  0  0  0  0  0  0
  149.4790  134.3090  154.2362 H   0  0  0  0  0  0  0  0  0  0  0  0
  147.8126  135.8961  155.0031 H   0  0  0  0  0  0  0  0  0  0  0  0
  148.6873  136.2582  156.4730 H   0  0  0  0  0  0  0  0  0  0  0  0
  147.7497  138.2653  154.4345 H   0  0  0  0  0  0  0  0  0  0  0  0
  148.6634  138.6729  155.8769 H   0  0  0  0  0  0  0  0  0  0  0  0
  149.5064  139.2599  152.9826 H   0  0  0  0  0  0  0  0  0  0  0  0
  147.7544  140.8296  153.8270 H   0  0  0  0  0  0  0  0  0  0  0  0
  149.3044  141.6461  153.6483 H   0  0  0  0  0  0  0  0  0  0  0  0
  148.7394  141.1737  155.2483 H   0  0  0  0  0  0  0  0  0  0  0  0
  151.5996  138.2016  153.2951 H   0  0  0  0  0  0  0  0  0  0  0  0
  153.6358  137.8561  154.7026 H   0  0  0  0  0  0  0  0  0  0  0  0
  153.0265  139.0201  155.8780 H   0  0  0  0  0  0  0  0  0  0  0  0
  153.4502  139.5482  154.2515 H   0  0  0  0  0  0  0  0  0  0  0  0
  150.9426  137.5261  156.2173 H   0  0  0  0  0  0  0  0  0  0  0  0
  151.4865  136.3969  154.9915 H   0  0  0  0  0  0  0  0  0  0  0  0
  149.5224  136.8795  153.7381 H   0  0  0  0  0  0  0  0  0  0  0  0
  1  2  1  0  0  0  0
  1 21  1  0  0  0  0
  1 22  1  0  0  0  0
  1 23  1  0  0  0  0
  2 20  1  0  0  0  0
  2  3  2  0  0  0  0
  3  4  1  0  0  0  0
  3 24  1  0  0  0  0
  4  5  1  0  0  0  0
  4 19  2  0  0  0  0
  5  6  1  0  0  0  0
  6  7  2  0  0  0  0
  6  8  1  0  0  0  0
  8  9  1  0  0  0  0
  8 25  1  0  0  0  0
  9 10  1  0  0  0  0
  9 26  1  0  0  0  0
  9 27  1  0  0  0  0
 10 11  1  0  0  0  0
 10 28  1  0  0  0  0
 10 29  1  0  0  0  0
 11 18  1  0  0  0  0
 11 12  1  0  0  0  0
 11 42  1  0  0  0  0
 12 13  1  0  0  0  0
 12 30  1  0  0  0  0
 12 31  1  0  0  0  0
 13 14  1  0  0  0  0
 13 15  1  0  0  0  0
 13 32  1  0  0  0  0
 14 33  1  0  0  0  0
 14 34  1  0  0  0  0
 14 35  1  0  0  0  0
 15 16  1  0  0  0  0
 16 17  1  0  0  0  0
 16 18  1  0  0  0  0
 16 36  1  0  0  0  0
 17 37  1  0  0  0  0
 17 38  1  0  0  0  0
 17 39  1  0  0  0  0
 18 40  1  0  0  0  0
 18 41  1  0  0  0  0
 19 20  1  0  0  0  0
M  CHG  1   5  -1
M  CHG  1  11   1
M  END
> <s_m_source_file>
AV-unprocessed.smi

> <i_m_source_file_index>
1381

> <i_lp_mmshare_version>
43012

> <i_f3d_flags>
0

> <s_epik_input>
W0NIM11jMVtjSF1jKG5vMSlbTkhdQyg9TylbTkhdW0NIMl1bQ0gyXU4yW0NIMl1bQ0BASF0oW0NIM10pT1tDQEBIXShbQ0gzXSlbQ0gyXTI=

> <s_epik_cmdline>
J2VwaWtfcHl0aG9uJywgJy1waCcsICc3LjAnLCAnLXRuJywgJzgnLCAnLW1hJywgJzIwMCcsICctbWV0YWxfYmluZGluZycsICctaW1hZScsICc8aW5maWxlLm1hZT4nLCAnLW9tYWUnLCAnPG91dGZpbGUubWFlPic=

> <r_epik_Ionization_Penalty>
6.73511

> <r_epik_Ionization_Penalty_Charging>
6.73502

> <r_epik_Ionization_Penalty_Neutral>
9.26583e-05

> <r_epik_State_Penalty>
6.93549

> <r_epik_Charging_Adjusted_Penalty>
13.6705

> <i_epik_Tot_Q>
0

> <i_epik_Tot_abs_Q>
2

> <r_epik_Metal_State_Penalty>
2.87211

> <b_epik_Metal_Only>
1

> <s_lp_Force_Field>
OPLS_2005

> <r_lp_Energy>
2.9367

> <b_lp_Chiralities_Consistent>
1

> <s_lp_Variant>
AV-unprocessed.smi:1381-11

> <Gold.Version>
5.8.1

> <Gold.Id.Protein>
6NUR|6NUR_protein|mol2

> <Gold.PLP.Fitness>
41.8502

> <Gold.PLP.PLP>
-30.3522

> <Gold.PLP.part.hbond>
-3.0000

> <Gold.PLP.part.metal>
0.0000

> <Gold.PLP.part.buried>
-3.7847

> <Gold.PLP.part.nonpolar>
-23.9701

> <Gold.PLP.part.repulsive>
0.1312

> <Gold.PLP.ligand.clash>
0.0000

> <Gold.PLP.ligand.torsion>
0.2806

> <Gold.PLP.Chemscore.Hbond>
4.0000

> <Gold.PLP.Chemscore.CHOScore>
0.0000

> <Gold.PLP.Chemscore.Metal>
0.0000

> <Gold.Chemscore.Hbonds>
donor molecule, donor type, donor heavy atom, donor atom, acceptor molecule, acceptor atom, score
      L1  H    11    42       P1  7948  1.95
      P1  H  6896  6908       L1     7  1.00
      P1  H  7989  7998       L1    15  1.00

> <Gold.PLP.Chemscore.Internal.Correction>
0.0591

> <Gold.Rescore>
     Score         DG    S(hbond)    S(metal)    S(lipo)     H(rot)  DE(clash)    DE(int)     intcor
     16.21     -18.82       2.74        0.00      70.41       1.58       0.95       1.67       ----

> <Gold.Chemscore.Fitness>
16.2088

> <Gold.Chemscore.DG>
-18.8229

> <Gold.Chemscore.ZeroCoef>
-5.4800

> <Gold.Chemscore.Hbond>
2.7390

> <Gold.Chemscore.Metal>
0.0000

> <Gold.Chemscore.Lipo>
70.4058

> <Gold.Chemscore.Internal_Hbond>
0.0000

> <Gold.Chemscore.DEClash>
0.9460

> <Gold.Chemscore.DEInternal>
1.6681

> <Gold.Chemscore.Rot>
1.5792

> <Gold.Chemscore.Internal.Correction>
   9.000000E+99

> <Gold.Chemscore.Hbonds>
donor molecule, donor type, donor heavy atom, donor atom, acceptor molecule, acceptor atom, score
      L1  H    11    42       P1  7948  0.79
      P1  H  6896  6908       L1     7  0.92
      P1  H  7989  7998       L1    15  0.27

> <Gold.Chemscore.Hbond.Weighted>
-9.1483

> <Gold.Chemscore.Metal.Weighted>
-0.0000

> <Gold.Chemscore.Lipo.Weighted>
-8.2375

> <Gold.Chemscore.Internal_Hbond.Weighted>
0.0000

> <Gold.Chemscore.DEClash.Weighted>
0.9460

> <Gold.Chemscore.DEInternal.Weighted>
1.6681

> <Gold.Chemscore.Rot.Weighted>
4.0428

> <Gold.Chemscore.Internal.Correction.Weighted>
   9.000000E+99

> <Gold.Protein.RotatedTorsions>
[ 6907 6896 6895 6894 ] final  138.34 input  -60.11 | X-H torsion
[ 7974 7965 7964 7962 ] final   11.99 input  175.53 | X-H torsion
[ 8008 7997 7996 7995 ] final   22.53 input   59.86 | X-H torsion
[ 10167 10162 10161 10158 ] final   88.01 input  -65.29 | X-H torsion
[ 10718 10713 10712 10709 ] final -158.31 input   66.30 | X-H torsion
[ 10763 10752 10751 10750 ] final  -66.61 input  -60.55 | X-H torsion
[ 11005 11000 10999 10996 ] final  129.27 input  -57.11 | X-H torsion

> <Gold.Protein.ActiveResidues>
 VAL166  LYS551  ARG553  GLY616  TRP617  ASP618  TYR619  PRO620  LYS621  CYS622 
 ASP623  PHE694  ASN695  SER759  ASP760  ASP761  ALA762  ILE779  LEU786  VAL792 
 PHE793  MET794  SER795  GLU796  ALA797  LYS798  CYS799  TRP800  GLU811  SER814 

> <Gold.Protein.RotatedAtoms>
  152.2677  133.5354  159.5420 H   0  0  0  0  0  0  0  0  0  0  0  0  # atno 6907 bound_to 6896
  150.7148  134.0741  159.3883 H   0  0  0  0  0  0  0  0  0  0  0  0  # atno 6908 bound_to 6896
  151.8656  135.0508  160.0525 H   0  0  0  0  0  0  0  0  0  0  0  0  # atno 6909 bound_to 6896
  146.2360  139.9402  142.8484 H   0  0  0  0  0  0  0  0  0  0  0  0  # atno 7974 bound_to 7965
  154.9672  140.3085  155.5004 H   0  0  0  0  0  0  0  0  0  0  0  0  # atno 8008 bound_to 7997
  156.2970  140.2290  156.4700 H   0  0  0  0  0  0  0  0  0  0  0  0  # atno 8009 bound_to 7997
  154.7910  140.0440  157.1189 H   0  0  0  0  0  0  0  0  0  0  0  0  # atno 8010 bound_to 7997
  139.8716  144.6490  150.8943 H   0  0  0  0  0  0  0  0  0  0  0  0  # atno 10167 bound_to 10162
  156.5524  130.8611  151.2784 H   0  0  0  0  0  0  0  0  0  0  0  0  # atno 10718 bound_to 10713
  154.3624  135.6113  153.5697 H   0  0  0  0  0  0  0  0  0  0  0  0  # atno 10763 bound_to 10752
  152.9793  135.5818  154.4617 H   0  0  0  0  0  0  0  0  0  0  0  0  # atno 10764 bound_to 10752
  154.4357  135.2849  155.1859 H   0  0  0  0  0  0  0  0  0  0  0  0  # atno 10765 bound_to 10752
  139.9606  134.9603  156.9123 H   0  0  0  0  0  0  0  0  0  0  0  0  # atno 11005 bound_to 11000
  145.1959  140.9833  143.4183 LP  0  0  0  0  0  0  0  0  0  0  0  0  # atno 17320 bound_to 7965
  144.9816  139.3778  143.6259 LP  0  0  0  0  0  0  0  0  0  0  0  0  # atno 17321 bound_to 7965
  140.7760  143.3659  151.1739 LP  0  0  0  0  0  0  0  0  0  0  0  0  # atno 17342 bound_to 10162
  139.7279  143.9119  152.3009 LP  0  0  0  0  0  0  0  0  0  0  0  0  # atno 17343 bound_to 10162
  157.7385  130.9814  150.2255 LP  0  0  0  0  0  0  0  0  0  0  0  0  # atno 17370 bound_to 10713
  156.2873  130.3741  149.7876 LP  0  0  0  0  0  0  0  0  0  0  0  0  # atno 17371 bound_to 10713
  140.5509  134.0628  155.7369 LP  0  0  0  0  0  0  0  0  0  0  0  0  # atno 17394 bound_to 11000
  141.1283  133.9346  157.2590 LP  0  0  0  0  0  0  0  0  0  0  0  0  # atno 17395 bound_to 11000

$$$$
