AV-unprocessed.smi:240|AV-procd|sdf|1824|dock5
  -GOLD-   2262020423D 1   1.00000     0.00000
 Structure written by MMmdl.
 55 59  0  0  0  0  0  0  0  0  1 V2000
  155.6504  139.0131  158.7190 O   0  0  0  0  0  0  0  0  0  0  0  0
  154.4983  138.8020  159.5089 C   0  0  2  0  0  0  0  0  0  0  0  0
  154.1874  137.3116  159.6596 C   0  0  0  0  0  0  0  0  0  0  0  0
  152.6849  137.2451  159.9647 C   0  0  0  0  0  0  0  0  0  0  0  0
  152.0927  138.6005  159.5450 C   0  0  0  0  0  0  0  0  0  0  0  0
  153.2327  139.3651  158.8502 C   0  0  1  0  0  0  0  0  0  0  0  0
  153.1046  140.9194  158.8259 C   0  0  2  0  0  0  0  0  0  0  0  0
  153.2689  141.5830  160.2171 C   0  0  0  0  0  0  0  0  0  0  0  0
  153.1633  142.9977  160.1045 O   0  0  0  0  0  0  0  0  0  0  0  0
  151.8895  143.3971  159.6173 C   0  0  0  0  0  0  0  0  0  0  0  0
  151.6950  142.8273  158.2063 C   0  0  0  0  0  0  0  0  0  0  0  0
  151.8461  141.3770  158.2193 N   0  0  0  0  0  0  0  0  0  0  0  0
  151.5168  140.8518  157.0175 C   0  0  0  0  0  0  0  0  0  0  0  0
  152.4690  140.1251  156.3826 N   0  0  0  0  0  0  0  0  0  0  0  0
  152.2150  139.5946  155.1828 C   0  0  0  0  0  0  0  0  0  0  0  0
  151.0967  139.6670  154.4574 N   0  0  0  0  0  0  0  0  0  0  0  0
  150.1333  140.3883  155.0996 C   0  0  0  0  0  0  0  0  0  0  0  0
  150.2548  141.0058  156.3760 C   0  0  0  0  0  0  0  0  0  0  0  0
  149.0658  141.6432  156.7087 N   0  0  0  0  0  0  0  0  0  0  0  0
  148.2889  141.4232  155.6837 C   0  0  0  0  0  0  0  0  0  0  0  0
  148.8529  140.6863  154.6667 N   0  0  0  0  0  0  0  0  0  0  0  0
  148.2197  140.3061  153.4135 C   0  0  0  0  0  0  0  0  0  0  0  0
  146.9898  139.3883  153.6042 C   0  0  1  0  0  0  0  0  0  0  0  0
  145.8703  140.1852  153.9519 O   0  0  0  0  0  0  0  0  0  0  0  0
  146.6311  138.5599  152.3736 C   0  0  0  0  0  0  0  0  0  0  0  0
  146.0498  137.2893  152.9775 C   0  0  0  0  0  0  0  0  0  0  0  0
  146.8938  137.0657  154.0940 O   0  0  0  0  0  0  0  0  0  0  0  0
  147.1855  138.3213  154.6999 C   0  0  0  0  0  0  0  0  0  0  0  0
  156.4070  138.7256  159.2070 H   0  0  0  0  0  0  0  0  0  0  0  0
  154.6539  139.2288  160.4993 H   0  0  0  0  0  0  0  0  0  0  0  0
  154.3829  136.7917  158.7202 H   0  0  0  0  0  0  0  0  0  0  0  0
  154.7933  136.8345  160.4307 H   0  0  0  0  0  0  0  0  0  0  0  0
  152.2163  136.4197  159.4277 H   0  0  0  0  0  0  0  0  0  0  0  0
  152.5160  137.0783  161.0291 H   0  0  0  0  0  0  0  0  0  0  0  0
  151.2311  138.4799  158.8876 H   0  0  0  0  0  0  0  0  0  0  0  0
  151.7450  139.1252  160.4335 H   0  0  0  0  0  0  0  0  0  0  0  0
  153.2577  139.0068  157.8199 H   0  0  0  0  0  0  0  0  0  0  0  0
  153.9180  141.3011  158.2086 H   0  0  0  0  0  0  0  0  0  0  0  0
  152.5274  141.2245  160.9309 H   0  0  0  0  0  0  0  0  0  0  0  0
  154.2490  141.3660  160.6391 H   0  0  0  0  0  0  0  0  0  0  0  0
  151.1011  143.0563  160.2905 H   0  0  0  0  0  0  0  0  0  0  0  0
  151.8423  144.4858  159.5934 H   0  0  0  0  0  0  0  0  0  0  0  0
  150.7059  143.0979  157.8335 H   0  0  0  0  0  0  0  0  0  0  0  0
  152.4269  143.2656  157.5259 H   0  0  0  0  0  0  0  0  0  0  0  0
  153.0249  139.0347  154.7388 H   0  0  0  0  0  0  0  0  0  0  0  0
  147.2779  141.8012  155.6369 H   0  0  0  0  0  0  0  0  0  0  0  0
  147.9292  141.2169  152.8882 H   0  0  0  0  0  0  0  0  0  0  0  0
  148.9653  139.8164  152.7857 H   0  0  0  0  0  0  0  0  0  0  0  0
  145.1679  139.9935  153.3493 H   0  0  0  0  0  0  0  0  0  0  0  0
  145.9507  139.0623  151.6844 H   0  0  0  0  0  0  0  0  0  0  0  0
  147.5329  138.2990  151.8186 H   0  0  0  0  0  0  0  0  0  0  0  0
  145.0237  137.4457  153.3140 H   0  0  0  0  0  0  0  0  0  0  0  0
  146.0647  136.4471  152.2853 H   0  0  0  0  0  0  0  0  0  0  0  0
  148.2059  138.3020  155.0840 H   0  0  0  0  0  0  0  0  0  0  0  0
  146.5210  138.4790  155.5511 H   0  0  0  0  0  0  0  0  0  0  0  0
  1  2  1  0  0  0  0
  1 29  1  0  0  0  0
  2  6  1  0  0  0  0
  2  3  1  0  0  0  0
  2 30  1  0  0  0  0
  3  4  1  0  0  0  0
  3 31  1  0  0  0  0
  3 32  1  0  0  0  0
  4  5  1  0  0  0  0
  4 33  1  0  0  0  0
  4 34  1  0  0  0  0
  5  6  1  0  0  0  0
  5 35  1  0  0  0  0
  5 36  1  0  0  0  0
  6  7  1  0  0  0  0
  6 37  1  0  0  0  0
  7 12  1  0  0  0  0
  7  8  1  0  0  0  0
  7 38  1  0  0  0  0
  8  9  1  0  0  0  0
  8 39  1  0  0  0  0
  8 40  1  0  0  0  0
  9 10  1  0  0  0  0
 10 11  1  0  0  0  0
 10 41  1  0  0  0  0
 10 42  1  0  0  0  0
 11 12  1  0  0  0  0
 11 43  1  0  0  0  0
 11 44  1  0  0  0  0
 12 13  1  0  0  0  0
 13 18  1  0  0  0  0
 13 14  2  0  0  0  0
 14 15  1  0  0  0  0
 15 16  2  0  0  0  0
 15 45  1  0  0  0  0
 16 17  1  0  0  0  0
 17 21  1  0  0  0  0
 17 18  2  0  0  0  0
 18 19  1  0  0  0  0
 19 20  2  0  0  0  0
 20 21  1  0  0  0  0
 20 46  1  0  0  0  0
 21 22  1  0  0  0  0
 22 23  1  0  0  0  0
 22 47  1  0  0  0  0
 22 48  1  0  0  0  0
 23 28  1  0  0  0  0
 23 24  1  0  0  0  0
 23 25  1  0  0  0  0
 24 49  1  0  0  0  0
 25 26  1  0  0  0  0
 25 50  1  0  0  0  0
 25 51  1  0  0  0  0
 26 27  1  0  0  0  0
 26 52  1  0  0  0  0
 26 53  1  0  0  0  0
 27 28  1  0  0  0  0
 28 54  1  0  0  0  0
 28 55  1  0  0  0  0
M  END
> <s_m_source_file>
AV-unprocessed.smi

> <i_m_source_file_index>
240

> <i_lp_mmshare_version>
43012

> <i_f3d_flags>
0

> <s_epik_input>
W09IXVtDQEBIXTFbQ0gyXVtDSDJdW0NIMl1bQ0BIXTFbQ0BASF0yW0NIMl1PW0NIMl1bQ0gyXU4yYyhuW2NIXW4zKWMoYzM0KW5bY0hdbjRbQ0gyXVtDQEBdNShbT0hdKVtDSDJdW0NIMl1PW0NIMl01

> <s_epik_cmdline>
J2VwaWtfcHl0aG9uJywgJy1waCcsICc3LjAnLCAnLXRuJywgJzgnLCAnLW1hJywgJzIwMCcsICctbWV0YWxfYmluZGluZycsICctaW1hZScsICc8aW5maWxlLm1hZT4nLCAnLW9tYWUnLCAnPG91dGZpbGUubWFlPic=

> <r_lp_tautomer_probability>
1

> <r_epik_Ionization_Penalty>
0.000130618

> <r_epik_Ionization_Penalty_Charging>
0

> <r_epik_Ionization_Penalty_Neutral>
0.000130618

> <r_epik_State_Penalty>
-0

> <r_epik_Charging_Adjusted_Penalty>
0

> <i_epik_Tot_Q>
0

> <i_epik_Tot_abs_Q>
0

> <r_epik_Metal_State_Penalty>
-0

> <b_epik_Metal_Only>
0

> <s_lp_Force_Field>
OPLS_2005

> <r_lp_Energy>
60.7436

> <b_lp_Chiralities_Consistent>
1

> <s_lp_Variant>
AV-unprocessed.smi:240-1

> <Gold.Version>
5.8.1

> <Gold.Id.Protein>
6NUR|6NUR_protein|mol2

> <Gold.PLP.Fitness>
47.8123

> <Gold.PLP.PLP>
-39.8533

> <Gold.PLP.part.hbond>
-4.0000

> <Gold.PLP.part.metal>
0.0000

> <Gold.PLP.part.buried>
1.7299

> <Gold.PLP.part.nonpolar>
-38.0117

> <Gold.PLP.part.repulsive>
0.3449

> <Gold.PLP.ligand.clash>
2.0668

> <Gold.PLP.ligand.torsion>
0.4540

> <Gold.PLP.Chemscore.Hbond>
3.5800

> <Gold.PLP.Chemscore.CHOScore>
0.0000

> <Gold.PLP.Chemscore.Metal>
0.0000

> <Gold.Chemscore.Hbonds>
donor molecule, donor type, donor heavy atom, donor atom, acceptor molecule, acceptor atom, score
      L1  H    24    49       P1 10175  1.00
      P1  H  7989  7998       L1    16  0.68
      P1  H  7997  8009       L1     1  1.00
      P1  H  7997  8010       L1    14  0.90

> <Gold.PLP.Chemscore.Internal.Correction>
0.1939

> <Gold.Rescore>
     Score         DG    S(hbond)    S(metal)    S(lipo)     H(rot)  DE(clash)    DE(int)     intcor
     14.35     -16.73       2.47        0.00      91.31       3.00       0.31       2.07       ----

> <Gold.Chemscore.Fitness>
14.3523

> <Gold.Chemscore.DG>
-16.7322

> <Gold.Chemscore.ZeroCoef>
-5.4800

> <Gold.Chemscore.Hbond>
2.4728

> <Gold.Chemscore.Metal>
0.0000

> <Gold.Chemscore.Lipo>
91.3064

> <Gold.Chemscore.Internal_Hbond>
0.0000

> <Gold.Chemscore.DEClash>
0.3089

> <Gold.Chemscore.DEInternal>
2.0710

> <Gold.Chemscore.Rot>
3.0039

> <Gold.Chemscore.Internal.Correction>
   9.000000E+99

> <Gold.Chemscore.Hbonds>
donor molecule, donor type, donor heavy atom, donor atom, acceptor molecule, acceptor atom, score
      L1  H    24    49       P1 10175  0.95
      P1  H  7989  7998       L1    16  0.02
      P1  H  7997  8009       L1     1  0.96
      P1  H  7997  8010       L1    14  0.18

> <Gold.Chemscore.Hbond.Weighted>
-8.2592

> <Gold.Chemscore.Metal.Weighted>
-0.0000

> <Gold.Chemscore.Lipo.Weighted>
-10.6828

> <Gold.Chemscore.Internal_Hbond.Weighted>
0.0000

> <Gold.Chemscore.DEClash.Weighted>
0.3089

> <Gold.Chemscore.DEInternal.Weighted>
2.0710

> <Gold.Chemscore.Rot.Weighted>
7.6899

> <Gold.Chemscore.Internal.Correction.Weighted>
   9.000000E+99

> <Gold.Protein.RotatedTorsions>
[ 6907 6896 6895 6894 ] final -120.41 input  -60.11 | X-H torsion
[ 7974 7965 7964 7962 ] final   83.16 input  175.53 | X-H torsion
[ 8008 7997 7996 7995 ] final   82.66 input   59.86 | X-H torsion
[ 10167 10162 10161 10158 ] final  -19.67 input  -65.29 | X-H torsion
[ 10718 10713 10712 10709 ] final   22.48 input   66.30 | X-H torsion
[ 10763 10752 10751 10750 ] final  165.33 input  -60.55 | X-H torsion
[ 11005 11000 10999 10996 ] final  174.95 input  -57.11 | X-H torsion

> <Gold.Protein.ActiveResidues>
 VAL166  LYS551  ARG553  GLY616  TRP617  ASP618  TYR619  PRO620  LYS621  CYS622 
 ASP623  PHE694  ASN695  SER759  ASP760  ASP761  ALA762  ILE779  LEU786  VAL792 
 PHE793  MET794  SER795  GLU796  ALA797  LYS798  CYS799  TRP800  GLU811  SER814 

> <Gold.Protein.RotatedAtoms>
  150.8391  133.7965  159.3067 H   0  0  0  0  0  0  0  0  0  0  0  0  # atno 6907 bound_to 6896
  151.5672  135.1062  159.9996 H   0  0  0  0  0  0  0  0  0  0  0  0  # atno 6908 bound_to 6896
  152.4458  133.7491  159.6740 H   0  0  0  0  0  0  0  0  0  0  0  0  # atno 6909 bound_to 6896
  145.6156  139.2376  143.2168 H   0  0  0  0  0  0  0  0  0  0  0  0  # atno 7974 bound_to 7965
  155.9136  140.3426  155.6117 H   0  0  0  0  0  0  0  0  0  0  0  0  # atno 8008 bound_to 7997
  155.7358  140.0801  157.2287 H   0  0  0  0  0  0  0  0  0  0  0  0  # atno 8009 bound_to 7997
  154.4059  140.1579  156.2548 H   0  0  0  0  0  0  0  0  0  0  0  0  # atno 8010 bound_to 7997
  140.7270  143.4796  151.0136 H   0  0  0  0  0  0  0  0  0  0  0  0  # atno 10167 bound_to 10162
  157.1529  130.6682  149.6018 H   0  0  0  0  0  0  0  0  0  0  0  0  # atno 10718 bound_to 10713
  154.3223  135.2756  155.2513 H   0  0  0  0  0  0  0  0  0  0  0  0  # atno 10763 bound_to 10752
  154.4861  135.5846  153.6428 H   0  0  0  0  0  0  0  0  0  0  0  0  # atno 10764 bound_to 10752
  152.9875  135.6123  154.3409 H   0  0  0  0  0  0  0  0  0  0  0  0  # atno 10765 bound_to 10752
  140.3569  134.7147  157.4305 H   0  0  0  0  0  0  0  0  0  0  0  0  # atno 11005 bound_to 11000
  146.1471  140.6977  142.9339 LP  0  0  0  0  0  0  0  0  0  0  0  0  # atno 17320 bound_to 7965
  144.7252  140.4502  143.6978 LP  0  0  0  0  0  0  0  0  0  0  0  0  # atno 17321 bound_to 7965
  139.8494  143.7459  152.3178 LP  0  0  0  0  0  0  0  0  0  0  0  0  # atno 17342 bound_to 10162
  139.7635  144.7499  151.0328 LP  0  0  0  0  0  0  0  0  0  0  0  0  # atno 17343 bound_to 10162
  155.9767  130.4738  150.6547 LP  0  0  0  0  0  0  0  0  0  0  0  0  # atno 17370 bound_to 10713
  157.4204  131.0836  151.1136 LP  0  0  0  0  0  0  0  0  0  0  0  0  # atno 17371 bound_to 10713
  140.0658  134.5931  155.8697 LP  0  0  0  0  0  0  0  0  0  0  0  0  # atno 17394 bound_to 11000
  141.1996  133.6607  156.5851 LP  0  0  0  0  0  0  0  0  0  0  0  0  # atno 17395 bound_to 11000

$$$$
