AV-unprocessed.smi:1287|AV-procd|sdf|5379|dock2
  -GOLD-   22720 4523D 1   1.00000     0.00000
 Structure written by MMmdl.
 44 45  0  0  0  0  0  0  0  0  1 V2000
  148.4511  132.7159  152.7742 C   0  0  0  0  0  0  0  0  0  0  0  0
  148.4280  133.4062  154.1335 C   0  0  0  0  0  0  0  0  0  0  0  0
  148.1467  132.7671  155.1471 O   0  0  0  0  0  0  0  0  0  0  0  0
  148.7286  134.7147  154.1406 N   0  0  0  0  0  0  0  0  0  0  0  0
  148.7889  135.5599  155.3320 C   0  0  2  0  0  0  0  0  0  0  0  0
  147.6134  136.5497  155.2773 C   0  0  0  0  0  0  0  0  0  0  0  0
  150.0996  136.3624  155.3502 C   0  0  0  0  0  0  0  0  0  0  0  0
  150.8511  136.3130  156.3254 O   0  0  0  0  0  0  0  0  0  0  0  0
  150.3579  137.1009  154.2603 N   0  0  0  0  0  0  0  0  0  0  0  0
  151.5148  137.9760  154.1019 C   0  0  0  0  0  0  0  0  0  0  0  0
  151.7086  138.9686  155.2405 C   0  0  0  0  0  0  0  0  0  0  0  0
  150.9310  140.1405  155.3567 C   0  0  0  0  0  0  0  0  0  0  0  0
  151.1671  141.0137  156.4354 C   0  0  0  0  0  0  0  0  0  0  0  0
  152.1774  140.6964  157.3742 C   0  0  0  0  0  0  0  0  0  0  0  0
  152.4271  141.5541  158.4680 N   0  0  0  0  0  0  0  0  0  0  0  0
  152.8503  140.9491  159.7300 C   0  0  0  0  0  0  0  0  0  0  0  0
  153.3458  142.0303  160.7050 C   0  0  0  0  0  0  0  0  0  0  0  0
  152.3348  143.0168  160.8811 O   0  0  0  0  0  0  0  0  0  0  0  0
  152.0180  143.6727  159.6579 C   0  0  0  0  0  0  0  0  0  0  0  0
  151.4782  142.6514  158.6418 C   0  0  0  0  0  0  0  0  0  0  0  0
  152.9328  139.5768  157.2494 N   0  0  0  0  0  0  0  0  0  0  0  0
  152.7014  138.7423  156.2143 C   0  0  0  0  0  0  0  0  0  0  0  0
  149.4067  132.8844  152.2762 H   0  0  0  0  0  0  0  0  0  0  0  0
  147.6552  133.1035  152.1376 H   0  0  0  0  0  0  0  0  0  0  0  0
  148.3091  131.6401  152.8834 H   0  0  0  0  0  0  0  0  0  0  0  0
  148.9550  135.1541  153.2601 H   0  0  0  0  0  0  0  0  0  0  0  0
  148.7065  134.9439  156.2300 H   0  0  0  0  0  0  0  0  0  0  0  0
  147.6121  137.2113  156.1445 H   0  0  0  0  0  0  0  0  0  0  0  0
  146.6601  136.0203  155.2734 H   0  0  0  0  0  0  0  0  0  0  0  0
  147.6469  137.1734  154.3826 H   0  0  0  0  0  0  0  0  0  0  0  0
  149.6909  137.0811  153.5025 H   0  0  0  0  0  0  0  0  0  0  0  0
  152.4165  137.3736  153.9791 H   0  0  0  0  0  0  0  0  0  0  0  0
  151.3919  138.5387  153.1764 H   0  0  0  0  0  0  0  0  0  0  0  0
  150.1648  140.3770  154.6332 H   0  0  0  0  0  0  0  0  0  0  0  0
  150.5822  141.9172  156.5201 H   0  0  0  0  0  0  0  0  0  0  0  0
  152.0119  140.4064  160.1691 H   0  0  0  0  0  0  0  0  0  0  0  0
  153.6507  140.2290  159.5545 H   0  0  0  0  0  0  0  0  0  0  0  0
  153.5795  141.5846  161.6719 H   0  0  0  0  0  0  0  0  0  0  0  0
  154.2629  142.4944  160.3385 H   0  0  0  0  0  0  0  0  0  0  0  0
  151.2685  144.4402  159.8511 H   0  0  0  0  0  0  0  0  0  0  0  0
  152.9005  144.1813  159.2662 H   0  0  0  0  0  0  0  0  0  0  0  0
  151.2743  143.1634  157.7025 H   0  0  0  0  0  0  0  0  0  0  0  0
  150.5295  142.2431  158.9921 H   0  0  0  0  0  0  0  0  0  0  0  0
  153.3287  137.8643  156.1650 H   0  0  0  0  0  0  0  0  0  0  0  0
  1  2  1  0  0  0  0
  1 23  1  0  0  0  0
  1 24  1  0  0  0  0
  1 25  1  0  0  0  0
  2  3  2  0  0  0  0
  2  4  1  0  0  0  0
  4  5  1  0  0  0  0
  4 26  1  0  0  0  0
  5  6  1  0  0  0  0
  5  7  1  0  0  0  0
  5 27  1  0  0  0  0
  6 28  1  0  0  0  0
  6 29  1  0  0  0  0
  6 30  1  0  0  0  0
  7  8  2  0  0  0  0
  7  9  1  0  0  0  0
  9 10  1  0  0  0  0
  9 31  1  0  0  0  0
 10 11  1  0  0  0  0
 10 32  1  0  0  0  0
 10 33  1  0  0  0  0
 11 22  1  0  0  0  0
 11 12  2  0  0  0  0
 12 13  1  0  0  0  0
 12 34  1  0  0  0  0
 13 14  2  0  0  0  0
 13 35  1  0  0  0  0
 14 15  1  0  0  0  0
 14 21  1  0  0  0  0
 15 20  1  0  0  0  0
 15 16  1  0  0  0  0
 16 17  1  0  0  0  0
 16 36  1  0  0  0  0
 16 37  1  0  0  0  0
 17 18  1  0  0  0  0
 17 38  1  0  0  0  0
 17 39  1  0  0  0  0
 18 19  1  0  0  0  0
 19 20  1  0  0  0  0
 19 40  1  0  0  0  0
 19 41  1  0  0  0  0
 20 42  1  0  0  0  0
 20 43  1  0  0  0  0
 21 22  2  0  0  0  0
 22 44  1  0  0  0  0
M  END
> <s_m_source_file>
AV-unprocessed.smi

> <i_m_source_file_index>
1287

> <i_lp_mmshare_version>
43012

> <i_f3d_flags>
0

> <s_epik_input>
W0NIM11DKD1PKVtOSF1bQ0BIXShbQ0gzXSlDKD1PKVtOSF1bQ0gyXWMxW2NIXVtjSF1jKG5bY0hdMSlOMltDSDJdW0NIMl1PW0NIMl1bQ0gyXTI=

> <s_epik_cmdline>
J2VwaWtfcHl0aG9uJywgJy1waCcsICc3LjAnLCAnLXRuJywgJzgnLCAnLW1hJywgJzIwMCcsICctbWV0YWxfYmluZGluZycsICctaW1hZScsICc8aW5maWxlLm1hZT4nLCAnLW9tYWUnLCAnPG91dGZpbGUubWFlPic=

> <r_lp_tautomer_probability>
1

> <r_epik_Ionization_Penalty>
0.00481935

> <r_epik_Ionization_Penalty_Charging>
0

> <r_epik_Ionization_Penalty_Neutral>
0.00481935

> <r_epik_State_Penalty>
0.00349439

> <r_epik_Charging_Adjusted_Penalty>
0.00349439

> <i_epik_Tot_Q>
0

> <i_epik_Tot_abs_Q>
0

> <r_epik_Metal_State_Penalty>
-0

> <b_epik_Metal_Only>
0

> <s_lp_Force_Field>
OPLS_2005

> <r_lp_Energy>
14.7746

> <b_lp_Chiralities_Consistent>
1

> <s_lp_Variant>
AV-unprocessed.smi:1287-1

> <Gold.Version>
5.8.1

> <Gold.Id.Protein>
6NUR|6NUR_protein|mol2

> <Gold.PLP.Fitness>
45.3880

> <Gold.PLP.PLP>
-37.5767

> <Gold.PLP.part.hbond>
-3.6983

> <Gold.PLP.part.metal>
0.0000

> <Gold.PLP.part.buried>
-3.1151

> <Gold.PLP.part.nonpolar>
-30.7669

> <Gold.PLP.part.repulsive>
0.1211

> <Gold.PLP.ligand.clash>
0.0000

> <Gold.PLP.ligand.torsion>
0.8099

> <Gold.PLP.Chemscore.Hbond>
2.9920

> <Gold.PLP.Chemscore.CHOScore>
0.0000

> <Gold.PLP.Chemscore.Metal>
0.0000

> <Gold.Chemscore.Hbonds>
donor molecule, donor type, donor heavy atom, donor atom, acceptor molecule, acceptor atom, score
      L1  H     4    26       P1  7948  1.00
      L1  H     9    31       P1  7948  0.99
      P1  H  7997  8010       L1    21  0.90

> <Gold.PLP.Chemscore.Internal.Correction>
0.4551

> <Gold.Rescore>
     Score         DG    S(hbond)    S(metal)    S(lipo)     H(rot)  DE(clash)    DE(int)     intcor
     16.07     -18.32       2.49        0.00      86.06       2.16       0.09       2.16       ----

> <Gold.Chemscore.Fitness>
16.0689

> <Gold.Chemscore.DG>
-18.3190

> <Gold.Chemscore.ZeroCoef>
-5.4800

> <Gold.Chemscore.Hbond>
2.4863

> <Gold.Chemscore.Metal>
0.0000

> <Gold.Chemscore.Lipo>
86.0555

> <Gold.Chemscore.Internal_Hbond>
0.0000

> <Gold.Chemscore.DEClash>
0.0943

> <Gold.Chemscore.DEInternal>
2.1557

> <Gold.Chemscore.Rot>
2.1616

> <Gold.Chemscore.Internal.Correction>
   9.000000E+99

> <Gold.Chemscore.Hbonds>
donor molecule, donor type, donor heavy atom, donor atom, acceptor molecule, acceptor atom, score
      L1  H     4    26       P1  7948  0.40
      L1  H     9    31       P1  7948  0.65
      P1  H  7997  8010       L1    21  0.11

> <Gold.Chemscore.Hbond.Weighted>
-8.3041

> <Gold.Chemscore.Metal.Weighted>
-0.0000

> <Gold.Chemscore.Lipo.Weighted>
-10.0685

> <Gold.Chemscore.Internal_Hbond.Weighted>
0.0000

> <Gold.Chemscore.DEClash.Weighted>
0.0943

> <Gold.Chemscore.DEInternal.Weighted>
2.1557

> <Gold.Chemscore.Rot.Weighted>
5.5336

> <Gold.Chemscore.Internal.Correction.Weighted>
   9.000000E+99

> <Gold.Protein.RotatedTorsions>
[ 6907 6896 6895 6894 ] final -132.16 input  -60.11 | X-H torsion
[ 7974 7965 7964 7962 ] final  124.39 input  175.53 | X-H torsion
[ 8008 7997 7996 7995 ] final   48.34 input   59.86 | X-H torsion
[ 10167 10162 10161 10158 ] final -121.54 input  -65.29 | X-H torsion
[ 10718 10713 10712 10709 ] final  109.25 input   66.30 | X-H torsion
[ 10763 10752 10751 10750 ] final  -39.34 input  -60.55 | X-H torsion
[ 11005 11000 10999 10996 ] final   49.31 input  -57.11 | X-H torsion

> <Gold.Protein.ActiveResidues>
 VAL166  LYS551  ARG553  GLY616  TRP617  ASP618  TYR619  PRO620  LYS621  CYS622 
 ASP623  PHE694  ASN695  SER759  ASP760  ASP761  ALA762  ILE779  LEU786  VAL792 
 PHE793  MET794  SER795  GLU796  ALA797  LYS798  CYS799  TRP800  GLU811  SER814 

> <Gold.Protein.RotatedAtoms>
  150.9592  133.6464  159.2757 H   0  0  0  0  0  0  0  0  0  0  0  0  # atno 6907 bound_to 6896
  151.3793  135.0935  159.9500 H   0  0  0  0  0  0  0  0  0  0  0  0  # atno 6908 bound_to 6896
  152.5141  133.9130  159.7551 H   0  0  0  0  0  0  0  0  0  0  0  0  # atno 6909 bound_to 6896
  145.0849  139.3629  143.4890 H   0  0  0  0  0  0  0  0  0  0  0  0  # atno 7974 bound_to 7965
  155.3841  140.3430  155.4248 H   0  0  0  0  0  0  0  0  0  0  0  0  # atno 8008 bound_to 7997
  156.1594  140.1596  156.8671 H   0  0  0  0  0  0  0  0  0  0  0  0  # atno 8009 bound_to 7997
  154.5125  140.0786  156.8000 H   0  0  0  0  0  0  0  0  0  0  0  0  # atno 8010 bound_to 7997
  140.0240  143.5316  152.2208 H   0  0  0  0  0  0  0  0  0  0  0  0  # atno 10167 bound_to 10162
  157.6550  131.0910  150.6426 H   0  0  0  0  0  0  0  0  0  0  0  0  # atno 10718 bound_to 10713
  153.9279  135.6775  153.4746 H   0  0  0  0  0  0  0  0  0  0  0  0  # atno 10763 bound_to 10752
  153.0995  135.4835  154.8837 H   0  0  0  0  0  0  0  0  0  0  0  0  # atno 10764 bound_to 10752
  154.7444  135.3168  154.8628 H   0  0  0  0  0  0  0  0  0  0  0  0  # atno 10765 bound_to 10752
  140.1114  134.4950  155.8674 H   0  0  0  0  0  0  0  0  0  0  0  0  # atno 11005 bound_to 11000
  146.3531  140.0656  142.8626 LP  0  0  0  0  0  0  0  0  0  0  0  0  # atno 17320 bound_to 7965
  145.1134  140.9419  143.4643 LP  0  0  0  0  0  0  0  0  0  0  0  0  # atno 17321 bound_to 7965
  139.6121  144.7611  151.2929 LP  0  0  0  0  0  0  0  0  0  0  0  0  # atno 17342 bound_to 10162
  140.7330  143.6806  150.8004 LP  0  0  0  0  0  0  0  0  0  0  0  0  # atno 17343 bound_to 10162
  156.6734  130.4546  149.5650 LP  0  0  0  0  0  0  0  0  0  0  0  0  # atno 17370 bound_to 10713
  156.1981  130.6602  151.1137 LP  0  0  0  0  0  0  0  0  0  0  0  0  # atno 17371 bound_to 10713
  141.2131  133.6728  156.6712 LP  0  0  0  0  0  0  0  0  0  0  0  0  # atno 17394 bound_to 11000
  140.3086  134.8105  157.4157 LP  0  0  0  0  0  0  0  0  0  0  0  0  # atno 17395 bound_to 11000

$$$$
