AV-unprocessed.smi:1317|AV-procd|sdf|5456|dock5
  -GOLD-   22720 5 23D 1   1.00000     0.00000
 Structure written by MMmdl.
 31 32  0  0  0  0  0  0  0  0  1 V2000
  153.0515  142.6789  162.2326 C   0  0  0  0  0  0  0  0  0  0  0  0
  152.5025  143.4184  161.0609 C   0  0  0  0  0  0  0  0  0  0  0  0
  152.2633  142.8527  159.8750 N   0  0  0  0  0  0  0  0  0  0  0  0
  151.7559  143.7592  158.9385 C   0  0  0  0  0  0  0  0  0  0  0  0
  151.4341  143.3009  157.5484 C   0  0  0  0  0  0  0  0  0  0  0  0
  150.4035  142.1597  157.5372 C   0  0  0  0  0  0  0  0  0  0  0  0
  149.7484  142.0368  156.2401 N   0  0  0  0  0  0  0  0  0  0  0  0
  149.8455  140.9789  155.4215 C   0  0  0  0  0  0  0  0  0  0  0  0
  150.5166  139.9806  155.6861 O   0  0  0  0  0  0  0  0  0  0  0  0
  149.0617  141.0745  154.1057 C   0  0  0  0  0  0  0  0  0  0  0  0
  147.8226  141.9842  154.1691 C   0  0  0  0  0  0  0  0  0  0  0  0
  147.0461  140.9120  153.3990 C   0  0  0  0  0  0  0  0  0  0  0  0
  148.1081  139.8974  153.8330 C   0  0  0  0  0  0  0  0  0  0  0  0
  151.6126  145.0296  159.4386 C   0  0  0  0  0  0  0  0  0  0  0  0
  152.1113  145.1330  161.1044 S   0  0  0  0  0  0  0  0  0  0  0  0
  152.9896  141.6022  162.0707 H   0  0  0  0  0  0  0  0  0  0  0  0
  152.4869  142.9296  163.1306 H   0  0  0  0  0  0  0  0  0  0  0  0
  154.0958  142.9507  162.3871 H   0  0  0  0  0  0  0  0  0  0  0  0
  151.0610  144.1408  156.9607 H   0  0  0  0  0  0  0  0  0  0  0  0
  152.3455  142.9699  157.0489 H   0  0  0  0  0  0  0  0  0  0  0  0
  150.8991  141.2124  157.7515 H   0  0  0  0  0  0  0  0  0  0  0  0
  149.6592  142.3055  158.3221 H   0  0  0  0  0  0  0  0  0  0  0  0
  149.1766  142.8142  155.9430 H   0  0  0  0  0  0  0  0  0  0  0  0
  149.6887  141.2993  153.2406 H   0  0  0  0  0  0  0  0  0  0  0  0
  147.4341  142.1437  155.1766 H   0  0  0  0  0  0  0  0  0  0  0  0
  147.9295  142.9265  153.6312 H   0  0  0  0  0  0  0  0  0  0  0  0
  146.0443  140.7134  153.7807 H   0  0  0  0  0  0  0  0  0  0  0  0
  147.0435  141.0853  152.3218 H   0  0  0  0  0  0  0  0  0  0  0  0
  148.4351  139.2309  153.0345 H   0  0  0  0  0  0  0  0  0  0  0  0
  147.8152  139.3370  154.7223 H   0  0  0  0  0  0  0  0  0  0  0  0
  151.2464  145.9086  158.9290 H   0  0  0  0  0  0  0  0  0  0  0  0
  1  2  1  0  0  0  0
  1 16  1  0  0  0  0
  1 17  1  0  0  0  0
  1 18  1  0  0  0  0
  2 15  1  0  0  0  0
  2  3  2  0  0  0  0
  3  4  1  0  0  0  0
  4  5  1  0  0  0  0
  4 14  2  0  0  0  0
  5  6  1  0  0  0  0
  5 19  1  0  0  0  0
  5 20  1  0  0  0  0
  6  7  1  0  0  0  0
  6 21  1  0  0  0  0
  6 22  1  0  0  0  0
  7  8  1  0  0  0  0
  7 23  1  0  0  0  0
  8  9  2  0  0  0  0
  8 10  1  0  0  0  0
 10 13  1  0  0  0  0
 10 11  1  0  0  0  0
 10 24  1  0  0  0  0
 11 12  1  0  0  0  0
 11 25  1  0  0  0  0
 11 26  1  0  0  0  0
 12 13  1  0  0  0  0
 12 27  1  0  0  0  0
 12 28  1  0  0  0  0
 13 29  1  0  0  0  0
 13 30  1  0  0  0  0
 14 15  1  0  0  0  0
 14 31  1  0  0  0  0
M  END
> <s_m_source_file>
AV-unprocessed.smi

> <i_m_source_file_index>
1317

> <i_lp_mmshare_version>
43012

> <i_f3d_flags>
0

> <s_epik_input>
W0NIM11jMW5jKFtjSF1zMSlbQ0gyXVtDSDJdW05IXUMoPU8pW0NIXTJbQ0gyXVtDSDJdW0NIMl0y

> <s_epik_cmdline>
J2VwaWtfcHl0aG9uJywgJy1waCcsICc3LjAnLCAnLXRuJywgJzgnLCAnLW1hJywgJzIwMCcsICctbWV0YWxfYmluZGluZycsICctaW1hZScsICc8aW5maWxlLm1hZT4nLCAnLW9tYWUnLCAnPG91dGZpbGUubWFlPic=

> <r_epik_Ionization_Penalty>
0.00109666

> <r_epik_Ionization_Penalty_Charging>
0

> <r_epik_Ionization_Penalty_Neutral>
0.00109666

> <r_epik_State_Penalty>
0.000719322

> <r_epik_Charging_Adjusted_Penalty>
0.000719322

> <i_epik_Tot_Q>
0

> <i_epik_Tot_abs_Q>
0

> <r_epik_Metal_State_Penalty>
-0

> <b_epik_Metal_Only>
0

> <s_lp_Force_Field>
OPLS_2005

> <r_lp_Energy>
5.86325

> <b_lp_Chiralities_Consistent>
1

> <s_lp_Variant>
AV-unprocessed.smi:1317-1

> <Gold.Version>
5.8.1

> <Gold.Id.Protein>
6NUR|6NUR_protein|mol2

> <Gold.PLP.Fitness>
39.5470

> <Gold.PLP.PLP>
-37.1726

> <Gold.PLP.part.hbond>
-1.0000

> <Gold.PLP.part.metal>
0.0000

> <Gold.PLP.part.buried>
-0.3751

> <Gold.PLP.part.nonpolar>
-34.8345

> <Gold.PLP.part.repulsive>
0.0967

> <Gold.PLP.ligand.clash>
0.0000

> <Gold.PLP.ligand.torsion>
0.5140

> <Gold.PLP.Chemscore.Hbond>
1.0000

> <Gold.PLP.Chemscore.CHOScore>
0.0000

> <Gold.PLP.Chemscore.Metal>
0.0000

> <Gold.Chemscore.Hbonds>
donor molecule, donor type, donor heavy atom, donor atom, acceptor molecule, acceptor atom, score
      L1  H     7    23       P1  8028  1.00

> <Gold.PLP.Chemscore.Internal.Correction>
0.4024

> <Gold.Rescore>
     Score         DG    S(hbond)    S(metal)    S(lipo)     H(rot)  DE(clash)    DE(int)     intcor
     16.67     -17.47       0.97        0.00     106.20       1.44       0.27       0.53       ----

> <Gold.Chemscore.Fitness>
16.6748

> <Gold.Chemscore.DG>
-17.4705

> <Gold.Chemscore.ZeroCoef>
-5.4800

> <Gold.Chemscore.Hbond>
0.9723

> <Gold.Chemscore.Metal>
0.0000

> <Gold.Chemscore.Lipo>
106.1973

> <Gold.Chemscore.Internal_Hbond>
0.0000

> <Gold.Chemscore.DEClash>
0.2704

> <Gold.Chemscore.DEInternal>
0.5254

> <Gold.Chemscore.Rot>
1.4383

> <Gold.Chemscore.Internal.Correction>
   9.000000E+99

> <Gold.Chemscore.Hbonds>
donor molecule, donor type, donor heavy atom, donor atom, acceptor molecule, acceptor atom, score
      L1  H     7    23       P1  8028  0.95

> <Gold.Chemscore.Hbond.Weighted>
-3.2474

> <Gold.Chemscore.Metal.Weighted>
-0.0000

> <Gold.Chemscore.Lipo.Weighted>
-12.4251

> <Gold.Chemscore.Internal_Hbond.Weighted>
0.0000

> <Gold.Chemscore.DEClash.Weighted>
0.2704

> <Gold.Chemscore.DEInternal.Weighted>
0.5254

> <Gold.Chemscore.Rot.Weighted>
3.6820

> <Gold.Chemscore.Internal.Correction.Weighted>
   9.000000E+99

> <Gold.Protein.RotatedTorsions>
[ 6907 6896 6895 6894 ] final -159.58 input  -60.11 | X-H torsion
[ 7974 7965 7964 7962 ] final    5.14 input  175.53 | X-H torsion
[ 8008 7997 7996 7995 ] final   36.42 input   59.86 | X-H torsion
[ 10167 10162 10161 10158 ] final  120.13 input  -65.29 | X-H torsion
[ 10718 10713 10712 10709 ] final   76.98 input   66.30 | X-H torsion
[ 10763 10752 10751 10750 ] final -156.79 input  -60.55 | X-H torsion
[ 11005 11000 10999 10996 ] final   40.81 input  -57.11 | X-H torsion

> <Gold.Protein.ActiveResidues>
 VAL166  LYS551  ARG553  GLY616  TRP617  ASP618  TYR619  PRO620  LYS621  CYS622 
 ASP623  PHE694  ASN695  SER759  ASP760  ASP761  ALA762  ILE779  LEU786  VAL792 
 PHE793  MET794  SER795  GLU796  ALA797  LYS798  CYS799  TRP800  GLU811  SER814 

> <Gold.Protein.RotatedAtoms>
  151.3358  133.3982  159.2666 H   0  0  0  0  0  0  0  0  0  0  0  0  # atno 6907 bound_to 6896
  150.9918  134.9252  159.7914 H   0  0  0  0  0  0  0  0  0  0  0  0  # atno 6908 bound_to 6896
  152.5249  134.3322  159.9239 H   0  0  0  0  0  0  0  0  0  0  0  0  # atno 6909 bound_to 6896
  146.2441  140.0429  142.8381 H   0  0  0  0  0  0  0  0  0  0  0  0  # atno 7974 bound_to 7965
  155.1870  140.3305  155.4365 H   0  0  0  0  0  0  0  0  0  0  0  0  # atno 8008 bound_to 7997
  156.2456  140.1917  156.6915 H   0  0  0  0  0  0  0  0  0  0  0  0  # atno 8009 bound_to 7997
  154.6232  140.0592  156.9626 H   0  0  0  0  0  0  0  0  0  0  0  0  # atno 8010 bound_to 7997
  139.6002  144.7054  151.3081 H   0  0  0  0  0  0  0  0  0  0  0  0  # atno 10167 bound_to 10162
  157.6693  130.9800  150.1575 H   0  0  0  0  0  0  0  0  0  0  0  0  # atno 10718 bound_to 10713
  154.7686  135.3138  154.8235 H   0  0  0  0  0  0  0  0  0  0  0  0  # atno 10763 bound_to 10752
  153.8977  135.6819  153.4761 H   0  0  0  0  0  0  0  0  0  0  0  0  # atno 10764 bound_to 10752
  153.1296  135.4786  154.9261 H   0  0  0  0  0  0  0  0  0  0  0  0  # atno 10765 bound_to 10752
  140.1895  134.4004  155.8154 H   0  0  0  0  0  0  0  0  0  0  0  0  # atno 11005 bound_to 11000
  145.1053  140.9371  143.4688 LP  0  0  0  0  0  0  0  0  0  0  0  0  # atno 17320 bound_to 7965
  145.0631  139.3090  143.5870 LP  0  0  0  0  0  0  0  0  0  0  0  0  # atno 17321 bound_to 7965
  140.7243  143.7047  150.7817 LP  0  0  0  0  0  0  0  0  0  0  0  0  # atno 17342 bound_to 10162
  140.0622  143.5143  152.2622 LP  0  0  0  0  0  0  0  0  0  0  0  0  # atno 17343 bound_to 10162
  156.2359  130.3686  149.8392 LP  0  0  0  0  0  0  0  0  0  0  0  0  # atno 17370 bound_to 10713
  156.6205  130.8624  151.3474 LP  0  0  0  0  0  0  0  0  0  0  0  0  # atno 17371 bound_to 10713
  141.2226  133.7039  156.8071 LP  0  0  0  0  0  0  0  0  0  0  0  0  # atno 17394 bound_to 11000
  140.2176  134.8781  157.3342 LP  0  0  0  0  0  0  0  0  0  0  0  0  # atno 17395 bound_to 11000

$$$$
