AV-unprocessed.smi:678|AV-procd|sdf|3317|dock5
  -GOLD-   22720 0283D 1   1.00000     0.00000
 Structure written by MMmdl.
 50 51  0  0  0  0  0  0  0  0  1 V2000
  145.5569  137.5327  162.7067 C   0  0  0  0  0  0  0  0  0  0  0  0
  146.4087  136.5491  161.9235 C   0  0  0  0  0  0  0  0  0  0  0  0
  146.8818  135.4184  162.4912 C   0  0  0  0  0  0  0  0  0  0  0  0
  147.6909  134.4896  161.7405 C   0  0  0  0  0  0  0  0  0  0  0  0
  147.9590  134.7764  160.4590 C   0  0  0  0  0  0  0  0  0  0  0  0
  147.4738  135.9445  159.8413 N   0  0  0  0  0  0  0  0  0  0  0  0
  147.8488  136.1449  158.4290 C   0  0  0  0  0  0  0  0  0  0  0  0
  149.3364  136.4645  158.2032 C   0  0  0  0  0  0  0  0  0  0  0  0
  150.1888  135.7296  158.7004 O   0  0  0  0  0  0  0  0  0  0  0  0
  149.6466  137.5652  157.4985 N   0  0  0  0  0  0  0  0  0  0  0  0
  150.9869  138.1132  157.3296 C   0  0  0  0  0  0  0  0  0  0  0  0
  150.9322  139.6299  157.0748 C   0  0  2  0  0  0  0  0  0  0  0  0
  151.4170  140.4560  158.2859 C   0  0  0  0  0  0  0  0  0  0  0  0
  151.3146  141.8918  158.0455 N   0  0  0  0  0  0  0  0  0  0  0  0
  151.7632  142.6924  159.1864 C   0  0  0  0  0  0  0  0  0  0  0  0
  151.6523  144.2247  159.0238 C   0  0  0  0  0  0  0  0  0  0  0  0
  152.6964  144.7369  158.0218 C   0  0  0  0  0  0  0  0  0  0  0  0
  151.7850  144.9620  160.3665 C   0  0  0  0  0  0  0  0  0  0  0  0
  149.9376  142.2135  157.6876 C   0  0  0  0  0  0  0  0  0  0  0  0
  149.4445  141.3839  156.4897 C   0  0  0  0  0  0  0  0  0  0  0  0
  149.5880  139.9960  156.7771 O   0  0  0  0  0  0  0  0  0  0  0  0
  146.7114  136.8615  160.5139 C   0  0  0  0  0  0  0  0  0  0  0  0
  146.3129  137.8913  159.9673 O   0  0  0  0  0  0  0  0  0  0  0  0
  145.4023  137.1981  163.7331 H   0  0  0  0  0  0  0  0  0  0  0  0
  144.5784  137.6465  162.2388 H   0  0  0  0  0  0  0  0  0  0  0  0
  146.0379  138.5109  162.7408 H   0  0  0  0  0  0  0  0  0  0  0  0
  146.6550  135.1986  163.5244 H   0  0  0  0  0  0  0  0  0  0  0  0
  148.0760  133.5909  162.2000 H   0  0  0  0  0  0  0  0  0  0  0  0
  148.5647  134.1403  159.8292 H   0  0  0  0  0  0  0  0  0  0  0  0
  147.6018  135.2484  157.8580 H   0  0  0  0  0  0  0  0  0  0  0  0
  147.2538  136.9375  157.9722 H   0  0  0  0  0  0  0  0  0  0  0  0
  148.8864  138.1050  157.1110 H   0  0  0  0  0  0  0  0  0  0  0  0
  151.6044  137.8941  158.2022 H   0  0  0  0  0  0  0  0  0  0  0  0
  151.4565  137.6100  156.4841 H   0  0  0  0  0  0  0  0  0  0  0  0
  151.5534  139.8616  156.2072 H   0  0  0  0  0  0  0  0  0  0  0  0
  150.8376  140.1851  159.1699 H   0  0  0  0  0  0  0  0  0  0  0  0
  152.4517  140.1902  158.4957 H   0  0  0  0  0  0  0  0  0  0  0  0
  151.1814  142.4069  160.0641 H   0  0  0  0  0  0  0  0  0  0  0  0
  152.7971  142.4338  159.4207 H   0  0  0  0  0  0  0  0  0  0  0  0
  150.6786  144.4667  158.6000 H   0  0  0  0  0  0  0  0  0  0  0  0
  153.7109  144.5453  158.3724 H   0  0  0  0  0  0  0  0  0  0  0  0
  152.5956  145.8110  157.8642 H   0  0  0  0  0  0  0  0  0  0  0  0
  152.5813  144.2516  157.0520 H   0  0  0  0  0  0  0  0  0  0  0  0
  152.7424  144.7488  160.8426 H   0  0  0  0  0  0  0  0  0  0  0  0
  150.9950  144.6711  161.0595 H   0  0  0  0  0  0  0  0  0  0  0  0
  151.7132  146.0413  160.2301 H   0  0  0  0  0  0  0  0  0  0  0  0
  149.2824  142.0344  158.5416 H   0  0  0  0  0  0  0  0  0  0  0  0
  149.8548  143.2745  157.4490 H   0  0  0  0  0  0  0  0  0  0  0  0
  148.3959  141.5996  156.2854 H   0  0  0  0  0  0  0  0  0  0  0  0
  150.0051  141.6360  155.5883 H   0  0  0  0  0  0  0  0  0  0  0  0
  1  2  1  0  0  0  0
  1 24  1  0  0  0  0
  1 25  1  0  0  0  0
  1 26  1  0  0  0  0
  2 22  1  0  0  0  0
  2  3  2  0  0  0  0
  3  4  1  0  0  0  0
  3 27  1  0  0  0  0
  4  5  2  0  0  0  0
  4 28  1  0  0  0  0
  5  6  1  0  0  0  0
  5 29  1  0  0  0  0
  6  7  1  0  0  0  0
  6 22  1  0  0  0  0
  7  8  1  0  0  0  0
  7 30  1  0  0  0  0
  7 31  1  0  0  0  0
  8  9  2  0  0  0  0
  8 10  1  0  0  0  0
 10 11  1  0  0  0  0
 10 32  1  0  0  0  0
 11 12  1  0  0  0  0
 11 33  1  0  0  0  0
 11 34  1  0  0  0  0
 12 21  1  0  0  0  0
 12 13  1  0  0  0  0
 12 35  1  0  0  0  0
 13 14  1  0  0  0  0
 13 36  1  0  0  0  0
 13 37  1  0  0  0  0
 14 15  1  0  0  0  0
 14 19  1  0  0  0  0
 15 16  1  0  0  0  0
 15 38  1  0  0  0  0
 15 39  1  0  0  0  0
 16 17  1  0  0  0  0
 16 18  1  0  0  0  0
 16 40  1  0  0  0  0
 17 41  1  0  0  0  0
 17 42  1  0  0  0  0
 17 43  1  0  0  0  0
 18 44  1  0  0  0  0
 18 45  1  0  0  0  0
 18 46  1  0  0  0  0
 19 20  1  0  0  0  0
 19 47  1  0  0  0  0
 19 48  1  0  0  0  0
 20 21  1  0  0  0  0
 20 49  1  0  0  0  0
 20 50  1  0  0  0  0
 22 23  2  0  0  0  0
M  END
> <s_m_source_file>
AV-unprocessed.smi

> <i_m_source_file_index>
678

> <i_lp_mmshare_version>
43012

> <i_f3d_flags>
0

> <s_epik_input>
W0NIM11jMVtjSF1bY0hdW2NIXW4oYzE9TylbQ0gyXUMoPU8pW05IXVtDSDJdW0NAQEhdMltDSDJdTihbQ0gyXVtDSDJdTzIpW0NIMl1bQ0hdKFtDSDNdKVtDSDNd

> <s_epik_cmdline>
J2VwaWtfcHl0aG9uJywgJy1waCcsICc3LjAnLCAnLXRuJywgJzgnLCAnLW1hJywgJzIwMCcsICctbWV0YWxfYmluZGluZycsICctaW1hZScsICc8aW5maWxlLm1hZT4nLCAnLW9tYWUnLCAnPG91dGZpbGUubWFlPic=

> <r_lp_tautomer_probability>
1

> <r_epik_Ionization_Penalty>
1.11669

> <r_epik_Ionization_Penalty_Charging>
7.32459e-07

> <r_epik_Ionization_Penalty_Neutral>
1.11669

> <r_epik_State_Penalty>
1.17516

> <r_epik_Charging_Adjusted_Penalty>
1.17516

> <i_epik_Tot_Q>
0

> <i_epik_Tot_abs_Q>
0

> <r_epik_Metal_State_Penalty>
1.17513

> <b_epik_Metal_Only>
0

> <s_lp_Force_Field>
OPLS_2005

> <r_lp_Energy>
32.9221

> <b_lp_Chiralities_Consistent>
1

> <s_lp_Variant>
AV-unprocessed.smi:678-5

> <Gold.Version>
5.8.1

> <Gold.Id.Protein>
6NUR|6NUR_protein|mol2

> <Gold.PLP.Fitness>
44.0512

> <Gold.PLP.PLP>
-40.1858

> <Gold.PLP.part.hbond>
-1.7656

> <Gold.PLP.part.metal>
0.0000

> <Gold.PLP.part.buried>
-6.1788

> <Gold.PLP.part.nonpolar>
-32.5990

> <Gold.PLP.part.repulsive>
0.0628

> <Gold.PLP.ligand.clash>
0.0000

> <Gold.PLP.ligand.torsion>
1.0971

> <Gold.PLP.Chemscore.Hbond>
2.0000

> <Gold.PLP.Chemscore.CHOScore>
0.0000

> <Gold.PLP.Chemscore.Metal>
0.0000

> <Gold.Chemscore.Hbonds>
donor molecule, donor type, donor heavy atom, donor atom, acceptor molecule, acceptor atom, score
      P1  H  6896  6907       L1     9  0.84
      P1  H  6934  6947       L1    23  1.00

> <Gold.PLP.Chemscore.Internal.Correction>
0.0595

> <Gold.Rescore>
     Score         DG    S(hbond)    S(metal)    S(lipo)     H(rot)  DE(clash)    DE(int)     intcor
     18.94     -20.14       1.89        0.00     111.32       1.82       0.04       1.16       ----

> <Gold.Chemscore.Fitness>
18.9435

> <Gold.Chemscore.DG>
-20.1419

> <Gold.Chemscore.ZeroCoef>
-5.4800

> <Gold.Chemscore.Hbond>
1.8884

> <Gold.Chemscore.Metal>
0.0000

> <Gold.Chemscore.Lipo>
111.3231

> <Gold.Chemscore.Internal_Hbond>
0.0000

> <Gold.Chemscore.DEClash>
0.0411

> <Gold.Chemscore.DEInternal>
1.1572

> <Gold.Chemscore.Rot>
1.8243

> <Gold.Chemscore.Internal.Correction>
   9.000000E+99

> <Gold.Chemscore.Hbonds>
donor molecule, donor type, donor heavy atom, donor atom, acceptor molecule, acceptor atom, score
      P1  H  6896  6907       L1     9  0.80
      P1  H  6934  6947       L1    23  0.24

> <Gold.Chemscore.Hbond.Weighted>
-6.3073

> <Gold.Chemscore.Metal.Weighted>
-0.0000

> <Gold.Chemscore.Lipo.Weighted>
-13.0248

> <Gold.Chemscore.Internal_Hbond.Weighted>
0.0000

> <Gold.Chemscore.DEClash.Weighted>
0.0411

> <Gold.Chemscore.DEInternal.Weighted>
1.1572

> <Gold.Chemscore.Rot.Weighted>
4.6703

> <Gold.Chemscore.Internal.Correction.Weighted>
   9.000000E+99

> <Gold.Protein.RotatedTorsions>
[ 6907 6896 6895 6894 ] final  -64.00 input  -60.11 | X-H torsion
[ 7974 7965 7964 7962 ] final -171.14 input  175.53 | X-H torsion
[ 8008 7997 7996 7995 ] final  -81.09 input   59.86 | X-H torsion
[ 10167 10162 10161 10158 ] final   84.93 input  -65.29 | X-H torsion
[ 10718 10713 10712 10709 ] final  -51.99 input   66.30 | X-H torsion
[ 10763 10752 10751 10750 ] final  118.35 input  -60.55 | X-H torsion
[ 11005 11000 10999 10996 ] final -150.27 input  -57.11 | X-H torsion

> <Gold.Protein.ActiveResidues>
 VAL166  LYS551  ARG553  GLY616  TRP617  ASP618  TYR619  PRO620  LYS621  CYS622 
 ASP623  PHE694  ASN695  SER759  ASP760  ASP761  ALA762  ILE779  LEU786  VAL792 
 PHE793  MET794  SER795  GLU796  ALA797  LYS798  CYS799  TRP800  GLU811  SER814 

> <Gold.Protein.RotatedAtoms>
  150.7613  134.6358  159.6210 H   0  0  0  0  0  0  0  0  0  0  0  0  # atno 6907 bound_to 6896
  152.3621  134.6853  160.0212 H   0  0  0  0  0  0  0  0  0  0  0  0  # atno 6908 bound_to 6896
  151.7240  133.3279  159.3359 H   0  0  0  0  0  0  0  0  0  0  0  0  # atno 6909 bound_to 6896
  144.7161  140.1966  143.6343 H   0  0  0  0  0  0  0  0  0  0  0  0  # atno 7974 bound_to 7965
  154.5948  140.0653  156.9288 H   0  0  0  0  0  0  0  0  0  0  0  0  # atno 8008 bound_to 7997
  155.2233  140.3332  155.4294 H   0  0  0  0  0  0  0  0  0  0  0  0  # atno 8009 bound_to 7997
  156.2280  140.1828  156.7299 H   0  0  0  0  0  0  0  0  0  0  0  0  # atno 8010 bound_to 7997
  139.9029  144.6318  150.8618 H   0  0  0  0  0  0  0  0  0  0  0  0  # atno 10167 bound_to 10162
  156.1661  130.4149  149.9718 H   0  0  0  0  0  0  0  0  0  0  0  0  # atno 10718 bound_to 10713
  153.5663  135.3511  155.2819 H   0  0  0  0  0  0  0  0  0  0  0  0  # atno 10763 bound_to 10752
  154.8688  135.4148  154.2775 H   0  0  0  0  0  0  0  0  0  0  0  0  # atno 10764 bound_to 10752
  153.3531  135.7056  153.6842 H   0  0  0  0  0  0  0  0  0  0  0  0  # atno 10765 bound_to 10752
  140.7420  134.3503  157.5145 H   0  0  0  0  0  0  0  0  0  0  0  0  # atno 11005 bound_to 11000
  145.8719  139.2276  143.1656 LP  0  0  0  0  0  0  0  0  0  0  0  0  # atno 17320 bound_to 7965
  146.0077  140.8464  142.9986 LP  0  0  0  0  0  0  0  0  0  0  0  0  # atno 17321 bound_to 7965
  140.7703  143.3423  151.2183 LP  0  0  0  0  0  0  0  0  0  0  0  0  # atno 17342 bound_to 10162
  139.7009  143.9534  152.2905 LP  0  0  0  0  0  0  0  0  0  0  0  0  # atno 17343 bound_to 10162
  156.7532  130.9123  151.3638 LP  0  0  0  0  0  0  0  0  0  0  0  0  # atno 17370 bound_to 10713
  157.6769  130.9103  150.0171 LP  0  0  0  0  0  0  0  0  0  0  0  0  # atno 17371 bound_to 10713
  139.8804  134.9087  156.2973 LP  0  0  0  0  0  0  0  0  0  0  0  0  # atno 17394 bound_to 11000
  140.9828  133.7257  156.0697 LP  0  0  0  0  0  0  0  0  0  0  0  0  # atno 17395 bound_to 11000

$$$$
