AV-unprocessed.smi:2040|AV-procd|sdf|8288|dock7
  -GOLD-   2272010553D 1   1.00000     0.00000
 Structure written by MMmdl.
 38 39  0  0  0  0  0  0  0  0  1 V2000
  153.6888  141.7933  160.6987 C   0  0  0  0  0  0  0  0  0  0  0  0
  152.7036  142.4073  159.7484 C   0  0  0  0  0  0  0  0  0  0  0  0
  151.8709  141.7460  158.7994 C   0  0  0  0  0  0  0  0  0  0  0  0
  151.1925  142.7832  158.2197 C   0  0  0  0  0  0  0  0  0  0  0  0
  150.2485  142.7470  157.2418 N   0  0  0  0  0  0  0  0  0  0  0  0
  149.5934  141.6823  156.7470 C   0  0  0  0  0  0  0  0  0  0  0  0
  149.7527  140.5155  157.1065 O   0  0  0  0  0  0  0  0  0  0  0  0
  148.7315  142.0485  155.7875 N   0  0  0  0  0  0  0  0  0  0  0  0
  147.8549  141.1437  155.0478 C   0  0  2  0  0  0  0  0  0  0  0  0
  148.6084  140.5718  153.8341 C   0  0  0  0  0  0  0  0  0  0  0  0
  146.5783  141.9018  154.6362 C   0  0  1  0  0  0  0  0  0  0  0  0
  145.8679  142.6312  155.7804 C   0  0  0  0  0  0  0  0  0  0  0  0
  145.1916  143.8157  155.1043 C   0  0  0  0  0  0  0  0  0  0  0  0
  145.7443  143.7995  153.6781 C   0  0  0  0  0  0  0  0  0  0  0  0
  146.8907  142.9663  153.7499 O   0  0  0  0  0  0  0  0  0  0  0  0
  151.6030  143.9628  158.7997 N   0  0  0  0  0  0  0  0  0  0  0  0
  151.1748  145.3209  158.5272 C   0  0  0  0  0  0  0  0  0  0  0  0
  152.5402  143.7256  159.7431 N   0  0  0  0  0  0  0  0  0  0  0  0
  153.6520  140.7047  160.6552 H   0  0  0  0  0  0  0  0  0  0  0  0
  153.4821  142.0906  161.7273 H   0  0  0  0  0  0  0  0  0  0  0  0
  154.7074  142.1005  160.4601 H   0  0  0  0  0  0  0  0  0  0  0  0
  151.7980  140.6883  158.5966 H   0  0  0  0  0  0  0  0  0  0  0  0
  150.0231  143.6394  156.8278 H   0  0  0  0  0  0  0  0  0  0  0  0
  148.6621  143.0295  155.5600 H   0  0  0  0  0  0  0  0  0  0  0  0
  147.5645  140.3174  155.6995 H   0  0  0  0  0  0  0  0  0  0  0  0
  147.9922  139.8622  153.2820 H   0  0  0  0  0  0  0  0  0  0  0  0
  149.5105  140.0425  154.1424 H   0  0  0  0  0  0  0  0  0  0  0  0
  148.9058  141.3619  153.1439 H   0  0  0  0  0  0  0  0  0  0  0  0
  145.8782  141.2274  154.1383 H   0  0  0  0  0  0  0  0  0  0  0  0
  145.1617  141.9877  156.3058 H   0  0  0  0  0  0  0  0  0  0  0  0
  146.5930  142.9961  156.5092 H   0  0  0  0  0  0  0  0  0  0  0  0
  144.1049  143.7240  155.1055 H   0  0  0  0  0  0  0  0  0  0  0  0
  145.4507  144.7432  155.6162 H   0  0  0  0  0  0  0  0  0  0  0  0
  145.0221  143.3564  152.9906 H   0  0  0  0  0  0  0  0  0  0  0  0
  145.9967  144.7952  153.3127 H   0  0  0  0  0  0  0  0  0  0  0  0
  151.3935  145.5724  157.4892 H   0  0  0  0  0  0  0  0  0  0  0  0
  151.6933  146.0258  159.1786 H   0  0  0  0  0  0  0  0  0  0  0  0
  150.1014  145.4071  158.6972 H   0  0  0  0  0  0  0  0  0  0  0  0
  1  2  1  0  0  0  0
  1 19  1  0  0  0  0
  1 20  1  0  0  0  0
  1 21  1  0  0  0  0
  2 18  2  0  0  0  0
  2  3  1  0  0  0  0
  3  4  2  0  0  0  0
  3 22  1  0  0  0  0
  4  5  1  0  0  0  0
  4 16  1  0  0  0  0
  5  6  1  0  0  0  0
  5 23  1  0  0  0  0
  6  7  2  0  0  0  0
  6  8  1  0  0  0  0
  8  9  1  0  0  0  0
  8 24  1  0  0  0  0
  9 10  1  0  0  0  0
  9 11  1  0  0  0  0
  9 25  1  0  0  0  0
 10 26  1  0  0  0  0
 10 27  1  0  0  0  0
 10 28  1  0  0  0  0
 11 15  1  0  0  0  0
 11 12  1  0  0  0  0
 11 29  1  0  0  0  0
 12 13  1  0  0  0  0
 12 30  1  0  0  0  0
 12 31  1  0  0  0  0
 13 14  1  0  0  0  0
 13 32  1  0  0  0  0
 13 33  1  0  0  0  0
 14 15  1  0  0  0  0
 14 34  1  0  0  0  0
 14 35  1  0  0  0  0
 16 17  1  0  0  0  0
 16 18  1  0  0  0  0
 17 36  1  0  0  0  0
 17 37  1  0  0  0  0
 17 38  1  0  0  0  0
M  END
> <s_m_source_file>
AV-unprocessed.smi

> <i_m_source_file_index>
2040

> <i_lp_mmshare_version>
43012

> <i_f3d_flags>
0

> <s_epik_input>
W0NIM11jMVtjSF1jKG4objEpW0NIM10pW05IXUMoPU8pW05IXVtDQEhdKFtDSDNdKVtDQEBIXTJbQ0gyXVtDSDJdW0NIMl1PMg==

> <s_epik_cmdline>
J2VwaWtfcHl0aG9uJywgJy1waCcsICc3LjAnLCAnLXRuJywgJzgnLCAnLW1hJywgJzIwMCcsICctbWV0YWxfYmluZGluZycsICctaW1hZScsICc8aW5maWxlLm1hZT4nLCAnLW9tYWUnLCAnPG91dGZpbGUubWFlPic=

> <r_lp_tautomer_probability>
1

> <r_epik_Ionization_Penalty>
9.09088e-05

> <r_epik_Ionization_Penalty_Charging>
0

> <r_epik_Ionization_Penalty_Neutral>
9.09088e-05

> <r_epik_State_Penalty>
-0

> <r_epik_Charging_Adjusted_Penalty>
0

> <i_epik_Tot_Q>
0

> <i_epik_Tot_abs_Q>
0

> <r_epik_Metal_State_Penalty>
-0

> <b_epik_Metal_Only>
0

> <s_lp_Force_Field>
OPLS_2005

> <r_lp_Energy>
19.5885

> <b_lp_Chiralities_Consistent>
1

> <s_lp_Variant>
AV-unprocessed.smi:2040-3

> <Gold.Version>
5.8.1

> <Gold.Id.Protein>
6NUR|6NUR_protein|mol2

> <Gold.PLP.Fitness>
41.1129

> <Gold.PLP.PLP>
-35.9605

> <Gold.PLP.part.hbond>
-2.7386

> <Gold.PLP.part.metal>
0.0000

> <Gold.PLP.part.buried>
-3.1200

> <Gold.PLP.part.nonpolar>
-29.7581

> <Gold.PLP.part.repulsive>
0.3318

> <Gold.PLP.ligand.clash>
0.0000

> <Gold.PLP.ligand.torsion>
0.4337

> <Gold.PLP.Chemscore.Hbond>
2.0000

> <Gold.PLP.Chemscore.CHOScore>
0.0000

> <Gold.PLP.Chemscore.Metal>
0.0000

> <Gold.Chemscore.Hbonds>
donor molecule, donor type, donor heavy atom, donor atom, acceptor molecule, acceptor atom, score
      L1  H     5    23       P1  8028  1.00
      L1  H     8    24       P1  8028  1.00

> <Gold.PLP.Chemscore.Internal.Correction>
0.0198

> <Gold.Rescore>
     Score         DG    S(hbond)    S(metal)    S(lipo)     H(rot)  DE(clash)    DE(int)     intcor
     14.59     -17.72       1.96        0.00      75.54       1.23       1.63       1.50       ----

> <Gold.Chemscore.Fitness>
14.5858

> <Gold.Chemscore.DG>
-17.7185

> <Gold.Chemscore.ZeroCoef>
-5.4800

> <Gold.Chemscore.Hbond>
1.9636

> <Gold.Chemscore.Metal>
0.0000

> <Gold.Chemscore.Lipo>
75.5415

> <Gold.Chemscore.Internal_Hbond>
0.0000

> <Gold.Chemscore.DEClash>
1.6347

> <Gold.Chemscore.DEInternal>
1.4980

> <Gold.Chemscore.Rot>
1.2338

> <Gold.Chemscore.Internal.Correction>
   9.000000E+99

> <Gold.Chemscore.Hbonds>
donor molecule, donor type, donor heavy atom, donor atom, acceptor molecule, acceptor atom, score
      L1  H     5    23       P1  8028  0.94
      L1  H     8    24       P1  8028  1.00

> <Gold.Chemscore.Hbond.Weighted>
-6.5585

> <Gold.Chemscore.Metal.Weighted>
-0.0000

> <Gold.Chemscore.Lipo.Weighted>
-8.8384

> <Gold.Chemscore.Internal_Hbond.Weighted>
0.0000

> <Gold.Chemscore.DEClash.Weighted>
1.6347

> <Gold.Chemscore.DEInternal.Weighted>
1.4980

> <Gold.Chemscore.Rot.Weighted>
3.1584

> <Gold.Chemscore.Internal.Correction.Weighted>
   9.000000E+99

> <Gold.Protein.RotatedTorsions>
[ 6907 6896 6895 6894 ] final -137.56 input  -60.11 | X-H torsion
[ 7974 7965 7964 7962 ] final  -13.51 input  175.53 | X-H torsion
[ 8008 7997 7996 7995 ] final  -99.80 input   59.86 | X-H torsion
[ 10167 10162 10161 10158 ] final -179.25 input  -65.29 | X-H torsion
[ 10718 10713 10712 10709 ] final  132.06 input   66.30 | X-H torsion
[ 10763 10752 10751 10750 ] final   88.20 input  -60.55 | X-H torsion
[ 11005 11000 10999 10996 ] final  -49.36 input  -57.11 | X-H torsion

> <Gold.Protein.ActiveResidues>
 VAL166  LYS551  ARG553  GLY616  TRP617  ASP618  TYR619  PRO620  LYS621  CYS622 
 ASP623  PHE694  ASN695  SER759  ASP760  ASP761  ALA762  ILE779  LEU786  VAL792 
 PHE793  MET794  SER795  GLU796  ALA797  LYS798  CYS799  TRP800  GLU811  SER814 

> <Gold.Protein.RotatedAtoms>
  151.0241  133.5850  159.2667 H   0  0  0  0  0  0  0  0  0  0  0  0  # atno 6907 bound_to 6896
  151.2956  135.0753  159.9230 H   0  0  0  0  0  0  0  0  0  0  0  0  # atno 6908 bound_to 6896
  152.5330  133.9931  159.7914 H   0  0  0  0  0  0  0  0  0  0  0  0  # atno 6909 bound_to 6896
  146.2111  140.3214  142.8391 H   0  0  0  0  0  0  0  0  0  0  0  0  # atno 7974 bound_to 7965
  154.8198  140.0445  157.1402 H   0  0  0  0  0  0  0  0  0  0  0  0  # atno 8008 bound_to 7997
  154.9273  140.3035  155.5165 H   0  0  0  0  0  0  0  0  0  0  0  0  # atno 8009 bound_to 7997
  156.2979  140.2329  156.4329 H   0  0  0  0  0  0  0  0  0  0  0  0  # atno 8010 bound_to 7997
  139.5395  144.2403  152.0865 H   0  0  0  0  0  0  0  0  0  0  0  0  # atno 10167 bound_to 10162
  157.4908  131.1090  150.9559 H   0  0  0  0  0  0  0  0  0  0  0  0  # atno 10718 bound_to 10713
  153.1745  135.4515  154.9946 H   0  0  0  0  0  0  0  0  0  0  0  0  # atno 10763 bound_to 10752
  154.7988  135.3248  154.7603 H   0  0  0  0  0  0  0  0  0  0  0  0  # atno 10764 bound_to 10752
  153.8075  135.6957  153.4901 H   0  0  0  0  0  0  0  0  0  0  0  0  # atno 10765 bound_to 10752
  141.0755  133.6667  156.3575 H   0  0  0  0  0  0  0  0  0  0  0  0  # atno 11005 bound_to 11000
  144.8917  140.7532  143.5922 LP  0  0  0  0  0  0  0  0  0  0  0  0  # atno 17320 bound_to 7965
  145.3136  139.1810  143.4625 LP  0  0  0  0  0  0  0  0  0  0  0  0  # atno 17321 bound_to 7965
  140.1879  144.4780  150.6494 LP  0  0  0  0  0  0  0  0  0  0  0  0  # atno 17342 bound_to 10162
  140.6618  143.2254  151.5838 LP  0  0  0  0  0  0  0  0  0  0  0  0  # atno 17343 bound_to 10162
  157.0261  130.5693  149.5337 LP  0  0  0  0  0  0  0  0  0  0  0  0  # atno 17370 bound_to 10713
  156.0172  130.5267  150.8170 LP  0  0  0  0  0  0  0  0  0  0  0  0  # atno 17371 bound_to 10713
  140.5583  134.5959  157.5427 LP  0  0  0  0  0  0  0  0  0  0  0  0  # atno 17394 bound_to 11000
  139.9567  134.7523  156.0326 LP  0  0  0  0  0  0  0  0  0  0  0  0  # atno 17395 bound_to 11000

$$$$
