AV-unprocessed.smi:2837|AV-procd|sdf|10921|dock7
  -GOLD-   2272015373D 1   1.00000     0.00000
 Structure written by MMmdl.
 32 34  0  0  0  0  0  0  0  0  1 V2000
  150.0289  134.4655  154.4304 F   0  0  0  0  0  0  0  0  0  0  0  0
  150.4318  135.4277  155.2949 C   0  0  0  0  0  0  0  0  0  0  0  0
  151.2701  134.8491  156.1894 F   0  0  0  0  0  0  0  0  0  0  0  0
  151.0709  136.4168  154.6158 O   0  0  0  0  0  0  0  0  0  0  0  0
  151.1766  137.6639  155.1881 C   0  0  0  0  0  0  0  0  0  0  0  0
  151.6045  137.8836  156.5185 C   0  0  0  0  0  0  0  0  0  0  0  0
  151.6897  139.2039  157.0005 C   0  0  0  0  0  0  0  0  0  0  0  0
  151.3527  140.2669  156.1377 C   0  0  0  0  0  0  0  0  0  0  0  0
  151.4335  141.5784  156.6269 N   0  0  0  0  0  0  0  0  0  0  0  0
  151.0588  141.8978  158.0013 C   0  0  1  0  0  0  0  0  0  0  0  0
  152.2230  141.7618  158.9854 C   0  0  0  0  0  0  0  0  0  0  0  0
  152.2264  143.1391  159.6632 C   0  0  1  0  0  0  0  0  0  0  0  0
  152.7953  144.2212  158.7361 C   0  0  0  0  0  0  0  0  0  0  0  0
  151.6618  144.3926  157.7268 C   0  0  0  0  0  0  0  0  0  0  0  0
  150.6331  143.3633  158.2256 C   0  0  2  0  0  0  0  0  0  0  0  0
  150.8464  143.4628  159.6238 O   0  0  0  0  0  0  0  0  0  0  0  0
  150.9512  140.0639  154.8613 N   0  0  0  0  0  0  0  0  0  0  0  0
  150.8733  138.7959  154.4051 C   0  0  0  0  0  0  0  0  0  0  0  0
  149.5481  135.8007  155.8134 H   0  0  0  0  0  0  0  0  0  0  0  0
  151.8705  137.0626  157.1675 H   0  0  0  0  0  0  0  0  0  0  0  0
  152.0121  139.3927  158.0142 H   0  0  0  0  0  0  0  0  0  0  0  0
  151.5461  142.3400  155.9735 H   0  0  0  0  0  0  0  0  0  0  0  0
  150.2564  141.2317  158.3222 H   0  0  0  0  0  0  0  0  0  0  0  0
  152.0134  140.9734  159.7089 H   0  0  0  0  0  0  0  0  0  0  0  0
  153.1794  141.5378  158.5105 H   0  0  0  0  0  0  0  0  0  0  0  0
  152.6622  143.1393  160.6625 H   0  0  0  0  0  0  0  0  0  0  0  0
  152.9664  145.1505  159.2804 H   0  0  0  0  0  0  0  0  0  0  0  0
  153.7342  143.9181  158.2713 H   0  0  0  0  0  0  0  0  0  0  0  0
  151.2518  145.4013  157.7871 H   0  0  0  0  0  0  0  0  0  0  0  0
  151.9763  144.2214  156.6971 H   0  0  0  0  0  0  0  0  0  0  0  0
  149.6100  143.5796  157.9173 H   0  0  0  0  0  0  0  0  0  0  0  0
  150.5532  138.6797  153.3802 H   0  0  0  0  0  0  0  0  0  0  0  0
  1  2  1  0  0  0  0
  2  3  1  0  0  0  0
  2  4  1  0  0  0  0
  2 19  1  0  0  0  0
  4  5  1  0  0  0  0
  5 18  1  0  0  0  0
  5  6  2  0  0  0  0
  6  7  1  0  0  0  0
  6 20  1  0  0  0  0
  7  8  2  0  0  0  0
  7 21  1  0  0  0  0
  8  9  1  0  0  0  0
  8 17  1  0  0  0  0
  9 10  1  0  0  0  0
  9 22  1  0  0  0  0
 10 15  1  0  0  0  0
 10 11  1  0  0  0  0
 10 23  1  0  0  0  0
 11 12  1  0  0  0  0
 11 24  1  0  0  0  0
 11 25  1  0  0  0  0
 12 16  1  0  0  0  0
 12 13  1  0  0  0  0
 12 26  1  0  0  0  0
 13 14  1  0  0  0  0
 13 27  1  0  0  0  0
 13 28  1  0  0  0  0
 14 15  1  0  0  0  0
 14 29  1  0  0  0  0
 14 30  1  0  0  0  0
 15 16  1  0  0  0  0
 15 31  1  0  0  0  0
 17 18  2  0  0  0  0
 18 32  1  0  0  0  0
M  END
> <s_m_source_file>
AV-unprocessed.smi

> <i_m_source_file_index>
2837

> <i_lp_mmshare_version>
43012

> <i_f3d_flags>
0

> <s_epik_input>
RltDSF0oRilPYzFbY0hdW2NIXWMobltjSF0xKVtOSF1bQ0BIXShbQ0gyXVtDQEBIXTIzKVtDQEBIXShPMylbQ0gyXVtDSDJdMg==

> <s_epik_cmdline>
J2VwaWtfcHl0aG9uJywgJy1waCcsICc3LjAnLCAnLXRuJywgJzgnLCAnLW1hJywgJzIwMCcsICctbWV0YWxfYmluZGluZycsICctaW1hZScsICc8aW5maWxlLm1hZT4nLCAnLW9tYWUnLCAnPG91dGZpbGUubWFlPic=

> <r_lp_tautomer_probability>
1

> <r_epik_Ionization_Penalty>
0.0124072

> <r_epik_Ionization_Penalty_Charging>
0

> <r_epik_Ionization_Penalty_Neutral>
0.0124072

> <r_epik_State_Penalty>
0.00959565

> <r_epik_Charging_Adjusted_Penalty>
0.00959565

> <i_epik_Tot_Q>
0

> <i_epik_Tot_abs_Q>
0

> <r_epik_Metal_State_Penalty>
9.67369e-06

> <b_epik_Metal_Only>
0

> <s_lp_Force_Field>
OPLS_2005

> <r_lp_Energy>
39.9144

> <b_lp_Chiralities_Consistent>
1

> <s_lp_Variant>
AV-unprocessed.smi:2837-2

> <Gold.Version>
5.8.1

> <Gold.Id.Protein>
6NUR|6NUR_protein|mol2

> <Gold.PLP.Fitness>
40.3290

> <Gold.PLP.PLP>
-34.9932

> <Gold.PLP.part.hbond>
-2.0719

> <Gold.PLP.part.metal>
0.0000

> <Gold.PLP.part.buried>
-2.8356

> <Gold.PLP.part.nonpolar>
-29.1393

> <Gold.PLP.part.repulsive>
0.4185

> <Gold.PLP.ligand.clash>
0.0000

> <Gold.PLP.ligand.torsion>
0.9935

> <Gold.PLP.Chemscore.Hbond>
1.9913

> <Gold.PLP.Chemscore.CHOScore>
0.4434

> <Gold.PLP.Chemscore.Metal>
0.0000

> <Gold.Chemscore.Hbonds>
donor molecule, donor type, donor heavy atom, donor atom, acceptor molecule, acceptor atom, score
      P1  H  7989  7998       L1    17  1.00
      P1  H 10752 10763       L1     4  0.94
      L1  C    18    32       P1  7957  0.45

> <Gold.PLP.Chemscore.Internal.Correction>
0.0189

> <Gold.Rescore>
     Score         DG    S(hbond)    S(metal)    S(lipo)     H(rot)  DE(clash)    DE(int)     intcor
     16.53     -17.78       1.48        0.00      91.73       1.32       0.20       1.05       ----

> <Gold.Chemscore.Fitness>
16.5327

> <Gold.Chemscore.DG>
-17.7787

> <Gold.Chemscore.ZeroCoef>
-5.4800

> <Gold.Chemscore.Hbond>
1.4816

> <Gold.Chemscore.Metal>
0.0000

> <Gold.Chemscore.Lipo>
91.7332

> <Gold.Chemscore.Internal_Hbond>
0.0000

> <Gold.Chemscore.DEClash>
0.2009

> <Gold.Chemscore.DEInternal>
1.0451

> <Gold.Chemscore.Rot>
1.3213

> <Gold.Chemscore.Internal.Correction>
   9.000000E+99

> <Gold.Chemscore.Hbonds>
donor molecule, donor type, donor heavy atom, donor atom, acceptor molecule, acceptor atom, score
      P1  H  7989  7998       L1    17  0.30
      P1  H 10752 10763       L1     4  0.33

> <Gold.Chemscore.Hbond.Weighted>
-4.9484

> <Gold.Chemscore.Metal.Weighted>
-0.0000

> <Gold.Chemscore.Lipo.Weighted>
-10.7328

> <Gold.Chemscore.Internal_Hbond.Weighted>
0.0000

> <Gold.Chemscore.DEClash.Weighted>
0.2009

> <Gold.Chemscore.DEInternal.Weighted>
1.0451

> <Gold.Chemscore.Rot.Weighted>
3.3825

> <Gold.Chemscore.Internal.Correction.Weighted>
   9.000000E+99

> <Gold.Protein.RotatedTorsions>
[ 6907 6896 6895 6894 ] final   12.74 input  -60.11 | X-H torsion
[ 7974 7965 7964 7962 ] final   72.08 input  175.53 | X-H torsion
[ 8008 7997 7996 7995 ] final   -4.42 input   59.86 | X-H torsion
[ 10167 10162 10161 10158 ] final -162.20 input  -65.29 | X-H torsion
[ 10718 10713 10712 10709 ] final  119.84 input   66.30 | X-H torsion
[ 10763 10752 10751 10750 ] final   37.58 input  -60.55 | X-H torsion
[ 11005 11000 10999 10996 ] final -136.18 input  -57.11 | X-H torsion

> <Gold.Protein.ActiveResidues>
 VAL166  LYS551  ARG553  GLY616  TRP617  ASP618  TYR619  PRO620  LYS621  CYS622 
 ASP623  PHE694  ASN695  SER759  ASP760  ASP761  ALA762  ILE779  LEU786  VAL792 
 PHE793  MET794  SER795  GLU796  ALA797  LYS798  CYS799  TRP800  GLU811  SER814 

> <Gold.Protein.RotatedAtoms>
  151.7751  135.0776  160.0365 H   0  0  0  0  0  0  0  0  0  0  0  0  # atno 6907 bound_to 6896
  152.3261  133.5903  159.5786 H   0  0  0  0  0  0  0  0  0  0  0  0  # atno 6908 bound_to 6896
  150.7396  133.9854  159.3631 H   0  0  0  0  0  0  0  0  0  0  0  0  # atno 6909 bound_to 6896
  145.7578  139.2787  143.1393 H   0  0  0  0  0  0  0  0  0  0  0  0  # atno 7974 bound_to 7965
  154.6145  140.2484  155.7627 H   0  0  0  0  0  0  0  0  0  0  0  0  # atno 8008 bound_to 7997
  156.2390  140.2939  156.0342 H   0  0  0  0  0  0  0  0  0  0  0  0  # atno 8009 bound_to 7997
  155.1998  140.0394  157.2905 H   0  0  0  0  0  0  0  0  0  0  0  0  # atno 8010 bound_to 7997
  139.6409  144.0261  152.2091 H   0  0  0  0  0  0  0  0  0  0  0  0  # atno 10167 bound_to 10162
  157.5933  131.1061  150.7953 H   0  0  0  0  0  0  0  0  0  0  0  0  # atno 10718 bound_to 10713
  153.0032  135.6273  154.2168 H   0  0  0  0  0  0  0  0  0  0  0  0  # atno 10763 bound_to 10752
  154.1911  135.2808  155.3023 H   0  0  0  0  0  0  0  0  0  0  0  0  # atno 10764 bound_to 10752
  154.5758  135.5662  153.7198 H   0  0  0  0  0  0  0  0  0  0  0  0  # atno 10765 bound_to 10752
  140.8829  134.1909  157.4579 H   0  0  0  0  0  0  0  0  0  0  0  0  # atno 11005 bound_to 11000
  146.0293  140.8273  142.9884 LP  0  0  0  0  0  0  0  0  0  0  0  0  # atno 17320 bound_to 7965
  144.6836  140.2745  143.7301 LP  0  0  0  0  0  0  0  0  0  0  0  0  # atno 17321 bound_to 7965
  139.9950  144.6334  150.7780 LP  0  0  0  0  0  0  0  0  0  0  0  0  # atno 17342 bound_to 10162
  140.7490  143.2932  151.3275 LP  0  0  0  0  0  0  0  0  0  0  0  0  # atno 17343 bound_to 10162
  156.8369  130.5035  149.5325 LP  0  0  0  0  0  0  0  0  0  0  0  0  # atno 17370 bound_to 10713
  156.0991  130.5955  150.9864 LP  0  0  0  0  0  0  0  0  0  0  0  0  # atno 17371 bound_to 10713
  139.8721  134.9825  156.5159 LP  0  0  0  0  0  0  0  0  0  0  0  0  # atno 17394 bound_to 11000
  140.8440  133.8183  155.9102 LP  0  0  0  0  0  0  0  0  0  0  0  0  # atno 17395 bound_to 11000

$$$$
