AV-unprocessed.smi:239|AV-procd|sdf|1823|dock4
  -GOLD-   2262020423D 1   1.00000     0.00000
 Structure written by MMmdl.
 54 58  0  0  0  0  0  0  0  0  1 V2000
  153.7429  141.1653  161.3988 C   0  0  0  0  0  0  0  0  0  0  0  0
  153.0494  141.8992  160.2469 C   0  0  1  0  0  0  0  0  0  0  0  0
  152.5173  140.9242  159.1816 C   0  0  0  0  0  0  0  0  0  0  0  0
  151.7668  141.6578  158.1684 N   0  0  0  0  0  0  0  0  0  0  0  0
  151.4785  141.0331  157.0001 C   0  0  0  0  0  0  0  0  0  0  0  0
  152.3770  140.1757  156.4459 N   0  0  0  0  0  0  0  0  0  0  0  0
  152.0945  139.5519  155.2983 C   0  0  0  0  0  0  0  0  0  0  0  0
  150.9949  139.6425  154.5479 N   0  0  0  0  0  0  0  0  0  0  0  0
  150.0945  140.5098  155.0929 C   0  0  0  0  0  0  0  0  0  0  0  0
  150.2534  141.2383  156.3053 C   0  0  0  0  0  0  0  0  0  0  0  0
  149.1325  142.0280  156.5331 N   0  0  0  0  0  0  0  0  0  0  0  0
  148.3544  141.7779  155.5156 C   0  0  0  0  0  0  0  0  0  0  0  0
  148.8573  140.8835  154.5981 N   0  0  0  0  0  0  0  0  0  0  0  0
  148.2101  140.4371  153.3738 C   0  0  0  0  0  0  0  0  0  0  0  0
  147.5282  139.0518  153.4954 C   0  0  0  0  0  0  0  0  0  0  0  0
  148.5500  138.0818  153.6533 O   0  0  0  0  0  0  0  0  0  0  0  0
  146.5757  138.9629  154.7084 C   0  0  0  0  0  0  0  0  0  0  0  0
  145.7491  137.6650  154.7042 C   0  0  0  0  0  0  0  0  0  0  0  0
  145.0438  137.5375  153.4756 O   0  0  0  0  0  0  0  0  0  0  0  0
  145.9100  137.4364  152.3519 C   0  0  0  0  0  0  0  0  0  0  0  0
  146.7415  138.7238  152.2105 C   0  0  0  0  0  0  0  0  0  0  0  0
  150.6819  142.4578  158.7250 C   0  0  0  0  0  0  0  0  0  0  0  0
  151.2102  143.3937  159.8275 C   0  0  2  0  0  0  0  0  0  0  0  0
  151.9925  144.5764  159.2739 C   0  0  0  0  0  0  0  0  0  0  0  0
  151.7982  145.0276  157.8462 C   0  0  0  0  0  0  0  0  0  0  0  0
  153.0936  144.3704  158.2605 C   0  0  0  0  0  0  0  0  0  0  0  0
  151.9639  142.6515  160.7893 O   0  0  0  0  0  0  0  0  0  0  0  0
  154.5912  140.5826  161.0387 H   0  0  0  0  0  0  0  0  0  0  0  0
  153.0567  140.4830  161.9014 H   0  0  0  0  0  0  0  0  0  0  0  0
  154.1158  141.8709  162.1416 H   0  0  0  0  0  0  0  0  0  0  0  0
  153.7727  142.5767  159.7924 H   0  0  0  0  0  0  0  0  0  0  0  0
  153.3513  140.3928  158.7208 H   0  0  0  0  0  0  0  0  0  0  0  0
  151.8687  140.1776  159.6425 H   0  0  0  0  0  0  0  0  0  0  0  0
  152.8595  138.8856  154.9279 H   0  0  0  0  0  0  0  0  0  0  0  0
  147.3892  142.2491  155.3997 H   0  0  0  0  0  0  0  0  0  0  0  0
  147.4766  141.1911  153.0850 H   0  0  0  0  0  0  0  0  0  0  0  0
  148.9576  140.4226  152.5793 H   0  0  0  0  0  0  0  0  0  0  0  0
  148.6923  137.6570  152.8212 H   0  0  0  0  0  0  0  0  0  0  0  0
  147.1279  139.0407  155.6457 H   0  0  0  0  0  0  0  0  0  0  0  0
  145.8880  139.8093  154.6865 H   0  0  0  0  0  0  0  0  0  0  0  0
  146.3853  136.7931  154.8643 H   0  0  0  0  0  0  0  0  0  0  0  0
  145.0285  137.6822  155.5219 H   0  0  0  0  0  0  0  0  0  0  0  0
  146.5526  136.5602  152.4512 H   0  0  0  0  0  0  0  0  0  0  0  0
  145.3060  137.2840  151.4572 H   0  0  0  0  0  0  0  0  0  0  0  0
  146.0633  139.5474  151.9831 H   0  0  0  0  0  0  0  0  0  0  0  0
  147.4170  138.6415  151.3580 H   0  0  0  0  0  0  0  0  0  0  0  0
  150.1721  143.0415  157.9589 H   0  0  0  0  0  0  0  0  0  0  0  0
  149.9387  141.7798  159.1463 H   0  0  0  0  0  0  0  0  0  0  0  0
  150.3499  143.7980  160.3623 H   0  0  0  0  0  0  0  0  0  0  0  0
  152.1706  145.3704  159.9966 H   0  0  0  0  0  0  0  0  0  0  0  0
  151.1186  144.4513  157.2217 H   0  0  0  0  0  0  0  0  0  0  0  0
  151.8159  146.0980  157.6520 H   0  0  0  0  0  0  0  0  0  0  0  0
  153.9752  145.0027  158.3435 H   0  0  0  0  0  0  0  0  0  0  0  0
  153.2780  143.3577  157.9075 H   0  0  0  0  0  0  0  0  0  0  0  0
  1  2  1  0  0  0  0
  1 28  1  0  0  0  0
  1 29  1  0  0  0  0
  1 30  1  0  0  0  0
  2 27  1  0  0  0  0
  2  3  1  0  0  0  0
  2 31  1  0  0  0  0
  3  4  1  0  0  0  0
  3 32  1  0  0  0  0
  3 33  1  0  0  0  0
  4  5  1  0  0  0  0
  4 22  1  0  0  0  0
  5 10  1  0  0  0  0
  5  6  2  0  0  0  0
  6  7  1  0  0  0  0
  7  8  2  0  0  0  0
  7 34  1  0  0  0  0
  8  9  1  0  0  0  0
  9 13  1  0  0  0  0
  9 10  2  0  0  0  0
 10 11  1  0  0  0  0
 11 12  2  0  0  0  0
 12 13  1  0  0  0  0
 12 35  1  0  0  0  0
 13 14  1  0  0  0  0
 14 15  1  0  0  0  0
 14 36  1  0  0  0  0
 14 37  1  0  0  0  0
 15 21  1  0  0  0  0
 15 16  1  0  0  0  0
 15 17  1  0  0  0  0
 16 38  1  0  0  0  0
 17 18  1  0  0  0  0
 17 39  1  0  0  0  0
 17 40  1  0  0  0  0
 18 19  1  0  0  0  0
 18 41  1  0  0  0  0
 18 42  1  0  0  0  0
 19 20  1  0  0  0  0
 20 21  1  0  0  0  0
 20 43  1  0  0  0  0
 20 44  1  0  0  0  0
 21 45  1  0  0  0  0
 21 46  1  0  0  0  0
 22 23  1  0  0  0  0
 22 47  1  0  0  0  0
 22 48  1  0  0  0  0
 23 24  1  0  0  0  0
 23 27  1  0  0  0  0
 23 49  1  0  0  0  0
 24 26  1  0  0  0  0
 24 25  1  0  0  0  0
 24 50  1  0  0  0  0
 25 26  1  0  0  0  0
 25 51  1  0  0  0  0
 25 52  1  0  0  0  0
 26 53  1  0  0  0  0
 26 54  1  0  0  0  0
M  END
> <s_m_source_file>
AV-unprocessed.smi

> <i_m_source_file_index>
239

> <i_lp_mmshare_version>
43012

> <i_f3d_flags>
0

> <s_epik_input>
W0NIMl0xW0NIMl1bQ0hdMVtDQEBIXShPMilbQ0gyXU4oW0NIMl1bQ0BIXTJbQ0gzXSljKG5bY0hdbjMpYyhjMzQpbltjSF1uNFtDSDJdQzUoW09IXSlbQ0gyXVtDSDJdT1tDSDJdW0NIMl01

> <s_epik_cmdline>
J2VwaWtfcHl0aG9uJywgJy1waCcsICc3LjAnLCAnLXRuJywgJzgnLCAnLW1hJywgJzIwMCcsICctbWV0YWxfYmluZGluZycsICctaW1hZScsICc8aW5maWxlLm1hZT4nLCAnLW9tYWUnLCAnPG91dGZpbGUubWFlPic=

> <r_lp_tautomer_probability>
1

> <r_epik_Ionization_Penalty>
9.13091e-05

> <r_epik_Ionization_Penalty_Charging>
0

> <r_epik_Ionization_Penalty_Neutral>
9.13091e-05

> <r_epik_State_Penalty>
-0

> <r_epik_Charging_Adjusted_Penalty>
0

> <i_epik_Tot_Q>
0

> <i_epik_Tot_abs_Q>
0

> <r_epik_Metal_State_Penalty>
-0

> <b_epik_Metal_Only>
0

> <s_lp_Force_Field>
OPLS_2005

> <r_lp_Energy>
39.3472

> <b_lp_Chiralities_Consistent>
1

> <s_lp_Variant>
AV-unprocessed.smi:239-4

> <Gold.Version>
5.8.1

> <Gold.Id.Protein>
6NUR|6NUR_protein|mol2

> <Gold.PLP.Fitness>
52.6246

> <Gold.PLP.PLP>
-47.6082

> <Gold.PLP.part.hbond>
-3.5791

> <Gold.PLP.part.metal>
0.0000

> <Gold.PLP.part.buried>
0.2757

> <Gold.PLP.part.nonpolar>
-45.3610

> <Gold.PLP.part.repulsive>
2.2788

> <Gold.PLP.ligand.clash>
1.3850

> <Gold.PLP.ligand.torsion>
1.2639

> <Gold.PLP.Chemscore.Hbond>
2.4875

> <Gold.PLP.Chemscore.CHOScore>
0.0157

> <Gold.PLP.Chemscore.Metal>
0.0000

> <Gold.Chemscore.Hbonds>
donor molecule, donor type, donor heavy atom, donor atom, acceptor molecule, acceptor atom, score
      L1  H    16    38       P1  7948  1.00
      P1  H  7989  7998       L1     8  0.49
      P1  H  7997  8010       L1     6  1.00
      L1  C    12    35       P1  8028  0.02

> <Gold.PLP.Chemscore.Internal.Correction>
1.4197

> <Gold.Rescore>
     Score         DG    S(hbond)    S(metal)    S(lipo)     H(rot)  DE(clash)    DE(int)     intcor
     13.97     -18.48       1.64        0.00     113.14       2.24       0.74       3.76       ----

> <Gold.Chemscore.Fitness>
13.9725

> <Gold.Chemscore.DG>
-18.4780

> <Gold.Chemscore.ZeroCoef>
-5.4800

> <Gold.Chemscore.Hbond>
1.6442

> <Gold.Chemscore.Metal>
0.0000

> <Gold.Chemscore.Lipo>
113.1404

> <Gold.Chemscore.Internal_Hbond>
0.0000

> <Gold.Chemscore.DEClash>
0.7428

> <Gold.Chemscore.DEInternal>
3.7627

> <Gold.Chemscore.Rot>
2.2387

> <Gold.Chemscore.Internal.Correction>
   9.000000E+99

> <Gold.Chemscore.Hbonds>
donor molecule, donor type, donor heavy atom, donor atom, acceptor molecule, acceptor atom, score
      L1  H    16    38       P1  7948  0.96
      P1  H  7989  7998       L1     8  0.01
      P1  H  7997  8010       L1     6  0.38

> <Gold.Chemscore.Hbond.Weighted>
-5.4917

> <Gold.Chemscore.Metal.Weighted>
-0.0000

> <Gold.Chemscore.Lipo.Weighted>
-13.2374

> <Gold.Chemscore.Internal_Hbond.Weighted>
0.0000

> <Gold.Chemscore.DEClash.Weighted>
0.7428

> <Gold.Chemscore.DEInternal.Weighted>
3.7627

> <Gold.Chemscore.Rot.Weighted>
5.7311

> <Gold.Chemscore.Internal.Correction.Weighted>
   9.000000E+99

> <Gold.Protein.RotatedTorsions>
[ 6907 6896 6895 6894 ] final  -27.85 input  -60.11 | X-H torsion
[ 7974 7965 7964 7962 ] final -150.94 input  175.53 | X-H torsion
[ 8008 7997 7996 7995 ] final   66.19 input   59.86 | X-H torsion
[ 10167 10162 10161 10158 ] final   98.51 input  -65.29 | X-H torsion
[ 10718 10713 10712 10709 ] final  108.05 input   66.30 | X-H torsion
[ 10763 10752 10751 10750 ] final -162.97 input  -60.55 | X-H torsion
[ 11005 11000 10999 10996 ] final   69.75 input  -57.11 | X-H torsion

> <Gold.Protein.ActiveResidues>
 VAL166  LYS551  ARG553  GLY616  TRP617  ASP618  TYR619  PRO620  LYS621  CYS622 
 ASP623  PHE694  ASN695  SER759  ASP760  ASP761  ALA762  ILE779  LEU786  VAL792 
 PHE793  MET794  SER795  GLU796  ALA797  LYS798  CYS799  TRP800  GLU811  SER814 

> <Gold.Protein.RotatedAtoms>
  151.1412  135.0180  159.8626 H   0  0  0  0  0  0  0  0  0  0  0  0  # atno 6907 bound_to 6896
  152.5452  134.1497  159.8523 H   0  0  0  0  0  0  0  0  0  0  0  0  # atno 6908 bound_to 6896
  151.1573  133.4822  159.2627 H   0  0  0  0  0  0  0  0  0  0  0  0  # atno 6909 bound_to 6896
  144.7878  140.4864  143.5794 H   0  0  0  0  0  0  0  0  0  0  0  0  # atno 7974 bound_to 7965
  155.6734  140.3497  155.4827 H   0  0  0  0  0  0  0  0  0  0  0  0  # atno 8008 bound_to 7997
  155.9668  140.1148  157.0870 H   0  0  0  0  0  0  0  0  0  0  0  0  # atno 8009 bound_to 7997
  154.4156  140.1165  156.5239 H   0  0  0  0  0  0  0  0  0  0  0  0  # atno 8010 bound_to 7997
  139.7702  144.6925  151.0167 H   0  0  0  0  0  0  0  0  0  0  0  0  # atno 10167 bound_to 10162
  157.6602  131.0885  150.6248 H   0  0  0  0  0  0  0  0  0  0  0  0  # atno 10718 bound_to 10713
  154.7166  135.3017  154.9114 H   0  0  0  0  0  0  0  0  0  0  0  0  # atno 10763 bound_to 10752
  153.9999  135.6708  153.4762 H   0  0  0  0  0  0  0  0  0  0  0  0  # atno 10764 bound_to 10752
  153.0798  135.5015  154.8396 H   0  0  0  0  0  0  0  0  0  0  0  0  # atno 10765 bound_to 10752
  139.9636  134.7019  156.0593 H   0  0  0  0  0  0  0  0  0  0  0  0  # atno 11005 bound_to 11000
  145.5874  139.1493  143.3201 LP  0  0  0  0  0  0  0  0  0  0  0  0  # atno 17320 bound_to 7965
  146.2118  140.6002  142.9056 LP  0  0  0  0  0  0  0  0  0  0  0  0  # atno 17321 bound_to 7965
  140.7813  143.4597  151.0295 LP  0  0  0  0  0  0  0  0  0  0  0  0  # atno 17342 bound_to 10162
  139.8281  143.7728  152.3179 LP  0  0  0  0  0  0  0  0  0  0  0  0  # atno 17343 bound_to 10162
  156.6551  130.4496  149.5706 LP  0  0  0  0  0  0  0  0  0  0  0  0  # atno 17370 bound_to 10713
  156.2108  130.6678  151.1268 LP  0  0  0  0  0  0  0  0  0  0  0  0  # atno 17371 bound_to 10713
  141.1315  133.6585  156.3477 LP  0  0  0  0  0  0  0  0  0  0  0  0  # atno 17394 bound_to 11000
  140.5445  134.6087  157.5390 LP  0  0  0  0  0  0  0  0  0  0  0  0  # atno 17395 bound_to 11000

$$$$
