AV-unprocessed.smi:39|AV-procd|sdf|353|dock2
  -GOLD-   2262016193D 1   1.00000     0.00000
 Structure written by MMmdl.
 32 33  0  0  0  0  0  0  0  0  3 V2000
  152.3466  144.4112  160.7933 C   0  0  0  0  0  0  0  0  0  0  0  0
  151.8359  143.5253  159.6691 C   0  0  0  0  0  0  0  0  0  0  0  0
  152.1821  142.2169  159.5581 C   0  0  0  0  0  0  0  0  0  0  0  0
  151.7324  141.3845  158.5422 N   0  0  0  0  0  0  0  0  0  0  0  0
  152.1555  139.9370  158.4534 C   0  0  1  0  0  0  0  0  0  0  0  0
  150.9389  139.0162  158.4361 C   0  0  0  0  0  0  0  0  0  0  0  0
  151.4760  137.8582  157.6194 C   0  0  1  0  0  0  0  0  0  0  0  0
  150.4248  137.0094  157.0502 N   0  0  0  0  0  0  0  0  0  0  0  0
  149.8637  136.2258  157.8273 N   0  3  0  0  0  0  0  0  0  0  0  0
  149.2917  135.6075  158.5926 N   0  5  0  0  0  0  0  0  0  0  0  0
  152.3506  138.5775  156.5751 C   0  0  1  0  0  0  0  0  0  0  0  0
  151.6320  139.0662  155.2988 C   0  0  0  0  0  0  0  0  0  0  0  0
  152.5571  139.5702  154.3578 O   0  0  0  0  0  0  0  0  0  0  0  0
  152.8579  139.7242  157.2629 O   0  0  0  0  0  0  0  0  0  0  0  0
  150.8921  141.9105  157.5397 C   0  0  0  0  0  0  0  0  0  0  0  0
  150.4839  141.2419  156.5906 O   0  0  0  0  0  0  0  0  0  0  0  0
  150.5318  143.2520  157.6552 N   0  0  0  0  0  0  0  0  0  0  0  0
  150.9430  144.1195  158.6701 C   0  0  0  0  0  0  0  0  0  0  0  0
  150.5527  145.2859  158.6673 O   0  0  0  0  0  0  0  0  0  0  0  0
  152.8386  139.7417  159.2824 H   0  0  0  0  0  0  0  0  0  0  0  0
  152.1385  137.2664  158.2554 H   0  0  0  0  0  0  0  0  0  0  0  0
  153.1987  137.9520  156.2935 H   0  0  0  0  0  0  0  0  0  0  0  0
  149.9256  143.6311  156.9424 H   0  0  0  0  0  0  0  0  0  0  0  0
  152.9949  143.8637  161.4780 H   0  0  0  0  0  0  0  0  0  0  0  0
  151.5137  144.8130  161.3715 H   0  0  0  0  0  0  0  0  0  0  0  0
  152.9179  145.2478  160.3892 H   0  0  0  0  0  0  0  0  0  0  0  0
  152.8488  141.8112  160.3028 H   0  0  0  0  0  0  0  0  0  0  0  0
  150.6344  138.7447  159.4474 H   0  0  0  0  0  0  0  0  0  0  0  0
  150.1069  139.5067  157.9279 H   0  0  0  0  0  0  0  0  0  0  0  0
  151.0292  138.2778  154.8479 H   0  0  0  0  0  0  0  0  0  0  0  0
  150.9542  139.8833  155.5470 H   0  0  0  0  0  0  0  0  0  0  0  0
  152.7793  138.8780  153.7541 H   0  0  0  0  0  0  0  0  0  0  0  0
  1  2  1  0  0  0  0
  1 24  1  0  0  0  0
  1 25  1  0  0  0  0
  1 26  1  0  0  0  0
  2 18  1  0  0  0  0
  2  3  2  0  0  0  0
  3  4  1  0  0  0  0
  3 27  1  0  0  0  0
  4  5  1  0  0  0  0
  4 15  1  0  0  0  0
  5 20  1  0  0  0  0
  5 14  1  0  0  0  0
  5  6  1  0  0  0  0
  6  7  1  0  0  0  0
  6 28  1  0  0  0  0
  6 29  1  0  0  0  0
  7 21  1  0  0  0  0
  7  8  1  0  0  0  0
  7 11  1  0  0  0  0
  8  9  2  0  0  0  0
  9 10  2  0  0  0  0
 11 22  1  0  0  0  0
 11 12  1  0  0  0  0
 11 14  1  0  0  0  0
 12 13  1  0  0  0  0
 12 30  1  0  0  0  0
 12 31  1  0  0  0  0
 13 32  1  0  0  0  0
 15 16  2  0  0  0  0
 15 17  1  0  0  0  0
 17 23  1  0  0  0  0
 17 18  1  0  0  0  0
 18 19  2  0  0  0  0
M  CHG  1   9   1
M  CHG  1  10  -1
M  END
> <s_m_source_file>
AV-unprocessed.smi

> <i_m_source_file_index>
39

> <i_lp_mmshare_version>
43012

> <i_f3d_flags>
0

> <s_epik_input>
Tz1jMVtuSF1jKD1PKW4oW2NIXWMxW0NIM10pW0NASF0yW0NIMl1bQ0BIXShOPVtOK109W04tXSlbQ0BIXShPMilbQ0gyXVtPSF0=

> <s_epik_cmdline>
J2VwaWtfcHl0aG9uJywgJy1waCcsICc3LjAnLCAnLXRuJywgJzgnLCAnLW1hJywgJzIwMCcsICctbWV0YWxfYmluZGluZycsICctaW1hZScsICc8aW5maWxlLm1hZT4nLCAnLW9tYWUnLCAnPG91dGZpbGUubWFlPic=

> <r_lp_tautomer_probability>
0.999537

> <r_epik_Ionization_Penalty>
0.00127512

> <r_epik_Ionization_Penalty_Charging>
0.00127507

> <r_epik_Ionization_Penalty_Neutral>
5.43433e-08

> <r_epik_State_Penalty>
0.000844892

> <r_epik_Charging_Adjusted_Penalty>
0.00211996

> <i_epik_Tot_Q>
0

> <i_epik_Tot_abs_Q>
2

> <r_epik_Metal_State_Penalty>
0.680636

> <b_epik_Metal_Only>
0

> <s_epik_Chemistry_Notes>
This compound contains an acetal/aminal-like group ( X-CH(R)-Y where X, Y are N, S, or O) that may be acid/base labile, releasing an aldehyde.

> <s_lp_Force_Field>
OPLS_2005

> <r_lp_Energy>
27.4259

> <b_lp_Chiralities_Consistent>
1

> <s_lp_Variant>
AV-unprocessed.smi:39-3

> <Gold.Version>
5.8.1

> <Gold.Id.Protein>
6NUR|6NUR_protein|mol2

> <Gold.PLP.Fitness>
41.2499

> <Gold.PLP.PLP>
-30.7164

> <Gold.PLP.part.hbond>
-6.0099

> <Gold.PLP.part.metal>
0.0000

> <Gold.PLP.part.buried>
-3.7246

> <Gold.PLP.part.nonpolar>
-21.0809

> <Gold.PLP.part.repulsive>
0.6712

> <Gold.PLP.ligand.clash>
0.0000

> <Gold.PLP.ligand.torsion>
0.2283

> <Gold.PLP.Chemscore.Hbond>
3.6580

> <Gold.PLP.Chemscore.CHOScore>
0.0000

> <Gold.PLP.Chemscore.Metal>
0.0000

> <Gold.Chemscore.Hbonds>
donor molecule, donor type, donor heavy atom, donor atom, acceptor molecule, acceptor atom, score
      L1  H    17    23       P1  8028  1.00
      P1  H  6896  6909       L1    10  1.00
      P1  H  7989  7998       L1    13  0.53
      P1  H  7997  8008       L1    14  0.34

> <Gold.PLP.Chemscore.Internal.Correction>
0.0161

> <Gold.Rescore>
     Score         DG    S(hbond)    S(metal)    S(lipo)     H(rot)  DE(clash)    DE(int)     intcor
      8.94     -13.10       2.50        0.00      54.07       2.75       0.02       4.13       ----

> <Gold.Chemscore.Fitness>
8.9414

> <Gold.Chemscore.DG>
-13.0964

> <Gold.Chemscore.ZeroCoef>
-5.4800

> <Gold.Chemscore.Hbond>
2.4958

> <Gold.Chemscore.Metal>
0.0000

> <Gold.Chemscore.Lipo>
54.0732

> <Gold.Chemscore.Internal_Hbond>
0.0000

> <Gold.Chemscore.DEClash>
0.0236

> <Gold.Chemscore.DEInternal>
4.1314

> <Gold.Chemscore.Rot>
2.7524

> <Gold.Chemscore.Internal.Correction>
   9.000000E+99

> <Gold.Chemscore.Hbonds>
donor molecule, donor type, donor heavy atom, donor atom, acceptor molecule, acceptor atom, score
      L1  H    17    23       P1  8028  0.97
      P1  H  6896  6909       L1    10  0.49
      P1  H  7989  7998       L1    13  0.20
      P1  H  7997  8008       L1    14  0.28

> <Gold.Chemscore.Hbond.Weighted>
-8.3360

> <Gold.Chemscore.Metal.Weighted>
-0.0000

> <Gold.Chemscore.Lipo.Weighted>
-6.3266

> <Gold.Chemscore.Internal_Hbond.Weighted>
0.0000

> <Gold.Chemscore.DEClash.Weighted>
0.0236

> <Gold.Chemscore.DEInternal.Weighted>
4.1314

> <Gold.Chemscore.Rot.Weighted>
7.0461

> <Gold.Chemscore.Internal.Correction.Weighted>
   9.000000E+99

> <Gold.Protein.RotatedTorsions>
[ 6907 6896 6895 6894 ] final   48.06 input  -60.11 | X-H torsion
[ 7974 7965 7964 7962 ] final  137.50 input  175.53 | X-H torsion
[ 8008 7997 7996 7995 ] final -108.98 input   59.86 | X-H torsion
[ 10167 10162 10161 10158 ] final   78.63 input  -65.29 | X-H torsion
[ 10718 10713 10712 10709 ] final -125.42 input   66.30 | X-H torsion
[ 10763 10752 10751 10750 ] final  -69.94 input  -60.55 | X-H torsion
[ 11005 11000 10999 10996 ] final  -61.41 input  -57.11 | X-H torsion

> <Gold.Protein.ActiveResidues>
 VAL166  LYS551  ARG553  GLY616  TRP617  ASP618  TYR619  PRO620  LYS621  CYS622 
 ASP623  PHE694  ASN695  SER759  ASP760  ASP761  ALA762  ILE779  LEU786  VAL792 
 PHE793  MET794  SER795  GLU796  ALA797  LYS798  CYS799  TRP800  GLU811  SER814 

> <Gold.Protein.RotatedAtoms>
  152.2752  134.7889  160.0406 H   0  0  0  0  0  0  0  0  0  0  0  0  # atno 6907 bound_to 6896
  151.8488  133.3431  159.3674 H   0  0  0  0  0  0  0  0  0  0  0  0  # atno 6908 bound_to 6896
  150.7167  134.5247  159.5715 H   0  0  0  0  0  0  0  0  0  0  0  0  # atno 6909 bound_to 6896
  144.9462  139.4872  143.5548 H   0  0  0  0  0  0  0  0  0  0  0  0  # atno 7974 bound_to 7965
  154.9524  140.0400  157.2150 H   0  0  0  0  0  0  0  0  0  0  0  0  # atno 8008 bound_to 7997
  154.7966  140.2844  155.5930 H   0  0  0  0  0  0  0  0  0  0  0  0  # atno 8009 bound_to 7997
  156.2956  140.2563  156.2825 H   0  0  0  0  0  0  0  0  0  0  0  0  # atno 8010 bound_to 7997
  139.9689  144.5908  150.8003 H   0  0  0  0  0  0  0  0  0  0  0  0  # atno 10167 bound_to 10162
  156.1674  130.6644  151.0133 H   0  0  0  0  0  0  0  0  0  0  0  0  # atno 10718 bound_to 10713
  154.4105  135.6010  153.5950 H   0  0  0  0  0  0  0  0  0  0  0  0  # atno 10763 bound_to 10752
  152.9790  135.5928  154.4075 H   0  0  0  0  0  0  0  0  0  0  0  0  # atno 10764 bound_to 10752
  154.3887  135.2842  155.2146 H   0  0  0  0  0  0  0  0  0  0  0  0  # atno 10765 bound_to 10752
  141.1323  133.6630  156.5371 H   0  0  0  0  0  0  0  0  0  0  0  0  # atno 11005 bound_to 11000
  146.3304  139.8516  142.8872 LP  0  0  0  0  0  0  0  0  0  0  0  0  # atno 17320 bound_to 7965
  145.2914  141.0168  143.3661 LP  0  0  0  0  0  0  0  0  0  0  0  0  # atno 17321 bound_to 7965
  140.7528  143.2997  151.3111 LP  0  0  0  0  0  0  0  0  0  0  0  0  # atno 17342 bound_to 10162
  139.6496  144.0387  152.2616 LP  0  0  0  0  0  0  0  0  0  0  0  0  # atno 17343 bound_to 10162
  157.6777  131.0846  150.7450 LP  0  0  0  0  0  0  0  0  0  0  0  0  # atno 17370 bound_to 10713
  156.7511  130.4769  149.5456 LP  0  0  0  0  0  0  0  0  0  0  0  0  # atno 17371 bound_to 10713
  140.4169  134.7222  157.4868 LP  0  0  0  0  0  0  0  0  0  0  0  0  # atno 17394 bound_to 11000
  140.0387  134.6299  155.9009 LP  0  0  0  0  0  0  0  0  0  0  0  0  # atno 17395 bound_to 11000

$$$$
