AV-unprocessed.smi:12|AV-procd|sdf|66|dock6
  -GOLD-   2262015183D 1   1.00000     0.00000
 Structure written by MMmdl.
 41 44  0  0  0  0  0  0  0  0  1 V2000
  145.7497  141.8445  155.4429 C   0  0  0  0  0  0  0  0  0  0  0  0
  147.0822  141.2210  155.0682 C   0  0  0  0  0  0  0  0  0  0  0  0
  147.4848  140.0369  155.5869 C   0  0  0  0  0  0  0  0  0  0  0  0
  148.6958  139.5208  155.2191 N   0  0  0  0  0  0  0  0  0  0  0  0
  149.5026  140.2174  154.2937 C   0  0  0  0  0  0  0  0  0  0  0  0
  149.1886  141.3539  153.7540 N   0  0  0  0  0  0  0  0  0  0  0  0
  147.9579  141.9396  154.1085 C   0  0  0  0  0  0  0  0  0  0  0  0
  147.6203  143.0208  153.6284 O   0  0  0  0  0  0  0  0  0  0  0  0
  150.6332  139.4952  154.0609 O   0  0  0  0  0  0  0  0  0  0  0  0
  150.5994  138.2805  154.8225 C   0  0  1  0  0  0  0  0  0  0  0  0
  151.7022  138.2597  155.8772 C   0  0  2  0  0  0  0  0  0  0  0  0
  152.7047  137.3235  155.5356 O   0  0  0  0  0  0  0  0  0  0  0  0
  150.9676  137.8472  157.1566 C   0  0  1  0  0  0  0  0  0  0  0  0
  151.6035  138.3700  158.4506 C   0  0  0  0  0  0  0  0  0  0  0  0
  151.7054  139.7832  158.3854 O   0  0  0  0  0  0  0  0  0  0  0  0
  152.7771  140.4094  158.9082 C   0  0  0  0  0  0  0  0  0  0  0  0
  153.8887  139.8870  159.0131 O   0  0  0  0  0  0  0  0  0  0  0  0
  152.4775  141.8041  159.3439 C   0  0  0  0  0  0  0  0  0  0  0  0
  152.0500  142.7532  158.3859 C   0  0  0  0  0  0  0  0  0  0  0  0
  151.7556  144.0763  158.7686 C   0  0  0  0  0  0  0  0  0  0  0  0
  151.8860  144.4671  160.1140 C   0  0  0  0  0  0  0  0  0  0  0  0
  152.3132  143.5334  161.0762 C   0  0  0  0  0  0  0  0  0  0  0  0
  152.6074  142.2095  160.6954 C   0  0  0  0  0  0  0  0  0  0  0  0
  149.6752  138.4085  156.9945 O   0  0  0  0  0  0  0  0  0  0  0  0
  149.3068  138.2682  155.6607 C   0  0  1  0  0  0  0  0  0  0  0  0
  145.2075  141.2221  156.1556 H   0  0  0  0  0  0  0  0  0  0  0  0
  145.1238  141.9677  154.5585 H   0  0  0  0  0  0  0  0  0  0  0  0
  145.9007  142.8239  155.8976 H   0  0  0  0  0  0  0  0  0  0  0  0
  146.8663  139.4973  156.2893 H   0  0  0  0  0  0  0  0  0  0  0  0
  150.6088  137.4045  154.1720 H   0  0  0  0  0  0  0  0  0  0  0  0
  152.1375  139.2538  155.9905 H   0  0  0  0  0  0  0  0  0  0  0  0
  153.5453  137.6850  155.7727 H   0  0  0  0  0  0  0  0  0  0  0  0
  150.8510  136.7623  157.2006 H   0  0  0  0  0  0  0  0  0  0  0  0
  151.0121  138.0705  159.3170 H   0  0  0  0  0  0  0  0  0  0  0  0
  152.6002  137.9428  158.5699 H   0  0  0  0  0  0  0  0  0  0  0  0
  151.9415  142.4764  157.3470 H   0  0  0  0  0  0  0  0  0  0  0  0
  151.4286  144.7917  158.0282 H   0  0  0  0  0  0  0  0  0  0  0  0
  151.6591  145.4816  160.4075 H   0  0  0  0  0  0  0  0  0  0  0  0
  152.4150  143.8323  162.1091 H   0  0  0  0  0  0  0  0  0  0  0  0
  152.9324  141.5188  161.4597 H   0  0  0  0  0  0  0  0  0  0  0  0
  148.5982  137.4686  155.4421 H   0  0  0  0  0  0  0  0  0  0  0  0
  1  2  1  0  0  0  0
  1 26  1  0  0  0  0
  1 27  1  0  0  0  0
  1 28  1  0  0  0  0
  2  7  1  0  0  0  0
  2  3  2  0  0  0  0
  3  4  1  0  0  0  0
  3 29  1  0  0  0  0
  4 25  1  0  0  0  0
  4  5  1  0  0  0  0
  5  6  2  0  0  0  0
  5  9  1  0  0  0  0
  6  7  1  0  0  0  0
  7  8  2  0  0  0  0
  9 10  1  0  0  0  0
 10 25  1  0  0  0  0
 10 11  1  0  0  0  0
 10 30  1  0  0  0  0
 11 12  1  0  0  0  0
 11 13  1  0  0  0  0
 11 31  1  0  0  0  0
 12 32  1  0  0  0  0
 13 14  1  0  0  0  0
 13 24  1  0  0  0  0
 13 33  1  0  0  0  0
 14 15  1  0  0  0  0
 14 34  1  0  0  0  0
 14 35  1  0  0  0  0
 15 16  1  0  0  0  0
 16 17  2  0  0  0  0
 16 18  1  0  0  0  0
 18 23  1  0  0  0  0
 18 19  2  0  0  0  0
 19 20  1  0  0  0  0
 19 36  1  0  0  0  0
 20 21  2  0  0  0  0
 20 37  1  0  0  0  0
 21 22  1  0  0  0  0
 21 38  1  0  0  0  0
 22 23  2  0  0  0  0
 22 39  1  0  0  0  0
 23 40  1  0  0  0  0
 24 25  1  0  0  0  0
 25 41  1  0  0  0  0
M  END
> <s_m_source_file>
AV-unprocessed.smi

> <i_m_source_file_index>
12

> <i_lp_mmshare_version>
43012

> <i_f3d_flags>
0

> <s_epik_input>
W0NIM11jKFtjSF0xKWMoPU8pbmMobjEyKU9bQ0BIXTNbQ0BASF0yT1tDQEBIXShbQ0BASF0zW09IXSlbQ0gyXU9DKD1PKWM0W2NIXVtjSF1bY0hdW2NIXVtjSF00

> <s_epik_cmdline>
J2VwaWtfcHl0aG9uJywgJy1waCcsICc3LjAnLCAnLXRuJywgJzgnLCAnLW1hJywgJzIwMCcsICctbWV0YWxfYmluZGluZycsICctaW1hZScsICc8aW5maWxlLm1hZT4nLCAnLW9tYWUnLCAnPG91dGZpbGUubWFlPic=

> <r_lp_tautomer_probability>
0.933681

> <r_epik_Ionization_Penalty>
0.00399549

> <r_epik_Ionization_Penalty_Charging>
3.09373e-09

> <r_epik_Ionization_Penalty_Neutral>
0.00399549

> <r_epik_State_Penalty>
0.00284953

> <r_epik_Charging_Adjusted_Penalty>
0.00284953

> <i_epik_Tot_Q>
0

> <i_epik_Tot_abs_Q>
0

> <r_epik_Metal_State_Penalty>
-0

> <b_epik_Metal_Only>
0

> <s_epik_Chemistry_Notes>
This compound has an ester and may undergo hydrolysis at high or low pH. This compound contains an acetal/aminal-like group ( X-CH(R)-Y where X, Y are N, S, or O) that may be acid/base labile, releasing an aldehyde.

> <s_lp_Force_Field>
OPLS_2005

> <r_lp_Energy>
41.0284

> <b_lp_Chiralities_Consistent>
1

> <s_lp_Variant>
AV-unprocessed.smi:12-6

> <Gold.Version>
5.8.1

> <Gold.Id.Protein>
6NUR|6NUR_protein|mol2

> <Gold.PLP.Fitness>
47.4339

> <Gold.PLP.PLP>
-39.5220

> <Gold.PLP.part.hbond>
-7.0000

> <Gold.PLP.part.metal>
0.0000

> <Gold.PLP.part.buried>
-2.1728

> <Gold.PLP.part.nonpolar>
-32.7425

> <Gold.PLP.part.repulsive>
3.2728

> <Gold.PLP.ligand.clash>
0.0000

> <Gold.PLP.ligand.torsion>
1.7907

> <Gold.PLP.Chemscore.Hbond>
3.8284

> <Gold.PLP.Chemscore.CHOScore>
0.0000

> <Gold.PLP.Chemscore.Metal>
0.0000

> <Gold.Chemscore.Hbonds>
donor molecule, donor type, donor heavy atom, donor atom, acceptor molecule, acceptor atom, score
      P1  H  7989  7998       L1     9  0.85
      P1  H  7997  8010       L1    17  1.00
      P1  H  8011  8017       L1     6  0.83
      P1  H  8022  8030       L1     8  0.56
      P1  H 10752 10765       L1    12  0.58

> <Gold.PLP.Chemscore.Internal.Correction>
0.0080

> <Gold.Rescore>
     Score         DG    S(hbond)    S(metal)    S(lipo)     H(rot)  DE(clash)    DE(int)     intcor
     17.10     -20.35       2.83        0.00      93.87       2.18       1.76       1.49       ----

> <Gold.Chemscore.Fitness>
17.0989

> <Gold.Chemscore.DG>
-20.3468

> <Gold.Chemscore.ZeroCoef>
-5.4800

> <Gold.Chemscore.Hbond>
2.8339

> <Gold.Chemscore.Metal>
0.0000

> <Gold.Chemscore.Lipo>
93.8675

> <Gold.Chemscore.Internal_Hbond>
0.0000

> <Gold.Chemscore.DEClash>
1.7614

> <Gold.Chemscore.DEInternal>
1.4865

> <Gold.Chemscore.Rot>
2.1800

> <Gold.Chemscore.Internal.Correction>
   9.000000E+99

> <Gold.Chemscore.Hbonds>
donor molecule, donor type, donor heavy atom, donor atom, acceptor molecule, acceptor atom, score
      P1  H  7989  7998       L1     9  0.15
      P1  H  7997  8010       L1    17  0.60
      P1  H  8011  8017       L1     6  0.37
      P1  H  8022  8030       L1     8  0.55
      P1  H 10752 10765       L1    12  0.29

> <Gold.Chemscore.Hbond.Weighted>
-9.4651

> <Gold.Chemscore.Metal.Weighted>
-0.0000

> <Gold.Chemscore.Lipo.Weighted>
-10.9825

> <Gold.Chemscore.Internal_Hbond.Weighted>
0.0000

> <Gold.Chemscore.DEClash.Weighted>
1.7614

> <Gold.Chemscore.DEInternal.Weighted>
1.4865

> <Gold.Chemscore.Rot.Weighted>
5.5807

> <Gold.Chemscore.Internal.Correction.Weighted>
   9.000000E+99

> <Gold.Protein.RotatedTorsions>
[ 6907 6896 6895 6894 ] final -146.26 input  -60.11 | X-H torsion
[ 7974 7965 7964 7962 ] final  -56.26 input  175.53 | X-H torsion
[ 8008 7997 7996 7995 ] final   17.30 input   59.86 | X-H torsion
[ 10167 10162 10161 10158 ] final -151.62 input  -65.29 | X-H torsion
[ 10718 10713 10712 10709 ] final -135.50 input   66.30 | X-H torsion
[ 10763 10752 10751 10750 ] final -158.56 input  -60.55 | X-H torsion
[ 11005 11000 10999 10996 ] final    1.77 input  -57.11 | X-H torsion

> <Gold.Protein.ActiveResidues>
 VAL166  LYS551  ARG553  GLY616  TRP617  ASP618  TYR619  PRO620  LYS621  CYS622 
 ASP623  PHE694  ASN695  SER759  ASP760  ASP761  ALA762  ILE779  LEU786  VAL792 
 PHE793  MET794  SER795  GLU796  ALA797  LYS798  CYS799  TRP800  GLU811  SER814 

> <Gold.Protein.RotatedAtoms>
  151.1392  133.4983  159.2597 H   0  0  0  0  0  0  0  0  0  0  0  0  # atno 6907 bound_to 6896
  151.1673  135.0301  159.8746 H   0  0  0  0  0  0  0  0  0  0  0  0  # atno 6908 bound_to 6896
  152.5462  134.1259  159.8472 H   0  0  0  0  0  0  0  0  0  0  0  0  # atno 6909 bound_to 6896
  145.8648  140.8259  142.9918 H   0  0  0  0  0  0  0  0  0  0  0  0  # atno 7974 bound_to 7965
  154.8894  140.2984  155.5379 H   0  0  0  0  0  0  0  0  0  0  0  0  # atno 8008 bound_to 7997
  156.3021  140.2427  156.3842 H   0  0  0  0  0  0  0  0  0  0  0  0  # atno 8009 bound_to 7997
  154.8634  140.0404  157.1668 H   0  0  0  0  0  0  0  0  0  0  0  0  # atno 8010 bound_to 7997
  139.7252  143.8894  152.2517 H   0  0  0  0  0  0  0  0  0  0  0  0  # atno 10167 bound_to 10162
  156.2668  130.7242  151.1195 H   0  0  0  0  0  0  0  0  0  0  0  0  # atno 10718 bound_to 10713
  154.7546  135.3101  154.8493 H   0  0  0  0  0  0  0  0  0  0  0  0  # atno 10763 bound_to 10752
  153.9271  135.6789  153.4750 H   0  0  0  0  0  0  0  0  0  0  0  0  # atno 10764 bound_to 10752
  153.1143  135.4852  154.9018 H   0  0  0  0  0  0  0  0  0  0  0  0  # atno 10765 bound_to 10752
  140.6117  133.9742  155.8181 H   0  0  0  0  0  0  0  0  0  0  0  0  # atno 11005 bound_to 11000
  144.6726  140.1149  143.7453 LP  0  0  0  0  0  0  0  0  0  0  0  0  # atno 17320 bound_to 7965
  145.9206  139.2543  143.1383 LP  0  0  0  0  0  0  0  0  0  0  0  0  # atno 17321 bound_to 7965
  139.8802  144.7022  150.8887 LP  0  0  0  0  0  0  0  0  0  0  0  0  # atno 17342 bound_to 10162
  140.7761  143.3667  151.1725 LP  0  0  0  0  0  0  0  0  0  0  0  0  # atno 17343 bound_to 10162
  157.7270  131.0642  150.5885 LP  0  0  0  0  0  0  0  0  0  0  0  0  # atno 17370 bound_to 10713
  156.5977  130.4346  149.5910 LP  0  0  0  0  0  0  0  0  0  0  0  0  # atno 17371 bound_to 10713
  141.0803  134.0072  157.3396 LP  0  0  0  0  0  0  0  0  0  0  0  0  # atno 17394 bound_to 11000
  139.9189  135.0199  156.7990 LP  0  0  0  0  0  0  0  0  0  0  0  0  # atno 17395 bound_to 11000

$$$$
