AV-unprocessed.smi:781|AV-procd|sdf|3712|dock3
  -GOLD-   22720 1133D 1   1.00000     0.00000
 Structure written by MMmdl.
 38 40  0  0  0  0  0  0  0  0  1 V2000
  146.6521  134.1446  162.5354 C   0  0  0  0  0  0  0  0  0  0  0  0
  147.1340  135.1381  161.5345 C   0  0  0  0  0  0  0  0  0  0  0  0
  147.6148  135.0171  160.2611 C   0  0  0  0  0  0  0  0  0  0  0  0
  147.8844  136.3620  159.8923 C   0  0  0  0  0  0  0  0  0  0  0  0
  148.4081  136.6739  158.6122 N   0  0  0  0  0  0  0  0  0  0  0  0
  149.6906  136.9089  158.2870 C   0  0  0  0  0  0  0  0  0  0  0  0
  150.6397  136.8784  159.0711 O   0  0  0  0  0  0  0  0  0  0  0  0
  149.8184  137.1813  156.9810 N   0  0  0  0  0  0  0  0  0  0  0  0
  151.0814  137.4837  156.3120 C   0  0  1  0  0  0  0  0  0  0  0  0
  150.9089  137.9391  154.8405 C   0  0  1  0  0  0  0  0  0  0  0  0
  149.8765  139.0804  154.7190 C   0  0  0  0  0  0  0  0  0  0  0  0
  150.6064  140.2652  155.3787 C   0  0  0  0  0  0  0  0  0  0  0  0
  151.9699  139.6561  155.7608 C   0  0  2  0  0  0  0  0  0  0  0  0
  152.2090  138.6959  154.6013 C   0  0  0  0  0  0  0  0  0  0  0  0
  151.7882  138.7018  156.9639 C   0  0  2  0  0  0  0  0  0  0  0  0
  153.1213  138.3421  157.6479 C   0  0  0  0  0  0  0  0  0  0  0  0
  153.6644  139.4805  158.2826 O   0  0  0  0  0  0  0  0  0  0  0  0
  147.5935  137.2259  160.8530 N   0  0  0  0  0  0  0  0  0  0  0  0
  147.1104  136.4458  161.9102 O   0  0  0  0  0  0  0  0  0  0  0  0
  147.0238  133.1463  162.3036 H   0  0  0  0  0  0  0  0  0  0  0  0
  145.5629  134.1061  162.5464 H   0  0  0  0  0  0  0  0  0  0  0  0
  146.9919  134.4068  163.5378 H   0  0  0  0  0  0  0  0  0  0  0  0
  147.7504  134.1112  159.6888 H   0  0  0  0  0  0  0  0  0  0  0  0
  147.7333  136.7272  157.8640 H   0  0  0  0  0  0  0  0  0  0  0  0
  148.9873  137.1873  156.4083 H   0  0  0  0  0  0  0  0  0  0  0  0
  151.7305  136.6064  156.3475 H   0  0  0  0  0  0  0  0  0  0  0  0
  150.7284  137.1155  154.1488 H   0  0  0  0  0  0  0  0  0  0  0  0
  149.6727  139.2992  153.6700 H   0  0  0  0  0  0  0  0  0  0  0  0
  148.9207  138.8576  155.1933 H   0  0  0  0  0  0  0  0  0  0  0  0
  150.7311  141.0816  154.6662 H   0  0  0  0  0  0  0  0  0  0  0  0
  150.0683  140.6571  156.2424 H   0  0  0  0  0  0  0  0  0  0  0  0
  152.7484  140.4058  155.9062 H   0  0  0  0  0  0  0  0  0  0  0  0
  153.0990  138.0760  154.7196 H   0  0  0  0  0  0  0  0  0  0  0  0
  152.2499  139.1919  153.6298 H   0  0  0  0  0  0  0  0  0  0  0  0
  151.1481  139.1843  157.7053 H   0  0  0  0  0  0  0  0  0  0  0  0
  152.9935  137.5471  158.3829 H   0  0  0  0  0  0  0  0  0  0  0  0
  153.8410  137.9858  156.9105 H   0  0  0  0  0  0  0  0  0  0  0  0
  152.9574  140.0673  158.5039 H   0  0  0  0  0  0  0  0  0  0  0  0
  1  2  1  0  0  0  0
  1 20  1  0  0  0  0
  1 21  1  0  0  0  0
  1 22  1  0  0  0  0
  2 19  1  0  0  0  0
  2  3  2  0  0  0  0
  3  4  1  0  0  0  0
  3 23  1  0  0  0  0
  4  5  1  0  0  0  0
  4 18  2  0  0  0  0
  5  6  1  0  0  0  0
  5 24  1  0  0  0  0
  6  7  2  0  0  0  0
  6  8  1  0  0  0  0
  8  9  1  0  0  0  0
  8 25  1  0  0  0  0
  9 15  1  0  0  0  0
  9 10  1  0  0  0  0
  9 26  1  0  0  0  0
 10 14  1  0  0  0  0
 10 11  1  0  0  0  0
 10 27  1  0  0  0  0
 11 12  1  0  0  0  0
 11 28  1  0  0  0  0
 11 29  1  0  0  0  0
 12 13  1  0  0  0  0
 12 30  1  0  0  0  0
 12 31  1  0  0  0  0
 13 14  1  0  0  0  0
 13 15  1  0  0  0  0
 13 32  1  0  0  0  0
 14 33  1  0  0  0  0
 14 34  1  0  0  0  0
 15 16  1  0  0  0  0
 15 35  1  0  0  0  0
 16 17  1  0  0  0  0
 16 36  1  0  0  0  0
 16 37  1  0  0  0  0
 17 38  1  0  0  0  0
 18 19  1  0  0  0  0
M  END
> <s_m_source_file>
AV-unprocessed.smi

> <i_m_source_file_index>
781

> <i_lp_mmshare_version>
43012

> <i_f3d_flags>
0

> <s_epik_input>
W0NIM11jMVtjSF1jKG5vMSlbTkhdQyg9TylbTkhdW0NASF0oW0NAQEhdMjMpW0NASF0oW0NIMl1bT0hdKVtDQEBIXShbQ0gyXTMpW0NIMl1bQ0gyXTI=

> <s_epik_cmdline>
J2VwaWtfcHl0aG9uJywgJy1waCcsICc3LjAnLCAnLXRuJywgJzgnLCAnLW1hJywgJzIwMCcsICctbWV0YWxfYmluZGluZycsICctaW1hZScsICc8aW5maWxlLm1hZT4nLCAnLW9tYWUnLCAnPG91dGZpbGUubWFlPic=

> <r_lp_tautomer_probability>
1

> <r_epik_Ionization_Penalty>
2.32222e-05

> <r_epik_Ionization_Penalty_Charging>
0

> <r_epik_Ionization_Penalty_Neutral>
2.32222e-05

> <r_epik_State_Penalty>
-0

> <r_epik_Charging_Adjusted_Penalty>
0

> <i_epik_Tot_Q>
0

> <i_epik_Tot_abs_Q>
0

> <r_epik_Metal_State_Penalty>
-0

> <b_epik_Metal_Only>
0

> <s_lp_Force_Field>
OPLS_2005

> <r_lp_Energy>
46.3898

> <b_lp_Chiralities_Consistent>
1

> <s_lp_Variant>
AV-unprocessed.smi:781-6

> <Gold.Version>
5.8.1

> <Gold.Id.Protein>
6NUR|6NUR_protein|mol2

> <Gold.PLP.Fitness>
42.4339

> <Gold.PLP.PLP>
-32.6599

> <Gold.PLP.part.hbond>
-4.0000

> <Gold.PLP.part.metal>
0.0000

> <Gold.PLP.part.buried>
-3.3087

> <Gold.PLP.part.nonpolar>
-24.8657

> <Gold.PLP.part.repulsive>
0.1476

> <Gold.PLP.ligand.clash>
0.0000

> <Gold.PLP.ligand.torsion>
0.7855

> <Gold.PLP.Chemscore.Hbond>
3.7760

> <Gold.PLP.Chemscore.CHOScore>
0.0000

> <Gold.PLP.Chemscore.Metal>
0.0000

> <Gold.Chemscore.Hbonds>
donor molecule, donor type, donor heavy atom, donor atom, acceptor molecule, acceptor atom, score
      P1  H  6896  6907       L1     7  1.00
      P1  H  6931  6943       L1    18  0.69
      P1  H  6934  6947       L1    18  0.96
      P1  H  7997  8010       L1    17  1.00

> <Gold.PLP.Chemscore.Internal.Correction>
0.0171

> <Gold.Rescore>
     Score         DG    S(hbond)    S(metal)    S(lipo)     H(rot)  DE(clash)    DE(int)     intcor
     19.02     -19.80       3.22        0.00      71.03       1.86       0.04       0.74       ----

> <Gold.Chemscore.Fitness>
19.0204

> <Gold.Chemscore.DG>
-19.8007

> <Gold.Chemscore.ZeroCoef>
-5.4800

> <Gold.Chemscore.Hbond>
3.2241

> <Gold.Chemscore.Metal>
0.0000

> <Gold.Chemscore.Lipo>
71.0293

> <Gold.Chemscore.Internal_Hbond>
0.0000

> <Gold.Chemscore.DEClash>
0.0412

> <Gold.Chemscore.DEInternal>
0.7390

> <Gold.Chemscore.Rot>
1.8587

> <Gold.Chemscore.Internal.Correction>
   9.000000E+99

> <Gold.Chemscore.Hbonds>
donor molecule, donor type, donor heavy atom, donor atom, acceptor molecule, acceptor atom, score
      P1  H  6896  6907       L1     7  0.91
      P1  H  6931  6943       L1    18  0.13
      P1  H  6934  6947       L1    18  0.85
      P1  H  7997  8010       L1    17  0.47

> <Gold.Chemscore.Hbond.Weighted>
-10.7685

> <Gold.Chemscore.Metal.Weighted>
-0.0000

> <Gold.Chemscore.Lipo.Weighted>
-8.3104

> <Gold.Chemscore.Internal_Hbond.Weighted>
0.0000

> <Gold.Chemscore.DEClash.Weighted>
0.0412

> <Gold.Chemscore.DEInternal.Weighted>
0.7390

> <Gold.Chemscore.Rot.Weighted>
4.7583

> <Gold.Chemscore.Internal.Correction.Weighted>
   9.000000E+99

> <Gold.Protein.RotatedTorsions>
[ 6907 6896 6895 6894 ] final  -17.11 input  -60.11 | X-H torsion
[ 7974 7965 7964 7962 ] final   39.84 input  175.53 | X-H torsion
[ 8008 7997 7996 7995 ] final   11.12 input   59.86 | X-H torsion
[ 10167 10162 10161 10158 ] final   62.36 input  -65.29 | X-H torsion
[ 10718 10713 10712 10709 ] final  -14.89 input   66.30 | X-H torsion
[ 10763 10752 10751 10750 ] final   84.06 input  -60.55 | X-H torsion
[ 11005 11000 10999 10996 ] final  119.51 input  -57.11 | X-H torsion

> <Gold.Protein.ActiveResidues>
 VAL166  LYS551  ARG553  GLY616  TRP617  ASP618  TYR619  PRO620  LYS621  CYS622 
 ASP623  PHE694  ASN695  SER759  ASP760  ASP761  ALA762  ILE779  LEU786  VAL792 
 PHE793  MET794  SER795  GLU796  ALA797  LYS798  CYS799  TRP800  GLU811  SER814 

> <Gold.Protein.RotatedAtoms>
  151.2983  135.0761  159.9229 H   0  0  0  0  0  0  0  0  0  0  0  0  # atno 6907 bound_to 6896
  152.5303  133.9860  159.7839 H   0  0  0  0  0  0  0  0  0  0  0  0  # atno 6908 bound_to 6896
  151.0142  133.5885  159.2709 H   0  0  0  0  0  0  0  0  0  0  0  0  # atno 6909 bound_to 6896
  146.0952  139.5604  142.9450 H   0  0  0  0  0  0  0  0  0  0  0  0  # atno 7974 bound_to 7965
  154.8026  140.2854  155.5910 H   0  0  0  0  0  0  0  0  0  0  0  0  # atno 8008 bound_to 7997
  156.2979  140.2583  156.2827 H   0  0  0  0  0  0  0  0  0  0  0  0  # atno 8009 bound_to 7997
  154.9540  140.0379  157.2147 H   0  0  0  0  0  0  0  0  0  0  0  0  # atno 8010 bound_to 7997
  140.1448  144.4519  150.6791 H   0  0  0  0  0  0  0  0  0  0  0  0  # atno 10167 bound_to 10162
  156.6096  130.4846  149.6207 H   0  0  0  0  0  0  0  0  0  0  0  0  # atno 10718 bound_to 10713
  153.1347  135.4668  154.9404 H   0  0  0  0  0  0  0  0  0  0  0  0  # atno 10763 bound_to 10752
  154.7695  135.3155  154.8220 H   0  0  0  0  0  0  0  0  0  0  0  0  # atno 10764 bound_to 10752
  153.8755  135.6899  153.4825 H   0  0  0  0  0  0  0  0  0  0  0  0  # atno 10765 bound_to 10752
  139.9149  134.9629  156.7667 H   0  0  0  0  0  0  0  0  0  0  0  0  # atno 11005 bound_to 11000
  145.5961  141.0362  143.2043 LP  0  0  0  0  0  0  0  0  0  0  0  0  # atno 17320 bound_to 7965
  144.7390  139.7502  143.7318 LP  0  0  0  0  0  0  0  0  0  0  0  0  # atno 17321 bound_to 7965
  140.6738  143.2297  151.5558 LP  0  0  0  0  0  0  0  0  0  0  0  0  # atno 17342 bound_to 10162
  139.5454  144.2535  152.1432 LP  0  0  0  0  0  0  0  0  0  0  0  0  # atno 17343 bound_to 10162
  156.2401  130.6846  151.1547 LP  0  0  0  0  0  0  0  0  0  0  0  0  # atno 17370 bound_to 10713
  157.7258  131.0651  150.5938 LP  0  0  0  0  0  0  0  0  0  0  0  0  # atno 17371 bound_to 10713
  140.6654  133.9607  155.7827 LP  0  0  0  0  0  0  0  0  0  0  0  0  # atno 17394 bound_to 11000
  141.0614  134.0340  157.3652 LP  0  0  0  0  0  0  0  0  0  0  0  0  # atno 17395 bound_to 11000

$$$$
