AV-unprocessed.smi:1892|AV-procd|sdf|7670|dock4
  -GOLD-   22720 9403D 1   1.00000     0.00000
 Structure written by MMmdl.
 43 44  0  0  0  0  0  0  0  0  2 V2000
  150.2688  141.5076  157.6910 C   0  0  0  0  0  0  0  0  0  0  0  0
  150.5269  140.2766  156.8193 C   0  0  0  0  0  0  0  0  0  0  0  0
  151.0333  139.2881  157.3496 O   0  0  0  0  0  0  0  0  0  0  0  0
  150.1970  140.3129  155.5061 N   0  0  0  0  0  0  0  0  0  0  0  0
  149.5375  141.4634  154.8831 C   0  0  0  0  0  0  0  0  0  0  0  0
  148.1109  141.0605  154.4672 C   0  0  0  0  0  0  0  0  0  0  0  0
  148.1139  139.8642  153.5818 N   0  3  0  0  0  0  0  0  0  0  0  0
  146.7409  139.4733  153.1738 C   0  0  0  0  0  0  0  0  0  0  0  0
  146.6823  138.9128  151.7393 C   0  0  0  0  0  0  0  0  0  0  0  0
  146.8803  137.4679  151.7211 N   0  0  0  0  0  0  0  0  0  0  0  0
  145.9657  136.5756  151.3143 C   0  0  0  0  0  0  0  0  0  0  0  0
  144.8444  136.8938  150.9170 O   0  0  0  0  0  0  0  0  0  0  0  0
  146.4334  135.3181  151.4056 N   0  0  0  0  0  0  0  0  0  0  0  0
  145.7707  134.1090  151.0639 C   0  0  0  0  0  0  0  0  0  0  0  0
  146.5261  132.9329  151.2720 C   0  0  0  0  0  0  0  0  0  0  0  0
  145.9592  131.6816  150.9617 C   0  0  0  0  0  0  0  0  0  0  0  0
  144.6500  131.6386  150.4503 C   0  0  0  0  0  0  0  0  0  0  0  0
  143.9671  132.8559  150.2734 C   0  0  0  0  0  0  0  0  0  0  0  0
  144.5081  134.0563  150.5705 N   0  0  0  0  0  0  0  0  0  0  0  0
  148.9116  138.7372  154.1416 C   0  0  0  0  0  0  0  0  0  0  0  0
  150.3192  139.1958  154.5651 C   0  0  0  0  0  0  0  0  0  0  0  0
  150.8143  142.3723  157.3124 H   0  0  0  0  0  0  0  0  0  0  0  0
  150.5996  141.3291  158.7148 H   0  0  0  0  0  0  0  0  0  0  0  0
  149.2048  141.7435  157.7224 H   0  0  0  0  0  0  0  0  0  0  0  0
  149.4971  142.3355  155.5371 H   0  0  0  0  0  0  0  0  0  0  0  0
  150.1106  141.7749  154.0085 H   0  0  0  0  0  0  0  0  0  0  0  0
  147.5137  140.8494  155.3558 H   0  0  0  0  0  0  0  0  0  0  0  0
  147.6326  141.8958  153.9543 H   0  0  0  0  0  0  0  0  0  0  0  0
  146.3347  138.7538  153.8865 H   0  0  0  0  0  0  0  0  0  0  0  0
  146.0993  140.3542  153.2265 H   0  0  0  0  0  0  0  0  0  0  0  0
  145.7309  139.1646  151.2675 H   0  0  0  0  0  0  0  0  0  0  0  0
  147.4630  139.3502  151.1183 H   0  0  0  0  0  0  0  0  0  0  0  0
  147.7779  137.1242  152.0311 H   0  0  0  0  0  0  0  0  0  0  0  0
  147.3730  135.2118  151.7578 H   0  0  0  0  0  0  0  0  0  0  0  0
  147.5310  132.9838  151.6653 H   0  0  0  0  0  0  0  0  0  0  0  0
  146.5203  130.7713  151.1130 H   0  0  0  0  0  0  0  0  0  0  0  0
  144.1814  130.6985  150.1997 H   0  0  0  0  0  0  0  0  0  0  0  0
  142.9606  132.8669  149.8824 H   0  0  0  0  0  0  0  0  0  0  0  0
  148.3883  138.3148  155.0011 H   0  0  0  0  0  0  0  0  0  0  0  0
  149.0084  137.9398  153.4060 H   0  0  0  0  0  0  0  0  0  0  0  0
  150.8794  139.5305  153.6908 H   0  0  0  0  0  0  0  0  0  0  0  0
  150.8781  138.3487  154.9602 H   0  0  0  0  0  0  0  0  0  0  0  0
  148.5873  140.1554  152.7384 H   0  0  0  0  0  0  0  0  0  0  0  0
  1  2  1  0  0  0  0
  1 22  1  0  0  0  0
  1 23  1  0  0  0  0
  1 24  1  0  0  0  0
  2  3  2  0  0  0  0
  2  4  1  0  0  0  0
  4 21  1  0  0  0  0
  4  5  1  0  0  0  0
  5  6  1  0  0  0  0
  5 25  1  0  0  0  0
  5 26  1  0  0  0  0
  6  7  1  0  0  0  0
  6 27  1  0  0  0  0
  6 28  1  0  0  0  0
  7  8  1  0  0  0  0
  7 20  1  0  0  0  0
  7 43  1  0  0  0  0
  8  9  1  0  0  0  0
  8 29  1  0  0  0  0
  8 30  1  0  0  0  0
  9 10  1  0  0  0  0
  9 31  1  0  0  0  0
  9 32  1  0  0  0  0
 10 11  1  0  0  0  0
 10 33  1  0  0  0  0
 11 12  2  0  0  0  0
 11 13  1  0  0  0  0
 13 14  1  0  0  0  0
 13 34  1  0  0  0  0
 14 19  1  0  0  0  0
 14 15  2  0  0  0  0
 15 16  1  0  0  0  0
 15 35  1  0  0  0  0
 16 17  2  0  0  0  0
 16 36  1  0  0  0  0
 17 18  1  0  0  0  0
 17 37  1  0  0  0  0
 18 19  2  0  0  0  0
 18 38  1  0  0  0  0
 20 21  1  0  0  0  0
 20 39  1  0  0  0  0
 20 40  1  0  0  0  0
 21 41  1  0  0  0  0
 21 42  1  0  0  0  0
M  CHG  1   7   1
M  END
> <s_m_source_file>
AV-unprocessed.smi

> <i_m_source_file_index>
1892

> <i_lp_mmshare_version>
43012

> <i_f3d_flags>
0

> <s_epik_input>
W0NIM11DKD1PKU4xW0NIMl1bQ0gyXU4oW0NIMl1bQ0gyXTEpW0NIMl1bQ0gyXVtOSF1DKD1PKVtOSF1jMltjSF1bY0hdW2NIXVtjSF1uMg==

> <s_epik_cmdline>
J2VwaWtfcHl0aG9uJywgJy1waCcsICc3LjAnLCAnLXRuJywgJzgnLCAnLW1hJywgJzIwMCcsICctbWV0YWxfYmluZGluZycsICctaW1hZScsICc8aW5maWxlLm1hZT4nLCAnLW9tYWUnLCAnPG91dGZpbGUubWFlPic=

> <r_epik_Ionization_Penalty>
0.630068

> <r_epik_Ionization_Penalty_Charging>
0.630034

> <r_epik_Ionization_Penalty_Neutral>
3.4348e-05

> <r_epik_State_Penalty>
0.646805

> <r_epik_Charging_Adjusted_Penalty>
1.27684

> <i_epik_Tot_Q>
1

> <i_epik_Tot_abs_Q>
1

> <r_epik_Metal_State_Penalty>
0.646808

> <b_epik_Metal_Only>
0

> <s_lp_Force_Field>
OPLS_2005

> <r_lp_Energy>
41.8075

> <b_lp_Chiralities_Consistent>
1

> <s_lp_Variant>
AV-unprocessed.smi:1892-2

> <Gold.Version>
5.8.1

> <Gold.Id.Protein>
6NUR|6NUR_protein|mol2

> <Gold.PLP.Fitness>
46.9830

> <Gold.PLP.PLP>
-36.6988

> <Gold.PLP.part.hbond>
-2.8109

> <Gold.PLP.part.metal>
0.0000

> <Gold.PLP.part.buried>
-3.0878

> <Gold.PLP.part.nonpolar>
-35.8200

> <Gold.PLP.part.repulsive>
5.4340

> <Gold.PLP.ligand.clash>
0.0000

> <Gold.PLP.ligand.torsion>
0.5781

> <Gold.PLP.Chemscore.Hbond>
2.8000

> <Gold.PLP.Chemscore.CHOScore>
1.0000

> <Gold.PLP.Chemscore.Metal>
0.0000

> <Gold.Chemscore.Hbonds>
donor molecule, donor type, donor heavy atom, donor atom, acceptor molecule, acceptor atom, score
      L1  H     7    43       P1  7957  1.00
      L1  H    10    33       P1  7948  0.84
      L1  H    13    34       P1  7948  0.77
      L1  C    18    38       P1 10186  1.00

> <Gold.PLP.Chemscore.Internal.Correction>
0.0405

> <Gold.Rescore>
     Score         DG    S(hbond)    S(metal)    S(lipo)     H(rot)  DE(clash)    DE(int)     intcor
     16.05     -20.07       2.53        0.00      88.44       1.64       2.16       1.86       ----

> <Gold.Chemscore.Fitness>
16.0453

> <Gold.Chemscore.DG>
-20.0697

> <Gold.Chemscore.ZeroCoef>
-5.4800

> <Gold.Chemscore.Hbond>
2.5262

> <Gold.Chemscore.Metal>
0.0000

> <Gold.Chemscore.Lipo>
88.4399

> <Gold.Chemscore.Internal_Hbond>
0.0000

> <Gold.Chemscore.DEClash>
2.1613

> <Gold.Chemscore.DEInternal>
1.8631

> <Gold.Chemscore.Rot>
1.6388

> <Gold.Chemscore.Internal.Correction>
   9.000000E+99

> <Gold.Chemscore.Hbonds>
donor molecule, donor type, donor heavy atom, donor atom, acceptor molecule, acceptor atom, score
      L1  H     7    43       P1  7957  0.99
      L1  H    10    33       P1  7948  0.78
      L1  H    13    34       P1  7948  0.72

> <Gold.Chemscore.Hbond.Weighted>
-8.4375

> <Gold.Chemscore.Metal.Weighted>
-0.0000

> <Gold.Chemscore.Lipo.Weighted>
-10.3475

> <Gold.Chemscore.Internal_Hbond.Weighted>
0.0000

> <Gold.Chemscore.DEClash.Weighted>
2.1613

> <Gold.Chemscore.DEInternal.Weighted>
1.8631

> <Gold.Chemscore.Rot.Weighted>
4.1952

> <Gold.Chemscore.Internal.Correction.Weighted>
   9.000000E+99

> <Gold.Protein.RotatedTorsions>
[ 6907 6896 6895 6894 ] final   77.22 input  -60.11 | X-H torsion
[ 7974 7965 7964 7962 ] final  -25.70 input  175.53 | X-H torsion
[ 8008 7997 7996 7995 ] final  -60.76 input   59.86 | X-H torsion
[ 10167 10162 10161 10158 ] final  -40.03 input  -65.29 | X-H torsion
[ 10718 10713 10712 10709 ] final  -45.70 input   66.30 | X-H torsion
[ 10763 10752 10751 10750 ] final   75.76 input  -60.55 | X-H torsion
[ 11005 11000 10999 10996 ] final  134.39 input  -57.11 | X-H torsion

> <Gold.Protein.ActiveResidues>
 VAL166  LYS551  ARG553  GLY616  TRP617  ASP618  TYR619  PRO620  LYS621  CYS622 
 ASP623  PHE694  ASN695  SER759  ASP760  ASP761  ALA762  ILE779  LEU786  VAL792 
 PHE793  MET794  SER795  GLU796  ALA797  LYS798  CYS799  TRP800  GLU811  SER814 

> <Gold.Protein.RotatedAtoms>
  152.5108  134.3850  159.9363 H   0  0  0  0  0  0  0  0  0  0  0  0  # atno 6907 bound_to 6896
  151.3808  133.3816  159.2717 H   0  0  0  0  0  0  0  0  0  0  0  0  # atno 6908 bound_to 6896
  150.9506  134.8927  159.7728 H   0  0  0  0  0  0  0  0  0  0  0  0  # atno 6909 bound_to 6896
  146.1474  140.4921  142.8626 H   0  0  0  0  0  0  0  0  0  0  0  0  # atno 7974 bound_to 7965
  154.4414  140.1032  156.6325 H   0  0  0  0  0  0  0  0  0  0  0  0  # atno 8008 bound_to 7997
  155.5589  140.3487  155.4468 H   0  0  0  0  0  0  0  0  0  0  0  0  # atno 8009 bound_to 7997
  156.0474  140.1296  157.0078 H   0  0  0  0  0  0  0  0  0  0  0  0  # atno 8010 bound_to 7997
  140.7046  143.3178  151.2867 H   0  0  0  0  0  0  0  0  0  0  0  0  # atno 10167 bound_to 10162
  156.2256  130.4169  149.8938 H   0  0  0  0  0  0  0  0  0  0  0  0  # atno 10718 bound_to 10713
  153.0677  135.4976  154.8237 H   0  0  0  0  0  0  0  0  0  0  0  0  # atno 10763 bound_to 10752
  154.6978  135.2996  154.9389 H   0  0  0  0  0  0  0  0  0  0  0  0  # atno 10764 bound_to 10752
  154.0122  135.6753  153.4819 H   0  0  0  0  0  0  0  0  0  0  0  0  # atno 10765 bound_to 10752
  139.9912  134.9514  156.9860 H   0  0  0  0  0  0  0  0  0  0  0  0  # atno 11005 bound_to 11000
  144.7863  140.5942  143.6572 LP  0  0  0  0  0  0  0  0  0  0  0  0  # atno 17320 bound_to 7965
  145.4905  139.1489  143.3712 LP  0  0  0  0  0  0  0  0  0  0  0  0  # atno 17321 bound_to 7965
  139.6622  144.0169  152.2700 LP  0  0  0  0  0  0  0  0  0  0  0  0  # atno 17342 bound_to 10162
  139.9740  144.6474  150.7962 LP  0  0  0  0  0  0  0  0  0  0  0  0  # atno 17343 bound_to 10162
  156.6569  130.8766  151.3541 LP  0  0  0  0  0  0  0  0  0  0  0  0  # atno 17370 bound_to 10713
  157.7109  130.9439  150.1086 LP  0  0  0  0  0  0  0  0  0  0  0  0  # atno 17371 bound_to 10713
  140.4905  134.1198  155.7232 LP  0  0  0  0  0  0  0  0  0  0  0  0  # atno 17394 bound_to 11000
  141.1567  133.8869  157.1958 LP  0  0  0  0  0  0  0  0  0  0  0  0  # atno 17395 bound_to 11000

$$$$
