AV-unprocessed.smi:813|AV-procd|sdf|3817|dock6
  -GOLD-   22720 1253D 1   1.00000     0.00000
 Structure written by MMmdl.
 36 37  0  0  0  0  0  0  0  0  1 V2000
  149.9222  141.7624  156.7373 C   0  0  0  0  0  0  0  0  0  0  0  0
  149.6391  142.3234  158.1407 C   0  0  2  0  0  0  0  0  0  0  0  0
  148.5261  143.2666  158.0368 N   0  0  0  0  0  0  0  0  0  0  0  0
  147.4239  143.2508  158.8017 C   0  0  0  0  0  0  0  0  0  0  0  0
  147.2133  142.4036  159.6702 O   0  0  0  0  0  0  0  0  0  0  0  0
  146.6049  144.2718  158.4945 N   0  0  0  0  0  0  0  0  0  0  0  0
  145.3601  144.6113  159.0874 C   0  0  0  0  0  0  0  0  0  0  0  0
  144.7361  143.8479  159.9985 N   0  0  0  0  0  0  0  0  0  0  0  0
  143.5375  144.4122  160.4161 N   0  0  0  0  0  0  0  0  0  0  0  0
  143.3051  145.5770  159.8043 C   0  0  0  0  0  0  0  0  0  0  0  0
  144.5272  146.0983  158.6573 S   0  0  0  0  0  0  0  0  0  0  0  0
  150.9084  143.0317  158.6411 C   0  0  0  0  0  0  0  0  0  0  0  0
  151.3755  143.9927  158.0270 O   0  0  0  0  0  0  0  0  0  0  0  0
  151.4605  142.5341  159.7577 N   0  0  0  0  0  0  0  0  0  0  0  0
  152.6504  143.0674  160.4141 C   0  0  0  0  0  0  0  0  0  0  0  0
  153.7109  141.9657  160.5895 C   0  0  0  0  0  0  0  0  0  0  0  0
  153.7179  141.6243  162.0795 C   0  0  0  0  0  0  0  0  0  0  0  0
  153.3591  142.9401  162.7629 C   0  0  0  0  0  0  0  0  0  0  0  0
  152.3295  143.5837  161.8323 C   0  0  0  0  0  0  0  0  0  0  0  0
  150.7493  141.0514  156.7537 H   0  0  0  0  0  0  0  0  0  0  0  0
  150.1756  142.5514  156.0273 H   0  0  0  0  0  0  0  0  0  0  0  0
  149.0511  141.2353  156.3468 H   0  0  0  0  0  0  0  0  0  0  0  0
  149.3721  141.5068  158.8147 H   0  0  0  0  0  0  0  0  0  0  0  0
  148.6194  144.0010  157.3509 H   0  0  0  0  0  0  0  0  0  0  0  0
  146.9148  144.8879  157.7578 H   0  0  0  0  0  0  0  0  0  0  0  0
  142.4077  146.1337  160.0306 H   0  0  0  0  0  0  0  0  0  0  0  0
  151.0132  141.7422  160.1963 H   0  0  0  0  0  0  0  0  0  0  0  0
  153.0752  143.8692  159.8068 H   0  0  0  0  0  0  0  0  0  0  0  0
  153.5331  141.0879  159.9668 H   0  0  0  0  0  0  0  0  0  0  0  0
  154.6880  142.3621  160.3102 H   0  0  0  0  0  0  0  0  0  0  0  0
  152.9499  140.8788  162.2903 H   0  0  0  0  0  0  0  0  0  0  0  0
  154.6748  141.2232  162.4143 H   0  0  0  0  0  0  0  0  0  0  0  0
  152.9790  142.7982  163.7749 H   0  0  0  0  0  0  0  0  0  0  0  0
  154.2447  143.5738  162.8252 H   0  0  0  0  0  0  0  0  0  0  0  0
  152.3555  144.6723  161.8881 H   0  0  0  0  0  0  0  0  0  0  0  0
  151.3298  143.2714  162.1391 H   0  0  0  0  0  0  0  0  0  0  0  0
  1  2  1  0  0  0  0
  1 20  1  0  0  0  0
  1 21  1  0  0  0  0
  1 22  1  0  0  0  0
  2  3  1  0  0  0  0
  2 12  1  0  0  0  0
  2 23  1  0  0  0  0
  3  4  1  0  0  0  0
  3 24  1  0  0  0  0
  4  5  2  0  0  0  0
  4  6  1  0  0  0  0
  6  7  1  0  0  0  0
  6 25  1  0  0  0  0
  7 11  1  0  0  0  0
  7  8  2  0  0  0  0
  8  9  1  0  0  0  0
  9 10  2  0  0  0  0
 10 11  1  0  0  0  0
 10 26  1  0  0  0  0
 12 13  2  0  0  0  0
 12 14  1  0  0  0  0
 14 15  1  0  0  0  0
 14 27  1  0  0  0  0
 15 19  1  0  0  0  0
 15 16  1  0  0  0  0
 15 28  1  0  0  0  0
 16 17  1  0  0  0  0
 16 29  1  0  0  0  0
 16 30  1  0  0  0  0
 17 18  1  0  0  0  0
 17 31  1  0  0  0  0
 17 32  1  0  0  0  0
 18 19  1  0  0  0  0
 18 33  1  0  0  0  0
 18 34  1  0  0  0  0
 19 35  1  0  0  0  0
 19 36  1  0  0  0  0
M  END
> <s_m_source_file>
AV-unprocessed.smi

> <i_m_source_file_index>
813

> <i_lp_mmshare_version>
43012

> <i_f3d_flags>
0

> <s_epik_input>
W0NIMl0xW0NIMl1bQ0gyXVtDSDJdW0NIXTFbTkhdQyg9TylbQ0BIXShbQ0gzXSlbTkhdQyg9TylbTkhdYzJubltjSF1zMg==

> <s_epik_cmdline>
J2VwaWtfcHl0aG9uJywgJy1waCcsICc3LjAnLCAnLXRuJywgJzgnLCAnLW1hJywgJzIwMCcsICctbWV0YWxfYmluZGluZycsICctaW1hZScsICc8aW5maWxlLm1hZT4nLCAnLW9tYWUnLCAnPG91dGZpbGUubWFlPic=

> <r_lp_tautomer_probability>
1

> <r_epik_Ionization_Penalty>
0.00321247

> <r_epik_Ionization_Penalty_Charging>
0

> <r_epik_Ionization_Penalty_Neutral>
0.00321247

> <r_epik_State_Penalty>
-0

> <r_epik_Charging_Adjusted_Penalty>
0

> <i_epik_Tot_Q>
0

> <i_epik_Tot_abs_Q>
0

> <r_epik_Metal_State_Penalty>
0.363968

> <b_epik_Metal_Only>
0

> <s_lp_Force_Field>
OPLS_2005

> <r_lp_Energy>
16.3209

> <b_lp_Chiralities_Consistent>
1

> <s_lp_Variant>
AV-unprocessed.smi:813-1

> <Gold.Version>
5.8.1

> <Gold.Id.Protein>
6NUR|6NUR_protein|mol2

> <Gold.PLP.Fitness>
38.6823

> <Gold.PLP.PLP>
-31.6320

> <Gold.PLP.part.hbond>
-4.7825

> <Gold.PLP.part.metal>
0.0000

> <Gold.PLP.part.buried>
-1.1734

> <Gold.PLP.part.nonpolar>
-24.8474

> <Gold.PLP.part.repulsive>
0.4806

> <Gold.PLP.ligand.clash>
0.0000

> <Gold.PLP.ligand.torsion>
0.1017

> <Gold.PLP.Chemscore.Hbond>
2.4122

> <Gold.PLP.Chemscore.CHOScore>
0.0000

> <Gold.PLP.Chemscore.Metal>
0.0000

> <Gold.Chemscore.Hbonds>
donor molecule, donor type, donor heavy atom, donor atom, acceptor molecule, acceptor atom, score
      L1  H     3    24       P1  8028  0.30
      L1  H     6    25       P1  8029  0.88
      P1  H  6933  6944       L1     5  0.36
      P1  H  6934  6946       L1     5  0.72

> <Gold.PLP.Chemscore.Internal.Correction>
0.0173

> <Gold.Rescore>
     Score         DG    S(hbond)    S(metal)    S(lipo)     H(rot)  DE(clash)    DE(int)     intcor
     15.44     -17.33       2.18        0.00      77.20       1.74       0.52       1.37       ----

> <Gold.Chemscore.Fitness>
15.4379

> <Gold.Chemscore.DG>
-17.3270

> <Gold.Chemscore.ZeroCoef>
-5.4800

> <Gold.Chemscore.Hbond>
2.1787

> <Gold.Chemscore.Metal>
0.0000

> <Gold.Chemscore.Lipo>
77.2034

> <Gold.Chemscore.Internal_Hbond>
0.0000

> <Gold.Chemscore.DEClash>
0.5223

> <Gold.Chemscore.DEInternal>
1.3668

> <Gold.Chemscore.Rot>
1.7433

> <Gold.Chemscore.Internal.Correction>
   9.000000E+99

> <Gold.Chemscore.Hbonds>
donor molecule, donor type, donor heavy atom, donor atom, acceptor molecule, acceptor atom, score
      L1  H     6    25       P1  8029  0.37
      P1  H  6933  6944       L1     5  0.35
      P1  H  6934  6946       L1     5  0.72

> <Gold.Chemscore.Hbond.Weighted>
-7.2770

> <Gold.Chemscore.Metal.Weighted>
-0.0000

> <Gold.Chemscore.Lipo.Weighted>
-9.0328

> <Gold.Chemscore.Internal_Hbond.Weighted>
0.0000

> <Gold.Chemscore.DEClash.Weighted>
0.5223

> <Gold.Chemscore.DEInternal.Weighted>
1.3668

> <Gold.Chemscore.Rot.Weighted>
4.4628

> <Gold.Chemscore.Internal.Correction.Weighted>
   9.000000E+99

> <Gold.Protein.RotatedTorsions>
[ 6907 6896 6895 6894 ] final -121.01 input  -60.11 | X-H torsion
[ 7974 7965 7964 7962 ] final  158.14 input  175.53 | X-H torsion
[ 8008 7997 7996 7995 ] final -116.14 input   59.86 | X-H torsion
[ 10167 10162 10161 10158 ] final   79.45 input  -65.29 | X-H torsion
[ 10718 10713 10712 10709 ] final   55.47 input   66.30 | X-H torsion
[ 10763 10752 10751 10750 ] final  -61.18 input  -60.55 | X-H torsion
[ 11005 11000 10999 10996 ] final  123.60 input  -57.11 | X-H torsion

> <Gold.Protein.ActiveResidues>
 VAL166  LYS551  ARG553  GLY616  TRP617  ASP618  TYR619  PRO620  LYS621  CYS622 
 ASP623  PHE694  ASN695  SER759  ASP760  ASP761  ALA762  ILE779  LEU786  VAL792 
 PHE793  MET794  SER795  GLU796  ALA797  LYS798  CYS799  TRP800  GLU811  SER814 

> <Gold.Protein.RotatedAtoms>
  150.8445  133.7884  159.3048 H   0  0  0  0  0  0  0  0  0  0  0  0  # atno 6907 bound_to 6896
  151.5575  135.1064  159.9974 H   0  0  0  0  0  0  0  0  0  0  0  0  # atno 6908 bound_to 6896
  152.4502  133.7571  159.6782 H   0  0  0  0  0  0  0  0  0  0  0  0  # atno 6909 bound_to 6896
  144.7862  139.7438  143.6240 H   0  0  0  0  0  0  0  0  0  0  0  0  # atno 7974 bound_to 7965
  155.0631  140.0393  157.2583 H   0  0  0  0  0  0  0  0  0  0  0  0  # atno 8008 bound_to 7997
  154.7043  140.2680  155.6665 H   0  0  0  0  0  0  0  0  0  0  0  0  # atno 8009 bound_to 7997
  156.2770  140.2734  156.1664 H   0  0  0  0  0  0  0  0  0  0  0  0  # atno 8010 bound_to 7997
  139.9602  144.5966  150.8079 H   0  0  0  0  0  0  0  0  0  0  0  0  # atno 10167 bound_to 10162
  157.5348  130.8655  149.8737 H   0  0  0  0  0  0  0  0  0  0  0  0  # atno 10718 bound_to 10713
  154.2807  135.6272  153.5346 H   0  0  0  0  0  0  0  0  0  0  0  0  # atno 10763 bound_to 10752
  152.9866  135.5632  154.5498 H   0  0  0  0  0  0  0  0  0  0  0  0  # atno 10764 bound_to 10752
  154.5088  135.2876  155.1335 H   0  0  0  0  0  0  0  0  0  0  0  0  # atno 10765 bound_to 10752
  139.9320  134.9641  156.8284 H   0  0  0  0  0  0  0  0  0  0  0  0  # atno 11005 bound_to 11000
  146.2095  139.5442  142.9690 LP  0  0  0  0  0  0  0  0  0  0  0  0  # atno 17320 bound_to 7965
  145.5914  141.0369  143.2068 LP  0  0  0  0  0  0  0  0  0  0  0  0  # atno 17321 bound_to 7965
  140.7555  143.3048  151.2989 LP  0  0  0  0  0  0  0  0  0  0  0  0  # atno 17342 bound_to 10162
  139.6560  144.0276  152.2660 LP  0  0  0  0  0  0  0  0  0  0  0  0  # atno 17343 bound_to 10162
  156.0450  130.3730  150.1340 LP  0  0  0  0  0  0  0  0  0  0  0  0  # atno 17370 bound_to 10713
  156.9523  130.9779  151.3495 LP  0  0  0  0  0  0  0  0  0  0  0  0  # atno 17371 bound_to 10713
  140.6176  134.0023  155.7604 LP  0  0  0  0  0  0  0  0  0  0  0  0  # atno 17394 bound_to 11000
  141.0914  133.9911  157.3231 LP  0  0  0  0  0  0  0  0  0  0  0  0  # atno 17395 bound_to 11000

$$$$
