AV-unprocessed.smi:532|AV-procd|sdf|2853|dock6
  -GOLD-   2262023343D 1   1.00000     0.00000
 Structure written by MMmdl.
 48 50  0  0  0  0  0  0  0  0  2 V2000
  149.5306  140.9802  154.8719 C   0  0  0  0  0  0  0  0  0  0  0  0
  150.6507  141.5546  155.5216 O   0  0  0  0  0  0  0  0  0  0  0  0
  151.5231  140.5760  156.0601 C   0  0  0  0  0  0  0  0  0  0  0  0
  151.2896  140.4774  157.5721 C   0  0  0  0  0  0  0  0  0  0  0  0
  152.3771  139.7704  158.2355 N   0  0  0  0  0  0  0  0  0  0  0  0
  153.1704  140.2256  159.2381 C   0  0  0  0  0  0  0  0  0  0  0  0
  153.0183  141.5086  159.7572 N   0  0  0  0  0  0  0  0  0  0  0  0
  152.9630  142.6994  158.9084 C   0  0  0  0  0  0  0  0  0  0  0  0
  152.0789  143.8322  159.4773 C   0  0  1  0  0  0  0  0  0  0  0  0
  150.5737  143.5585  159.3258 C   0  0  0  0  0  0  0  0  0  0  0  0
  152.4799  144.1591  160.9260 C   0  0  0  0  0  0  0  0  0  0  0  0
  152.5536  142.8852  161.7835 C   0  0  2  0  0  0  0  0  0  0  0  0
  153.0256  143.1961  163.2103 C   0  0  0  0  0  0  0  0  0  0  0  0
  153.4719  141.8552  161.1014 C   0  0  0  0  0  0  0  0  0  0  0  0
  154.0814  139.3538  159.6745 N   0  0  0  0  0  0  0  0  0  0  0  0
  153.8564  138.2505  158.8639 C   0  0  0  0  0  0  0  0  0  0  0  0
  152.8423  138.4769  157.9871 C   0  0  0  0  0  0  0  0  0  0  0  0
  152.3807  137.4896  156.9893 C   0  0  0  0  0  0  0  0  0  0  0  0
  151.4685  137.7557  156.2091 O   0  0  0  0  0  0  0  0  0  0  0  0
  153.0841  136.3153  157.0637 N   0  5  0  0  0  0  0  0  0  0  0  0
  154.1158  136.0404  157.9371 C   0  0  0  0  0  0  0  0  0  0  0  0
  154.6931  134.9531  157.9297 O   0  0  0  0  0  0  0  0  0  0  0  0
  154.5164  136.9938  158.8391 N   0  0  0  0  0  0  0  0  0  0  0  0
  155.6056  136.7829  159.7975 C   0  0  0  0  0  0  0  0  0  0  0  0
  148.8909  141.7690  154.4768 H   0  0  0  0  0  0  0  0  0  0  0  0
  148.9380  140.3811  155.5645 H   0  0  0  0  0  0  0  0  0  0  0  0
  149.8398  140.3490  154.0378 H   0  0  0  0  0  0  0  0  0  0  0  0
  151.3451  139.6099  155.5861 H   0  0  0  0  0  0  0  0  0  0  0  0
  152.5590  140.8505  155.8582 H   0  0  0  0  0  0  0  0  0  0  0  0
  151.1923  141.4696  158.0103 H   0  0  0  0  0  0  0  0  0  0  0  0
  150.3470  139.9752  157.7863 H   0  0  0  0  0  0  0  0  0  0  0  0
  153.9824  143.0652  158.7788 H   0  0  0  0  0  0  0  0  0  0  0  0
  152.6143  142.4189  157.9139 H   0  0  0  0  0  0  0  0  0  0  0  0
  152.2795  144.7221  158.8796 H   0  0  0  0  0  0  0  0  0  0  0  0
  150.2564  142.6878  159.8960 H   0  0  0  0  0  0  0  0  0  0  0  0
  150.3096  143.3883  158.2821 H   0  0  0  0  0  0  0  0  0  0  0  0
  149.9860  144.4079  159.6742 H   0  0  0  0  0  0  0  0  0  0  0  0
  153.4573  144.6439  160.9220 H   0  0  0  0  0  0  0  0  0  0  0  0
  151.7847  144.8773  161.3624 H   0  0  0  0  0  0  0  0  0  0  0  0
  151.5543  142.4543  161.8571 H   0  0  0  0  0  0  0  0  0  0  0  0
  154.0312  143.6178  163.2130 H   0  0  0  0  0  0  0  0  0  0  0  0
  153.0406  142.2942  163.8229 H   0  0  0  0  0  0  0  0  0  0  0  0
  152.3622  143.9125  163.6955 H   0  0  0  0  0  0  0  0  0  0  0  0
  153.5134  140.9461  161.7030 H   0  0  0  0  0  0  0  0  0  0  0  0
  154.4928  142.2354  161.0436 H   0  0  0  0  0  0  0  0  0  0  0  0
  156.0725  135.7994  159.7415 H   0  0  0  0  0  0  0  0  0  0  0  0
  155.2323  136.9067  160.8145 H   0  0  0  0  0  0  0  0  0  0  0  0
  156.3891  137.5237  159.6358 H   0  0  0  0  0  0  0  0  0  0  0  0
  1  2  1  0  0  0  0
  1 25  1  0  0  0  0
  1 26  1  0  0  0  0
  1 27  1  0  0  0  0
  2  3  1  0  0  0  0
  3  4  1  0  0  0  0
  3 28  1  0  0  0  0
  3 29  1  0  0  0  0
  4  5  1  0  0  0  0
  4 30  1  0  0  0  0
  4 31  1  0  0  0  0
  5 17  1  0  0  0  0
  5  6  1  0  0  0  0
  6  7  1  0  0  0  0
  6 15  2  0  0  0  0
  7 14  1  0  0  0  0
  7  8  1  0  0  0  0
  8  9  1  0  0  0  0
  8 32  1  0  0  0  0
  8 33  1  0  0  0  0
  9 10  1  0  0  0  0
  9 11  1  0  0  0  0
  9 34  1  0  0  0  0
 10 35  1  0  0  0  0
 10 36  1  0  0  0  0
 10 37  1  0  0  0  0
 11 12  1  0  0  0  0
 11 38  1  0  0  0  0
 11 39  1  0  0  0  0
 12 13  1  0  0  0  0
 12 14  1  0  0  0  0
 12 40  1  0  0  0  0
 13 41  1  0  0  0  0
 13 42  1  0  0  0  0
 13 43  1  0  0  0  0
 14 44  1  0  0  0  0
 14 45  1  0  0  0  0
 15 16  1  0  0  0  0
 16 23  1  0  0  0  0
 16 17  2  0  0  0  0
 17 18  1  0  0  0  0
 18 19  2  0  0  0  0
 18 20  1  0  0  0  0
 20 21  1  0  0  0  0
 21 22  2  0  0  0  0
 21 23  1  0  0  0  0
 23 24  1  0  0  0  0
 24 46  1  0  0  0  0
 24 47  1  0  0  0  0
 24 48  1  0  0  0  0
M  CHG  1  20  -1
M  END
> <s_m_source_file>
AV-unprocessed.smi

> <i_m_source_file_index>
532

> <i_lp_mmshare_version>
43012

> <i_f3d_flags>
0

> <s_epik_input>
W0NIM11uMWMoPU8pW25IXWMoPU8pYyhjMTIpbihbQ0gyXVtDSDJdT1tDSDNdKWMobjIpTjNbQ0gyXVtDQEBIXShbQ0gzXSlbQ0gyXVtDQEBIXShbQ0gzXSlbQ0gyXTM=

> <s_epik_cmdline>
J2VwaWtfcHl0aG9uJywgJy1waCcsICc3LjAnLCAnLXRuJywgJzgnLCAnLW1hJywgJzIwMCcsICctbWV0YWxfYmluZGluZycsICctaW1hZScsICc8aW5maWxlLm1hZT4nLCAnLW9tYWUnLCAnPG91dGZpbGUubWFlPic=

> <r_lp_tautomer_probability>
1

> <r_epik_Ionization_Penalty>
5.12128

> <r_epik_Ionization_Penalty_Charging>
0.0789629

> <r_epik_Ionization_Penalty_Neutral>
5.04232

> <r_epik_State_Penalty>
5.03111

> <r_epik_Charging_Adjusted_Penalty>
5.11007

> <i_epik_Tot_Q>
-1

> <i_epik_Tot_abs_Q>
1

> <r_epik_Metal_State_Penalty>
1.14201

> <b_epik_Metal_Only>
1

> <s_lp_Force_Field>
OPLS_2005

> <r_lp_Energy>
48.0239

> <b_lp_Chiralities_Consistent>
1

> <s_lp_Variant>
AV-unprocessed.smi:532-6

> <Gold.Version>
5.8.1

> <Gold.Id.Protein>
6NUR|6NUR_protein|mol2

> <Gold.PLP.Fitness>
46.6947

> <Gold.PLP.PLP>
-41.6385

> <Gold.PLP.part.hbond>
-1.7905

> <Gold.PLP.part.metal>
0.0000

> <Gold.PLP.part.buried>
-4.9548

> <Gold.PLP.part.nonpolar>
-34.9240

> <Gold.PLP.part.repulsive>
0.0839

> <Gold.PLP.ligand.clash>
0.0000

> <Gold.PLP.ligand.torsion>
0.9232

> <Gold.PLP.Chemscore.Hbond>
2.0004

> <Gold.PLP.Chemscore.CHOScore>
0.0000

> <Gold.PLP.Chemscore.Metal>
0.0000

> <Gold.Chemscore.Hbonds>
donor molecule, donor type, donor heavy atom, donor atom, acceptor molecule, acceptor atom, score
      P1  H 10752 10764       L1    20  2.00

> <Gold.PLP.Chemscore.Internal.Correction>
0.9016

> <Gold.Rescore>
     Score         DG    S(hbond)    S(metal)    S(lipo)     H(rot)  DE(clash)    DE(int)     intcor
     14.37     -16.60       0.78        0.00     103.78       1.41       0.19       2.04       ----

> <Gold.Chemscore.Fitness>
14.3690

> <Gold.Chemscore.DG>
-16.6013

> <Gold.Chemscore.ZeroCoef>
-5.4800

> <Gold.Chemscore.Hbond>
0.7788

> <Gold.Chemscore.Metal>
0.0000

> <Gold.Chemscore.Lipo>
103.7764

> <Gold.Chemscore.Internal_Hbond>
0.0000

> <Gold.Chemscore.DEClash>
0.1922

> <Gold.Chemscore.DEInternal>
2.0401

> <Gold.Chemscore.Rot>
1.4147

> <Gold.Chemscore.Internal.Correction>
   9.000000E+99

> <Gold.Chemscore.Hbonds>
donor molecule, donor type, donor heavy atom, donor atom, acceptor molecule, acceptor atom, score
      P1  H 10752 10764       L1    20  0.36

> <Gold.Chemscore.Hbond.Weighted>
-2.6010

> <Gold.Chemscore.Metal.Weighted>
-0.0000

> <Gold.Chemscore.Lipo.Weighted>
-12.1418

> <Gold.Chemscore.Internal_Hbond.Weighted>
0.0000

> <Gold.Chemscore.DEClash.Weighted>
0.1922

> <Gold.Chemscore.DEInternal.Weighted>
2.0401

> <Gold.Chemscore.Rot.Weighted>
3.6216

> <Gold.Chemscore.Internal.Correction.Weighted>
   9.000000E+99

> <Gold.Protein.RotatedTorsions>
[ 6907 6896 6895 6894 ] final  140.25 input  -60.11 | X-H torsion
[ 7974 7965 7964 7962 ] final -107.91 input  175.53 | X-H torsion
[ 8008 7997 7996 7995 ] final   25.39 input   59.86 | X-H torsion
[ 10167 10162 10161 10158 ] final   17.07 input  -65.29 | X-H torsion
[ 10718 10713 10712 10709 ] final  -21.93 input   66.30 | X-H torsion
[ 10763 10752 10751 10750 ] final    5.71 input  -60.55 | X-H torsion
[ 11005 11000 10999 10996 ] final   -2.91 input  -57.11 | X-H torsion

> <Gold.Protein.ActiveResidues>
 VAL166  LYS551  ARG553  GLY616  TRP617  ASP618  TYR619  PRO620  LYS621  CYS622 
 ASP623  PHE694  ASN695  SER759  ASP760  ASP761  ALA762  ILE779  LEU786  VAL792 
 PHE793  MET794  SER795  GLU796  ALA797  LYS798  CYS799  TRP800  GLU811  SER814 

> <Gold.Protein.RotatedAtoms>
  152.2453  133.5169  159.5293 H   0  0  0  0  0  0  0  0  0  0  0  0  # atno 6907 bound_to 6896
  150.7077  134.1034  159.3983 H   0  0  0  0  0  0  0  0  0  0  0  0  # atno 6908 bound_to 6896
  151.8954  135.0400  160.0552 H   0  0  0  0  0  0  0  0  0  0  0  0  # atno 6909 bound_to 6896
  145.1994  140.9050  143.3378 H   0  0  0  0  0  0  0  0  0  0  0  0  # atno 7974 bound_to 7965
  155.0110  140.3136  155.4829 H   0  0  0  0  0  0  0  0  0  0  0  0  # atno 8008 bound_to 7997
  156.2909  140.2214  156.5166 H   0  0  0  0  0  0  0  0  0  0  0  0  # atno 8009 bound_to 7997
  154.7534  140.0464  157.0901 H   0  0  0  0  0  0  0  0  0  0  0  0  # atno 8010 bound_to 7997
  140.5752  143.9086  150.6744 H   0  0  0  0  0  0  0  0  0  0  0  0  # atno 10167 bound_to 10162
  156.5115  130.4611  149.6646 H   0  0  0  0  0  0  0  0  0  0  0  0  # atno 10718 bound_to 10713
  153.2562  135.6918  153.7627 H   0  0  0  0  0  0  0  0  0  0  0  0  # atno 10763 bound_to 10752
  153.6703  135.3345  155.3152 H   0  0  0  0  0  0  0  0  0  0  0  0  # atno 10764 bound_to 10752
  154.8413  135.4498  154.1536 H   0  0  0  0  0  0  0  0  0  0  0  0  # atno 10765 bound_to 10752
  140.6635  133.9299  155.8451 H   0  0  0  0  0  0  0  0  0  0  0  0  # atno 11005 bound_to 11000
  144.9963  139.3641  143.6190 LP  0  0  0  0  0  0  0  0  0  0  0  0  # atno 17320 bound_to 7965
  146.3420  139.9167  142.8772 LP  0  0  0  0  0  0  0  0  0  0  0  0  # atno 17321 bound_to 7965
  140.2571  143.3551  152.1355 LP  0  0  0  0  0  0  0  0  0  0  0  0  # atno 17342 bound_to 10162
  139.5139  144.6939  151.5683 LP  0  0  0  0  0  0  0  0  0  0  0  0  # atno 17343 bound_to 10162
  156.3236  130.7294  151.2210 LP  0  0  0  0  0  0  0  0  0  0  0  0  # atno 17370 bound_to 10713
  157.7450  131.0449  150.4816 LP  0  0  0  0  0  0  0  0  0  0  0  0  # atno 17371 bound_to 10713
  141.0447  134.0572  157.3859 LP  0  0  0  0  0  0  0  0  0  0  0  0  # atno 17394 bound_to 11000
  139.9005  135.0162  156.7244 LP  0  0  0  0  0  0  0  0  0  0  0  0  # atno 17395 bound_to 11000

$$$$
