AV-unprocessed.smi:3330|AV-procd|sdf|12801|dock1
  -GOLD-   2272019163D 1   1.00000     0.00000
 Structure written by MMmdl.
 39 40  0  0  0  0  0  0  0  0  2 V2000
  146.9533  139.1516  151.9396 C   0  0  0  0  0  0  0  0  0  0  0  0
  147.2983  138.7138  153.3748 C   0  0  2  0  0  0  0  0  0  0  0  0
  148.7311  138.3510  153.4598 N   0  3  0  0  0  0  0  0  0  0  0  0
  149.2519  138.1011  154.8201 C   0  0  0  0  0  0  0  0  0  0  0  0
  150.5721  138.8549  155.0635 C   0  0  0  0  0  0  0  0  0  0  0  0
  150.4078  139.9936  155.9778 N   0  0  0  0  0  0  0  0  0  0  0  0
  150.9957  140.0799  157.1785 C   0  0  0  0  0  0  0  0  0  0  0  0
  151.7534  139.2625  157.6994 O   0  0  0  0  0  0  0  0  0  0  0  0
  150.5865  141.3867  157.8221 C   0  0  0  0  0  0  0  0  0  0  0  0
  149.7463  141.9132  156.7685 N   0  0  0  0  0  0  0  0  0  0  0  0
  149.6679  141.0876  155.7171 C   0  0  0  0  0  0  0  0  0  0  0  0
  149.0382  141.3125  154.6849 O   0  0  0  0  0  0  0  0  0  0  0  0
  146.4311  137.5225  153.8645 C   0  0  2  0  0  0  0  0  0  0  0  0
  145.7778  136.7352  152.7135 C   0  0  0  0  0  0  0  0  0  0  0  0
  145.4016  137.9547  154.8058 N   0  0  0  0  0  0  0  0  0  0  0  0
  144.3181  138.7750  154.5662 C   0  0  0  0  0  0  0  0  0  0  0  0
  143.6408  138.9132  155.7437 C   0  0  0  0  0  0  0  0  0  0  0  0
  144.4007  138.1396  156.6639 C   0  0  0  0  0  0  0  0  0  0  0  0
  145.4513  137.5665  156.1009 N   0  0  0  0  0  0  0  0  0  0  0  0
  145.9255  139.5051  151.8628 H   0  0  0  0  0  0  0  0  0  0  0  0
  147.0773  138.3300  151.2334 H   0  0  0  0  0  0  0  0  0  0  0  0
  147.5903  139.9718  151.6083 H   0  0  0  0  0  0  0  0  0  0  0  0
  147.1184  139.5573  154.0433 H   0  0  0  0  0  0  0  0  0  0  0  0
  148.8376  137.4855  152.9497 H   0  0  0  0  0  0  0  0  0  0  0  0
  148.5072  138.4034  155.5565 H   0  0  0  0  0  0  0  0  0  0  0  0
  149.4194  137.0321  154.9579 H   0  0  0  0  0  0  0  0  0  0  0  0
  151.3237  138.1655  155.4525 H   0  0  0  0  0  0  0  0  0  0  0  0
  150.9696  139.2085  154.1105 H   0  0  0  0  0  0  0  0  0  0  0  0
  150.0247  141.2244  158.7424 H   0  0  0  0  0  0  0  0  0  0  0  0
  151.4460  142.0298  158.0131 H   0  0  0  0  0  0  0  0  0  0  0  0
  149.2849  142.8093  156.8293 H   0  0  0  0  0  0  0  0  0  0  0  0
  147.0809  136.8334  154.4066 H   0  0  0  0  0  0  0  0  0  0  0  0
  146.5211  136.2590  152.0748 H   0  0  0  0  0  0  0  0  0  0  0  0
  145.1626  137.3815  152.0866 H   0  0  0  0  0  0  0  0  0  0  0  0
  145.1364  135.9419  153.0990 H   0  0  0  0  0  0  0  0  0  0  0  0
  144.1190  139.1874  153.5878 H   0  0  0  0  0  0  0  0  0  0  0  0
  142.7417  139.4843  155.9221 H   0  0  0  0  0  0  0  0  0  0  0  0
  144.2192  137.9755  157.7160 H   0  0  0  0  0  0  0  0  0  0  0  0
  149.2896  139.0581  153.0030 H   0  0  0  0  0  0  0  0  0  0  0  0
  1  2  1  0  0  0  0
  1 20  1  0  0  0  0
  1 21  1  0  0  0  0
  1 22  1  0  0  0  0
  2  3  1  0  0  0  0
  2 13  1  0  0  0  0
  2 23  1  0  0  0  0
  3  4  1  0  0  0  0
  3 24  1  0  0  0  0
  3 39  1  0  0  0  0
  4  5  1  0  0  0  0
  4 25  1  0  0  0  0
  4 26  1  0  0  0  0
  5  6  1  0  0  0  0
  5 27  1  0  0  0  0
  5 28  1  0  0  0  0
  6 11  1  0  0  0  0
  6  7  1  0  0  0  0
  7  8  2  0  0  0  0
  7  9  1  0  0  0  0
  9 10  1  0  0  0  0
  9 29  1  0  0  0  0
  9 30  1  0  0  0  0
 10 11  1  0  0  0  0
 10 31  1  0  0  0  0
 11 12  2  0  0  0  0
 13 14  1  0  0  0  0
 13 15  1  0  0  0  0
 13 32  1  0  0  0  0
 14 33  1  0  0  0  0
 14 34  1  0  0  0  0
 14 35  1  0  0  0  0
 15 19  1  0  0  0  0
 15 16  1  0  0  0  0
 16 17  2  0  0  0  0
 16 36  1  0  0  0  0
 17 18  1  0  0  0  0
 17 37  1  0  0  0  0
 18 19  2  0  0  0  0
 18 38  1  0  0  0  0
M  CHG  1   3   1
M  END
> <s_m_source_file>
AV-unprocessed.smi

> <i_m_source_file_index>
3330

> <i_lp_mmshare_version>
43012

> <i_f3d_flags>
0

> <s_epik_input>
bjFbY0hdW2NIXVtjSF1uMVtDQEBIXShbQ0gzXSlbQ0BIXShbQ0gzXSlbTkhdW0NIMl1bQ0gyXU4yQyg9TylbQ0gyXVtOSF1DMj1P

> <s_epik_cmdline>
J2VwaWtfcHl0aG9uJywgJy1waCcsICc3LjAnLCAnLXRuJywgJzgnLCAnLW1hJywgJzIwMCcsICctbWV0YWxfYmluZGluZycsICctaW1hZScsICc8aW5maWxlLm1hZT4nLCAnLW9tYWUnLCAnPG91dGZpbGUubWFlPic=

> <r_lp_tautomer_probability>
1

> <r_epik_Ionization_Penalty>
0.0124905

> <r_epik_Ionization_Penalty_Charging>
0.0123685

> <r_epik_Ionization_Penalty_Neutral>
0.000122059

> <r_epik_State_Penalty>
0.00957041

> <r_epik_Charging_Adjusted_Penalty>
0.0219389

> <i_epik_Tot_Q>
1

> <i_epik_Tot_abs_Q>
1

> <r_epik_Metal_State_Penalty>
0.0858301

> <b_epik_Metal_Only>
0

> <s_lp_Force_Field>
OPLS_2005

> <r_lp_Energy>
30.1395

> <b_lp_Chiralities_Consistent>
1

> <s_lp_Variant>
AV-unprocessed.smi:3330-1

> <Gold.Version>
5.8.1

> <Gold.Id.Protein>
6NUR|6NUR_protein|mol2

> <Gold.PLP.Fitness>
42.9944

> <Gold.PLP.PLP>
-26.9046

> <Gold.PLP.part.hbond>
-5.5030

> <Gold.PLP.part.metal>
0.0000

> <Gold.PLP.part.buried>
1.5035

> <Gold.PLP.part.nonpolar>
-21.3731

> <Gold.PLP.part.repulsive>
0.3889

> <Gold.PLP.ligand.clash>
0.0000

> <Gold.PLP.ligand.torsion>
2.0042

> <Gold.PLP.Chemscore.Hbond>
5.5756

> <Gold.PLP.Chemscore.CHOScore>
1.0000

> <Gold.PLP.Chemscore.Metal>
0.0000

> <Gold.Chemscore.Hbonds>
donor molecule, donor type, donor heavy atom, donor atom, acceptor molecule, acceptor atom, score
      L1  H     3    24       P1  7948  2.00
      L1  H     3    39       P1  7957  0.70
      L1  H    10    31       P1  8028  0.34
      L1  C    16    36       P1 10175  0.28

> <Gold.PLP.Chemscore.Internal.Correction>
0.3712

> <Gold.Rescore>
     Score         DG    S(hbond)    S(metal)    S(lipo)     H(rot)  DE(clash)    DE(int)     intcor
     15.69     -18.64       4.45        0.00      43.70       2.67       0.96       1.99       ----

> <Gold.Chemscore.Fitness>
15.6917

> <Gold.Chemscore.DG>
-18.6439

> <Gold.Chemscore.ZeroCoef>
-5.4800

> <Gold.Chemscore.Hbond>
4.4545

> <Gold.Chemscore.Metal>
0.0000

> <Gold.Chemscore.Lipo>
43.6956

> <Gold.Chemscore.Internal_Hbond>
0.0000

> <Gold.Chemscore.DEClash>
0.9580

> <Gold.Chemscore.DEInternal>
1.9941

> <Gold.Chemscore.Rot>
2.6666

> <Gold.Chemscore.Internal.Correction>
   9.000000E+99

> <Gold.Chemscore.Hbonds>
donor molecule, donor type, donor heavy atom, donor atom, acceptor molecule, acceptor atom, score
      L1  H     3    24       P1  7948  1.00
      L1  H     3    39       P1  7957  0.68
      L1  H    10    31       P1  8028  0.33

> <Gold.Chemscore.Hbond.Weighted>
-14.8780

> <Gold.Chemscore.Metal.Weighted>
-0.0000

> <Gold.Chemscore.Lipo.Weighted>
-5.1124

> <Gold.Chemscore.Internal_Hbond.Weighted>
0.0000

> <Gold.Chemscore.DEClash.Weighted>
0.9580

> <Gold.Chemscore.DEInternal.Weighted>
1.9941

> <Gold.Chemscore.Rot.Weighted>
6.8265

> <Gold.Chemscore.Internal.Correction.Weighted>
   9.000000E+99

> <Gold.Protein.RotatedTorsions>
[ 6907 6896 6895 6894 ] final   -6.68 input  -60.11 | X-H torsion
[ 7974 7965 7964 7962 ] final    9.52 input  175.53 | X-H torsion
[ 8008 7997 7996 7995 ] final   55.23 input   59.86 | X-H torsion
[ 10167 10162 10161 10158 ] final  173.62 input  -65.29 | X-H torsion
[ 10718 10713 10712 10709 ] final  -23.73 input   66.30 | X-H torsion
[ 10763 10752 10751 10750 ] final  -35.65 input  -60.55 | X-H torsion
[ 11005 11000 10999 10996 ] final -114.14 input  -57.11 | X-H torsion

> <Gold.Protein.ActiveResidues>
 VAL166  LYS551  ARG553  GLY616  TRP617  ASP618  TYR619  PRO620  LYS621  CYS622 
 ASP623  PHE694  ASN695  SER759  ASP760  ASP761  ALA762  ILE779  LEU786  VAL792 
 PHE793  MET794  SER795  GLU796  ALA797  LYS798  CYS799  TRP800  GLU811  SER814 

> <Gold.Protein.RotatedAtoms>
  151.4617  135.1039  159.9726 H   0  0  0  0  0  0  0  0  0  0  0  0  # atno 6907 bound_to 6896
  152.4850  133.8347  159.7132 H   0  0  0  0  0  0  0  0  0  0  0  0  # atno 6908 bound_to 6896
  150.8953  133.7129  159.2920 H   0  0  0  0  0  0  0  0  0  0  0  0  # atno 6909 bound_to 6896
  146.2402  139.9771  142.8440 H   0  0  0  0  0  0  0  0  0  0  0  0  # atno 7974 bound_to 7965
  155.4976  140.3473  155.4365 H   0  0  0  0  0  0  0  0  0  0  0  0  # atno 8008 bound_to 7997
  156.0935  140.1417  156.9589 H   0  0  0  0  0  0  0  0  0  0  0  0  # atno 8009 bound_to 7997
  154.4649  140.0921  156.6971 H   0  0  0  0  0  0  0  0  0  0  0  0  # atno 8010 bound_to 7997
  139.5114  144.3240  152.0175 H   0  0  0  0  0  0  0  0  0  0  0  0  # atno 10167 bound_to 10162
  156.4871  130.4558  149.6777 H   0  0  0  0  0  0  0  0  0  0  0  0  # atno 10718 bound_to 10713
  153.8668  135.6835  153.4778 H   0  0  0  0  0  0  0  0  0  0  0  0  # atno 10763 bound_to 10752
  153.1310  135.4698  154.9347 H   0  0  0  0  0  0  0  0  0  0  0  0  # atno 10764 bound_to 10752
  154.7733  135.3245  154.8094 H   0  0  0  0  0  0  0  0  0  0  0  0  # atno 10765 bound_to 10752
  141.0570  133.9596  157.2735 H   0  0  0  0  0  0  0  0  0  0  0  0  # atno 11005 bound_to 11000
  145.1627  140.9681  143.4368 LP  0  0  0  0  0  0  0  0  0  0  0  0  # atno 17320 bound_to 7965
  145.0101  139.3517  143.6124 LP  0  0  0  0  0  0  0  0  0  0  0  0  # atno 17321 bound_to 7965
  140.2681  144.3994  150.6161 LP  0  0  0  0  0  0  0  0  0  0  0  0  # atno 17342 bound_to 10162
  140.6108  143.2169  151.6889 LP  0  0  0  0  0  0  0  0  0  0  0  0  # atno 17343 bound_to 10162
  156.3463  130.7408  151.2361 LP  0  0  0  0  0  0  0  0  0  0  0  0  # atno 17370 bound_to 10713
  157.7477  131.0389  150.4527 LP  0  0  0  0  0  0  0  0  0  0  0  0  # atno 17371 bound_to 10713
  139.9399  135.0192  156.8675 LP  0  0  0  0  0  0  0  0  0  0  0  0  # atno 17394 bound_to 11000
  140.5943  134.0232  155.7512 LP  0  0  0  0  0  0  0  0  0  0  0  0  # atno 17395 bound_to 11000

$$$$
