AV-unprocessed.smi:2883|AV-procd|sdf|11076|dock6
  -GOLD-   2272015543D 1   1.00000     0.00000
 Structure written by MMmdl.
 40 42  0  0  0  0  0  0  0  0  2 V2000
  147.1029  140.7254  154.7856 C   0  0  0  0  0  0  0  0  0  0  0  0
  147.5882  139.3659  154.2311 C   0  0  0  0  0  0  0  0  0  0  0  0
  146.8501  138.2190  154.9448 C   0  0  0  0  0  0  0  0  0  0  0  0
  147.2282  139.3575  152.7277 C   0  0  0  0  0  0  0  0  0  0  0  0
  149.1015  139.2028  154.4318 C   0  0  0  0  0  0  0  0  0  0  0  0
  149.7107  138.0948  153.9729 N   0  3  0  0  0  0  0  0  0  0  0  0
  151.0235  137.8820  154.2333 C   0  0  0  0  0  0  0  0  0  0  0  0
  151.7522  138.7978  155.0134 C   0  0  0  0  0  0  0  0  0  0  0  0
  151.0507  139.9111  155.5041 C   0  0  0  0  0  0  0  0  0  0  0  0
  151.7155  140.8512  156.3032 N   0  0  0  0  0  0  0  0  0  0  0  0
  151.4192  140.9681  157.7283 C   0  0  1  0  0  0  0  0  0  0  0  0
  152.6063  140.5999  158.6212 C   0  0  0  0  0  0  0  0  0  0  0  0
  152.7215  141.8399  159.5192 C   0  0  1  0  0  0  0  0  0  0  0  0
  153.3366  143.0255  158.7648 C   0  0  0  0  0  0  0  0  0  0  0  0
  152.1929  143.4286  157.8362 C   0  0  0  0  0  0  0  0  0  0  0  0
  151.1072  142.4020  158.2025 C   0  0  2  0  0  0  0  0  0  0  0  0
  151.3666  142.2529  159.5877 O   0  0  0  0  0  0  0  0  0  0  0  0
  149.7407  140.0792  155.2219 N   0  0  0  0  0  0  0  0  0  0  0  0
  146.0365  140.8687  154.6080 H   0  0  0  0  0  0  0  0  0  0  0  0
  147.6275  141.5575  154.3145 H   0  0  0  0  0  0  0  0  0  0  0  0
  147.2562  140.8065  155.8625 H   0  0  0  0  0  0  0  0  0  0  0  0
  147.0591  138.2189  156.0153 H   0  0  0  0  0  0  0  0  0  0  0  0
  147.1521  137.2475  154.5518 H   0  0  0  0  0  0  0  0  0  0  0  0
  145.7697  138.3024  154.8212 H   0  0  0  0  0  0  0  0  0  0  0  0
  146.1600  139.5168  152.5755 H   0  0  0  0  0  0  0  0  0  0  0  0
  147.4748  138.4070  152.2532 H   0  0  0  0  0  0  0  0  0  0  0  0
  147.7557  140.1449  152.1879 H   0  0  0  0  0  0  0  0  0  0  0  0
  151.4459  136.9799  153.8154 H   0  0  0  0  0  0  0  0  0  0  0  0
  152.7989  138.6420  155.2309 H   0  0  0  0  0  0  0  0  0  0  0  0
  152.2353  141.5955  155.8615 H   0  0  0  0  0  0  0  0  0  0  0  0
  150.5833  140.3132  157.9788 H   0  0  0  0  0  0  0  0  0  0  0  0
  152.3735  139.7126  159.2110 H   0  0  0  0  0  0  0  0  0  0  0  0
  153.5291  140.4070  158.0721 H   0  0  0  0  0  0  0  0  0  0  0  0
  153.1831  141.6447  160.4874 H   0  0  0  0  0  0  0  0  0  0  0  0
  153.5780  143.8388  159.4501 H   0  0  0  0  0  0  0  0  0  0  0  0
  154.2443  142.7508  158.2267 H   0  0  0  0  0  0  0  0  0  0  0  0
  151.8569  144.4395  158.0691 H   0  0  0  0  0  0  0  0  0  0  0  0
  152.4701  143.4027  156.7823 H   0  0  0  0  0  0  0  0  0  0  0  0
  150.0935  142.7342  157.9761 H   0  0  0  0  0  0  0  0  0  0  0  0
  149.1916  137.4113  153.4211 H   0  0  0  0  0  0  0  0  0  0  0  0
  1  2  1  0  0  0  0
  1 19  1  0  0  0  0
  1 20  1  0  0  0  0
  1 21  1  0  0  0  0
  2  3  1  0  0  0  0
  2  4  1  0  0  0  0
  2  5  1  0  0  0  0
  3 22  1  0  0  0  0
  3 23  1  0  0  0  0
  3 24  1  0  0  0  0
  4 25  1  0  0  0  0
  4 26  1  0  0  0  0
  4 27  1  0  0  0  0
  5 18  1  0  0  0  0
  5  6  2  0  0  0  0
  6  7  1  0  0  0  0
  6 40  1  0  0  0  0
  7  8  2  0  0  0  0
  7 28  1  0  0  0  0
  8  9  1  0  0  0  0
  8 29  1  0  0  0  0
  9 10  1  0  0  0  0
  9 18  2  0  0  0  0
 10 11  1  0  0  0  0
 10 30  1  0  0  0  0
 11 16  1  0  0  0  0
 11 12  1  0  0  0  0
 11 31  1  0  0  0  0
 12 13  1  0  0  0  0
 12 32  1  0  0  0  0
 12 33  1  0  0  0  0
 13 17  1  0  0  0  0
 13 14  1  0  0  0  0
 13 34  1  0  0  0  0
 14 15  1  0  0  0  0
 14 35  1  0  0  0  0
 14 36  1  0  0  0  0
 15 16  1  0  0  0  0
 15 37  1  0  0  0  0
 15 38  1  0  0  0  0
 16 17  1  0  0  0  0
 16 39  1  0  0  0  0
M  CHG  1   6   1
M  END
> <s_m_source_file>
AV-unprocessed.smi

> <i_m_source_file_index>
2883

> <i_lp_mmshare_version>
43012

> <i_f3d_flags>
0

> <s_epik_input>
W0NIM11DKFtDSDNdKShbQ0gzXSljMW5bY0hdW2NIXWMobjEpW05IXVtDQEhdKFtDSDJdW0NAQEhdMjMpW0NAQEhdKE8zKVtDSDJdW0NIMl0y

> <s_epik_cmdline>
J2VwaWtfcHl0aG9uJywgJy1waCcsICc3LjAnLCAnLXRuJywgJzgnLCAnLW1hJywgJzIwMCcsICctbWV0YWxfYmluZGluZycsICctaW1hZScsICc8aW5maWxlLm1hZT4nLCAnLW9tYWUnLCAnPG91dGZpbGUubWFlPic=

> <r_lp_tautomer_probability>
0.999336

> <r_epik_Ionization_Penalty>
0.371831

> <r_epik_Ionization_Penalty_Charging>
0.371821

> <r_epik_Ionization_Penalty_Neutral>
1.06897e-05

> <r_epik_State_Penalty>
0.369311

> <r_epik_Charging_Adjusted_Penalty>
0.741132

> <i_epik_Tot_Q>
1

> <i_epik_Tot_abs_Q>
1

> <r_epik_Metal_State_Penalty>
0.621338

> <b_epik_Metal_Only>
0

> <s_lp_Force_Field>
OPLS_2005

> <r_lp_Energy>
39.2266

> <b_lp_Chiralities_Consistent>
1

> <s_lp_Variant>
AV-unprocessed.smi:2883-2

> <Gold.Version>
5.8.1

> <Gold.Id.Protein>
6NUR|6NUR_protein|mol2

> <Gold.PLP.Fitness>
39.0911

> <Gold.PLP.PLP>
-34.6644

> <Gold.PLP.part.hbond>
-1.9740

> <Gold.PLP.part.metal>
0.0000

> <Gold.PLP.part.buried>
-2.3250

> <Gold.PLP.part.nonpolar>
-30.5842

> <Gold.PLP.part.repulsive>
0.2648

> <Gold.PLP.ligand.clash>
0.0000

> <Gold.PLP.ligand.torsion>
0.8585

> <Gold.PLP.Chemscore.Hbond>
2.0000

> <Gold.PLP.Chemscore.CHOScore>
0.0000

> <Gold.PLP.Chemscore.Metal>
0.0000

> <Gold.Chemscore.Hbonds>
donor molecule, donor type, donor heavy atom, donor atom, acceptor molecule, acceptor atom, score
      L1  H     6    40       P1  7948  2.00

> <Gold.PLP.Chemscore.Internal.Correction>
0.1437

> <Gold.Rescore>
     Score         DG    S(hbond)    S(metal)    S(lipo)     H(rot)  DE(clash)    DE(int)     intcor
     14.77     -16.14       0.98        0.00      88.53       1.16       0.28       1.09       ----

> <Gold.Chemscore.Fitness>
14.7740

> <Gold.Chemscore.DG>
-16.1380

> <Gold.Chemscore.ZeroCoef>
-5.4800

> <Gold.Chemscore.Hbond>
0.9810

> <Gold.Chemscore.Metal>
0.0000

> <Gold.Chemscore.Lipo>
88.5265

> <Gold.Chemscore.Internal_Hbond>
0.0000

> <Gold.Chemscore.DEClash>
0.2757

> <Gold.Chemscore.DEInternal>
1.0883

> <Gold.Chemscore.Rot>
1.1626

> <Gold.Chemscore.Internal.Correction>
   9.000000E+99

> <Gold.Chemscore.Hbonds>
donor molecule, donor type, donor heavy atom, donor atom, acceptor molecule, acceptor atom, score
      L1  H     6    40       P1  7948  0.94

> <Gold.Chemscore.Hbond.Weighted>
-3.2767

> <Gold.Chemscore.Metal.Weighted>
-0.0000

> <Gold.Chemscore.Lipo.Weighted>
-10.3576

> <Gold.Chemscore.Internal_Hbond.Weighted>
0.0000

> <Gold.Chemscore.DEClash.Weighted>
0.2757

> <Gold.Chemscore.DEInternal.Weighted>
1.0883

> <Gold.Chemscore.Rot.Weighted>
2.9763

> <Gold.Chemscore.Internal.Correction.Weighted>
   9.000000E+99

> <Gold.Protein.RotatedTorsions>
[ 6907 6896 6895 6894 ] final  -15.20 input  -60.11 | X-H torsion
[ 7974 7965 7964 7962 ] final   32.29 input  175.53 | X-H torsion
[ 8008 7997 7996 7995 ] final -112.72 input   59.86 | X-H torsion
[ 10167 10162 10161 10158 ] final  159.06 input  -65.29 | X-H torsion
[ 10718 10713 10712 10709 ] final  -72.62 input   66.30 | X-H torsion
[ 10763 10752 10751 10750 ] final   91.09 input  -60.55 | X-H torsion
[ 11005 11000 10999 10996 ] final   32.05 input  -57.11 | X-H torsion

> <Gold.Protein.ActiveResidues>
 VAL166  LYS551  ARG553  GLY616  TRP617  ASP618  TYR619  PRO620  LYS621  CYS622 
 ASP623  PHE694  ASN695  SER759  ASP760  ASP761  ALA762  ILE779  LEU786  VAL792 
 PHE793  MET794  SER795  GLU796  ALA797  LYS798  CYS799  TRP800  GLU811  SER814 

> <Gold.Protein.RotatedAtoms>
  151.3276  135.0834  159.9327 H   0  0  0  0  0  0  0  0  0  0  0  0  # atno 6907 bound_to 6896
  152.5242  133.9575  159.7711 H   0  0  0  0  0  0  0  0  0  0  0  0  # atno 6908 bound_to 6896
  150.9908  133.6099  159.2738 H   0  0  0  0  0  0  0  0  0  0  0  0  # atno 6909 bound_to 6896
  146.1496  139.6546  142.9108 H   0  0  0  0  0  0  0  0  0  0  0  0  # atno 7974 bound_to 7965
  155.0096  140.0393  157.2394 H   0  0  0  0  0  0  0  0  0  0  0  0  # atno 8008 bound_to 7997
  154.7472  140.2760  155.6300 H   0  0  0  0  0  0  0  0  0  0  0  0  # atno 8009 bound_to 7997
  156.2877  140.2654  156.2215 H   0  0  0  0  0  0  0  0  0  0  0  0  # atno 8010 bound_to 7997
  139.4830  144.4766  151.8503 H   0  0  0  0  0  0  0  0  0  0  0  0  # atno 10167 bound_to 10162
  156.0313  130.4376  150.2620 H   0  0  0  0  0  0  0  0  0  0  0  0  # atno 10718 bound_to 10713
  153.2045  135.4410  155.0306 H   0  0  0  0  0  0  0  0  0  0  0  0  # atno 10763 bound_to 10752
  154.8166  135.3318  154.7162 H   0  0  0  0  0  0  0  0  0  0  0  0  # atno 10764 bound_to 10752
  153.7604  135.6992  153.4982 H   0  0  0  0  0  0  0  0  0  0  0  0  # atno 10765 bound_to 10752
  140.2775  134.3011  155.7810 H   0  0  0  0  0  0  0  0  0  0  0  0  # atno 11005 bound_to 11000
  145.4855  141.0438  143.2622 LP  0  0  0  0  0  0  0  0  0  0  0  0  # atno 17320 bound_to 7965
  144.7888  139.6372  143.7122 LP  0  0  0  0  0  0  0  0  0  0  0  0  # atno 17321 bound_to 7965
  140.4238  144.2207  150.5887 LP  0  0  0  0  0  0  0  0  0  0  0  0  # atno 17342 bound_to 10162
  140.4847  143.2367  151.8905 LP  0  0  0  0  0  0  0  0  0  0  0  0  # atno 17343 bound_to 10162
  157.0722  131.0120  151.3186 LP  0  0  0  0  0  0  0  0  0  0  0  0  # atno 17370 bound_to 10713
  157.4991  130.7869  149.7586 LP  0  0  0  0  0  0  0  0  0  0  0  0  # atno 17371 bound_to 10713
  141.2168  133.7505  156.9430 LP  0  0  0  0  0  0  0  0  0  0  0  0  # atno 17394 bound_to 11000
  140.1314  134.9353  157.2343 LP  0  0  0  0  0  0  0  0  0  0  0  0  # atno 17395 bound_to 11000

$$$$
