AV-unprocessed.smi:1033|AV-procd|sdf|4503|dock3
  -GOLD-   22720 2503D 1   1.00000     0.00000
 Structure written by MMmdl.
 57 59  0  0  0  0  0  0  0  0  3 V2000
  153.2097  143.2389  160.6417 C   0  0  0  0  0  0  0  0  0  0  0  0
  152.6445  142.4967  159.4424 C   0  0  0  0  0  0  0  0  0  0  0  0
  151.8466  143.2124  158.5210 C   0  0  0  0  0  0  0  0  0  0  0  0
  151.3449  142.5065  157.4341 C   0  0  0  0  0  0  0  0  0  0  0  0
  150.5394  142.9154  156.3688 N   0  3  0  0  0  0  0  0  0  0  0  0
  150.3077  141.8579  155.5423 C   0  0  0  0  0  0  0  0  0  0  0  0
  150.9529  140.7803  156.0656 N   0  0  0  0  0  0  0  0  0  0  0  0
  151.0282  139.3971  155.5783 C   0  0  0  0  0  0  0  0  0  0  0  0
  150.1006  139.1335  154.3763 C   0  0  1  0  0  0  0  0  0  0  0  0
  150.3386  137.8276  153.8888 O   0  0  0  0  0  0  0  0  0  0  0  0
  148.6166  139.2458  154.7768 C   0  0  0  0  0  0  0  0  0  0  0  0
  147.7225  139.7867  153.7451 N   0  0  0  0  0  0  0  0  0  0  0  0
  147.0119  138.7394  153.0120 C   0  0  0  0  0  0  0  0  0  0  0  0
  145.9178  138.0449  153.8484 C   0  0  0  0  0  0  0  0  0  0  0  0
  144.9386  139.0416  154.3533 N   0  3  0  0  0  0  0  0  0  0  0  0
  143.8274  138.4095  155.1096 C   0  0  0  0  0  0  0  0  0  0  0  0
  142.6563  137.9824  154.2027 C   0  0  2  0  0  0  0  0  0  0  0  0
  143.1126  137.0480  153.0750 C   0  0  0  0  0  0  0  0  0  0  0  0
  142.0784  139.1309  153.6155 O   0  0  0  0  0  0  0  0  0  0  0  0
  145.6308  140.1252  155.1018 C   0  0  0  0  0  0  0  0  0  0  0  0
  146.7369  140.7568  154.2316 C   0  0  0  0  0  0  0  0  0  0  0  0
  151.6130  141.1369  157.2455 C   0  0  0  0  0  0  0  0  0  0  0  0
  152.3960  140.4159  158.1435 C   0  0  0  0  0  0  0  0  0  0  0  0
  152.9146  141.1158  159.2563 C   0  0  0  0  0  0  0  0  0  0  0  0
  153.7717  140.3560  160.2544 C   0  0  0  0  0  0  0  0  0  0  0  0
  152.9231  144.2909  160.6318 H   0  0  0  0  0  0  0  0  0  0  0  0
  154.2990  143.1910  160.6433 H   0  0  0  0  0  0  0  0  0  0  0  0
  152.8417  142.8019  161.5703 H   0  0  0  0  0  0  0  0  0  0  0  0
  151.6357  144.2632  158.6566 H   0  0  0  0  0  0  0  0  0  0  0  0
  149.7163  141.8702  154.6379 H   0  0  0  0  0  0  0  0  0  0  0  0
  152.0666  139.2030  155.3057 H   0  0  0  0  0  0  0  0  0  0  0  0
  150.7956  138.7274  156.4071 H   0  0  0  0  0  0  0  0  0  0  0  0
  150.3454  139.8434  153.5879 H   0  0  0  0  0  0  0  0  0  0  0  0
  149.6692  137.6184  153.2549 H   0  0  0  0  0  0  0  0  0  0  0  0
  148.2717  138.2515  155.0648 H   0  0  0  0  0  0  0  0  0  0  0  0
  148.5421  139.8482  155.6814 H   0  0  0  0  0  0  0  0  0  0  0  0
  146.5525  139.1766  152.1242 H   0  0  0  0  0  0  0  0  0  0  0  0
  147.7219  137.9986  152.6421 H   0  0  0  0  0  0  0  0  0  0  0  0
  145.4032  137.3122  153.2257 H   0  0  0  0  0  0  0  0  0  0  0  0
  146.3547  137.4951  154.6833 H   0  0  0  0  0  0  0  0  0  0  0  0
  144.1968  137.5283  155.6368 H   0  0  0  0  0  0  0  0  0  0  0  0
  143.4822  139.1004  155.8803 H   0  0  0  0  0  0  0  0  0  0  0  0
  141.8877  137.4698  154.7800 H   0  0  0  0  0  0  0  0  0  0  0  0
  143.5507  136.1342  153.4775 H   0  0  0  0  0  0  0  0  0  0  0  0
  143.8613  137.5234  152.4403 H   0  0  0  0  0  0  0  0  0  0  0  0
  142.2738  136.7579  152.4411 H   0  0  0  0  0  0  0  0  0  0  0  0
  142.7112  139.5279  153.0356 H   0  0  0  0  0  0  0  0  0  0  0  0
  144.9203  140.9024  155.3798 H   0  0  0  0  0  0  0  0  0  0  0  0
  146.0433  139.7352  156.0328 H   0  0  0  0  0  0  0  0  0  0  0  0
  147.2236  141.5631  154.7778 H   0  0  0  0  0  0  0  0  0  0  0  0
  146.2672  141.2381  153.3727 H   0  0  0  0  0  0  0  0  0  0  0  0
  152.6014  139.3655  158.0006 H   0  0  0  0  0  0  0  0  0  0  0  0
  153.8704  139.3058  159.9773 H   0  0  0  0  0  0  0  0  0  0  0  0
  153.3287  140.3971  161.2498 H   0  0  0  0  0  0  0  0  0  0  0  0
  154.7733  140.7836  160.3024 H   0  0  0  0  0  0  0  0  0  0  0  0
  144.5235  139.4661  153.5358 H   0  0  0  0  0  0  0  0  0  0  0  0
  150.1725  143.8456  156.2144 H   0  0  0  0  0  0  0  0  0  0  0  0
  1  2  1  0  0  0  0
  1 26  1  0  0  0  0
  1 27  1  0  0  0  0
  1 28  1  0  0  0  0
  2 24  1  0  0  0  0
  2  3  2  0  0  0  0
  3  4  1  0  0  0  0
  3 29  1  0  0  0  0
  4 22  2  0  0  0  0
  4  5  1  0  0  0  0
  5  6  2  0  0  0  0
  5 57  1  0  0  0  0
  6  7  1  0  0  0  0
  6 30  1  0  0  0  0
  7  8  1  0  0  0  0
  7 22  1  0  0  0  0
  8  9  1  0  0  0  0
  8 31  1  0  0  0  0
  8 32  1  0  0  0  0
  9 10  1  0  0  0  0
  9 11  1  0  0  0  0
  9 33  1  0  0  0  0
 10 34  1  0  0  0  0
 11 12  1  0  0  0  0
 11 35  1  0  0  0  0
 11 36  1  0  0  0  0
 12 21  1  0  0  0  0
 12 13  1  0  0  0  0
 13 14  1  0  0  0  0
 13 37  1  0  0  0  0
 13 38  1  0  0  0  0
 14 15  1  0  0  0  0
 14 39  1  0  0  0  0
 14 40  1  0  0  0  0
 15 16  1  0  0  0  0
 15 20  1  0  0  0  0
 15 56  1  0  0  0  0
 16 17  1  0  0  0  0
 16 41  1  0  0  0  0
 16 42  1  0  0  0  0
 17 18  1  0  0  0  0
 17 19  1  0  0  0  0
 17 43  1  0  0  0  0
 18 44  1  0  0  0  0
 18 45  1  0  0  0  0
 18 46  1  0  0  0  0
 19 47  1  0  0  0  0
 20 21  1  0  0  0  0
 20 48  1  0  0  0  0
 20 49  1  0  0  0  0
 21 50  1  0  0  0  0
 21 51  1  0  0  0  0
 22 23  1  0  0  0  0
 23 24  2  0  0  0  0
 23 52  1  0  0  0  0
 24 25  1  0  0  0  0
 25 53  1  0  0  0  0
 25 54  1  0  0  0  0
 25 55  1  0  0  0  0
M  CHG  1   5   1
M  CHG  1  15   1
M  END
> <s_m_source_file>
AV-unprocessed.smi

> <i_m_source_file_index>
1033

> <i_lp_mmshare_version>
43012

> <i_f3d_flags>
0

> <s_epik_input>
W0NIM11jKFtjSF0xKWMoW0NIM10pW2NIXWMoYzEyKW4oW2NIXW4yKVtDSDJdW0NASF0oW09IXSlbQ0gyXU4zW0NIMl1bQ0gyXU4oW0NIMl1bQ0gyXTMpW0NIMl1bQ0BIXShbQ0gzXSlbT0hd

> <s_epik_cmdline>
J2VwaWtfcHl0aG9uJywgJy1waCcsICc3LjAnLCAnLXRuJywgJzgnLCAnLW1hJywgJzIwMCcsICctbWV0YWxfYmluZGluZycsICctaW1hZScsICc8aW5maWxlLm1hZT4nLCAnLW9tYWUnLCAnPG91dGZpbGUubWFlPic=

> <r_epik_Ionization_Penalty>
1.28617

> <r_epik_Ionization_Penalty_Charging>
1.23646

> <r_epik_Ionization_Penalty_Neutral>
0.0497112

> <r_epik_State_Penalty>
1.79157

> <r_epik_Charging_Adjusted_Penalty>
3.02803

> <i_epik_Tot_Q>
2

> <i_epik_Tot_abs_Q>
2

> <r_epik_Metal_State_Penalty>
5.81739

> <b_epik_Metal_Only>
0

> <s_lp_Force_Field>
OPLS_2005

> <r_lp_Energy>
41.025

> <b_lp_Chiralities_Consistent>
1

> <s_lp_Variant>
AV-unprocessed.smi:1033-14

> <Gold.Version>
5.8.1

> <Gold.Id.Protein>
6NUR|6NUR_protein|mol2

> <Gold.PLP.Fitness>
59.7599

> <Gold.PLP.PLP>
-44.5526

> <Gold.PLP.part.hbond>
-4.8779

> <Gold.PLP.part.metal>
0.0000

> <Gold.PLP.part.buried>
-6.3661

> <Gold.PLP.part.nonpolar>
-34.8861

> <Gold.PLP.part.repulsive>
0.2612

> <Gold.PLP.ligand.clash>
0.0000

> <Gold.PLP.ligand.torsion>
1.5071

> <Gold.PLP.Chemscore.Hbond>
5.9920

> <Gold.PLP.Chemscore.CHOScore>
0.0000

> <Gold.PLP.Chemscore.Metal>
0.0000

> <Gold.Chemscore.Hbonds>
donor molecule, donor type, donor heavy atom, donor atom, acceptor molecule, acceptor atom, score
      L1  H     5    57       P1  8028  1.86
      L1  H    10    34       P1  7948  0.86
      L1  H    15    56       P1 10175  2.00
      L1  H    19    47       P1 10175  0.65

> <Gold.PLP.Chemscore.Internal.Correction>
0.2456

> <Gold.Rescore>
     Score         DG    S(hbond)    S(metal)    S(lipo)     H(rot)  DE(clash)    DE(int)     intcor
     20.69     -22.33       3.66        0.00     108.40       3.15       0.02       1.62       ----

> <Gold.Chemscore.Fitness>
20.6896

> <Gold.Chemscore.DG>
-22.3293

> <Gold.Chemscore.ZeroCoef>
-5.4800

> <Gold.Chemscore.Hbond>
3.6604

> <Gold.Chemscore.Metal>
0.0000

> <Gold.Chemscore.Lipo>
108.4033

> <Gold.Chemscore.Internal_Hbond>
0.0000

> <Gold.Chemscore.DEClash>
0.0222

> <Gold.Chemscore.DEInternal>
1.6175

> <Gold.Chemscore.Rot>
3.1483

> <Gold.Chemscore.Internal.Correction>
   9.000000E+99

> <Gold.Chemscore.Hbonds>
donor molecule, donor type, donor heavy atom, donor atom, acceptor molecule, acceptor atom, score
      L1  H     5    57       P1  8028  0.89
      L1  H    10    34       P1  7948  0.60
      L1  H    15    56       P1 10175  1.00
      L1  H    19    47       P1 10175  0.64

> <Gold.Chemscore.Hbond.Weighted>
-12.2258

> <Gold.Chemscore.Metal.Weighted>
-0.0000

> <Gold.Chemscore.Lipo.Weighted>
-12.6832

> <Gold.Chemscore.Internal_Hbond.Weighted>
0.0000

> <Gold.Chemscore.DEClash.Weighted>
0.0222

> <Gold.Chemscore.DEInternal.Weighted>
1.6175

> <Gold.Chemscore.Rot.Weighted>
8.0597

> <Gold.Chemscore.Internal.Correction.Weighted>
   9.000000E+99

> <Gold.Protein.RotatedTorsions>
[ 6907 6896 6895 6894 ] final -133.50 input  -60.11 | X-H torsion
[ 7974 7965 7964 7962 ] final  -76.00 input  175.53 | X-H torsion
[ 8008 7997 7996 7995 ] final  -53.39 input   59.86 | X-H torsion
[ 10167 10162 10161 10158 ] final  -13.03 input  -65.29 | X-H torsion
[ 10718 10713 10712 10709 ] final   70.37 input   66.30 | X-H torsion
[ 10763 10752 10751 10750 ] final  146.73 input  -60.55 | X-H torsion
[ 11005 11000 10999 10996 ] final  -26.84 input  -57.11 | X-H torsion

> <Gold.Protein.ActiveResidues>
 VAL166  LYS551  ARG553  GLY616  TRP617  ASP618  TYR619  PRO620  LYS621  CYS622 
 ASP623  PHE694  ASN695  SER759  ASP760  ASP761  ALA762  ILE779  LEU786  VAL792 
 PHE793  MET794  SER795  GLU796  ALA797  LYS798  CYS799  TRP800  GLU811  SER814 

> <Gold.Protein.RotatedAtoms>
  150.9748  133.6306  159.2731 H   0  0  0  0  0  0  0  0  0  0  0  0  # atno 6907 bound_to 6896
  151.3582  135.0897  159.9435 H   0  0  0  0  0  0  0  0  0  0  0  0  # atno 6908 bound_to 6896
  152.5195  133.9327  159.7643 H   0  0  0  0  0  0  0  0  0  0  0  0  # atno 6909 bound_to 6896
  145.6186  140.9369  143.1150 H   0  0  0  0  0  0  0  0  0  0  0  0  # atno 7974 bound_to 7965
  154.4132  140.1201  156.5145 H   0  0  0  0  0  0  0  0  0  0  0  0  # atno 8008 bound_to 7997
  155.6765  140.3496  155.4819 H   0  0  0  0  0  0  0  0  0  0  0  0  # atno 8009 bound_to 7997
  155.9588  140.1119  157.0903 H   0  0  0  0  0  0  0  0  0  0  0  0  # atno 8010 bound_to 7997
  140.7174  143.5469  150.9345 H   0  0  0  0  0  0  0  0  0  0  0  0  # atno 10167 bound_to 10162
  157.6396  130.9474  150.0641 H   0  0  0  0  0  0  0  0  0  0  0  0  # atno 10718 bound_to 10713
  154.0267  135.2901  155.3374 H   0  0  0  0  0  0  0  0  0  0  0  0  # atno 10763 bound_to 10752
  154.7013  135.5187  153.8534 H   0  0  0  0  0  0  0  0  0  0  0  0  # atno 10764 bound_to 10752
  153.0658  135.6630  154.0484 H   0  0  0  0  0  0  0  0  0  0  0  0  # atno 10765 bound_to 10752
  140.9065  133.7489  156.0613 H   0  0  0  0  0  0  0  0  0  0  0  0  # atno 11005 bound_to 11000
  144.7240  139.7935  143.7371 LP  0  0  0  0  0  0  0  0  0  0  0  0  # atno 17320 bound_to 7965
  146.1449  139.4515  143.0085 LP  0  0  0  0  0  0  0  0  0  0  0  0  # atno 17321 bound_to 7965
  139.9193  143.6625  152.3100 LP  0  0  0  0  0  0  0  0  0  0  0  0  # atno 17342 bound_to 10162
  139.7036  144.7631  151.1230 LP  0  0  0  0  0  0  0  0  0  0  0  0  # atno 17343 bound_to 10162
  156.1665  130.3645  149.9225 LP  0  0  0  0  0  0  0  0  0  0  0  0  # atno 17370 bound_to 10713
  156.7211  130.9007  151.3618 LP  0  0  0  0  0  0  0  0  0  0  0  0  # atno 17371 bound_to 10713
  140.8164  134.3340  157.5396 LP  0  0  0  0  0  0  0  0  0  0  0  0  # atno 17394 bound_to 11000
  139.8750  134.9284  156.3449 LP  0  0  0  0  0  0  0  0  0  0  0  0  # atno 17395 bound_to 11000

$$$$
