AV-unprocessed.smi:3085|AV-procd|sdf|11758|dock1
  -GOLD-   2272017143D 1   1.00000     0.00000
 Structure written by MMmdl.
 28 29  0  0  0  0  0  0  0  0  2 V2000
  149.8478  133.9182  154.4668 C   0  0  0  0  0  0  0  0  0  0  0  0
  148.4928  134.5305  154.8387 C   0  0  0  0  0  0  0  0  0  0  0  0
  147.3798  134.0269  153.9795 C   0  0  0  0  0  0  0  0  0  0  0  0
  147.3503  134.2408  152.6560 N   0  0  0  0  0  0  0  0  0  0  0  0
  146.2245  133.6180  152.2764 C   0  0  0  0  0  0  0  0  0  0  0  0
  145.7682  133.6026  150.8514 C   0  0  2  0  0  0  0  0  0  0  0  0
  144.3887  134.2649  150.6690 C   0  0  0  0  0  0  0  0  0  0  0  0
  143.9436  134.1275  149.2685 N   0  3  0  0  0  0  0  0  0  0  0  0
  143.9494  132.7159  148.8356 C   0  0  0  0  0  0  0  0  0  0  0  0
  145.3357  132.0932  149.0778 C   0  0  0  0  0  0  0  0  0  0  0  0
  145.6956  132.2371  150.4480 O   0  0  0  0  0  0  0  0  0  0  0  0
  145.5757  133.0445  153.2956 N   0  0  0  0  0  0  0  0  0  0  0  0
  146.3410  133.3100  154.4180 N   0  0  0  0  0  0  0  0  0  0  0  0
  148.0160  134.7440  152.0876 H   0  0  0  0  0  0  0  0  0  0  0  0
  150.6387  134.3063  155.1086 H   0  0  0  0  0  0  0  0  0  0  0  0
  150.1133  134.1474  153.4344 H   0  0  0  0  0  0  0  0  0  0  0  0
  149.8326  132.8334  154.5767 H   0  0  0  0  0  0  0  0  0  0  0  0
  148.2591  134.3051  155.8799 H   0  0  0  0  0  0  0  0  0  0  0  0
  148.5408  135.6171  154.7599 H   0  0  0  0  0  0  0  0  0  0  0  0
  146.5145  134.1174  150.2426 H   0  0  0  0  0  0  0  0  0  0  0  0
  143.6508  133.7969  151.3225 H   0  0  0  0  0  0  0  0  0  0  0  0
  144.4294  135.3217  150.9340 H   0  0  0  0  0  0  0  0  0  0  0  0
  143.0109  134.5039  149.1737 H   0  0  0  0  0  0  0  0  0  0  0  0
  143.1885  132.1665  149.3918 H   0  0  0  0  0  0  0  0  0  0  0  0
  143.6808  132.6590  147.7805 H   0  0  0  0  0  0  0  0  0  0  0  0
  145.3202  131.0326  148.8263 H   0  0  0  0  0  0  0  0  0  0  0  0
  146.0894  132.5601  148.4418 H   0  0  0  0  0  0  0  0  0  0  0  0
  144.5721  134.6505  148.6755 H   0  0  0  0  0  0  0  0  0  0  0  0
  1  2  1  0  0  0  0
  1 15  1  0  0  0  0
  1 16  1  0  0  0  0
  1 17  1  0  0  0  0
  2 18  1  0  0  0  0
  2 19  1  0  0  0  0
  2  3  1  0  0  0  0
  3  4  1  0  0  0  0
  3 13  2  0  0  0  0
  4 14  1  0  0  0  0
  4  5  1  0  0  0  0
  5 12  2  0  0  0  0
  5  6  1  0  0  0  0
  6 11  1  0  0  0  0
  6  7  1  0  0  0  0
  6 20  1  0  0  0  0
  7  8  1  0  0  0  0
  7 21  1  0  0  0  0
  7 22  1  0  0  0  0
  8  9  1  0  0  0  0
  8 23  1  0  0  0  0
  8 28  1  0  0  0  0
  9 10  1  0  0  0  0
  9 24  1  0  0  0  0
  9 25  1  0  0  0  0
 10 11  1  0  0  0  0
 10 26  1  0  0  0  0
 10 27  1  0  0  0  0
 12 13  1  0  0  0  0
M  CHG  1   8   1
M  END
> <s_m_source_file>
AV-unprocessed.smi

> <i_m_source_file_index>
3085

> <i_lp_mmshare_version>
43012

> <i_f3d_flags>
0

> <s_epik_input>
W0NIM11bQ0gyXWMxbmMobltuSF0xKVtDQEBIXTJbQ0gyXVtOSF1bQ0gyXVtDSDJdTzI=

> <s_epik_cmdline>
J2VwaWtfcHl0aG9uJywgJy1waCcsICc3LjAnLCAnLXRuJywgJzgnLCAnLW1hJywgJzIwMCcsICctbWV0YWxfYmluZGluZycsICctaW1hZScsICc8aW5maWxlLm1hZT4nLCAnLW9tYWUnLCAnPG91dGZpbGUubWFlPic=

> <r_lp_tautomer_probability>
0.0517155

> <r_epik_Ionization_Penalty>
0.290065

> <r_epik_Ionization_Penalty_Charging>
0.125708

> <r_epik_Ionization_Penalty_Neutral>
0.164357

> <r_epik_State_Penalty>
2.26879

> <r_epik_Charging_Adjusted_Penalty>
2.39449

> <i_epik_Tot_Q>
1

> <i_epik_Tot_abs_Q>
1

> <r_epik_Metal_State_Penalty>
2.49092

> <b_epik_Metal_Only>
0

> <s_lp_Force_Field>
OPLS_2005

> <r_lp_Energy>
12.4164

> <b_lp_Chiralities_Consistent>
1

> <s_lp_Variant>
AV-unprocessed.smi:3085-9

> <Gold.Version>
5.8.1

> <Gold.Id.Protein>
6NUR|6NUR_protein|mol2

> <Gold.PLP.Fitness>
34.1023

> <Gold.PLP.PLP>
-22.1231

> <Gold.PLP.part.hbond>
-3.0000

> <Gold.PLP.part.metal>
0.0000

> <Gold.PLP.part.buried>
-3.2407

> <Gold.PLP.part.nonpolar>
-15.8108

> <Gold.PLP.part.repulsive>
0.4389

> <Gold.PLP.ligand.clash>
0.0000

> <Gold.PLP.ligand.torsion>
0.0113

> <Gold.PLP.Chemscore.Hbond>
4.0000

> <Gold.PLP.Chemscore.CHOScore>
0.0000

> <Gold.PLP.Chemscore.Metal>
0.0000

> <Gold.Chemscore.Hbonds>
donor molecule, donor type, donor heavy atom, donor atom, acceptor molecule, acceptor atom, score
      L1  H     4    14       P1  7948  0.98
      L1  H     8    23       P1 10186  2.00
      L1  H     8    28       P1  7921  1.00

> <Gold.PLP.Chemscore.Internal.Correction>
0.0018

> <Gold.Rescore>
     Score         DG    S(hbond)    S(metal)    S(lipo)     H(rot)  DE(clash)    DE(int)     intcor
     17.31     -17.36       2.87        0.00      48.15       1.30       0.03       0.03       ----

> <Gold.Chemscore.Fitness>
17.3077

> <Gold.Chemscore.DG>
-17.3639

> <Gold.Chemscore.ZeroCoef>
-5.4800

> <Gold.Chemscore.Hbond>
2.8686

> <Gold.Chemscore.Metal>
0.0000

> <Gold.Chemscore.Lipo>
48.1511

> <Gold.Chemscore.Internal_Hbond>
0.0000

> <Gold.Chemscore.DEClash>
0.0299

> <Gold.Chemscore.DEInternal>
0.0263

> <Gold.Chemscore.Rot>
1.3011

> <Gold.Chemscore.Internal.Correction>
   9.000000E+99

> <Gold.Chemscore.Hbonds>
donor molecule, donor type, donor heavy atom, donor atom, acceptor molecule, acceptor atom, score
      L1  H     4    14       P1  7948  0.32
      L1  H     8    23       P1 10186  0.90
      L1  H     8    28       P1  7921  0.97

> <Gold.Chemscore.Hbond.Weighted>
-9.5811

> <Gold.Chemscore.Metal.Weighted>
-0.0000

> <Gold.Chemscore.Lipo.Weighted>
-5.6337

> <Gold.Chemscore.Internal_Hbond.Weighted>
0.0000

> <Gold.Chemscore.DEClash.Weighted>
0.0299

> <Gold.Chemscore.DEInternal.Weighted>
0.0263

> <Gold.Chemscore.Rot.Weighted>
3.3308

> <Gold.Chemscore.Internal.Correction.Weighted>
   9.000000E+99

> <Gold.Protein.RotatedTorsions>
[ 6907 6896 6895 6894 ] final  -53.19 input  -60.11 | X-H torsion
[ 7974 7965 7964 7962 ] final  129.21 input  175.53 | X-H torsion
[ 8008 7997 7996 7995 ] final -137.51 input   59.86 | X-H torsion
[ 10167 10162 10161 10158 ] final  119.10 input  -65.29 | X-H torsion
[ 10718 10713 10712 10709 ] final -162.53 input   66.30 | X-H torsion
[ 10763 10752 10751 10750 ] final  135.97 input  -60.55 | X-H torsion
[ 11005 11000 10999 10996 ] final  110.13 input  -57.11 | X-H torsion

> <Gold.Protein.ActiveResidues>
 VAL166  LYS551  ARG553  GLY616  TRP617  ASP618  TYR619  PRO620  LYS621  CYS622 
 ASP623  PHE694  ASN695  SER759  ASP760  ASP761  ALA762  ILE779  LEU786  VAL792 
 PHE793  MET794  SER795  GLU796  ALA797  LYS798  CYS799  TRP800  GLU811  SER814 

> <Gold.Protein.RotatedAtoms>
  150.8449  134.7754  159.6961 H   0  0  0  0  0  0  0  0  0  0  0  0  # atno 6907 bound_to 6896
  152.4528  134.5354  159.9833 H   0  0  0  0  0  0  0  0  0  0  0  0  # atno 6908 bound_to 6896
  151.5486  133.3383  159.2984 H   0  0  0  0  0  0  0  0  0  0  0  0  # atno 6909 bound_to 6896
  145.0311  139.4045  143.5149 H   0  0  0  0  0  0  0  0  0  0  0  0  # atno 7974 bound_to 7965
  155.4130  140.0513  157.3030 H   0  0  0  0  0  0  0  0  0  0  0  0  # atno 8008 bound_to 7997
  154.4937  140.2130  155.9452 H   0  0  0  0  0  0  0  0  0  0  0  0  # atno 8009 bound_to 7997
  156.1377  140.3160  155.8451 H   0  0  0  0  0  0  0  0  0  0  0  0  # atno 8010 bound_to 7997
  139.6068  144.7072  151.2936 H   0  0  0  0  0  0  0  0  0  0  0  0  # atno 10167 bound_to 10162
  156.6118  130.8853  151.2938 H   0  0  0  0  0  0  0  0  0  0  0  0  # atno 10718 bound_to 10713
  153.8488  135.3082  155.3431 H   0  0  0  0  0  0  0  0  0  0  0  0  # atno 10763 bound_to 10752
  154.7900  135.4788  154.0035 H   0  0  0  0  0  0  0  0  0  0  0  0  # atno 10764 bound_to 10752
  153.1531  135.6847  153.8945 H   0  0  0  0  0  0  0  0  0  0  0  0  # atno 10765 bound_to 10752
  139.8876  134.9476  156.6232 H   0  0  0  0  0  0  0  0  0  0  0  0  # atno 11005 bound_to 11000
  146.3498  139.9861  142.8690 LP  0  0  0  0  0  0  0  0  0  0  0  0  # atno 17320 bound_to 7965
  145.1770  140.9748  143.4289 LP  0  0  0  0  0  0  0  0  0  0  0  0  # atno 17321 bound_to 7965
  140.7290  143.6919  150.7915 LP  0  0  0  0  0  0  0  0  0  0  0  0  # atno 17342 bound_to 10162
  140.0506  143.5253  152.2675 LP  0  0  0  0  0  0  0  0  0  0  0  0  # atno 17343 bound_to 10162
  157.7252  130.9613  150.1605 LP  0  0  0  0  0  0  0  0  0  0  0  0  # atno 17370 bound_to 10713
  156.2384  130.3688  149.8365 LP  0  0  0  0  0  0  0  0  0  0  0  0  # atno 17371 bound_to 10713
  140.7723  133.8728  155.8501 LP  0  0  0  0  0  0  0  0  0  0  0  0  # atno 17394 bound_to 11000
  140.9831  134.1378  157.4476 LP  0  0  0  0  0  0  0  0  0  0  0  0  # atno 17395 bound_to 11000

$$$$
