AV-unprocessed.smi:56|AV-procd|sdf|579|dock1
  -GOLD-   2262016483D 1   1.00000     0.00000
 Structure written by MMmdl.
 23 24  0  0  0  0  0  0  0  0  2 V2000
  147.2009  140.7490  152.7549 O   0  0  0  0  0  0  0  0  0  0  0  0
  147.4130  141.2568  154.0614 C   0  0  1  0  0  0  0  0  0  0  0  0
  148.7797  140.8686  154.5462 C   0  0  0  0  0  0  0  0  0  0  0  0
  149.4639  141.1652  155.6939 C   0  0  0  0  0  0  0  0  0  0  0  0
  150.7084  140.4873  155.5473 C   0  0  0  0  0  0  0  0  0  0  0  0
  150.7987  139.8234  154.4070 N   0  0  0  0  0  0  0  0  0  0  0  0
  149.6197  140.0652  153.8050 N   0  0  0  0  0  0  0  0  0  0  0  0
  147.1229  142.7624  154.0423 C   0  0  0  0  0  0  0  0  0  0  0  0
  145.5916  142.8570  154.0901 C   0  0  0  0  0  0  0  0  0  0  0  0
  145.1104  141.5880  154.6739 N   0  3  0  0  0  0  0  0  0  0  0  0
  146.2827  140.7394  154.9615 C   0  0  0  0  0  0  0  0  0  0  0  0
  149.4056  139.6869  152.8931 H   0  0  0  0  0  0  0  0  0  0  0  0
  148.0248  140.4505  152.4022 H   0  0  0  0  0  0  0  0  0  0  0  0
  149.1308  141.7767  156.5193 H   0  0  0  0  0  0  0  0  0  0  0  0
  151.5432  140.4593  156.2321 H   0  0  0  0  0  0  0  0  0  0  0  0
  147.5165  143.2264  154.9479 H   0  0  0  0  0  0  0  0  0  0  0  0
  147.5657  143.2825  153.1916 H   0  0  0  0  0  0  0  0  0  0  0  0
  145.2541  143.7133  154.6746 H   0  0  0  0  0  0  0  0  0  0  0  0
  145.1809  142.9537  153.0846 H   0  0  0  0  0  0  0  0  0  0  0  0
  144.5842  141.7559  155.5198 H   0  0  0  0  0  0  0  0  0  0  0  0
  146.0688  139.6781  154.8282 H   0  0  0  0  0  0  0  0  0  0  0  0
  146.5432  140.8935  156.0098 H   0  0  0  0  0  0  0  0  0  0  0  0
  144.5233  141.1235  153.9958 H   0  0  0  0  0  0  0  0  0  0  0  0
  1  2  1  0  0  0  0
  1 13  1  0  0  0  0
  2 11  1  0  0  0  0
  2  3  1  0  0  0  0
  2  8  1  0  0  0  0
  3  7  1  0  0  0  0
  3  4  2  0  0  0  0
  4  5  1  0  0  0  0
  4 14  1  0  0  0  0
  5  6  2  0  0  0  0
  5 15  1  0  0  0  0
  6  7  1  0  0  0  0
  7 12  1  0  0  0  0
  8  9  1  0  0  0  0
  8 16  1  0  0  0  0
  8 17  1  0  0  0  0
  9 10  1  0  0  0  0
  9 18  1  0  0  0  0
  9 19  1  0  0  0  0
 10 11  1  0  0  0  0
 10 20  1  0  0  0  0
 10 23  1  0  0  0  0
 11 21  1  0  0  0  0
 11 22  1  0  0  0  0
M  CHG  1  10   1
M  END
> <s_m_source_file>
AV-unprocessed.smi

> <i_m_source_file_index>
56

> <i_lp_mmshare_version>
43012

> <i_f3d_flags>
0

> <s_epik_input>
W0NIMl0xW05IXVtDSDJdW0NIMl1bQ0BAXTEoW09IXSljMltjSF1bY0hdbltuSF0y

> <s_epik_cmdline>
J2VwaWtfcHl0aG9uJywgJy1waCcsICc3LjAnLCAnLXRuJywgJzgnLCAnLW1hJywgJzIwMCcsICctbWV0YWxfYmluZGluZycsICctaW1hZScsICc8aW5maWxlLm1hZT4nLCAnLW9tYWUnLCAnPG91dGZpbGUubWFlPic=

> <r_lp_tautomer_probability>
0.5

> <r_epik_Ionization_Penalty>
0.00599842

> <r_epik_Ionization_Penalty_Charging>
0.00599115

> <r_epik_Ionization_Penalty_Neutral>
7.26593e-06

> <r_epik_State_Penalty>
0.41068

> <r_epik_Charging_Adjusted_Penalty>
0.416671

> <i_epik_Tot_Q>
1

> <i_epik_Tot_abs_Q>
1

> <r_epik_Metal_State_Penalty>
0.410678

> <b_epik_Metal_Only>
0

> <s_lp_Force_Field>
OPLS_2005

> <r_lp_Energy>
26.3948

> <b_lp_Chiralities_Consistent>
1

> <s_lp_Variant>
AV-unprocessed.smi:56-3

> <Gold.Version>
5.8.1

> <Gold.Id.Protein>
6NUR|6NUR_protein|mol2

> <Gold.PLP.Fitness>
34.2428

> <Gold.PLP.PLP>
-20.5803

> <Gold.PLP.part.hbond>
-4.0000

> <Gold.PLP.part.metal>
0.0000

> <Gold.PLP.part.buried>
-1.0200

> <Gold.PLP.part.nonpolar>
-15.8551

> <Gold.PLP.part.repulsive>
1.2298

> <Gold.PLP.ligand.clash>
0.0000

> <Gold.PLP.ligand.torsion>
0.0596

> <Gold.PLP.Chemscore.Hbond>
4.5890

> <Gold.PLP.Chemscore.CHOScore>
0.0000

> <Gold.PLP.Chemscore.Metal>
0.0000

> <Gold.Chemscore.Hbonds>
donor molecule, donor type, donor heavy atom, donor atom, acceptor molecule, acceptor atom, score
      L1  H     1    13       P1  7957  0.98
      L1  H     7    12       P1  7957  0.83
      L1  H    10    23       P1 10175  2.00
      P1  H  7989  7998       L1     6  0.75

> <Gold.PLP.Chemscore.Internal.Correction>
0.0147

> <Gold.Rescore>
     Score         DG    S(hbond)    S(metal)    S(lipo)     H(rot)  DE(clash)    DE(int)     intcor
     15.75     -16.19       2.88        0.00      41.97       1.50       0.39       0.05       ----

> <Gold.Chemscore.Fitness>
15.7482

> <Gold.Chemscore.DG>
-16.1894

> <Gold.Chemscore.ZeroCoef>
-5.4800

> <Gold.Chemscore.Hbond>
2.8849

> <Gold.Chemscore.Metal>
0.0000

> <Gold.Chemscore.Lipo>
41.9660

> <Gold.Chemscore.Internal_Hbond>
0.0000

> <Gold.Chemscore.DEClash>
0.3864

> <Gold.Chemscore.DEInternal>
0.0548

> <Gold.Chemscore.Rot>
1.4985

> <Gold.Chemscore.Internal.Correction>
   9.000000E+99

> <Gold.Chemscore.Hbonds>
donor molecule, donor type, donor heavy atom, donor atom, acceptor molecule, acceptor atom, score
      L1  H     1    13       P1  7957  0.92
      L1  H     7    12       P1  7957  0.83
      L1  H    10    23       P1 10175  0.70
      P1  H  7989  7998       L1     6  0.03

> <Gold.Chemscore.Hbond.Weighted>
-9.6356

> <Gold.Chemscore.Metal.Weighted>
-0.0000

> <Gold.Chemscore.Lipo.Weighted>
-4.9100

> <Gold.Chemscore.Internal_Hbond.Weighted>
0.0000

> <Gold.Chemscore.DEClash.Weighted>
0.3864

> <Gold.Chemscore.DEInternal.Weighted>
0.0548

> <Gold.Chemscore.Rot.Weighted>
3.8362

> <Gold.Chemscore.Internal.Correction.Weighted>
   9.000000E+99

> <Gold.Protein.RotatedTorsions>
[ 6907 6896 6895 6894 ] final  -77.74 input  -60.11 | X-H torsion
[ 7974 7965 7964 7962 ] final  119.26 input  175.53 | X-H torsion
[ 8008 7997 7996 7995 ] final  -25.52 input   59.86 | X-H torsion
[ 10167 10162 10161 10158 ] final  -51.07 input  -65.29 | X-H torsion
[ 10718 10713 10712 10709 ] final   98.85 input   66.30 | X-H torsion
[ 10763 10752 10751 10750 ] final  106.77 input  -60.55 | X-H torsion
[ 11005 11000 10999 10996 ] final  128.43 input  -57.11 | X-H torsion

> <Gold.Protein.ActiveResidues>
 VAL166  LYS551  ARG553  GLY616  TRP617  ASP618  TYR619  PRO620  LYS621  CYS622 
 ASP623  PHE694  ASN695  SER759  ASP760  ASP761  ALA762  ILE779  LEU786  VAL792 
 PHE793  MET794  SER795  GLU796  ALA797  LYS798  CYS799  TRP800  GLU811  SER814 

> <Gold.Protein.RotatedAtoms>
  150.6991  134.4377  159.5277 H   0  0  0  0  0  0  0  0  0  0  0  0  # atno 6907 bound_to 6896
  152.2093  134.8514  160.0508 H   0  0  0  0  0  0  0  0  0  0  0  0  # atno 6908 bound_to 6896
  151.9405  133.3601  159.4000 H   0  0  0  0  0  0  0  0  0  0  0  0  # atno 6909 bound_to 6896
  145.1452  139.3243  143.4595 H   0  0  0  0  0  0  0  0  0  0  0  0  # atno 7974 bound_to 7965
  154.4471  140.1924  156.0632 H   0  0  0  0  0  0  0  0  0  0  0  0  # atno 8008 bound_to 7997
  156.0567  140.3302  155.7386 H   0  0  0  0  0  0  0  0  0  0  0  0  # atno 8009 bound_to 7997
  155.5475  140.0592  157.2848 H   0  0  0  0  0  0  0  0  0  0  0  0  # atno 8010 bound_to 7997
  140.6606  143.2633  151.4451 H   0  0  0  0  0  0  0  0  0  0  0  0  # atno 10167 bound_to 10162
  157.6888  131.0652  150.4858 H   0  0  0  0  0  0  0  0  0  0  0  0  # atno 10718 bound_to 10713
  153.3976  135.3866  155.1966 H   0  0  0  0  0  0  0  0  0  0  0  0  # atno 10763 bound_to 10752
  154.8726  135.3763  154.4659 H   0  0  0  0  0  0  0  0  0  0  0  0  # atno 10764 bound_to 10752
  153.5153  135.7087  153.5821 H   0  0  0  0  0  0  0  0  0  0  0  0  # atno 10765 bound_to 10752
  139.9560  134.9613  156.9001 H   0  0  0  0  0  0  0  0  0  0  0  0  # atno 11005 bound_to 11000
  146.3501  140.1505  142.8592 LP  0  0  0  0  0  0  0  0  0  0  0  0  # atno 17320 bound_to 7965
  145.0489  140.9002  143.5007 LP  0  0  0  0  0  0  0  0  0  0  0  0  # atno 17321 bound_to 7965
  139.5839  144.1647  152.2004 LP  0  0  0  0  0  0  0  0  0  0  0  0  # atno 17342 bound_to 10162
  140.0981  144.5563  150.7008 LP  0  0  0  0  0  0  0  0  0  0  0  0  # atno 17343 bound_to 10162
  156.5188  130.4157  149.6262 LP  0  0  0  0  0  0  0  0  0  0  0  0  # atno 17370 bound_to 10713
  156.3173  130.7262  151.2167 LP  0  0  0  0  0  0  0  0  0  0  0  0  # atno 17371 bound_to 10713
  140.5608  134.0537  155.7398 LP  0  0  0  0  0  0  0  0  0  0  0  0  # atno 17394 bound_to 11000
  141.1231  133.9427  157.2689 LP  0  0  0  0  0  0  0  0  0  0  0  0  # atno 17395 bound_to 11000

$$$$
