AV-unprocessed.smi:110|AV-procd|sdf|1072|dock5
  -GOLD-   2262018153D 1   1.00000     0.00000
 Structure written by MMmdl.
 46 50  0  0  0  0  0  0  0  0  1 V2000
  145.1514  143.4240  155.4646 O   0  0  0  0  0  0  0  0  0  0  0  0
  145.1701  142.1580  154.8383 C   0  0  0  0  0  0  0  0  0  0  0  0
  146.4956  141.4121  155.0749 C   0  0  2  0  0  0  0  0  0  0  0  0
  147.5890  142.1357  154.5323 O   0  0  0  0  0  0  0  0  0  0  0  0
  148.6888  141.2835  154.4380 C   0  0  1  0  0  0  0  0  0  0  0  0
  149.5120  141.4210  155.6835 N   0  0  0  0  0  0  0  0  0  0  0  0
  149.3366  142.2547  156.7676 C   0  0  0  0  0  0  0  0  0  0  0  0
  150.2401  142.1477  157.7040 N   0  0  0  0  0  0  0  0  0  0  0  0
  151.1295  141.1966  157.2181 C   0  0  0  0  0  0  0  0  0  0  0  0
  152.3293  140.6035  157.7058 C   0  0  0  0  0  0  0  0  0  0  0  0
  152.9049  140.8937  158.8960 N   0  0  0  0  0  0  0  0  0  0  0  0
  153.6811  139.8571  159.5915 C   0  0  0  0  0  0  0  0  0  0  0  0
  153.8043  140.2802  161.0673 C   0  0  0  0  0  0  0  0  0  0  0  0
  153.1677  141.6320  161.0300 C   0  0  0  0  0  0  0  0  0  0  0  0
  153.0581  142.5508  162.0881 C   0  0  0  0  0  0  0  0  0  0  0  0
  152.4381  143.7918  161.8294 C   0  0  0  0  0  0  0  0  0  0  0  0
  151.9542  144.0930  160.5351 C   0  0  0  0  0  0  0  0  0  0  0  0
  152.0769  143.1547  159.4866 C   0  0  0  0  0  0  0  0  0  0  0  0
  152.6777  141.9078  159.7573 C   0  0  0  0  0  0  0  0  0  0  0  0
  152.9093  139.6415  156.9432 N   0  0  0  0  0  0  0  0  0  0  0  0
  152.3800  139.3085  155.7629 C   0  0  0  0  0  0  0  0  0  0  0  0
  151.2843  139.7910  155.1743 N   0  0  0  0  0  0  0  0  0  0  0  0
  150.6767  140.7346  155.9504 C   0  0  0  0  0  0  0  0  0  0  0  0
  148.1436  139.8435  154.3131 C   0  0  2  0  0  0  0  0  0  0  0  0
  148.4543  139.2840  153.0532 O   0  0  0  0  0  0  0  0  0  0  0  0
  146.6309  140.0101  154.4696 C   0  0  1  0  0  0  0  0  0  0  0  0
  146.1100  139.0458  155.3629 O   0  0  0  0  0  0  0  0  0  0  0  0
  146.6624  141.3541  156.1521 H   0  0  0  0  0  0  0  0  0  0  0  0
  149.3635  141.5892  153.6370 H   0  0  0  0  0  0  0  0  0  0  0  0
  148.5625  139.2122  155.0987 H   0  0  0  0  0  0  0  0  0  0  0  0
  146.1325  139.9389  153.5022 H   0  0  0  0  0  0  0  0  0  0  0  0
  145.8573  143.9447  155.1128 H   0  0  0  0  0  0  0  0  0  0  0  0
  144.3280  141.5628  155.1925 H   0  0  0  0  0  0  0  0  0  0  0  0
  145.0231  142.3131  153.7691 H   0  0  0  0  0  0  0  0  0  0  0  0
  148.5132  142.9483  156.8532 H   0  0  0  0  0  0  0  0  0  0  0  0
  153.1988  138.8827  159.5025 H   0  0  0  0  0  0  0  0  0  0  0  0
  154.6681  139.7842  159.1331 H   0  0  0  0  0  0  0  0  0  0  0  0
  153.2480  139.6169  161.7301 H   0  0  0  0  0  0  0  0  0  0  0  0
  154.8417  140.3380  161.3973 H   0  0  0  0  0  0  0  0  0  0  0  0
  153.4426  142.3162  163.0697 H   0  0  0  0  0  0  0  0  0  0  0  0
  152.3405  144.5188  162.6220 H   0  0  0  0  0  0  0  0  0  0  0  0
  151.4916  145.0502  160.3452 H   0  0  0  0  0  0  0  0  0  0  0  0
  151.7200  143.3991  158.4973 H   0  0  0  0  0  0  0  0  0  0  0  0
  152.9087  138.5439  155.2132 H   0  0  0  0  0  0  0  0  0  0  0  0
  148.9382  139.9246  152.5546 H   0  0  0  0  0  0  0  0  0  0  0  0
  145.1912  139.2240  155.4927 H   0  0  0  0  0  0  0  0  0  0  0  0
  1  2  1  0  0  0  0
  1 32  1  0  0  0  0
  2  3  1  0  0  0  0
  2 33  1  0  0  0  0
  2 34  1  0  0  0  0
  3 28  1  0  0  0  0
  3 26  1  0  0  0  0
  3  4  1  0  0  0  0
  4  5  1  0  0  0  0
  5 29  1  0  0  0  0
  5  6  1  0  0  0  0
  5 24  1  0  0  0  0
  6 23  1  0  0  0  0
  6  7  1  0  0  0  0
  7  8  2  0  0  0  0
  7 35  1  0  0  0  0
  8  9  1  0  0  0  0
  9 23  2  0  0  0  0
  9 10  1  0  0  0  0
 10 11  1  0  0  0  0
 10 20  2  0  0  0  0
 11 19  1  0  0  0  0
 11 12  1  0  0  0  0
 12 13  1  0  0  0  0
 12 36  1  0  0  0  0
 12 37  1  0  0  0  0
 13 14  1  0  0  0  0
 13 38  1  0  0  0  0
 13 39  1  0  0  0  0
 14 19  2  0  0  0  0
 14 15  1  0  0  0  0
 15 16  2  0  0  0  0
 15 40  1  0  0  0  0
 16 17  1  0  0  0  0
 16 41  1  0  0  0  0
 17 18  2  0  0  0  0
 17 42  1  0  0  0  0
 18 19  1  0  0  0  0
 18 43  1  0  0  0  0
 20 21  1  0  0  0  0
 21 22  2  0  0  0  0
 21 44  1  0  0  0  0
 22 23  1  0  0  0  0
 24 30  1  0  0  0  0
 24 25  1  0  0  0  0
 24 26  1  0  0  0  0
 25 45  1  0  0  0  0
 26 31  1  0  0  0  0
 26 27  1  0  0  0  0
 27 46  1  0  0  0  0
M  END
> <s_m_source_file>
AV-unprocessed.smi

> <i_m_source_file_index>
110

> <i_lp_mmshare_version>
43012

> <i_f3d_flags>
0

> <s_epik_input>
W09IXVtDSDJdW0NASF0xT1tDQEhdKFtDQEhdKFtPSF0pW0NAQEhdMVtPSF0pbihbY0hdbjIpYyhjMjMpbltjSF1uYzNOKFtDSDJdW0NIMl00KWMoYzQ1KVtjSF1bY0hdW2NIXVtjSF01

> <s_epik_cmdline>
J2VwaWtfcHl0aG9uJywgJy1waCcsICc3LjAnLCAnLXRuJywgJzgnLCAnLW1hJywgJzIwMCcsICctbWV0YWxfYmluZGluZycsICctaW1hZScsICc8aW5maWxlLm1hZT4nLCAnLW9tYWUnLCAnPG91dGZpbGUubWFlPic=

> <r_lp_tautomer_probability>
1

> <r_epik_Ionization_Penalty>
0.00068475

> <r_epik_Ionization_Penalty_Charging>
0

> <r_epik_Ionization_Penalty_Neutral>
0.00068475

> <r_epik_State_Penalty>
0.000417442

> <r_epik_Charging_Adjusted_Penalty>
0.000417442

> <i_epik_Tot_Q>
0

> <i_epik_Tot_abs_Q>
0

> <r_epik_Metal_State_Penalty>
-0

> <b_epik_Metal_Only>
0

> <s_epik_Chemistry_Notes>
This compound contains an acetal/aminal-like group ( X-CH(R)-Y where X, Y are N, S, or O) that may be acid/base labile, releasing an aldehyde.

> <s_lp_Force_Field>
OPLS_2005

> <r_lp_Energy>
55.1552

> <b_lp_Chiralities_Consistent>
1

> <s_lp_Variant>
AV-unprocessed.smi:110-10

> <Gold.Version>
5.8.1

> <Gold.Id.Protein>
6NUR|6NUR_protein|mol2

> <Gold.PLP.Fitness>
59.2211

> <Gold.PLP.PLP>
-49.2183

> <Gold.PLP.part.hbond>
-2.4730

> <Gold.PLP.part.metal>
0.0000

> <Gold.PLP.part.buried>
-4.1450

> <Gold.PLP.part.nonpolar>
-44.2899

> <Gold.PLP.part.repulsive>
0.9199

> <Gold.PLP.ligand.clash>
0.0000

> <Gold.PLP.ligand.torsion>
0.2139

> <Gold.PLP.Chemscore.Hbond>
2.7840

> <Gold.PLP.Chemscore.CHOScore>
0.6664

> <Gold.PLP.Chemscore.Metal>
0.0000

> <Gold.Chemscore.Hbonds>
donor molecule, donor type, donor heavy atom, donor atom, acceptor molecule, acceptor atom, score
      L1  H    25    45       P1  7957  0.75
      P1  H  7989  7998       L1    22  1.00
      P1  H  7997  8010       L1    20  1.00
      L1  C     7    35       P1  8028  0.63

> <Gold.PLP.Chemscore.Internal.Correction>
0.0794

> <Gold.Rescore>
     Score         DG    S(hbond)    S(metal)    S(lipo)     H(rot)  DE(clash)    DE(int)     intcor
     10.65     -13.95       1.45        0.00     105.04       3.38       1.64       1.67       ----

> <Gold.Chemscore.Fitness>
10.6460

> <Gold.Chemscore.DG>
-13.9507

> <Gold.Chemscore.ZeroCoef>
-5.4800

> <Gold.Chemscore.Hbond>
1.4500

> <Gold.Chemscore.Metal>
0.0000

> <Gold.Chemscore.Lipo>
105.0421

> <Gold.Chemscore.Internal_Hbond>
0.0000

> <Gold.Chemscore.DEClash>
1.6354

> <Gold.Chemscore.DEInternal>
1.6693

> <Gold.Chemscore.Rot>
3.3837

> <Gold.Chemscore.Internal.Correction>
   9.000000E+99

> <Gold.Chemscore.Hbonds>
donor molecule, donor type, donor heavy atom, donor atom, acceptor molecule, acceptor atom, score
      L1  H    25    45       P1  7957  0.72
      P1  H  7989  7998       L1    22  0.25
      P1  H  7997  8010       L1    20  0.19

> <Gold.Chemscore.Hbond.Weighted>
-4.8430

> <Gold.Chemscore.Metal.Weighted>
-0.0000

> <Gold.Chemscore.Lipo.Weighted>
-12.2899

> <Gold.Chemscore.Internal_Hbond.Weighted>
0.0000

> <Gold.Chemscore.DEClash.Weighted>
1.6354

> <Gold.Chemscore.DEInternal.Weighted>
1.6693

> <Gold.Chemscore.Rot.Weighted>
8.6622

> <Gold.Chemscore.Internal.Correction.Weighted>
   9.000000E+99

> <Gold.Protein.RotatedTorsions>
[ 6907 6896 6895 6894 ] final -128.43 input  -60.11 | X-H torsion
[ 7974 7965 7964 7962 ] final -151.82 input  175.53 | X-H torsion
[ 8008 7997 7996 7995 ] final   69.71 input   59.86 | X-H torsion
[ 10167 10162 10161 10158 ] final  -70.87 input  -65.29 | X-H torsion
[ 10718 10713 10712 10709 ] final -144.91 input   66.30 | X-H torsion
[ 10763 10752 10751 10750 ] final   35.87 input  -60.55 | X-H torsion
[ 11005 11000 10999 10996 ] final  -73.85 input  -57.11 | X-H torsion

> <Gold.Protein.ActiveResidues>
 VAL166  LYS551  ARG553  GLY616  TRP617  ASP618  TYR619  PRO620  LYS621  CYS622 
 ASP623  PHE694  ASN695  SER759  ASP760  ASP761  ALA762  ILE779  LEU786  VAL792 
 PHE793  MET794  SER795  GLU796  ALA797  LYS798  CYS799  TRP800  GLU811  SER814 

> <Gold.Protein.RotatedAtoms>
  150.9178  133.6917  159.2838 H   0  0  0  0  0  0  0  0  0  0  0  0  # atno 6907 bound_to 6896
  151.4382  135.1016  159.9672 H   0  0  0  0  0  0  0  0  0  0  0  0  # atno 6908 bound_to 6896
  152.4964  133.8593  159.7297 H   0  0  0  0  0  0  0  0  0  0  0  0  # atno 6909 bound_to 6896
  144.7828  140.4746  143.5827 H   0  0  0  0  0  0  0  0  0  0  0  0  # atno 7974 bound_to 7965
  155.7278  140.3492  155.5045 H   0  0  0  0  0  0  0  0  0  0  0  0  # atno 8008 bound_to 7997
  155.9211  140.1067  157.1228 H   0  0  0  0  0  0  0  0  0  0  0  0  # atno 8009 bound_to 7997
  154.4070  140.1249  156.4667 H   0  0  0  0  0  0  0  0  0  0  0  0  # atno 8010 bound_to 7997
  140.5318  143.2321  151.7249 H   0  0  0  0  0  0  0  0  0  0  0  0  # atno 10167 bound_to 10162
  156.3759  130.7812  151.1998 H   0  0  0  0  0  0  0  0  0  0  0  0  # atno 10718 bound_to 10713
  153.0101  135.6321  154.1895 H   0  0  0  0  0  0  0  0  0  0  0  0  # atno 10763 bound_to 10752
  154.1637  135.2822  155.3103 H   0  0  0  0  0  0  0  0  0  0  0  0  # atno 10764 bound_to 10752
  154.5962  135.5602  153.7388 H   0  0  0  0  0  0  0  0  0  0  0  0  # atno 10765 bound_to 10752
  141.1628  133.6892  156.7275 H   0  0  0  0  0  0  0  0  0  0  0  0  # atno 11005 bound_to 11000
  145.6002  139.1503  143.3133 LP  0  0  0  0  0  0  0  0  0  0  0  0  # atno 17320 bound_to 7965
  146.2045  140.6124  142.9087 LP  0  0  0  0  0  0  0  0  0  0  0  0  # atno 17321 bound_to 7965
  139.4957  144.4103  152.0088 LP  0  0  0  0  0  0  0  0  0  0  0  0  # atno 17342 bound_to 10162
  140.3206  144.3433  150.6010 LP  0  0  0  0  0  0  0  0  0  0  0  0  # atno 17343 bound_to 10162
  157.7488  131.0358  150.4382 LP  0  0  0  0  0  0  0  0  0  0  0  0  # atno 17370 bound_to 10713
  156.4617  130.4033  149.6572 LP  0  0  0  0  0  0  0  0  0  0  0  0  # atno 17371 bound_to 10713
  140.2770  134.8347  157.3899 LP  0  0  0  0  0  0  0  0  0  0  0  0  # atno 17394 bound_to 11000
  140.1469  134.4900  155.7990 LP  0  0  0  0  0  0  0  0  0  0  0  0  # atno 17395 bound_to 11000

$$$$
