AV-unprocessed.smi:1060|AV-procd|sdf|4657|dock9
  -GOLD-   22720 3163D 1   1.00000     0.00000
 Structure written by MMmdl.
 37 38  0  0  0  0  0  0  0  0  1 V2000
  150.3834  140.3946  154.3965 O   0  0  0  0  0  0  0  0  0  0  0  0
  149.3257  140.8577  154.8215 C   0  0  0  0  0  0  0  0  0  0  0  0
  148.1041  140.8859  153.9038 C   0  0  0  0  0  0  0  0  0  0  0  0
  147.4774  142.1555  154.0029 O   0  0  0  0  0  0  0  0  0  0  0  0
  146.1532  142.0756  154.5019 C   0  0  0  0  0  0  0  0  0  0  0  0
  145.6008  143.4959  154.6739 C   0  0  1  0  0  0  0  0  0  0  0  0
  145.3084  144.2038  153.3525 C   0  0  0  0  0  0  0  0  0  0  0  0
  144.2782  145.2252  153.7773 C   0  0  0  0  0  0  0  0  0  0  0  0
  143.4598  144.4379  154.7968 C   0  0  0  0  0  0  0  0  0  0  0  0
  144.3443  143.4641  155.3469 O   0  0  0  0  0  0  0  0  0  0  0  0
  149.1445  141.3898  156.0468 N   0  0  0  0  0  0  0  0  0  0  0  0
  150.0462  141.4930  157.1193 C   0  0  0  0  0  0  0  0  0  0  0  0
  150.4917  142.6616  157.6509 C   0  0  0  0  0  0  0  0  0  0  0  0
  151.4363  142.6966  158.7550 C   0  0  0  0  0  0  0  0  0  0  0  0
  151.9708  144.0106  159.3041 C   0  0  0  0  0  0  0  0  0  0  0  0
  152.7975  143.8063  160.3304 F   0  0  0  0  0  0  0  0  0  0  0  0
  152.6305  144.6885  158.3645 F   0  0  0  0  0  0  0  0  0  0  0  0
  150.9606  144.7682  159.7293 F   0  0  0  0  0  0  0  0  0  0  0  0
  151.8740  141.5072  159.2078 C   0  0  0  0  0  0  0  0  0  0  0  0
  151.4211  140.3017  158.6674 N   0  0  0  0  0  0  0  0  0  0  0  0
  150.5367  140.2098  157.6490 C   0  0  0  0  0  0  0  0  0  0  0  0
  150.1915  139.1078  157.2240 O   0  0  0  0  0  0  0  0  0  0  0  0
  151.7908  139.4515  159.0677 H   0  0  0  0  0  0  0  0  0  0  0  0
  148.4234  140.6941  152.8783 H   0  0  0  0  0  0  0  0  0  0  0  0
  147.4077  140.0964  154.1917 H   0  0  0  0  0  0  0  0  0  0  0  0
  145.5368  141.5250  153.7896 H   0  0  0  0  0  0  0  0  0  0  0  0
  146.1247  141.5359  155.4499 H   0  0  0  0  0  0  0  0  0  0  0  0
  146.2923  144.1055  155.2578 H   0  0  0  0  0  0  0  0  0  0  0  0
  146.1955  144.6511  152.9034 H   0  0  0  0  0  0  0  0  0  0  0  0
  144.8709  143.5109  152.6323 H   0  0  0  0  0  0  0  0  0  0  0  0
  144.7683  146.0718  154.2603 H   0  0  0  0  0  0  0  0  0  0  0  0
  143.6788  145.6034  152.9487 H   0  0  0  0  0  0  0  0  0  0  0  0
  143.0397  145.0776  155.5732 H   0  0  0  0  0  0  0  0  0  0  0  0
  142.6369  143.9173  154.3057 H   0  0  0  0  0  0  0  0  0  0  0  0
  148.2370  141.7979  156.2212 H   0  0  0  0  0  0  0  0  0  0  0  0
  150.1667  143.6104  157.2569 H   0  0  0  0  0  0  0  0  0  0  0  0
  152.5960  141.3865  160.0019 H   0  0  0  0  0  0  0  0  0  0  0  0
  1  2  2  0  0  0  0
  2  3  1  0  0  0  0
  2 11  1  0  0  0  0
  3  4  1  0  0  0  0
  3 24  1  0  0  0  0
  3 25  1  0  0  0  0
  4  5  1  0  0  0  0
  5  6  1  0  0  0  0
  5 26  1  0  0  0  0
  5 27  1  0  0  0  0
  6 10  1  0  0  0  0
  6  7  1  0  0  0  0
  6 28  1  0  0  0  0
  7  8  1  0  0  0  0
  7 29  1  0  0  0  0
  7 30  1  0  0  0  0
  8  9  1  0  0  0  0
  8 31  1  0  0  0  0
  8 32  1  0  0  0  0
  9 10  1  0  0  0  0
  9 33  1  0  0  0  0
  9 34  1  0  0  0  0
 11 12  1  0  0  0  0
 11 35  1  0  0  0  0
 12 21  1  0  0  0  0
 12 13  2  0  0  0  0
 13 14  1  0  0  0  0
 13 36  1  0  0  0  0
 14 15  1  0  0  0  0
 14 19  2  0  0  0  0
 15 16  1  0  0  0  0
 15 17  1  0  0  0  0
 15 18  1  0  0  0  0
 19 20  1  0  0  0  0
 19 37  1  0  0  0  0
 20 23  1  0  0  0  0
 20 21  1  0  0  0  0
 21 22  2  0  0  0  0
M  END
> <s_m_source_file>
AV-unprocessed.smi

> <i_m_source_file_index>
1060

> <i_lp_mmshare_version>
43012

> <i_f3d_flags>
0

> <s_epik_input>
Tz1jMVtuSF1bY0hdYyhDKEYpKEYpRilbY0hdYzFbTkhdQyg9TylbQ0gyXU9bQ0gyXVtDQEBIXTJbQ0gyXVtDSDJdW0NIMl1PMg==

> <s_epik_cmdline>
J2VwaWtfcHl0aG9uJywgJy1waCcsICc3LjAnLCAnLXRuJywgJzgnLCAnLW1hJywgJzIwMCcsICctbWV0YWxfYmluZGluZycsICctaW1hZScsICc8aW5maWxlLm1hZT4nLCAnLW9tYWUnLCAnPG91dGZpbGUubWFlPic=

> <r_lp_tautomer_probability>
0.999

> <r_epik_Ionization_Penalty>
0.00950091

> <r_epik_Ionization_Penalty_Charging>
0.00950081

> <r_epik_Ionization_Penalty_Neutral>
1.00143e-07

> <r_epik_State_Penalty>
0.00721819

> <r_epik_Charging_Adjusted_Penalty>
0.016719

> <i_epik_Tot_Q>
0

> <i_epik_Tot_abs_Q>
0

> <r_epik_Metal_State_Penalty>
0.323303

> <b_epik_Metal_Only>
0

> <s_lp_Force_Field>
OPLS_2005

> <r_lp_Energy>
32.1884

> <b_lp_Chiralities_Consistent>
1

> <s_lp_Variant>
AV-unprocessed.smi:1060-2

> <Gold.Version>
5.8.1

> <Gold.Id.Protein>
6NUR|6NUR_protein|mol2

> <Gold.PLP.Fitness>
44.5431

> <Gold.PLP.PLP>
-45.0325

> <Gold.PLP.part.hbond>
-0.9939

> <Gold.PLP.part.metal>
0.0000

> <Gold.PLP.part.buried>
-7.6620

> <Gold.PLP.part.nonpolar>
-37.7389

> <Gold.PLP.part.repulsive>
0.6306

> <Gold.PLP.ligand.clash>
1.0821

> <Gold.PLP.ligand.torsion>
1.2555

> <Gold.PLP.Chemscore.Hbond>
1.0000

> <Gold.PLP.Chemscore.CHOScore>
0.0000

> <Gold.PLP.Chemscore.Metal>
0.0000

> <Gold.Chemscore.Hbonds>
donor molecule, donor type, donor heavy atom, donor atom, acceptor molecule, acceptor atom, score
      P1  H  7989  7998       L1     1  1.00

> <Gold.PLP.Chemscore.Internal.Correction>
0.1039

> <Gold.Rescore>
     Score         DG    S(hbond)    S(metal)    S(lipo)     H(rot)  DE(clash)    DE(int)     intcor
     12.06     -13.41       0.99        0.00      82.34       1.95       0.01       1.34       ----

> <Gold.Chemscore.Fitness>
12.0604

> <Gold.Chemscore.DG>
-13.4137

> <Gold.Chemscore.ZeroCoef>
-5.4800

> <Gold.Chemscore.Hbond>
0.9876

> <Gold.Chemscore.Metal>
0.0000

> <Gold.Chemscore.Lipo>
82.3444

> <Gold.Chemscore.Internal_Hbond>
0.0000

> <Gold.Chemscore.DEClash>
0.0135

> <Gold.Chemscore.DEInternal>
1.3398

> <Gold.Chemscore.Rot>
1.9527

> <Gold.Chemscore.Internal.Correction>
   9.000000E+99

> <Gold.Chemscore.Hbonds>
donor molecule, donor type, donor heavy atom, donor atom, acceptor molecule, acceptor atom, score
      P1  H  7989  7998       L1     1  0.94

> <Gold.Chemscore.Hbond.Weighted>
-3.2984

> <Gold.Chemscore.Metal.Weighted>
-0.0000

> <Gold.Chemscore.Lipo.Weighted>
-9.6343

> <Gold.Chemscore.Internal_Hbond.Weighted>
0.0000

> <Gold.Chemscore.DEClash.Weighted>
0.0135

> <Gold.Chemscore.DEInternal.Weighted>
1.3398

> <Gold.Chemscore.Rot.Weighted>
4.9990

> <Gold.Chemscore.Internal.Correction.Weighted>
   9.000000E+99

> <Gold.Protein.RotatedTorsions>
[ 6907 6896 6895 6894 ] final  -46.20 input  -60.11 | X-H torsion
[ 7974 7965 7964 7962 ] final   98.68 input  175.53 | X-H torsion
[ 8008 7997 7996 7995 ] final  176.69 input   59.86 | X-H torsion
[ 10167 10162 10161 10158 ] final  116.62 input  -65.29 | X-H torsion
[ 10718 10713 10712 10709 ] final   29.53 input   66.30 | X-H torsion
[ 10763 10752 10751 10750 ] final   56.82 input  -60.55 | X-H torsion
[ 11005 11000 10999 10996 ] final  -54.00 input  -57.11 | X-H torsion

> <Gold.Protein.ActiveResidues>
 VAL166  LYS551  ARG553  GLY616  TRP617  ASP618  TYR619  PRO620  LYS621  CYS622 
 ASP623  PHE694  ASN695  SER759  ASP760  ASP761  ALA762  ILE779  LEU786  VAL792 
 PHE793  MET794  SER795  GLU796  ALA797  LYS798  CYS799  TRP800  GLU811  SER814 

> <Gold.Protein.RotatedAtoms>
  150.9138  134.8555  159.7442 H   0  0  0  0  0  0  0  0  0  0  0  0  # atno 6907 bound_to 6896
  152.4958  134.4320  159.9525 H   0  0  0  0  0  0  0  0  0  0  0  0  # atno 6908 bound_to 6896
  151.4359  133.3617  159.2810 H   0  0  0  0  0  0  0  0  0  0  0  0  # atno 6909 bound_to 6896
  145.4089  139.2336  143.3259 H   0  0  0  0  0  0  0  0  0  0  0  0  # atno 7974 bound_to 7965
  156.0738  140.1377  156.9797 H   0  0  0  0  0  0  0  0  0  0  0  0  # atno 8008 bound_to 7997
  154.4546  140.0966  156.6770 H   0  0  0  0  0  0  0  0  0  0  0  0  # atno 8009 bound_to 7997
  155.5186  140.3455  155.4404 H   0  0  0  0  0  0  0  0  0  0  0  0  # atno 8010 bound_to 7997
  139.6234  144.7105  151.2585 H   0  0  0  0  0  0  0  0  0  0  0  0  # atno 10167 bound_to 10162
  157.2477  130.7100  149.6390 H   0  0  0  0  0  0  0  0  0  0  0  0  # atno 10718 bound_to 10713
  152.9838  135.5663  154.5290 H   0  0  0  0  0  0  0  0  0  0  0  0  # atno 10763 bound_to 10752
  154.4765  135.2787  155.1605 H   0  0  0  0  0  0  0  0  0  0  0  0  # atno 10764 bound_to 10752
  154.3132  135.6284  153.5528 H   0  0  0  0  0  0  0  0  0  0  0  0  # atno 10765 bound_to 10752
  141.1004  133.6619  156.4255 H   0  0  0  0  0  0  0  0  0  0  0  0  # atno 11005 bound_to 11000
  146.2715  140.4798  142.8812 LP  0  0  0  0  0  0  0  0  0  0  0  0  # atno 17320 bound_to 7965
  144.8322  140.6726  143.6283 LP  0  0  0  0  0  0  0  0  0  0  0  0  # atno 17321 bound_to 7965
  140.7396  143.6612  150.8162 LP  0  0  0  0  0  0  0  0  0  0  0  0  # atno 17342 bound_to 10162
  140.0227  143.5526  152.2794 LP  0  0  0  0  0  0  0  0  0  0  0  0  # atno 17343 bound_to 10162
  155.9667  130.4437  150.5434 LP  0  0  0  0  0  0  0  0  0  0  0  0  # atno 17370 bound_to 10713
  157.3311  131.0699  151.1860 LP  0  0  0  0  0  0  0  0  0  0  0  0  # atno 17371 bound_to 10713
  140.5036  134.6462  157.5258 LP  0  0  0  0  0  0  0  0  0  0  0  0  # atno 17394 bound_to 11000
  139.9853  134.7071  155.9784 LP  0  0  0  0  0  0  0  0  0  0  0  0  # atno 17395 bound_to 11000

$$$$
