AV-unprocessed.smi:3110|AV-procd|sdf|11828|dock4
  -GOLD-   2272017203D 1   1.00000     0.00000
 Structure written by MMmdl.
 34 35  0  0  0  0  0  0  0  0  2 V2000
  150.1086  142.1489  158.4282 O   0  0  0  0  0  0  0  0  0  0  0  0
  151.1158  141.7135  157.8693 C   0  0  0  0  0  0  0  0  0  0  0  0
  152.3843  141.4118  158.6750 C   0  0  0  0  0  0  0  0  0  0  0  0
  152.9881  142.6543  159.3630 C   0  0  2  0  0  0  0  0  0  0  0  0
  152.3738  142.9120  160.7146 C   0  0  0  0  0  0  0  0  0  0  0  0
  151.9527  144.1667  160.8590 C   0  0  0  0  0  0  0  0  0  0  0  0
  152.1995  145.0004  159.6325 C   0  0  0  0  0  0  0  0  0  0  0  0
  152.7535  143.9888  158.6050 C   0  0  0  0  0  0  0  0  0  0  0  0
  151.1794  141.4815  156.5491 N   0  0  0  0  0  0  0  0  0  0  0  0
  150.0829  141.6918  155.6117 C   0  0  0  0  0  0  0  0  0  0  0  0
  149.5799  140.3641  155.0208 C   0  0  0  0  0  0  0  0  0  0  0  0
  148.1272  140.3672  154.8433 N   0  0  0  0  0  0  0  0  0  0  0  0
  147.1693  140.4917  155.8163 C   0  0  0  0  0  0  0  0  0  0  0  0
  145.9565  140.4435  155.1780 C   0  0  0  0  0  0  0  0  0  0  0  0
  146.2259  140.2922  153.8439 N   0  3  0  0  0  0  0  0  0  0  0  0
  147.5470  140.2465  153.6425 C   0  0  0  0  0  0  0  0  0  0  0  0
  152.1680  140.6476  159.4234 H   0  0  0  0  0  0  0  0  0  0  0  0
  153.1166  140.9774  157.9936 H   0  0  0  0  0  0  0  0  0  0  0  0
  154.0566  142.5058  159.5266 H   0  0  0  0  0  0  0  0  0  0  0  0
  152.3104  142.1454  161.4732 H   0  0  0  0  0  0  0  0  0  0  0  0
  151.4961  144.5726  161.7498 H   0  0  0  0  0  0  0  0  0  0  0  0
  151.2756  145.4657  159.2879 H   0  0  0  0  0  0  0  0  0  0  0  0
  152.9231  145.7842  159.8585 H   0  0  0  0  0  0  0  0  0  0  0  0
  153.6720  144.3504  158.1414 H   0  0  0  0  0  0  0  0  0  0  0  0
  152.0239  143.8560  157.8050 H   0  0  0  0  0  0  0  0  0  0  0  0
  152.0450  141.1244  156.1706 H   0  0  0  0  0  0  0  0  0  0  0  0
  149.2732  142.1930  156.1431 H   0  0  0  0  0  0  0  0  0  0  0  0
  150.3998  142.3707  154.8180 H   0  0  0  0  0  0  0  0  0  0  0  0
  150.0366  140.1658  154.0498 H   0  0  0  0  0  0  0  0  0  0  0  0
  149.8376  139.5287  155.6733 H   0  0  0  0  0  0  0  0  0  0  0  0
  147.4146  140.6022  156.8627 H   0  0  0  0  0  0  0  0  0  0  0  0
  144.9487  140.5038  155.5627 H   0  0  0  0  0  0  0  0  0  0  0  0
  148.0466  140.1353  152.6963 H   0  0  0  0  0  0  0  0  0  0  0  0
  145.5283  140.2241  153.1134 H   0  0  0  0  0  0  0  0  0  0  0  0
  1  2  2  0  0  0  0
  2  3  1  0  0  0  0
  2  9  1  0  0  0  0
  3  4  1  0  0  0  0
  3 17  1  0  0  0  0
  3 18  1  0  0  0  0
  4  8  1  0  0  0  0
  4  5  1  0  0  0  0
  4 19  1  0  0  0  0
  5  6  2  0  0  0  0
  5 20  1  0  0  0  0
  6  7  1  0  0  0  0
  6 21  1  0  0  0  0
  7  8  1  0  0  0  0
  7 22  1  0  0  0  0
  7 23  1  0  0  0  0
  8 24  1  0  0  0  0
  8 25  1  0  0  0  0
  9 10  1  0  0  0  0
  9 26  1  0  0  0  0
 10 11  1  0  0  0  0
 10 27  1  0  0  0  0
 10 28  1  0  0  0  0
 11 12  1  0  0  0  0
 11 29  1  0  0  0  0
 11 30  1  0  0  0  0
 12 16  1  0  0  0  0
 12 13  1  0  0  0  0
 13 14  2  0  0  0  0
 13 31  1  0  0  0  0
 14 15  1  0  0  0  0
 14 32  1  0  0  0  0
 15 16  2  0  0  0  0
 15 34  1  0  0  0  0
 16 33  1  0  0  0  0
M  CHG  1  15   1
M  END
> <s_m_source_file>
AV-unprocessed.smi

> <i_m_source_file_index>
3110

> <i_lp_mmshare_version>
43012

> <i_f3d_flags>
0

> <s_epik_input>
W0NIMl0xW0NIMl1bQ0hdPVtDSF1bQ0BIXTFbQ0gyXUMoPU8pW05IXVtDSDJdW0NIMl1uMltjSF1bY0hdbltjSF0y

> <s_epik_cmdline>
J2VwaWtfcHl0aG9uJywgJy1waCcsICc3LjAnLCAnLXRuJywgJzgnLCAnLW1hJywgJzIwMCcsICctbWV0YWxfYmluZGluZycsICctaW1hZScsICc8aW5maWxlLm1hZT4nLCAnLW9tYWUnLCAnPG91dGZpbGUubWFlPic=

> <r_lp_tautomer_probability>
1

> <r_epik_Ionization_Penalty>
0.271094

> <r_epik_Ionization_Penalty_Charging>
0

> <r_epik_Ionization_Penalty_Neutral>
0.271094

> <r_epik_State_Penalty>
0.263241

> <r_epik_Charging_Adjusted_Penalty>
0.263241

> <i_epik_Tot_Q>
1

> <i_epik_Tot_abs_Q>
1

> <r_epik_Metal_State_Penalty>
0.547832

> <b_epik_Metal_Only>
0

> <s_lp_Force_Field>
OPLS_2005

> <r_lp_Energy>
18.4695

> <b_lp_Chiralities_Consistent>
1

> <s_lp_Variant>
AV-unprocessed.smi:3110-1

> <Gold.Version>
5.8.1

> <Gold.Id.Protein>
6NUR|6NUR_protein|mol2

> <Gold.PLP.Fitness>
42.1314

> <Gold.PLP.PLP>
-34.3513

> <Gold.PLP.part.hbond>
-1.0000

> <Gold.PLP.part.metal>
0.0000

> <Gold.PLP.part.buried>
-3.8968

> <Gold.PLP.part.nonpolar>
-29.4927

> <Gold.PLP.part.repulsive>
0.1826

> <Gold.PLP.ligand.clash>
0.0000

> <Gold.PLP.ligand.torsion>
0.6213

> <Gold.PLP.Chemscore.Hbond>
2.0000

> <Gold.PLP.Chemscore.CHOScore>
1.0000

> <Gold.PLP.Chemscore.Metal>
0.0000

> <Gold.Chemscore.Hbonds>
donor molecule, donor type, donor heavy atom, donor atom, acceptor molecule, acceptor atom, score
      L1  H    15    34       P1 10175  2.00
      L1  C    16    33       P1  7957  1.00

> <Gold.PLP.Chemscore.Internal.Correction>
0.0226

> <Gold.Rescore>
     Score         DG    S(hbond)    S(metal)    S(lipo)     H(rot)  DE(clash)    DE(int)     intcor
     13.38     -13.94       0.98        0.00      90.06       2.10       0.01       0.55       ----

> <Gold.Chemscore.Fitness>
13.3778

> <Gold.Chemscore.DG>
-13.9395

> <Gold.Chemscore.ZeroCoef>
-5.4800

> <Gold.Chemscore.Hbond>
0.9847

> <Gold.Chemscore.Metal>
0.0000

> <Gold.Chemscore.Lipo>
90.0604

> <Gold.Chemscore.Internal_Hbond>
0.0000

> <Gold.Chemscore.DEClash>
0.0096

> <Gold.Chemscore.DEInternal>
0.5522

> <Gold.Chemscore.Rot>
2.0963

> <Gold.Chemscore.Internal.Correction>
   9.000000E+99

> <Gold.Chemscore.Hbonds>
donor molecule, donor type, donor heavy atom, donor atom, acceptor molecule, acceptor atom, score
      L1  H    15    34       P1 10175  0.92

> <Gold.Chemscore.Hbond.Weighted>
-3.2889

> <Gold.Chemscore.Metal.Weighted>
-0.0000

> <Gold.Chemscore.Lipo.Weighted>
-10.5371

> <Gold.Chemscore.Internal_Hbond.Weighted>
0.0000

> <Gold.Chemscore.DEClash.Weighted>
0.0096

> <Gold.Chemscore.DEInternal.Weighted>
0.5522

> <Gold.Chemscore.Rot.Weighted>
5.3665

> <Gold.Chemscore.Internal.Correction.Weighted>
   9.000000E+99

> <Gold.Protein.RotatedTorsions>
[ 6907 6896 6895 6894 ] final  148.59 input  -60.11 | X-H torsion
[ 7974 7965 7964 7962 ] final   13.27 input  175.53 | X-H torsion
[ 8008 7997 7996 7995 ] final   -3.63 input   59.86 | X-H torsion
[ 10167 10162 10161 10158 ] final -133.59 input  -65.29 | X-H torsion
[ 10718 10713 10712 10709 ] final -174.92 input   66.30 | X-H torsion
[ 10763 10752 10751 10750 ] final  150.38 input  -60.55 | X-H torsion
[ 11005 11000 10999 10996 ] final  176.46 input  -57.11 | X-H torsion

> <Gold.Protein.ActiveResidues>
 VAL166  LYS551  ARG553  GLY616  TRP617  ASP618  TYR619  PRO620  LYS621  CYS622 
 ASP623  PHE694  ASN695  SER759  ASP760  ASP761  ALA762  ILE779  LEU786  VAL792 
 PHE793  MET794  SER795  GLU796  ALA797  LYS798  CYS799  TRP800  GLU811  SER814 

> <Gold.Protein.RotatedAtoms>
  152.1395  133.4455  159.4759 H   0  0  0  0  0  0  0  0  0  0  0  0  # atno 6907 bound_to 6896
  150.6885  134.2323  159.4448 H   0  0  0  0  0  0  0  0  0  0  0  0  # atno 6908 bound_to 6896
  152.0213  134.9821  160.0621 H   0  0  0  0  0  0  0  0  0  0  0  0  # atno 6909 bound_to 6896
  146.2333  139.9213  142.8509 H   0  0  0  0  0  0  0  0  0  0  0  0  # atno 7974 bound_to 7965
  154.6229  140.2504  155.7527 H   0  0  0  0  0  0  0  0  0  0  0  0  # atno 8008 bound_to 7997
  156.2437  140.2923  156.0464 H   0  0  0  0  0  0  0  0  0  0  0  0  # atno 8009 bound_to 7997
  155.1868  140.0390  157.2883 H   0  0  0  0  0  0  0  0  0  0  0  0  # atno 8010 bound_to 7997
  139.8967  143.6656  152.2602 H   0  0  0  0  0  0  0  0  0  0  0  0  # atno 10167 bound_to 10162
  156.7922  130.9522  151.3120 H   0  0  0  0  0  0  0  0  0  0  0  0  # atno 10718 bound_to 10713
  154.0866  135.2855  155.3280 H   0  0  0  0  0  0  0  0  0  0  0  0  # atno 10763 bound_to 10752
  154.6648  135.5321  153.8067 H   0  0  0  0  0  0  0  0  0  0  0  0  # atno 10764 bound_to 10752
  153.0429  135.6543  154.1038 H   0  0  0  0  0  0  0  0  0  0  0  0  # atno 10765 bound_to 10752
  140.3734  134.7010  157.4406 H   0  0  0  0  0  0  0  0  0  0  0  0  # atno 11005 bound_to 11000
  145.2134  140.9905  143.4087 LP  0  0  0  0  0  0  0  0  0  0  0  0  # atno 17320 bound_to 7965
  144.9672  139.3918  143.6327 LP  0  0  0  0  0  0  0  0  0  0  0  0  # atno 17321 bound_to 7965
  139.7061  144.7628  151.1190 LP  0  0  0  0  0  0  0  0  0  0  0  0  # atno 17342 bound_to 10162
  140.7715  143.5392  150.9332 LP  0  0  0  0  0  0  0  0  0  0  0  0  # atno 17343 bound_to 10162
  157.6595  130.8953  149.9799 LP  0  0  0  0  0  0  0  0  0  0  0  0  # atno 17370 bound_to 10713
  156.1152  130.3648  149.9980 LP  0  0  0  0  0  0  0  0  0  0  0  0  # atno 17371 bound_to 10713
  140.0534  134.6098  155.8834 LP  0  0  0  0  0  0  0  0  0  0  0  0  # atno 17394 bound_to 11000
  141.1947  133.6584  156.5608 LP  0  0  0  0  0  0  0  0  0  0  0  0  # atno 17395 bound_to 11000

$$$$
