AV-unprocessed.smi:668|AV-procd|sdf|3262|dock5
  -GOLD-   22720 0213D 1   1.00000     0.00000
 Structure written by MMmdl.
 38 39  0  0  0  0  0  0  0  0  1 V2000
  150.0794  142.0789  157.8022 C   0  0  0  0  0  0  0  0  0  0  0  0
  150.7504  141.3731  156.7640 O   0  0  0  0  0  0  0  0  0  0  0  0
  150.0075  140.5428  155.9501 C   0  0  0  0  0  0  0  0  0  0  0  0
  148.7122  140.1747  156.3649 C   0  0  0  0  0  0  0  0  0  0  0  0
  147.9480  139.3256  155.5417 C   0  0  0  0  0  0  0  0  0  0  0  0
  148.5093  138.8634  154.3270 C   0  0  0  0  0  0  0  0  0  0  0  0
  147.8393  138.0174  153.4018 N   0  0  0  0  0  0  0  0  0  0  0  0
  146.5183  137.8388  153.2298 C   0  0  0  0  0  0  0  0  0  0  0  0
  145.6329  138.3876  153.8849 O   0  0  0  0  0  0  0  0  0  0  0  0
  146.2740  136.9552  152.2517 N   0  0  0  0  0  0  0  0  0  0  0  0
  144.9473  136.5270  151.8103 C   0  0  1  0  0  0  0  0  0  0  0  0
  145.0577  135.3491  150.8274 C   0  0  0  0  0  0  0  0  0  0  0  0
  144.6244  134.1128  151.6112 C   0  0  0  0  0  0  0  0  0  0  0  0
  143.5687  134.6376  152.5793 C   0  0  0  0  0  0  0  0  0  0  0  0
  144.0742  136.0302  152.9952 C   0  0  2  0  0  0  0  0  0  0  0  0
  142.9314  136.9979  153.3407 C   0  0  0  0  0  0  0  0  0  0  0  0
  142.8181  138.0970  152.5909 N   0  0  0  0  0  0  0  0  0  0  0  0
  142.1601  136.7578  154.2678 O   0  0  0  0  0  0  0  0  0  0  0  0
  149.8081  139.3026  153.9967 C   0  0  0  0  0  0  0  0  0  0  0  0
  150.5463  140.1152  154.7815 N   0  0  0  0  0  0  0  0  0  0  0  0
  150.7998  142.6878  158.3480 H   0  0  0  0  0  0  0  0  0  0  0  0
  149.6165  141.3955  158.5158 H   0  0  0  0  0  0  0  0  0  0  0  0
  149.3174  142.7488  157.4009 H   0  0  0  0  0  0  0  0  0  0  0  0
  148.3095  140.5404  157.2979 H   0  0  0  0  0  0  0  0  0  0  0  0
  146.9499  139.0609  155.8533 H   0  0  0  0  0  0  0  0  0  0  0  0
  148.4413  137.4384  152.8346 H   0  0  0  0  0  0  0  0  0  0  0  0
  147.0633  136.5495  151.7706 H   0  0  0  0  0  0  0  0  0  0  0  0
  144.4801  137.3629  151.2846 H   0  0  0  0  0  0  0  0  0  0  0  0
  144.3636  135.5071  150.0007 H   0  0  0  0  0  0  0  0  0  0  0  0
  146.0520  135.2363  150.3929 H   0  0  0  0  0  0  0  0  0  0  0  0
  144.2466  133.3177  150.9675 H   0  0  0  0  0  0  0  0  0  0  0  0
  145.4722  133.7159  152.1712 H   0  0  0  0  0  0  0  0  0  0  0  0
  142.6081  134.6982  152.0651 H   0  0  0  0  0  0  0  0  0  0  0  0
  143.4398  133.9743  153.4351 H   0  0  0  0  0  0  0  0  0  0  0  0
  144.7056  135.8973  153.8762 H   0  0  0  0  0  0  0  0  0  0  0  0
  142.0920  138.7701  152.7875 H   0  0  0  0  0  0  0  0  0  0  0  0
  143.4702  138.2572  151.8370 H   0  0  0  0  0  0  0  0  0  0  0  0
  150.2743  138.9892  153.0740 H   0  0  0  0  0  0  0  0  0  0  0  0
  1  2  1  0  0  0  0
  1 21  1  0  0  0  0
  1 22  1  0  0  0  0
  1 23  1  0  0  0  0
  2  3  1  0  0  0  0
  3 20  1  0  0  0  0
  3  4  2  0  0  0  0
  4  5  1  0  0  0  0
  4 24  1  0  0  0  0
  5  6  2  0  0  0  0
  5 25  1  0  0  0  0
  6  7  1  0  0  0  0
  6 19  1  0  0  0  0
  7  8  1  0  0  0  0
  7 26  1  0  0  0  0
  8  9  2  0  0  0  0
  8 10  1  0  0  0  0
 10 11  1  0  0  0  0
 10 27  1  0  0  0  0
 11 15  1  0  0  0  0
 11 12  1  0  0  0  0
 11 28  1  0  0  0  0
 12 13  1  0  0  0  0
 12 29  1  0  0  0  0
 12 30  1  0  0  0  0
 13 14  1  0  0  0  0
 13 31  1  0  0  0  0
 13 32  1  0  0  0  0
 14 15  1  0  0  0  0
 14 33  1  0  0  0  0
 14 34  1  0  0  0  0
 15 16  1  0  0  0  0
 15 35  1  0  0  0  0
 16 17  1  0  0  0  0
 16 18  2  0  0  0  0
 17 36  1  0  0  0  0
 17 37  1  0  0  0  0
 19 20  2  0  0  0  0
 19 38  1  0  0  0  0
M  END
> <s_m_source_file>
AV-unprocessed.smi

> <i_m_source_file_index>
668

> <i_lp_mmshare_version>
43012

> <i_f3d_flags>
0

> <s_epik_input>
W0NIM11PYzFbY0hdW2NIXWMoW2NIXW4xKVtOSF1DKD1PKVtOSF1bQ0BASF0yW0NIMl1bQ0gyXVtDSDJdW0NASF0yQyg9TylbTkgyXQ==

> <s_epik_cmdline>
J2VwaWtfcHl0aG9uJywgJy1waCcsICc3LjAnLCAnLXRuJywgJzgnLCAnLW1hJywgJzIwMCcsICctbWV0YWxfYmluZGluZycsICctaW1hZScsICc8aW5maWxlLm1hZT4nLCAnLW9tYWUnLCAnPG91dGZpbGUubWFlPic=

> <r_lp_tautomer_probability>
1

> <r_epik_Ionization_Penalty>
9.0916e-05

> <r_epik_Ionization_Penalty_Charging>
0

> <r_epik_Ionization_Penalty_Neutral>
9.0916e-05

> <r_epik_State_Penalty>
-0

> <r_epik_Charging_Adjusted_Penalty>
0

> <i_epik_Tot_Q>
0

> <i_epik_Tot_abs_Q>
0

> <r_epik_Metal_State_Penalty>
-0

> <b_epik_Metal_Only>
0

> <s_lp_Force_Field>
OPLS_2005

> <r_lp_Energy>
17.404

> <b_lp_Chiralities_Consistent>
1

> <s_lp_Variant>
AV-unprocessed.smi:668-4

> <Gold.Version>
5.8.1

> <Gold.Id.Protein>
6NUR|6NUR_protein|mol2

> <Gold.PLP.Fitness>
38.9139

> <Gold.PLP.PLP>
-25.6164

> <Gold.PLP.part.hbond>
-4.7912

> <Gold.PLP.part.metal>
0.0000

> <Gold.PLP.part.buried>
-3.1149

> <Gold.PLP.part.nonpolar>
-19.1645

> <Gold.PLP.part.repulsive>
0.4618

> <Gold.PLP.ligand.clash>
0.0091

> <Gold.PLP.ligand.torsion>
0.3853

> <Gold.PLP.Chemscore.Hbond>
3.9280

> <Gold.PLP.Chemscore.CHOScore>
0.7634

> <Gold.PLP.Chemscore.Metal>
0.0000

> <Gold.Chemscore.Hbonds>
donor molecule, donor type, donor heavy atom, donor atom, acceptor molecule, acceptor atom, score
      L1  H     7    26       P1  7948  1.00
      L1  H    10    27       P1  7948  0.93
      L1  H    17    37       P1 10171  0.89
      P1  H  7989  7998       L1    20  0.95
      L1  C    19    38       P1  7957  0.77

> <Gold.PLP.Chemscore.Internal.Correction>
0.0031

> <Gold.Rescore>
     Score         DG    S(hbond)    S(metal)    S(lipo)     H(rot)  DE(clash)    DE(int)     intcor
     14.14     -17.08       3.22        0.00      47.99       1.86       0.53       2.41       ----

> <Gold.Chemscore.Fitness>
14.1386

> <Gold.Chemscore.DG>
-17.0794

> <Gold.Chemscore.ZeroCoef>
-5.4800

> <Gold.Chemscore.Hbond>
3.2211

> <Gold.Chemscore.Metal>
0.0000

> <Gold.Chemscore.Lipo>
47.9891

> <Gold.Chemscore.Internal_Hbond>
0.0000

> <Gold.Chemscore.DEClash>
0.5347

> <Gold.Chemscore.DEInternal>
2.4062

> <Gold.Chemscore.Rot>
1.8648

> <Gold.Chemscore.Internal.Correction>
   9.000000E+99

> <Gold.Chemscore.Hbonds>
donor molecule, donor type, donor heavy atom, donor atom, acceptor molecule, acceptor atom, score
      L1  H     7    26       P1  7948  0.99
      L1  H    10    27       P1  7948  0.89
      L1  H    17    37       P1 10171  0.65
      P1  H  7989  7998       L1    20  0.22

> <Gold.Chemscore.Hbond.Weighted>
-10.7586

> <Gold.Chemscore.Metal.Weighted>
-0.0000

> <Gold.Chemscore.Lipo.Weighted>
-5.6147

> <Gold.Chemscore.Internal_Hbond.Weighted>
0.0000

> <Gold.Chemscore.DEClash.Weighted>
0.5347

> <Gold.Chemscore.DEInternal.Weighted>
2.4062

> <Gold.Chemscore.Rot.Weighted>
4.7739

> <Gold.Chemscore.Internal.Correction.Weighted>
   9.000000E+99

> <Gold.Protein.RotatedTorsions>
[ 6907 6896 6895 6894 ] final -174.09 input  -60.11 | X-H torsion
[ 7974 7965 7964 7962 ] final   58.09 input  175.53 | X-H torsion
[ 8008 7997 7996 7995 ] final -149.30 input   59.86 | X-H torsion
[ 10167 10162 10161 10158 ] final -129.72 input  -65.29 | X-H torsion
[ 10718 10713 10712 10709 ] final   46.66 input   66.30 | X-H torsion
[ 10763 10752 10751 10750 ] final -148.38 input  -60.55 | X-H torsion
[ 11005 11000 10999 10996 ] final -113.13 input  -57.11 | X-H torsion

> <Gold.Protein.ActiveResidues>
 VAL166  LYS551  ARG553  GLY616  TRP617  ASP618  TYR619  PRO620  LYS621  CYS622 
 ASP623  PHE694  ASN695  SER759  ASP760  ASP761  ALA762  ILE779  LEU786  VAL792 
 PHE793  MET794  SER795  GLU796  ALA797  LYS798  CYS799  TRP800  GLU811  SER814 

> <Gold.Protein.RotatedAtoms>
  151.5668  133.3395  159.2981 H   0  0  0  0  0  0  0  0  0  0  0  0  # atno 6907 bound_to 6896
  150.8390  134.7678  159.6928 H   0  0  0  0  0  0  0  0  0  0  0  0  # atno 6908 bound_to 6896
  152.4462  134.5497  159.9915 H   0  0  0  0  0  0  0  0  0  0  0  0  # atno 6909 bound_to 6896
  145.9220  139.3737  143.0473 H   0  0  0  0  0  0  0  0  0  0  0  0  # atno 7974 bound_to 7965
  155.6054  140.0666  157.2721 H   0  0  0  0  0  0  0  0  0  0  0  0  # atno 8008 bound_to 7997
  154.4267  140.1811  156.1264 H   0  0  0  0  0  0  0  0  0  0  0  0  # atno 8009 bound_to 7997
  156.0126  140.3325  155.6960 H   0  0  0  0  0  0  0  0  0  0  0  0  # atno 8010 bound_to 7997
  139.9368  143.6209  152.2515 H   0  0  0  0  0  0  0  0  0  0  0  0  # atno 10167 bound_to 10162
  157.4504  130.8135  149.7783 H   0  0  0  0  0  0  0  0  0  0  0  0  # atno 10718 bound_to 10713
  154.8236  135.3336  154.6964 H   0  0  0  0  0  0  0  0  0  0  0  0  # atno 10763 bound_to 10752
  153.7594  135.6933  153.4933 H   0  0  0  0  0  0  0  0  0  0  0  0  # atno 10764 bound_to 10752
  153.2121  135.4478  155.0341 H   0  0  0  0  0  0  0  0  0  0  0  0  # atno 10765 bound_to 10752
  141.0633  133.9500  157.2626 H   0  0  0  0  0  0  0  0  0  0  0  0  # atno 11005 bound_to 11000
  145.8538  140.9514  143.0736 LP  0  0  0  0  0  0  0  0  0  0  0  0  # atno 17320 bound_to 7965
  144.6754  140.0441  143.7480 LP  0  0  0  0  0  0  0  0  0  0  0  0  # atno 17321 bound_to 7965
  139.6737  144.7659  151.1736 LP  0  0  0  0  0  0  0  0  0  0  0  0  # atno 17342 bound_to 10162
  140.7622  143.5827  150.8878 LP  0  0  0  0  0  0  0  0  0  0  0  0  # atno 17343 bound_to 10162
  155.9985  130.3894  150.2701 LP  0  0  0  0  0  0  0  0  0  0  0  0  # atno 17370 bound_to 10713
  157.0872  131.0159  151.3135 LP  0  0  0  0  0  0  0  0  0  0  0  0  # atno 17371 bound_to 10713
  139.9452  135.0185  156.8832 LP  0  0  0  0  0  0  0  0  0  0  0  0  # atno 17394 bound_to 11000
  140.5825  134.0339  155.7469 LP  0  0  0  0  0  0  0  0  0  0  0  0  # atno 17395 bound_to 11000

$$$$
