AV-unprocessed.smi:2973|AV-procd|sdf|11338|dock3
  -GOLD-   2272016253D 1   1.00000     0.00000
 Structure written by MMmdl.
 49 51  0  0  0  0  0  0  0  0  1 V2000
  150.9132  137.3889  154.7793 C   0  0  0  0  0  0  0  0  0  0  0  0
  150.6074  138.9021  154.8044 C   0  0  1  0  0  0  0  0  0  0  0  0
  149.2665  139.1819  154.0913 C   0  0  0  0  0  0  0  0  0  0  0  0
  148.9449  140.6835  154.0336 C   0  0  0  0  0  0  0  0  0  0  0  0
  148.9428  141.3081  155.4357 C   0  0  0  0  0  0  0  0  0  0  0  0
  150.2793  141.0546  156.1506 C   0  0  0  0  0  0  0  0  0  0  0  0
  150.6199  139.5467  156.2257 C   0  0  1  0  0  0  0  0  0  0  0  0
  149.7327  138.8593  157.1496 N   0  0  0  0  0  0  0  0  0  0  0  0
  150.3737  138.3539  158.2109 C   0  0  0  0  0  0  0  0  0  0  0  0
  149.8417  137.7413  159.1348 O   0  0  0  0  0  0  0  0  0  0  0  0
  151.6833  138.6401  158.0904 N   0  0  0  0  0  0  0  0  0  0  0  0
  152.7088  138.2626  159.0750 C   0  0  0  0  0  0  0  0  0  0  0  0
  153.5805  139.4217  159.5888 C   0  0  0  0  0  0  0  0  0  0  0  0
  154.4480  139.8864  158.8502 O   0  0  0  0  0  0  0  0  0  0  0  0
  153.3658  139.8814  160.8335 N   0  0  0  0  0  0  0  0  0  0  0  0
  154.1222  140.9459  161.4815 C   0  0  0  0  0  0  0  0  0  0  0  0
  153.1925  142.0347  162.0435 C   0  0  0  0  0  0  0  0  0  0  0  0
  152.7153  142.9967  160.9723 C   0  0  0  0  0  0  0  0  0  0  0  0
  153.0713  142.8038  159.6204 C   0  0  0  0  0  0  0  0  0  0  0  0
  152.6027  143.7266  158.6649 C   0  0  0  0  0  0  0  0  0  0  0  0
  151.7991  144.7998  159.0957 C   0  0  0  0  0  0  0  0  0  0  0  0
  151.4961  144.9014  160.4681 C   0  0  0  0  0  0  0  0  0  0  0  0
  151.9400  144.0221  161.3924 N   0  0  0  0  0  0  0  0  0  0  0  0
  151.9318  139.3346  156.9714 C   0  0  0  0  0  0  0  0  0  0  0  0
  153.0224  139.7529  156.5825 O   0  0  0  0  0  0  0  0  0  0  0  0
  150.1697  136.8181  155.3359 H   0  0  0  0  0  0  0  0  0  0  0  0
  151.8922  137.1638  155.2025 H   0  0  0  0  0  0  0  0  0  0  0  0
  150.9144  137.0109  153.7567 H   0  0  0  0  0  0  0  0  0  0  0  0
  151.3878  139.3896  154.2173 H   0  0  0  0  0  0  0  0  0  0  0  0
  149.2947  138.7826  153.0768 H   0  0  0  0  0  0  0  0  0  0  0  0
  148.4580  138.6574  154.6022 H   0  0  0  0  0  0  0  0  0  0  0  0
  149.6802  141.1910  153.4081 H   0  0  0  0  0  0  0  0  0  0  0  0
  147.9760  140.8368  153.5577 H   0  0  0  0  0  0  0  0  0  0  0  0
  148.7585  142.3804  155.3634 H   0  0  0  0  0  0  0  0  0  0  0  0
  148.1223  140.8938  156.0228 H   0  0  0  0  0  0  0  0  0  0  0  0
  151.0693  141.5836  155.6148 H   0  0  0  0  0  0  0  0  0  0  0  0
  150.2469  141.4924  157.1500 H   0  0  0  0  0  0  0  0  0  0  0  0
  148.7373  138.7861  156.9978 H   0  0  0  0  0  0  0  0  0  0  0  0
  152.2319  137.7888  159.9346 H   0  0  0  0  0  0  0  0  0  0  0  0
  153.3669  137.5012  158.6531 H   0  0  0  0  0  0  0  0  0  0  0  0
  152.6320  139.4499  161.3763 H   0  0  0  0  0  0  0  0  0  0  0  0
  154.7521  140.5332  162.2714 H   0  0  0  0  0  0  0  0  0  0  0  0
  154.7948  141.3767  160.7393 H   0  0  0  0  0  0  0  0  0  0  0  0
  152.3237  141.5756  162.5172 H   0  0  0  0  0  0  0  0  0  0  0  0
  153.7019  142.6002  162.8249 H   0  0  0  0  0  0  0  0  0  0  0  0
  153.6887  141.9693  159.3213 H   0  0  0  0  0  0  0  0  0  0  0  0
  152.8554  143.6134  157.6211 H   0  0  0  0  0  0  0  0  0  0  0  0
  151.4233  145.5273  158.3915 H   0  0  0  0  0  0  0  0  0  0  0  0
  150.8820  145.7110  160.8334 H   0  0  0  0  0  0  0  0  0  0  0  0
  1  2  1  0  0  0  0
  1 26  1  0  0  0  0
  1 27  1  0  0  0  0
  1 28  1  0  0  0  0
  2  7  1  0  0  0  0
  2  3  1  0  0  0  0
  2 29  1  0  0  0  0
  3  4  1  0  0  0  0
  3 30  1  0  0  0  0
  3 31  1  0  0  0  0
  4  5  1  0  0  0  0
  4 32  1  0  0  0  0
  4 33  1  0  0  0  0
  5  6  1  0  0  0  0
  5 34  1  0  0  0  0
  5 35  1  0  0  0  0
  6  7  1  0  0  0  0
  6 36  1  0  0  0  0
  6 37  1  0  0  0  0
  7 24  1  0  0  0  0
  7  8  1  0  0  0  0
  8  9  1  0  0  0  0
  8 38  1  0  0  0  0
  9 10  2  0  0  0  0
  9 11  1  0  0  0  0
 11 12  1  0  0  0  0
 11 24  1  0  0  0  0
 12 13  1  0  0  0  0
 12 39  1  0  0  0  0
 12 40  1  0  0  0  0
 13 14  2  0  0  0  0
 13 15  1  0  0  0  0
 15 16  1  0  0  0  0
 15 41  1  0  0  0  0
 16 17  1  0  0  0  0
 16 42  1  0  0  0  0
 16 43  1  0  0  0  0
 17 18  1  0  0  0  0
 17 44  1  0  0  0  0
 17 45  1  0  0  0  0
 18 23  1  0  0  0  0
 18 19  2  0  0  0  0
 19 20  1  0  0  0  0
 19 46  1  0  0  0  0
 20 21  2  0  0  0  0
 20 47  1  0  0  0  0
 21 22  1  0  0  0  0
 21 48  1  0  0  0  0
 22 23  2  0  0  0  0
 22 49  1  0  0  0  0
 24 25  2  0  0  0  0
M  END
> <s_m_source_file>
AV-unprocessed.smi

> <i_m_source_file_index>
2973

> <i_lp_mmshare_version>
43012

> <i_f3d_flags>
0

> <s_epik_input>
W0NIMl0xW0NIMl1bQ0gyXVtDSDJdW0NAQEhdKFtDSDNdKVtDQF0xMltOSF1DKD1PKU4oQzI9TylbQ0gyXUMoPU8pW05IXVtDSDJdW0NIMl1jM1tjSF1bY0hdW2NIXVtjSF1uMw==

> <s_epik_cmdline>
J2VwaWtfcHl0aG9uJywgJy1waCcsICc3LjAnLCAnLXRuJywgJzgnLCAnLW1hJywgJzIwMCcsICctbWV0YWxfYmluZGluZycsICctaW1hZScsICc8aW5maWxlLm1hZT4nLCAnLW9tYWUnLCAnPG91dGZpbGUubWFlPic=

> <r_lp_tautomer_probability>
1

> <r_epik_Ionization_Penalty>
0.0245152

> <r_epik_Ionization_Penalty_Charging>
0

> <r_epik_Ionization_Penalty_Neutral>
0.0245152

> <r_epik_State_Penalty>
0.0198648

> <r_epik_Charging_Adjusted_Penalty>
0.0198648

> <i_epik_Tot_Q>
0

> <i_epik_Tot_abs_Q>
0

> <r_epik_Metal_State_Penalty>
0.0400162

> <b_epik_Metal_Only>
0

> <s_lp_Force_Field>
OPLS_2005

> <r_lp_Energy>
22.4148

> <b_lp_Chiralities_Consistent>
1

> <s_lp_Variant>
AV-unprocessed.smi:2973-2

> <Gold.Version>
5.8.1

> <Gold.Id.Protein>
6NUR|6NUR_protein|mol2

> <Gold.PLP.Fitness>
52.8350

> <Gold.PLP.PLP>
-49.2626

> <Gold.PLP.part.hbond>
-2.7272

> <Gold.PLP.part.metal>
0.0000

> <Gold.PLP.part.buried>
-2.0173

> <Gold.PLP.part.nonpolar>
-45.2764

> <Gold.PLP.part.repulsive>
0.2631

> <Gold.PLP.ligand.clash>
0.0000

> <Gold.PLP.ligand.torsion>
0.3522

> <Gold.PLP.Chemscore.Hbond>
1.4080

> <Gold.PLP.Chemscore.CHOScore>
0.0000

> <Gold.PLP.Chemscore.Metal>
0.0000

> <Gold.Chemscore.Hbonds>
donor molecule, donor type, donor heavy atom, donor atom, acceptor molecule, acceptor atom, score
      P1  H  7997  8008       L1    25  0.78
      P1  H  7997  8010       L1    14  0.43

> <Gold.PLP.Chemscore.Internal.Correction>
0.0528

> <Gold.Rescore>
     Score         DG    S(hbond)    S(metal)    S(lipo)     H(rot)  DE(clash)    DE(int)     intcor
     18.67     -20.71       1.39        0.00     131.08       1.86       0.17       1.87       ----

> <Gold.Chemscore.Fitness>
18.6702

> <Gold.Chemscore.DG>
-20.7099

> <Gold.Chemscore.ZeroCoef>
-5.4800

> <Gold.Chemscore.Hbond>
1.3900

> <Gold.Chemscore.Metal>
0.0000

> <Gold.Chemscore.Lipo>
131.0847

> <Gold.Chemscore.Internal_Hbond>
0.0000

> <Gold.Chemscore.DEClash>
0.1665

> <Gold.Chemscore.DEInternal>
1.8732

> <Gold.Chemscore.Rot>
1.8553

> <Gold.Chemscore.Internal.Correction>
   9.000000E+99

> <Gold.Chemscore.Hbonds>
donor molecule, donor type, donor heavy atom, donor atom, acceptor molecule, acceptor atom, score
      P1  H  7997  8008       L1    25  0.73
      P1  H  7997  8010       L1    14  0.42

> <Gold.Chemscore.Hbond.Weighted>
-4.6427

> <Gold.Chemscore.Metal.Weighted>
-0.0000

> <Gold.Chemscore.Lipo.Weighted>
-15.3369

> <Gold.Chemscore.Internal_Hbond.Weighted>
0.0000

> <Gold.Chemscore.DEClash.Weighted>
0.1665

> <Gold.Chemscore.DEInternal.Weighted>
1.8732

> <Gold.Chemscore.Rot.Weighted>
4.7497

> <Gold.Chemscore.Internal.Correction.Weighted>
   9.000000E+99

> <Gold.Protein.RotatedTorsions>
[ 6907 6896 6895 6894 ] final   57.45 input  -60.11 | X-H torsion
[ 7974 7965 7964 7962 ] final   15.72 input  175.53 | X-H torsion
[ 8008 7997 7996 7995 ] final  -31.57 input   59.86 | X-H torsion
[ 10167 10162 10161 10158 ] final -169.43 input  -65.29 | X-H torsion
[ 10718 10713 10712 10709 ] final   32.33 input   66.30 | X-H torsion
[ 10763 10752 10751 10750 ] final  151.49 input  -60.55 | X-H torsion
[ 11005 11000 10999 10996 ] final   73.68 input  -57.11 | X-H torsion

> <Gold.Protein.ActiveResidues>
 VAL166  LYS551  ARG553  GLY616  TRP617  ASP618  TYR619  PRO620  LYS621  CYS622 
 ASP623  PHE694  ASN695  SER759  ASP760  ASP761  ALA762  ILE779  LEU786  VAL792 
 PHE793  MET794  SER795  GLU796  ALA797  LYS798  CYS799  TRP800  GLU811  SER814 

> <Gold.Protein.RotatedAtoms>
  152.3732  134.6702  160.0168 H   0  0  0  0  0  0  0  0  0  0  0  0  # atno 6907 bound_to 6896
  151.6988  133.3305  159.3269 H   0  0  0  0  0  0  0  0  0  0  0  0  # atno 6908 bound_to 6896
  150.7690  134.6569  159.6363 H   0  0  0  0  0  0  0  0  0  0  0  0  # atno 6909 bound_to 6896
  146.2270  139.8852  142.8564 H   0  0  0  0  0  0  0  0  0  0  0  0  # atno 7974 bound_to 7965
  154.4209  140.1761  156.1588 H   0  0  0  0  0  0  0  0  0  0  0  0  # atno 8008 bound_to 7997
  155.9855  140.3373  155.6679 H   0  0  0  0  0  0  0  0  0  0  0  0  # atno 8009 bound_to 7997
  155.6443  140.0683  157.2599 H   0  0  0  0  0  0  0  0  0  0  0  0  # atno 8010 bound_to 7997
  139.5923  144.1186  152.1649 H   0  0  0  0  0  0  0  0  0  0  0  0  # atno 10167 bound_to 10162
  157.2838  130.7268  149.6571 H   0  0  0  0  0  0  0  0  0  0  0  0  # atno 10718 bound_to 10713
  154.1047  135.2843  155.3244 H   0  0  0  0  0  0  0  0  0  0  0  0  # atno 10763 bound_to 10752
  154.6531  135.5362  153.7929 H   0  0  0  0  0  0  0  0  0  0  0  0  # atno 10764 bound_to 10752
  153.0366  135.6515  154.1209 H   0  0  0  0  0  0  0  0  0  0  0  0  # atno 10765 bound_to 10752
  139.9428  134.7368  156.1056 H   0  0  0  0  0  0  0  0  0  0  0  0  # atno 11005 bound_to 11000
  145.2472  141.0031  143.3901 LP  0  0  0  0  0  0  0  0  0  0  0  0  # atno 17320 bound_to 7965
  144.9403  139.4196  143.6452 LP  0  0  0  0  0  0  0  0  0  0  0  0  # atno 17321 bound_to 7965
  140.0763  144.5737  150.7154 LP  0  0  0  0  0  0  0  0  0  0  0  0  # atno 17342 bound_to 10162
  140.7183  143.2565  151.4361 LP  0  0  0  0  0  0  0  0  0  0  0  0  # atno 17343 bound_to 10162
  155.9665  130.4330  150.4986 LP  0  0  0  0  0  0  0  0  0  0  0  0  # atno 17370 bound_to 10713
  157.2936  131.0631  151.2117 LP  0  0  0  0  0  0  0  0  0  0  0  0  # atno 17371 bound_to 10713
  141.1068  133.6657  156.2883 LP  0  0  0  0  0  0  0  0  0  0  0  0  # atno 17394 bound_to 11000
  140.5910  134.5651  157.5499 LP  0  0  0  0  0  0  0  0  0  0  0  0  # atno 17395 bound_to 11000

$$$$
