AV-unprocessed.smi:1718|AV-procd|sdf|6927|dock9
  -GOLD-   22720 8133D 1   1.00000     0.00000
 Structure written by MMmdl.
 39 40  0  0  0  0  0  0  0  0  2 V2000
  147.2790  134.0786  155.0158 C   0  0  0  0  0  0  0  0  0  0  0  0
  148.4108  134.2533  156.0395 C   0  0  1  0  0  0  0  0  0  0  0  0
  148.9972  135.5321  155.8127 O   0  0  0  0  0  0  0  0  0  0  0  0
  150.3528  135.5160  155.3792 C   0  0  0  0  0  0  0  0  0  0  0  0
  150.9504  136.9124  155.5876 C   0  0  2  0  0  0  0  0  0  0  0  0
  150.3629  137.9886  154.6776 C   0  0  0  0  0  0  0  0  0  0  0  0
  151.4626  139.0257  154.6928 C   0  0  0  0  0  0  0  0  0  0  0  0
  152.7211  138.1598  154.7092 C   0  0  0  0  0  0  0  0  0  0  0  0
  152.3426  136.9123  155.2879 O   0  0  0  0  0  0  0  0  0  0  0  0
  147.8849  134.1544  157.4810 C   0  0  0  0  0  0  0  0  0  0  0  0
  147.3669  133.1055  157.8645 O   0  0  0  0  0  0  0  0  0  0  0  0
  148.0431  135.2636  158.2297 N   0  0  0  0  0  0  0  0  0  0  0  0
  147.6352  135.5180  159.5500 C   0  0  0  0  0  0  0  0  0  0  0  0
  146.4149  135.1971  160.0623 C   0  0  0  0  0  0  0  0  0  0  0  0
  146.0408  135.5027  161.4374 C   0  0  0  0  0  0  0  0  0  0  0  0
  144.7291  135.0720  162.0697 C   0  0  0  0  0  0  0  0  0  0  0  0
  144.9348  134.1841  163.0425 F   0  0  0  0  0  0  0  0  0  0  0  0
  144.1105  136.1280  162.5958 F   0  0  0  0  0  0  0  0  0  0  0  0
  143.9189  134.5240  161.1642 F   0  0  0  0  0  0  0  0  0  0  0  0
  147.0572  136.1321  162.1294 C   0  0  0  0  0  0  0  0  0  0  0  0
  148.2783  136.5092  161.6911 N   0  5  0  0  0  0  0  0  0  0  0  0
  148.6167  136.2201  160.4029 C   0  0  0  0  0  0  0  0  0  0  0  0
  149.7147  136.5312  159.9397 O   0  0  0  0  0  0  0  0  0  0  0  0
  146.7757  133.1194  155.1414 H   0  0  0  0  0  0  0  0  0  0  0  0
  147.6704  134.1138  153.9990 H   0  0  0  0  0  0  0  0  0  0  0  0
  146.5298  134.8661  155.1061 H   0  0  0  0  0  0  0  0  0  0  0  0
  149.1564  133.4761  155.8597 H   0  0  0  0  0  0  0  0  0  0  0  0
  150.9310  134.7896  155.9509 H   0  0  0  0  0  0  0  0  0  0  0  0
  150.4155  135.2294  154.3284 H   0  0  0  0  0  0  0  0  0  0  0  0
  150.8372  137.2145  156.6301 H   0  0  0  0  0  0  0  0  0  0  0  0
  150.2238  137.6056  153.6654 H   0  0  0  0  0  0  0  0  0  0  0  0
  149.4065  138.3720  155.0343 H   0  0  0  0  0  0  0  0  0  0  0  0
  151.4239  139.7070  153.8424 H   0  0  0  0  0  0  0  0  0  0  0  0
  151.4023  139.6174  155.6072 H   0  0  0  0  0  0  0  0  0  0  0  0
  153.0750  137.9770  153.6941 H   0  0  0  0  0  0  0  0  0  0  0  0
  153.5311  138.6260  155.2705 H   0  0  0  0  0  0  0  0  0  0  0  0
  148.5529  136.0226  157.8005 H   0  0  0  0  0  0  0  0  0  0  0  0
  145.6665  134.7195  159.4520 H   0  0  0  0  0  0  0  0  0  0  0  0
  146.8608  136.3642  163.1980 H   0  0  0  0  0  0  0  0  0  0  0  0
  1  2  1  0  0  0  0
  1 24  1  0  0  0  0
  1 25  1  0  0  0  0
  1 26  1  0  0  0  0
  2  3  1  0  0  0  0
  2 10  1  0  0  0  0
  2 27  1  0  0  0  0
  3  4  1  0  0  0  0
  4  5  1  0  0  0  0
  4 28  1  0  0  0  0
  4 29  1  0  0  0  0
  5  9  1  0  0  0  0
  5  6  1  0  0  0  0
  5 30  1  0  0  0  0
  6  7  1  0  0  0  0
  6 31  1  0  0  0  0
  6 32  1  0  0  0  0
  7  8  1  0  0  0  0
  7 33  1  0  0  0  0
  7 34  1  0  0  0  0
  8  9  1  0  0  0  0
  8 35  1  0  0  0  0
  8 36  1  0  0  0  0
 10 11  2  0  0  0  0
 10 12  1  0  0  0  0
 12 13  1  0  0  0  0
 12 37  1  0  0  0  0
 13 22  1  0  0  0  0
 13 14  2  0  0  0  0
 14 15  1  0  0  0  0
 14 38  1  0  0  0  0
 15 16  1  0  0  0  0
 15 20  2  0  0  0  0
 16 17  1  0  0  0  0
 16 18  1  0  0  0  0
 16 19  1  0  0  0  0
 20 21  1  0  0  0  0
 20 39  1  0  0  0  0
 21 22  1  0  0  0  0
 22 23  2  0  0  0  0
M  CHG  1  21  -1
M  END
> <s_m_source_file>
AV-unprocessed.smi

> <i_m_source_file_index>
1718

> <i_lp_mmshare_version>
43012

> <i_f3d_flags>
0

> <s_epik_input>
TzFbQ0gyXVtDSDJdW0NIMl1bQ0BIXTFbQ0gyXU9bQ0BASF0oW0NIM10pQyg9TylbTkhdYzJbY0hdYyhDKEYpKEYpRilbY0hdW25IXWMyPU8=

> <s_epik_cmdline>
J2VwaWtfcHl0aG9uJywgJy1waCcsICc3LjAnLCAnLXRuJywgJzgnLCAnLW1hJywgJzIwMCcsICctbWV0YWxfYmluZGluZycsICctaW1hZScsICc8aW5maWxlLm1hZT4nLCAnLW9tYWUnLCAnPG91dGZpbGUubWFlPic=

> <r_epik_Ionization_Penalty>
2.5466

> <r_epik_Ionization_Penalty_Charging>
0.0575837

> <r_epik_Ionization_Penalty_Neutral>
2.48901

> <r_epik_State_Penalty>
2.6532

> <r_epik_Charging_Adjusted_Penalty>
2.71078

> <i_epik_Tot_Q>
-1

> <i_epik_Tot_abs_Q>
1

> <r_epik_Metal_State_Penalty>
0.516196

> <b_epik_Metal_Only>
0

> <s_lp_Force_Field>
OPLS_2005

> <r_lp_Energy>
37.0387

> <b_lp_Chiralities_Consistent>
1

> <s_lp_Variant>
AV-unprocessed.smi:1718-6

> <Gold.Version>
5.8.1

> <Gold.Id.Protein>
6NUR|6NUR_protein|mol2

> <Gold.PLP.Fitness>
38.6782

> <Gold.PLP.PLP>
-30.2971

> <Gold.PLP.part.hbond>
-3.1035

> <Gold.PLP.part.metal>
0.0000

> <Gold.PLP.part.buried>
-3.7328

> <Gold.PLP.part.nonpolar>
-24.3889

> <Gold.PLP.part.repulsive>
0.1593

> <Gold.PLP.ligand.clash>
0.0000

> <Gold.PLP.ligand.torsion>
1.2668

> <Gold.PLP.Chemscore.Hbond>
3.5970

> <Gold.PLP.Chemscore.CHOScore>
0.0000

> <Gold.PLP.Chemscore.Metal>
0.0000

> <Gold.Chemscore.Hbonds>
donor molecule, donor type, donor heavy atom, donor atom, acceptor molecule, acceptor atom, score
      P1  H  6896  6909       L1    23  1.00
      P1  H  6931  6943       L1    21  2.00
      P1  H 10752 10764       L1     9  0.83

> <Gold.PLP.Chemscore.Internal.Correction>
0.1238

> <Gold.Rescore>
     Score         DG    S(hbond)    S(metal)    S(lipo)     H(rot)  DE(clash)    DE(int)     intcor
     14.08     -15.39       2.10        0.00      65.09       1.85       0.03       1.29       ----

> <Gold.Chemscore.Fitness>
14.0822

> <Gold.Chemscore.DG>
-15.3937

> <Gold.Chemscore.ZeroCoef>
-5.4800

> <Gold.Chemscore.Hbond>
2.1027

> <Gold.Chemscore.Metal>
0.0000

> <Gold.Chemscore.Lipo>
65.0878

> <Gold.Chemscore.Internal_Hbond>
0.0000

> <Gold.Chemscore.DEClash>
0.0259

> <Gold.Chemscore.DEInternal>
1.2856

> <Gold.Chemscore.Rot>
1.8455

> <Gold.Chemscore.Internal.Correction>
   9.000000E+99

> <Gold.Chemscore.Hbonds>
donor molecule, donor type, donor heavy atom, donor atom, acceptor molecule, acceptor atom, score
      P1  H  6896  6909       L1    23  0.85
      P1  H  6931  6943       L1    21  0.35
      P1  H 10752 10764       L1     9  0.75

> <Gold.Chemscore.Hbond.Weighted>
-7.0229

> <Gold.Chemscore.Metal.Weighted>
-0.0000

> <Gold.Chemscore.Lipo.Weighted>
-7.6153

> <Gold.Chemscore.Internal_Hbond.Weighted>
0.0000

> <Gold.Chemscore.DEClash.Weighted>
0.0259

> <Gold.Chemscore.DEInternal.Weighted>
1.2856

> <Gold.Chemscore.Rot.Weighted>
4.7245

> <Gold.Chemscore.Internal.Correction.Weighted>
   9.000000E+99

> <Gold.Protein.RotatedTorsions>
[ 6907 6896 6895 6894 ] final   85.60 input  -60.11 | X-H torsion
[ 7974 7965 7964 7962 ] final  125.72 input  175.53 | X-H torsion
[ 8008 7997 7996 7995 ] final  162.88 input   59.86 | X-H torsion
[ 10167 10162 10161 10158 ] final  145.98 input  -65.29 | X-H torsion
[ 10718 10713 10712 10709 ] final   54.36 input   66.30 | X-H torsion
[ 10763 10752 10751 10750 ] final  -45.89 input  -60.55 | X-H torsion
[ 11005 11000 10999 10996 ] final   74.38 input  -57.11 | X-H torsion

> <Gold.Protein.ActiveResidues>
 VAL166  LYS551  ARG553  GLY616  TRP617  ASP618  TYR619  PRO620  LYS621  CYS622 
 ASP623  PHE694  ASN695  SER759  ASP760  ASP761  ALA762  ILE779  LEU786  VAL792 
 PHE793  MET794  SER795  GLU796  ALA797  LYS798  CYS799  TRP800  GLU811  SER814 

> <Gold.Protein.RotatedAtoms>
  152.5378  134.2562  159.8917 H   0  0  0  0  0  0  0  0  0  0  0  0  # atno 6907 bound_to 6896
  151.2523  133.4337  159.2619 H   0  0  0  0  0  0  0  0  0  0  0  0  # atno 6908 bound_to 6896
  151.0528  134.9698  159.8276 H   0  0  0  0  0  0  0  0  0  0  0  0  # atno 6909 bound_to 6896
  145.0698  139.3739  143.4963 H   0  0  0  0  0  0  0  0  0  0  0  0  # atno 7974 bound_to 7965
  156.1999  140.1738  156.7921 H   0  0  0  0  0  0  0  0  0  0  0  0  # atno 8008 bound_to 7997
  154.5578  140.0705  156.8802 H   0  0  0  0  0  0  0  0  0  0  0  0  # atno 8009 bound_to 7997
  155.2906  140.3355  155.4255 H   0  0  0  0  0  0  0  0  0  0  0  0  # atno 8010 bound_to 7997
  139.4916  144.5863  151.6772 H   0  0  0  0  0  0  0  0  0  0  0  0  # atno 10167 bound_to 10162
  157.5250  130.8591  149.8610 H   0  0  0  0  0  0  0  0  0  0  0  0  # atno 10718 bound_to 10713
  154.0360  135.6650  153.4785 H   0  0  0  0  0  0  0  0  0  0  0  0  # atno 10763 bound_to 10752
  153.0521  135.5078  154.7888 H   0  0  0  0  0  0  0  0  0  0  0  0  # atno 10764 bound_to 10752
  154.6848  135.3051  154.9528 H   0  0  0  0  0  0  0  0  0  0  0  0  # atno 10765 bound_to 10752
  139.9394  134.7428  156.1141 H   0  0  0  0  0  0  0  0  0  0  0  0  # atno 11005 bound_to 11000
  146.3528  140.0437  142.8641 LP  0  0  0  0  0  0  0  0  0  0  0  0  # atno 17320 bound_to 7965
  145.1307  140.9516  143.4546 LP  0  0  0  0  0  0  0  0  0  0  0  0  # atno 17321 bound_to 7965
  140.5480  144.0472  150.6115 LP  0  0  0  0  0  0  0  0  0  0  0  0  # atno 17342 bound_to 10162
  140.3517  143.2959  152.0480 LP  0  0  0  0  0  0  0  0  0  0  0  0  # atno 17343 bound_to 10162
  156.0380  130.3746  150.1508 LP  0  0  0  0  0  0  0  0  0  0  0  0  # atno 17370 bound_to 10713
  156.9695  130.9830  151.3462 LP  0  0  0  0  0  0  0  0  0  0  0  0  # atno 17371 bound_to 10713
  141.1022  133.6673  156.2780 LP  0  0  0  0  0  0  0  0  0  0  0  0  # atno 17394 bound_to 11000
  140.5992  134.5572  157.5514 LP  0  0  0  0  0  0  0  0  0  0  0  0  # atno 17395 bound_to 11000

$$$$
