AV-unprocessed.smi:2449|AV-procd|sdf|9663|dock6
  -GOLD-   2272013303D 1   1.00000     0.00000
 Structure written by MMmdl.
 37 37  0  0  0  0  0  0  0  0  1 V2000
  152.8548  142.5643  162.0598 C   0  0  0  0  0  0  0  0  0  0  0  0
  152.6620  143.6020  160.9491 C   0  0  0  0  0  0  0  0  0  0  0  0
  152.1455  142.9699  159.6402 C   0  0  0  0  0  0  0  0  0  0  0  0
  151.6233  143.9646  158.5652 C   0  0  0  0  0  0  0  0  0  0  0  0
  150.5906  144.9264  159.1853 C   0  0  0  0  0  0  0  0  0  0  0  0
  152.7961  144.8101  158.0221 C   0  0  0  0  0  0  0  0  0  0  0  0
  150.9506  143.2667  157.4617 N   0  0  0  0  0  0  0  0  0  0  0  0
  150.1810  142.1649  157.5163 C   0  0  0  0  0  0  0  0  0  0  0  0
  149.9556  141.5368  158.5511 O   0  0  0  0  0  0  0  0  0  0  0  0
  149.5823  141.6980  156.1823 C   0  0  0  0  0  0  0  0  0  0  0  0
  150.3105  140.5591  155.6043 N   0  0  0  0  0  0  0  0  0  0  0  0
  151.5683  140.2151  156.0790 C   0  0  0  0  0  0  0  0  0  0  0  0
  152.2856  139.1708  155.6005 C   0  0  0  0  0  0  0  0  0  0  0  0
  151.7503  138.3344  154.5316 C   0  0  0  0  0  0  0  0  0  0  0  0
  152.3233  137.3692  154.0317 O   0  0  0  0  0  0  0  0  0  0  0  0
  150.4817  138.7111  154.0824 N   0  0  0  0  0  0  0  0  0  0  0  0
  149.7371  139.7856  154.5710 C   0  0  0  0  0  0  0  0  0  0  0  0
  148.6246  140.0299  154.1048 O   0  0  0  0  0  0  0  0  0  0  0  0
  150.0689  138.1588  153.3448 H   0  0  0  0  0  0  0  0  0  0  0  0
  153.2239  143.0361  162.9707 H   0  0  0  0  0  0  0  0  0  0  0  0
  153.5745  141.8003  161.7647 H   0  0  0  0  0  0  0  0  0  0  0  0
  151.9151  142.0663  162.3005 H   0  0  0  0  0  0  0  0  0  0  0  0
  151.9673  144.3638  161.3029 H   0  0  0  0  0  0  0  0  0  0  0  0
  153.6114  144.1070  160.7742 H   0  0  0  0  0  0  0  0  0  0  0  0
  152.9424  142.3650  159.2052 H   0  0  0  0  0  0  0  0  0  0  0  0
  151.3569  142.2599  159.8910 H   0  0  0  0  0  0  0  0  0  0  0  0
  151.0060  145.4565  160.0431 H   0  0  0  0  0  0  0  0  0  0  0  0
  149.6958  144.4036  159.5232 H   0  0  0  0  0  0  0  0  0  0  0  0
  150.2675  145.6775  158.4634 H   0  0  0  0  0  0  0  0  0  0  0  0
  153.2453  145.4110  158.8136 H   0  0  0  0  0  0  0  0  0  0  0  0
  152.4650  145.4949  157.2405 H   0  0  0  0  0  0  0  0  0  0  0  0
  153.5902  144.1924  157.6026 H   0  0  0  0  0  0  0  0  0  0  0  0
  151.0668  143.6871  156.5510 H   0  0  0  0  0  0  0  0  0  0  0  0
  148.5294  141.4381  156.3107 H   0  0  0  0  0  0  0  0  0  0  0  0
  149.5892  142.5453  155.4953 H   0  0  0  0  0  0  0  0  0  0  0  0
  152.0033  140.8037  156.8742 H   0  0  0  0  0  0  0  0  0  0  0  0
  153.2605  138.9524  156.0119 H   0  0  0  0  0  0  0  0  0  0  0  0
  1  2  1  0  0  0  0
  1 20  1  0  0  0  0
  1 21  1  0  0  0  0
  1 22  1  0  0  0  0
  2  3  1  0  0  0  0
  2 23  1  0  0  0  0
  2 24  1  0  0  0  0
  3  4  1  0  0  0  0
  3 25  1  0  0  0  0
  3 26  1  0  0  0  0
  4  5  1  0  0  0  0
  4  6  1  0  0  0  0
  4  7  1  0  0  0  0
  5 27  1  0  0  0  0
  5 28  1  0  0  0  0
  5 29  1  0  0  0  0
  6 30  1  0  0  0  0
  6 31  1  0  0  0  0
  6 32  1  0  0  0  0
  7  8  1  0  0  0  0
  7 33  1  0  0  0  0
  8  9  2  0  0  0  0
  8 10  1  0  0  0  0
 10 11  1  0  0  0  0
 10 34  1  0  0  0  0
 10 35  1  0  0  0  0
 11 17  1  0  0  0  0
 11 12  1  0  0  0  0
 12 13  2  0  0  0  0
 12 36  1  0  0  0  0
 13 14  1  0  0  0  0
 13 37  1  0  0  0  0
 14 15  2  0  0  0  0
 14 16  1  0  0  0  0
 16 19  1  0  0  0  0
 16 17  1  0  0  0  0
 17 18  2  0  0  0  0
M  END
> <s_m_source_file>
AV-unprocessed.smi

> <i_m_source_file_index>
2449

> <i_lp_mmshare_version>
43012

> <i_f3d_flags>
0

> <s_epik_input>
W0NIM11bQ0gyXVtDSDJdQyhbQ0gzXSkoW0NIM10pW05IXUMoPU8pW0NIMl1uMVtjSF1bY0hdYyg9TylbbkhdYzE9Tw==

> <s_epik_cmdline>
J2VwaWtfcHl0aG9uJywgJy1waCcsICc3LjAnLCAnLXRuJywgJzgnLCAnLW1hJywgJzIwMCcsICctbWV0YWxfYmluZGluZycsICctaW1hZScsICc8aW5maWxlLm1hZT4nLCAnLW9tYWUnLCAnPG91dGZpbGUubWFlPic=

> <r_lp_tautomer_probability>
0.999537

> <r_epik_Ionization_Penalty>
0.00292856

> <r_epik_Ionization_Penalty_Charging>
0.00292854

> <r_epik_Ionization_Penalty_Neutral>
1.95902e-08

> <r_epik_State_Penalty>
0.00205284

> <r_epik_Charging_Adjusted_Penalty>
0.00498138

> <i_epik_Tot_Q>
0

> <i_epik_Tot_abs_Q>
0

> <r_epik_Metal_State_Penalty>
0.360056

> <b_epik_Metal_Only>
0

> <s_lp_Force_Field>
OPLS_2005

> <r_lp_Energy>
5.67084

> <b_lp_Chiralities_Consistent>
1

> <s_lp_Variant>
AV-unprocessed.smi:2449-1

> <Gold.Version>
5.8.1

> <Gold.Id.Protein>
6NUR|6NUR_protein|mol2

> <Gold.PLP.Fitness>
43.6784

> <Gold.PLP.PLP>
-43.1611

> <Gold.PLP.part.hbond>
-2.0008

> <Gold.PLP.part.metal>
0.0000

> <Gold.PLP.part.buried>
-6.8921

> <Gold.PLP.part.nonpolar>
-36.3034

> <Gold.PLP.part.repulsive>
0.5752

> <Gold.PLP.ligand.clash>
0.0000

> <Gold.PLP.ligand.torsion>
1.0318

> <Gold.PLP.Chemscore.Hbond>
0.8480

> <Gold.PLP.Chemscore.CHOScore>
0.0000

> <Gold.PLP.Chemscore.Metal>
0.0000

> <Gold.Chemscore.Hbonds>
donor molecule, donor type, donor heavy atom, donor atom, acceptor molecule, acceptor atom, score
      P1  H 10752 10765       L1    15  0.83

> <Gold.PLP.Chemscore.Internal.Correction>
0.0370

> <Gold.Rescore>
     Score         DG    S(hbond)    S(metal)    S(lipo)     H(rot)  DE(clash)    DE(int)     intcor
     12.52     -14.68       1.33        0.00      87.38       2.14       0.02       2.14       ----

> <Gold.Chemscore.Fitness>
12.5205

> <Gold.Chemscore.DG>
-14.6783

> <Gold.Chemscore.ZeroCoef>
-5.4800

> <Gold.Chemscore.Hbond>
1.3331

> <Gold.Chemscore.Metal>
0.0000

> <Gold.Chemscore.Lipo>
87.3800

> <Gold.Chemscore.Internal_Hbond>
0.0000

> <Gold.Chemscore.DEClash>
0.0199

> <Gold.Chemscore.DEInternal>
2.1378

> <Gold.Chemscore.Rot>
2.1397

> <Gold.Chemscore.Internal.Correction>
   9.000000E+99

> <Gold.Chemscore.Hbonds>
donor molecule, donor type, donor heavy atom, donor atom, acceptor molecule, acceptor atom, score
      P1  H 10752 10765       L1    15  0.81

> <Gold.Chemscore.Hbond.Weighted>
-4.4526

> <Gold.Chemscore.Metal.Weighted>
-0.0000

> <Gold.Chemscore.Lipo.Weighted>
-10.2235

> <Gold.Chemscore.Internal_Hbond.Weighted>
0.0000

> <Gold.Chemscore.DEClash.Weighted>
0.0199

> <Gold.Chemscore.DEInternal.Weighted>
2.1378

> <Gold.Chemscore.Rot.Weighted>
5.4777

> <Gold.Chemscore.Internal.Correction.Weighted>
   9.000000E+99

> <Gold.Protein.RotatedTorsions>
[ 6907 6896 6895 6894 ] final  -93.64 input  -60.11 | X-H torsion
[ 7974 7965 7964 7962 ] final  103.87 input  175.53 | X-H torsion
[ 8008 7997 7996 7995 ] final   41.22 input   59.86 | X-H torsion
[ 10167 10162 10161 10158 ] final   25.88 input  -65.29 | X-H torsion
[ 10718 10713 10712 10709 ] final  -40.24 input   66.30 | X-H torsion
[ 10763 10752 10751 10750 ] final  149.84 input  -60.55 | X-H torsion
[ 11005 11000 10999 10996 ] final  -50.45 input  -57.11 | X-H torsion

> <Gold.Protein.ActiveResidues>
 VAL166  LYS551  ARG553  GLY616  TRP617  ASP618  TYR619  PRO620  LYS621  CYS622 
 ASP623  PHE694  ASN695  SER759  ASP760  ASP761  ALA762  ILE779  LEU786  VAL792 
 PHE793  MET794  SER795  GLU796  ALA797  LYS798  CYS799  TRP800  GLU811  SER814 

> <Gold.Protein.RotatedAtoms>
  150.6926  134.1936  159.4294 H   0  0  0  0  0  0  0  0  0  0  0  0  # atno 6907 bound_to 6896
  151.9905  134.9979  160.0570 H   0  0  0  0  0  0  0  0  0  0  0  0  # atno 6908 bound_to 6896
  152.1672  133.4585  159.4927 H   0  0  0  0  0  0  0  0  0  0  0  0  # atno 6909 bound_to 6896
  145.3403  139.2464  143.3613 H   0  0  0  0  0  0  0  0  0  0  0  0  # atno 7974 bound_to 7965
  155.2661  140.3362  155.4269 H   0  0  0  0  0  0  0  0  0  0  0  0  # atno 8008 bound_to 7997
  156.2153  140.1786  156.7644 H   0  0  0  0  0  0  0  0  0  0  0  0  # atno 8009 bound_to 7997
  154.5745  140.0664  156.8998 H   0  0  0  0  0  0  0  0  0  0  0  0  # atno 8010 bound_to 7997
  140.5069  144.0223  150.6356 H   0  0  0  0  0  0  0  0  0  0  0  0  # atno 10167 bound_to 10162
  156.2835  130.4220  149.8312 H   0  0  0  0  0  0  0  0  0  0  0  0  # atno 10718 bound_to 10713
  154.0777  135.2862  155.3296 H   0  0  0  0  0  0  0  0  0  0  0  0  # atno 10763 bound_to 10752
  154.6705  135.5301  153.8135 H   0  0  0  0  0  0  0  0  0  0  0  0  # atno 10764 bound_to 10752
  153.0461  135.6556  154.0954 H   0  0  0  0  0  0  0  0  0  0  0  0  # atno 10765 bound_to 10752
  141.0816  133.6652  156.3732 H   0  0  0  0  0  0  0  0  0  0  0  0  # atno 11005 bound_to 11000
  146.3010  140.3998  142.8704 LP  0  0  0  0  0  0  0  0  0  0  0  0  # atno 17320 bound_to 7965
  144.8796  140.7382  143.5995 LP  0  0  0  0  0  0  0  0  0  0  0  0  # atno 17321 bound_to 7965
  140.3535  143.2949  152.0461 LP  0  0  0  0  0  0  0  0  0  0  0  0  # atno 17342 bound_to 10162
  139.4886  144.6356  151.6982 LP  0  0  0  0  0  0  0  0  0  0  0  0  # atno 17343 bound_to 10162
  156.5751  130.8441  151.3367 LP  0  0  0  0  0  0  0  0  0  0  0  0  # atno 17370 bound_to 10713
  157.7321  130.9711  150.1914 LP  0  0  0  0  0  0  0  0  0  0  0  0  # atno 17371 bound_to 10713
  140.5455  134.6079  157.5392 LP  0  0  0  0  0  0  0  0  0  0  0  0  # atno 17394 bound_to 11000
  139.9631  134.7419  156.0195 LP  0  0  0  0  0  0  0  0  0  0  0  0  # atno 17395 bound_to 11000

$$$$
