AV-unprocessed.smi:1347|AV-procd|sdf|5516|dock6
  -GOLD-   22720 5103D 1   1.00000     0.00000
 Structure written by MMmdl.
 38 39  0  0  0  0  0  0  0  0  1 V2000
  144.8023  135.4433  151.1393 C   0  0  0  0  0  0  0  0  0  0  0  0
  145.2961  136.2460  152.1969 O   0  0  0  0  0  0  0  0  0  0  0  0
  145.5886  135.4877  153.3592 C   0  0  0  0  0  0  0  0  0  0  0  0
  146.3198  136.3767  154.3639 C   0  0  0  0  0  0  0  0  0  0  0  0
  145.8642  136.5398  155.4956 O   0  0  0  0  0  0  0  0  0  0  0  0
  147.4623  136.9368  153.9402 N   0  0  0  0  0  0  0  0  0  0  0  0
  148.3443  137.7666  154.7537 C   0  0  0  0  0  0  0  0  0  0  0  0
  148.1919  139.2618  154.4926 C   0  0  0  0  0  0  0  0  0  0  0  0
  147.0051  139.7450  153.9017 C   0  0  0  0  0  0  0  0  0  0  0  0
  146.8676  141.1248  153.6649 C   0  0  0  0  0  0  0  0  0  0  0  0
  147.9293  141.9733  154.0283 C   0  0  0  0  0  0  0  0  0  0  0  0
  149.0716  141.5279  154.5920 N   0  0  0  0  0  0  0  0  0  0  0  0
  149.2054  140.1993  154.8226 C   0  0  0  0  0  0  0  0  0  0  0  0
  150.4034  139.7664  155.4121 N   0  0  0  0  0  0  0  0  0  0  0  0
  151.2089  138.8977  154.5652 C   0  0  0  0  0  0  0  0  0  0  0  0
  152.3993  138.3470  155.3699 C   0  0  0  0  0  0  0  0  0  0  0  0
  153.1490  139.4278  155.9192 O   0  0  0  0  0  0  0  0  0  0  0  0
  152.3682  140.2334  156.7985 C   0  0  0  0  0  0  0  0  0  0  0  0
  151.1810  140.8340  156.0274 C   0  0  0  0  0  0  0  0  0  0  0  0
  144.5882  136.0693  150.2731 H   0  0  0  0  0  0  0  0  0  0  0  0
  143.8792  134.9378  151.4259 H   0  0  0  0  0  0  0  0  0  0  0  0
  145.5346  134.6926  150.8394 H   0  0  0  0  0  0  0  0  0  0  0  0
  144.6692  135.1207  153.8178 H   0  0  0  0  0  0  0  0  0  0  0  0
  146.2023  134.6223  153.1019 H   0  0  0  0  0  0  0  0  0  0  0  0
  147.7589  136.7503  152.9934 H   0  0  0  0  0  0  0  0  0  0  0  0
  148.1215  137.5746  155.8036 H   0  0  0  0  0  0  0  0  0  0  0  0
  149.3795  137.4578  154.6009 H   0  0  0  0  0  0  0  0  0  0  0  0
  146.2057  139.0690  153.6361 H   0  0  0  0  0  0  0  0  0  0  0  0
  145.9693  141.5227  153.2168 H   0  0  0  0  0  0  0  0  0  0  0  0
  147.8598  143.0379  153.8613 H   0  0  0  0  0  0  0  0  0  0  0  0
  150.5974  138.0768  154.1891 H   0  0  0  0  0  0  0  0  0  0  0  0
  151.5703  139.4566  153.7010 H   0  0  0  0  0  0  0  0  0  0  0  0
  152.0561  137.6873  156.1685 H   0  0  0  0  0  0  0  0  0  0  0  0
  153.0487  137.7552  154.7247 H   0  0  0  0  0  0  0  0  0  0  0  0
  152.0199  139.6371  157.6435 H   0  0  0  0  0  0  0  0  0  0  0  0
  152.9943  141.0279  157.2048 H   0  0  0  0  0  0  0  0  0  0  0  0
  151.5453  141.5165  155.2583 H   0  0  0  0  0  0  0  0  0  0  0  0
  150.5486  141.4127  156.7018 H   0  0  0  0  0  0  0  0  0  0  0  0
  1  2  1  0  0  0  0
  1 20  1  0  0  0  0
  1 21  1  0  0  0  0
  1 22  1  0  0  0  0
  2  3  1  0  0  0  0
  3  4  1  0  0  0  0
  3 23  1  0  0  0  0
  3 24  1  0  0  0  0
  4  5  2  0  0  0  0
  4  6  1  0  0  0  0
  6  7  1  0  0  0  0
  6 25  1  0  0  0  0
  7  8  1  0  0  0  0
  7 26  1  0  0  0  0
  7 27  1  0  0  0  0
  8 13  1  0  0  0  0
  8  9  2  0  0  0  0
  9 10  1  0  0  0  0
  9 28  1  0  0  0  0
 10 11  2  0  0  0  0
 10 29  1  0  0  0  0
 11 12  1  0  0  0  0
 11 30  1  0  0  0  0
 12 13  2  0  0  0  0
 13 14  1  0  0  0  0
 14 19  1  0  0  0  0
 14 15  1  0  0  0  0
 15 16  1  0  0  0  0
 15 31  1  0  0  0  0
 15 32  1  0  0  0  0
 16 17  1  0  0  0  0
 16 33  1  0  0  0  0
 16 34  1  0  0  0  0
 17 18  1  0  0  0  0
 18 19  1  0  0  0  0
 18 35  1  0  0  0  0
 18 36  1  0  0  0  0
 19 37  1  0  0  0  0
 19 38  1  0  0  0  0
M  END
> <s_m_source_file>
AV-unprocessed.smi

> <i_m_source_file_index>
1347

> <i_lp_mmshare_version>
43012

> <i_f3d_flags>
0

> <s_epik_input>
W0NIM11PW0NIMl1DKD1PKVtOSF1bQ0gyXWMxW2NIXVtjSF1bY0hdbmMxTjJbQ0gyXVtDSDJdT1tDSDJdW0NIMl0y

> <s_epik_cmdline>
J2VwaWtfcHl0aG9uJywgJy1waCcsICc3LjAnLCAnLXRuJywgJzgnLCAnLW1hJywgJzIwMCcsICctbWV0YWxfYmluZGluZycsICctaW1hZScsICc8aW5maWxlLm1hZT4nLCAnLW9tYWUnLCAnPG91dGZpbGUubWFlPic=

> <r_lp_tautomer_probability>
1

> <r_epik_Ionization_Penalty>
0.00422298

> <r_epik_Ionization_Penalty_Charging>
0

> <r_epik_Ionization_Penalty_Neutral>
0.00422298

> <r_epik_State_Penalty>
0.00303469

> <r_epik_Charging_Adjusted_Penalty>
0.00303469

> <i_epik_Tot_Q>
0

> <i_epik_Tot_abs_Q>
0

> <r_epik_Metal_State_Penalty>
-0

> <b_epik_Metal_Only>
0

> <s_lp_Force_Field>
OPLS_2005

> <r_lp_Energy>
19.5871

> <b_lp_Chiralities_Consistent>
1

> <s_lp_Variant>
AV-unprocessed.smi:1347-1

> <Gold.Version>
5.8.1

> <Gold.Id.Protein>
6NUR|6NUR_protein|mol2

> <Gold.PLP.Fitness>
35.0552

> <Gold.PLP.PLP>
-27.6354

> <Gold.PLP.part.hbond>
-1.7912

> <Gold.PLP.part.metal>
0.0000

> <Gold.PLP.part.buried>
-3.7700

> <Gold.PLP.part.nonpolar>
-22.6619

> <Gold.PLP.part.repulsive>
0.4042

> <Gold.PLP.ligand.clash>
0.0000

> <Gold.PLP.ligand.torsion>
0.6806

> <Gold.PLP.Chemscore.Hbond>
2.0000

> <Gold.PLP.Chemscore.CHOScore>
0.8738

> <Gold.PLP.Chemscore.Metal>
0.0000

> <Gold.Chemscore.Hbonds>
donor molecule, donor type, donor heavy atom, donor atom, acceptor molecule, acceptor atom, score
      L1  H     6    25       P1  7948  1.00
      P1  H  7997  8009       L1    17  0.61
      L1  C    11    30       P1  8028  0.64

> <Gold.PLP.Chemscore.Internal.Correction>
0.1596

> <Gold.Rescore>
     Score         DG    S(hbond)    S(metal)    S(lipo)     H(rot)  DE(clash)    DE(int)     intcor
     13.86     -14.57       1.97        0.00      63.97       1.94       0.00       0.72       ----

> <Gold.Chemscore.Fitness>
13.8552

> <Gold.Chemscore.DG>
-14.5732

> <Gold.Chemscore.ZeroCoef>
-5.4800

> <Gold.Chemscore.Hbond>
1.9675

> <Gold.Chemscore.Metal>
0.0000

> <Gold.Chemscore.Lipo>
63.9711

> <Gold.Chemscore.Internal_Hbond>
0.0000

> <Gold.Chemscore.DEClash>
0.0028

> <Gold.Chemscore.DEInternal>
0.7152

> <Gold.Chemscore.Rot>
1.9385

> <Gold.Chemscore.Internal.Correction>
   9.000000E+99

> <Gold.Chemscore.Hbonds>
donor molecule, donor type, donor heavy atom, donor atom, acceptor molecule, acceptor atom, score
      L1  H     6    25       P1  7948  0.95
      P1  H  7997  8009       L1    17  0.09

> <Gold.Chemscore.Hbond.Weighted>
-6.5713

> <Gold.Chemscore.Metal.Weighted>
-0.0000

> <Gold.Chemscore.Lipo.Weighted>
-7.4846

> <Gold.Chemscore.Internal_Hbond.Weighted>
0.0000

> <Gold.Chemscore.DEClash.Weighted>
0.0028

> <Gold.Chemscore.DEInternal.Weighted>
0.7152

> <Gold.Chemscore.Rot.Weighted>
4.9627

> <Gold.Chemscore.Internal.Correction.Weighted>
   9.000000E+99

> <Gold.Protein.RotatedTorsions>
[ 6907 6896 6895 6894 ] final   84.42 input  -60.11 | X-H torsion
[ 7974 7965 7964 7962 ] final -153.96 input  175.53 | X-H torsion
[ 8008 7997 7996 7995 ] final -147.41 input   59.86 | X-H torsion
[ 10167 10162 10161 10158 ] final -106.22 input  -65.29 | X-H torsion
[ 10718 10713 10712 10709 ] final   61.71 input   66.30 | X-H torsion
[ 10763 10752 10751 10750 ] final  152.70 input  -60.55 | X-H torsion
[ 11005 11000 10999 10996 ] final -113.31 input  -57.11 | X-H torsion

> <Gold.Protein.ActiveResidues>
 VAL166  LYS551  ARG553  GLY616  TRP617  ASP618  TYR619  PRO620  LYS621  CYS622 
 ASP623  PHE694  ASN695  SER759  ASP760  ASP761  ALA762  ILE779  LEU786  VAL792 
 PHE793  MET794  SER795  GLU796  ALA797  LYS798  CYS799  TRP800  GLU811  SER814 

> <Gold.Protein.RotatedAtoms>
  152.5352  134.2744  159.8983 H   0  0  0  0  0  0  0  0  0  0  0  0  # atno 6907 bound_to 6896
  151.2699  133.4253  159.2628 H   0  0  0  0  0  0  0  0  0  0  0  0  # atno 6908 bound_to 6896
  151.0377  134.9599  159.8201 H   0  0  0  0  0  0  0  0  0  0  0  0  # atno 6909 bound_to 6896
  144.7713  140.4453  143.5905 H   0  0  0  0  0  0  0  0  0  0  0  0  # atno 7974 bound_to 7965
  155.5751  140.0638  157.2797 H   0  0  0  0  0  0  0  0  0  0  0  0  # atno 8008 bound_to 7997
  154.4349  140.1862  156.0966 H   0  0  0  0  0  0  0  0  0  0  0  0  # atno 8009 bound_to 7997
  156.0347  140.3302  155.7181 H   0  0  0  0  0  0  0  0  0  0  0  0  # atno 8010 bound_to 7997
  140.1901  143.3899  152.1213 H   0  0  0  0  0  0  0  0  0  0  0  0  # atno 10167 bound_to 10162
  157.5848  130.9010  149.9496 H   0  0  0  0  0  0  0  0  0  0  0  0  # atno 10718 bound_to 10713
  154.1242  135.2831  155.3201 H   0  0  0  0  0  0  0  0  0  0  0  0  # atno 10763 bound_to 10752
  154.6401  135.5405  153.7783 H   0  0  0  0  0  0  0  0  0  0  0  0  # atno 10764 bound_to 10752
  153.0302  135.6484  154.1395 H   0  0  0  0  0  0  0  0  0  0  0  0  # atno 10765 bound_to 10752
  141.0622  133.9517  157.2646 H   0  0  0  0  0  0  0  0  0  0  0  0  # atno 11005 bound_to 11000
  145.6314  139.1537  143.2967 LP  0  0  0  0  0  0  0  0  0  0  0  0  # atno 17320 bound_to 7965
  146.1862  140.6418  142.9166 LP  0  0  0  0  0  0  0  0  0  0  0  0  # atno 17321 bound_to 7965
  139.5259  144.7102  151.5230 LP  0  0  0  0  0  0  0  0  0  0  0  0  # atno 17342 bound_to 10162
  140.6461  143.8791  150.6739 LP  0  0  0  0  0  0  0  0  0  0  0  0  # atno 17343 bound_to 10162
  156.0896  130.3664  150.0420 LP  0  0  0  0  0  0  0  0  0  0  0  0  # atno 17370 bound_to 10713
  156.8553  130.9473  151.3622 LP  0  0  0  0  0  0  0  0  0  0  0  0  # atno 17371 bound_to 10713
  139.9443  135.0186  156.8804 LP  0  0  0  0  0  0  0  0  0  0  0  0  # atno 17394 bound_to 11000
  140.5846  134.0320  155.7476 LP  0  0  0  0  0  0  0  0  0  0  0  0  # atno 17395 bound_to 11000

$$$$
