AV-unprocessed.smi:2829|AV-procd|sdf|10899|dock4
  -GOLD-   2272015343D 1   1.00000     0.00000
 Structure written by MMmdl.
 50 53  0  0  0  0  0  0  0  0  1 V2000
  152.4728  145.2057  157.8966 C   0  0  0  0  0  0  0  0  0  0  0  0
  151.5525  143.9919  158.1580 C   0  0  0  0  0  0  0  0  0  0  0  0
  150.3175  144.5045  158.9280 C   0  0  0  0  0  0  0  0  0  0  0  0
  151.1196  143.4329  156.7866 C   0  0  0  0  0  0  0  0  0  0  0  0
  152.2512  142.8880  158.9721 C   0  0  0  0  0  0  0  0  0  0  0  0
  152.6645  143.0578  160.3130 C   0  0  0  0  0  0  0  0  0  0  0  0
  153.2923  141.9719  160.9466 C   0  0  0  0  0  0  0  0  0  0  0  0
  153.4720  140.7803  160.2161 C   0  0  0  0  0  0  0  0  0  0  0  0
  154.1153  139.7275  160.9169 N   0  0  0  0  0  0  0  0  0  0  0  0
  154.8717  139.8088  162.0289 C   0  0  0  0  0  0  0  0  0  0  0  0
  155.2039  140.8585  162.5761 O   0  0  0  0  0  0  0  0  0  0  0  0
  155.2643  138.6180  162.5126 N   0  0  0  0  0  0  0  0  0  0  0  0
  156.0860  138.3597  163.6944 C   0  0  1  0  0  0  0  0  0  0  0  0
  155.7930  139.3471  164.8258 C   0  0  2  0  0  0  0  0  0  0  0  0
  156.5436  140.4742  165.4366 C   0  0  0  0  0  0  0  0  0  0  0  0
  156.2465  140.1392  166.9206 C   0  0  0  0  0  0  0  0  0  0  0  0
  155.6261  138.8304  166.9136 O   0  0  0  0  0  0  0  0  0  0  0  0
  156.1464  138.2004  165.7585 C   0  0  1  0  0  0  0  0  0  0  0  0
  155.4818  137.3154  164.6956 C   0  0  0  0  0  0  0  0  0  0  0  0
  155.8038  135.8198  164.5940 C   0  0  0  0  0  0  0  0  0  0  0  0
  154.3499  135.5730  164.1767 C   0  0  0  0  0  0  0  0  0  0  0  0
  153.9882  136.9445  164.7568 C   0  0  0  0  0  0  0  0  0  0  0  0
  153.0512  140.6877  158.9300 N   0  0  0  0  0  0  0  0  0  0  0  0
  152.4554  141.7169  158.3212 N   0  0  0  0  0  0  0  0  0  0  0  0
  151.9566  145.9758  157.3221 H   0  0  0  0  0  0  0  0  0  0  0  0
  153.3592  144.9248  157.3264 H   0  0  0  0  0  0  0  0  0  0  0  0
  152.8021  145.6701  158.8271 H   0  0  0  0  0  0  0  0  0  0  0  0
  150.5971  144.9007  159.9051 H   0  0  0  0  0  0  0  0  0  0  0  0
  149.5849  143.7134  159.0923 H   0  0  0  0  0  0  0  0  0  0  0  0
  149.8112  145.3014  158.3825 H   0  0  0  0  0  0  0  0  0  0  0  0
  150.6343  144.1984  156.1804 H   0  0  0  0  0  0  0  0  0  0  0  0
  150.4117  142.6097  156.8895 H   0  0  0  0  0  0  0  0  0  0  0  0
  151.9757  143.0609  156.2227 H   0  0  0  0  0  0  0  0  0  0  0  0
  152.5175  143.9768  160.8585 H   0  0  0  0  0  0  0  0  0  0  0  0
  153.6265  142.0559  161.9706 H   0  0  0  0  0  0  0  0  0  0  0  0
  153.9473  138.7994  160.5583 H   0  0  0  0  0  0  0  0  0  0  0  0
  154.9766  137.8030  161.9904 H   0  0  0  0  0  0  0  0  0  0  0  0
  157.1540  138.2336  163.4966 H   0  0  0  0  0  0  0  0  0  0  0  0
  154.7202  139.5736  164.8447 H   0  0  0  0  0  0  0  0  0  0  0  0
  157.6098  140.4252  165.2113 H   0  0  0  0  0  0  0  0  0  0  0  0
  156.1584  141.4502  165.1404 H   0  0  0  0  0  0  0  0  0  0  0  0
  157.1661  140.1212  167.5067 H   0  0  0  0  0  0  0  0  0  0  0  0
  155.5689  140.8625  167.3747 H   0  0  0  0  0  0  0  0  0  0  0  0
  157.2222  138.0158  165.8460 H   0  0  0  0  0  0  0  0  0  0  0  0
  156.5448  135.5593  163.8380 H   0  0  0  0  0  0  0  0  0  0  0  0
  156.0432  135.3768  165.5618 H   0  0  0  0  0  0  0  0  0  0  0  0
  154.2222  135.5250  163.0946 H   0  0  0  0  0  0  0  0  0  0  0  0
  153.8719  134.7293  164.6751 H   0  0  0  0  0  0  0  0  0  0  0  0
  153.6156  136.8806  165.7801 H   0  0  0  0  0  0  0  0  0  0  0  0
  153.3279  137.5416  164.1276 H   0  0  0  0  0  0  0  0  0  0  0  0
  1  2  1  0  0  0  0
  1 25  1  0  0  0  0
  1 26  1  0  0  0  0
  1 27  1  0  0  0  0
  2  3  1  0  0  0  0
  2  4  1  0  0  0  0
  2  5  1  0  0  0  0
  3 28  1  0  0  0  0
  3 29  1  0  0  0  0
  3 30  1  0  0  0  0
  4 31  1  0  0  0  0
  4 32  1  0  0  0  0
  4 33  1  0  0  0  0
  5 24  1  0  0  0  0
  5  6  2  0  0  0  0
  6  7  1  0  0  0  0
  6 34  1  0  0  0  0
  7  8  2  0  0  0  0
  7 35  1  0  0  0  0
  8  9  1  0  0  0  0
  8 23  1  0  0  0  0
  9 10  1  0  0  0  0
  9 36  1  0  0  0  0
 10 11  2  0  0  0  0
 10 12  1  0  0  0  0
 12 13  1  0  0  0  0
 12 37  1  0  0  0  0
 13 19  1  0  0  0  0
 13 14  1  0  0  0  0
 13 38  1  0  0  0  0
 14 18  1  0  0  0  0
 14 15  1  0  0  0  0
 14 39  1  0  0  0  0
 15 16  1  0  0  0  0
 15 40  1  0  0  0  0
 15 41  1  0  0  0  0
 16 17  1  0  0  0  0
 16 42  1  0  0  0  0
 16 43  1  0  0  0  0
 17 18  1  0  0  0  0
 18 19  1  0  0  0  0
 18 44  1  0  0  0  0
 19 22  1  0  0  0  0
 19 20  1  0  0  0  0
 20 21  1  0  0  0  0
 20 45  1  0  0  0  0
 20 46  1  0  0  0  0
 21 22  1  0  0  0  0
 21 47  1  0  0  0  0
 21 48  1  0  0  0  0
 22 49  1  0  0  0  0
 22 50  1  0  0  0  0
 23 24  2  0  0  0  0
M  END
> <s_m_source_file>
AV-unprocessed.smi

> <i_m_source_file_index>
2829

> <i_lp_mmshare_version>
43012

> <i_f3d_flags>
0

> <s_epik_input>
W0NIM11DKFtDSDNdKShbQ0gzXSljMVtjSF1bY0hdYyhubjEpW05IXUMoPU8pW05IXVtDQEBIXTJbQ0BIXShbQ0gyXVtDSDJdTzMpW0NAQEhdM0MyNFtDSDJdW0NIMl1bQ0gyXTQ=

> <s_epik_cmdline>
J2VwaWtfcHl0aG9uJywgJy1waCcsICc3LjAnLCAnLXRuJywgJzgnLCAnLW1hJywgJzIwMCcsICctbWV0YWxfYmluZGluZycsICctaW1hZScsICc8aW5maWxlLm1hZT4nLCAnLW9tYWUnLCAnPG91dGZpbGUubWFlPic=

> <r_lp_tautomer_probability>
1

> <r_epik_Ionization_Penalty>
0.011915

> <r_epik_Ionization_Penalty_Charging>
0

> <r_epik_Ionization_Penalty_Neutral>
0.011915

> <r_epik_State_Penalty>
0.00486223

> <r_epik_Charging_Adjusted_Penalty>
0.00486223

> <i_epik_Tot_Q>
0

> <i_epik_Tot_abs_Q>
0

> <r_epik_Metal_State_Penalty>
-0

> <b_epik_Metal_Only>
0

> <s_lp_Force_Field>
OPLS_2005

> <r_lp_Energy>
82.5072

> <b_lp_Chiralities_Consistent>
1

> <s_lp_Variant>
AV-unprocessed.smi:2829-2

> <Gold.Version>
5.8.1

> <Gold.Id.Protein>
6NUR|6NUR_protein|mol2

> <Gold.PLP.Fitness>
43.2759

> <Gold.PLP.PLP>
-43.8129

> <Gold.PLP.part.hbond>
-2.0000

> <Gold.PLP.part.metal>
0.0000

> <Gold.PLP.part.buried>
-2.1865

> <Gold.PLP.part.nonpolar>
-40.2150

> <Gold.PLP.part.repulsive>
0.1613

> <Gold.PLP.ligand.clash>
0.0854

> <Gold.PLP.ligand.torsion>
0.3874

> <Gold.PLP.Chemscore.Hbond>
0.0000

> <Gold.PLP.Chemscore.CHOScore>
0.0000

> <Gold.PLP.Chemscore.Metal>
0.0000

> <Gold.PLP.Chemscore.Internal.Correction>
0.3233

> <Gold.Rescore>
     Score         DG    S(hbond)    S(metal)    S(lipo)     H(rot)  DE(clash)    DE(int)     intcor
     12.01     -16.26       0.02        0.00     117.07       1.16       0.99       3.26       ----

> <Gold.Chemscore.Fitness>
12.0102

> <Gold.Chemscore.DG>
-16.2551

> <Gold.Chemscore.ZeroCoef>
-5.4800

> <Gold.Chemscore.Hbond>
0.0155

> <Gold.Chemscore.Metal>
0.0000

> <Gold.Chemscore.Lipo>
117.0728

> <Gold.Chemscore.Internal_Hbond>
0.0000

> <Gold.Chemscore.DEClash>
0.9898

> <Gold.Chemscore.DEInternal>
3.2551

> <Gold.Chemscore.Rot>
1.1618

> <Gold.Chemscore.Internal.Correction>
   9.000000E+99

> <Gold.Chemscore.Hbond.Weighted>
-0.0517

> <Gold.Chemscore.Metal.Weighted>
-0.0000

> <Gold.Chemscore.Lipo.Weighted>
-13.6975

> <Gold.Chemscore.Internal_Hbond.Weighted>
0.0000

> <Gold.Chemscore.DEClash.Weighted>
0.9898

> <Gold.Chemscore.DEInternal.Weighted>
3.2551

> <Gold.Chemscore.Rot.Weighted>
2.9741

> <Gold.Chemscore.Internal.Correction.Weighted>
   9.000000E+99

> <Gold.Protein.RotatedTorsions>
[ 6907 6896 6895 6894 ] final   71.82 input  -60.11 | X-H torsion
[ 7974 7965 7964 7962 ] final   32.05 input  175.53 | X-H torsion
[ 8008 7997 7996 7995 ] final  154.05 input   59.86 | X-H torsion
[ 10167 10162 10161 10158 ] final   19.95 input  -65.29 | X-H torsion
[ 10718 10713 10712 10709 ] final  -39.32 input   66.30 | X-H torsion
[ 10763 10752 10751 10750 ] final  -73.22 input  -60.55 | X-H torsion
[ 11005 11000 10999 10996 ] final  -71.83 input  -57.11 | X-H torsion

> <Gold.Protein.ActiveResidues>
 VAL166  LYS551  ARG553  GLY616  TRP617  ASP618  TYR619  PRO620  LYS621  CYS622 
 ASP623  PHE694  ASN695  SER759  ASP760  ASP761  ALA762  ILE779  LEU786  VAL792 
 PHE793  MET794  SER795  GLU796  ALA797  LYS798  CYS799  TRP800  GLU811  SER814 

> <Gold.Protein.RotatedAtoms>
  152.4832  134.4663  159.9620 H   0  0  0  0  0  0  0  0  0  0  0  0  # atno 6907 bound_to 6896
  151.4664  133.3574  159.2824 H   0  0  0  0  0  0  0  0  0  0  0  0  # atno 6908 bound_to 6896
  150.8922  134.8352  159.7362 H   0  0  0  0  0  0  0  0  0  0  0  0  # atno 6909 bound_to 6896
  146.1511  139.6577  142.9098 H   0  0  0  0  0  0  0  0  0  0  0  0  # atno 7974 bound_to 7965
  156.2551  140.1977  156.6586 H   0  0  0  0  0  0  0  0  0  0  0  0  # atno 8008 bound_to 7997
  154.6481  140.0575  156.9949 H   0  0  0  0  0  0  0  0  0  0  0  0  # atno 8009 bound_to 7997
  155.1459  140.3247  155.4444 H   0  0  0  0  0  0  0  0  0  0  0  0  # atno 8010 bound_to 7997
  140.5540  143.9458  150.6597 H   0  0  0  0  0  0  0  0  0  0  0  0  # atno 10167 bound_to 10162
  156.2938  130.4231  149.8211 H   0  0  0  0  0  0  0  0  0  0  0  0  # atno 10718 bound_to 10713
  154.4565  135.5904  153.6227 H   0  0  0  0  0  0  0  0  0  0  0  0  # atno 10763 bound_to 10752
  152.9819  135.6033  154.3539 H   0  0  0  0  0  0  0  0  0  0  0  0  # atno 10764 bound_to 10752
  154.3406  135.2841  155.2403 H   0  0  0  0  0  0  0  0  0  0  0  0  # atno 10765 bound_to 10752
  141.1599  133.6829  156.6966 H   0  0  0  0  0  0  0  0  0  0  0  0  # atno 11005 bound_to 11000
  145.4820  141.0438  143.2641 LP  0  0  0  0  0  0  0  0  0  0  0  0  # atno 17320 bound_to 7965
  144.7906  139.6337  143.7115 LP  0  0  0  0  0  0  0  0  0  0  0  0  # atno 17321 bound_to 7965
  140.2891  143.3336  152.1079 LP  0  0  0  0  0  0  0  0  0  0  0  0  # atno 17342 bound_to 10162
  139.5040  144.6766  151.6113 LP  0  0  0  0  0  0  0  0  0  0  0  0  # atno 17343 bound_to 10162
  156.5614  130.8385  151.3330 LP  0  0  0  0  0  0  0  0  0  0  0  0  # atno 17370 bound_to 10713
  157.7350  130.9755  150.2057 LP  0  0  0  0  0  0  0  0  0  0  0  0  # atno 17371 bound_to 10713
  140.2990  134.8179  157.4082 LP  0  0  0  0  0  0  0  0  0  0  0  0  # atno 17394 bound_to 11000
  140.1278  134.5134  155.8130 LP  0  0  0  0  0  0  0  0  0  0  0  0  # atno 17395 bound_to 11000

$$$$
