AV-unprocessed.smi:1386|AV-procd|sdf|5637|dock5
  -GOLD-   22720 5253D 1   1.00000     0.00000
 Structure written by MMmdl.
 36 37  0  0  0  0  0  0  0  0  2 V2000
  150.1753  141.4698  155.5298 C   0  0  0  0  0  0  0  0  0  0  0  0
  151.1290  140.7125  156.4630 C   0  0  1  0  0  0  0  0  0  0  0  0
  152.1139  139.8315  155.6647 C   0  0  0  0  0  0  0  0  0  0  0  0
  151.5109  138.5777  155.1971 N   0  0  0  0  0  0  0  0  0  0  0  0
  151.7219  137.3166  155.6931 C   0  0  0  0  0  0  0  0  0  0  0  0
  150.9635  136.4651  154.9317 C   0  0  0  0  0  0  0  0  0  0  0  0
  150.3141  137.2425  154.0105 N   0  3  0  0  0  0  0  0  0  0  0  0
  150.6430  138.5272  154.1778 C   0  0  0  0  0  0  0  0  0  0  0  0
  151.8513  141.6767  157.2925 N   0  0  0  0  0  0  0  0  0  0  0  0
  151.2947  142.6621  158.0200 C   0  0  0  0  0  0  0  0  0  0  0  0
  150.0854  142.8949  157.9936 O   0  0  0  0  0  0  0  0  0  0  0  0
  152.1641  143.3535  158.7987 N   0  0  0  0  0  0  0  0  0  0  0  0
  153.3600  142.8009  159.4541 C   0  0  0  0  0  0  0  0  0  0  0  0
  152.9884  142.3625  160.8806 C   0  0  0  0  0  0  0  0  0  0  0  0
  152.4313  143.7808  161.8776 S   0  0  0  0  0  0  0  0  0  0  0  0
  151.2279  144.5246  160.7309 C   0  0  0  0  0  0  0  0  0  0  0  0
  151.8280  144.6818  159.3232 C   0  0  0  0  0  0  0  0  0  0  0  0
  149.5944  140.7789  154.9181 H   0  0  0  0  0  0  0  0  0  0  0  0
  150.7197  142.1328  154.8565 H   0  0  0  0  0  0  0  0  0  0  0  0
  149.4699  142.0776  156.0974 H   0  0  0  0  0  0  0  0  0  0  0  0
  150.5152  140.0671  157.0940 H   0  0  0  0  0  0  0  0  0  0  0  0
  152.4702  140.3654  154.7829 H   0  0  0  0  0  0  0  0  0  0  0  0
  152.9929  139.5925  156.2661 H   0  0  0  0  0  0  0  0  0  0  0  0
  152.3881  137.1225  156.5212 H   0  0  0  0  0  0  0  0  0  0  0  0
  150.8407  135.3926  154.9752 H   0  0  0  0  0  0  0  0  0  0  0  0
  150.2853  139.3580  153.5961 H   0  0  0  0  0  0  0  0  0  0  0  0
  152.8524  141.5599  157.3539 H   0  0  0  0  0  0  0  0  0  0  0  0
  153.7979  141.9669  158.9051 H   0  0  0  0  0  0  0  0  0  0  0  0
  154.1476  143.5550  159.4902 H   0  0  0  0  0  0  0  0  0  0  0  0
  152.1969  141.6132  160.8549 H   0  0  0  0  0  0  0  0  0  0  0  0
  153.8458  141.9043  161.3737 H   0  0  0  0  0  0  0  0  0  0  0  0
  150.3351  143.8986  160.6970 H   0  0  0  0  0  0  0  0  0  0  0  0
  150.9220  145.4940  161.1246 H   0  0  0  0  0  0  0  0  0  0  0  0
  152.7176  145.3123  159.3603 H   0  0  0  0  0  0  0  0  0  0  0  0
  151.1275  145.2100  158.6745 H   0  0  0  0  0  0  0  0  0  0  0  0
  149.6747  136.8975  153.3054 H   0  0  0  0  0  0  0  0  0  0  0  0
  1  2  1  0  0  0  0
  1 18  1  0  0  0  0
  1 19  1  0  0  0  0
  1 20  1  0  0  0  0
  2  3  1  0  0  0  0
  2  9  1  0  0  0  0
  2 21  1  0  0  0  0
  3  4  1  0  0  0  0
  3 22  1  0  0  0  0
  3 23  1  0  0  0  0
  4  8  1  0  0  0  0
  4  5  1  0  0  0  0
  5  6  2  0  0  0  0
  5 24  1  0  0  0  0
  6  7  1  0  0  0  0
  6 25  1  0  0  0  0
  7  8  2  0  0  0  0
  7 36  1  0  0  0  0
  8 26  1  0  0  0  0
  9 10  1  0  0  0  0
  9 27  1  0  0  0  0
 10 11  2  0  0  0  0
 10 12  1  0  0  0  0
 12 17  1  0  0  0  0
 12 13  1  0  0  0  0
 13 14  1  0  0  0  0
 13 28  1  0  0  0  0
 13 29  1  0  0  0  0
 14 15  1  0  0  0  0
 14 30  1  0  0  0  0
 14 31  1  0  0  0  0
 15 16  1  0  0  0  0
 16 17  1  0  0  0  0
 16 32  1  0  0  0  0
 16 33  1  0  0  0  0
 17 34  1  0  0  0  0
 17 35  1  0  0  0  0
M  CHG  1   7   1
M  END
> <s_m_source_file>
AV-unprocessed.smi

> <i_m_source_file_index>
1386

> <i_lp_mmshare_version>
43012

> <i_f3d_flags>
0

> <s_epik_input>
W2NIXTFuW2NIXVtjSF1uMVtDSDJdW0NAQEhdKFtDSDNdKVtOSF1DKD1PKU4yW0NIMl1bQ0gyXVNbQ0gyXVtDSDJdMg==

> <s_epik_cmdline>
J2VwaWtfcHl0aG9uJywgJy1waCcsICc3LjAnLCAnLXRuJywgJzgnLCAnLW1hJywgJzIwMCcsICctbWV0YWxfYmluZGluZycsICctaW1hZScsICc8aW5maWxlLm1hZT4nLCAnLW9tYWUnLCAnPG91dGZpbGUubWFlPic=

> <r_lp_tautomer_probability>
1

> <r_epik_Ionization_Penalty>
0.254941

> <r_epik_Ionization_Penalty_Charging>
0

> <r_epik_Ionization_Penalty_Neutral>
0.254941

> <r_epik_State_Penalty>
0.246388

> <r_epik_Charging_Adjusted_Penalty>
0.246388

> <i_epik_Tot_Q>
1

> <i_epik_Tot_abs_Q>
1

> <r_epik_Metal_State_Penalty>
0.536262

> <b_epik_Metal_Only>
0

> <s_lp_Force_Field>
OPLS_2005

> <r_lp_Energy>
25.7972

> <b_lp_Chiralities_Consistent>
1

> <s_lp_Variant>
AV-unprocessed.smi:1386-2

> <Gold.Version>
5.8.1

> <Gold.Id.Protein>
6NUR|6NUR_protein|mol2

> <Gold.PLP.Fitness>
49.7049

> <Gold.PLP.PLP>
-42.0785

> <Gold.PLP.part.hbond>
-1.9928

> <Gold.PLP.part.metal>
0.0000

> <Gold.PLP.part.buried>
-1.7494

> <Gold.PLP.part.nonpolar>
-38.6105

> <Gold.PLP.part.repulsive>
0.3025

> <Gold.PLP.ligand.clash>
0.0000

> <Gold.PLP.ligand.torsion>
0.7217

> <Gold.PLP.Chemscore.Hbond>
2.0000

> <Gold.PLP.Chemscore.CHOScore>
1.0000

> <Gold.PLP.Chemscore.Metal>
0.0000

> <Gold.Chemscore.Hbonds>
donor molecule, donor type, donor heavy atom, donor atom, acceptor molecule, acceptor atom, score
      L1  H     7    36       P1  7948  2.00
      L1  C     8    26       P1  7957  0.80

> <Gold.PLP.Chemscore.Internal.Correction>
0.0698

> <Gold.Rescore>
     Score         DG    S(hbond)    S(metal)    S(lipo)     H(rot)  DE(clash)    DE(int)     intcor
     12.69     -14.81       0.95        0.00      88.58       1.64       0.00       2.11       ----

> <Gold.Chemscore.Fitness>
12.6903

> <Gold.Chemscore.DG>
-14.8083

> <Gold.Chemscore.ZeroCoef>
-5.4800

> <Gold.Chemscore.Hbond>
0.9472

> <Gold.Chemscore.Metal>
0.0000

> <Gold.Chemscore.Lipo>
88.5809

> <Gold.Chemscore.Internal_Hbond>
0.0000

> <Gold.Chemscore.DEClash>
0.0034

> <Gold.Chemscore.DEInternal>
2.1145

> <Gold.Chemscore.Rot>
1.6404

> <Gold.Chemscore.Internal.Correction>
   9.000000E+99

> <Gold.Chemscore.Hbonds>
donor molecule, donor type, donor heavy atom, donor atom, acceptor molecule, acceptor atom, score
      L1  H     7    36       P1  7948  0.55

> <Gold.Chemscore.Hbond.Weighted>
-3.1638

> <Gold.Chemscore.Metal.Weighted>
-0.0000

> <Gold.Chemscore.Lipo.Weighted>
-10.3640

> <Gold.Chemscore.Internal_Hbond.Weighted>
0.0000

> <Gold.Chemscore.DEClash.Weighted>
0.0034

> <Gold.Chemscore.DEInternal.Weighted>
2.1145

> <Gold.Chemscore.Rot.Weighted>
4.1995

> <Gold.Chemscore.Internal.Correction.Weighted>
   9.000000E+99

> <Gold.Protein.RotatedTorsions>
[ 6907 6896 6895 6894 ] final -157.56 input  -60.11 | X-H torsion
[ 7974 7965 7964 7962 ] final -113.00 input  175.53 | X-H torsion
[ 8008 7997 7996 7995 ] final  -58.32 input   59.86 | X-H torsion
[ 10167 10162 10161 10158 ] final  -54.67 input  -65.29 | X-H torsion
[ 10718 10713 10712 10709 ] final  -69.58 input   66.30 | X-H torsion
[ 10763 10752 10751 10750 ] final   -3.32 input  -60.55 | X-H torsion
[ 11005 11000 10999 10996 ] final  -90.48 input  -57.11 | X-H torsion

> <Gold.Protein.ActiveResidues>
 VAL166  LYS551  ARG553  GLY616  TRP617  ASP618  TYR619  PRO620  LYS621  CYS622 
 ASP623  PHE694  ASN695  SER759  ASP760  ASP761  ALA762  ILE779  LEU786  VAL792 
 PHE793  MET794  SER795  GLU796  ALA797  LYS798  CYS799  TRP800  GLU811  SER814 

> <Gold.Protein.RotatedAtoms>
  151.3047  133.4107  159.2642 H   0  0  0  0  0  0  0  0  0  0  0  0  # atno 6907 bound_to 6896
  151.0165  134.9437  159.8046 H   0  0  0  0  0  0  0  0  0  0  0  0  # atno 6908 bound_to 6896
  152.5314  134.3011  159.9131 H   0  0  0  0  0  0  0  0  0  0  0  0  # atno 6909 bound_to 6896
  145.1372  140.8758  143.3723 H   0  0  0  0  0  0  0  0  0  0  0  0  # atno 7974 bound_to 7965
  154.4304  140.1087  156.5938 H   0  0  0  0  0  0  0  0  0  0  0  0  # atno 8008 bound_to 7997
  155.5984  140.3493  155.4568 H   0  0  0  0  0  0  0  0  0  0  0  0  # atno 8009 bound_to 7997
  156.0192  140.1236  157.0364 H   0  0  0  0  0  0  0  0  0  0  0  0  # atno 8010 bound_to 7997
  140.6418  143.2512  151.4969 H   0  0  0  0  0  0  0  0  0  0  0  0  # atno 10167 bound_to 10162
  156.0449  130.4315  150.2168 H   0  0  0  0  0  0  0  0  0  0  0  0  # atno 10718 bound_to 10713
  153.3697  135.6994  153.6647 H   0  0  0  0  0  0  0  0  0  0  0  0  # atno 10763 bound_to 10752
  153.5302  135.3594  155.2673 H   0  0  0  0  0  0  0  0  0  0  0  0  # atno 10764 bound_to 10752
  154.8679  135.4179  154.2973 H   0  0  0  0  0  0  0  0  0  0  0  0  # atno 10765 bound_to 10752
  141.1565  133.7695  156.9744 H   0  0  0  0  0  0  0  0  0  0  0  0  # atno 11005 bound_to 11000
  145.0571  139.3135  143.5899 LP  0  0  0  0  0  0  0  0  0  0  0  0  # atno 17320 bound_to 7965
  146.3508  140.0000  142.8677 LP  0  0  0  0  0  0  0  0  0  0  0  0  # atno 17321 bound_to 7965
  139.5627  144.2117  152.1716 LP  0  0  0  0  0  0  0  0  0  0  0  0  # atno 17342 bound_to 10162
  140.1390  144.5219  150.6756 LP  0  0  0  0  0  0  0  0  0  0  0  0  # atno 17343 bound_to 10162
  157.0259  130.9993  151.3326 LP  0  0  0  0  0  0  0  0  0  0  0  0  # atno 17370 bound_to 10713
  157.5311  130.8059  149.7918 LP  0  0  0  0  0  0  0  0  0  0  0  0  # atno 17371 bound_to 10713
  140.1108  134.9478  157.2062 LP  0  0  0  0  0  0  0  0  0  0  0  0  # atno 17394 bound_to 11000
  140.3197  134.2931  155.7249 LP  0  0  0  0  0  0  0  0  0  0  0  0  # atno 17395 bound_to 11000

$$$$
