AV-unprocessed.smi:12|AV-procd|sdf|67|dock5
  -GOLD-   2262015183D 1   1.00000     0.00000
 Structure written by MMmdl.
 41 44  0  0  0  0  0  0  0  0  1 V2000
  151.3521  145.1190  159.9173 C   0  0  0  0  0  0  0  0  0  0  0  0
  151.8724  143.7056  160.1075 C   0  0  0  0  0  0  0  0  0  0  0  0
  151.9451  142.8287  159.0783 C   0  0  0  0  0  0  0  0  0  0  0  0
  152.4159  141.5657  159.3051 N   0  0  0  0  0  0  0  0  0  0  0  0
  152.8295  141.1962  160.6007 C   0  0  0  0  0  0  0  0  0  0  0  0
  152.7907  141.9746  161.6371 N   0  0  0  0  0  0  0  0  0  0  0  0
  152.3066  143.2854  161.4636 C   0  0  0  0  0  0  0  0  0  0  0  0
  152.2488  144.0610  162.4169 O   0  0  0  0  0  0  0  0  0  0  0  0
  153.2722  139.9107  160.5667 O   0  0  0  0  0  0  0  0  0  0  0  0
  153.2345  139.4041  159.2208 C   0  0  1  0  0  0  0  0  0  0  0  0
  152.2661  138.2391  159.0673 C   0  0  1  0  0  0  0  0  0  0  0  0
  152.3236  137.3507  160.1652 O   0  0  0  0  0  0  0  0  0  0  0  0
  150.9223  138.9397  158.8691 C   0  0  2  0  0  0  0  0  0  0  0  0
  149.8454  138.0781  158.1975 C   0  0  0  0  0  0  0  0  0  0  0  0
  149.0307  137.4786  159.1920 O   0  0  0  0  0  0  0  0  0  0  0  0
  148.8961  136.1391  159.2392 C   0  0  0  0  0  0  0  0  0  0  0  0
  149.4285  135.3712  158.4354 O   0  0  0  0  0  0  0  0  0  0  0  0
  148.0343  135.6829  160.3682 C   0  0  0  0  0  0  0  0  0  0  0  0
  147.5798  134.3435  160.3954 C   0  0  0  0  0  0  0  0  0  0  0  0
  146.7652  133.8835  161.4483 C   0  0  0  0  0  0  0  0  0  0  0  0
  146.3956  134.7572  162.4872 C   0  0  0  0  0  0  0  0  0  0  0  0
  146.8413  136.0916  162.4721 C   0  0  0  0  0  0  0  0  0  0  0  0
  147.6557  136.5539  161.4198 C   0  0  0  0  0  0  0  0  0  0  0  0
  151.2895  140.0088  158.0015 O   0  0  0  0  0  0  0  0  0  0  0  0
  152.5657  140.4785  158.3346 C   0  0  1  0  0  0  0  0  0  0  0  0
  151.0694  145.3021  158.8802 H   0  0  0  0  0  0  0  0  0  0  0  0
  152.1162  145.8469  160.1916 H   0  0  0  0  0  0  0  0  0  0  0  0
  150.4741  145.2882  160.5416 H   0  0  0  0  0  0  0  0  0  0  0  0
  151.6322  143.1101  158.0832 H   0  0  0  0  0  0  0  0  0  0  0  0
  154.2395  139.1736  158.8655 H   0  0  0  0  0  0  0  0  0  0  0  0
  152.5190  137.6858  158.1616 H   0  0  0  0  0  0  0  0  0  0  0  0
  152.5561  136.4922  159.8452 H   0  0  0  0  0  0  0  0  0  0  0  0
  150.5533  139.3554  159.8085 H   0  0  0  0  0  0  0  0  0  0  0  0
  149.2239  138.6993  157.5514 H   0  0  0  0  0  0  0  0  0  0  0  0
  150.3065  137.3125  157.5718 H   0  0  0  0  0  0  0  0  0  0  0  0
  147.8505  133.6540  159.6088 H   0  0  0  0  0  0  0  0  0  0  0  0
  146.4237  132.8590  161.4581 H   0  0  0  0  0  0  0  0  0  0  0  0
  145.7711  134.4039  163.2946 H   0  0  0  0  0  0  0  0  0  0  0  0
  146.5580  136.7631  163.2692 H   0  0  0  0  0  0  0  0  0  0  0  0
  147.9799  137.5842  161.4399 H   0  0  0  0  0  0  0  0  0  0  0  0
  153.1566  140.8774  157.5095 H   0  0  0  0  0  0  0  0  0  0  0  0
  1  2  1  0  0  0  0
  1 26  1  0  0  0  0
  1 27  1  0  0  0  0
  1 28  1  0  0  0  0
  2  7  1  0  0  0  0
  2  3  2  0  0  0  0
  3  4  1  0  0  0  0
  3 29  1  0  0  0  0
  4 25  1  0  0  0  0
  4  5  1  0  0  0  0
  5  6  2  0  0  0  0
  5  9  1  0  0  0  0
  6  7  1  0  0  0  0
  7  8  2  0  0  0  0
  9 10  1  0  0  0  0
 10 25  1  0  0  0  0
 10 11  1  0  0  0  0
 10 30  1  0  0  0  0
 11 12  1  0  0  0  0
 11 13  1  0  0  0  0
 11 31  1  0  0  0  0
 12 32  1  0  0  0  0
 13 14  1  0  0  0  0
 13 24  1  0  0  0  0
 13 33  1  0  0  0  0
 14 15  1  0  0  0  0
 14 34  1  0  0  0  0
 14 35  1  0  0  0  0
 15 16  1  0  0  0  0
 16 17  2  0  0  0  0
 16 18  1  0  0  0  0
 18 23  1  0  0  0  0
 18 19  2  0  0  0  0
 19 20  1  0  0  0  0
 19 36  1  0  0  0  0
 20 21  2  0  0  0  0
 20 37  1  0  0  0  0
 21 22  1  0  0  0  0
 21 38  1  0  0  0  0
 22 23  2  0  0  0  0
 22 39  1  0  0  0  0
 23 40  1  0  0  0  0
 24 25  1  0  0  0  0
 25 41  1  0  0  0  0
M  END
> <s_m_source_file>
AV-unprocessed.smi

> <i_m_source_file_index>
12

> <i_lp_mmshare_version>
43012

> <i_f3d_flags>
0

> <s_epik_input>
W0NIM11jKFtjSF0xKWMoPU8pbmMobjEyKU9bQ0BIXTNbQ0BASF0yT1tDQEBIXShbQ0BASF0zW09IXSlbQ0gyXU9DKD1PKWM0W2NIXVtjSF1bY0hdW2NIXVtjSF00

> <s_epik_cmdline>
J2VwaWtfcHl0aG9uJywgJy1waCcsICc3LjAnLCAnLXRuJywgJzgnLCAnLW1hJywgJzIwMCcsICctbWV0YWxfYmluZGluZycsICctaW1hZScsICc8aW5maWxlLm1hZT4nLCAnLW9tYWUnLCAnPG91dGZpbGUubWFlPic=

> <r_lp_tautomer_probability>
0.933681

> <r_epik_Ionization_Penalty>
0.00399549

> <r_epik_Ionization_Penalty_Charging>
3.09373e-09

> <r_epik_Ionization_Penalty_Neutral>
0.00399549

> <r_epik_State_Penalty>
0.00284953

> <r_epik_Charging_Adjusted_Penalty>
0.00284953

> <i_epik_Tot_Q>
0

> <i_epik_Tot_abs_Q>
0

> <r_epik_Metal_State_Penalty>
-0

> <b_epik_Metal_Only>
0

> <s_epik_Chemistry_Notes>
This compound has an ester and may undergo hydrolysis at high or low pH. This compound contains an acetal/aminal-like group ( X-CH(R)-Y where X, Y are N, S, or O) that may be acid/base labile, releasing an aldehyde.

> <s_lp_Force_Field>
OPLS_2005

> <r_lp_Energy>
46.3609

> <b_lp_Chiralities_Consistent>
1

> <s_lp_Variant>
AV-unprocessed.smi:12-7

> <Gold.Version>
5.8.1

> <Gold.Id.Protein>
6NUR|6NUR_protein|mol2

> <Gold.PLP.Fitness>
49.9074

> <Gold.PLP.PLP>
-48.6108

> <Gold.PLP.part.hbond>
-2.0561

> <Gold.PLP.part.metal>
0.0000

> <Gold.PLP.part.buried>
-4.8466

> <Gold.PLP.part.nonpolar>
-42.6199

> <Gold.PLP.part.repulsive>
0.2158

> <Gold.PLP.ligand.clash>
0.0000

> <Gold.PLP.ligand.torsion>
0.8603

> <Gold.PLP.Chemscore.Hbond>
1.0000

> <Gold.PLP.Chemscore.CHOScore>
0.0000

> <Gold.PLP.Chemscore.Metal>
0.0000

> <Gold.Chemscore.Hbonds>
donor molecule, donor type, donor heavy atom, donor atom, acceptor molecule, acceptor atom, score
      P1  H  6896  6909       L1    17  1.00

> <Gold.PLP.Chemscore.Internal.Correction>
0.0173

> <Gold.Rescore>
     Score         DG    S(hbond)    S(metal)    S(lipo)     H(rot)  DE(clash)    DE(int)     intcor
     13.59     -14.46       0.98        0.00      96.49       2.18       0.03       0.85       ----

> <Gold.Chemscore.Fitness>
13.5857

> <Gold.Chemscore.DG>
-14.4597

> <Gold.Chemscore.ZeroCoef>
-5.4800

> <Gold.Chemscore.Hbond>
0.9793

> <Gold.Chemscore.Metal>
0.0000

> <Gold.Chemscore.Lipo>
96.4922

> <Gold.Chemscore.Internal_Hbond>
0.0000

> <Gold.Chemscore.DEClash>
0.0289

> <Gold.Chemscore.DEInternal>
0.8452

> <Gold.Chemscore.Rot>
2.1800

> <Gold.Chemscore.Internal.Correction>
   9.000000E+99

> <Gold.Chemscore.Hbonds>
donor molecule, donor type, donor heavy atom, donor atom, acceptor molecule, acceptor atom, score
      P1  H  6896  6909       L1    17  0.50

> <Gold.Chemscore.Hbond.Weighted>
-3.2709

> <Gold.Chemscore.Metal.Weighted>
-0.0000

> <Gold.Chemscore.Lipo.Weighted>
-11.2896

> <Gold.Chemscore.Internal_Hbond.Weighted>
0.0000

> <Gold.Chemscore.DEClash.Weighted>
0.0289

> <Gold.Chemscore.DEInternal.Weighted>
0.8452

> <Gold.Chemscore.Rot.Weighted>
5.5807

> <Gold.Chemscore.Internal.Correction.Weighted>
   9.000000E+99

> <Gold.Protein.RotatedTorsions>
[ 6907 6896 6895 6894 ] final   36.11 input  -60.11 | X-H torsion
[ 7974 7965 7964 7962 ] final  -81.96 input  175.53 | X-H torsion
[ 8008 7997 7996 7995 ] final -166.06 input   59.86 | X-H torsion
[ 10167 10162 10161 10158 ] final   86.66 input  -65.29 | X-H torsion
[ 10718 10713 10712 10709 ] final -163.51 input   66.30 | X-H torsion
[ 10763 10752 10751 10750 ] final   10.19 input  -60.55 | X-H torsion
[ 11005 11000 10999 10996 ] final    1.16 input  -57.11 | X-H torsion

> <Gold.Protein.ActiveResidues>
 VAL166  LYS551  ARG553  GLY616  TRP617  ASP618  TYR619  PRO620  LYS621  CYS622 
 ASP623  PHE694  ASN695  SER759  ASP760  ASP761  ALA762  ILE779  LEU786  VAL792 
 PHE793  MET794  SER795  GLU796  ALA797  LYS798  CYS799  TRP800  GLU811  SER814 

> <Gold.Protein.RotatedAtoms>
  152.1253  134.9175  160.0561 H   0  0  0  0  0  0  0  0  0  0  0  0  # atno 6907 bound_to 6896
  152.0300  133.3929  159.4302 H   0  0  0  0  0  0  0  0  0  0  0  0  # atno 6908 bound_to 6896
  150.6852  134.3452  159.4929 H   0  0  0  0  0  0  0  0  0  0  0  0  # atno 6909 bound_to 6896
  145.5396  140.9511  143.1558 H   0  0  0  0  0  0  0  0  0  0  0  0  # atno 7974 bound_to 7965
  155.8585  140.0974  157.1628 H   0  0  0  0  0  0  0  0  0  0  0  0  # atno 8008 bound_to 7997
  154.3989  140.1369  156.3994 H   0  0  0  0  0  0  0  0  0  0  0  0  # atno 8009 bound_to 7997
  155.7882  140.3456  155.5337 H   0  0  0  0  0  0  0  0  0  0  0  0  # atno 8010 bound_to 7997
  139.8852  144.6417  150.8799 H   0  0  0  0  0  0  0  0  0  0  0  0  # atno 10167 bound_to 10162
  156.6257  130.8909  151.2967 H   0  0  0  0  0  0  0  0  0  0  0  0  # atno 10718 bound_to 10713
  153.2059  135.6862  153.8174 H   0  0  0  0  0  0  0  0  0  0  0  0  # atno 10763 bound_to 10752
  153.7424  135.3236  155.3307 H   0  0  0  0  0  0  0  0  0  0  0  0  # atno 10764 bound_to 10752
  154.8196  135.4661  154.0845 H   0  0  0  0  0  0  0  0  0  0  0  0  # atno 10765 bound_to 10752
  140.6186  133.9682  155.8213 H   0  0  0  0  0  0  0  0  0  0  0  0  # atno 11005 bound_to 11000
  144.7584  139.7018  143.7245 LP  0  0  0  0  0  0  0  0  0  0  0  0  # atno 17320 bound_to 7965
  146.1990  139.5273  142.9756 LP  0  0  0  0  0  0  0  0  0  0  0  0  # atno 17321 bound_to 7965
  140.7737  143.3553  151.1933 LP  0  0  0  0  0  0  0  0  0  0  0  0  # atno 17342 bound_to 10162
  139.7159  143.9301  152.2966 LP  0  0  0  0  0  0  0  0  0  0  0  0  # atno 17343 bound_to 10162
  157.7214  130.9564  150.1456 LP  0  0  0  0  0  0  0  0  0  0  0  0  # atno 17370 bound_to 10713
  156.2275  130.3679  149.8483 LP  0  0  0  0  0  0  0  0  0  0  0  0  # atno 17371 bound_to 10713
  141.0758  134.0136  157.3459 LP  0  0  0  0  0  0  0  0  0  0  0  0  # atno 17394 bound_to 11000
  139.9163  135.0197  156.7892 LP  0  0  0  0  0  0  0  0  0  0  0  0  # atno 17395 bound_to 11000

$$$$
