AV-unprocessed.smi:2999|AV-procd|sdf|11423|dock1
  -GOLD-   2272016343D 1   1.00000     0.00000
 Structure written by MMmdl.
 36 38  0  0  0  0  0  0  0  0  2 V2000
  151.6017  140.2510  155.0202 O   0  0  0  0  0  0  0  0  0  0  0  0
  150.8491  139.5189  155.6671 C   0  0  0  0  0  0  0  0  0  0  0  0
  151.2101  139.1048  156.8884 N   0  0  0  0  0  0  0  0  0  0  0  0
  152.4541  139.4583  157.5612 C   0  0  0  0  0  0  0  0  0  0  0  0
  152.2054  140.4392  158.7175 C   0  0  2  0  0  0  0  0  0  0  0  0
  151.8618  141.8654  158.2350 C   0  0  0  0  0  0  0  0  0  0  0  0
  151.7133  142.7972  159.3463 N   0  0  0  0  0  0  0  0  0  0  0  0
  151.4100  144.1365  158.8652 C   0  0  0  0  0  0  0  0  0  0  0  0
  152.5143  144.9880  158.2941 C   0  0  0  0  0  0  0  0  0  0  0  0
  151.9056  145.3289  159.6419 C   0  0  0  0  0  0  0  0  0  0  0  0
  152.9391  142.7862  160.1333 C   0  0  0  0  0  0  0  0  0  0  0  0
  153.2821  141.3706  160.6260 C   0  0  0  0  0  0  0  0  0  0  0  0
  153.3904  140.4929  159.5097 O   0  0  0  0  0  0  0  0  0  0  0  0
  149.6402  139.0594  155.2710 N   0  5  0  0  0  0  0  0  0  0  0  0
  148.7739  139.8851  154.6615 C   0  0  0  0  0  0  0  0  0  0  0  0
  148.8007  141.2140  154.8165 N   0  0  0  0  0  0  0  0  0  0  0  0
  147.8060  141.8773  154.0958 C   0  0  0  0  0  0  0  0  0  0  0  0
  146.9981  141.0331  153.3813 C   0  0  0  0  0  0  0  0  0  0  0  0
  147.4630  139.3697  153.5960 S   0  0  0  0  0  0  0  0  0  0  0  0
  150.5693  138.5054  157.3875 H   0  0  0  0  0  0  0  0  0  0  0  0
  152.9213  138.5486  157.9413 H   0  0  0  0  0  0  0  0  0  0  0  0
  153.1471  139.8980  156.8421 H   0  0  0  0  0  0  0  0  0  0  0  0
  151.3905  140.0581  159.3358 H   0  0  0  0  0  0  0  0  0  0  0  0
  152.6436  142.2170  157.5593 H   0  0  0  0  0  0  0  0  0  0  0  0
  150.9385  141.8443  157.6552 H   0  0  0  0  0  0  0  0  0  0  0  0
  150.4252  144.1992  158.4045 H   0  0  0  0  0  0  0  0  0  0  0  0
  153.5223  144.5776  158.2880 H   0  0  0  0  0  0  0  0  0  0  0  0
  152.2667  145.6323  157.4532 H   0  0  0  0  0  0  0  0  0  0  0  0
  151.2536  146.1983  159.6956 H   0  0  0  0  0  0  0  0  0  0  0  0
  152.5119  145.1442  160.5269 H   0  0  0  0  0  0  0  0  0  0  0  0
  153.7677  143.1717  159.5369 H   0  0  0  0  0  0  0  0  0  0  0  0
  152.8343  143.4535  160.9893 H   0  0  0  0  0  0  0  0  0  0  0  0
  154.2273  141.3758  161.1686 H   0  0  0  0  0  0  0  0  0  0  0  0
  152.5181  141.0040  161.3134 H   0  0  0  0  0  0  0  0  0  0  0  0
  147.7464  142.9542  154.1497 H   0  0  0  0  0  0  0  0  0  0  0  0
  146.1621  141.2855  152.7469 H   0  0  0  0  0  0  0  0  0  0  0  0
  1  2  2  0  0  0  0
  2  3  1  0  0  0  0
  2 14  1  0  0  0  0
  3  4  1  0  0  0  0
  3 20  1  0  0  0  0
  4  5  1  0  0  0  0
  4 21  1  0  0  0  0
  4 22  1  0  0  0  0
  5 13  1  0  0  0  0
  5  6  1  0  0  0  0
  5 23  1  0  0  0  0
  6  7  1  0  0  0  0
  6 24  1  0  0  0  0
  6 25  1  0  0  0  0
  7  8  1  0  0  0  0
  7 11  1  0  0  0  0
  8 10  1  0  0  0  0
  8  9  1  0  0  0  0
  8 26  1  0  0  0  0
  9 10  1  0  0  0  0
  9 27  1  0  0  0  0
  9 28  1  0  0  0  0
 10 29  1  0  0  0  0
 10 30  1  0  0  0  0
 11 12  1  0  0  0  0
 11 31  1  0  0  0  0
 11 32  1  0  0  0  0
 12 13  1  0  0  0  0
 12 33  1  0  0  0  0
 12 34  1  0  0  0  0
 14 15  1  0  0  0  0
 15 19  1  0  0  0  0
 15 16  2  0  0  0  0
 16 17  1  0  0  0  0
 17 18  2  0  0  0  0
 17 35  1  0  0  0  0
 18 19  1  0  0  0  0
 18 36  1  0  0  0  0
M  CHG  1  14  -1
M  END
> <s_m_source_file>
AV-unprocessed.smi

> <i_m_source_file_index>
2999

> <i_lp_mmshare_version>
43012

> <i_f3d_flags>
0

> <s_epik_input>
czFbY0hdW2NIXW5jMVtOSF1DKD1PKVtOSF1bQ0gyXVtDQEBIXTJbQ0gyXU4oW0NIMl1bQ0gyXU8yKVtDSF0zW0NIMl1bQ0gyXTM=

> <s_epik_cmdline>
J2VwaWtfcHl0aG9uJywgJy1waCcsICc3LjAnLCAnLXRuJywgJzgnLCAnLW1hJywgJzIwMCcsICctbWV0YWxfYmluZGluZycsICctaW1hZScsICc8aW5maWxlLm1hZT4nLCAnLW9tYWUnLCAnPG91dGZpbGUubWFlPic=

> <r_lp_tautomer_probability>
0.999

> <r_epik_Ionization_Penalty>
6.67591

> <r_epik_Ionization_Penalty_Charging>
5.6519

> <r_epik_Ionization_Penalty_Neutral>
1.024

> <r_epik_State_Penalty>
5.68985

> <r_epik_Charging_Adjusted_Penalty>
11.3418

> <i_epik_Tot_Q>
-1

> <i_epik_Tot_abs_Q>
1

> <r_epik_Metal_State_Penalty>
1.67789

> <b_epik_Metal_Only>
1

> <s_lp_Force_Field>
OPLS_2005

> <r_lp_Energy>
28.4873

> <b_lp_Chiralities_Consistent>
1

> <s_lp_Variant>
AV-unprocessed.smi:2999-7

> <Gold.Version>
5.8.1

> <Gold.Id.Protein>
6NUR|6NUR_protein|mol2

> <Gold.PLP.Fitness>
46.1470

> <Gold.PLP.PLP>
-39.6466

> <Gold.PLP.part.hbond>
-1.0000

> <Gold.PLP.part.metal>
0.0000

> <Gold.PLP.part.buried>
-6.3038

> <Gold.PLP.part.nonpolar>
-32.8974

> <Gold.PLP.part.repulsive>
0.2836

> <Gold.PLP.ligand.clash>
0.0000

> <Gold.PLP.ligand.torsion>
1.1860

> <Gold.PLP.Chemscore.Hbond>
0.9760

> <Gold.PLP.Chemscore.CHOScore>
1.5751

> <Gold.PLP.Chemscore.Metal>
0.0000

> <Gold.Chemscore.Hbonds>
donor molecule, donor type, donor heavy atom, donor atom, acceptor molecule, acceptor atom, score
      P1  H  7989  7998       L1     1  0.96
      L1  C    17    35       P1  8028  0.97
      L1  C    18    36       P1 10175  0.56

> <Gold.PLP.Chemscore.Internal.Correction>
1.2191

> <Gold.Rescore>
     Score         DG    S(hbond)    S(metal)    S(lipo)     H(rot)  DE(clash)    DE(int)     intcor
     14.60     -17.02       0.97        0.00     104.21       1.52       0.09       2.33       ----

> <Gold.Chemscore.Fitness>
14.5987

> <Gold.Chemscore.DG>
-17.0239

> <Gold.Chemscore.ZeroCoef>
-5.4800

> <Gold.Chemscore.Hbond>
0.9681

> <Gold.Chemscore.Metal>
0.0000

> <Gold.Chemscore.Lipo>
104.2141

> <Gold.Chemscore.Internal_Hbond>
0.0000

> <Gold.Chemscore.DEClash>
0.0927

> <Gold.Chemscore.DEInternal>
2.3325

> <Gold.Chemscore.Rot>
1.5167

> <Gold.Chemscore.Internal.Correction>
   9.000000E+99

> <Gold.Chemscore.Hbonds>
donor molecule, donor type, donor heavy atom, donor atom, acceptor molecule, acceptor atom, score
      P1  H  7989  7998       L1     1  0.92

> <Gold.Chemscore.Hbond.Weighted>
-3.2335

> <Gold.Chemscore.Metal.Weighted>
-0.0000

> <Gold.Chemscore.Lipo.Weighted>
-12.1930

> <Gold.Chemscore.Internal_Hbond.Weighted>
0.0000

> <Gold.Chemscore.DEClash.Weighted>
0.0927

> <Gold.Chemscore.DEInternal.Weighted>
2.3325

> <Gold.Chemscore.Rot.Weighted>
3.8827

> <Gold.Chemscore.Internal.Correction.Weighted>
   9.000000E+99

> <Gold.Protein.RotatedTorsions>
[ 6907 6896 6895 6894 ] final -167.63 input  -60.11 | X-H torsion
[ 7974 7965 7964 7962 ] final -137.10 input  175.53 | X-H torsion
[ 8008 7997 7996 7995 ] final   26.91 input   59.86 | X-H torsion
[ 10167 10162 10161 10158 ] final    8.27 input  -65.29 | X-H torsion
[ 10718 10713 10712 10709 ] final  102.50 input   66.30 | X-H torsion
[ 10763 10752 10751 10750 ] final  -66.54 input  -60.55 | X-H torsion
[ 11005 11000 10999 10996 ] final  -72.35 input  -57.11 | X-H torsion

> <Gold.Protein.ActiveResidues>
 VAL166  LYS551  ARG553  GLY616  TRP617  ASP618  TYR619  PRO620  LYS621  CYS622 
 ASP623  PHE694  ASN695  SER759  ASP760  ASP761  ALA762  ILE779  LEU786  VAL792 
 PHE793  MET794  SER795  GLU796  ALA797  LYS798  CYS799  TRP800  GLU811  SER814 

> <Gold.Protein.RotatedAtoms>
  151.4626  133.3589  159.2811 H   0  0  0  0  0  0  0  0  0  0  0  0  # atno 6907 bound_to 6896
  150.9015  134.8429  159.7374 H   0  0  0  0  0  0  0  0  0  0  0  0  # atno 6908 bound_to 6896
  152.4882  134.4547  159.9638 H   0  0  0  0  0  0  0  0  0  0  0  0  # atno 6909 bound_to 6896
  144.8870  140.6589  143.5169 H   0  0  0  0  0  0  0  0  0  0  0  0  # atno 7974 bound_to 7965
  155.0347  140.3162  155.4746 H   0  0  0  0  0  0  0  0  0  0  0  0  # atno 8008 bound_to 7997
  156.2867  140.2174  156.5412 H   0  0  0  0  0  0  0  0  0  0  0  0  # atno 8009 bound_to 7997
  154.7340  140.0479  157.0740 H   0  0  0  0  0  0  0  0  0  0  0  0  # atno 8010 bound_to 7997
  140.6323  143.7964  150.7313 H   0  0  0  0  0  0  0  0  0  0  0  0  # atno 10167 bound_to 10162
  157.6800  131.0754  150.5413 H   0  0  0  0  0  0  0  0  0  0  0  0  # atno 10718 bound_to 10713
  154.3613  135.6115  153.5692 H   0  0  0  0  0  0  0  0  0  0  0  0  # atno 10763 bound_to 10752
  152.9793  135.5816  154.4630 H   0  0  0  0  0  0  0  0  0  0  0  0  # atno 10764 bound_to 10752
  154.4368  135.2849  155.1852 H   0  0  0  0  0  0  0  0  0  0  0  0  # atno 10765 bound_to 10752
  141.1607  133.6844  156.7045 H   0  0  0  0  0  0  0  0  0  0  0  0  # atno 11005 bound_to 11000
  145.3851  139.1628  143.4260 LP  0  0  0  0  0  0  0  0  0  0  0  0  # atno 17320 bound_to 7965
  146.3031  140.3935  142.8697 LP  0  0  0  0  0  0  0  0  0  0  0  0  # atno 17321 bound_to 7965
  140.1578  143.4301  152.2087 LP  0  0  0  0  0  0  0  0  0  0  0  0  # atno 17342 bound_to 10162
  139.5536  144.7356  151.4359 LP  0  0  0  0  0  0  0  0  0  0  0  0  # atno 17343 bound_to 10162
  156.5720  130.4282  149.6015 LP  0  0  0  0  0  0  0  0  0  0  0  0  # atno 17370 bound_to 10713
  156.2733  130.7029  151.1833 LP  0  0  0  0  0  0  0  0  0  0  0  0  # atno 17371 bound_to 10713
  140.2933  134.8223  157.4036 LP  0  0  0  0  0  0  0  0  0  0  0  0  # atno 17394 bound_to 11000
  140.1327  134.5074  155.8093 LP  0  0  0  0  0  0  0  0  0  0  0  0  # atno 17395 bound_to 11000

$$$$
