AV-unprocessed.smi:547|AV-procd|sdf|2889|dock7
  -GOLD-   2262023383D 1   1.00000     0.00000
 Structure written by MMmdl.
 37 38  0  0  0  0  0  0  0  0  1 V2000
  151.1164  138.7473  159.1160 O   0  0  0  0  0  0  0  0  0  0  0  0
  151.5363  139.3553  158.1312 C   0  0  0  0  0  0  0  0  0  0  0  0
  151.0147  139.0049  156.7288 C   0  0  0  0  0  0  0  0  0  0  0  0
  149.6347  139.4385  156.4091 N   0  0  0  0  0  0  0  0  0  0  0  0
  149.3703  140.8029  156.4628 N   0  0  0  0  0  0  0  0  0  0  0  0
  148.1921  141.2396  156.1809 C   0  0  0  0  0  0  0  0  0  0  0  0
  147.1129  140.3534  155.8101 C   0  0  0  0  0  0  0  0  0  0  0  0
  145.5513  140.9963  155.4415 Cl  0  0  0  0  0  0  0  0  0  0  0  0
  147.3727  139.0229  155.7676 C   0  0  0  0  0  0  0  0  0  0  0  0
  146.1290  137.8996  155.3365 Cl  0  0  0  0  0  0  0  0  0  0  0  0
  148.7054  138.4887  156.0833 C   0  0  0  0  0  0  0  0  0  0  0  0
  148.9723  137.2863  156.0595 O   0  0  0  0  0  0  0  0  0  0  0  0
  152.4459  140.3388  158.2002 N   0  0  0  0  0  0  0  0  0  0  0  0
  152.9905  140.8934  159.4347 C   0  0  0  0  0  0  0  0  0  0  0  0
  152.7227  142.4093  159.5706 C   0  0  0  0  0  0  0  0  0  0  0  0
  152.6855  142.8810  161.0422 C   0  0  0  0  0  0  0  0  0  0  0  0
  152.4148  144.3904  161.1458 C   0  0  0  0  0  0  0  0  0  0  0  0
  151.1150  144.7738  160.4228 C   0  0  0  0  0  0  0  0  0  0  0  0
  151.1429  144.3140  158.9573 C   0  0  0  0  0  0  0  0  0  0  0  0
  151.4171  142.8047  158.8515 C   0  0  0  0  0  0  0  0  0  0  0  0
  151.7093  139.4237  155.9975 H   0  0  0  0  0  0  0  0  0  0  0  0
  151.0708  137.9214  156.6125 H   0  0  0  0  0  0  0  0  0  0  0  0
  147.9464  142.3012  156.2074 H   0  0  0  0  0  0  0  0  0  0  0  0
  152.7430  140.7700  157.3369 H   0  0  0  0  0  0  0  0  0  0  0  0
  152.5764  140.3558  160.2896 H   0  0  0  0  0  0  0  0  0  0  0  0
  154.0641  140.7033  159.4427 H   0  0  0  0  0  0  0  0  0  0  0  0
  153.5381  142.9388  159.0753 H   0  0  0  0  0  0  0  0  0  0  0  0
  151.9139  142.3336  161.5853 H   0  0  0  0  0  0  0  0  0  0  0  0
  153.6295  142.6589  161.5404 H   0  0  0  0  0  0  0  0  0  0  0  0
  152.3595  144.6874  162.1934 H   0  0  0  0  0  0  0  0  0  0  0  0
  153.2510  144.9411  160.7126 H   0  0  0  0  0  0  0  0  0  0  0  0
  150.2649  144.3195  160.9330 H   0  0  0  0  0  0  0  0  0  0  0  0
  150.9653  145.8527  160.4725 H   0  0  0  0  0  0  0  0  0  0  0  0
  150.1953  144.5541  158.4746 H   0  0  0  0  0  0  0  0  0  0  0  0
  151.9134  144.8644  158.4159 H   0  0  0  0  0  0  0  0  0  0  0  0
  151.4691  142.5181  157.8004 H   0  0  0  0  0  0  0  0  0  0  0  0
  150.5788  142.2532  159.2797 H   0  0  0  0  0  0  0  0  0  0  0  0
  1  2  2  0  0  0  0
  2  3  1  0  0  0  0
  2 13  1  0  0  0  0
  3  4  1  0  0  0  0
  3 21  1  0  0  0  0
  3 22  1  0  0  0  0
  4 11  1  0  0  0  0
  4  5  1  0  0  0  0
  5  6  2  0  0  0  0
  6  7  1  0  0  0  0
  6 23  1  0  0  0  0
  7  8  1  0  0  0  0
  7  9  2  0  0  0  0
  9 10  1  0  0  0  0
  9 11  1  0  0  0  0
 11 12  2  0  0  0  0
 13 14  1  0  0  0  0
 13 24  1  0  0  0  0
 14 15  1  0  0  0  0
 14 25  1  0  0  0  0
 14 26  1  0  0  0  0
 15 20  1  0  0  0  0
 15 16  1  0  0  0  0
 15 27  1  0  0  0  0
 16 17  1  0  0  0  0
 16 28  1  0  0  0  0
 16 29  1  0  0  0  0
 17 18  1  0  0  0  0
 17 30  1  0  0  0  0
 17 31  1  0  0  0  0
 18 19  1  0  0  0  0
 18 32  1  0  0  0  0
 18 33  1  0  0  0  0
 19 20  1  0  0  0  0
 19 34  1  0  0  0  0
 19 35  1  0  0  0  0
 20 36  1  0  0  0  0
 20 37  1  0  0  0  0
M  END
> <s_m_source_file>
AV-unprocessed.smi

> <i_m_source_file_index>
547

> <i_lp_mmshare_version>
43012

> <i_f3d_flags>
0

> <s_epik_input>
W0NIMl0xW0NIMl1bQ0gyXVtDSDJdW0NIMl1bQ0hdMVtDSDJdW05IXUMoPU8pW0NIMl1uMm5bY0hdYyhDbCljKENsKWMyPU8=

> <s_epik_cmdline>
J2VwaWtfcHl0aG9uJywgJy1waCcsICc3LjAnLCAnLXRuJywgJzgnLCAnLW1hJywgJzIwMCcsICctbWV0YWxfYmluZGluZycsICctaW1hZScsICc8aW5maWxlLm1hZT4nLCAnLW9tYWUnLCAnPG91dGZpbGUubWFlPic=

> <r_lp_tautomer_probability>
1

> <r_epik_Ionization_Penalty>
1.98263e-08

> <r_epik_Ionization_Penalty_Charging>
2.84997e-11

> <r_epik_Ionization_Penalty_Neutral>
1.97978e-08

> <r_epik_State_Penalty>
-0

> <r_epik_Charging_Adjusted_Penalty>
2.84997e-11

> <i_epik_Tot_Q>
0

> <i_epik_Tot_abs_Q>
0

> <r_epik_Metal_State_Penalty>
-0

> <b_epik_Metal_Only>
0

> <s_lp_Force_Field>
OPLS_2005

> <r_lp_Energy>
30.5704

> <b_lp_Chiralities_Consistent>
1

> <s_lp_Variant>
AV-unprocessed.smi:547-1

> <Gold.Version>
5.8.1

> <Gold.Id.Protein>
6NUR|6NUR_protein|mol2

> <Gold.PLP.Fitness>
43.4185

> <Gold.PLP.PLP>
-41.3938

> <Gold.PLP.part.hbond>
-0.7720

> <Gold.PLP.part.metal>
0.0000

> <Gold.PLP.part.buried>
-2.6970

> <Gold.PLP.part.nonpolar>
-38.4764

> <Gold.PLP.part.repulsive>
1.2628

> <Gold.PLP.ligand.clash>
0.0000

> <Gold.PLP.ligand.torsion>
0.4936

> <Gold.PLP.Chemscore.Hbond>
0.0000

> <Gold.PLP.Chemscore.CHOScore>
1.0000

> <Gold.PLP.Chemscore.Metal>
0.0000

> <Gold.Chemscore.Hbonds>
donor molecule, donor type, donor heavy atom, donor atom, acceptor molecule, acceptor atom, score
      L1  C     6    23       P1  8028  0.73

> <Gold.PLP.Chemscore.Internal.Correction>
0.0118

> <Gold.Rescore>
     Score         DG    S(hbond)    S(metal)    S(lipo)     H(rot)  DE(clash)    DE(int)     intcor
     13.74     -14.23       0.00        0.00     112.19       1.71       0.22       0.28       ----

> <Gold.Chemscore.Fitness>
13.7350

> <Gold.Chemscore.DG>
-14.2292

> <Gold.Chemscore.ZeroCoef>
-5.4800

> <Gold.Chemscore.Hbond>
0.0000

> <Gold.Chemscore.Metal>
0.0000

> <Gold.Chemscore.Lipo>
112.1929

> <Gold.Chemscore.Internal_Hbond>
0.0000

> <Gold.Chemscore.DEClash>
0.2181

> <Gold.Chemscore.DEInternal>
0.2761

> <Gold.Chemscore.Rot>
1.7099

> <Gold.Chemscore.Internal.Correction>
   9.000000E+99

> <Gold.Chemscore.Hbond.Weighted>
-0.0000

> <Gold.Chemscore.Metal.Weighted>
-0.0000

> <Gold.Chemscore.Lipo.Weighted>
-13.1266

> <Gold.Chemscore.Internal_Hbond.Weighted>
0.0000

> <Gold.Chemscore.DEClash.Weighted>
0.2181

> <Gold.Chemscore.DEInternal.Weighted>
0.2761

> <Gold.Chemscore.Rot.Weighted>
4.3774

> <Gold.Chemscore.Internal.Correction.Weighted>
   9.000000E+99

> <Gold.Protein.RotatedTorsions>
[ 6907 6896 6895 6894 ] final   -7.31 input  -60.11 | X-H torsion
[ 7974 7965 7964 7962 ] final  -63.73 input  175.53 | X-H torsion
[ 8008 7997 7996 7995 ] final   18.06 input   59.86 | X-H torsion
[ 10167 10162 10161 10158 ] final   69.02 input  -65.29 | X-H torsion
[ 10718 10713 10712 10709 ] final  -44.95 input   66.30 | X-H torsion
[ 10763 10752 10751 10750 ] final  -45.44 input  -60.55 | X-H torsion
[ 11005 11000 10999 10996 ] final  -79.07 input  -57.11 | X-H torsion

> <Gold.Protein.ActiveResidues>
 VAL166  LYS551  ARG553  GLY616  TRP617  ASP618  TYR619  PRO620  LYS621  CYS622 
 ASP623  PHE694  ASN695  SER759  ASP760  ASP761  ALA762  ILE779  LEU786  VAL792 
 PHE793  MET794  SER795  GLU796  ALA797  LYS798  CYS799  TRP800  GLU811  SER814 

> <Gold.Protein.RotatedAtoms>
  151.4517  135.1030  159.9699 H   0  0  0  0  0  0  0  0  0  0  0  0  # atno 6907 bound_to 6896
  152.4886  133.8434  159.7175 H   0  0  0  0  0  0  0  0  0  0  0  0  # atno 6908 bound_to 6896
  150.9017  133.7050  159.2904 H   0  0  0  0  0  0  0  0  0  0  0  0  # atno 6909 bound_to 6896
  145.7754  140.8790  143.0358 H   0  0  0  0  0  0  0  0  0  0  0  0  # atno 7974 bound_to 7965
  154.9006  140.3000  155.5320 H   0  0  0  0  0  0  0  0  0  0  0  0  # atno 8008 bound_to 7997
  156.3018  140.2407  156.3968 H   0  0  0  0  0  0  0  0  0  0  0  0  # atno 8009 bound_to 7997
  154.8526  140.0409  157.1602 H   0  0  0  0  0  0  0  0  0  0  0  0  # atno 8010 bound_to 7997
  140.0723  144.5141  150.7218 H   0  0  0  0  0  0  0  0  0  0  0  0  # atno 10167 bound_to 10162
  156.2333  130.4174  149.8848 H   0  0  0  0  0  0  0  0  0  0  0  0  # atno 10718 bound_to 10713
  154.0285  135.6660  153.4778 H   0  0  0  0  0  0  0  0  0  0  0  0  # atno 10763 bound_to 10752
  153.0550  135.5061  154.7955 H   0  0  0  0  0  0  0  0  0  0  0  0  # atno 10764 bound_to 10752
  154.6893  135.3058  154.9468 H   0  0  0  0  0  0  0  0  0  0  0  0  # atno 10765 bound_to 10752
  141.1666  133.7090  156.8068 H   0  0  0  0  0  0  0  0  0  0  0  0  # atno 11005 bound_to 11000
  144.6805  139.9914  143.7484 LP  0  0  0  0  0  0  0  0  0  0  0  0  # atno 17320 bound_to 7965
  146.0127  139.3184  143.0860 LP  0  0  0  0  0  0  0  0  0  0  0  0  # atno 17321 bound_to 7965
  140.7119  143.2512  151.4554 LP  0  0  0  0  0  0  0  0  0  0  0  0  # atno 17342 bound_to 10162
  139.5828  144.1671  152.1990 LP  0  0  0  0  0  0  0  0  0  0  0  0  # atno 17343 bound_to 10162
  156.6455  130.8722  151.3522 LP  0  0  0  0  0  0  0  0  0  0  0  0  # atno 17370 bound_to 10713
  157.7143  130.9478  150.1199 LP  0  0  0  0  0  0  0  0  0  0  0  0  # atno 17371 bound_to 10713
  140.2217  134.8752  157.3383 LP  0  0  0  0  0  0  0  0  0  0  0  0  # atno 17394 bound_to 11000
  140.1981  134.4288  155.7677 LP  0  0  0  0  0  0  0  0  0  0  0  0  # atno 17395 bound_to 11000

$$$$
