AV-unprocessed.smi:3318|AV-procd|sdf|12763|dock3
  -GOLD-   2272019103D 1   1.00000     0.00000
 Structure written by MMmdl.
 45 46  0  0  0  0  0  0  0  0  3 V2000
  144.6709  134.2991  151.0372 C   0  0  0  0  0  0  0  0  0  0  0  0
  145.3567  135.6517  151.2582 C   0  0  0  0  0  0  0  0  0  0  0  0
  144.5158  136.5973  152.1337 C   0  0  0  0  0  0  0  0  0  0  0  0
  145.2222  137.8648  152.4530 N   0  3  2  0  0  0  0  0  0  0  0  0
  146.1836  138.2847  151.3987 C   0  0  0  0  0  0  0  0  0  0  0  0
  146.7993  139.6590  151.7189 C   0  0  0  0  0  0  0  0  0  0  0  0
  147.4782  139.6883  153.1035 C   0  0  2  0  0  0  0  0  0  0  0  0
  148.7369  138.9055  153.1422 N   0  3  0  0  0  0  0  0  0  0  0  0
  149.3458  138.7501  154.4803 C   0  0  0  0  0  0  0  0  0  0  0  0
  150.7223  139.4269  154.5382 C   0  0  0  0  0  0  0  0  0  0  0  0
  150.9098  140.2362  155.8073 C   0  0  0  0  0  0  0  0  0  0  0  0
  151.2843  139.6099  157.0150 C   0  0  0  0  0  0  0  0  0  0  0  0
  151.4490  140.4105  158.1621 C   0  0  0  0  0  0  0  0  0  0  0  0
  151.2362  141.7986  158.0566 C   0  0  0  0  0  0  0  0  0  0  0  0
  150.8661  142.3272  156.8039 C   0  0  0  0  0  0  0  0  0  0  0  0
  150.7059  141.5682  155.6979 N   0  0  0  0  0  0  0  0  0  0  0  0
  146.4855  139.1813  154.1648 C   0  0  0  0  0  0  0  0  0  0  0  0
  145.8699  137.8202  153.7897 C   0  0  0  0  0  0  0  0  0  0  0  0
  145.2879  133.6471  150.4180 H   0  0  0  0  0  0  0  0  0  0  0  0
  143.7102  134.4197  150.5358 H   0  0  0  0  0  0  0  0  0  0  0  0
  144.4939  133.7876  151.9837 H   0  0  0  0  0  0  0  0  0  0  0  0
  146.3317  135.4728  151.7104 H   0  0  0  0  0  0  0  0  0  0  0  0
  145.5449  136.1180  150.2903 H   0  0  0  0  0  0  0  0  0  0  0  0
  143.5999  136.8300  151.5883 H   0  0  0  0  0  0  0  0  0  0  0  0
  144.2072  136.1009  153.0552 H   0  0  0  0  0  0  0  0  0  0  0  0
  146.9678  137.5331  151.2967 H   0  0  0  0  0  0  0  0  0  0  0  0
  145.6832  138.3467  150.4332 H   0  0  0  0  0  0  0  0  0  0  0  0
  147.4932  139.9519  150.9316 H   0  0  0  0  0  0  0  0  0  0  0  0
  146.0057  140.4075  151.7013 H   0  0  0  0  0  0  0  0  0  0  0  0
  147.7313  140.7202  153.3520 H   0  0  0  0  0  0  0  0  0  0  0  0
  148.5278  137.9759  152.8062 H   0  0  0  0  0  0  0  0  0  0  0  0
  148.6952  139.1843  155.2394 H   0  0  0  0  0  0  0  0  0  0  0  0
  149.4448  137.6877  154.7080 H   0  0  0  0  0  0  0  0  0  0  0  0
  151.5125  138.6767  154.4798 H   0  0  0  0  0  0  0  0  0  0  0  0
  150.8543  140.0800  153.6743 H   0  0  0  0  0  0  0  0  0  0  0  0
  151.4415  138.5424  157.0659 H   0  0  0  0  0  0  0  0  0  0  0  0
  151.7336  139.9679  159.1055 H   0  0  0  0  0  0  0  0  0  0  0  0
  151.3535  142.4435  158.9150 H   0  0  0  0  0  0  0  0  0  0  0  0
  150.6952  143.3872  156.6867 H   0  0  0  0  0  0  0  0  0  0  0  0
  146.9715  139.1178  155.1392 H   0  0  0  0  0  0  0  0  0  0  0  0
  145.6823  139.9111  154.2773 H   0  0  0  0  0  0  0  0  0  0  0  0
  145.1330  137.5457  154.5457 H   0  0  0  0  0  0  0  0  0  0  0  0
  146.6342  137.0417  153.7988 H   0  0  0  0  0  0  0  0  0  0  0  0
  144.5100  138.5795  152.5077 H   0  0  0  0  0  0  0  0  0  0  0  0
  149.4110  139.3258  152.5186 H   0  0  0  0  0  0  0  0  0  0  0  0
  1  2  1  0  0  0  0
  1 19  1  0  0  0  0
  1 20  1  0  0  0  0
  1 21  1  0  0  0  0
  2  3  1  0  0  0  0
  2 22  1  0  0  0  0
  2 23  1  0  0  0  0
  3  4  1  0  0  0  0
  3 24  1  0  0  0  0
  3 25  1  0  0  0  0
  4 18  1  0  0  0  0
  4  5  1  0  0  0  0
  4 44  1  0  0  0  0
  5  6  1  0  0  0  0
  5 26  1  0  0  0  0
  5 27  1  0  0  0  0
  6  7  1  0  0  0  0
  6 28  1  0  0  0  0
  6 29  1  0  0  0  0
  7  8  1  0  0  0  0
  7 17  1  0  0  0  0
  7 30  1  0  0  0  0
  8  9  1  0  0  0  0
  8 31  1  0  0  0  0
  8 45  1  0  0  0  0
  9 10  1  0  0  0  0
  9 32  1  0  0  0  0
  9 33  1  0  0  0  0
 10 11  1  0  0  0  0
 10 34  1  0  0  0  0
 10 35  1  0  0  0  0
 11 16  1  0  0  0  0
 11 12  2  0  0  0  0
 12 13  1  0  0  0  0
 12 36  1  0  0  0  0
 13 14  2  0  0  0  0
 13 37  1  0  0  0  0
 14 15  1  0  0  0  0
 14 38  1  0  0  0  0
 15 16  2  0  0  0  0
 15 39  1  0  0  0  0
 17 18  1  0  0  0  0
 17 40  1  0  0  0  0
 17 41  1  0  0  0  0
 18 42  1  0  0  0  0
 18 43  1  0  0  0  0
M  CHG  1   4   1
M  CHG  1   8   1
M  END
> <s_m_source_file>
AV-unprocessed.smi

> <i_m_source_file_index>
3318

> <i_lp_mmshare_version>
43012

> <i_f3d_flags>
0

> <s_epik_input>
W0NIM11bQ0gyXVtDSDJdTjFbQ0gyXVtDSDJdW0NIXShbQ0gyXVtDSDJdMSlbTkhdW0NIMl1bQ0gyXWMyW2NIXVtjSF1bY0hdW2NIXW4y

> <s_epik_cmdline>
J2VwaWtfcHl0aG9uJywgJy1waCcsICc3LjAnLCAnLXRuJywgJzgnLCAnLW1hJywgJzIwMCcsICctbWV0YWxfYmluZGluZycsICctaW1hZScsICc8aW5maWxlLm1hZT4nLCAnLW9tYWUnLCAnPG91dGZpbGUubWFlPic=

> <r_epik_Ionization_Penalty>
0.0638186

> <r_epik_Ionization_Penalty_Charging>
0.0628538

> <r_epik_Ionization_Penalty_Neutral>
0.000964829

> <r_epik_State_Penalty>
0.0518488

> <r_epik_Charging_Adjusted_Penalty>
0.114703

> <i_epik_Tot_Q>
2

> <i_epik_Tot_abs_Q>
2

> <r_epik_Metal_State_Penalty>
0.0535981

> <b_epik_Metal_Only>
0

> <s_lp_Force_Field>
OPLS_2005

> <r_lp_Energy>
29.7366

> <b_lp_Chiralities_Consistent>
1

> <s_lp_Variant>
AV-unprocessed.smi:3318-2

> <Gold.Version>
5.8.1

> <Gold.Id.Protein>
6NUR|6NUR_protein|mol2

> <Gold.PLP.Fitness>
47.5261

> <Gold.PLP.PLP>
-32.6764

> <Gold.PLP.part.hbond>
-4.2962

> <Gold.PLP.part.metal>
0.0000

> <Gold.PLP.part.buried>
5.9251

> <Gold.PLP.part.nonpolar>
-34.5430

> <Gold.PLP.part.repulsive>
0.1683

> <Gold.PLP.ligand.clash>
0.0000

> <Gold.PLP.ligand.torsion>
1.4827

> <Gold.PLP.Chemscore.Hbond>
4.8960

> <Gold.PLP.Chemscore.CHOScore>
1.0000

> <Gold.PLP.Chemscore.Metal>
0.0000

> <Gold.Chemscore.Hbonds>
donor molecule, donor type, donor heavy atom, donor atom, acceptor molecule, acceptor atom, score
      L1  H     4    44       P1 10175  1.92
      L1  H     8    31       P1  7948  2.00
      L1  H     8    45       P1  7957  0.90
      L1  C    15    39       P1  8028  1.00

> <Gold.PLP.Chemscore.Internal.Correction>
0.1271

> <Gold.Rescore>
     Score         DG    S(hbond)    S(metal)    S(lipo)     H(rot)  DE(clash)    DE(int)     intcor
     17.93     -21.39       2.76        0.00      91.05       1.55       2.11       1.35       ----

> <Gold.Chemscore.Fitness>
17.9338

> <Gold.Chemscore.DG>
-21.3889

> <Gold.Chemscore.ZeroCoef>
-5.4800

> <Gold.Chemscore.Hbond>
2.7641

> <Gold.Chemscore.Metal>
0.0000

> <Gold.Chemscore.Lipo>
91.0511

> <Gold.Chemscore.Internal_Hbond>
0.0000

> <Gold.Chemscore.DEClash>
2.1094

> <Gold.Chemscore.DEInternal>
1.3457

> <Gold.Chemscore.Rot>
1.5532

> <Gold.Chemscore.Internal.Correction>
   9.000000E+99

> <Gold.Chemscore.Hbonds>
donor molecule, donor type, donor heavy atom, donor atom, acceptor molecule, acceptor atom, score
      L1  H     4    44       P1 10175  0.91
      L1  H     8    31       P1  7948  0.92
      L1  H     8    45       P1  7957  0.83

> <Gold.Chemscore.Hbond.Weighted>
-9.2321

> <Gold.Chemscore.Metal.Weighted>
-0.0000

> <Gold.Chemscore.Lipo.Weighted>
-10.6530

> <Gold.Chemscore.Internal_Hbond.Weighted>
0.0000

> <Gold.Chemscore.DEClash.Weighted>
2.1094

> <Gold.Chemscore.DEInternal.Weighted>
1.3457

> <Gold.Chemscore.Rot.Weighted>
3.9762

> <Gold.Chemscore.Internal.Correction.Weighted>
   9.000000E+99

> <Gold.Protein.RotatedTorsions>
[ 6907 6896 6895 6894 ] final   70.57 input  -60.11 | X-H torsion
[ 7974 7965 7964 7962 ] final  -85.02 input  175.53 | X-H torsion
[ 8008 7997 7996 7995 ] final -117.92 input   59.86 | X-H torsion
[ 10167 10162 10161 10158 ] final  126.01 input  -65.29 | X-H torsion
[ 10718 10713 10712 10709 ] final  -52.95 input   66.30 | X-H torsion
[ 10763 10752 10751 10750 ] final  148.10 input  -60.55 | X-H torsion
[ 11005 11000 10999 10996 ] final  -21.57 input  -57.11 | X-H torsion

> <Gold.Protein.ActiveResidues>
 VAL166  LYS551  ARG553  GLY616  TRP617  ASP618  TYR619  PRO620  LYS621  CYS622 
 ASP623  PHE694  ASN695  SER759  ASP760  ASP761  ALA762  ILE779  LEU786  VAL792 
 PHE793  MET794  SER795  GLU796  ALA797  LYS798  CYS799  TRP800  GLU811  SER814 

> <Gold.Protein.RotatedAtoms>
  152.4757  134.4849  159.9676 H   0  0  0  0  0  0  0  0  0  0  0  0  # atno 6907 bound_to 6896
  151.4866  133.3528  159.2854 H   0  0  0  0  0  0  0  0  0  0  0  0  # atno 6908 bound_to 6896
  150.8794  134.8210  159.7275 H   0  0  0  0  0  0  0  0  0  0  0  0  # atno 6909 bound_to 6896
  145.4988  140.9548  143.1771 H   0  0  0  0  0  0  0  0  0  0  0  0  # atno 7974 bound_to 7965
  155.0914  140.0395  157.2669 H   0  0  0  0  0  0  0  0  0  0  0  0  # atno 8008 bound_to 7997
  154.6829  140.2637  155.6865 H   0  0  0  0  0  0  0  0  0  0  0  0  # atno 8009 bound_to 7997
  156.2701  140.2775  156.1380 H   0  0  0  0  0  0  0  0  0  0  0  0  # atno 8010 bound_to 7997
  139.5654  144.6908  151.3925 H   0  0  0  0  0  0  0  0  0  0  0  0  # atno 10167 bound_to 10162
  156.1577  130.4150  149.9842 H   0  0  0  0  0  0  0  0  0  0  0  0  # atno 10718 bound_to 10713
  154.0493  135.2883  155.3343 H   0  0  0  0  0  0  0  0  0  0  0  0  # atno 10763 bound_to 10752
  154.6879  135.5238  153.8355 H   0  0  0  0  0  0  0  0  0  0  0  0  # atno 10764 bound_to 10752
  153.0567  135.6598  154.0690 H   0  0  0  0  0  0  0  0  0  0  0  0  # atno 10765 bound_to 10752
  140.8574  133.7813  156.0035 H   0  0  0  0  0  0  0  0  0  0  0  0  # atno 11005 bound_to 11000
  144.7792  139.6564  143.7162 LP  0  0  0  0  0  0  0  0  0  0  0  0  # atno 17320 bound_to 7965
  146.2239  139.5686  142.9600 LP  0  0  0  0  0  0  0  0  0  0  0  0  # atno 17321 bound_to 7965
  140.6937  143.7800  150.7294 LP  0  0  0  0  0  0  0  0  0  0  0  0  # atno 17342 bound_to 10162
  140.1290  143.4543  152.2266 LP  0  0  0  0  0  0  0  0  0  0  0  0  # atno 17343 bound_to 10162
  156.7681  130.9176  151.3643 LP  0  0  0  0  0  0  0  0  0  0  0  0  # atno 17370 bound_to 10713
  157.6708  130.9049  150.0036 LP  0  0  0  0  0  0  0  0  0  0  0  0  # atno 17371 bound_to 10713
  140.8721  134.2713  157.5185 LP  0  0  0  0  0  0  0  0  0  0  0  0  # atno 17394 bound_to 11000
  139.8706  134.9573  156.4263 LP  0  0  0  0  0  0  0  0  0  0  0  0  # atno 17395 bound_to 11000

$$$$
