AV-unprocessed.smi:149|AV-procd|sdf|1239|dock9
  -GOLD-   2262018453D 1   1.00000     0.00000
 Structure written by MMmdl.
 59 63  0  0  0  0  0  0  0  0  1 V2000
  148.6005  134.4001  157.6939 C   0  0  0  0  0  0  0  0  0  0  0  0
  148.3714  134.7274  156.2037 C   0  0  1  0  0  0  0  0  0  0  0  0
  148.6554  136.2134  155.9320 C   0  0  0  0  0  0  0  0  0  0  0  0
  150.0004  136.2725  155.3784 N   0  0  0  0  0  0  0  0  0  0  0  0
  150.7919  137.3600  155.5664 C   0  0  0  0  0  0  0  0  0  0  0  0
  151.9831  137.4231  154.9136 N   0  0  0  0  0  0  0  0  0  0  0  0
  152.7871  138.4787  155.0670 C   0  0  0  0  0  0  0  0  0  0  0  0
  152.5979  139.5692  155.8110 N   0  0  0  0  0  0  0  0  0  0  0  0
  151.4020  139.5200  156.4643 C   0  0  0  0  0  0  0  0  0  0  0  0
  150.4440  138.4675  156.3953 C   0  0  0  0  0  0  0  0  0  0  0  0
  149.3383  138.7928  157.1741 N   0  0  0  0  0  0  0  0  0  0  0  0
  149.6272  139.9626  157.6741 C   0  0  0  0  0  0  0  0  0  0  0  0
  150.8603  140.4613  157.3221 N   0  0  0  0  0  0  0  0  0  0  0  0
  151.4112  141.7324  157.6902 C   0  0  0  0  0  0  0  0  0  0  0  0
  152.6111  141.8291  158.6355 C   0  0  0  0  0  0  0  0  0  0  0  0
  152.0646  143.1681  159.1802 C   0  0  0  0  0  0  0  0  0  0  0  0
  152.2125  143.3428  160.7018 C   0  0  0  0  0  0  0  0  0  0  0  0
  151.3403  144.3326  161.2073 O   0  0  0  0  0  0  0  0  0  0  0  0
  152.6367  144.4113  158.4661 C   0  0  0  0  0  0  0  0  0  0  0  0
  152.0660  145.6131  158.9420 O   0  0  0  0  0  0  0  0  0  0  0  0
  150.6950  142.6540  158.6795 C   0  0  0  0  0  0  0  0  0  0  0  0
  150.5568  134.9328  155.2738 C   0  0  0  0  0  0  0  0  0  0  0  0
  149.3368  134.0033  155.2381 C   0  0  1  0  0  0  0  0  0  0  0  0
  149.6067  132.5868  155.5196 N   0  0  0  0  0  0  0  0  0  0  0  0
  150.8149  132.4044  156.3234 C   0  0  0  0  0  0  0  0  0  0  0  0
  151.1042  130.9191  156.6034 C   0  0  0  0  0  0  0  0  0  0  0  0
  151.2116  130.2113  155.3734 O   0  0  0  0  0  0  0  0  0  0  0  0
  150.0397  130.3253  154.5740 C   0  0  0  0  0  0  0  0  0  0  0  0
  149.7548  131.8095  154.2888 C   0  0  0  0  0  0  0  0  0  0  0  0
  149.6236  134.6190  158.0004 H   0  0  0  0  0  0  0  0  0  0  0  0
  148.4071  133.3510  157.9150 H   0  0  0  0  0  0  0  0  0  0  0  0
  147.9354  134.9885  158.3264 H   0  0  0  0  0  0  0  0  0  0  0  0
  147.3350  134.4965  155.9555 H   0  0  0  0  0  0  0  0  0  0  0  0
  147.9588  136.6052  155.1901 H   0  0  0  0  0  0  0  0  0  0  0  0
  148.5556  136.8130  156.8376 H   0  0  0  0  0  0  0  0  0  0  0  0
  153.7144  138.4451  154.5143 H   0  0  0  0  0  0  0  0  0  0  0  0
  148.9437  140.4939  158.3204 H   0  0  0  0  0  0  0  0  0  0  0  0
  151.6132  142.2551  156.7537 H   0  0  0  0  0  0  0  0  0  0  0  0
  152.6161  141.0291  159.3785 H   0  0  0  0  0  0  0  0  0  0  0  0
  153.5767  141.8961  158.1329 H   0  0  0  0  0  0  0  0  0  0  0  0
  151.9827  142.4127  161.2222 H   0  0  0  0  0  0  0  0  0  0  0  0
  153.2364  143.6003  160.9744 H   0  0  0  0  0  0  0  0  0  0  0  0
  150.7660  143.9321  161.8418 H   0  0  0  0  0  0  0  0  0  0  0  0
  153.7192  144.4683  158.5843 H   0  0  0  0  0  0  0  0  0  0  0  0
  152.4544  144.3671  157.3921 H   0  0  0  0  0  0  0  0  0  0  0  0
  152.2238  145.6740  159.8714 H   0  0  0  0  0  0  0  0  0  0  0  0
  150.0594  143.4076  158.2137 H   0  0  0  0  0  0  0  0  0  0  0  0
  150.1469  142.1023  159.4457 H   0  0  0  0  0  0  0  0  0  0  0  0
  151.1646  134.8353  154.3735 H   0  0  0  0  0  0  0  0  0  0  0  0
  151.1853  134.7206  156.1401 H   0  0  0  0  0  0  0  0  0  0  0  0
  148.9090  134.0803  154.2365 H   0  0  0  0  0  0  0  0  0  0  0  0
  151.6704  132.8497  155.8131 H   0  0  0  0  0  0  0  0  0  0  0  0
  150.7162  132.9218  157.2776 H   0  0  0  0  0  0  0  0  0  0  0  0
  152.0363  130.8123  157.1587 H   0  0  0  0  0  0  0  0  0  0  0  0
  150.3142  130.4812  157.2152 H   0  0  0  0  0  0  0  0  0  0  0  0
  150.1902  129.7818  153.6413 H   0  0  0  0  0  0  0  0  0  0  0  0
  149.1945  129.8605  155.0842 H   0  0  0  0  0  0  0  0  0  0  0  0
  148.8546  131.8822  153.6798 H   0  0  0  0  0  0  0  0  0  0  0  0
  150.5672  132.2208  153.6876 H   0  0  0  0  0  0  0  0  0  0  0  0
  1  2  1  0  0  0  0
  1 30  1  0  0  0  0
  1 31  1  0  0  0  0
  1 32  1  0  0  0  0
  2 23  1  0  0  0  0
  2  3  1  0  0  0  0
  2 33  1  0  0  0  0
  3  4  1  0  0  0  0
  3 34  1  0  0  0  0
  3 35  1  0  0  0  0
  4  5  1  0  0  0  0
  4 22  1  0  0  0  0
  5 10  1  0  0  0  0
  5  6  2  0  0  0  0
  6  7  1  0  0  0  0
  7  8  2  0  0  0  0
  7 36  1  0  0  0  0
  8  9  1  0  0  0  0
  9 13  1  0  0  0  0
  9 10  2  0  0  0  0
 10 11  1  0  0  0  0
 11 12  2  0  0  0  0
 12 13  1  0  0  0  0
 12 37  1  0  0  0  0
 13 14  1  0  0  0  0
 14 21  1  0  0  0  0
 14 15  1  0  0  0  0
 14 38  1  0  0  0  0
 15 16  1  0  0  0  0
 15 39  1  0  0  0  0
 15 40  1  0  0  0  0
 16 17  1  0  0  0  0
 16 19  1  0  0  0  0
 16 21  1  0  0  0  0
 17 18  1  0  0  0  0
 17 41  1  0  0  0  0
 17 42  1  0  0  0  0
 18 43  1  0  0  0  0
 19 20  1  0  0  0  0
 19 44  1  0  0  0  0
 19 45  1  0  0  0  0
 20 46  1  0  0  0  0
 21 47  1  0  0  0  0
 21 48  1  0  0  0  0
 22 23  1  0  0  0  0
 22 49  1  0  0  0  0
 22 50  1  0  0  0  0
 23 24  1  0  0  0  0
 23 51  1  0  0  0  0
 24 29  1  0  0  0  0
 24 25  1  0  0  0  0
 25 26  1  0  0  0  0
 25 52  1  0  0  0  0
 25 53  1  0  0  0  0
 26 27  1  0  0  0  0
 26 54  1  0  0  0  0
 26 55  1  0  0  0  0
 27 28  1  0  0  0  0
 28 29  1  0  0  0  0
 28 56  1  0  0  0  0
 28 57  1  0  0  0  0
 29 58  1  0  0  0  0
 29 59  1  0  0  0  0
M  END
> <s_m_source_file>
AV-unprocessed.smi

> <i_m_source_file_index>
149

> <i_lp_mmshare_version>
43012

> <i_f3d_flags>
0

> <s_epik_input>
W0NIMl0xW0NIMl1PW0NIMl1bQ0gyXU4xW0NAQEhdMltDSDJdTihbQ0gyXVtDQEhdMltDSDNdKWMobltjSF1uMyljKGMzNCluW2NIXW40W0NIXShbQ0gyXTUpW0NIMl1DNShbQ0gyXVtPSF0pW0NIMl1bT0hd

> <s_epik_cmdline>
J2VwaWtfcHl0aG9uJywgJy1waCcsICc3LjAnLCAnLXRuJywgJzgnLCAnLW1hJywgJzIwMCcsICctbWV0YWxfYmluZGluZycsICctaW1hZScsICc8aW5maWxlLm1hZT4nLCAnLW9tYWUnLCAnPG91dGZpbGUubWFlPic=

> <r_lp_tautomer_probability>
1

> <r_epik_Ionization_Penalty>
0.41918

> <r_epik_Ionization_Penalty_Charging>
0

> <r_epik_Ionization_Penalty_Neutral>
0.41918

> <r_epik_State_Penalty>
0.654916

> <r_epik_Charging_Adjusted_Penalty>
0.654916

> <i_epik_Tot_Q>
0

> <i_epik_Tot_abs_Q>
0

> <r_epik_Metal_State_Penalty>
0.653217

> <b_epik_Metal_Only>
0

> <s_lp_Force_Field>
OPLS_2005

> <r_lp_Energy>
77.678

> <b_lp_Chiralities_Consistent>
1

> <s_lp_Variant>
AV-unprocessed.smi:149-6

> <Gold.Version>
5.8.1

> <Gold.Id.Protein>
6NUR|6NUR_protein|mol2

> <Gold.PLP.Fitness>
48.7145

> <Gold.PLP.PLP>
-46.1855

> <Gold.PLP.part.hbond>
-3.4908

> <Gold.PLP.part.metal>
0.0000

> <Gold.PLP.part.buried>
-8.7764

> <Gold.PLP.part.nonpolar>
-33.3716

> <Gold.PLP.part.repulsive>
0.1296

> <Gold.PLP.ligand.clash>
0.0097

> <Gold.PLP.ligand.torsion>
1.6267

> <Gold.PLP.Chemscore.Hbond>
1.6763

> <Gold.PLP.Chemscore.CHOScore>
0.0000

> <Gold.PLP.Chemscore.Metal>
0.0000

> <Gold.Chemscore.Hbonds>
donor molecule, donor type, donor heavy atom, donor atom, acceptor molecule, acceptor atom, score
      P1  H  7997  8010       L1     8  1.00
      P1  H 10752 10764       L1     6  0.69

> <Gold.PLP.Chemscore.Internal.Correction>
0.7632

> <Gold.Rescore>
     Score         DG    S(hbond)    S(metal)    S(lipo)     H(rot)  DE(clash)    DE(int)     intcor
     12.03     -14.70       1.50        0.00     102.42       3.04       0.00       2.68       ----

> <Gold.Chemscore.Fitness>
12.0259

> <Gold.Chemscore.DG>
-14.7022

> <Gold.Chemscore.ZeroCoef>
-5.4800

> <Gold.Chemscore.Hbond>
1.5025

> <Gold.Chemscore.Metal>
0.0000

> <Gold.Chemscore.Lipo>
102.4238

> <Gold.Chemscore.Internal_Hbond>
0.0000

> <Gold.Chemscore.DEClash>
0.0009

> <Gold.Chemscore.DEInternal>
2.6754

> <Gold.Chemscore.Rot>
3.0390

> <Gold.Chemscore.Internal.Correction>
   9.000000E+99

> <Gold.Chemscore.Hbonds>
donor molecule, donor type, donor heavy atom, donor atom, acceptor molecule, acceptor atom, score
      P1  H  7997  8010       L1     8  0.45
      P1  H 10752 10764       L1     6  0.58

> <Gold.Chemscore.Hbond.Weighted>
-5.0184

> <Gold.Chemscore.Metal.Weighted>
-0.0000

> <Gold.Chemscore.Lipo.Weighted>
-11.9836

> <Gold.Chemscore.Internal_Hbond.Weighted>
0.0000

> <Gold.Chemscore.DEClash.Weighted>
0.0009

> <Gold.Chemscore.DEInternal.Weighted>
2.6754

> <Gold.Chemscore.Rot.Weighted>
7.7798

> <Gold.Chemscore.Internal.Correction.Weighted>
   9.000000E+99

> <Gold.Protein.RotatedTorsions>
[ 6907 6896 6895 6894 ] final  -51.58 input  -60.11 | X-H torsion
[ 7974 7965 7964 7962 ] final  129.58 input  175.53 | X-H torsion
[ 8008 7997 7996 7995 ] final   81.68 input   59.86 | X-H torsion
[ 10167 10162 10161 10158 ] final  -65.62 input  -65.29 | X-H torsion
[ 10718 10713 10712 10709 ] final  175.69 input   66.30 | X-H torsion
[ 10763 10752 10751 10750 ] final  -77.67 input  -60.55 | X-H torsion
[ 11005 11000 10999 10996 ] final  158.04 input  -57.11 | X-H torsion

> <Gold.Protein.ActiveResidues>
 VAL166  LYS551  ARG553  GLY616  TRP617  ASP618  TYR619  PRO620  LYS621  CYS622 
 ASP623  PHE694  ASN695  SER759  ASP760  ASP761  ALA762  ILE779  LEU786  VAL792 
 PHE793  MET794  SER795  GLU796  ALA797  LYS798  CYS799  TRP800  GLU811  SER814 

> <Gold.Protein.RotatedAtoms>
  150.8598  134.7947  159.7073 H   0  0  0  0  0  0  0  0  0  0  0  0  # atno 6907 bound_to 6896
  152.4638  134.5119  159.9766 H   0  0  0  0  0  0  0  0  0  0  0  0  # atno 6908 bound_to 6896
  151.5225  133.3426  159.2939 H   0  0  0  0  0  0  0  0  0  0  0  0  # atno 6909 bound_to 6896
  145.0272  139.4079  143.5168 H   0  0  0  0  0  0  0  0  0  0  0  0  # atno 7974 bound_to 7965
  155.9004  140.3433  155.6022 H   0  0  0  0  0  0  0  0  0  0  0  0  # atno 8008 bound_to 7997
  155.7506  140.0819  157.2222 H   0  0  0  0  0  0  0  0  0  0  0  0  # atno 8009 bound_to 7997
  154.4043  140.1554  156.2707 H   0  0  0  0  0  0  0  0  0  0  0  0  # atno 8010 bound_to 7997
  140.5717  143.2318  151.6525 H   0  0  0  0  0  0  0  0  0  0  0  0  # atno 10167 bound_to 10162
  156.9311  130.9971  151.2987 H   0  0  0  0  0  0  0  0  0  0  0  0  # atno 10718 bound_to 10713
  154.5160  135.5756  153.6642 H   0  0  0  0  0  0  0  0  0  0  0  0  # atno 10763 bound_to 10752
  152.9907  135.6170  154.2817 H   0  0  0  0  0  0  0  0  0  0  0  0  # atno 10764 bound_to 10752
  154.2735  135.2853  155.2707 H   0  0  0  0  0  0  0  0  0  0  0  0  # atno 10765 bound_to 10752
  140.1827  134.8464  157.2822 H   0  0  0  0  0  0  0  0  0  0  0  0  # atno 11005 bound_to 11000
  146.3494  139.9802  142.8696 LP  0  0  0  0  0  0  0  0  0  0  0  0  # atno 17320 bound_to 7965
  145.1818  140.9771  143.4262 LP  0  0  0  0  0  0  0  0  0  0  0  0  # atno 17321 bound_to 7965
  139.5121  144.3488  152.0672 LP  0  0  0  0  0  0  0  0  0  0  0  0  # atno 17342 bound_to 10162
  140.2626  144.4050  150.6180 LP  0  0  0  0  0  0  0  0  0  0  0  0  # atno 17343 bound_to 10162
  157.5846  130.8400  149.8571 LP  0  0  0  0  0  0  0  0  0  0  0  0  # atno 17370 bound_to 10713
  156.0446  130.3731  150.1348 LP  0  0  0  0  0  0  0  0  0  0  0  0  # atno 17371 bound_to 10713
  140.2249  134.3979  155.7548 LP  0  0  0  0  0  0  0  0  0  0  0  0  # atno 17394 bound_to 11000
  141.2223  133.7185  156.8548 LP  0  0  0  0  0  0  0  0  0  0  0  0  # atno 17395 bound_to 11000

$$$$
