AV-unprocessed.smi:156|AV-procd|sdf|1288|dock7
  -GOLD-   2262018563D 1   1.00000     0.00000
 Structure written by MMmdl.
 51 53  0  0  0  0  0  0  0  0  1 V2000
  148.3957  139.1825  156.5396 C   0  0  0  0  0  0  0  0  0  0  0  0
  149.1169  138.2181  155.5772 C   0  0  1  0  0  0  0  0  0  0  0  0
  150.6093  137.9786  155.9607 C   0  0  2  0  0  0  0  0  0  0  0  0
  150.7937  137.5881  157.4394 C   0  0  0  0  0  0  0  0  0  0  0  0
  151.7074  139.4388  155.5745 S   0  0  0  0  0  0  0  0  0  0  0  0
  152.9254  138.7520  154.3739 C   0  0  0  0  0  0  0  0  0  0  0  0
  150.9058  140.4420  154.8570 O   0  0  0  0  0  0  0  0  0  0  0  0
  152.4448  139.8382  156.7825 O   0  0  0  0  0  0  0  0  0  0  0  0
  148.3414  136.9712  155.4679 N   0  0  0  0  0  0  0  0  0  0  0  0
  148.2843  136.0452  156.5967 C   0  0  0  0  0  0  0  0  0  0  0  0
  147.3664  136.8868  154.5186 C   0  0  0  0  0  0  0  0  0  0  0  0
  146.9190  138.0421  153.9597 N   0  0  0  0  0  0  0  0  0  0  0  0
  145.9807  138.0269  153.0101 C   0  0  0  0  0  0  0  0  0  0  0  0
  145.3565  136.9790  152.4740 N   0  0  0  0  0  0  0  0  0  0  0  0
  145.7892  135.8110  153.0278 C   0  0  0  0  0  0  0  0  0  0  0  0
  146.7823  135.6720  154.0420 C   0  0  0  0  0  0  0  0  0  0  0  0
  146.9456  134.3231  154.3418 N   0  0  0  0  0  0  0  0  0  0  0  0
  146.1157  133.7068  153.5468 C   0  0  0  0  0  0  0  0  0  0  0  0
  145.3669  134.5253  152.7332 N   0  0  0  0  0  0  0  0  0  0  0  0
  144.3716  134.1148  151.7517 C   0  0  0  0  0  0  0  0  0  0  0  0
  144.7814  132.9099  150.8699 C   0  0  0  0  0  0  0  0  0  0  0  0
  143.8018  132.8270  149.6912 C   0  0  0  0  0  0  0  0  0  0  0  0
  143.8296  134.0083  148.9160 O   0  0  0  0  0  0  0  0  0  0  0  0
  146.2691  132.8343  150.4867 C   0  0  0  0  0  0  0  0  0  0  0  0
  146.5281  131.8136  151.4730 O   0  0  0  0  0  0  0  0  0  0  0  0
  145.1073  131.5821  151.5759 C   0  0  0  0  0  0  0  0  0  0  0  0
  148.8234  140.1841  156.5052 H   0  0  0  0  0  0  0  0  0  0  0  0
  148.4462  138.8320  157.5709 H   0  0  0  0  0  0  0  0  0  0  0  0
  147.3424  139.2831  156.2749 H   0  0  0  0  0  0  0  0  0  0  0  0
  149.1277  138.7285  154.6158 H   0  0  0  0  0  0  0  0  0  0  0  0
  151.0036  137.1513  155.3728 H   0  0  0  0  0  0  0  0  0  0  0  0
  150.3569  136.6128  157.6525 H   0  0  0  0  0  0  0  0  0  0  0  0
  150.3285  138.3124  158.1076 H   0  0  0  0  0  0  0  0  0  0  0  0
  151.8486  137.5192  157.7042 H   0  0  0  0  0  0  0  0  0  0  0  0
  153.6306  139.5352  154.0967 H   0  0  0  0  0  0  0  0  0  0  0  0
  152.4124  138.4063  153.4777 H   0  0  0  0  0  0  0  0  0  0  0  0
  153.4743  137.9269  154.8230 H   0  0  0  0  0  0  0  0  0  0  0  0
  148.0016  135.0457  156.2644 H   0  0  0  0  0  0  0  0  0  0  0  0
  147.5603  136.3853  157.3375 H   0  0  0  0  0  0  0  0  0  0  0  0
  149.2488  135.9516  157.0920 H   0  0  0  0  0  0  0  0  0  0  0  0
  145.6903  138.9927  152.6240 H   0  0  0  0  0  0  0  0  0  0  0  0
  146.0286  132.6305  153.5351 H   0  0  0  0  0  0  0  0  0  0  0  0
  143.4495  133.9034  152.2941 H   0  0  0  0  0  0  0  0  0  0  0  0
  144.1505  134.9798  151.1252 H   0  0  0  0  0  0  0  0  0  0  0  0
  144.0298  131.9755  149.0492 H   0  0  0  0  0  0  0  0  0  0  0  0
  142.7793  132.6852  150.0432 H   0  0  0  0  0  0  0  0  0  0  0  0
  143.0289  134.4873  149.0669 H   0  0  0  0  0  0  0  0  0  0  0  0
  146.4496  132.4676  149.4749 H   0  0  0  0  0  0  0  0  0  0  0  0
  146.8323  133.7497  150.6622 H   0  0  0  0  0  0  0  0  0  0  0  0
  144.7611  131.5111  152.6056 H   0  0  0  0  0  0  0  0  0  0  0  0
  144.8032  130.6990  151.0113 H   0  0  0  0  0  0  0  0  0  0  0  0
  1  2  1  0  0  0  0
  1 27  1  0  0  0  0
  1 28  1  0  0  0  0
  1 29  1  0  0  0  0
  2  3  1  0  0  0  0
  2  9  1  0  0  0  0
  2 30  1  0  0  0  0
  3  4  1  0  0  0  0
  3  5  1  0  0  0  0
  3 31  1  0  0  0  0
  4 32  1  0  0  0  0
  4 33  1  0  0  0  0
  4 34  1  0  0  0  0
  5  6  1  0  0  0  0
  5  7  2  0  0  0  0
  5  8  2  0  0  0  0
  6 35  1  0  0  0  0
  6 36  1  0  0  0  0
  6 37  1  0  0  0  0
  9 10  1  0  0  0  0
  9 11  1  0  0  0  0
 10 38  1  0  0  0  0
 10 39  1  0  0  0  0
 10 40  1  0  0  0  0
 11 16  1  0  0  0  0
 11 12  2  0  0  0  0
 12 13  1  0  0  0  0
 13 14  2  0  0  0  0
 13 41  1  0  0  0  0
 14 15  1  0  0  0  0
 15 19  1  0  0  0  0
 15 16  2  0  0  0  0
 16 17  1  0  0  0  0
 17 18  2  0  0  0  0
 18 19  1  0  0  0  0
 18 42  1  0  0  0  0
 19 20  1  0  0  0  0
 20 21  1  0  0  0  0
 20 43  1  0  0  0  0
 20 44  1  0  0  0  0
 21 26  1  0  0  0  0
 21 22  1  0  0  0  0
 21 24  1  0  0  0  0
 22 23  1  0  0  0  0
 22 45  1  0  0  0  0
 22 46  1  0  0  0  0
 23 47  1  0  0  0  0
 24 25  1  0  0  0  0
 24 48  1  0  0  0  0
 24 49  1  0  0  0  0
 25 26  1  0  0  0  0
 26 50  1  0  0  0  0
 26 51  1  0  0  0  0
M  END
> <s_m_source_file>
AV-unprocessed.smi

> <i_m_source_file_index>
156

> <i_lp_mmshare_version>
43012

> <i_f3d_flags>
0

> <s_epik_input>
W0NIM11TKD1PKSg9TylbQ0BASF0oW0NIM10pW0NAQEhdKFtDSDNdKU4oW0NIM10pYyhuW2NIXW4xKWMoYzEyKW5bY0hdbjJbQ0gyXUMzKFtDSDJdW09IXSlbQ0gyXU9bQ0gyXTM=

> <s_epik_cmdline>
J2VwaWtfcHl0aG9uJywgJy1waCcsICc3LjAnLCAnLXRuJywgJzgnLCAnLW1hJywgJzIwMCcsICctbWV0YWxfYmluZGluZycsICctaW1hZScsICc8aW5maWxlLm1hZT4nLCAnLW9tYWUnLCAnPG91dGZpbGUubWFlPic=

> <r_lp_tautomer_probability>
1

> <r_epik_Ionization_Penalty>
0.00107697

> <r_epik_Ionization_Penalty_Charging>
0

> <r_epik_Ionization_Penalty_Neutral>
0.00107697

> <r_epik_State_Penalty>
0.000614712

> <r_epik_Charging_Adjusted_Penalty>
0.000614712

> <i_epik_Tot_Q>
0

> <i_epik_Tot_abs_Q>
0

> <r_epik_Metal_State_Penalty>
-0

> <b_epik_Metal_Only>
0

> <s_lp_Force_Field>
OPLS_2005

> <r_lp_Energy>
29.1467

> <b_lp_Chiralities_Consistent>
1

> <s_lp_Variant>
AV-unprocessed.smi:156-2

> <Gold.Version>
5.8.1

> <Gold.Id.Protein>
6NUR|6NUR_protein|mol2

> <Gold.PLP.Fitness>
40.1128

> <Gold.PLP.PLP>
-29.9111

> <Gold.PLP.part.hbond>
-4.0000

> <Gold.PLP.part.metal>
0.0000

> <Gold.PLP.part.buried>
-6.1500

> <Gold.PLP.part.nonpolar>
-20.4035

> <Gold.PLP.part.repulsive>
1.5917

> <Gold.PLP.ligand.clash>
0.0000

> <Gold.PLP.ligand.torsion>
1.5439

> <Gold.PLP.Chemscore.Hbond>
3.0000

> <Gold.PLP.Chemscore.CHOScore>
0.9956

> <Gold.PLP.Chemscore.Metal>
0.0000

> <Gold.Chemscore.Hbonds>
donor molecule, donor type, donor heavy atom, donor atom, acceptor molecule, acceptor atom, score
      L1  H    23    47       P1 10186  0.89
      P1  H  7989  7998       L1     7  1.00
      P1  H  7997  8009       L1     8  1.00
      L1  C    13    41       P1 10175  1.00

> <Gold.PLP.Chemscore.Internal.Correction>
1.3026

> <Gold.Rescore>
     Score         DG    S(hbond)    S(metal)    S(lipo)     H(rot)  DE(clash)    DE(int)     intcor
     11.01     -13.99       2.90        0.00      60.31       3.21       0.22       2.77       ----

> <Gold.Chemscore.Fitness>
11.0098

> <Gold.Chemscore.DG>
-13.9923

> <Gold.Chemscore.ZeroCoef>
-5.4800

> <Gold.Chemscore.Hbond>
2.8975

> <Gold.Chemscore.Metal>
0.0000

> <Gold.Chemscore.Lipo>
60.3091

> <Gold.Chemscore.Internal_Hbond>
0.0000

> <Gold.Chemscore.DEClash>
0.2155

> <Gold.Chemscore.DEInternal>
2.7670

> <Gold.Chemscore.Rot>
3.2115

> <Gold.Chemscore.Internal.Correction>
   9.000000E+99

> <Gold.Chemscore.Hbonds>
donor molecule, donor type, donor heavy atom, donor atom, acceptor molecule, acceptor atom, score
      L1  H    23    47       P1 10186  0.81
      P1  H  7989  7998       L1     7  0.76
      P1  H  7997  8009       L1     8  0.95

> <Gold.Chemscore.Hbond.Weighted>
-9.6777

> <Gold.Chemscore.Metal.Weighted>
-0.0000

> <Gold.Chemscore.Lipo.Weighted>
-7.0562

> <Gold.Chemscore.Internal_Hbond.Weighted>
0.0000

> <Gold.Chemscore.DEClash.Weighted>
0.2155

> <Gold.Chemscore.DEInternal.Weighted>
2.7670

> <Gold.Chemscore.Rot.Weighted>
8.2215

> <Gold.Chemscore.Internal.Correction.Weighted>
   9.000000E+99

> <Gold.Protein.RotatedTorsions>
[ 6907 6896 6895 6894 ] final   67.70 input  -60.11 | X-H torsion
[ 7974 7965 7964 7962 ] final   -4.73 input  175.53 | X-H torsion
[ 8008 7997 7996 7995 ] final -179.35 input   59.86 | X-H torsion
[ 10167 10162 10161 10158 ] final  -68.15 input  -65.29 | X-H torsion
[ 10718 10713 10712 10709 ] final -128.54 input   66.30 | X-H torsion
[ 10763 10752 10751 10750 ] final   68.80 input  -60.55 | X-H torsion
[ 11005 11000 10999 10996 ] final   96.54 input  -57.11 | X-H torsion

> <Gold.Protein.ActiveResidues>
 VAL166  LYS551  ARG553  GLY616  TRP617  ASP618  TYR619  PRO620  LYS621  CYS622 
 ASP623  PHE694  ASN695  SER759  ASP760  ASP761  ALA762  ILE779  LEU786  VAL792 
 PHE793  MET794  SER795  GLU796  ALA797  LYS798  CYS799  TRP800  GLU811  SER814 

> <Gold.Protein.RotatedAtoms>
  152.4570  134.5269  159.9799 H   0  0  0  0  0  0  0  0  0  0  0  0  # atno 6907 bound_to 6896
  151.5327  133.3440  159.2929 H   0  0  0  0  0  0  0  0  0  0  0  0  # atno 6908 bound_to 6896
  150.8518  134.7876  159.7077 H   0  0  0  0  0  0  0  0  0  0  0  0  # atno 6909 bound_to 6896
  146.2366  140.1916  142.8332 H   0  0  0  0  0  0  0  0  0  0  0  0  # atno 7974 bound_to 7965
  156.0295  140.1279  157.0273 H   0  0  0  0  0  0  0  0  0  0  0  0  # atno 8008 bound_to 7997
  154.4344  140.1052  156.6149 H   0  0  0  0  0  0  0  0  0  0  0  0  # atno 8009 bound_to 7997
  155.5828  140.3468  155.4547 H   0  0  0  0  0  0  0  0  0  0  0  0  # atno 8010 bound_to 7997
  140.5529  143.2312  151.6876 H   0  0  0  0  0  0  0  0  0  0  0  0  # atno 10167 bound_to 10162
  156.1960  130.6826  151.0482 H   0  0  0  0  0  0  0  0  0  0  0  0  # atno 10718 bound_to 10713
  153.0254  135.5234  154.7191 H   0  0  0  0  0  0  0  0  0  0  0  0  # atno 10763 bound_to 10752
  154.6251  135.2893  155.0283 H   0  0  0  0  0  0  0  0  0  0  0  0  # atno 10764 bound_to 10752
  154.1256  135.6601  153.4964 H   0  0  0  0  0  0  0  0  0  0  0  0  # atno 10765 bound_to 10752
  139.8781  134.8956  156.4174 H   0  0  0  0  0  0  0  0  0  0  0  0  # atno 11005 bound_to 11000
  144.9853  140.8497  143.5372 LP  0  0  0  0  0  0  0  0  0  0  0  0  # atno 17320 bound_to 7965
  145.1914  139.2299  143.5240 LP  0  0  0  0  0  0  0  0  0  0  0  0  # atno 17321 bound_to 7965
  139.5035  144.3788  152.0397 LP  0  0  0  0  0  0  0  0  0  0  0  0  # atno 17342 bound_to 10162
  140.2907  144.3757  150.6089 LP  0  0  0  0  0  0  0  0  0  0  0  0  # atno 17343 bound_to 10162
  157.6958  131.0794  150.6973 LP  0  0  0  0  0  0  0  0  0  0  0  0  # atno 17370 bound_to 10713
  156.7030  130.4629  149.5568 LP  0  0  0  0  0  0  0  0  0  0  0  0  # atno 17371 bound_to 10713
  140.9158  133.7680  155.9846 LP  0  0  0  0  0  0  0  0  0  0  0  0  # atno 17394 bound_to 11000
  140.8496  134.2970  157.5281 LP  0  0  0  0  0  0  0  0  0  0  0  0  # atno 17395 bound_to 11000

$$$$
