AV-unprocessed.smi:1217|AV-procd|sdf|5103|dock2
  -GOLD-   22720 4153D 1   1.00000     0.00000
 Structure written by MMmdl.
 34 35  0  0  0  0  0  0  0  0  1 V2000
  151.1669  134.8809  156.3913 C   0  0  0  0  0  0  0  0  0  0  0  0
  150.0287  135.7738  155.8756 C   0  0  1  0  0  0  0  0  0  0  0  0
  149.3192  136.3397  157.0224 N   0  0  0  0  0  0  0  0  0  0  0  0
  148.9402  135.6702  158.1216 C   0  0  0  0  0  0  0  0  0  0  0  0
  149.1475  134.4686  158.2931 O   0  0  0  0  0  0  0  0  0  0  0  0
  148.3093  136.4812  158.9890 N   0  0  0  0  0  0  0  0  0  0  0  0
  147.7511  136.1519  160.2530 C   0  0  0  0  0  0  0  0  0  0  0  0
  147.4575  134.7820  160.4398 C   0  0  0  0  0  0  0  0  0  0  0  0
  146.9006  134.3527  161.6602 C   0  0  0  0  0  0  0  0  0  0  0  0
  146.6518  135.3053  162.6641 C   0  0  0  0  0  0  0  0  0  0  0  0
  146.9741  136.6488  162.3976 C   0  0  0  0  0  0  0  0  0  0  0  0
  147.5073  137.0625  161.2288 N   0  0  0  0  0  0  0  0  0  0  0  0
  150.5518  136.8965  154.9556 C   0  0  2  0  0  0  0  0  0  0  0  0
  151.6270  137.7936  155.5738 C   0  0  0  0  0  0  0  0  0  0  0  0
  151.4807  139.0553  154.7557 C   0  0  0  0  0  0  0  0  0  0  0  0
  149.9676  139.1360  154.5820 C   0  0  0  0  0  0  0  0  0  0  0  0
  149.4965  137.7908  154.6074 O   0  0  0  0  0  0  0  0  0  0  0  0
  151.6991  134.4048  155.5675 H   0  0  0  0  0  0  0  0  0  0  0  0
  150.7824  134.0872  157.0328 H   0  0  0  0  0  0  0  0  0  0  0  0
  151.8932  135.4542  156.9684 H   0  0  0  0  0  0  0  0  0  0  0  0
  149.3536  135.1410  155.2968 H   0  0  0  0  0  0  0  0  0  0  0  0
  149.1004  137.3237  156.9718 H   0  0  0  0  0  0  0  0  0  0  0  0
  148.2131  137.4463  158.7102 H   0  0  0  0  0  0  0  0  0  0  0  0
  147.6556  134.0629  159.6584 H   0  0  0  0  0  0  0  0  0  0  0  0
  146.6691  133.3103  161.8223 H   0  0  0  0  0  0  0  0  0  0  0  0
  146.2261  135.0146  163.6130 H   0  0  0  0  0  0  0  0  0  0  0  0
  146.7993  137.4116  163.1417 H   0  0  0  0  0  0  0  0  0  0  0  0
  150.9402  136.4703  154.0288 H   0  0  0  0  0  0  0  0  0  0  0  0
  151.4008  138.0018  156.6207 H   0  0  0  0  0  0  0  0  0  0  0  0
  152.6268  137.3621  155.5185 H   0  0  0  0  0  0  0  0  0  0  0  0
  151.9024  139.9357  155.2414 H   0  0  0  0  0  0  0  0  0  0  0  0
  151.9663  138.9313  153.7867 H   0  0  0  0  0  0  0  0  0  0  0  0
  149.5166  139.6746  155.4161 H   0  0  0  0  0  0  0  0  0  0  0  0
  149.6820  139.6409  153.6590 H   0  0  0  0  0  0  0  0  0  0  0  0
  1  2  1  0  0  0  0
  1 18  1  0  0  0  0
  1 19  1  0  0  0  0
  1 20  1  0  0  0  0
  2  3  1  0  0  0  0
  2 13  1  0  0  0  0
  2 21  1  0  0  0  0
  3  4  1  0  0  0  0
  3 22  1  0  0  0  0
  4  5  2  0  0  0  0
  4  6  1  0  0  0  0
  6  7  1  0  0  0  0
  6 23  1  0  0  0  0
  7 12  1  0  0  0  0
  7  8  2  0  0  0  0
  8  9  1  0  0  0  0
  8 24  1  0  0  0  0
  9 10  2  0  0  0  0
  9 25  1  0  0  0  0
 10 11  1  0  0  0  0
 10 26  1  0  0  0  0
 11 12  2  0  0  0  0
 11 27  1  0  0  0  0
 13 17  1  0  0  0  0
 13 14  1  0  0  0  0
 13 28  1  0  0  0  0
 14 15  1  0  0  0  0
 14 29  1  0  0  0  0
 14 30  1  0  0  0  0
 15 16  1  0  0  0  0
 15 31  1  0  0  0  0
 15 32  1  0  0  0  0
 16 17  1  0  0  0  0
 16 33  1  0  0  0  0
 16 34  1  0  0  0  0
M  END
> <s_m_source_file>
AV-unprocessed.smi

> <i_m_source_file_index>
1217

> <i_lp_mmshare_version>
43012

> <i_f3d_flags>
0

> <s_epik_input>
TzFbQ0gyXVtDSDJdW0NIMl1bQ0BIXTFbQ0BIXShbQ0gzXSlbTkhdQyg9TylbTkhdYzJbY0hdW2NIXVtjSF1bY0hdbjI=

> <s_epik_cmdline>
J2VwaWtfcHl0aG9uJywgJy1waCcsICc3LjAnLCAnLXRuJywgJzgnLCAnLW1hJywgJzIwMCcsICctbWV0YWxfYmluZGluZycsICctaW1hZScsICc8aW5maWxlLm1hZT4nLCAnLW9tYWUnLCAnPG91dGZpbGUubWFlPic=

> <r_lp_tautomer_probability>
1

> <r_epik_Ionization_Penalty>
4.51768e-05

> <r_epik_Ionization_Penalty_Charging>
0

> <r_epik_Ionization_Penalty_Neutral>
4.51768e-05

> <r_epik_State_Penalty>
-0

> <r_epik_Charging_Adjusted_Penalty>
0

> <i_epik_Tot_Q>
0

> <i_epik_Tot_abs_Q>
0

> <r_epik_Metal_State_Penalty>
-0

> <b_epik_Metal_Only>
0

> <s_lp_Force_Field>
OPLS_2005

> <r_lp_Energy>
19.7673

> <b_lp_Chiralities_Consistent>
1

> <s_lp_Variant>
AV-unprocessed.smi:1217-2

> <Gold.Version>
5.8.1

> <Gold.Id.Protein>
6NUR|6NUR_protein|mol2

> <Gold.PLP.Fitness>
38.7563

> <Gold.PLP.PLP>
-31.0201

> <Gold.PLP.part.hbond>
-3.0000

> <Gold.PLP.part.metal>
0.0000

> <Gold.PLP.part.buried>
-3.0591

> <Gold.PLP.part.nonpolar>
-25.1797

> <Gold.PLP.part.repulsive>
0.3844

> <Gold.PLP.ligand.clash>
0.0000

> <Gold.PLP.ligand.torsion>
0.2923

> <Gold.PLP.Chemscore.Hbond>
2.7680

> <Gold.PLP.Chemscore.CHOScore>
0.0000

> <Gold.PLP.Chemscore.Metal>
0.0000

> <Gold.Chemscore.Hbonds>
donor molecule, donor type, donor heavy atom, donor atom, acceptor molecule, acceptor atom, score
      P1  H  6896  6909       L1     5  1.00
      P1  H  6931  6943       L1    12  0.92
      P1  H  6934  6947       L1    12  0.96

> <Gold.PLP.Chemscore.Internal.Correction>
0.0168

> <Gold.Rescore>
     Score         DG    S(hbond)    S(metal)    S(lipo)     H(rot)  DE(clash)    DE(int)     intcor
     14.49     -17.55       2.19        0.00      67.89       1.25       0.01       3.05       ----

> <Gold.Chemscore.Fitness>
14.4863

> <Gold.Chemscore.DG>
-17.5466

> <Gold.Chemscore.ZeroCoef>
-5.4800

> <Gold.Chemscore.Hbond>
2.1933

> <Gold.Chemscore.Metal>
0.0000

> <Gold.Chemscore.Lipo>
67.8861

> <Gold.Chemscore.Internal_Hbond>
0.0000

> <Gold.Chemscore.DEClash>
0.0147

> <Gold.Chemscore.DEInternal>
3.0457

> <Gold.Chemscore.Rot>
1.2506

> <Gold.Chemscore.Internal.Correction>
   9.000000E+99

> <Gold.Chemscore.Hbonds>
donor molecule, donor type, donor heavy atom, donor atom, acceptor molecule, acceptor atom, score
      P1  H  6896  6909       L1     5  0.93
      P1  H  6931  6943       L1    12  0.25
      P1  H  6934  6947       L1    12  0.69

> <Gold.Chemscore.Hbond.Weighted>
-7.3256

> <Gold.Chemscore.Metal.Weighted>
-0.0000

> <Gold.Chemscore.Lipo.Weighted>
-7.9427

> <Gold.Chemscore.Internal_Hbond.Weighted>
0.0000

> <Gold.Chemscore.DEClash.Weighted>
0.0147

> <Gold.Chemscore.DEInternal.Weighted>
3.0457

> <Gold.Chemscore.Rot.Weighted>
3.2016

> <Gold.Chemscore.Internal.Correction.Weighted>
   9.000000E+99

> <Gold.Protein.RotatedTorsions>
[ 6907 6896 6895 6894 ] final   11.46 input  -60.11 | X-H torsion
[ 7974 7965 7964 7962 ] final -173.67 input  175.53 | X-H torsion
[ 8008 7997 7996 7995 ] final   39.00 input   59.86 | X-H torsion
[ 10167 10162 10161 10158 ] final -114.34 input  -65.29 | X-H torsion
[ 10718 10713 10712 10709 ] final   53.20 input   66.30 | X-H torsion
[ 10763 10752 10751 10750 ] final   51.19 input  -60.55 | X-H torsion
[ 11005 11000 10999 10996 ] final  -12.49 input  -57.11 | X-H torsion

> <Gold.Protein.ActiveResidues>
 VAL166  LYS551  ARG553  GLY616  TRP617  ASP618  TYR619  PRO620  LYS621  CYS622 
 ASP623  PHE694  ASN695  SER759  ASP760  ASP761  ALA762  ILE779  LEU786  VAL792 
 PHE793  MET794  SER795  GLU796  ALA797  LYS798  CYS799  TRP800  GLU811  SER814 

> <Gold.Protein.RotatedAtoms>
  151.7547  135.0824  160.0336 H   0  0  0  0  0  0  0  0  0  0  0  0  # atno 6907 bound_to 6896
  152.3393  133.6044  159.5873 H   0  0  0  0  0  0  0  0  0  0  0  0  # atno 6908 bound_to 6896
  150.7469  133.9663  159.3573 H   0  0  0  0  0  0  0  0  0  0  0  0  # atno 6909 bound_to 6896
  144.7136  140.1586  143.6378 H   0  0  0  0  0  0  0  0  0  0  0  0  # atno 7974 bound_to 7965
  155.2294  140.3337  155.4305 H   0  0  0  0  0  0  0  0  0  0  0  0  # atno 8008 bound_to 7997
  156.2301  140.1847  156.7310 H   0  0  0  0  0  0  0  0  0  0  0  0  # atno 8009 bound_to 7997
  154.5964  140.0630  156.9294 H   0  0  0  0  0  0  0  0  0  0  0  0  # atno 8010 bound_to 7997
  140.1020  143.4604  152.1806 H   0  0  0  0  0  0  0  0  0  0  0  0  # atno 10167 bound_to 10162
  157.5145  130.8523  149.8478 H   0  0  0  0  0  0  0  0  0  0  0  0  # atno 10718 bound_to 10713
  152.9785  135.5854  154.4375 H   0  0  0  0  0  0  0  0  0  0  0  0  # atno 10763 bound_to 10752
  154.3980  135.2768  155.2116 H   0  0  0  0  0  0  0  0  0  0  0  0  # atno 10764 bound_to 10752
  154.3959  135.6114  153.5923 H   0  0  0  0  0  0  0  0  0  0  0  0  # atno 10765 bound_to 10752
  140.7663  133.8475  155.9167 H   0  0  0  0  0  0  0  0  0  0  0  0  # atno 11005 bound_to 11000
  145.9051  139.2453  143.1471 LP  0  0  0  0  0  0  0  0  0  0  0  0  # atno 17320 bound_to 7965
  145.9772  140.8712  143.0132 LP  0  0  0  0  0  0  0  0  0  0  0  0  # atno 17321 bound_to 7965
  139.5666  144.7439  151.4005 LP  0  0  0  0  0  0  0  0  0  0  0  0  # atno 17342 bound_to 10162
  140.6973  143.7719  150.7346 LP  0  0  0  0  0  0  0  0  0  0  0  0  # atno 17343 bound_to 10162
  156.0311  130.3764  150.1685 LP  0  0  0  0  0  0  0  0  0  0  0  0  # atno 17370 bound_to 10713
  156.9874  130.9883  151.3423 LP  0  0  0  0  0  0  0  0  0  0  0  0  # atno 17371 bound_to 10713
  140.9616  134.1648  157.4649 LP  0  0  0  0  0  0  0  0  0  0  0  0  # atno 17394 bound_to 11000
  139.8763  134.9947  156.5705 LP  0  0  0  0  0  0  0  0  0  0  0  0  # atno 17395 bound_to 11000

$$$$
