AV-unprocessed.smi:350|AV-procd|sdf|2398|dock1
  -GOLD-   2262022333D 1   1.00000     0.00000
 Structure written by MMmdl.
 35 36  0  0  0  0  0  0  0  0  1 V2000
  151.5091  144.7124  160.5428 C   0  0  0  0  0  0  0  0  0  0  0  0
  151.8964  143.4275  159.8619 C   0  0  0  0  0  0  0  0  0  0  0  0
  151.5175  143.2833  158.6347 N   0  0  0  0  0  0  0  0  0  0  0  0
  151.8191  142.1415  157.9174 N   0  0  0  0  0  0  0  0  0  0  0  0
  151.2923  142.1408  156.5464 C   0  0  0  0  0  0  0  0  0  0  0  0
  150.3354  140.9553  156.2925 C   0  0  2  0  0  0  0  0  0  0  0  0
  150.8794  140.1294  155.2819 O   0  0  0  0  0  0  0  0  0  0  0  0
  148.9478  141.4465  155.9081 C   0  0  0  0  0  0  0  0  0  0  0  0
  148.5864  141.5464  154.5472 C   0  0  0  0  0  0  0  0  0  0  0  0
  147.3015  141.9958  154.1846 C   0  0  0  0  0  0  0  0  0  0  0  0
  146.3695  142.3461  155.1807 C   0  0  0  0  0  0  0  0  0  0  0  0
  144.7960  142.8968  154.7362 Cl  0  0  0  0  0  0  0  0  0  0  0  0
  146.7229  142.2449  156.5402 C   0  0  0  0  0  0  0  0  0  0  0  0
  148.0074  141.7954  156.9029 C   0  0  0  0  0  0  0  0  0  0  0  0
  152.5261  141.0824  158.4053 C   0  0  0  0  0  0  0  0  0  0  0  0
  152.7759  140.0823  157.7310 O   0  0  0  0  0  0  0  0  0  0  0  0
  152.9514  141.2523  159.7968 C   0  0  0  0  0  0  0  0  0  0  0  0
  153.6928  140.1644  160.3486 C   0  0  0  0  0  0  0  0  0  0  0  0
  154.2763  139.2753  160.8060 N   0  0  0  0  0  0  0  0  0  0  0  0
  152.6591  142.3671  160.5122 C   0  0  0  0  0  0  0  0  0  0  0  0
  153.0764  142.5917  161.9593 C   0  0  0  0  0  0  0  0  0  0  0  0
  152.3905  145.2363  160.9134 H   0  0  0  0  0  0  0  0  0  0  0  0
  150.8504  144.5172  161.3889 H   0  0  0  0  0  0  0  0  0  0  0  0
  150.9854  145.3899  159.8664 H   0  0  0  0  0  0  0  0  0  0  0  0
  150.7403  143.0735  156.4130 H   0  0  0  0  0  0  0  0  0  0  0  0
  152.0829  142.1770  155.7943 H   0  0  0  0  0  0  0  0  0  0  0  0
  150.2464  140.3530  157.1977 H   0  0  0  0  0  0  0  0  0  0  0  0
  150.6971  139.2283  155.5006 H   0  0  0  0  0  0  0  0  0  0  0  0
  149.2925  141.2780  153.7752 H   0  0  0  0  0  0  0  0  0  0  0  0
  147.0323  142.0709  153.1412 H   0  0  0  0  0  0  0  0  0  0  0  0
  146.0099  142.5109  157.3065 H   0  0  0  0  0  0  0  0  0  0  0  0
  148.2684  141.7181  157.9484 H   0  0  0  0  0  0  0  0  0  0  0  0
  153.6115  141.7371  162.3724 H   0  0  0  0  0  0  0  0  0  0  0  0
  152.2024  142.7639  162.5884 H   0  0  0  0  0  0  0  0  0  0  0  0
  153.7332  143.4587  162.0375 H   0  0  0  0  0  0  0  0  0  0  0  0
  1  2  1  0  0  0  0
  1 22  1  0  0  0  0
  1 23  1  0  0  0  0
  1 24  1  0  0  0  0
  2 20  1  0  0  0  0
  2  3  2  0  0  0  0
  3  4  1  0  0  0  0
  4  5  1  0  0  0  0
  4 15  1  0  0  0  0
  5  6  1  0  0  0  0
  5 25  1  0  0  0  0
  5 26  1  0  0  0  0
  6  7  1  0  0  0  0
  6  8  1  0  0  0  0
  6 27  1  0  0  0  0
  7 28  1  0  0  0  0
  8 14  1  0  0  0  0
  8  9  2  0  0  0  0
  9 10  1  0  0  0  0
  9 29  1  0  0  0  0
 10 11  2  0  0  0  0
 10 30  1  0  0  0  0
 11 12  1  0  0  0  0
 11 13  1  0  0  0  0
 13 14  2  0  0  0  0
 13 31  1  0  0  0  0
 14 32  1  0  0  0  0
 15 16  2  0  0  0  0
 15 17  1  0  0  0  0
 17 18  1  0  0  0  0
 17 20  2  0  0  0  0
 18 19  3  0  0  0  0
 20 21  1  0  0  0  0
 21 33  1  0  0  0  0
 21 34  1  0  0  0  0
 21 35  1  0  0  0  0
M  END
> <s_m_source_file>
AV-unprocessed.smi

> <i_m_source_file_index>
350

> <i_lp_mmshare_version>
43012

> <i_f3d_flags>
0

> <s_epik_input>
TiNDYyhjMVtDSDNdKWMoPU8pbihuYzFbQ0gzXSlbQ0gyXVtDQEhdKFtPSF0pYzJbY0hdW2NIXWMoQ2wpW2NIXVtjSF0y

> <s_epik_cmdline>
J2VwaWtfcHl0aG9uJywgJy1waCcsICc3LjAnLCAnLXRuJywgJzgnLCAnLW1hJywgJzIwMCcsICctbWV0YWxfYmluZGluZycsICctaW1hZScsICc8aW5maWxlLm1hZT4nLCAnLW9tYWUnLCAnPG91dGZpbGUubWFlPic=

> <r_lp_tautomer_probability>
1

> <r_epik_Ionization_Penalty>
1.17315e-07

> <r_epik_Ionization_Penalty_Charging>
1.40848e-10

> <r_epik_Ionization_Penalty_Neutral>
1.17174e-07

> <r_epik_State_Penalty>
-0

> <r_epik_Charging_Adjusted_Penalty>
1.40848e-10

> <i_epik_Tot_Q>
0

> <i_epik_Tot_abs_Q>
0

> <r_epik_Metal_State_Penalty>
-0

> <b_epik_Metal_Only>
0

> <s_lp_Force_Field>
OPLS_2005

> <r_lp_Energy>
28.0073

> <b_lp_Chiralities_Consistent>
1

> <s_lp_Variant>
AV-unprocessed.smi:350-1

> <Gold.Version>
5.8.1

> <Gold.Id.Protein>
6NUR|6NUR_protein|mol2

> <Gold.PLP.Fitness>
46.9396

> <Gold.PLP.PLP>
-43.8316

> <Gold.PLP.part.hbond>
-2.0000

> <Gold.PLP.part.metal>
0.0000

> <Gold.PLP.part.buried>
-6.6122

> <Gold.PLP.part.nonpolar>
-34.7693

> <Gold.PLP.part.repulsive>
0.0551

> <Gold.PLP.ligand.clash>
0.0000

> <Gold.PLP.ligand.torsion>
1.4512

> <Gold.PLP.Chemscore.Hbond>
2.0000

> <Gold.PLP.Chemscore.CHOScore>
0.0000

> <Gold.PLP.Chemscore.Metal>
0.0000

> <Gold.Chemscore.Hbonds>
donor molecule, donor type, donor heavy atom, donor atom, acceptor molecule, acceptor atom, score
      P1  H  7989  7998       L1     7  0.89
      P1  H  7997  8010       L1    16  1.00

> <Gold.PLP.Chemscore.Internal.Correction>
0.0103

> <Gold.Rescore>
     Score         DG    S(hbond)    S(metal)    S(lipo)     H(rot)  DE(clash)    DE(int)     intcor
     16.26     -19.08       1.89        0.00     103.97       1.90       0.28       2.53       ----

> <Gold.Chemscore.Fitness>
16.2632

> <Gold.Chemscore.DG>
-19.0754

> <Gold.Chemscore.ZeroCoef>
-5.4800

> <Gold.Chemscore.Hbond>
1.8885

> <Gold.Chemscore.Metal>
0.0000

> <Gold.Chemscore.Lipo>
103.9655

> <Gold.Chemscore.Internal_Hbond>
0.0000

> <Gold.Chemscore.DEClash>
0.2778

> <Gold.Chemscore.DEInternal>
2.5344

> <Gold.Chemscore.Rot>
1.9047

> <Gold.Chemscore.Internal.Correction>
   9.000000E+99

> <Gold.Chemscore.Hbonds>
donor molecule, donor type, donor heavy atom, donor atom, acceptor molecule, acceptor atom, score
      P1  H  7989  7998       L1     7  0.86
      P1  H  7997  8010       L1    16  0.89

> <Gold.Chemscore.Hbond.Weighted>
-6.3075

> <Gold.Chemscore.Metal.Weighted>
-0.0000

> <Gold.Chemscore.Lipo.Weighted>
-12.1640

> <Gold.Chemscore.Internal_Hbond.Weighted>
0.0000

> <Gold.Chemscore.DEClash.Weighted>
0.2778

> <Gold.Chemscore.DEInternal.Weighted>
2.5344

> <Gold.Chemscore.Rot.Weighted>
4.8760

> <Gold.Chemscore.Internal.Correction.Weighted>
   9.000000E+99

> <Gold.Protein.RotatedTorsions>
[ 6907 6896 6895 6894 ] final  -54.35 input  -60.11 | X-H torsion
[ 7974 7965 7964 7962 ] final -173.17 input  175.53 | X-H torsion
[ 8008 7997 7996 7995 ] final   58.04 input   59.86 | X-H torsion
[ 10167 10162 10161 10158 ] final  165.04 input  -65.29 | X-H torsion
[ 10718 10713 10712 10709 ] final  110.23 input   66.30 | X-H torsion
[ 10763 10752 10751 10750 ] final  150.12 input  -60.55 | X-H torsion
[ 11005 11000 10999 10996 ] final   72.21 input  -57.11 | X-H torsion

> <Gold.Protein.ActiveResidues>
 VAL166  LYS551  ARG553  GLY616  TRP617  ASP618  TYR619  PRO620  LYS621  CYS622 
 ASP623  PHE694  ASN695  SER759  ASP760  ASP761  ALA762  ILE779  LEU786  VAL792 
 PHE793  MET794  SER795  GLU796  ALA797  LYS798  CYS799  TRP800  GLU811  SER814 

> <Gold.Protein.RotatedAtoms>
  150.8345  134.7613  159.6881 H   0  0  0  0  0  0  0  0  0  0  0  0  # atno 6907 bound_to 6896
  152.4444  134.5521  159.9879 H   0  0  0  0  0  0  0  0  0  0  0  0  # atno 6908 bound_to 6896
  151.5674  133.3357  159.3019 H   0  0  0  0  0  0  0  0  0  0  0  0  # atno 6909 bound_to 6896
  144.7140  140.1662  143.6371 H   0  0  0  0  0  0  0  0  0  0  0  0  # atno 7974 bound_to 7965
  155.5435  140.3485  155.4452 H   0  0  0  0  0  0  0  0  0  0  0  0  # atno 8008 bound_to 7997
  156.0634  140.1345  156.9941 H   0  0  0  0  0  0  0  0  0  0  0  0  # atno 8009 bound_to 7997
  154.4491  140.0980  156.6536 H   0  0  0  0  0  0  0  0  0  0  0  0  # atno 8010 bound_to 7997
  139.4899  144.4174  151.9228 H   0  0  0  0  0  0  0  0  0  0  0  0  # atno 10167 bound_to 10162
  157.6504  131.0929  150.6570 H   0  0  0  0  0  0  0  0  0  0  0  0  # atno 10718 bound_to 10713
  154.0823  135.2858  155.3288 H   0  0  0  0  0  0  0  0  0  0  0  0  # atno 10763 bound_to 10752
  154.6675  135.5312  153.8099 H   0  0  0  0  0  0  0  0  0  0  0  0  # atno 10764 bound_to 10752
  153.0444  135.6549  154.0998 H   0  0  0  0  0  0  0  0  0  0  0  0  # atno 10765 bound_to 10752
  139.9503  134.7239  156.0879 H   0  0  0  0  0  0  0  0  0  0  0  0  # atno 11005 bound_to 11000
  145.8986  139.2417  143.1507 LP  0  0  0  0  0  0  0  0  0  0  0  0  # atno 17320 bound_to 7965
  145.9833  140.8664  143.0103 LP  0  0  0  0  0  0  0  0  0  0  0  0  # atno 17321 bound_to 7965
  140.3617  144.2965  150.5932 LP  0  0  0  0  0  0  0  0  0  0  0  0  # atno 17342 bound_to 10162
  140.5397  143.2226  151.8104 LP  0  0  0  0  0  0  0  0  0  0  0  0  # atno 17343 bound_to 10162
  156.6882  130.4587  149.5607 LP  0  0  0  0  0  0  0  0  0  0  0  0  # atno 17370 bound_to 10713
  156.1880  130.6542  151.1029 LP  0  0  0  0  0  0  0  0  0  0  0  0  # atno 17371 bound_to 10713
  141.1164  133.6626  156.3104 LP  0  0  0  0  0  0  0  0  0  0  0  0  # atno 17394 bound_to 11000
  140.5735  134.5816  157.5463 LP  0  0  0  0  0  0  0  0  0  0  0  0  # atno 17395 bound_to 11000

$$$$
