AV-unprocessed.smi:630|AV-procd|sdf|3118|dock7
  -GOLD-   22720 0 43D 1   1.00000     0.00000
 Structure written by MMmdl.
 37 38  0  0  0  0  0  0  0  0  1 V2000
  151.0922  137.7613  153.7919 N   0  0  0  0  0  0  0  0  0  0  0  0
  151.3825  137.4706  155.0629 C   0  0  0  0  0  0  0  0  0  0  0  0
  151.2957  136.3253  155.5038 O   0  0  0  0  0  0  0  0  0  0  0  0
  151.8185  138.6374  155.9708 C   0  0  1  0  0  0  0  0  0  0  0  0
  150.9776  139.9045  155.6738 C   0  0  0  0  0  0  0  0  0  0  0  0
  151.6868  141.2054  156.0895 C   0  0  0  0  0  0  0  0  0  0  0  0
  151.4861  141.6433  157.5516 C   0  0  0  0  0  0  0  0  0  0  0  0
  151.4135  140.5313  158.6133 C   0  0  0  0  0  0  0  0  0  0  0  0
  152.3697  139.3401  158.4041 C   0  0  0  0  0  0  0  0  0  0  0  0
  151.8335  138.2289  157.4687 C   0  0  1  0  0  0  0  0  0  0  0  0
  150.5270  137.7369  157.9180 N   0  0  0  0  0  0  0  0  0  0  0  0
  150.2552  137.2280  159.1281 C   0  0  0  0  0  0  0  0  0  0  0  0
  151.0897  137.1293  160.0282 O   0  0  0  0  0  0  0  0  0  0  0  0
  148.9682  136.8493  159.2144 N   0  0  0  0  0  0  0  0  0  0  0  0
  148.2967  136.2639  160.3190 C   0  0  0  0  0  0  0  0  0  0  0  0
  147.8876  136.9398  161.3991 N   0  0  0  0  0  0  0  0  0  0  0  0
  147.2585  136.1088  162.3296 C   0  0  0  0  0  0  0  0  0  0  0  0
  147.1956  134.7945  161.9382 C   0  0  0  0  0  0  0  0  0  0  0  0
  147.9292  134.5461  160.3764 S   0  0  0  0  0  0  0  0  0  0  0  0
  150.8076  137.0245  153.1631 H   0  0  0  0  0  0  0  0  0  0  0  0
  151.1627  138.7131  153.4621 H   0  0  0  0  0  0  0  0  0  0  0  0
  152.8493  138.8619  155.6903 H   0  0  0  0  0  0  0  0  0  0  0  0
  150.8023  139.9651  154.5982 H   0  0  0  0  0  0  0  0  0  0  0  0
  149.9875  139.8437  156.1275 H   0  0  0  0  0  0  0  0  0  0  0  0
  152.7534  141.1239  155.8777 H   0  0  0  0  0  0  0  0  0  0  0  0
  151.3356  142.0167  155.4507 H   0  0  0  0  0  0  0  0  0  0  0  0
  152.2935  142.3292  157.8108 H   0  0  0  0  0  0  0  0  0  0  0  0
  150.5720  142.2338  157.6223 H   0  0  0  0  0  0  0  0  0  0  0  0
  151.6340  140.9859  159.5796 H   0  0  0  0  0  0  0  0  0  0  0  0
  150.3845  140.1840  158.7016 H   0  0  0  0  0  0  0  0  0  0  0  0
  153.3422  139.6932  158.0593 H   0  0  0  0  0  0  0  0  0  0  0  0
  152.5592  138.8908  159.3798 H   0  0  0  0  0  0  0  0  0  0  0  0
  152.5353  137.3956  157.5455 H   0  0  0  0  0  0  0  0  0  0  0  0
  149.7781  137.7710  157.2418 H   0  0  0  0  0  0  0  0  0  0  0  0
  148.4025  136.9940  158.3914 H   0  0  0  0  0  0  0  0  0  0  0  0
  146.8831  136.5374  163.2470 H   0  0  0  0  0  0  0  0  0  0  0  0
  146.7638  133.9613  162.4725 H   0  0  0  0  0  0  0  0  0  0  0  0
  1  2  1  0  0  0  0
  1 20  1  0  0  0  0
  1 21  1  0  0  0  0
  2  3  2  0  0  0  0
  2  4  1  0  0  0  0
  4 10  1  0  0  0  0
  4  5  1  0  0  0  0
  4 22  1  0  0  0  0
  5  6  1  0  0  0  0
  5 23  1  0  0  0  0
  5 24  1  0  0  0  0
  6  7  1  0  0  0  0
  6 25  1  0  0  0  0
  6 26  1  0  0  0  0
  7  8  1  0  0  0  0
  7 27  1  0  0  0  0
  7 28  1  0  0  0  0
  8  9  1  0  0  0  0
  8 29  1  0  0  0  0
  8 30  1  0  0  0  0
  9 10  1  0  0  0  0
  9 31  1  0  0  0  0
  9 32  1  0  0  0  0
 10 11  1  0  0  0  0
 10 33  1  0  0  0  0
 11 12  1  0  0  0  0
 11 34  1  0  0  0  0
 12 13  2  0  0  0  0
 12 14  1  0  0  0  0
 14 15  1  0  0  0  0
 14 35  1  0  0  0  0
 15 19  1  0  0  0  0
 15 16  2  0  0  0  0
 16 17  1  0  0  0  0
 17 18  2  0  0  0  0
 17 36  1  0  0  0  0
 18 19  1  0  0  0  0
 18 37  1  0  0  0  0
M  END
> <s_m_source_file>
AV-unprocessed.smi

> <i_m_source_file_index>
630

> <i_lp_mmshare_version>
43012

> <i_f3d_flags>
0

> <s_epik_input>
W05IMl1DKD1PKVtDQEBIXTFbQ0gyXVtDSDJdW0NIMl1bQ0gyXVtDSDJdW0NASF0xW05IXUMoPU8pW05IXWMybltjSF1bY0hdczI=

> <s_epik_cmdline>
J2VwaWtfcHl0aG9uJywgJy1waCcsICc3LjAnLCAnLXRuJywgJzgnLCAnLW1hJywgJzIwMCcsICctbWV0YWxfYmluZGluZycsICctaW1hZScsICc8aW5maWxlLm1hZT4nLCAnLW9tYWUnLCAnPG91dGZpbGUubWFlPic=

> <r_lp_tautomer_probability>
0.999

> <r_epik_Ionization_Penalty>
0.000342689

> <r_epik_Ionization_Penalty_Charging>
0

> <r_epik_Ionization_Penalty_Neutral>
0.000342689

> <r_epik_State_Penalty>
0.000177984

> <r_epik_Charging_Adjusted_Penalty>
0.000177984

> <i_epik_Tot_Q>
0

> <i_epik_Tot_abs_Q>
0

> <r_epik_Metal_State_Penalty>
0.00743087

> <b_epik_Metal_Only>
0

> <s_lp_Force_Field>
OPLS_2005

> <r_lp_Energy>
14.0273

> <b_lp_Chiralities_Consistent>
1

> <s_lp_Variant>
AV-unprocessed.smi:630-2

> <Gold.Version>
5.8.1

> <Gold.Id.Protein>
6NUR|6NUR_protein|mol2

> <Gold.PLP.Fitness>
41.6964

> <Gold.PLP.PLP>
-32.0633

> <Gold.PLP.part.hbond>
-5.6323

> <Gold.PLP.part.metal>
0.0000

> <Gold.PLP.part.buried>
-4.6547

> <Gold.PLP.part.nonpolar>
-21.7676

> <Gold.PLP.part.repulsive>
0.4578

> <Gold.PLP.ligand.clash>
0.0000

> <Gold.PLP.ligand.torsion>
1.1288

> <Gold.PLP.Chemscore.Hbond>
3.9295

> <Gold.PLP.Chemscore.CHOScore>
0.0000

> <Gold.PLP.Chemscore.Metal>
0.0000

> <Gold.Chemscore.Hbonds>
donor molecule, donor type, donor heavy atom, donor atom, acceptor molecule, acceptor atom, score
      L1  H     1    20       P1  7949  0.72
      P1  H  6896  6908       L1    13  1.00
      P1  H  6931  6943       L1    16  1.00
      P1  H  6934  6947       L1    16  0.36
      P1  H 10752 10765       L1     3  0.90

> <Gold.PLP.Chemscore.Internal.Correction>
0.1023

> <Gold.Rescore>
     Score         DG    S(hbond)    S(metal)    S(lipo)     H(rot)  DE(clash)    DE(int)     intcor
     20.88     -22.09       3.86        0.00      64.94       1.52       0.24       0.97       ----

> <Gold.Chemscore.Fitness>
20.8769

> <Gold.Chemscore.DG>
-22.0870

> <Gold.Chemscore.ZeroCoef>
-5.4800

> <Gold.Chemscore.Hbond>
3.8610

> <Gold.Chemscore.Metal>
0.0000

> <Gold.Chemscore.Lipo>
64.9429

> <Gold.Chemscore.Internal_Hbond>
0.0000

> <Gold.Chemscore.DEClash>
0.2408

> <Gold.Chemscore.DEInternal>
0.9692

> <Gold.Chemscore.Rot>
1.5184

> <Gold.Chemscore.Internal.Correction>
   9.000000E+99

> <Gold.Chemscore.Hbonds>
donor molecule, donor type, donor heavy atom, donor atom, acceptor molecule, acceptor atom, score
      L1  H     1    20       P1  7949  0.08
      P1  H  6896  6908       L1    13  0.25
      P1  H  6931  6943       L1    16  0.87
      P1  H  6934  6947       L1    16  0.32
      P1  H 10752 10765       L1     3  0.17

> <Gold.Chemscore.Hbond.Weighted>
-12.8958

> <Gold.Chemscore.Metal.Weighted>
-0.0000

> <Gold.Chemscore.Lipo.Weighted>
-7.5983

> <Gold.Chemscore.Internal_Hbond.Weighted>
0.0000

> <Gold.Chemscore.DEClash.Weighted>
0.2408

> <Gold.Chemscore.DEInternal.Weighted>
0.9692

> <Gold.Chemscore.Rot.Weighted>
3.8872

> <Gold.Chemscore.Internal.Correction.Weighted>
   9.000000E+99

> <Gold.Protein.RotatedTorsions>
[ 6907 6896 6895 6894 ] final -128.48 input  -60.11 | X-H torsion
[ 7974 7965 7964 7962 ] final   75.90 input  175.53 | X-H torsion
[ 8008 7997 7996 7995 ] final  -21.84 input   59.86 | X-H torsion
[ 10167 10162 10161 10158 ] final  -80.23 input  -65.29 | X-H torsion
[ 10718 10713 10712 10709 ] final  -18.66 input   66.30 | X-H torsion
[ 10763 10752 10751 10750 ] final -177.39 input  -60.55 | X-H torsion
[ 11005 11000 10999 10996 ] final  156.83 input  -57.11 | X-H torsion

> <Gold.Protein.ActiveResidues>
 VAL166  LYS551  ARG553  GLY616  TRP617  ASP618  TYR619  PRO620  LYS621  CYS622 
 ASP623  PHE694  ASN695  SER759  ASP760  ASP761  ALA762  ILE779  LEU786  VAL792 
 PHE793  MET794  SER795  GLU796  ALA797  LYS798  CYS799  TRP800  GLU811  SER814 

> <Gold.Protein.RotatedAtoms>
  150.9183  133.6912  159.2837 H   0  0  0  0  0  0  0  0  0  0  0  0  # atno 6907 bound_to 6896
  151.4375  135.1015  159.9670 H   0  0  0  0  0  0  0  0  0  0  0  0  # atno 6908 bound_to 6896
  152.4966  133.8599  159.7300 H   0  0  0  0  0  0  0  0  0  0  0  0  # atno 6909 bound_to 6896
  145.7097  139.2610  143.1657 H   0  0  0  0  0  0  0  0  0  0  0  0  # atno 7974 bound_to 7965
  154.4681  140.2024  156.0066 H   0  0  0  0  0  0  0  0  0  0  0  0  # atno 8008 bound_to 7997
  156.0962  140.3250  155.7852 H   0  0  0  0  0  0  0  0  0  0  0  0  # atno 8009 bound_to 7997
  155.4873  140.0543  157.2949 H   0  0  0  0  0  0  0  0  0  0  0  0  # atno 8010 bound_to 7997
  140.4522  143.2479  151.8472 H   0  0  0  0  0  0  0  0  0  0  0  0  # atno 10167 bound_to 10162
  156.5565  130.4714  149.6427 H   0  0  0  0  0  0  0  0  0  0  0  0  # atno 10718 bound_to 10713
  154.5607  135.2820  155.0922 H   0  0  0  0  0  0  0  0  0  0  0  0  # atno 10763 bound_to 10752
  154.2332  135.6370  153.5186 H   0  0  0  0  0  0  0  0  0  0  0  0  # atno 10764 bound_to 10752
  153.0028  135.5542  154.6200 H   0  0  0  0  0  0  0  0  0  0  0  0  # atno 10765 bound_to 10752
  140.1712  134.8542  157.2692 H   0  0  0  0  0  0  0  0  0  0  0  0  # atno 11005 bound_to 11000
  146.0723  140.7855  142.9682 LP  0  0  0  0  0  0  0  0  0  0  0  0  # atno 17320 bound_to 7965
  144.6945  140.3361  143.7207 LP  0  0  0  0  0  0  0  0  0  0  0  0  # atno 17321 bound_to 7965
  139.4798  144.5107  151.8937 LP  0  0  0  0  0  0  0  0  0  0  0  0  # atno 17342 bound_to 10162
  140.4194  144.2264  150.5887 LP  0  0  0  0  0  0  0  0  0  0  0  0  # atno 17343 bound_to 10162
  156.2838  130.7085  151.1916 LP  0  0  0  0  0  0  0  0  0  0  0  0  # atno 17370 bound_to 10713
  157.7377  131.0549  150.5338 LP  0  0  0  0  0  0  0  0  0  0  0  0  # atno 17371 bound_to 10713
  140.2375  134.3835  155.7495 LP  0  0  0  0  0  0  0  0  0  0  0  0  # atno 17394 bound_to 11000
  141.2217  133.7247  156.8737 LP  0  0  0  0  0  0  0  0  0  0  0  0  # atno 17395 bound_to 11000

$$$$
