AV-unprocessed.smi:197|AV-procd|sdf|1549|dock6
  -GOLD-   2262019413D 1   1.00000     0.00000
 Structure written by MMmdl.
 54 57  0  0  0  0  0  0  0  0  1 V2000
  152.6863  143.8811  161.9382 C   0  0  0  0  0  0  0  0  0  0  0  0
  152.8177  142.5628  161.4276 O   0  0  0  0  0  0  0  0  0  0  0  0
  153.5399  142.4818  160.2066 C   0  0  0  0  0  0  0  0  0  0  0  0
  152.9073  141.4662  159.2375 C   0  0  0  0  0  0  0  0  0  0  0  0
  151.3704  141.6092  159.1084 C   0  0  1  0  0  0  0  0  0  0  0  0
  150.9263  143.0333  158.7079 C   0  0  0  0  0  0  0  0  0  0  0  0
  151.2929  143.3033  157.3587 O   0  0  0  0  0  0  0  0  0  0  0  0
  150.6469  142.4207  156.4482 C   0  0  0  0  0  0  0  0  0  0  0  0
  151.0642  140.9726  156.7484 C   0  0  0  0  0  0  0  0  0  0  0  0
  150.8032  140.6512  158.1517 N   0  0  0  0  0  0  0  0  0  0  0  0
  150.8431  139.3422  158.5214 C   0  0  0  0  0  0  0  0  0  0  0  0
  152.0319  138.7777  158.8666 N   0  0  0  0  0  0  0  0  0  0  0  0
  152.0860  137.5114  159.2876 C   0  0  0  0  0  0  0  0  0  0  0  0
  151.0873  136.6416  159.4426 N   0  0  0  0  0  0  0  0  0  0  0  0
  149.8931  137.1929  159.0844 C   0  0  0  0  0  0  0  0  0  0  0  0
  149.6836  138.5179  158.6066 C   0  0  0  0  0  0  0  0  0  0  0  0
  148.3353  138.7057  158.3237 N   0  0  0  0  0  0  0  0  0  0  0  0
  147.7778  137.5704  158.6429 C   0  0  0  0  0  0  0  0  0  0  0  0
  148.6379  136.6123  159.1281 N   0  0  0  0  0  0  0  0  0  0  0  0
  148.2860  135.2798  159.5905 C   0  0  0  0  0  0  0  0  0  0  0  0
  147.3713  135.2911  160.8396 C   0  0  1  0  0  0  0  0  0  0  0  0
  146.0250  135.1615  160.4108 O   0  0  0  0  0  0  0  0  0  0  0  0
  147.6761  134.1467  161.7939 C   0  0  0  0  0  0  0  0  0  0  0  0
  147.1480  134.6733  163.1213 C   0  0  0  0  0  0  0  0  0  0  0  0
  147.4710  136.0560  163.1026 O   0  0  0  0  0  0  0  0  0  0  0  0
  147.5406  136.5285  161.7579 C   0  0  2  0  0  0  0  0  0  0  0  0
  146.5540  137.6923  161.5523 C   0  0  0  0  0  0  0  0  0  0  0  0
  152.1625  143.8474  162.8933 H   0  0  0  0  0  0  0  0  0  0  0  0
  152.1133  144.5246  161.2713 H   0  0  0  0  0  0  0  0  0  0  0  0
  153.6616  144.3377  162.1101 H   0  0  0  0  0  0  0  0  0  0  0  0
  153.6286  143.4668  159.7447 H   0  0  0  0  0  0  0  0  0  0  0  0
  154.5518  142.1659  160.4579 H   0  0  0  0  0  0  0  0  0  0  0  0
  153.3807  141.5505  158.2588 H   0  0  0  0  0  0  0  0  0  0  0  0
  153.1384  140.4637  159.5940 H   0  0  0  0  0  0  0  0  0  0  0  0
  150.9449  141.4202  160.0917 H   0  0  0  0  0  0  0  0  0  0  0  0
  149.8458  143.1386  158.8200 H   0  0  0  0  0  0  0  0  0  0  0  0
  151.3724  143.7857  159.3567 H   0  0  0  0  0  0  0  0  0  0  0  0
  149.5640  142.5351  156.5200 H   0  0  0  0  0  0  0  0  0  0  0  0
  150.9284  142.6901  155.4303 H   0  0  0  0  0  0  0  0  0  0  0  0
  150.5103  140.2955  156.0968 H   0  0  0  0  0  0  0  0  0  0  0  0
  152.1241  140.8363  156.5308 H   0  0  0  0  0  0  0  0  0  0  0  0
  153.0689  137.1460  159.5462 H   0  0  0  0  0  0  0  0  0  0  0  0
  146.7144  137.4047  158.5483 H   0  0  0  0  0  0  0  0  0  0  0  0
  147.8042  134.7463  158.7700 H   0  0  0  0  0  0  0  0  0  0  0  0
  149.2088  134.7393  159.8045 H   0  0  0  0  0  0  0  0  0  0  0  0
  145.7016  134.3203  160.6957 H   0  0  0  0  0  0  0  0  0  0  0  0
  147.2281  133.1967  161.4995 H   0  0  0  0  0  0  0  0  0  0  0  0
  148.7535  133.9958  161.8732 H   0  0  0  0  0  0  0  0  0  0  0  0
  146.0645  134.5606  163.1780 H   0  0  0  0  0  0  0  0  0  0  0  0
  147.5890  134.1694  163.9814 H   0  0  0  0  0  0  0  0  0  0  0  0
  148.5537  136.9144  161.6444 H   0  0  0  0  0  0  0  0  0  0  0  0
  146.5838  138.0669  160.5293 H   0  0  0  0  0  0  0  0  0  0  0  0
  146.7990  138.5245  162.2119 H   0  0  0  0  0  0  0  0  0  0  0  0
  145.5286  137.3945  161.7716 H   0  0  0  0  0  0  0  0  0  0  0  0
  1  2  1  0  0  0  0
  1 28  1  0  0  0  0
  1 29  1  0  0  0  0
  1 30  1  0  0  0  0
  2  3  1  0  0  0  0
  3  4  1  0  0  0  0
  3 31  1  0  0  0  0
  3 32  1  0  0  0  0
  4  5  1  0  0  0  0
  4 33  1  0  0  0  0
  4 34  1  0  0  0  0
  5 10  1  0  0  0  0
  5  6  1  0  0  0  0
  5 35  1  0  0  0  0
  6  7  1  0  0  0  0
  6 36  1  0  0  0  0
  6 37  1  0  0  0  0
  7  8  1  0  0  0  0
  8  9  1  0  0  0  0
  8 38  1  0  0  0  0
  8 39  1  0  0  0  0
  9 10  1  0  0  0  0
  9 40  1  0  0  0  0
  9 41  1  0  0  0  0
 10 11  1  0  0  0  0
 11 16  1  0  0  0  0
 11 12  2  0  0  0  0
 12 13  1  0  0  0  0
 13 14  2  0  0  0  0
 13 42  1  0  0  0  0
 14 15  1  0  0  0  0
 15 19  1  0  0  0  0
 15 16  2  0  0  0  0
 16 17  1  0  0  0  0
 17 18  2  0  0  0  0
 18 19  1  0  0  0  0
 18 43  1  0  0  0  0
 19 20  1  0  0  0  0
 20 21  1  0  0  0  0
 20 44  1  0  0  0  0
 20 45  1  0  0  0  0
 21 26  1  0  0  0  0
 21 22  1  0  0  0  0
 21 23  1  0  0  0  0
 22 46  1  0  0  0  0
 23 24  1  0  0  0  0
 23 47  1  0  0  0  0
 23 48  1  0  0  0  0
 24 25  1  0  0  0  0
 24 49  1  0  0  0  0
 24 50  1  0  0  0  0
 25 26  1  0  0  0  0
 26 27  1  0  0  0  0
 26 51  1  0  0  0  0
 27 52  1  0  0  0  0
 27 53  1  0  0  0  0
 27 54  1  0  0  0  0
M  END
> <s_m_source_file>
AV-unprocessed.smi

> <i_m_source_file_index>
197

> <i_lp_mmshare_version>
43012

> <i_f3d_flags>
0

> <s_epik_input>
W0NIM11PW0NIMl1bQ0gyXVtDQEBIXTFbQ0gyXU9bQ0gyXVtDSDJdTjFjKG5bY0hdbjIpYyhjMjMpbltjSF1uM1tDSDJdW0NAQF00KFtPSF0pW0NIMl1bQ0gyXU9bQ0BIXTRbQ0gzXQ==

> <s_epik_cmdline>
J2VwaWtfcHl0aG9uJywgJy1waCcsICc3LjAnLCAnLXRuJywgJzgnLCAnLW1hJywgJzIwMCcsICctbWV0YWxfYmluZGluZycsICctaW1hZScsICc8aW5maWxlLm1hZT4nLCAnLW9tYWUnLCAnPG91dGZpbGUubWFlPic=

> <r_lp_tautomer_probability>
1

> <r_epik_Ionization_Penalty>
0.000106218

> <r_epik_Ionization_Penalty_Charging>
0

> <r_epik_Ionization_Penalty_Neutral>
0.000106218

> <r_epik_State_Penalty>
-0

> <r_epik_Charging_Adjusted_Penalty>
0

> <i_epik_Tot_Q>
0

> <i_epik_Tot_abs_Q>
0

> <r_epik_Metal_State_Penalty>
-0

> <b_epik_Metal_Only>
0

> <s_lp_Force_Field>
OPLS_2005

> <r_lp_Energy>
41.5492

> <b_lp_Chiralities_Consistent>
1

> <s_lp_Variant>
AV-unprocessed.smi:197-6

> <Gold.Version>
5.8.1

> <Gold.Id.Protein>
6NUR|6NUR_protein|mol2

> <Gold.PLP.Fitness>
40.4775

> <Gold.PLP.PLP>
-39.7170

> <Gold.PLP.part.hbond>
-1.0484

> <Gold.PLP.part.metal>
0.0000

> <Gold.PLP.part.buried>
-3.2426

> <Gold.PLP.part.nonpolar>
-35.8622

> <Gold.PLP.part.repulsive>
0.1877

> <Gold.PLP.ligand.clash>
0.0000

> <Gold.PLP.ligand.torsion>
1.4089

> <Gold.PLP.Chemscore.Hbond>
1.0000

> <Gold.PLP.Chemscore.CHOScore>
0.0000

> <Gold.PLP.Chemscore.Metal>
0.0000

> <Gold.Chemscore.Hbonds>
donor molecule, donor type, donor heavy atom, donor atom, acceptor molecule, acceptor atom, score
      P1  H  6896  6908       L1    14  1.00

> <Gold.PLP.Chemscore.Internal.Correction>
0.5784

> <Gold.Rescore>
     Score         DG    S(hbond)    S(metal)    S(lipo)     H(rot)  DE(clash)    DE(int)     intcor
     10.05     -14.12       0.98        0.00     108.03       2.84       1.63       2.44       ----

> <Gold.Chemscore.Fitness>
10.0542

> <Gold.Chemscore.DG>
-14.1209

> <Gold.Chemscore.ZeroCoef>
-5.4800

> <Gold.Chemscore.Hbond>
0.9763

> <Gold.Chemscore.Metal>
0.0000

> <Gold.Chemscore.Lipo>
108.0306

> <Gold.Chemscore.Internal_Hbond>
0.0000

> <Gold.Chemscore.DEClash>
1.6280

> <Gold.Chemscore.DEInternal>
2.4386

> <Gold.Chemscore.Rot>
2.8358

> <Gold.Chemscore.Internal.Correction>
   9.000000E+99

> <Gold.Chemscore.Hbonds>
donor molecule, donor type, donor heavy atom, donor atom, acceptor molecule, acceptor atom, score
      P1  H  6896  6908       L1    14  0.96

> <Gold.Chemscore.Hbond.Weighted>
-3.2608

> <Gold.Chemscore.Metal.Weighted>
-0.0000

> <Gold.Chemscore.Lipo.Weighted>
-12.6396

> <Gold.Chemscore.Internal_Hbond.Weighted>
0.0000

> <Gold.Chemscore.DEClash.Weighted>
1.6280

> <Gold.Chemscore.DEInternal.Weighted>
2.4386

> <Gold.Chemscore.Rot.Weighted>
7.2596

> <Gold.Chemscore.Internal.Correction.Weighted>
   9.000000E+99

> <Gold.Protein.RotatedTorsions>
[ 6907 6896 6895 6894 ] final -142.18 input  -60.11 | X-H torsion
[ 7974 7965 7964 7962 ] final    7.71 input  175.53 | X-H torsion
[ 8008 7997 7996 7995 ] final  -88.88 input   59.86 | X-H torsion
[ 10167 10162 10161 10158 ] final  138.77 input  -65.29 | X-H torsion
[ 10718 10713 10712 10709 ] final -172.59 input   66.30 | X-H torsion
[ 10763 10752 10751 10750 ] final  141.68 input  -60.55 | X-H torsion
[ 11005 11000 10999 10996 ] final -148.65 input  -57.11 | X-H torsion

> <Gold.Protein.ActiveResidues>
 VAL166  LYS551  ARG553  GLY616  TRP617  ASP618  TYR619  PRO620  LYS621  CYS622 
 ASP623  PHE694  ASN695  SER759  ASP760  ASP761  ALA762  ILE779  LEU786  VAL792 
 PHE793  MET794  SER795  GLU796  ALA797  LYS798  CYS799  TRP800  GLU811  SER814 

> <Gold.Protein.RotatedAtoms>
  151.0836  133.5370  159.2618 H   0  0  0  0  0  0  0  0  0  0  0  0  # atno 6907 bound_to 6896
  151.2264  135.0537  159.8980 H   0  0  0  0  0  0  0  0  0  0  0  0  # atno 6908 bound_to 6896
  152.5426  134.0631  159.8214 H   0  0  0  0  0  0  0  0  0  0  0  0  # atno 6909 bound_to 6896
  146.2424  140.0043  142.8413 H   0  0  0  0  0  0  0  0  0  0  0  0  # atno 7974 bound_to 7965
  154.6800  140.0548  157.0255 H   0  0  0  0  0  0  0  0  0  0  0  0  # atno 8008 bound_to 7997
  155.0966  140.3224  155.4540 H   0  0  0  0  0  0  0  0  0  0  0  0  # atno 8009 bound_to 7997
  156.2690  140.2038  156.6092 H   0  0  0  0  0  0  0  0  0  0  0  0  # atno 8010 bound_to 7997
  139.5100  144.6334  151.5759 H   0  0  0  0  0  0  0  0  0  0  0  0  # atno 10167 bound_to 10162
  156.7578  130.9402  151.3117 H   0  0  0  0  0  0  0  0  0  0  0  0  # atno 10718 bound_to 10713
  153.9433  135.2977  155.3442 H   0  0  0  0  0  0  0  0  0  0  0  0  # atno 10763 bound_to 10752
  154.7466  135.5000  153.9217 H   0  0  0  0  0  0  0  0  0  0  0  0  # atno 10764 bound_to 10752
  153.1031  135.6739  153.9742 H   0  0  0  0  0  0  0  0  0  0  0  0  # atno 10765 bound_to 10752
  140.7590  134.3320  157.5107 H   0  0  0  0  0  0  0  0  0  0  0  0  # atno 11005 bound_to 11000
  145.1386  140.9559  143.4502 LP  0  0  0  0  0  0  0  0  0  0  0  0  # atno 17320 bound_to 7965
  145.0317  139.3335  143.6021 LP  0  0  0  0  0  0  0  0  0  0  0  0  # atno 17321 bound_to 7965
  140.6074  143.9498  150.6429 LP  0  0  0  0  0  0  0  0  0  0  0  0  # atno 17342 bound_to 10162
  140.2730  143.3443  152.1221 LP  0  0  0  0  0  0  0  0  0  0  0  0  # atno 17343 bound_to 10162
  157.6748  130.9084  150.0125 LP  0  0  0  0  0  0  0  0  0  0  0  0  # atno 17370 bound_to 10713
  156.1359  130.3642  149.9658 LP  0  0  0  0  0  0  0  0  0  0  0  0  # atno 17371 bound_to 10713
  139.8774  134.9190  156.3216 LP  0  0  0  0  0  0  0  0  0  0  0  0  # atno 17394 bound_to 11000
  140.9681  133.7345  156.0495 LP  0  0  0  0  0  0  0  0  0  0  0  0  # atno 17395 bound_to 11000

$$$$
