AV-unprocessed.smi:2677|AV-procd|sdf|10365|dock3
  -GOLD-   2272014393D 1   1.00000     0.00000
 Structure written by MMmdl.
 40 41  0  0  0  0  0  0  0  0  1 V2000
  155.3565  140.6940  159.9279 C   0  0  0  0  0  0  0  0  0  0  0  0
  153.9738  140.6040  160.5824 C   0  0  0  0  0  0  0  0  0  0  0  0
  153.1885  141.8729  160.4286 C   0  0  0  0  0  0  0  0  0  0  0  0
  152.7018  142.2255  159.1671 N   0  0  0  0  0  0  0  0  0  0  0  0
  152.0245  143.3758  159.1765 C   0  0  0  0  0  0  0  0  0  0  0  0
  151.4625  144.0137  157.9460 C   0  0  0  0  0  0  0  0  0  0  0  0
  151.6143  143.1472  156.6806 C   0  0  0  0  0  0  0  0  0  0  0  0
  150.3881  142.4238  156.3602 N   0  0  0  0  0  0  0  0  0  0  0  0
  150.3254  141.2293  155.7490 C   0  0  0  0  0  0  0  0  0  0  0  0
  151.3336  140.5644  155.5069 O   0  0  0  0  0  0  0  0  0  0  0  0
  149.0692  140.8181  155.4407 N   0  0  0  0  0  0  0  0  0  0  0  0
  148.6740  139.4536  155.0538 C   0  0  0  0  0  0  0  0  0  0  0  0
  148.4823  139.3993  153.5299 C   0  0  0  0  0  0  0  0  0  0  0  0
  147.1346  140.5050  153.0068 S   0  0  0  0  0  0  0  0  0  0  0  0
  147.6381  142.0291  153.8664 C   0  0  0  0  0  0  0  0  0  0  0  0
  147.9440  141.7561  155.3490 C   0  0  0  0  0  0  0  0  0  0  0  0
  151.9428  144.1140  160.7689 S   0  0  0  0  0  0  0  0  0  0  0  0
  152.8616  142.7770  161.4125 C   0  0  0  0  0  0  0  0  0  0  0  0
  153.2063  142.7167  162.8637 C   0  0  0  0  0  0  0  0  0  0  0  0
  155.9070  139.7613  160.0518 H   0  0  0  0  0  0  0  0  0  0  0  0
  155.9514  141.4934  160.3708 H   0  0  0  0  0  0  0  0  0  0  0  0
  155.2717  140.8918  158.8590 H   0  0  0  0  0  0  0  0  0  0  0  0
  153.4265  139.7646  160.1527 H   0  0  0  0  0  0  0  0  0  0  0  0
  154.0937  140.3676  161.6405 H   0  0  0  0  0  0  0  0  0  0  0  0
  150.4077  144.2301  158.1203 H   0  0  0  0  0  0  0  0  0  0  0  0
  151.9516  144.9764  157.7963 H   0  0  0  0  0  0  0  0  0  0  0  0
  151.9383  143.7558  155.8350 H   0  0  0  0  0  0  0  0  0  0  0  0
  152.3962  142.4050  156.8429 H   0  0  0  0  0  0  0  0  0  0  0  0
  149.5185  142.9016  156.5465 H   0  0  0  0  0  0  0  0  0  0  0  0
  149.3897  138.6944  155.3707 H   0  0  0  0  0  0  0  0  0  0  0  0
  147.7437  139.1820  155.5547 H   0  0  0  0  0  0  0  0  0  0  0  0
  149.4013  139.6889  153.0193 H   0  0  0  0  0  0  0  0  0  0  0  0
  148.2451  138.3841  153.2120 H   0  0  0  0  0  0  0  0  0  0  0  0
  148.5147  142.4450  153.3684 H   0  0  0  0  0  0  0  0  0  0  0  0
  146.8384  142.7640  153.7721 H   0  0  0  0  0  0  0  0  0  0  0  0
  147.0662  141.3418  155.8468 H   0  0  0  0  0  0  0  0  0  0  0  0
  148.1487  142.6978  155.8604 H   0  0  0  0  0  0  0  0  0  0  0  0
  154.2584  142.9554  163.0196 H   0  0  0  0  0  0  0  0  0  0  0  0
  153.0219  141.7205  163.2658 H   0  0  0  0  0  0  0  0  0  0  0  0
  152.6109  143.4245  163.4405 H   0  0  0  0  0  0  0  0  0  0  0  0
  1  2  1  0  0  0  0
  1 20  1  0  0  0  0
  1 21  1  0  0  0  0
  1 22  1  0  0  0  0
  2  3  1  0  0  0  0
  2 23  1  0  0  0  0
  2 24  1  0  0  0  0
  3 18  2  0  0  0  0
  3  4  1  0  0  0  0
  4  5  2  0  0  0  0
  5  6  1  0  0  0  0
  5 17  1  0  0  0  0
  6  7  1  0  0  0  0
  6 25  1  0  0  0  0
  6 26  1  0  0  0  0
  7  8  1  0  0  0  0
  7 27  1  0  0  0  0
  7 28  1  0  0  0  0
  8  9  1  0  0  0  0
  8 29  1  0  0  0  0
  9 10  2  0  0  0  0
  9 11  1  0  0  0  0
 11 16  1  0  0  0  0
 11 12  1  0  0  0  0
 12 13  1  0  0  0  0
 12 30  1  0  0  0  0
 12 31  1  0  0  0  0
 13 14  1  0  0  0  0
 13 32  1  0  0  0  0
 13 33  1  0  0  0  0
 14 15  1  0  0  0  0
 15 16  1  0  0  0  0
 15 34  1  0  0  0  0
 15 35  1  0  0  0  0
 16 36  1  0  0  0  0
 16 37  1  0  0  0  0
 17 18  1  0  0  0  0
 18 19  1  0  0  0  0
 19 38  1  0  0  0  0
 19 39  1  0  0  0  0
 19 40  1  0  0  0  0
M  END
> <s_m_source_file>
AV-unprocessed.smi

> <i_m_source_file_index>
2677

> <i_lp_mmshare_version>
43012

> <i_f3d_flags>
0

> <s_epik_input>
W0NIM11bQ0gyXWMxbmMoc2MxW0NIM10pW0NIMl1bQ0gyXVtOSF1DKD1PKU4yW0NIMl1bQ0gyXVNbQ0gyXVtDSDJdMg==

> <s_epik_cmdline>
J2VwaWtfcHl0aG9uJywgJy1waCcsICc3LjAnLCAnLXRuJywgJzgnLCAnLW1hJywgJzIwMCcsICctbWV0YWxfYmluZGluZycsICctaW1hZScsICc8aW5maWxlLm1hZT4nLCAnLW9tYWUnLCAnPG91dGZpbGUubWFlPic=

> <r_epik_Ionization_Penalty>
0.00440659

> <r_epik_Ionization_Penalty_Charging>
0

> <r_epik_Ionization_Penalty_Neutral>
0.00440659

> <r_epik_State_Penalty>
0.00314229

> <r_epik_Charging_Adjusted_Penalty>
0.00314229

> <i_epik_Tot_Q>
0

> <i_epik_Tot_abs_Q>
0

> <r_epik_Metal_State_Penalty>
-0

> <b_epik_Metal_Only>
0

> <s_lp_Force_Field>
OPLS_2005

> <r_lp_Energy>
14.3594

> <b_lp_Chiralities_Consistent>
1

> <s_lp_Variant>
AV-unprocessed.smi:2677-1

> <Gold.Version>
5.8.1

> <Gold.Id.Protein>
6NUR|6NUR_protein|mol2

> <Gold.PLP.Fitness>
45.5070

> <Gold.PLP.PLP>
-44.1956

> <Gold.PLP.part.hbond>
-2.0000

> <Gold.PLP.part.metal>
0.0000

> <Gold.PLP.part.buried>
-2.2742

> <Gold.PLP.part.nonpolar>
-39.0469

> <Gold.PLP.part.repulsive>
0.1025

> <Gold.PLP.ligand.clash>
0.8002

> <Gold.PLP.ligand.torsion>
0.7085

> <Gold.PLP.Chemscore.Hbond>
1.1601

> <Gold.PLP.Chemscore.CHOScore>
0.0000

> <Gold.PLP.Chemscore.Metal>
0.0000

> <Gold.Chemscore.Hbonds>
donor molecule, donor type, donor heavy atom, donor atom, acceptor molecule, acceptor atom, score
      L1  H     8    29       P1  8028  0.41
      P1  H  7989  7998       L1    10  0.80

> <Gold.PLP.Chemscore.Internal.Correction>
0.0481

> <Gold.Rescore>
     Score         DG    S(hbond)    S(metal)    S(lipo)     H(rot)  DE(clash)    DE(int)     intcor
     17.07     -19.04       0.70        0.00     126.68       1.40       1.32       0.65       ----

> <Gold.Chemscore.Fitness>
17.0744

> <Gold.Chemscore.DG>
-19.0422

> <Gold.Chemscore.ZeroCoef>
-5.4800

> <Gold.Chemscore.Hbond>
0.6960

> <Gold.Chemscore.Metal>
0.0000

> <Gold.Chemscore.Lipo>
126.6791

> <Gold.Chemscore.Internal_Hbond>
0.0000

> <Gold.Chemscore.DEClash>
1.3180

> <Gold.Chemscore.DEInternal>
0.6498

> <Gold.Chemscore.Rot>
1.4000

> <Gold.Chemscore.Internal.Correction>
   9.000000E+99

> <Gold.Chemscore.Hbonds>
donor molecule, donor type, donor heavy atom, donor atom, acceptor molecule, acceptor atom, score
      L1  H     8    29       P1  8028  0.40
      P1  H  7989  7998       L1    10  0.30

> <Gold.Chemscore.Hbond.Weighted>
-2.3247

> <Gold.Chemscore.Metal.Weighted>
-0.0000

> <Gold.Chemscore.Lipo.Weighted>
-14.8215

> <Gold.Chemscore.Internal_Hbond.Weighted>
0.0000

> <Gold.Chemscore.DEClash.Weighted>
1.3180

> <Gold.Chemscore.DEInternal.Weighted>
0.6498

> <Gold.Chemscore.Rot.Weighted>
3.5839

> <Gold.Chemscore.Internal.Correction.Weighted>
   9.000000E+99

> <Gold.Protein.RotatedTorsions>
[ 6907 6896 6895 6894 ] final  -28.23 input  -60.11 | X-H torsion
[ 7974 7965 7964 7962 ] final   -7.83 input  175.53 | X-H torsion
[ 8008 7997 7996 7995 ] final   10.98 input   59.86 | X-H torsion
[ 10167 10162 10161 10158 ] final -169.93 input  -65.29 | X-H torsion
[ 10718 10713 10712 10709 ] final -127.30 input   66.30 | X-H torsion
[ 10763 10752 10751 10750 ] final   -4.40 input  -60.55 | X-H torsion
[ 11005 11000 10999 10996 ] final  158.20 input  -57.11 | X-H torsion

> <Gold.Protein.ActiveResidues>
 VAL166  LYS551  ARG553  GLY616  TRP617  ASP618  TYR619  PRO620  LYS621  CYS622 
 ASP623  PHE694  ASN695  SER759  ASP760  ASP761  ALA762  ILE779  LEU786  VAL792 
 PHE793  MET794  SER795  GLU796  ALA797  LYS798  CYS799  TRP800  GLU811  SER814 

> <Gold.Protein.RotatedAtoms>
  151.1358  135.0154  159.8602 H   0  0  0  0  0  0  0  0  0  0  0  0  # atno 6907 bound_to 6896
  152.5452  134.1557  159.8547 H   0  0  0  0  0  0  0  0  0  0  0  0  # atno 6908 bound_to 6896
  151.1628  133.4789  159.2627 H   0  0  0  0  0  0  0  0  0  0  0  0  # atno 6909 bound_to 6896
  146.2297  140.2377  142.8342 H   0  0  0  0  0  0  0  0  0  0  0  0  # atno 7974 bound_to 7965
  154.8007  140.2851  155.5923 H   0  0  0  0  0  0  0  0  0  0  0  0  # atno 8008 bound_to 7997
  156.2977  140.2587  156.2804 H   0  0  0  0  0  0  0  0  0  0  0  0  # atno 8009 bound_to 7997
  154.9561  140.0378  157.2157 H   0  0  0  0  0  0  0  0  0  0  0  0  # atno 8010 bound_to 7997
  139.5892  144.1250  152.1614 H   0  0  0  0  0  0  0  0  0  0  0  0  # atno 10167 bound_to 10162
  156.1844  130.6754  151.0346 H   0  0  0  0  0  0  0  0  0  0  0  0  # atno 10718 bound_to 10713
  153.3844  135.6999  153.6541 H   0  0  0  0  0  0  0  0  0  0  0  0  # atno 10763 bound_to 10752
  153.5139  135.3626  155.2600 H   0  0  0  0  0  0  0  0  0  0  0  0  # atno 10764 bound_to 10752
  154.8696  135.4141  154.3148 H   0  0  0  0  0  0  0  0  0  0  0  0  # atno 10765 bound_to 10752
  140.1842  134.8454  157.2838 H   0  0  0  0  0  0  0  0  0  0  0  0  # atno 11005 bound_to 11000
  144.9508  140.8176  143.5573 LP  0  0  0  0  0  0  0  0  0  0  0  0  # atno 17320 bound_to 7965
  145.2338  139.2103  143.5029 LP  0  0  0  0  0  0  0  0  0  0  0  0  # atno 17321 bound_to 7965
  140.0820  144.5692  150.7115 LP  0  0  0  0  0  0  0  0  0  0  0  0  # atno 17342 bound_to 10162
  140.7159  143.2544  151.4437 LP  0  0  0  0  0  0  0  0  0  0  0  0  # atno 17343 bound_to 10162
  157.6889  131.0816  150.7163 LP  0  0  0  0  0  0  0  0  0  0  0  0  # atno 17370 bound_to 10713
  156.7220  130.4683  149.5520 LP  0  0  0  0  0  0  0  0  0  0  0  0  # atno 17371 bound_to 10713
  140.2233  134.3997  155.7555 LP  0  0  0  0  0  0  0  0  0  0  0  0  # atno 17394 bound_to 11000
  141.2224  133.7177  156.8525 LP  0  0  0  0  0  0  0  0  0  0  0  0  # atno 17395 bound_to 11000

$$$$
