AV-unprocessed.smi:668|AV-procd|sdf|3262|dock1
  -GOLD-   22720 0213D 1   1.00000     0.00000
 Structure written by MMmdl.
 38 39  0  0  0  0  0  0  0  0  1 V2000
  150.7002  141.2075  158.2111 C   0  0  0  0  0  0  0  0  0  0  0  0
  150.7547  141.3836  156.7996 O   0  0  0  0  0  0  0  0  0  0  0  0
  150.0158  140.5320  156.0042 C   0  0  0  0  0  0  0  0  0  0  0  0
  148.8206  139.9938  156.5210 C   0  0  0  0  0  0  0  0  0  0  0  0
  148.0616  139.1219  155.7170 C   0  0  0  0  0  0  0  0  0  0  0  0
  148.5284  138.8086  154.4177 C   0  0  0  0  0  0  0  0  0  0  0  0
  147.8507  137.9571  153.5031 N   0  0  0  0  0  0  0  0  0  0  0  0
  146.5283  137.8079  153.3149 C   0  0  0  0  0  0  0  0  0  0  0  0
  145.6476  138.3951  153.9424 O   0  0  0  0  0  0  0  0  0  0  0  0
  146.2760  136.9068  152.3549 N   0  0  0  0  0  0  0  0  0  0  0  0
  144.9455  136.5016  151.9035 C   0  0  1  0  0  0  0  0  0  0  0  0
  145.0380  135.2804  150.9730 C   0  0  0  0  0  0  0  0  0  0  0  0
  144.5499  134.0923  151.7982 C   0  0  0  0  0  0  0  0  0  0  0  0
  143.4922  134.6901  152.7208 C   0  0  0  0  0  0  0  0  0  0  0  0
  144.0334  136.0827  153.0890 C   0  0  2  0  0  0  0  0  0  0  0  0
  142.9152  137.0990  153.3694 C   0  0  0  0  0  0  0  0  0  0  0  0
  142.8061  138.1300  152.5279 N   0  0  0  0  0  0  0  0  0  0  0  0
  142.1590  136.9563  154.3285 O   0  0  0  0  0  0  0  0  0  0  0  0
  149.7291  139.4119  153.9900 C   0  0  0  0  0  0  0  0  0  0  0  0
  150.4619  140.2474  154.7556 N   0  0  0  0  0  0  0  0  0  0  0  0
  151.3313  141.9545  158.6921 H   0  0  0  0  0  0  0  0  0  0  0  0
  151.0692  140.2239  158.5058 H   0  0  0  0  0  0  0  0  0  0  0  0
  149.6855  141.3384  158.5903 H   0  0  0  0  0  0  0  0  0  0  0  0
  148.4890  140.2482  157.5168 H   0  0  0  0  0  0  0  0  0  0  0  0
  147.1377  138.7265  156.1087 H   0  0  0  0  0  0  0  0  0  0  0  0
  148.4460  137.3491  152.9597 H   0  0  0  0  0  0  0  0  0  0  0  0
  147.0618  136.4694  151.8963 H   0  0  0  0  0  0  0  0  0  0  0  0
  144.5158  137.3286  151.3335 H   0  0  0  0  0  0  0  0  0  0  0  0
  144.3660  135.4247  150.1258 H   0  0  0  0  0  0  0  0  0  0  0  0
  146.0368  135.1186  150.5650 H   0  0  0  0  0  0  0  0  0  0  0  0
  144.1600  133.2829  151.1802 H   0  0  0  0  0  0  0  0  0  0  0  0
  145.3733  133.6934  152.3923 H   0  0  0  0  0  0  0  0  0  0  0  0
  142.5445  134.7586  152.1841 H   0  0  0  0  0  0  0  0  0  0  0  0
  143.3251  134.0678  153.6005 H   0  0  0  0  0  0  0  0  0  0  0  0
  144.6424  135.9676  153.9881 H   0  0  0  0  0  0  0  0  0  0  0  0
  142.0962  138.8319  152.6781 H   0  0  0  0  0  0  0  0  0  0  0  0
  143.4453  138.2107  151.7506 H   0  0  0  0  0  0  0  0  0  0  0  0
  150.1191  139.2158  153.0018 H   0  0  0  0  0  0  0  0  0  0  0  0
  1  2  1  0  0  0  0
  1 21  1  0  0  0  0
  1 22  1  0  0  0  0
  1 23  1  0  0  0  0
  2  3  1  0  0  0  0
  3 20  1  0  0  0  0
  3  4  2  0  0  0  0
  4  5  1  0  0  0  0
  4 24  1  0  0  0  0
  5  6  2  0  0  0  0
  5 25  1  0  0  0  0
  6  7  1  0  0  0  0
  6 19  1  0  0  0  0
  7  8  1  0  0  0  0
  7 26  1  0  0  0  0
  8  9  2  0  0  0  0
  8 10  1  0  0  0  0
 10 11  1  0  0  0  0
 10 27  1  0  0  0  0
 11 15  1  0  0  0  0
 11 12  1  0  0  0  0
 11 28  1  0  0  0  0
 12 13  1  0  0  0  0
 12 29  1  0  0  0  0
 12 30  1  0  0  0  0
 13 14  1  0  0  0  0
 13 31  1  0  0  0  0
 13 32  1  0  0  0  0
 14 15  1  0  0  0  0
 14 33  1  0  0  0  0
 14 34  1  0  0  0  0
 15 16  1  0  0  0  0
 15 35  1  0  0  0  0
 16 17  1  0  0  0  0
 16 18  2  0  0  0  0
 17 36  1  0  0  0  0
 17 37  1  0  0  0  0
 19 20  2  0  0  0  0
 19 38  1  0  0  0  0
M  END
> <s_m_source_file>
AV-unprocessed.smi

> <i_m_source_file_index>
668

> <i_lp_mmshare_version>
43012

> <i_f3d_flags>
0

> <s_epik_input>
W0NIM11PYzFbY0hdW2NIXWMoW2NIXW4xKVtOSF1DKD1PKVtOSF1bQ0BASF0yW0NIMl1bQ0gyXVtDSDJdW0NASF0yQyg9TylbTkgyXQ==

> <s_epik_cmdline>
J2VwaWtfcHl0aG9uJywgJy1waCcsICc3LjAnLCAnLXRuJywgJzgnLCAnLW1hJywgJzIwMCcsICctbWV0YWxfYmluZGluZycsICctaW1hZScsICc8aW5maWxlLm1hZT4nLCAnLW9tYWUnLCAnPG91dGZpbGUubWFlPic=

> <r_lp_tautomer_probability>
1

> <r_epik_Ionization_Penalty>
9.0916e-05

> <r_epik_Ionization_Penalty_Charging>
0

> <r_epik_Ionization_Penalty_Neutral>
9.0916e-05

> <r_epik_State_Penalty>
-0

> <r_epik_Charging_Adjusted_Penalty>
0

> <i_epik_Tot_Q>
0

> <i_epik_Tot_abs_Q>
0

> <r_epik_Metal_State_Penalty>
-0

> <b_epik_Metal_Only>
0

> <s_lp_Force_Field>
OPLS_2005

> <r_lp_Energy>
17.404

> <b_lp_Chiralities_Consistent>
1

> <s_lp_Variant>
AV-unprocessed.smi:668-4

> <Gold.Version>
5.8.1

> <Gold.Id.Protein>
6NUR|6NUR_protein|mol2

> <Gold.PLP.Fitness>
38.2286

> <Gold.PLP.PLP>
-24.8442

> <Gold.PLP.part.hbond>
-4.7070

> <Gold.PLP.part.metal>
0.0000

> <Gold.PLP.part.buried>
-3.5272

> <Gold.PLP.part.nonpolar>
-17.9577

> <Gold.PLP.part.repulsive>
0.4255

> <Gold.PLP.ligand.clash>
0.0000

> <Gold.PLP.ligand.torsion>
0.7641

> <Gold.PLP.Chemscore.Hbond>
3.9600

> <Gold.PLP.Chemscore.CHOScore>
1.0000

> <Gold.PLP.Chemscore.Metal>
0.0000

> <Gold.Chemscore.Hbonds>
donor molecule, donor type, donor heavy atom, donor atom, acceptor molecule, acceptor atom, score
      L1  H     7    26       P1  7948  1.00
      L1  H    10    27       P1  7948  0.96
      L1  H    17    37       P1 10171  1.00
      P1  H  7989  7998       L1    20  1.00
      L1  C    19    38       P1  7957  1.00

> <Gold.PLP.Chemscore.Internal.Correction>
0.0327

> <Gold.Rescore>
     Score         DG    S(hbond)    S(metal)    S(lipo)     H(rot)  DE(clash)    DE(int)     intcor
     13.15     -16.62       3.27        0.00      42.67       1.86       0.92       2.55       ----

> <Gold.Chemscore.Fitness>
13.1483

> <Gold.Chemscore.DG>
-16.6190

> <Gold.Chemscore.ZeroCoef>
-5.4800

> <Gold.Chemscore.Hbond>
3.2695

> <Gold.Chemscore.Metal>
0.0000

> <Gold.Chemscore.Lipo>
42.6749

> <Gold.Chemscore.Internal_Hbond>
0.0000

> <Gold.Chemscore.DEClash>
0.9193

> <Gold.Chemscore.DEInternal>
2.5514

> <Gold.Chemscore.Rot>
1.8648

> <Gold.Chemscore.Internal.Correction>
   9.000000E+99

> <Gold.Chemscore.Hbonds>
donor molecule, donor type, donor heavy atom, donor atom, acceptor molecule, acceptor atom, score
      L1  H     7    26       P1  7948  0.99
      L1  H    10    27       P1  7948  0.92
      L1  H    17    37       P1 10171  0.68
      P1  H  7989  7998       L1    20  0.25

> <Gold.Chemscore.Hbond.Weighted>
-10.9200

> <Gold.Chemscore.Metal.Weighted>
-0.0000

> <Gold.Chemscore.Lipo.Weighted>
-4.9930

> <Gold.Chemscore.Internal_Hbond.Weighted>
0.0000

> <Gold.Chemscore.DEClash.Weighted>
0.9193

> <Gold.Chemscore.DEInternal.Weighted>
2.5514

> <Gold.Chemscore.Rot.Weighted>
4.7739

> <Gold.Chemscore.Internal.Correction.Weighted>
   9.000000E+99

> <Gold.Protein.RotatedTorsions>
[ 6907 6896 6895 6894 ] final  158.92 input  -60.11 | X-H torsion
[ 7974 7965 7964 7962 ] final   46.37 input  175.53 | X-H torsion
[ 8008 7997 7996 7995 ] final  -22.74 input   59.86 | X-H torsion
[ 10167 10162 10161 10158 ] final  -97.58 input  -65.29 | X-H torsion
[ 10718 10713 10712 10709 ] final  121.56 input   66.30 | X-H torsion
[ 10763 10752 10751 10750 ] final  108.07 input  -60.55 | X-H torsion
[ 11005 11000 10999 10996 ] final  -40.71 input  -57.11 | X-H torsion

> <Gold.Protein.ActiveResidues>
 VAL166  LYS551  ARG553  GLY616  TRP617  ASP618  TYR619  PRO620  LYS621  CYS622 
 ASP623  PHE694  ASN695  SER759  ASP760  ASP761  ALA762  ILE779  LEU786  VAL792 
 PHE793  MET794  SER795  GLU796  ALA797  LYS798  CYS799  TRP800  GLU811  SER814 

> <Gold.Protein.RotatedAtoms>
  151.9932  133.3798  159.4152 H   0  0  0  0  0  0  0  0  0  0  0  0  # atno 6907 bound_to 6896
  150.6919  134.3914  159.5087 H   0  0  0  0  0  0  0  0  0  0  0  0  # atno 6908 bound_to 6896
  152.1650  134.8881  160.0589 H   0  0  0  0  0  0  0  0  0  0  0  0  # atno 6909 bound_to 6896
  146.0396  139.4863  142.9787 H   0  0  0  0  0  0  0  0  0  0  0  0  # atno 7974 bound_to 7965
  154.4626  140.1999  156.0203 H   0  0  0  0  0  0  0  0  0  0  0  0  # atno 8008 bound_to 7997
  156.0868  140.3264  155.7736 H   0  0  0  0  0  0  0  0  0  0  0  0  # atno 8009 bound_to 7997
  155.5021  140.0555  157.2928 H   0  0  0  0  0  0  0  0  0  0  0  0  # atno 8010 bound_to 7997
  140.2819  143.3276  152.0433 H   0  0  0  0  0  0  0  0  0  0  0  0  # atno 10167 bound_to 10162
  157.5809  131.1075  150.8189 H   0  0  0  0  0  0  0  0  0  0  0  0  # atno 10718 bound_to 10713
  153.4156  135.3824  155.2078 H   0  0  0  0  0  0  0  0  0  0  0  0  # atno 10763 bound_to 10752
  154.8741  135.3804  154.4447 H   0  0  0  0  0  0  0  0  0  0  0  0  # atno 10764 bound_to 10752
  153.4961  135.7088  153.5920 H   0  0  0  0  0  0  0  0  0  0  0  0  # atno 10765 bound_to 10752
  141.0194  133.6870  156.2358 H   0  0  0  0  0  0  0  0  0  0  0  0  # atno 11005 bound_to 11000
  145.6907  141.0165  143.1557 LP  0  0  0  0  0  0  0  0  0  0  0  0  # atno 17320 bound_to 7965
  144.7068  139.8529  143.7427 LP  0  0  0  0  0  0  0  0  0  0  0  0  # atno 17321 bound_to 7965
  139.4960  144.6586  151.6517 LP  0  0  0  0  0  0  0  0  0  0  0  0  # atno 17342 bound_to 10162
  140.5805  143.9955  150.6265 LP  0  0  0  0  0  0  0  0  0  0  0  0  # atno 17343 bound_to 10162
  156.8636  130.5121  149.5302 LP  0  0  0  0  0  0  0  0  0  0  0  0  # atno 17370 bound_to 10713
  156.0855  130.5854  150.9640 LP  0  0  0  0  0  0  0  0  0  0  0  0  # atno 17371 bound_to 10713
  140.6599  134.4979  157.5583 LP  0  0  0  0  0  0  0  0  0  0  0  0  # atno 17394 bound_to 11000
  139.9137  134.8291  156.1440 LP  0  0  0  0  0  0  0  0  0  0  0  0  # atno 17395 bound_to 11000

$$$$
