AV-unprocessed.smi:1511|AV-procd|sdf|6098|dock5
  -GOLD-   22720 6223D 1   1.00000     0.00000
 Structure written by MMmdl.
 32 33  0  0  0  0  0  0  0  0  1 V2000
  152.4793  144.5351  157.5582 O   0  0  0  0  0  0  0  0  0  0  0  0
  151.8747  143.7453  158.2827 C   0  0  0  0  0  0  0  0  0  0  0  0
  151.5806  144.1122  159.7391 C   0  0  0  0  0  0  0  0  0  0  0  0
  152.4177  143.3534  160.6538 N   0  0  0  0  0  0  0  0  0  0  0  0
  152.4434  143.4015  162.0322 C   0  0  0  0  0  0  0  0  0  0  0  0
  153.4039  142.5266  162.4522 C   0  0  0  0  0  0  0  0  0  0  0  0
  153.9164  141.9808  161.2424 C   0  0  0  0  0  0  0  0  0  0  0  0
  153.3238  142.4763  160.1681 N   0  0  0  0  0  0  0  0  0  0  0  0
  151.4283  142.5511  157.8630 N   0  0  0  0  0  0  0  0  0  0  0  0
  151.4889  142.0684  156.4887 C   0  0  0  0  0  0  0  0  0  0  0  0
  151.9266  140.5911  156.4153 C   0  0  2  0  0  0  0  0  0  0  0  0
  152.8765  140.1713  157.5578 C   0  0  0  0  0  0  0  0  0  0  0  0
  153.4612  138.7964  157.2237 C   0  0  0  0  0  0  0  0  0  0  0  0
  153.6563  138.7755  155.4037 S   0  0  0  0  0  0  0  0  0  0  0  0
  155.0487  139.0986  155.0576 O   0  0  0  0  0  0  0  0  0  0  0  0
  153.0011  137.5745  154.8640 O   0  0  0  0  0  0  0  0  0  0  0  0
  152.6094  140.2464  155.0821 C   0  0  0  0  0  0  0  0  0  0  0  0
  151.7580  145.1772  159.8933 H   0  0  0  0  0  0  0  0  0  0  0  0
  150.5320  143.9217  159.9734 H   0  0  0  0  0  0  0  0  0  0  0  0
  151.7866  144.0502  162.5930 H   0  0  0  0  0  0  0  0  0  0  0  0
  153.6962  142.3098  163.4689 H   0  0  0  0  0  0  0  0  0  0  0  0
  154.6966  141.2455  161.1136 H   0  0  0  0  0  0  0  0  0  0  0  0
  150.9541  141.9617  158.5318 H   0  0  0  0  0  0  0  0  0  0  0  0
  150.5202  142.2027  156.0043 H   0  0  0  0  0  0  0  0  0  0  0  0
  152.1960  142.6952  155.9446 H   0  0  0  0  0  0  0  0  0  0  0  0
  151.0390  139.9610  156.4903 H   0  0  0  0  0  0  0  0  0  0  0  0
  153.6900  140.8939  157.6321 H   0  0  0  0  0  0  0  0  0  0  0  0
  152.3723  140.1580  158.5249 H   0  0  0  0  0  0  0  0  0  0  0  0
  154.4173  138.6052  157.7108 H   0  0  0  0  0  0  0  0  0  0  0  0
  152.7632  138.0048  157.4972 H   0  0  0  0  0  0  0  0  0  0  0  0
  151.8967  140.0326  154.2856 H   0  0  0  0  0  0  0  0  0  0  0  0
  153.2643  141.0533  154.7527 H   0  0  0  0  0  0  0  0  0  0  0  0
  1  2  2  0  0  0  0
  2  3  1  0  0  0  0
  2  9  1  0  0  0  0
  3  4  1  0  0  0  0
  3 18  1  0  0  0  0
  3 19  1  0  0  0  0
  4  8  1  0  0  0  0
  4  5  1  0  0  0  0
  5  6  2  0  0  0  0
  5 20  1  0  0  0  0
  6  7  1  0  0  0  0
  6 21  1  0  0  0  0
  7  8  2  0  0  0  0
  7 22  1  0  0  0  0
  9 10  1  0  0  0  0
  9 23  1  0  0  0  0
 10 11  1  0  0  0  0
 10 24  1  0  0  0  0
 10 25  1  0  0  0  0
 11 17  1  0  0  0  0
 11 12  1  0  0  0  0
 11 26  1  0  0  0  0
 12 13  1  0  0  0  0
 12 27  1  0  0  0  0
 12 28  1  0  0  0  0
 13 14  1  0  0  0  0
 13 29  1  0  0  0  0
 13 30  1  0  0  0  0
 14 15  2  0  0  0  0
 14 16  2  0  0  0  0
 14 17  1  0  0  0  0
 17 31  1  0  0  0  0
 17 32  1  0  0  0  0
M  END
> <s_m_source_file>
AV-unprocessed.smi

> <i_m_source_file_index>
1511

> <i_lp_mmshare_version>
43012

> <i_f3d_flags>
0

> <s_epik_input>
bjFbY0hdW2NIXVtjSF1uMVtDSDJdQyg9TylbTkhdW0NIMl1bQ0BASF0oW0NIMl0yKVtDSDJdW0NIMl1TMig9Tyk9Tw==

> <s_epik_cmdline>
J2VwaWtfcHl0aG9uJywgJy1waCcsICc3LjAnLCAnLXRuJywgJzgnLCAnLW1hJywgJzIwMCcsICctbWV0YWxfYmluZGluZycsICctaW1hZScsICc8aW5maWxlLm1hZT4nLCAnLW9tYWUnLCAnPG91dGZpbGUubWFlPic=

> <r_lp_tautomer_probability>
1

> <r_epik_Ionization_Penalty>
1.34373e-05

> <r_epik_Ionization_Penalty_Charging>
0

> <r_epik_Ionization_Penalty_Neutral>
1.34373e-05

> <r_epik_State_Penalty>
-0

> <r_epik_Charging_Adjusted_Penalty>
0

> <i_epik_Tot_Q>
0

> <i_epik_Tot_abs_Q>
0

> <r_epik_Metal_State_Penalty>
-0

> <b_epik_Metal_Only>
0

> <s_lp_Force_Field>
OPLS_2005

> <r_lp_Energy>
3.80917

> <b_lp_Chiralities_Consistent>
1

> <s_lp_Variant>
AV-unprocessed.smi:1511-1

> <Gold.Version>
5.8.1

> <Gold.Id.Protein>
6NUR|6NUR_protein|mol2

> <Gold.PLP.Fitness>
41.6776

> <Gold.PLP.PLP>
-38.0849

> <Gold.PLP.part.hbond>
-2.2418

> <Gold.PLP.part.metal>
0.0000

> <Gold.PLP.part.buried>
-3.4656

> <Gold.PLP.part.nonpolar>
-32.2257

> <Gold.PLP.part.repulsive>
0.1816

> <Gold.PLP.ligand.clash>
0.0000

> <Gold.PLP.ligand.torsion>
0.5956

> <Gold.PLP.Chemscore.Hbond>
1.5920

> <Gold.PLP.Chemscore.CHOScore>
0.0000

> <Gold.PLP.Chemscore.Metal>
0.0000

> <Gold.Chemscore.Hbonds>
donor molecule, donor type, donor heavy atom, donor atom, acceptor molecule, acceptor atom, score
      P1  H 10752 10763       L1    16  0.26

> <Gold.PLP.Chemscore.Internal.Correction>
0.0078

> <Gold.Rescore>
     Score         DG    S(hbond)    S(metal)    S(lipo)     H(rot)  DE(clash)    DE(int)     intcor
     10.94     -13.01       0.91        0.00      78.04       1.82       1.43       0.64       ----

> <Gold.Chemscore.Fitness>
10.9402

> <Gold.Chemscore.DG>
-13.0128

> <Gold.Chemscore.ZeroCoef>
-5.4800

> <Gold.Chemscore.Hbond>
0.9148

> <Gold.Chemscore.Metal>
0.0000

> <Gold.Chemscore.Lipo>
78.0431

> <Gold.Chemscore.Internal_Hbond>
0.0000

> <Gold.Chemscore.DEClash>
1.4306

> <Gold.Chemscore.DEInternal>
0.6420

> <Gold.Chemscore.Rot>
1.8178

> <Gold.Chemscore.Internal.Correction>
   9.000000E+99

> <Gold.Chemscore.Hbonds>
donor molecule, donor type, donor heavy atom, donor atom, acceptor molecule, acceptor atom, score
      P1  H 10752 10763       L1    16  0.25

> <Gold.Chemscore.Hbond.Weighted>
-3.0554

> <Gold.Chemscore.Metal.Weighted>
-0.0000

> <Gold.Chemscore.Lipo.Weighted>
-9.1310

> <Gold.Chemscore.Internal_Hbond.Weighted>
0.0000

> <Gold.Chemscore.DEClash.Weighted>
1.4306

> <Gold.Chemscore.DEInternal.Weighted>
0.6420

> <Gold.Chemscore.Rot.Weighted>
4.6537

> <Gold.Chemscore.Internal.Correction.Weighted>
   9.000000E+99

> <Gold.Protein.RotatedTorsions>
[ 6907 6896 6895 6894 ] final -107.84 input  -60.11 | X-H torsion
[ 7974 7965 7964 7962 ] final   71.79 input  175.53 | X-H torsion
[ 8008 7997 7996 7995 ] final   98.92 input   59.86 | X-H torsion
[ 10167 10162 10161 10158 ] final  153.51 input  -65.29 | X-H torsion
[ 10718 10713 10712 10709 ] final  -68.24 input   66.30 | X-H torsion
[ 10763 10752 10751 10750 ] final   68.57 input  -60.55 | X-H torsion
[ 11005 11000 10999 10996 ] final   40.16 input  -57.11 | X-H torsion

> <Gold.Protein.ActiveResidues>
 VAL166  LYS551  ARG553  GLY616  TRP617  ASP618  TYR619  PRO620  LYS621  CYS622 
 ASP623  PHE694  ASN695  SER759  ASP760  ASP761  ALA762  ILE779  LEU786  VAL792 
 PHE793  MET794  SER795  GLU796  ALA797  LYS798  CYS799  TRP800  GLU811  SER814 

> <Gold.Protein.RotatedAtoms>
  150.7467  133.9767  159.3562 H   0  0  0  0  0  0  0  0  0  0  0  0  # atno 6907 bound_to 6896
  151.7704  135.0785  160.0368 H   0  0  0  0  0  0  0  0  0  0  0  0  # atno 6908 bound_to 6896
  152.3342  133.5956  159.5867 H   0  0  0  0  0  0  0  0  0  0  0  0  # atno 6909 bound_to 6896
  145.7615  139.2802  143.1373 H   0  0  0  0  0  0  0  0  0  0  0  0  # atno 7974 bound_to 7965
  156.1053  140.3236  155.7997 H   0  0  0  0  0  0  0  0  0  0  0  0  # atno 8008 bound_to 7997
  155.4767  140.0551  157.2990 H   0  0  0  0  0  0  0  0  0  0  0  0  # atno 8009 bound_to 7997
  154.4723  140.2017  155.9978 H   0  0  0  0  0  0  0  0  0  0  0  0  # atno 8010 bound_to 7997
  139.4827  144.5266  151.7790 H   0  0  0  0  0  0  0  0  0  0  0  0  # atno 10167 bound_to 10162
  156.0516  130.4291  150.1971 H   0  0  0  0  0  0  0  0  0  0  0  0  # atno 10718 bound_to 10713
  153.0242  135.5242  154.7154 H   0  0  0  0  0  0  0  0  0  0  0  0  # atno 10763 bound_to 10752
  154.6225  135.2890  155.0312 H   0  0  0  0  0  0  0  0  0  0  0  0  # atno 10764 bound_to 10752
  154.1294  135.6595  153.4971 H   0  0  0  0  0  0  0  0  0  0  0  0  # atno 10765 bound_to 10752
  140.1958  134.3931  155.8122 H   0  0  0  0  0  0  0  0  0  0  0  0  # atno 11005 bound_to 11000
  146.0259  140.8304  142.9900 LP  0  0  0  0  0  0  0  0  0  0  0  0  # atno 17320 bound_to 7965
  144.6829  140.2698  143.7307 LP  0  0  0  0  0  0  0  0  0  0  0  0  # atno 17321 bound_to 7965
  140.4787  144.1481  150.5929 LP  0  0  0  0  0  0  0  0  0  0  0  0  # atno 17342 bound_to 10162
  140.4302  143.2572  151.9606 LP  0  0  0  0  0  0  0  0  0  0  0  0  # atno 17343 bound_to 10162
  157.0054  130.9935  151.3380 LP  0  0  0  0  0  0  0  0  0  0  0  0  # atno 17370 bound_to 10713
  157.5447  130.8143  149.8071 LP  0  0  0  0  0  0  0  0  0  0  0  0  # atno 17371 bound_to 10713
  141.2227  133.7069  156.8173 LP  0  0  0  0  0  0  0  0  0  0  0  0  # atno 17394 bound_to 11000
  140.2109  134.8828  157.3273 LP  0  0  0  0  0  0  0  0  0  0  0  0  # atno 17395 bound_to 11000

$$$$
