AV-unprocessed.smi:2291|AV-procd|sdf|9212|dock9
  -GOLD-   2272012433D 1   1.00000     0.00000
 Structure written by MMmdl.
 44 46  0  0  0  0  0  0  0  0  1 V2000
  148.6985  140.4270  157.0734 O   0  0  0  0  0  0  0  0  0  0  0  0
  148.8824  141.5365  156.5713 C   0  0  0  0  0  0  0  0  0  0  0  0
  149.8194  142.4186  156.9607 N   0  0  0  0  0  0  0  0  0  0  0  0
  150.7584  142.2916  158.0188 C   0  0  0  0  0  0  0  0  0  0  0  0
  151.2709  143.5125  158.5132 C   0  0  0  0  0  0  0  0  0  0  0  0
  152.2056  143.4963  159.5665 C   0  0  0  0  0  0  0  0  0  0  0  0
  152.6046  142.2565  160.0971 C   0  0  0  0  0  0  0  0  0  0  0  0
  153.7451  142.1728  161.3889 Cl  0  0  0  0  0  0  0  0  0  0  0  0
  152.0487  141.0868  159.5468 C   0  0  0  0  0  0  0  0  0  0  0  0
  151.1525  141.1013  158.5374 N   0  0  0  0  0  0  0  0  0  0  0  0
  148.1526  142.0240  155.5525 N   0  0  0  0  0  0  0  0  0  0  0  0
  147.0116  141.3812  154.8855 C   0  0  0  0  0  0  0  0  0  0  0  0
  145.6907  141.8713  155.5397 C   0  0  0  0  0  0  0  0  0  0  0  0
  144.9491  141.0537  156.0872 O   0  0  0  0  0  0  0  0  0  0  0  0
  145.3780  143.1746  155.4574 N   0  0  0  0  0  0  0  0  0  0  0  0
  144.1676  143.7832  155.9923 C   0  0  0  0  0  0  0  0  0  0  0  0
  143.4024  144.6527  155.0131 C   0  0  0  0  0  0  0  0  0  0  0  0
  144.0919  145.2923  153.8298 C   0  0  0  0  0  0  0  0  0  0  0  0
  143.6267  146.1466  154.9837 C   0  0  0  0  0  0  0  0  0  0  0  0
  147.0313  141.7834  153.3799 C   0  0  0  0  0  0  0  0  0  0  0  0
  147.1803  140.4994  152.5563 C   0  0  0  0  0  0  0  0  0  0  0  0
  146.7002  139.3858  153.4762 C   0  0  0  0  0  0  0  0  0  0  0  0
  147.1900  139.8332  154.8494 C   0  0  0  0  0  0  0  0  0  0  0  0
  149.8516  143.2910  156.4545 H   0  0  0  0  0  0  0  0  0  0  0  0
  150.9517  144.4559  158.0942 H   0  0  0  0  0  0  0  0  0  0  0  0
  152.6067  144.4191  159.9587 H   0  0  0  0  0  0  0  0  0  0  0  0
  152.3288  140.1147  159.9251 H   0  0  0  0  0  0  0  0  0  0  0  0
  148.3883  142.9468  155.2189 H   0  0  0  0  0  0  0  0  0  0  0  0
  146.0218  143.7855  154.9755 H   0  0  0  0  0  0  0  0  0  0  0  0
  143.5101  142.9753  156.3140 H   0  0  0  0  0  0  0  0  0  0  0  0
  144.4051  144.3581  156.8891 H   0  0  0  0  0  0  0  0  0  0  0  0
  142.3732  144.3343  154.8574 H   0  0  0  0  0  0  0  0  0  0  0  0
  145.1635  145.1359  153.7206 H   0  0  0  0  0  0  0  0  0  0  0  0
  143.5331  145.3523  152.8983 H   0  0  0  0  0  0  0  0  0  0  0  0
  142.7586  146.7821  154.8207 H   0  0  0  0  0  0  0  0  0  0  0  0
  144.3894  146.5586  155.6419 H   0  0  0  0  0  0  0  0  0  0  0  0
  146.1083  142.2793  153.0743 H   0  0  0  0  0  0  0  0  0  0  0  0
  147.8364  142.4801  153.1410 H   0  0  0  0  0  0  0  0  0  0  0  0
  146.6258  140.5356  151.6181 H   0  0  0  0  0  0  0  0  0  0  0  0
  148.2318  140.3416  152.3126 H   0  0  0  0  0  0  0  0  0  0  0  0
  145.6105  139.3343  153.4667 H   0  0  0  0  0  0  0  0  0  0  0  0
  147.0874  138.4078  153.1893 H   0  0  0  0  0  0  0  0  0  0  0  0
  148.2488  139.5795  154.9268 H   0  0  0  0  0  0  0  0  0  0  0  0
  146.6993  139.2866  155.6544 H   0  0  0  0  0  0  0  0  0  0  0  0
  1  2  2  0  0  0  0
  2  3  1  0  0  0  0
  2 11  1  0  0  0  0
  3  4  1  0  0  0  0
  3 24  1  0  0  0  0
  4 10  1  0  0  0  0
  4  5  2  0  0  0  0
  5  6  1  0  0  0  0
  5 25  1  0  0  0  0
  6  7  2  0  0  0  0
  6 26  1  0  0  0  0
  7  8  1  0  0  0  0
  7  9  1  0  0  0  0
  9 10  2  0  0  0  0
  9 27  1  0  0  0  0
 11 12  1  0  0  0  0
 11 28  1  0  0  0  0
 12 23  1  0  0  0  0
 12 13  1  0  0  0  0
 12 20  1  0  0  0  0
 13 14  2  0  0  0  0
 13 15  1  0  0  0  0
 15 16  1  0  0  0  0
 15 29  1  0  0  0  0
 16 17  1  0  0  0  0
 16 30  1  0  0  0  0
 16 31  1  0  0  0  0
 17 19  1  0  0  0  0
 17 18  1  0  0  0  0
 17 32  1  0  0  0  0
 18 19  1  0  0  0  0
 18 33  1  0  0  0  0
 18 34  1  0  0  0  0
 19 35  1  0  0  0  0
 19 36  1  0  0  0  0
 20 21  1  0  0  0  0
 20 37  1  0  0  0  0
 20 38  1  0  0  0  0
 21 22  1  0  0  0  0
 21 39  1  0  0  0  0
 21 40  1  0  0  0  0
 22 23  1  0  0  0  0
 22 41  1  0  0  0  0
 22 42  1  0  0  0  0
 23 43  1  0  0  0  0
 23 44  1  0  0  0  0
M  END
> <s_m_source_file>
AV-unprocessed.smi

> <i_m_source_file_index>
2291

> <i_lp_mmshare_version>
43012

> <i_f3d_flags>
0

> <s_epik_input>
bjFbY0hdYyhDbClbY0hdW2NIXWMxW05IXUMoPU8pW05IXUMyKFtDSDJdW0NIMl1bQ0gyXVtDSDJdMilDKD1PKVtOSF1bQ0gyXVtDSF0zW0NIMl1bQ0gyXTM=

> <s_epik_cmdline>
J2VwaWtfcHl0aG9uJywgJy1waCcsICc3LjAnLCAnLXRuJywgJzgnLCAnLW1hJywgJzIwMCcsICctbWV0YWxfYmluZGluZycsICctaW1hZScsICc8aW5maWxlLm1hZT4nLCAnLW9tYWUnLCAnPG91dGZpbGUubWFlPic=

> <r_lp_tautomer_probability>
1

> <r_epik_Ionization_Penalty>
3.27384e-05

> <r_epik_Ionization_Penalty_Charging>
0

> <r_epik_Ionization_Penalty_Neutral>
3.27384e-05

> <r_epik_State_Penalty>
-0

> <r_epik_Charging_Adjusted_Penalty>
0

> <i_epik_Tot_Q>
0

> <i_epik_Tot_abs_Q>
0

> <r_epik_Metal_State_Penalty>
-0

> <b_epik_Metal_Only>
0

> <s_lp_Force_Field>
OPLS_2005

> <r_lp_Energy>
31.8647

> <b_lp_Chiralities_Consistent>
1

> <s_lp_Variant>
AV-unprocessed.smi:2291-1

> <Gold.Version>
5.8.1

> <Gold.Id.Protein>
6NUR|6NUR_protein|mol2

> <Gold.PLP.Fitness>
41.5084

> <Gold.PLP.PLP>
-37.4660

> <Gold.PLP.part.hbond>
-2.0000

> <Gold.PLP.part.metal>
0.0000

> <Gold.PLP.part.buried>
-5.1503

> <Gold.PLP.part.nonpolar>
-31.3107

> <Gold.PLP.part.repulsive>
0.2102

> <Gold.PLP.ligand.clash>
0.0000

> <Gold.PLP.ligand.torsion>
1.2459

> <Gold.PLP.Chemscore.Hbond>
1.9680

> <Gold.PLP.Chemscore.CHOScore>
0.0000

> <Gold.PLP.Chemscore.Metal>
0.0000

> <Gold.Chemscore.Hbonds>
donor molecule, donor type, donor heavy atom, donor atom, acceptor molecule, acceptor atom, score
      L1  H     3    24       P1  8028  0.96
      L1  H    11    28       P1  8028  0.96

> <Gold.PLP.Chemscore.Internal.Correction>
0.6302

> <Gold.Rescore>
     Score         DG    S(hbond)    S(metal)    S(lipo)     H(rot)  DE(clash)    DE(int)     intcor
     15.10     -19.21       1.90        0.00     100.39       1.71       0.34       3.78       ----

> <Gold.Chemscore.Fitness>
15.0962

> <Gold.Chemscore.DG>
-19.2094

> <Gold.Chemscore.ZeroCoef>
-5.4800

> <Gold.Chemscore.Hbond>
1.9014

> <Gold.Chemscore.Metal>
0.0000

> <Gold.Chemscore.Lipo>
100.3901

> <Gold.Chemscore.Internal_Hbond>
0.0000

> <Gold.Chemscore.DEClash>
0.3367

> <Gold.Chemscore.DEInternal>
3.7765

> <Gold.Chemscore.Rot>
1.7059

> <Gold.Chemscore.Internal.Correction>
   9.000000E+99

> <Gold.Chemscore.Hbonds>
donor molecule, donor type, donor heavy atom, donor atom, acceptor molecule, acceptor atom, score
      L1  H     3    24       P1  8028  0.92
      L1  H    11    28       P1  8028  0.92

> <Gold.Chemscore.Hbond.Weighted>
-6.3508

> <Gold.Chemscore.Metal.Weighted>
-0.0000

> <Gold.Chemscore.Lipo.Weighted>
-11.7456

> <Gold.Chemscore.Internal_Hbond.Weighted>
0.0000

> <Gold.Chemscore.DEClash.Weighted>
0.3367

> <Gold.Chemscore.DEInternal.Weighted>
3.7765

> <Gold.Chemscore.Rot.Weighted>
4.3671

> <Gold.Chemscore.Internal.Correction.Weighted>
   9.000000E+99

> <Gold.Protein.RotatedTorsions>
[ 6907 6896 6895 6894 ] final   78.87 input  -60.11 | X-H torsion
[ 7974 7965 7964 7962 ] final  -64.90 input  175.53 | X-H torsion
[ 8008 7997 7996 7995 ] final -159.65 input   59.86 | X-H torsion
[ 10167 10162 10161 10158 ] final    4.78 input  -65.29 | X-H torsion
[ 10718 10713 10712 10709 ] final  115.03 input   66.30 | X-H torsion
[ 10763 10752 10751 10750 ] final  162.66 input  -60.55 | X-H torsion
[ 11005 11000 10999 10996 ] final  -58.88 input  -57.11 | X-H torsion

> <Gold.Protein.ActiveResidues>
 VAL166  LYS551  ARG553  GLY616  TRP617  ASP618  TYR619  PRO620  LYS621  CYS622 
 ASP623  PHE694  ASN695  SER759  ASP760  ASP761  ALA762  ILE779  LEU786  VAL792 
 PHE793  MET794  SER795  GLU796  ALA797  LYS798  CYS799  TRP800  GLU811  SER814 

> <Gold.Protein.RotatedAtoms>
  152.5177  134.3597  159.9280 H   0  0  0  0  0  0  0  0  0  0  0  0  # atno 6907 bound_to 6896
  151.3549  133.3905  159.2691 H   0  0  0  0  0  0  0  0  0  0  0  0  # atno 6908 bound_to 6896
  150.9697  134.9091  159.7839 H   0  0  0  0  0  0  0  0  0  0  0  0  # atno 6909 bound_to 6896
  145.7609  140.8862  143.0430 H   0  0  0  0  0  0  0  0  0  0  0  0  # atno 7974 bound_to 7965
  155.7657  140.0845  157.2133 H   0  0  0  0  0  0  0  0  0  0  0  0  # atno 8008 bound_to 7997
  154.4000  140.1534  156.2941 H   0  0  0  0  0  0  0  0  0  0  0  0  # atno 8009 bound_to 7997
  155.8796  140.3421  155.5881 H   0  0  0  0  0  0  0  0  0  0  0  0  # atno 8010 bound_to 7997
  140.6517  143.7529  150.7585 H   0  0  0  0  0  0  0  0  0  0  0  0  # atno 10167 bound_to 10162
  157.6246  131.1007  150.7271 H   0  0  0  0  0  0  0  0  0  0  0  0  # atno 10718 bound_to 10713
  154.2817  135.2763  155.2694 H   0  0  0  0  0  0  0  0  0  0  0  0  # atno 10763 bound_to 10752
  154.5212  135.5756  153.6686 H   0  0  0  0  0  0  0  0  0  0  0  0  # atno 10764 bound_to 10752
  152.9928  135.6205  154.2977 H   0  0  0  0  0  0  0  0  0  0  0  0  # atno 10765 bound_to 10752
  141.1226  133.6614  156.4987 H   0  0  0  0  0  0  0  0  0  0  0  0  # atno 11005 bound_to 11000
  144.6830  139.9722  143.7482 LP  0  0  0  0  0  0  0  0  0  0  0  0  # atno 17320 bound_to 7965
  146.0264  139.3296  143.0781 LP  0  0  0  0  0  0  0  0  0  0  0  0  # atno 17321 bound_to 7965
  140.1181  143.4637  152.2330 LP  0  0  0  0  0  0  0  0  0  0  0  0  # atno 17342 bound_to 10162
  139.5733  144.7474  151.3833 LP  0  0  0  0  0  0  0  0  0  0  0  0  # atno 17343 bound_to 10162
  156.7622  130.4802  149.5434 LP  0  0  0  0  0  0  0  0  0  0  0  0  # atno 17370 bound_to 10713
  156.1411  130.6245  151.0468 LP  0  0  0  0  0  0  0  0  0  0  0  0  # atno 17371 bound_to 10713
  140.4463  134.6969  157.5017 LP  0  0  0  0  0  0  0  0  0  0  0  0  # atno 17394 bound_to 11000
  140.0195  134.6568  155.9260 LP  0  0  0  0  0  0  0  0  0  0  0  0  # atno 17395 bound_to 11000

$$$$
