AV-unprocessed.smi:1485|AV-procd|sdf|6004|dock3
  -GOLD-   22720 6103D 1   1.00000     0.00000
 Structure written by MMmdl.
 44 45  0  0  0  0  0  0  0  0  1 V2000
  150.4203  134.1033  154.8687 C   0  0  0  0  0  0  0  0  0  0  0  0
  151.2757  135.1315  155.3354 O   0  0  0  0  0  0  0  0  0  0  0  0
  150.5658  136.3034  155.7031 C   0  0  0  0  0  0  0  0  0  0  0  0
  150.6201  137.3250  154.5485 C   0  0  0  0  0  0  0  0  0  0  0  0
  150.4544  138.7246  154.9809 N   0  0  0  0  0  0  0  0  0  0  0  0
  151.2246  139.0868  156.0745 N   0  0  0  0  0  0  0  0  0  0  0  0
  151.2015  140.2993  156.5228 C   0  0  0  0  0  0  0  0  0  0  0  0
  152.0682  140.7274  157.6542 C   0  0  0  0  0  0  0  0  0  0  0  0
  153.0125  140.0423  158.0499 O   0  0  0  0  0  0  0  0  0  0  0  0
  151.7223  141.8979  158.2190 N   0  0  0  0  0  0  0  0  0  0  0  0
  152.3204  142.4901  159.4121 C   0  0  1  0  0  0  0  0  0  0  0  0
  153.3212  143.5914  159.0135 C   0  0  0  0  0  0  0  0  0  0  0  0
  152.6200  144.8248  158.4178 C   0  0  0  0  0  0  0  0  0  0  0  0
  151.5410  145.3688  159.3673 C   0  0  0  0  0  0  0  0  0  0  0  0
  150.5139  144.2829  159.7398 C   0  0  2  0  0  0  0  0  0  0  0  0
  149.4363  144.8302  160.6860 C   0  0  0  0  0  0  0  0  0  0  0  0
  151.2253  143.0526  160.3434 C   0  0  0  0  0  0  0  0  0  0  0  0
  150.3362  141.2974  155.9205 C   0  0  0  0  0  0  0  0  0  0  0  0
  149.5630  140.9256  154.8769 C   0  0  0  0  0  0  0  0  0  0  0  0
  149.5809  139.5623  154.3419 C   0  0  0  0  0  0  0  0  0  0  0  0
  148.8686  139.2050  153.4041 O   0  0  0  0  0  0  0  0  0  0  0  0
  151.0123  133.2306  154.5934 H   0  0  0  0  0  0  0  0  0  0  0  0
  149.8615  134.4231  153.9884 H   0  0  0  0  0  0  0  0  0  0  0  0
  149.7133  133.7987  155.6415 H   0  0  0  0  0  0  0  0  0  0  0  0
  149.5263  136.0463  155.9121 H   0  0  0  0  0  0  0  0  0  0  0  0
  150.9730  136.7285  156.6223 H   0  0  0  0  0  0  0  0  0  0  0  0
  151.5650  137.1770  154.0237 H   0  0  0  0  0  0  0  0  0  0  0  0
  149.8354  137.0977  153.8262 H   0  0  0  0  0  0  0  0  0  0  0  0
  150.9361  142.3905  157.8198 H   0  0  0  0  0  0  0  0  0  0  0  0
  152.8723  141.7162  159.9482 H   0  0  0  0  0  0  0  0  0  0  0  0
  153.8862  143.8954  159.8958 H   0  0  0  0  0  0  0  0  0  0  0  0
  154.0528  143.1987  158.3062 H   0  0  0  0  0  0  0  0  0  0  0  0
  153.3555  145.6022  158.2095 H   0  0  0  0  0  0  0  0  0  0  0  0
  152.1672  144.5672  157.4595 H   0  0  0  0  0  0  0  0  0  0  0  0
  152.0145  145.7540  160.2713 H   0  0  0  0  0  0  0  0  0  0  0  0
  151.0372  146.2147  158.8987 H   0  0  0  0  0  0  0  0  0  0  0  0
  150.0095  143.9710  158.8242 H   0  0  0  0  0  0  0  0  0  0  0  0
  149.8666  145.1502  161.6355 H   0  0  0  0  0  0  0  0  0  0  0  0
  148.6816  144.0730  160.8999 H   0  0  0  0  0  0  0  0  0  0  0  0
  148.9260  145.6873  160.2454 H   0  0  0  0  0  0  0  0  0  0  0  0
  150.4969  142.2740  160.5742 H   0  0  0  0  0  0  0  0  0  0  0  0
  151.6797  143.3305  161.2953 H   0  0  0  0  0  0  0  0  0  0  0  0
  150.3032  142.3105  156.2946 H   0  0  0  0  0  0  0  0  0  0  0  0
  148.9119  141.6564  154.4198 H   0  0  0  0  0  0  0  0  0  0  0  0
  1  2  1  0  0  0  0
  1 22  1  0  0  0  0
  1 23  1  0  0  0  0
  1 24  1  0  0  0  0
  2  3  1  0  0  0  0
  3  4  1  0  0  0  0
  3 25  1  0  0  0  0
  3 26  1  0  0  0  0
  4  5  1  0  0  0  0
  4 27  1  0  0  0  0
  4 28  1  0  0  0  0
  5 20  1  0  0  0  0
  5  6  1  0  0  0  0
  6  7  2  0  0  0  0
  7  8  1  0  0  0  0
  7 18  1  0  0  0  0
  8  9  2  0  0  0  0
  8 10  1  0  0  0  0
 10 11  1  0  0  0  0
 10 29  1  0  0  0  0
 11 17  1  0  0  0  0
 11 12  1  0  0  0  0
 11 30  1  0  0  0  0
 12 13  1  0  0  0  0
 12 31  1  0  0  0  0
 12 32  1  0  0  0  0
 13 14  1  0  0  0  0
 13 33  1  0  0  0  0
 13 34  1  0  0  0  0
 14 15  1  0  0  0  0
 14 35  1  0  0  0  0
 14 36  1  0  0  0  0
 15 16  1  0  0  0  0
 15 17  1  0  0  0  0
 15 37  1  0  0  0  0
 16 38  1  0  0  0  0
 16 39  1  0  0  0  0
 16 40  1  0  0  0  0
 17 41  1  0  0  0  0
 17 42  1  0  0  0  0
 18 19  2  0  0  0  0
 18 43  1  0  0  0  0
 19 20  1  0  0  0  0
 19 44  1  0  0  0  0
 20 21  2  0  0  0  0
M  END
> <s_m_source_file>
AV-unprocessed.smi

> <i_m_source_file_index>
1485

> <i_lp_mmshare_version>
43012

> <i_f3d_flags>
0

> <s_epik_input>
W0NIM11PW0NIMl1bQ0gyXW4xbmMoW2NIXVtjSF1jMT1PKUMoPU8pW05IXVtDQEBIXTJbQ0gyXVtDSDJdW0NIMl1bQ0BASF0oW0NIM10pW0NIMl0y

> <s_epik_cmdline>
J2VwaWtfcHl0aG9uJywgJy1waCcsICc3LjAnLCAnLXRuJywgJzgnLCAnLW1hJywgJzIwMCcsICctbWV0YWxfYmluZGluZycsICctaW1hZScsICc8aW5maWxlLm1hZT4nLCAnLW9tYWUnLCAnPG91dGZpbGUubWFlPic=

> <r_lp_tautomer_probability>
1

> <r_epik_Ionization_Penalty>
6.4688e-07

> <r_epik_Ionization_Penalty_Charging>
6.63567e-09

> <r_epik_Ionization_Penalty_Neutral>
6.40245e-07

> <r_epik_State_Penalty>
-0

> <r_epik_Charging_Adjusted_Penalty>
6.63567e-09

> <i_epik_Tot_Q>
0

> <i_epik_Tot_abs_Q>
0

> <r_epik_Metal_State_Penalty>
-0

> <b_epik_Metal_Only>
0

> <s_lp_Force_Field>
OPLS_2005

> <r_lp_Energy>
30.8996

> <b_lp_Chiralities_Consistent>
1

> <s_lp_Variant>
AV-unprocessed.smi:1485-4

> <Gold.Version>
5.8.1

> <Gold.Id.Protein>
6NUR|6NUR_protein|mol2

> <Gold.PLP.Fitness>
41.7311

> <Gold.PLP.PLP>
-37.7738

> <Gold.PLP.part.hbond>
-2.0000

> <Gold.PLP.part.metal>
0.0000

> <Gold.PLP.part.buried>
-3.6662

> <Gold.PLP.part.nonpolar>
-35.1636

> <Gold.PLP.part.repulsive>
3.2861

> <Gold.PLP.ligand.clash>
0.0000

> <Gold.PLP.ligand.torsion>
0.8836

> <Gold.PLP.Chemscore.Hbond>
1.8960

> <Gold.PLP.Chemscore.CHOScore>
0.0000

> <Gold.PLP.Chemscore.Metal>
0.0000

> <Gold.Chemscore.Hbonds>
donor molecule, donor type, donor heavy atom, donor atom, acceptor molecule, acceptor atom, score
      P1  H  7997  8009       L1     9  1.00
      P1  H 10752 10763       L1     2  0.91

> <Gold.PLP.Chemscore.Internal.Correction>
0.0366

> <Gold.Rescore>
     Score         DG    S(hbond)    S(metal)    S(lipo)     H(rot)  DE(clash)    DE(int)     intcor
     19.16     -20.95       1.83        0.00     113.74       1.55       0.89       0.90       ----

> <Gold.Chemscore.Fitness>
19.1570

> <Gold.Chemscore.DG>
-20.9511

> <Gold.Chemscore.ZeroCoef>
-5.4800

> <Gold.Chemscore.Hbond>
1.8342

> <Gold.Chemscore.Metal>
0.0000

> <Gold.Chemscore.Lipo>
113.7357

> <Gold.Chemscore.Internal_Hbond>
0.0000

> <Gold.Chemscore.DEClash>
0.8908

> <Gold.Chemscore.DEInternal>
0.9032

> <Gold.Chemscore.Rot>
1.5478

> <Gold.Chemscore.Internal.Correction>
   9.000000E+99

> <Gold.Chemscore.Hbonds>
donor molecule, donor type, donor heavy atom, donor atom, acceptor molecule, acceptor atom, score
      P1  H  7997  8009       L1     9  0.91
      P1  H 10752 10763       L1     2  0.73

> <Gold.Chemscore.Hbond.Weighted>
-6.1262

> <Gold.Chemscore.Metal.Weighted>
-0.0000

> <Gold.Chemscore.Lipo.Weighted>
-13.3071

> <Gold.Chemscore.Internal_Hbond.Weighted>
0.0000

> <Gold.Chemscore.DEClash.Weighted>
0.8908

> <Gold.Chemscore.DEInternal.Weighted>
0.9032

> <Gold.Chemscore.Rot.Weighted>
3.9623

> <Gold.Chemscore.Internal.Correction.Weighted>
   9.000000E+99

> <Gold.Protein.RotatedTorsions>
[ 6907 6896 6895 6894 ] final   60.94 input  -60.11 | X-H torsion
[ 7974 7965 7964 7962 ] final  -33.04 input  175.53 | X-H torsion
[ 8008 7997 7996 7995 ] final  151.01 input   59.86 | X-H torsion
[ 10167 10162 10161 10158 ] final  -26.14 input  -65.29 | X-H torsion
[ 10718 10713 10712 10709 ] final  101.14 input   66.30 | X-H torsion
[ 10763 10752 10751 10750 ] final   64.24 input  -60.55 | X-H torsion
[ 11005 11000 10999 10996 ] final  153.68 input  -57.11 | X-H torsion

> <Gold.Protein.ActiveResidues>
 VAL166  LYS551  ARG553  GLY616  TRP617  ASP618  TYR619  PRO620  LYS621  CYS622 
 ASP623  PHE694  ASN695  SER759  ASP760  ASP761  ALA762  ILE779  LEU786  VAL792 
 PHE793  MET794  SER795  GLU796  ALA797  LYS798  CYS799  TRP800  GLU811  SER814 

> <Gold.Protein.RotatedAtoms>
  152.4046  134.6228  160.0054 H   0  0  0  0  0  0  0  0  0  0  0  0  # atno 6907 bound_to 6896
  151.6423  133.3319  159.3141 H   0  0  0  0  0  0  0  0  0  0  0  0  # atno 6908 bound_to 6896
  150.7943  134.7032  159.6606 H   0  0  0  0  0  0  0  0  0  0  0  0  # atno 6909 bound_to 6896
  146.0942  140.5867  142.8850 H   0  0  0  0  0  0  0  0  0  0  0  0  # atno 7974 bound_to 7965
  156.2692  140.2059  156.6108 H   0  0  0  0  0  0  0  0  0  0  0  0  # atno 8008 bound_to 7997
  154.6833  140.0537  157.0312 H   0  0  0  0  0  0  0  0  0  0  0  0  # atno 8009 bound_to 7997
  155.0970  140.3202  155.4560 H   0  0  0  0  0  0  0  0  0  0  0  0  # atno 8010 bound_to 7997
  140.7284  143.4204  151.0961 H   0  0  0  0  0  0  0  0  0  0  0  0  # atno 10167 bound_to 10162
  157.6837  131.0718  150.5207 H   0  0  0  0  0  0  0  0  0  0  0  0  # atno 10718 bound_to 10713
  153.0048  135.5400  154.6479 H   0  0  0  0  0  0  0  0  0  0  0  0  # atno 10763 bound_to 10752
  154.5718  135.2842  155.0821 H   0  0  0  0  0  0  0  0  0  0  0  0  # atno 10764 bound_to 10752
  154.1984  135.6488  153.5132 H   0  0  0  0  0  0  0  0  0  0  0  0  # atno 10765 bound_to 10752
  140.1420  134.8732  157.2344 H   0  0  0  0  0  0  0  0  0  0  0  0  # atno 11005 bound_to 11000
  144.7383  140.4871  143.6887 LP  0  0  0  0  0  0  0  0  0  0  0  0  # atno 17320 bound_to 7965
  145.5979  139.1501  143.3145 LP  0  0  0  0  0  0  0  0  0  0  0  0  # atno 17321 bound_to 7965
  139.7849  143.8302  152.3143 LP  0  0  0  0  0  0  0  0  0  0  0  0  # atno 17342 bound_to 10162
  139.8266  144.7272  150.9504 LP  0  0  0  0  0  0  0  0  0  0  0  0  # atno 17343 bound_to 10162
  156.5521  130.4234  149.6103 LP  0  0  0  0  0  0  0  0  0  0  0  0  # atno 17370 bound_to 10713
  156.2894  130.7115  151.1960 LP  0  0  0  0  0  0  0  0  0  0  0  0  # atno 17371 bound_to 10713
  140.2710  134.3460  155.7373 LP  0  0  0  0  0  0  0  0  0  0  0  0  # atno 17394 bound_to 11000
  141.2187  133.7423  156.9223 LP  0  0  0  0  0  0  0  0  0  0  0  0  # atno 17395 bound_to 11000

$$$$
