AV-unprocessed.smi:2032|AV-procd|sdf|8245|dock2
  -GOLD-   2272010513D 1   1.00000     0.00000
 Structure written by MMmdl.
 41 42  0  0  0  0  0  0  0  0  2 V2000
  148.6902  141.8259  156.3077 C   0  0  0  0  0  0  0  0  0  0  0  0
  150.1746  141.5900  155.9795 C   0  0  2  0  0  0  0  0  0  0  0  0
  150.6782  140.1940  156.3969 C   0  0  0  0  0  0  0  0  0  0  0  0
  150.8618  140.0400  157.8447 N   0  0  0  0  0  0  0  0  0  0  0  0
  151.3709  138.6958  158.2092 C   0  0  2  0  0  0  0  0  0  0  0  0
  152.5563  138.2444  157.3177 C   0  0  0  0  0  0  0  0  0  0  0  0
  150.2729  137.5914  158.1852 C   0  0  0  0  0  0  0  0  0  0  0  0
  149.3047  137.7036  159.2739 N   0  0  0  0  0  0  0  0  0  0  0  0
  148.7024  136.6829  159.9009 C   0  0  0  0  0  0  0  0  0  0  0  0
  148.9643  135.5217  159.5782 O   0  0  0  0  0  0  0  0  0  0  0  0
  147.8305  137.0721  160.8588 N   0  5  0  0  0  0  0  0  0  0  0  0
  147.0758  136.1603  161.4931 C   0  0  0  0  0  0  0  0  0  0  0  0
  145.8316  136.4103  161.9174 N   0  0  0  0  0  0  0  0  0  0  0  0
  145.2275  135.3168  162.5406 C   0  0  0  0  0  0  0  0  0  0  0  0
  146.0266  134.2054  162.5840 C   0  0  0  0  0  0  0  0  0  0  0  0
  147.5722  134.5014  161.8403 S   0  0  0  0  0  0  0  0  0  0  0  0
  151.7356  141.1234  158.3043 C   0  0  0  0  0  0  0  0  0  0  0  0
  151.2009  142.5198  157.9380 C   0  0  1  0  0  0  0  0  0  0  0  0
  152.1686  143.6334  158.3526 C   0  0  0  0  0  0  0  0  0  0  0  0
  151.0100  142.6054  156.5301 O   0  0  0  0  0  0  0  0  0  0  0  0
  148.0591  141.1126  155.7774 H   0  0  0  0  0  0  0  0  0  0  0  0
  148.3800  142.8270  156.0087 H   0  0  0  0  0  0  0  0  0  0  0  0
  148.4822  141.7139  157.3715 H   0  0  0  0  0  0  0  0  0  0  0  0
  150.2749  141.6698  154.8967 H   0  0  0  0  0  0  0  0  0  0  0  0
  149.9638  139.4668  156.0157 H   0  0  0  0  0  0  0  0  0  0  0  0
  151.6246  139.9952  155.8915 H   0  0  0  0  0  0  0  0  0  0  0  0
  151.7475  138.7494  159.2317 H   0  0  0  0  0  0  0  0  0  0  0  0
  152.8965  137.2369  157.5548 H   0  0  0  0  0  0  0  0  0  0  0  0
  153.4356  138.8733  157.4474 H   0  0  0  0  0  0  0  0  0  0  0  0
  152.2827  138.2574  156.2625 H   0  0  0  0  0  0  0  0  0  0  0  0
  149.6996  137.6035  157.2592 H   0  0  0  0  0  0  0  0  0  0  0  0
  150.7372  136.6068  158.2478 H   0  0  0  0  0  0  0  0  0  0  0  0
  149.0611  138.6368  159.5715 H   0  0  0  0  0  0  0  0  0  0  0  0
  144.2228  135.4186  162.9229 H   0  0  0  0  0  0  0  0  0  0  0  0
  145.8022  133.2364  163.0034 H   0  0  0  0  0  0  0  0  0  0  0  0
  151.8353  141.1036  159.3873 H   0  0  0  0  0  0  0  0  0  0  0  0
  152.7366  140.9908  157.8909 H   0  0  0  0  0  0  0  0  0  0  0  0
  150.2504  142.6890  158.4446 H   0  0  0  0  0  0  0  0  0  0  0  0
  152.3395  143.6240  159.4294 H   0  0  0  0  0  0  0  0  0  0  0  0
  151.7712  144.6137  158.0883 H   0  0  0  0  0  0  0  0  0  0  0  0
  153.1344  143.5208  157.8590 H   0  0  0  0  0  0  0  0  0  0  0  0
  1  2  1  0  0  0  0
  1 21  1  0  0  0  0
  1 22  1  0  0  0  0
  1 23  1  0  0  0  0
  2 20  1  0  0  0  0
  2  3  1  0  0  0  0
  2 24  1  0  0  0  0
  3  4  1  0  0  0  0
  3 25  1  0  0  0  0
  3 26  1  0  0  0  0
  4  5  1  0  0  0  0
  4 17  1  0  0  0  0
  5  6  1  0  0  0  0
  5  7  1  0  0  0  0
  5 27  1  0  0  0  0
  6 28  1  0  0  0  0
  6 29  1  0  0  0  0
  6 30  1  0  0  0  0
  7  8  1  0  0  0  0
  7 31  1  0  0  0  0
  7 32  1  0  0  0  0
  8  9  1  0  0  0  0
  8 33  1  0  0  0  0
  9 10  2  0  0  0  0
  9 11  1  0  0  0  0
 11 12  1  0  0  0  0
 12 16  1  0  0  0  0
 12 13  2  0  0  0  0
 13 14  1  0  0  0  0
 14 15  2  0  0  0  0
 14 34  1  0  0  0  0
 15 16  1  0  0  0  0
 15 35  1  0  0  0  0
 17 18  1  0  0  0  0
 17 36  1  0  0  0  0
 17 37  1  0  0  0  0
 18 19  1  0  0  0  0
 18 20  1  0  0  0  0
 18 38  1  0  0  0  0
 19 39  1  0  0  0  0
 19 40  1  0  0  0  0
 19 41  1  0  0  0  0
M  CHG  1  11  -1
M  END
> <s_m_source_file>
AV-unprocessed.smi

> <i_m_source_file_index>
2032

> <i_lp_mmshare_version>
43012

> <i_f3d_flags>
0

> <s_epik_input>
W0NIM11bQ0BASF0xW0NIMl1OKFtDSDJdW0NASF0oTzEpW0NIM10pW0NASF0oW0NIM10pW0NIMl1bTkhdQyg9TylbTkhdYzJuW2NIXVtjSF1zMg==

> <s_epik_cmdline>
J2VwaWtfcHl0aG9uJywgJy1waCcsICc3LjAnLCAnLXRuJywgJzgnLCAnLW1hJywgJzIwMCcsICctbWV0YWxfYmluZGluZycsICctaW1hZScsICc8aW5maWxlLm1hZT4nLCAnLW9tYWUnLCAnPG91dGZpbGUubWFlPic=

> <r_lp_tautomer_probability>
0.999

> <r_epik_Ionization_Penalty>
7.22375

> <r_epik_Ionization_Penalty_Charging>
5.82415

> <r_epik_Ionization_Penalty_Neutral>
1.39959

> <r_epik_State_Penalty>
6.03347

> <r_epik_Charging_Adjusted_Penalty>
11.8576

> <i_epik_Tot_Q>
-1

> <i_epik_Tot_abs_Q>
1

> <r_epik_Metal_State_Penalty>
2.01024

> <b_epik_Metal_Only>
1

> <s_lp_Force_Field>
OPLS_2005

> <r_lp_Energy>
26.7208

> <b_lp_Chiralities_Consistent>
1

> <s_lp_Variant>
AV-unprocessed.smi:2032-15

> <Gold.Version>
5.8.1

> <Gold.Id.Protein>
6NUR|6NUR_protein|mol2

> <Gold.PLP.Fitness>
43.4864

> <Gold.PLP.PLP>
-31.2770

> <Gold.PLP.part.hbond>
-3.0000

> <Gold.PLP.part.metal>
0.0000

> <Gold.PLP.part.buried>
-3.2062

> <Gold.PLP.part.nonpolar>
-25.7903

> <Gold.PLP.part.repulsive>
0.5602

> <Gold.PLP.ligand.clash>
0.0000

> <Gold.PLP.ligand.torsion>
0.7822

> <Gold.PLP.Chemscore.Hbond>
4.5520

> <Gold.PLP.Chemscore.CHOScore>
0.0000

> <Gold.PLP.Chemscore.Metal>
0.0000

> <Gold.Chemscore.Hbonds>
donor molecule, donor type, donor heavy atom, donor atom, acceptor molecule, acceptor atom, score
      P1  H  6896  6908       L1    10  1.00
      P1  H  6931  6943       L1    11  1.76
      P1  H  6934  6947       L1    11  1.63

> <Gold.PLP.Chemscore.Internal.Correction>
0.1179

> <Gold.Rescore>
     Score         DG    S(hbond)    S(metal)    S(lipo)     H(rot)  DE(clash)    DE(int)     intcor
     14.97     -17.35       1.89        0.00      81.32       1.54       0.70       1.68       ----

> <Gold.Chemscore.Fitness>
14.9722

> <Gold.Chemscore.DG>
-17.3497

> <Gold.Chemscore.ZeroCoef>
-5.4800

> <Gold.Chemscore.Hbond>
1.8880

> <Gold.Chemscore.Metal>
0.0000

> <Gold.Chemscore.Lipo>
81.3157

> <Gold.Chemscore.Internal_Hbond>
0.0000

> <Gold.Chemscore.DEClash>
0.6970

> <Gold.Chemscore.DEInternal>
1.6805

> <Gold.Chemscore.Rot>
1.5431

> <Gold.Chemscore.Internal.Correction>
   9.000000E+99

> <Gold.Chemscore.Hbonds>
donor molecule, donor type, donor heavy atom, donor atom, acceptor molecule, acceptor atom, score
      P1  H  6896  6908       L1    10  0.97
      P1  H  6931  6943       L1    11  0.18
      P1  H  6934  6947       L1    11  0.70

> <Gold.Chemscore.Hbond.Weighted>
-6.3060

> <Gold.Chemscore.Metal.Weighted>
-0.0000

> <Gold.Chemscore.Lipo.Weighted>
-9.5139

> <Gold.Chemscore.Internal_Hbond.Weighted>
0.0000

> <Gold.Chemscore.DEClash.Weighted>
0.6970

> <Gold.Chemscore.DEInternal.Weighted>
1.6805

> <Gold.Chemscore.Rot.Weighted>
3.9503

> <Gold.Chemscore.Internal.Correction.Weighted>
   9.000000E+99

> <Gold.Protein.RotatedTorsions>
[ 6907 6896 6895 6894 ] final  166.11 input  -60.11 | X-H torsion
[ 7974 7965 7964 7962 ] final   37.56 input  175.53 | X-H torsion
[ 8008 7997 7996 7995 ] final  -24.58 input   59.86 | X-H torsion
[ 10167 10162 10161 10158 ] final   27.46 input  -65.29 | X-H torsion
[ 10718 10713 10712 10709 ] final   78.73 input   66.30 | X-H torsion
[ 10763 10752 10751 10750 ] final -152.33 input  -60.55 | X-H torsion
[ 11005 11000 10999 10996 ] final   10.75 input  -57.11 | X-H torsion

> <Gold.Protein.ActiveResidues>
 VAL166  LYS551  ARG553  GLY616  TRP617  ASP618  TYR619  PRO620  LYS621  CYS622 
 ASP623  PHE694  ASN695  SER759  ASP760  ASP761  ALA762  ILE779  LEU786  VAL792 
 PHE793  MET794  SER795  GLU796  ALA797  LYS798  CYS799  TRP800  GLU811  SER814 

> <Gold.Protein.RotatedAtoms>
  151.8839  133.3501  159.3775 H   0  0  0  0  0  0  0  0  0  0  0  0  # atno 6907 bound_to 6896
  150.7120  134.4991  159.5562 H   0  0  0  0  0  0  0  0  0  0  0  0  # atno 6908 bound_to 6896
  152.2548  134.8096  160.0491 H   0  0  0  0  0  0  0  0  0  0  0  0  # atno 6909 bound_to 6896
  146.1128  139.5879  142.9341 H   0  0  0  0  0  0  0  0  0  0  0  0  # atno 7974 bound_to 7965
  154.4522  140.1950  156.0486 H   0  0  0  0  0  0  0  0  0  0  0  0  # atno 8008 bound_to 7997
  156.0671  140.3289  155.7503 H   0  0  0  0  0  0  0  0  0  0  0  0  # atno 8009 bound_to 7997
  155.5321  140.0579  157.2877 H   0  0  0  0  0  0  0  0  0  0  0  0  # atno 8010 bound_to 7997
  140.4936  144.0428  150.6306 H   0  0  0  0  0  0  0  0  0  0  0  0  # atno 10167 bound_to 10162
  157.6754  130.9882  150.1829 H   0  0  0  0  0  0  0  0  0  0  0  0  # atno 10718 bound_to 10713
  154.8001  135.3238  154.7572 H   0  0  0  0  0  0  0  0  0  0  0  0  # atno 10763 bound_to 10752
  153.8242  135.6885  153.4827 H   0  0  0  0  0  0  0  0  0  0  0  0  # atno 10764 bound_to 10752
  153.1713  135.4622  154.9848 H   0  0  0  0  0  0  0  0  0  0  0  0  # atno 10765 bound_to 10752
  140.5109  134.0653  155.7818 H   0  0  0  0  0  0  0  0  0  0  0  0  # atno 11005 bound_to 11000
  145.5628  141.0402  143.2217 LP  0  0  0  0  0  0  0  0  0  0  0  0  # atno 17320 bound_to 7965
  144.7526  139.7154  143.7267 LP  0  0  0  0  0  0  0  0  0  0  0  0  # atno 17321 bound_to 7965
  140.3704  143.2858  152.0285 LP  0  0  0  0  0  0  0  0  0  0  0  0  # atno 17342 bound_to 10162
  139.4856  144.6234  151.7211 LP  0  0  0  0  0  0  0  0  0  0  0  0  # atno 17343 bound_to 10162
  156.2557  130.3705  149.8184 LP  0  0  0  0  0  0  0  0  0  0  0  0  # atno 17370 bound_to 10713
  156.5943  130.8520  151.3416 LP  0  0  0  0  0  0  0  0  0  0  0  0  # atno 17371 bound_to 10713
  141.1386  133.9178  157.2378 LP  0  0  0  0  0  0  0  0  0  0  0  0  # atno 17394 bound_to 11000
  139.9659  135.0142  156.9386 LP  0  0  0  0  0  0  0  0  0  0  0  0  # atno 17395 bound_to 11000

$$$$
