AV-unprocessed.smi:2008|AV-procd|sdf|8144|dock3
  -GOLD-   2272010383D 1   1.00000     0.00000
 Structure written by MMmdl.
 46 47  0  0  0  0  0  0  0  0  2 V2000
  152.0397  142.1387  159.3877 C   0  0  0  0  0  0  0  0  0  0  0  0
  152.3126  140.8644  158.8154 O   0  0  0  0  0  0  0  0  0  0  0  0
  151.5817  140.4718  157.7128 C   0  0  0  0  0  0  0  0  0  0  0  0
  150.3909  141.1621  157.4129 C   0  0  0  0  0  0  0  0  0  0  0  0
  149.6392  140.7686  156.2892 C   0  0  0  0  0  0  0  0  0  0  0  0
  150.1090  139.6969  155.4925 C   0  0  0  0  0  0  0  0  0  0  0  0
  149.4382  139.1934  154.3447 N   0  0  0  0  0  0  0  0  0  0  0  0
  148.1701  139.4048  153.9530 C   0  0  0  0  0  0  0  0  0  0  0  0
  147.3500  140.1126  154.5373 O   0  0  0  0  0  0  0  0  0  0  0  0
  147.8964  138.7503  152.8151 N   0  0  0  0  0  0  0  0  0  0  0  0
  146.6145  138.7890  152.1199 C   0  0  0  0  0  0  0  0  0  0  0  0
  145.6345  137.7373  152.6796 C   0  0  0  0  0  0  0  0  0  0  0  0
  146.0607  136.3389  152.3854 N   0  3  1  0  0  0  0  0  0  0  0  0
  146.1600  135.5303  153.6358 C   0  0  0  0  0  0  0  0  0  0  0  0
  146.7194  134.1253  153.3750 C   0  0  0  0  0  0  0  0  0  0  0  0
  145.8509  133.3880  152.3571 C   0  0  0  0  0  0  0  0  0  0  0  0
  145.7625  134.2196  151.0759 C   0  0  0  0  0  0  0  0  0  0  0  0
  145.2348  135.6483  151.3393 C   0  0  2  0  0  0  0  0  0  0  0  0
  145.1989  136.4040  149.9930 C   0  0  0  0  0  0  0  0  0  0  0  0
  151.3056  139.0633  155.8869 C   0  0  0  0  0  0  0  0  0  0  0  0
  152.0310  139.4359  156.9622 N   0  0  0  0  0  0  0  0  0  0  0  0
  152.6972  142.2986  160.2421 H   0  0  0  0  0  0  0  0  0  0  0  0
  151.0111  142.2032  159.7454 H   0  0  0  0  0  0  0  0  0  0  0  0
  152.2225  142.9438  158.6747 H   0  0  0  0  0  0  0  0  0  0  0  0
  150.0567  141.9777  158.0372 H   0  0  0  0  0  0  0  0  0  0  0  0
  148.7178  141.2866  156.0739 H   0  0  0  0  0  0  0  0  0  0  0  0
  150.0113  138.6484  153.7170 H   0  0  0  0  0  0  0  0  0  0  0  0
  148.6285  138.1953  152.3960 H   0  0  0  0  0  0  0  0  0  0  0  0
  146.1838  139.7893  152.1916 H   0  0  0  0  0  0  0  0  0  0  0  0
  146.8218  138.6150  151.0653 H   0  0  0  0  0  0  0  0  0  0  0  0
  145.5040  137.8643  153.7554 H   0  0  0  0  0  0  0  0  0  0  0  0
  144.6657  137.9472  152.2359 H   0  0  0  0  0  0  0  0  0  0  0  0
  146.8081  136.0200  154.3607 H   0  0  0  0  0  0  0  0  0  0  0  0
  145.1748  135.4557  154.0992 H   0  0  0  0  0  0  0  0  0  0  0  0
  147.7442  134.1964  153.0078 H   0  0  0  0  0  0  0  0  0  0  0  0
  146.7612  133.5605  154.3070 H   0  0  0  0  0  0  0  0  0  0  0  0
  146.2709  132.4050  152.1417 H   0  0  0  0  0  0  0  0  0  0  0  0
  144.8528  133.2225  152.7651 H   0  0  0  0  0  0  0  0  0  0  0  0
  146.7484  134.2714  150.6113 H   0  0  0  0  0  0  0  0  0  0  0  0
  145.1157  133.7075  150.3622 H   0  0  0  0  0  0  0  0  0  0  0  0
  144.2130  135.5709  151.7148 H   0  0  0  0  0  0  0  0  0  0  0  0
  144.7602  135.7844  149.2103 H   0  0  0  0  0  0  0  0  0  0  0  0
  146.2009  136.6825  149.6647 H   0  0  0  0  0  0  0  0  0  0  0  0
  144.5880  137.3049  150.0322 H   0  0  0  0  0  0  0  0  0  0  0  0
  151.6984  138.2319  155.3198 H   0  0  0  0  0  0  0  0  0  0  0  0
  146.9933  136.4013  152.0024 H   0  0  0  0  0  0  0  0  0  0  0  0
  1  2  1  0  0  0  0
  1 22  1  0  0  0  0
  1 23  1  0  0  0  0
  1 24  1  0  0  0  0
  2  3  1  0  0  0  0
  3 21  1  0  0  0  0
  3  4  2  0  0  0  0
  4  5  1  0  0  0  0
  4 25  1  0  0  0  0
  5  6  2  0  0  0  0
  5 26  1  0  0  0  0
  6  7  1  0  0  0  0
  6 20  1  0  0  0  0
  7  8  1  0  0  0  0
  7 27  1  0  0  0  0
  8  9  2  0  0  0  0
  8 10  1  0  0  0  0
 10 11  1  0  0  0  0
 10 28  1  0  0  0  0
 11 12  1  0  0  0  0
 11 29  1  0  0  0  0
 11 30  1  0  0  0  0
 12 13  1  0  0  0  0
 12 31  1  0  0  0  0
 12 32  1  0  0  0  0
 13 18  1  0  0  0  0
 13 14  1  0  0  0  0
 13 46  1  0  0  0  0
 14 15  1  0  0  0  0
 14 33  1  0  0  0  0
 14 34  1  0  0  0  0
 15 16  1  0  0  0  0
 15 35  1  0  0  0  0
 15 36  1  0  0  0  0
 16 17  1  0  0  0  0
 16 37  1  0  0  0  0
 16 38  1  0  0  0  0
 17 18  1  0  0  0  0
 17 39  1  0  0  0  0
 17 40  1  0  0  0  0
 18 19  1  0  0  0  0
 18 41  1  0  0  0  0
 19 42  1  0  0  0  0
 19 43  1  0  0  0  0
 19 44  1  0  0  0  0
 20 21  2  0  0  0  0
 20 45  1  0  0  0  0
M  CHG  1  13   1
M  END
> <s_m_source_file>
AV-unprocessed.smi

> <i_m_source_file_index>
2008

> <i_lp_mmshare_version>
43012

> <i_f3d_flags>
0

> <s_epik_input>
W0NIM11PYzFbY0hdW2NIXWMoW2NIXW4xKVtOSF1DKD1PKVtOSF1bQ0gyXVtDSDJdTjJbQ0gyXVtDSDJdW0NIMl1bQ0gyXVtDQEhdMltDSDNd

> <s_epik_cmdline>
J2VwaWtfcHl0aG9uJywgJy1waCcsICc3LjAnLCAnLXRuJywgJzgnLCAnLW1hJywgJzIwMCcsICctbWV0YWxfYmluZGluZycsICctaW1hZScsICc8aW5maWxlLm1hZT4nLCAnLW9tYWUnLCAnPG91dGZpbGUubWFlPic=

> <r_lp_tautomer_probability>
1

> <r_epik_Ionization_Penalty>
0.00219526

> <r_epik_Ionization_Penalty_Charging>
0.00211816

> <r_epik_Ionization_Penalty_Neutral>
7.71003e-05

> <r_epik_State_Penalty>
0.00145254

> <r_epik_Charging_Adjusted_Penalty>
0.0035707

> <i_epik_Tot_Q>
1

> <i_epik_Tot_abs_Q>
1

> <r_epik_Metal_State_Penalty>
-0

> <b_epik_Metal_Only>
0

> <s_lp_Force_Field>
OPLS_2005

> <r_lp_Energy>
23.0726

> <b_lp_Chiralities_Consistent>
1

> <s_lp_Variant>
AV-unprocessed.smi:2008-4

> <Gold.Version>
5.8.1

> <Gold.Id.Protein>
6NUR|6NUR_protein|mol2

> <Gold.PLP.Fitness>
41.6525

> <Gold.PLP.PLP>
-32.8912

> <Gold.PLP.part.hbond>
-4.7014

> <Gold.PLP.part.metal>
0.0000

> <Gold.PLP.part.buried>
1.9697

> <Gold.PLP.part.nonpolar>
-29.9640

> <Gold.PLP.part.repulsive>
0.2953

> <Gold.PLP.ligand.clash>
0.0000

> <Gold.PLP.ligand.torsion>
1.1638

> <Gold.PLP.Chemscore.Hbond>
3.6880

> <Gold.PLP.Chemscore.CHOScore>
0.0000

> <Gold.PLP.Chemscore.Metal>
0.0000

> <Gold.Chemscore.Hbonds>
donor molecule, donor type, donor heavy atom, donor atom, acceptor molecule, acceptor atom, score
      L1  H    10    28       P1  7948  0.80
      L1  H    13    46       P1  7948  2.00

> <Gold.PLP.Chemscore.Internal.Correction>
0.0250

> <Gold.Rescore>
     Score         DG    S(hbond)    S(metal)    S(lipo)     H(rot)  DE(clash)    DE(int)     intcor
     15.63     -18.21       2.50        0.00      74.85       1.71       0.58       2.01       ----

> <Gold.Chemscore.Fitness>
15.6259

> <Gold.Chemscore.DG>
-18.2117

> <Gold.Chemscore.ZeroCoef>
-5.4800

> <Gold.Chemscore.Hbond>
2.5010

> <Gold.Chemscore.Metal>
0.0000

> <Gold.Chemscore.Lipo>
74.8537

> <Gold.Chemscore.Internal_Hbond>
0.0000

> <Gold.Chemscore.DEClash>
0.5765

> <Gold.Chemscore.DEInternal>
2.0093

> <Gold.Chemscore.Rot>
1.7107

> <Gold.Chemscore.Internal.Correction>
   9.000000E+99

> <Gold.Chemscore.Hbonds>
donor molecule, donor type, donor heavy atom, donor atom, acceptor molecule, acceptor atom, score
      L1  H    10    28       P1  7948  0.74
      L1  H    13    46       P1  7948  0.99
      P1  H  7997  8010       L1    21  0.01

> <Gold.Chemscore.Hbond.Weighted>
-8.3533

> <Gold.Chemscore.Metal.Weighted>
-0.0000

> <Gold.Chemscore.Lipo.Weighted>
-8.7579

> <Gold.Chemscore.Internal_Hbond.Weighted>
0.0000

> <Gold.Chemscore.DEClash.Weighted>
0.5765

> <Gold.Chemscore.DEInternal.Weighted>
2.0093

> <Gold.Chemscore.Rot.Weighted>
4.3794

> <Gold.Chemscore.Internal.Correction.Weighted>
   9.000000E+99

> <Gold.Protein.RotatedTorsions>
[ 6907 6896 6895 6894 ] final -105.54 input  -60.11 | X-H torsion
[ 7974 7965 7964 7962 ] final   89.37 input  175.53 | X-H torsion
[ 8008 7997 7996 7995 ] final   70.50 input   59.86 | X-H torsion
[ 10167 10162 10161 10158 ] final  -50.17 input  -65.29 | X-H torsion
[ 10718 10713 10712 10709 ] final  172.29 input   66.30 | X-H torsion
[ 10763 10752 10751 10750 ] final -120.94 input  -60.55 | X-H torsion
[ 11005 11000 10999 10996 ] final -154.81 input  -57.11 | X-H torsion

> <Gold.Protein.ActiveResidues>
 VAL166  LYS551  ARG553  GLY616  TRP617  ASP618  TYR619  PRO620  LYS621  CYS622 
 ASP623  PHE694  ASN695  SER759  ASP760  ASP761  ALA762  ILE779  LEU786  VAL792 
 PHE793  MET794  SER795  GLU796  ALA797  LYS798  CYS799  TRP800  GLU811  SER814 

> <Gold.Protein.RotatedAtoms>
  150.7342  134.0111  159.3669 H   0  0  0  0  0  0  0  0  0  0  0  0  # atno 6907 bound_to 6896
  151.8071  135.0690  160.0417 H   0  0  0  0  0  0  0  0  0  0  0  0  # atno 6908 bound_to 6896
  152.3099  133.5706  159.5710 H   0  0  0  0  0  0  0  0  0  0  0  0  # atno 6909 bound_to 6896
  145.5333  139.2284  143.2607 H   0  0  0  0  0  0  0  0  0  0  0  0  # atno 7974 bound_to 7965
  155.7398  140.3490  155.5099 H   0  0  0  0  0  0  0  0  0  0  0  0  # atno 8008 bound_to 7997
  155.9105  140.1049  157.1304 H   0  0  0  0  0  0  0  0  0  0  0  0  # atno 8009 bound_to 7997
  154.4055  140.1269  156.4538 H   0  0  0  0  0  0  0  0  0  0  0  0  # atno 8010 bound_to 7997
  140.6650  143.2668  151.4321 H   0  0  0  0  0  0  0  0  0  0  0  0  # atno 10167 bound_to 10162
  156.9810  131.0119  151.2881 H   0  0  0  0  0  0  0  0  0  0  0  0  # atno 10718 bound_to 10713
  154.8656  135.4185  154.2540 H   0  0  0  0  0  0  0  0  0  0  0  0  # atno 10763 bound_to 10752
  153.3481  135.6997  153.6817 H   0  0  0  0  0  0  0  0  0  0  0  0  # atno 10764 bound_to 10752
  153.5768  135.3580  155.2832 H   0  0  0  0  0  0  0  0  0  0  0  0  # atno 10765 bound_to 10752
  140.6933  134.4017  157.5217 H   0  0  0  0  0  0  0  0  0  0  0  0  # atno 11005 bound_to 11000
  146.2030  140.6150  142.9094 LP  0  0  0  0  0  0  0  0  0  0  0  0  # atno 17320 bound_to 7965
  144.7615  140.5432  143.6732 LP  0  0  0  0  0  0  0  0  0  0  0  0  # atno 17321 bound_to 7965
  139.5896  144.1528  152.2072 LP  0  0  0  0  0  0  0  0  0  0  0  0  # atno 17342 bound_to 10162
  140.0879  144.5646  150.7076 LP  0  0  0  0  0  0  0  0  0  0  0  0  # atno 17343 bound_to 10162
  157.5526  130.8192  149.8164 LP  0  0  0  0  0  0  0  0  0  0  0  0  # atno 17370 bound_to 10713
  156.0244  130.3784  150.1866 LP  0  0  0  0  0  0  0  0  0  0  0  0  # atno 17371 bound_to 10713
  139.8917  134.8773  156.2306 LP  0  0  0  0  0  0  0  0  0  0  0  0  # atno 17394 bound_to 11000
  141.0223  133.7034  156.1289 LP  0  0  0  0  0  0  0  0  0  0  0  0  # atno 17395 bound_to 11000

$$$$
