AV-unprocessed.smi:2000|AV-procd|sdf|8101|dock9
  -GOLD-   2272010323D 1   1.00000     0.00000
 Structure written by MMmdl.
 43 44  0  0  0  0  0  0  0  0  1 V2000
  146.8136  144.0867  160.9745 C   0  0  0  0  0  0  0  0  0  0  0  0
  146.2157  143.5381  159.6688 C   0  0  1  0  0  0  0  0  0  0  0  0
  147.2446  142.7239  158.8725 C   0  0  0  0  0  0  0  0  0  0  0  0
  148.3712  143.1746  158.6624 O   0  0  0  0  0  0  0  0  0  0  0  0
  146.8403  141.5256  158.4214 N   0  0  0  0  0  0  0  0  0  0  0  0
  147.6595  140.6113  157.6308 C   0  0  0  0  0  0  0  0  0  0  0  0
  147.7477  140.9395  156.1376 C   0  0  0  0  0  0  0  0  0  0  0  0
  146.6543  141.5158  155.4481 C   0  0  0  0  0  0  0  0  0  0  0  0
  146.7654  141.7806  154.0715 C   0  0  0  0  0  0  0  0  0  0  0  0
  147.9694  141.4527  153.4248 C   0  0  0  0  0  0  0  0  0  0  0  0
  149.0188  140.8953  154.0615 N   0  0  0  0  0  0  0  0  0  0  0  0
  148.9170  140.6384  155.3888 C   0  0  0  0  0  0  0  0  0  0  0  0
  150.0382  140.0727  156.0208 N   0  0  0  0  0  0  0  0  0  0  0  0
  150.6040  140.9411  157.0455 C   0  0  0  0  0  0  0  0  0  0  0  0
  151.6979  140.1912  157.8257 C   0  0  0  0  0  0  0  0  0  0  0  0
  152.6820  139.6958  156.9212 O   0  0  0  0  0  0  0  0  0  0  0  0
  152.1285  138.7905  155.9701 C   0  0  0  0  0  0  0  0  0  0  0  0
  151.0566  139.5142  155.1377 C   0  0  0  0  0  0  0  0  0  0  0  0
  144.7278  142.4968  160.0440 S   0  0  0  0  0  0  0  0  0  0  0  0
  143.6190  143.6623  160.9414 C   0  0  0  0  0  0  0  0  0  0  0  0
  144.0718  142.1259  158.7806 O   0  0  0  0  0  0  0  0  0  0  0  0
  145.1366  141.4391  160.9807 O   0  0  0  0  0  0  0  0  0  0  0  0
  147.7164  144.6683  160.7846 H   0  0  0  0  0  0  0  0  0  0  0  0
  147.0714  143.2829  161.6655 H   0  0  0  0  0  0  0  0  0  0  0  0
  146.1036  144.7397  161.4822 H   0  0  0  0  0  0  0  0  0  0  0  0
  145.8747  144.3789  159.0634 H   0  0  0  0  0  0  0  0  0  0  0  0
  145.8987  141.2278  158.6318 H   0  0  0  0  0  0  0  0  0  0  0  0
  148.6565  140.5643  158.0706 H   0  0  0  0  0  0  0  0  0  0  0  0
  147.2368  139.6115  157.7313 H   0  0  0  0  0  0  0  0  0  0  0  0
  145.7312  141.7542  155.9547 H   0  0  0  0  0  0  0  0  0  0  0  0
  145.9459  142.2224  153.5243 H   0  0  0  0  0  0  0  0  0  0  0  0
  148.0928  141.6402  152.3685 H   0  0  0  0  0  0  0  0  0  0  0  0
  151.0254  141.8295  156.5726 H   0  0  0  0  0  0  0  0  0  0  0  0
  149.8244  141.2815  157.7281 H   0  0  0  0  0  0  0  0  0  0  0  0
  152.1773  140.8612  158.5395 H   0  0  0  0  0  0  0  0  0  0  0  0
  151.2692  139.3679  158.3993 H   0  0  0  0  0  0  0  0  0  0  0  0
  152.9246  138.4245  155.3218 H   0  0  0  0  0  0  0  0  0  0  0  0
  151.7066  137.9225  156.4796 H   0  0  0  0  0  0  0  0  0  0  0  0
  150.5950  138.8225  154.4323 H   0  0  0  0  0  0  0  0  0  0  0  0
  151.5237  140.3101  154.5557 H   0  0  0  0  0  0  0  0  0  0  0  0
  142.7371  143.1232  161.2872 H   0  0  0  0  0  0  0  0  0  0  0  0
  143.3050  144.4650  160.2748 H   0  0  0  0  0  0  0  0  0  0  0  0
  144.1442  144.0813  161.7993 H   0  0  0  0  0  0  0  0  0  0  0  0
  1  2  1  0  0  0  0
  1 23  1  0  0  0  0
  1 24  1  0  0  0  0
  1 25  1  0  0  0  0
  2  3  1  0  0  0  0
  2 19  1  0  0  0  0
  2 26  1  0  0  0  0
  3  4  2  0  0  0  0
  3  5  1  0  0  0  0
  5  6  1  0  0  0  0
  5 27  1  0  0  0  0
  6  7  1  0  0  0  0
  6 28  1  0  0  0  0
  6 29  1  0  0  0  0
  7 12  1  0  0  0  0
  7  8  2  0  0  0  0
  8  9  1  0  0  0  0
  8 30  1  0  0  0  0
  9 10  2  0  0  0  0
  9 31  1  0  0  0  0
 10 11  1  0  0  0  0
 10 32  1  0  0  0  0
 11 12  2  0  0  0  0
 12 13  1  0  0  0  0
 13 18  1  0  0  0  0
 13 14  1  0  0  0  0
 14 15  1  0  0  0  0
 14 33  1  0  0  0  0
 14 34  1  0  0  0  0
 15 16  1  0  0  0  0
 15 35  1  0  0  0  0
 15 36  1  0  0  0  0
 16 17  1  0  0  0  0
 17 18  1  0  0  0  0
 17 37  1  0  0  0  0
 17 38  1  0  0  0  0
 18 39  1  0  0  0  0
 18 40  1  0  0  0  0
 19 20  1  0  0  0  0
 19 21  2  0  0  0  0
 19 22  2  0  0  0  0
 20 41  1  0  0  0  0
 20 42  1  0  0  0  0
 20 43  1  0  0  0  0
M  END
> <s_m_source_file>
AV-unprocessed.smi

> <i_m_source_file_index>
2000

> <i_lp_mmshare_version>
43012

> <i_f3d_flags>
0

> <s_epik_input>
W0NIM11TKD1PKSg9TylbQ0BIXShbQ0gzXSlDKD1PKVtOSF1bQ0gyXWMxW2NIXVtjSF1bY0hdbmMxTjJbQ0gyXVtDSDJdT1tDSDJdW0NIMl0y

> <s_epik_cmdline>
J2VwaWtfcHl0aG9uJywgJy1waCcsICc3LjAnLCAnLXRuJywgJzgnLCAnLW1hJywgJzIwMCcsICctbWV0YWxfYmluZGluZycsICctaW1hZScsICc8aW5maWxlLm1hZT4nLCAnLW9tYWUnLCAnPG91dGZpbGUubWFlPic=

> <r_lp_tautomer_probability>
1

> <r_epik_Ionization_Penalty>
0.00349769

> <r_epik_Ionization_Penalty_Charging>
0

> <r_epik_Ionization_Penalty_Neutral>
0.00349769

> <r_epik_State_Penalty>
0.00248024

> <r_epik_Charging_Adjusted_Penalty>
0.00248024

> <i_epik_Tot_Q>
0

> <i_epik_Tot_abs_Q>
0

> <r_epik_Metal_State_Penalty>
-0

> <b_epik_Metal_Only>
0

> <s_lp_Force_Field>
OPLS_2005

> <r_lp_Energy>
18.4728

> <b_lp_Chiralities_Consistent>
1

> <s_lp_Variant>
AV-unprocessed.smi:2000-2

> <Gold.Version>
5.8.1

> <Gold.Id.Protein>
6NUR|6NUR_protein|mol2

> <Gold.PLP.Fitness>
33.1077

> <Gold.PLP.PLP>
-26.9033

> <Gold.PLP.part.hbond>
-2.0371

> <Gold.PLP.part.metal>
0.0000

> <Gold.PLP.part.buried>
-5.1774

> <Gold.PLP.part.nonpolar>
-21.9591

> <Gold.PLP.part.repulsive>
2.1407

> <Gold.PLP.ligand.clash>
0.0000

> <Gold.PLP.ligand.torsion>
0.9677

> <Gold.PLP.Chemscore.Hbond>
1.8640

> <Gold.PLP.Chemscore.CHOScore>
0.7488

> <Gold.PLP.Chemscore.Metal>
0.0000

> <Gold.Chemscore.Hbonds>
donor molecule, donor type, donor heavy atom, donor atom, acceptor molecule, acceptor atom, score
      P1  H  6934  6946       L1    22  0.75
      P1  H  7997  8010       L1    16  1.00
      L1  C    10    32       P1  7957  0.73

> <Gold.PLP.Chemscore.Internal.Correction>
0.3015

> <Gold.Rescore>
     Score         DG    S(hbond)    S(metal)    S(lipo)     H(rot)  DE(clash)    DE(int)     intcor
      9.82     -14.14       2.09        0.00      59.78       2.08       1.25       3.06       ----

> <Gold.Chemscore.Fitness>
9.8203

> <Gold.Chemscore.DG>
-14.1363

> <Gold.Chemscore.ZeroCoef>
-5.4800

> <Gold.Chemscore.Hbond>
2.0893

> <Gold.Chemscore.Metal>
0.0000

> <Gold.Chemscore.Lipo>
59.7755

> <Gold.Chemscore.Internal_Hbond>
0.0000

> <Gold.Chemscore.DEClash>
1.2514

> <Gold.Chemscore.DEInternal>
3.0647

> <Gold.Chemscore.Rot>
2.0764

> <Gold.Chemscore.Internal.Correction>
   9.000000E+99

> <Gold.Chemscore.Hbonds>
donor molecule, donor type, donor heavy atom, donor atom, acceptor molecule, acceptor atom, score
      P1  H  6934  6946       L1    22  0.69
      P1  H  7997  8010       L1    16  0.92

> <Gold.Chemscore.Hbond.Weighted>
-6.9781

> <Gold.Chemscore.Metal.Weighted>
-0.0000

> <Gold.Chemscore.Lipo.Weighted>
-6.9937

> <Gold.Chemscore.Internal_Hbond.Weighted>
0.0000

> <Gold.Chemscore.DEClash.Weighted>
1.2514

> <Gold.Chemscore.DEInternal.Weighted>
3.0647

> <Gold.Chemscore.Rot.Weighted>
5.3155

> <Gold.Chemscore.Internal.Correction.Weighted>
   9.000000E+99

> <Gold.Protein.RotatedTorsions>
[ 6907 6896 6895 6894 ] final  -49.63 input  -60.11 | X-H torsion
[ 7974 7965 7964 7962 ] final -123.68 input  175.53 | X-H torsion
[ 8008 7997 7996 7995 ] final   54.25 input   59.86 | X-H torsion
[ 10167 10162 10161 10158 ] final  -70.34 input  -65.29 | X-H torsion
[ 10718 10713 10712 10709 ] final  126.30 input   66.30 | X-H torsion
[ 10763 10752 10751 10750 ] final  101.49 input  -60.55 | X-H torsion
[ 11005 11000 10999 10996 ] final  132.81 input  -57.11 | X-H torsion

> <Gold.Protein.ActiveResidues>
 VAL166  LYS551  ARG553  GLY616  TRP617  ASP618  TYR619  PRO620  LYS621  CYS622 
 ASP623  PHE694  ASN695  SER759  ASP760  ASP761  ALA762  ILE779  LEU786  VAL792 
 PHE793  MET794  SER795  GLU796  ALA797  LYS798  CYS799  TRP800  GLU811  SER814 

> <Gold.Protein.RotatedAtoms>
  150.8786  134.8173  159.7207 H   0  0  0  0  0  0  0  0  0  0  0  0  # atno 6907 bound_to 6896
  152.4763  134.4832  159.9682 H   0  0  0  0  0  0  0  0  0  0  0  0  # atno 6908 bound_to 6896
  151.4911  133.3486  159.2889 H   0  0  0  0  0  0  0  0  0  0  0  0  # atno 6909 bound_to 6896
  145.0161  140.7948  143.4409 H   0  0  0  0  0  0  0  0  0  0  0  0  # atno 7974 bound_to 7965
  155.4817  140.3468  155.4341 H   0  0  0  0  0  0  0  0  0  0  0  0  # atno 8008 bound_to 7997
  156.1035  140.1441  156.9464 H   0  0  0  0  0  0  0  0  0  0  0  0  # atno 8009 bound_to 7997
  154.4709  140.0901  156.7119 H   0  0  0  0  0  0  0  0  0  0  0  0  # atno 8010 bound_to 7997
  140.5360  143.2318  151.7176 H   0  0  0  0  0  0  0  0  0  0  0  0  # atno 10167 bound_to 10162
  157.5430  131.1096  150.8827 H   0  0  0  0  0  0  0  0  0  0  0  0  # atno 10718 bound_to 10713
  153.3274  135.4043  155.1467 H   0  0  0  0  0  0  0  0  0  0  0  0  # atno 10763 bound_to 10752
  154.8615  135.3602  154.5516 H   0  0  0  0  0  0  0  0  0  0  0  0  # atno 10764 bound_to 10752
  153.5953  135.7072  153.5466 H   0  0  0  0  0  0  0  0  0  0  0  0  # atno 10765 bound_to 10752
  139.9813  134.9547  156.9635 H   0  0  0  0  0  0  0  0  0  0  0  0  # atno 11005 bound_to 11000
  145.1957  139.2278  143.5219 LP  0  0  0  0  0  0  0  0  0  0  0  0  # atno 17320 bound_to 7965
  146.3478  140.1763  142.8589 LP  0  0  0  0  0  0  0  0  0  0  0  0  # atno 17321 bound_to 7965
  139.4971  144.4041  152.0150 LP  0  0  0  0  0  0  0  0  0  0  0  0  # atno 17342 bound_to 10162
  140.3147  144.3497  150.6025 LP  0  0  0  0  0  0  0  0  0  0  0  0  # atno 17343 bound_to 10162
  156.9374  130.5372  149.5279 LP  0  0  0  0  0  0  0  0  0  0  0  0  # atno 17370 bound_to 10713
  156.0512  130.5581  150.8994 LP  0  0  0  0  0  0  0  0  0  0  0  0  # atno 17371 bound_to 10713
  140.5091  134.1020  155.7266 LP  0  0  0  0  0  0  0  0  0  0  0  0  # atno 17394 bound_to 11000
  141.1484  133.9012  157.2158 LP  0  0  0  0  0  0  0  0  0  0  0  0  # atno 17395 bound_to 11000

$$$$
