AV-unprocessed.smi:2973|AV-procd|sdf|11342|dock7
  -GOLD-   2272016253D 1   1.00000     0.00000
 Structure written by MMmdl.
 50 52  0  0  0  0  0  0  0  0  2 V2000
  150.3771  140.8129  156.8993 C   0  0  0  0  0  0  0  0  0  0  0  0
  151.6791  141.0193  157.7023 C   0  0  1  0  0  0  0  0  0  0  0  0
  151.4421  142.0250  158.8501 C   0  0  0  0  0  0  0  0  0  0  0  0
  152.7298  142.3145  159.6374 C   0  0  0  0  0  0  0  0  0  0  0  0
  153.3526  141.0222  160.1838 C   0  0  0  0  0  0  0  0  0  0  0  0
  153.6102  140.0170  159.0502 C   0  0  0  0  0  0  0  0  0  0  0  0
  152.3238  139.7072  158.2472 C   0  0  1  0  0  0  0  0  0  0  0  0
  151.3928  138.9235  159.0424 N   0  0  0  0  0  0  0  0  0  0  0  0
  151.1886  137.6958  158.5488 C   0  0  0  0  0  0  0  0  0  0  0  0
  150.4626  136.8412  159.0534 O   0  0  0  0  0  0  0  0  0  0  0  0
  151.9164  137.5655  157.4248 N   0  0  0  0  0  0  0  0  0  0  0  0
  151.9773  136.3404  156.6129 C   0  0  0  0  0  0  0  0  0  0  0  0
  150.9842  136.2915  155.4382 C   0  0  0  0  0  0  0  0  0  0  0  0
  150.8823  137.2711  154.7006 O   0  0  0  0  0  0  0  0  0  0  0  0
  150.2653  135.1705  155.2555 N   0  0  0  0  0  0  0  0  0  0  0  0
  149.3017  134.9536  154.1846 C   0  0  0  0  0  0  0  0  0  0  0  0
  149.5982  133.6554  153.4155 C   0  0  0  0  0  0  0  0  0  0  0  0
  148.4034  133.1803  152.6126 C   0  0  0  0  0  0  0  0  0  0  0  0
  147.9039  131.8637  152.7151 C   0  0  0  0  0  0  0  0  0  0  0  0
  146.7818  131.4913  151.9457 C   0  0  0  0  0  0  0  0  0  0  0  0
  146.1840  132.4415  151.0921 C   0  0  0  0  0  0  0  0  0  0  0  0
  146.7247  133.7420  151.0284 C   0  0  0  0  0  0  0  0  0  0  0  0
  147.8004  134.0606  151.7813 N   0  3  0  0  0  0  0  0  0  0  0  0
  152.6128  138.6798  157.1599 C   0  0  0  0  0  0  0  0  0  0  0  0
  153.3804  138.8693  156.2162 O   0  0  0  0  0  0  0  0  0  0  0  0
  149.5941  140.3625  157.5098 H   0  0  0  0  0  0  0  0  0  0  0  0
  150.5321  140.1739  156.0299 H   0  0  0  0  0  0  0  0  0  0  0  0
  149.9952  141.7648  156.5294 H   0  0  0  0  0  0  0  0  0  0  0  0
  152.3980  141.4782  157.0211 H   0  0  0  0  0  0  0  0  0  0  0  0
  151.0497  142.9605  158.4496 H   0  0  0  0  0  0  0  0  0  0  0  0
  150.6798  141.6410  159.5291 H   0  0  0  0  0  0  0  0  0  0  0  0
  153.4475  142.8207  158.9904 H   0  0  0  0  0  0  0  0  0  0  0  0
  152.5173  143.0001  160.4584 H   0  0  0  0  0  0  0  0  0  0  0  0
  154.2872  141.2491  160.6974 H   0  0  0  0  0  0  0  0  0  0  0  0
  152.6910  140.5806  160.9300 H   0  0  0  0  0  0  0  0  0  0  0  0
  154.3696  140.4281  158.3829 H   0  0  0  0  0  0  0  0  0  0  0  0
  154.0359  139.1014  159.4645 H   0  0  0  0  0  0  0  0  0  0  0  0
  150.9626  139.2770  159.8847 H   0  0  0  0  0  0  0  0  0  0  0  0
  152.9846  136.2085  156.2145 H   0  0  0  0  0  0  0  0  0  0  0  0
  151.8007  135.4709  157.2483 H   0  0  0  0  0  0  0  0  0  0  0  0
  150.4034  134.4105  155.9060 H   0  0  0  0  0  0  0  0  0  0  0  0
  148.3080  134.9022  154.6310 H   0  0  0  0  0  0  0  0  0  0  0  0
  149.2958  135.8112  153.5095 H   0  0  0  0  0  0  0  0  0  0  0  0
  150.4397  133.7992  152.7361 H   0  0  0  0  0  0  0  0  0  0  0  0
  149.8967  132.8703  154.1116 H   0  0  0  0  0  0  0  0  0  0  0  0
  148.3717  131.1475  153.3749 H   0  0  0  0  0  0  0  0  0  0  0  0
  146.3837  130.4891  152.0107 H   0  0  0  0  0  0  0  0  0  0  0  0
  145.3236  132.1761  150.4953 H   0  0  0  0  0  0  0  0  0  0  0  0
  146.3315  134.5313  150.4044 H   0  0  0  0  0  0  0  0  0  0  0  0
  148.1744  135.0081  151.7211 H   0  0  0  0  0  0  0  0  0  0  0  0
  1  2  1  0  0  0  0
  1 26  1  0  0  0  0
  1 27  1  0  0  0  0
  1 28  1  0  0  0  0
  2  7  1  0  0  0  0
  2  3  1  0  0  0  0
  2 29  1  0  0  0  0
  3  4  1  0  0  0  0
  3 30  1  0  0  0  0
  3 31  1  0  0  0  0
  4  5  1  0  0  0  0
  4 32  1  0  0  0  0
  4 33  1  0  0  0  0
  5  6  1  0  0  0  0
  5 34  1  0  0  0  0
  5 35  1  0  0  0  0
  6  7  1  0  0  0  0
  6 36  1  0  0  0  0
  6 37  1  0  0  0  0
  7 24  1  0  0  0  0
  7  8  1  0  0  0  0
  8  9  1  0  0  0  0
  8 38  1  0  0  0  0
  9 10  2  0  0  0  0
  9 11  1  0  0  0  0
 11 12  1  0  0  0  0
 11 24  1  0  0  0  0
 12 13  1  0  0  0  0
 12 39  1  0  0  0  0
 12 40  1  0  0  0  0
 13 14  2  0  0  0  0
 13 15  1  0  0  0  0
 15 16  1  0  0  0  0
 15 41  1  0  0  0  0
 16 17  1  0  0  0  0
 16 42  1  0  0  0  0
 16 43  1  0  0  0  0
 17 18  1  0  0  0  0
 17 44  1  0  0  0  0
 17 45  1  0  0  0  0
 18 23  1  0  0  0  0
 18 19  2  0  0  0  0
 19 20  1  0  0  0  0
 19 46  1  0  0  0  0
 20 21  2  0  0  0  0
 20 47  1  0  0  0  0
 21 22  1  0  0  0  0
 21 48  1  0  0  0  0
 22 23  2  0  0  0  0
 22 49  1  0  0  0  0
 23 50  1  0  0  0  0
 24 25  2  0  0  0  0
M  CHG  1  23   1
M  END
> <s_m_source_file>
AV-unprocessed.smi

> <i_m_source_file_index>
2973

> <i_lp_mmshare_version>
43012

> <i_f3d_flags>
0

> <s_epik_input>
W0NIMl0xW0NIMl1bQ0gyXVtDSDJdW0NAQEhdKFtDSDNdKVtDQF0xMltOSF1DKD1PKU4oQzI9TylbQ0gyXUMoPU8pW05IXVtDSDJdW0NIMl1jM1tjSF1bY0hdW2NIXVtjSF1uMw==

> <s_epik_cmdline>
J2VwaWtfcHl0aG9uJywgJy1waCcsICc3LjAnLCAnLXRuJywgJzgnLCAnLW1hJywgJzIwMCcsICctbWV0YWxfYmluZGluZycsICctaW1hZScsICc8aW5maWxlLm1hZT4nLCAnLW9tYWUnLCAnPG91dGZpbGUubWFlPic=

> <r_lp_tautomer_probability>
1

> <r_epik_Ionization_Penalty>
1.90043

> <r_epik_Ionization_Penalty_Charging>
1.90039

> <r_epik_Ionization_Penalty_Neutral>
4.65525e-05

> <r_epik_State_Penalty>
2.02162

> <r_epik_Charging_Adjusted_Penalty>
3.922

> <i_epik_Tot_Q>
1

> <i_epik_Tot_abs_Q>
1

> <r_epik_Metal_State_Penalty>
2.06631

> <b_epik_Metal_Only>
0

> <s_lp_Force_Field>
OPLS_2005

> <r_lp_Energy>
28.0299

> <b_lp_Chiralities_Consistent>
1

> <s_lp_Variant>
AV-unprocessed.smi:2973-6

> <Gold.Version>
5.8.1

> <Gold.Id.Protein>
6NUR|6NUR_protein|mol2

> <Gold.PLP.Fitness>
51.2089

> <Gold.PLP.PLP>
-40.5617

> <Gold.PLP.part.hbond>
-3.0000

> <Gold.PLP.part.metal>
0.0000

> <Gold.PLP.part.buried>
-4.2340

> <Gold.PLP.part.nonpolar>
-32.8109

> <Gold.PLP.part.repulsive>
0.4069

> <Gold.PLP.ligand.clash>
0.0000

> <Gold.PLP.ligand.torsion>
0.6838

> <Gold.PLP.Chemscore.Hbond>
3.9920

> <Gold.PLP.Chemscore.CHOScore>
0.0000

> <Gold.PLP.Chemscore.Metal>
0.0000

> <Gold.Chemscore.Hbonds>
donor molecule, donor type, donor heavy atom, donor atom, acceptor molecule, acceptor atom, score
      L1  H    23    50       P1  7948  1.07
      P1  H  6896  6908       L1    10  0.94
      P1  H  7997  8010       L1    25  0.98

> <Gold.PLP.Chemscore.Internal.Correction>
0.0390

> <Gold.Rescore>
     Score         DG    S(hbond)    S(metal)    S(lipo)     H(rot)  DE(clash)    DE(int)     intcor
     19.36     -20.24       2.53        0.00      96.81       1.96       0.02       0.87       ----

> <Gold.Chemscore.Fitness>
19.3578

> <Gold.Chemscore.DG>
-20.2394

> <Gold.Chemscore.ZeroCoef>
-5.4800

> <Gold.Chemscore.Hbond>
2.5330

> <Gold.Chemscore.Metal>
0.0000

> <Gold.Chemscore.Lipo>
96.8077

> <Gold.Chemscore.Internal_Hbond>
0.0000

> <Gold.Chemscore.DEClash>
0.0155

> <Gold.Chemscore.DEInternal>
0.8660

> <Gold.Chemscore.Rot>
1.9638

> <Gold.Chemscore.Internal.Correction>
   9.000000E+99

> <Gold.Chemscore.Hbonds>
donor molecule, donor type, donor heavy atom, donor atom, acceptor molecule, acceptor atom, score
      L1  H    23    50       P1  7948  0.08
      P1  H  6896  6908       L1    10  0.89
      P1  H  7997  8010       L1    25  0.71

> <Gold.Chemscore.Hbond.Weighted>
-8.4603

> <Gold.Chemscore.Metal.Weighted>
-0.0000

> <Gold.Chemscore.Lipo.Weighted>
-11.3265

> <Gold.Chemscore.Internal_Hbond.Weighted>
0.0000

> <Gold.Chemscore.DEClash.Weighted>
0.0155

> <Gold.Chemscore.DEInternal.Weighted>
0.8660

> <Gold.Chemscore.Rot.Weighted>
5.0274

> <Gold.Chemscore.Internal.Correction.Weighted>
   9.000000E+99

> <Gold.Protein.RotatedTorsions>
[ 6907 6896 6895 6894 ] final -141.95 input  -60.11 | X-H torsion
[ 7974 7965 7964 7962 ] final  161.08 input  175.53 | X-H torsion
[ 8008 7997 7996 7995 ] final   66.15 input   59.86 | X-H torsion
[ 10167 10162 10161 10158 ] final   -9.44 input  -65.29 | X-H torsion
[ 10718 10713 10712 10709 ] final   11.25 input   66.30 | X-H torsion
[ 10763 10752 10751 10750 ] final  167.07 input  -60.55 | X-H torsion
[ 11005 11000 10999 10996 ] final -175.97 input  -57.11 | X-H torsion

> <Gold.Protein.ActiveResidues>
 VAL166  LYS551  ARG553  GLY616  TRP617  ASP618  TYR619  PRO620  LYS621  CYS622 
 ASP623  PHE694  ASN695  SER759  ASP760  ASP761  ALA762  ILE779  LEU786  VAL792 
 PHE793  MET794  SER795  GLU796  ALA797  LYS798  CYS799  TRP800  GLU811  SER814 

> <Gold.Protein.RotatedAtoms>
  151.0805  133.5394  159.2620 H   0  0  0  0  0  0  0  0  0  0  0  0  # atno 6907 bound_to 6896
  151.2299  135.0550  159.8993 H   0  0  0  0  0  0  0  0  0  0  0  0  # atno 6908 bound_to 6896
  152.5423  134.0596  159.8199 H   0  0  0  0  0  0  0  0  0  0  0  0  # atno 6909 bound_to 6896
  144.7703  139.7848  143.6299 H   0  0  0  0  0  0  0  0  0  0  0  0  # atno 7974 bound_to 7965
  155.6729  140.3497  155.4825 H   0  0  0  0  0  0  0  0  0  0  0  0  # atno 8008 bound_to 7997
  155.9672  140.1149  157.0866 H   0  0  0  0  0  0  0  0  0  0  0  0  # atno 8009 bound_to 7997
  154.4157  140.1164  156.5244 H   0  0  0  0  0  0  0  0  0  0  0  0  # atno 8010 bound_to 7997
  140.7087  143.5858  150.8945 H   0  0  0  0  0  0  0  0  0  0  0  0  # atno 10167 bound_to 10162
  156.9928  130.6049  149.5688 H   0  0  0  0  0  0  0  0  0  0  0  0  # atno 10718 bound_to 10713
  154.3483  135.2753  155.2385 H   0  0  0  0  0  0  0  0  0  0  0  0  # atno 10763 bound_to 10752
  154.4626  135.5903  153.6269 H   0  0  0  0  0  0  0  0  0  0  0  0  # atno 10764 bound_to 10752
  152.9852  135.6068  154.3691 H   0  0  0  0  0  0  0  0  0  0  0  0  # atno 10765 bound_to 10752
  140.4573  134.6287  157.4827 H   0  0  0  0  0  0  0  0  0  0  0  0  # atno 11005 bound_to 11000
  146.1845  139.5054  142.9845 LP  0  0  0  0  0  0  0  0  0  0  0  0  # atno 17320 bound_to 7965
  145.6343  141.0298  143.1846 LP  0  0  0  0  0  0  0  0  0  0  0  0  # atno 17321 bound_to 7965
  139.9584  143.6192  152.3009 LP  0  0  0  0  0  0  0  0  0  0  0  0  # atno 17342 bound_to 10162
  139.6736  144.7660  151.1738 LP  0  0  0  0  0  0  0  0  0  0  0  0  # atno 17343 bound_to 10162
  156.0201  130.5295  150.8249 LP  0  0  0  0  0  0  0  0  0  0  0  0  # atno 17370 bound_to 10713
  157.5446  131.0942  150.9780 LP  0  0  0  0  0  0  0  0  0  0  0  0  # atno 17371 bound_to 10713
  139.9968  134.6899  155.9597 LP  0  0  0  0  0  0  0  0  0  0  0  0  # atno 17394 bound_to 11000
  141.1637  133.6537  156.4406 LP  0  0  0  0  0  0  0  0  0  0  0  0  # atno 17395 bound_to 11000

$$$$
