AV-unprocessed.smi:1701|AV-procd|sdf|6833|dock1
  -GOLD-   22720 8 13D 1   1.00000     0.00000
 Structure written by MMmdl.
 54 56  0  0  0  0  0  0  0  0  2 V2000
  152.6383  141.9773  159.0763 C   0  0  0  0  0  0  0  0  0  0  0  0
  152.3411  140.7325  158.2256 C   0  0  0  0  0  0  0  0  0  0  0  0
  151.5287  141.0278  157.0460 N   0  0  0  0  0  0  0  0  0  0  0  0
  150.6800  142.2200  157.1012 C   0  0  0  0  0  0  0  0  0  0  0  0
  149.4147  142.0196  157.9506 C   0  0  0  0  0  0  0  0  0  0  0  0
  151.0422  139.8849  156.3751 C   0  0  0  0  0  0  0  0  0  0  0  0
  150.6002  138.7684  157.1201 C   0  0  0  0  0  0  0  0  0  0  0  0
  150.1041  137.6434  156.4363 C   0  0  0  0  0  0  0  0  0  0  0  0
  150.0594  137.6547  155.0287 C   0  0  0  0  0  0  0  0  0  0  0  0
  149.5329  136.5057  154.3788 N   0  0  0  0  0  0  0  0  0  0  0  0
  149.0921  135.3481  154.9097 C   0  0  0  0  0  0  0  0  0  0  0  0
  149.0057  135.1121  156.1119 O   0  0  0  0  0  0  0  0  0  0  0  0
  148.7350  134.4253  153.9974 N   0  0  0  0  0  0  0  0  0  0  0  0
  148.2176  133.0713  154.2191 C   0  0  2  0  0  0  0  0  0  0  0  0
  149.2959  131.9867  154.0313 C   0  0  0  0  0  0  0  0  0  0  0  0
  148.5793  130.8476  153.2999 C   0  0  0  0  0  0  0  0  0  0  0  0
  147.6117  131.5582  152.4566 N   0  3  1  0  0  0  0  0  0  0  0  0
  146.5606  130.7761  151.7750 C   0  0  0  0  0  0  0  0  0  0  0  0
  145.8039  131.7147  150.8108 C   0  0  0  0  0  0  0  0  0  0  0  0
  145.2947  132.9918  151.5168 C   0  0  0  0  0  0  0  0  0  0  0  0
  146.4130  133.6904  152.3204 C   0  0  0  0  0  0  0  0  0  0  0  0
  147.0684  132.6647  153.2635 C   0  0  2  0  0  0  0  0  0  0  0  0
  150.5146  138.8218  154.3688 C   0  0  0  0  0  0  0  0  0  0  0  0
  150.9923  139.9024  155.0213 N   0  0  0  0  0  0  0  0  0  0  0  0
  153.2522  141.7160  159.9380 H   0  0  0  0  0  0  0  0  0  0  0  0
  151.7215  142.4328  159.4516 H   0  0  0  0  0  0  0  0  0  0  0  0
  153.1778  142.7323  158.5038 H   0  0  0  0  0  0  0  0  0  0  0  0
  153.2807  140.2892  157.8947 H   0  0  0  0  0  0  0  0  0  0  0  0
  151.8599  139.9737  158.8424 H   0  0  0  0  0  0  0  0  0  0  0  0
  151.2543  143.0677  157.4769 H   0  0  0  0  0  0  0  0  0  0  0  0
  150.3810  142.4846  156.0865 H   0  0  0  0  0  0  0  0  0  0  0  0
  148.7910  142.9131  157.9245 H   0  0  0  0  0  0  0  0  0  0  0  0
  149.6489  141.8166  158.9953 H   0  0  0  0  0  0  0  0  0  0  0  0
  148.8176  141.1887  157.5741 H   0  0  0  0  0  0  0  0  0  0  0  0
  150.6466  138.7633  158.1992 H   0  0  0  0  0  0  0  0  0  0  0  0
  149.7628  136.7815  156.9913 H   0  0  0  0  0  0  0  0  0  0  0  0
  149.4786  136.5739  153.3735 H   0  0  0  0  0  0  0  0  0  0  0  0
  148.8610  134.6903  153.0310 H   0  0  0  0  0  0  0  0  0  0  0  0
  147.8569  132.9875  155.2461 H   0  0  0  0  0  0  0  0  0  0  0  0
  150.1055  132.3618  153.4028 H   0  0  0  0  0  0  0  0  0  0  0  0
  149.7365  131.6631  154.9750 H   0  0  0  0  0  0  0  0  0  0  0  0
  149.2596  130.2313  152.7113 H   0  0  0  0  0  0  0  0  0  0  0  0
  148.0523  130.2061  154.0081 H   0  0  0  0  0  0  0  0  0  0  0  0
  147.0136  129.9531  151.2214 H   0  0  0  0  0  0  0  0  0  0  0  0
  145.8806  130.3393  152.5083 H   0  0  0  0  0  0  0  0  0  0  0  0
  146.4706  132.0022  149.9966 H   0  0  0  0  0  0  0  0  0  0  0  0
  144.9700  131.1845  150.3497 H   0  0  0  0  0  0  0  0  0  0  0  0
  144.8731  133.6815  150.7848 H   0  0  0  0  0  0  0  0  0  0  0  0
  144.4802  132.7260  152.1920 H   0  0  0  0  0  0  0  0  0  0  0  0
  147.1551  134.1124  151.6411 H   0  0  0  0  0  0  0  0  0  0  0  0
  145.9894  134.5203  152.8856 H   0  0  0  0  0  0  0  0  0  0  0  0
  146.2816  132.2500  153.8976 H   0  0  0  0  0  0  0  0  0  0  0  0
  150.4903  138.9270  153.2964 H   0  0  0  0  0  0  0  0  0  0  0  0
  148.1614  131.9916  151.7284 H   0  0  0  0  0  0  0  0  0  0  0  0
  1  2  1  0  0  0  0
  1 25  1  0  0  0  0
  1 26  1  0  0  0  0
  1 27  1  0  0  0  0
  2  3  1  0  0  0  0
  2 28  1  0  0  0  0
  2 29  1  0  0  0  0
  3  4  1  0  0  0  0
  3  6  1  0  0  0  0
  4  5  1  0  0  0  0
  4 30  1  0  0  0  0
  4 31  1  0  0  0  0
  5 32  1  0  0  0  0
  5 33  1  0  0  0  0
  5 34  1  0  0  0  0
  6 24  1  0  0  0  0
  6  7  2  0  0  0  0
  7  8  1  0  0  0  0
  7 35  1  0  0  0  0
  8  9  2  0  0  0  0
  8 36  1  0  0  0  0
  9 10  1  0  0  0  0
  9 23  1  0  0  0  0
 10 11  1  0  0  0  0
 10 37  1  0  0  0  0
 11 12  2  0  0  0  0
 11 13  1  0  0  0  0
 13 14  1  0  0  0  0
 13 38  1  0  0  0  0
 14 22  1  0  0  0  0
 14 15  1  0  0  0  0
 14 39  1  0  0  0  0
 15 16  1  0  0  0  0
 15 40  1  0  0  0  0
 15 41  1  0  0  0  0
 16 17  1  0  0  0  0
 16 42  1  0  0  0  0
 16 43  1  0  0  0  0
 17 22  1  0  0  0  0
 17 18  1  0  0  0  0
 17 54  1  0  0  0  0
 18 19  1  0  0  0  0
 18 44  1  0  0  0  0
 18 45  1  0  0  0  0
 19 20  1  0  0  0  0
 19 46  1  0  0  0  0
 19 47  1  0  0  0  0
 20 21  1  0  0  0  0
 20 48  1  0  0  0  0
 20 49  1  0  0  0  0
 21 22  1  0  0  0  0
 21 50  1  0  0  0  0
 21 51  1  0  0  0  0
 22 52  1  0  0  0  0
 23 24  2  0  0  0  0
 23 53  1  0  0  0  0
M  CHG  1  17   1
M  END
> <s_m_source_file>
AV-unprocessed.smi

> <i_m_source_file_index>
1701

> <i_lp_mmshare_version>
43012

> <i_f3d_flags>
0

> <s_epik_input>
W0NIM11bQ0gyXU4oW0NIMl1bQ0gzXSljMVtjSF1bY0hdYyhbY0hdbjEpW05IXUMoPU8pW05IXVtDQEhdKFtDSDJdW0NIMl0yKVtDQEBIXShOMjMpW0NIMl1bQ0gyXVtDSDJdW0NIMl0z

> <s_epik_cmdline>
J2VwaWtfcHl0aG9uJywgJy1waCcsICc3LjAnLCAnLXRuJywgJzgnLCAnLW1hJywgJzIwMCcsICctbWV0YWxfYmluZGluZycsICctaW1hZScsICc8aW5maWxlLm1hZT4nLCAnLW9tYWUnLCAnPG91dGZpbGUubWFlPic=

> <r_lp_tautomer_probability>
1

> <r_epik_Ionization_Penalty>
0.56662

> <r_epik_Ionization_Penalty_Charging>
0.000974069

> <r_epik_Ionization_Penalty_Neutral>
0.565646

> <r_epik_State_Penalty>
2.0247

> <r_epik_Charging_Adjusted_Penalty>
2.02568

> <i_epik_Tot_Q>
1

> <i_epik_Tot_abs_Q>
1

> <r_epik_Metal_State_Penalty>
1.51504

> <b_epik_Metal_Only>
0

> <s_lp_Force_Field>
OPLS_2005

> <r_lp_Energy>
60.4427

> <b_lp_Chiralities_Consistent>
1

> <s_lp_Variant>
AV-unprocessed.smi:1701-13

> <Gold.Version>
5.8.1

> <Gold.Id.Protein>
6NUR|6NUR_protein|mol2

> <Gold.PLP.Fitness>
46.6415

> <Gold.PLP.PLP>
-35.2946

> <Gold.PLP.part.hbond>
-4.0000

> <Gold.PLP.part.metal>
0.0000

> <Gold.PLP.part.buried>
-3.4018

> <Gold.PLP.part.nonpolar>
-27.6891

> <Gold.PLP.part.repulsive>
0.1149

> <Gold.PLP.ligand.clash>
0.0000

> <Gold.PLP.ligand.torsion>
1.0831

> <Gold.PLP.Chemscore.Hbond>
3.1803

> <Gold.PLP.Chemscore.CHOScore>
1.0000

> <Gold.PLP.Chemscore.Metal>
0.0000

> <Gold.Chemscore.Hbonds>
donor molecule, donor type, donor heavy atom, donor atom, acceptor molecule, acceptor atom, score
      L1  H    10    37       P1  7948  1.00
      L1  H    13    38       P1  7948  0.66
      L1  H    17    54       P1 10747  0.40
      P1  H  7989  7998       L1    24  0.90
      L1  C    23    53       P1  7957  0.96

> <Gold.PLP.Chemscore.Internal.Correction>
0.9721

> <Gold.Rescore>
     Score         DG    S(hbond)    S(metal)    S(lipo)     H(rot)  DE(clash)    DE(int)     intcor
     17.94     -20.56       2.36        0.00      93.07       1.44       0.01       2.61       ----

> <Gold.Chemscore.Fitness>
17.9411

> <Gold.Chemscore.DG>
-20.5627

> <Gold.Chemscore.ZeroCoef>
-5.4800

> <Gold.Chemscore.Hbond>
2.3597

> <Gold.Chemscore.Metal>
0.0000

> <Gold.Chemscore.Lipo>
93.0665

> <Gold.Chemscore.Internal_Hbond>
0.0000

> <Gold.Chemscore.DEClash>
0.0149

> <Gold.Chemscore.DEInternal>
2.6066

> <Gold.Chemscore.Rot>
1.4404

> <Gold.Chemscore.Internal.Correction>
   9.000000E+99

> <Gold.Chemscore.Hbonds>
donor molecule, donor type, donor heavy atom, donor atom, acceptor molecule, acceptor atom, score
      L1  H    10    37       P1  7948  0.73
      L1  H    13    38       P1  7948  0.08
      L1  H    17    54       P1 10747  0.38
      P1  H  7989  7998       L1    24  0.18

> <Gold.Chemscore.Hbond.Weighted>
-7.8814

> <Gold.Chemscore.Metal.Weighted>
-0.0000

> <Gold.Chemscore.Lipo.Weighted>
-10.8888

> <Gold.Chemscore.Internal_Hbond.Weighted>
0.0000

> <Gold.Chemscore.DEClash.Weighted>
0.0149

> <Gold.Chemscore.DEInternal.Weighted>
2.6066

> <Gold.Chemscore.Rot.Weighted>
3.6875

> <Gold.Chemscore.Internal.Correction.Weighted>
   9.000000E+99

> <Gold.Protein.RotatedTorsions>
[ 6907 6896 6895 6894 ] final  -76.07 input  -60.11 | X-H torsion
[ 7974 7965 7964 7962 ] final   29.61 input  175.53 | X-H torsion
[ 8008 7997 7996 7995 ] final   63.65 input   59.86 | X-H torsion
[ 10167 10162 10161 10158 ] final  -96.56 input  -65.29 | X-H torsion
[ 10718 10713 10712 10709 ] final   66.07 input   66.30 | X-H torsion
[ 10763 10752 10751 10750 ] final  -55.92 input  -60.55 | X-H torsion
[ 11005 11000 10999 10996 ] final    5.53 input  -57.11 | X-H torsion

> <Gold.Protein.ActiveResidues>
 VAL166  LYS551  ARG553  GLY616  TRP617  ASP618  TYR619  PRO620  LYS621  CYS622 
 ASP623  PHE694  ASN695  SER759  ASP760  ASP761  ALA762  ILE779  LEU786  VAL792 
 PHE793  MET794  SER795  GLU796  ALA797  LYS798  CYS799  TRP800  GLU811  SER814 

> <Gold.Protein.RotatedAtoms>
  150.7039  134.4627  159.5387 H   0  0  0  0  0  0  0  0  0  0  0  0  # atno 6907 bound_to 6896
  152.2298  134.8330  160.0484 H   0  0  0  0  0  0  0  0  0  0  0  0  # atno 6908 bound_to 6896
  151.9149  133.3535  159.3913 H   0  0  0  0  0  0  0  0  0  0  0  0  # atno 6909 bound_to 6896
  146.1661  139.6899  142.9000 H   0  0  0  0  0  0  0  0  0  0  0  0  # atno 7974 bound_to 7965
  155.6336  140.3496  155.4691 H   0  0  0  0  0  0  0  0  0  0  0  0  # atno 8008 bound_to 7997
  155.9983  140.1208  157.0595 H   0  0  0  0  0  0  0  0  0  0  0  0  # atno 8009 bound_to 7997
  154.4240  140.1105  156.5648 H   0  0  0  0  0  0  0  0  0  0  0  0  # atno 8010 bound_to 7997
  140.2926  143.3212  152.0330 H   0  0  0  0  0  0  0  0  0  0  0  0  # atno 10167 bound_to 10162
  157.6146  130.9248  150.0060 H   0  0  0  0  0  0  0  0  0  0  0  0  # atno 10718 bound_to 10713
  154.1984  135.6415  153.5080 H   0  0  0  0  0  0  0  0  0  0  0  0  # atno 10763 bound_to 10752
  153.0018  135.5445  154.6341 H   0  0  0  0  0  0  0  0  0  0  0  0  # atno 10764 bound_to 10752
  154.5748  135.2920  155.0765 H   0  0  0  0  0  0  0  0  0  0  0  0  # atno 10765 bound_to 10752
  140.5697  134.0114  155.8003 H   0  0  0  0  0  0  0  0  0  0  0  0  # atno 11005 bound_to 11000
  145.4463  141.0425  143.2829 LP  0  0  0  0  0  0  0  0  0  0  0  0  # atno 17320 bound_to 7965
  144.8095  139.5989  143.7036 LP  0  0  0  0  0  0  0  0  0  0  0  0  # atno 17321 bound_to 7965
  139.4934  144.6514  151.6667 LP  0  0  0  0  0  0  0  0  0  0  0  0  # atno 17342 bound_to 10162
  140.5719  144.0093  150.6221 LP  0  0  0  0  0  0  0  0  0  0  0  0  # atno 17343 bound_to 10162
  156.1262  130.3644  149.9805 LP  0  0  0  0  0  0  0  0  0  0  0  0  # atno 17370 bound_to 10713
  156.7875  130.9244  151.3646 LP  0  0  0  0  0  0  0  0  0  0  0  0  # atno 17371 bound_to 10713
  141.1064  133.9687  157.2989 LP  0  0  0  0  0  0  0  0  0  0  0  0  # atno 17394 bound_to 11000
  139.9368  135.0195  156.8581 LP  0  0  0  0  0  0  0  0  0  0  0  0  # atno 17395 bound_to 11000

$$$$
