AV-unprocessed.smi:1539|AV-procd|sdf|6196|dock7
  -GOLD-   22720 6363D 1   1.00000     0.00000
 Structure written by MMmdl.
 42 43  0  0  0  0  0  0  0  0  2 V2000
  150.5942  128.6658  154.4716 C   0  0  0  0  0  0  0  0  0  0  0  0
  149.2113  128.2314  154.9632 C   0  0  0  0  0  0  0  0  0  0  0  0
  148.8189  128.6626  156.0476 O   0  0  0  0  0  0  0  0  0  0  0  0
  148.4734  127.3841  154.2045 N   0  0  0  0  0  0  0  0  0  0  0  0
  148.9443  126.9192  152.8910 C   0  0  0  0  0  0  0  0  0  0  0  0
  148.5666  127.9131  151.7719 C   0  0  0  0  0  0  0  0  0  0  0  0
  147.0471  128.1697  151.6604 C   0  0  0  0  0  0  0  0  0  0  0  0
  146.5041  128.7606  152.8986 N   0  0  0  0  0  0  0  0  0  0  0  0
  146.5261  130.0842  153.2047 C   0  0  0  0  0  0  0  0  0  0  0  0
  146.4154  130.5162  154.3531 O   0  0  0  0  0  0  0  0  0  0  0  0
  146.6994  130.9022  152.1516 N   0  0  0  0  0  0  0  0  0  0  0  0
  146.7936  132.3548  152.2263 C   0  0  0  0  0  0  0  0  0  0  0  0
  146.8848  132.9864  150.8276 C   0  0  0  0  0  0  0  0  0  0  0  0
  145.5778  133.0358  150.1715 N   0  0  0  0  0  0  0  0  0  0  0  0
  145.1732  132.3170  149.0763 C   0  0  0  0  0  0  0  0  0  0  0  0
  143.8776  132.6873  148.8231 C   0  0  0  0  0  0  0  0  0  0  0  0
  143.5468  133.6156  149.7739 N   0  3  0  0  0  0  0  0  0  0  0  0
  144.5819  133.8249  150.5944 C   0  0  0  0  0  0  0  0  0  0  0  0
  145.9931  127.7575  153.8510 C   0  0  0  0  0  0  0  0  0  0  0  0
  147.1120  126.9337  154.5449 C   0  0  0  0  0  0  0  0  0  0  0  0
  151.2167  127.8019  154.2376 H   0  0  0  0  0  0  0  0  0  0  0  0
  151.1089  129.2464  155.2378 H   0  0  0  0  0  0  0  0  0  0  0  0
  150.5072  129.2901  153.5822 H   0  0  0  0  0  0  0  0  0  0  0  0
  150.0247  126.7662  152.9005 H   0  0  0  0  0  0  0  0  0  0  0  0
  148.5240  125.9397  152.6605 H   0  0  0  0  0  0  0  0  0  0  0  0
  149.0926  128.8558  151.9265 H   0  0  0  0  0  0  0  0  0  0  0  0
  148.9296  127.5242  150.8202 H   0  0  0  0  0  0  0  0  0  0  0  0
  146.8335  128.8018  150.7974 H   0  0  0  0  0  0  0  0  0  0  0  0
  146.5432  127.2272  151.4424 H   0  0  0  0  0  0  0  0  0  0  0  0
  146.7935  130.4820  151.2381 H   0  0  0  0  0  0  0  0  0  0  0  0
  145.9378  132.7542  152.7734 H   0  0  0  0  0  0  0  0  0  0  0  0
  147.6793  132.6084  152.8096 H   0  0  0  0  0  0  0  0  0  0  0  0
  147.2826  134.0008  150.8831 H   0  0  0  0  0  0  0  0  0  0  0  0
  147.5535  132.4141  150.1831 H   0  0  0  0  0  0  0  0  0  0  0  0
  145.8210  131.6134  148.5726 H   0  0  0  0  0  0  0  0  0  0  0  0
  143.1848  132.3681  148.0579 H   0  0  0  0  0  0  0  0  0  0  0  0
  144.6073  134.4986  151.4326 H   0  0  0  0  0  0  0  0  0  0  0  0
  145.3674  128.2159  154.6179 H   0  0  0  0  0  0  0  0  0  0  0  0
  145.3164  127.0808  153.3278 H   0  0  0  0  0  0  0  0  0  0  0  0
  147.0054  125.8875  154.2561 H   0  0  0  0  0  0  0  0  0  0  0  0
  146.9439  126.9180  155.6215 H   0  0  0  0  0  0  0  0  0  0  0  0
  142.6492  134.0781  149.8475 H   0  0  0  0  0  0  0  0  0  0  0  0
  1  2  1  0  0  0  0
  1 21  1  0  0  0  0
  1 22  1  0  0  0  0
  1 23  1  0  0  0  0
  2  3  2  0  0  0  0
  2  4  1  0  0  0  0
  4 20  1  0  0  0  0
  4  5  1  0  0  0  0
  5  6  1  0  0  0  0
  5 24  1  0  0  0  0
  5 25  1  0  0  0  0
  6  7  1  0  0  0  0
  6 26  1  0  0  0  0
  6 27  1  0  0  0  0
  7  8  1  0  0  0  0
  7 28  1  0  0  0  0
  7 29  1  0  0  0  0
  8  9  1  0  0  0  0
  8 19  1  0  0  0  0
  9 10  2  0  0  0  0
  9 11  1  0  0  0  0
 11 12  1  0  0  0  0
 11 30  1  0  0  0  0
 12 13  1  0  0  0  0
 12 31  1  0  0  0  0
 12 32  1  0  0  0  0
 13 14  1  0  0  0  0
 13 33  1  0  0  0  0
 13 34  1  0  0  0  0
 14 18  1  0  0  0  0
 14 15  1  0  0  0  0
 15 16  2  0  0  0  0
 15 35  1  0  0  0  0
 16 17  1  0  0  0  0
 16 36  1  0  0  0  0
 17 18  2  0  0  0  0
 17 42  1  0  0  0  0
 18 37  1  0  0  0  0
 19 20  1  0  0  0  0
 19 38  1  0  0  0  0
 19 39  1  0  0  0  0
 20 40  1  0  0  0  0
 20 41  1  0  0  0  0
M  CHG  1  17   1
M  END
> <s_m_source_file>
AV-unprocessed.smi

> <i_m_source_file_index>
1539

> <i_lp_mmshare_version>
43012

> <i_f3d_flags>
0

> <s_epik_input>
W0NIM11DKD1PKU4xW0NIMl1bQ0gyXVtDSDJdTihbQ0gyXVtDSDJdMSlDKD1PKVtOSF1bQ0gyXVtDSDJdbjJbY0hdW2NIXW5bY0hdMg==

> <s_epik_cmdline>
J2VwaWtfcHl0aG9uJywgJy1waCcsICc3LjAnLCAnLXRuJywgJzgnLCAnLW1hJywgJzIwMCcsICctbWV0YWxfYmluZGluZycsICctaW1hZScsICc8aW5maWxlLm1hZT4nLCAnLW9tYWUnLCAnPG91dGZpbGUubWFlPic=

> <r_lp_tautomer_probability>
1

> <r_epik_Ionization_Penalty>
0.254079

> <r_epik_Ionization_Penalty_Charging>
0

> <r_epik_Ionization_Penalty_Neutral>
0.254079

> <r_epik_State_Penalty>
0.245493

> <r_epik_Charging_Adjusted_Penalty>
0.245493

> <i_epik_Tot_Q>
1

> <i_epik_Tot_abs_Q>
1

> <r_epik_Metal_State_Penalty>
0.535648

> <b_epik_Metal_Only>
0

> <s_lp_Force_Field>
OPLS_2005

> <r_lp_Energy>
43.2206

> <b_lp_Chiralities_Consistent>
1

> <s_lp_Variant>
AV-unprocessed.smi:1539-1

> <Gold.Version>
5.8.1

> <Gold.Id.Protein>
6NUR|6NUR_protein|mol2

> <Gold.PLP.Fitness>
40.2976

> <Gold.PLP.PLP>
-34.8235

> <Gold.PLP.part.hbond>
-2.0000

> <Gold.PLP.part.metal>
0.0000

> <Gold.PLP.part.buried>
0.1155

> <Gold.PLP.part.nonpolar>
-31.5927

> <Gold.PLP.part.repulsive>
0.2061

> <Gold.PLP.ligand.clash>
0.0000

> <Gold.PLP.ligand.torsion>
0.3014

> <Gold.PLP.Chemscore.Hbond>
2.0195

> <Gold.PLP.Chemscore.CHOScore>
0.0000

> <Gold.PLP.Chemscore.Metal>
0.0000

> <Gold.Chemscore.Hbonds>
donor molecule, donor type, donor heavy atom, donor atom, acceptor molecule, acceptor atom, score
      L1  H    11    30       P1 10747  0.02
      L1  H    17    42       P1 10186  2.00

> <Gold.PLP.Chemscore.Internal.Correction>
0.0184

> <Gold.Rescore>
     Score         DG    S(hbond)    S(metal)    S(lipo)     H(rot)  DE(clash)    DE(int)     intcor
     13.12     -13.83       1.00        0.00      80.19       1.70       0.44       0.28       ----

> <Gold.Chemscore.Fitness>
13.1221

> <Gold.Chemscore.DG>
-13.8331

> <Gold.Chemscore.ZeroCoef>
-5.4800

> <Gold.Chemscore.Hbond>
0.9977

> <Gold.Chemscore.Metal>
0.0000

> <Gold.Chemscore.Lipo>
80.1892

> <Gold.Chemscore.Internal_Hbond>
0.0000

> <Gold.Chemscore.DEClash>
0.4351

> <Gold.Chemscore.DEInternal>
0.2759

> <Gold.Chemscore.Rot>
1.7036

> <Gold.Chemscore.Internal.Correction>
   9.000000E+99

> <Gold.Chemscore.Hbonds>
donor molecule, donor type, donor heavy atom, donor atom, acceptor molecule, acceptor atom, score
      L1  H    11    30       P1 10747  0.03
      L1  H    17    42       P1 10186  0.99

> <Gold.Chemscore.Hbond.Weighted>
-3.3323

> <Gold.Chemscore.Metal.Weighted>
-0.0000

> <Gold.Chemscore.Lipo.Weighted>
-9.3821

> <Gold.Chemscore.Internal_Hbond.Weighted>
0.0000

> <Gold.Chemscore.DEClash.Weighted>
0.4351

> <Gold.Chemscore.DEInternal.Weighted>
0.2759

> <Gold.Chemscore.Rot.Weighted>
4.3613

> <Gold.Chemscore.Internal.Correction.Weighted>
   9.000000E+99

> <Gold.Protein.RotatedTorsions>
[ 6907 6896 6895 6894 ] final  161.72 input  -60.11 | X-H torsion
[ 7974 7965 7964 7962 ] final  -11.24 input  175.53 | X-H torsion
[ 8008 7997 7996 7995 ] final -138.97 input   59.86 | X-H torsion
[ 10167 10162 10161 10158 ] final   93.10 input  -65.29 | X-H torsion
[ 10718 10713 10712 10709 ] final  -21.30 input   66.30 | X-H torsion
[ 10763 10752 10751 10750 ] final  106.70 input  -60.55 | X-H torsion
[ 11005 11000 10999 10996 ] final  -46.28 input  -57.11 | X-H torsion

> <Gold.Protein.ActiveResidues>
 VAL166  LYS551  ARG553  GLY616  TRP617  ASP618  TYR619  PRO620  LYS621  CYS622 
 ASP623  PHE694  ASN695  SER759  ASP760  ASP761  ALA762  ILE779  LEU786  VAL792 
 PHE793  MET794  SER795  GLU796  ALA797  LYS798  CYS799  TRP800  GLU811  SER814 

> <Gold.Protein.RotatedAtoms>
  151.9514  133.3667  159.4000 H   0  0  0  0  0  0  0  0  0  0  0  0  # atno 6907 bound_to 6896
  150.6980  134.4337  159.5269 H   0  0  0  0  0  0  0  0  0  0  0  0  # atno 6908 bound_to 6896
  152.2010  134.8587  160.0558 H   0  0  0  0  0  0  0  0  0  0  0  0  # atno 6909 bound_to 6896
  146.2194  140.2882  142.8366 H   0  0  0  0  0  0  0  0  0  0  0  0  # atno 7974 bound_to 7965
  155.4372  140.0529  157.3013 H   0  0  0  0  0  0  0  0  0  0  0  0  # atno 8008 bound_to 7997
  154.4834  140.2091  155.9669 H   0  0  0  0  0  0  0  0  0  0  0  0  # atno 8009 bound_to 7997
  156.1239  140.3183  155.8253 H   0  0  0  0  0  0  0  0  0  0  0  0  # atno 8010 bound_to 7997
  139.8212  144.6730  150.9516 H   0  0  0  0  0  0  0  0  0  0  0  0  # atno 10167 bound_to 10162
  156.5200  130.4630  149.6602 H   0  0  0  0  0  0  0  0  0  0  0  0  # atno 10718 bound_to 10713
  153.3966  135.3868  155.1959 H   0  0  0  0  0  0  0  0  0  0  0  0  # atno 10763 bound_to 10752
  154.8725  135.3761  154.4671 H   0  0  0  0  0  0  0  0  0  0  0  0  # atno 10764 bound_to 10752
  153.5163  135.7087  153.5816 H   0  0  0  0  0  0  0  0  0  0  0  0  # atno 10765 bound_to 10752
  141.0569  133.6722  156.3133 H   0  0  0  0  0  0  0  0  0  0  0  0  # atno 11005 bound_to 11000
  144.9146  140.7798  143.5786 LP  0  0  0  0  0  0  0  0  0  0  0  0  # atno 17320 bound_to 7965
  145.2815  139.1916  143.4788 LP  0  0  0  0  0  0  0  0  0  0  0  0  # atno 17321 bound_to 7965
  140.7813  143.4089  151.1025 LP  0  0  0  0  0  0  0  0  0  0  0  0  # atno 17342 bound_to 10162
  139.7750  143.8439  152.3127 LP  0  0  0  0  0  0  0  0  0  0  0  0  # atno 17343 bound_to 10162
  156.3158  130.7254  151.2156 LP  0  0  0  0  0  0  0  0  0  0  0  0  # atno 17370 bound_to 10713
  157.7438  131.0469  150.4916 LP  0  0  0  0  0  0  0  0  0  0  0  0  # atno 17371 bound_to 10713
  140.5946  134.5616  157.5506 LP  0  0  0  0  0  0  0  0  0  0  0  0  # atno 17394 bound_to 11000
  139.9398  134.7808  156.0708 LP  0  0  0  0  0  0  0  0  0  0  0  0  # atno 17395 bound_to 11000

$$$$
