AV-unprocessed.smi:227|AV-procd|sdf|1736|dock1
  -GOLD-   2262020233D 1   1.00000     0.00000
 Structure written by MMmdl.
 54 58  0  0  0  0  0  0  0  0  1 V2000
  150.4010  140.4147  154.8135 O   0  0  0  0  0  0  0  0  0  0  0  0
  150.7135  141.3429  155.8320 C   0  0  0  0  0  0  0  0  0  0  0  0
  150.8099  140.6629  157.2227 C   0  0  1  0  0  0  0  0  0  0  0  0
  151.2273  139.1716  157.1240 C   0  0  0  0  0  0  0  0  0  0  0  0
  150.5061  138.3005  158.0348 N   0  0  0  0  0  0  0  0  0  0  0  0
  151.0429  137.5789  159.0742 C   0  0  0  0  0  0  0  0  0  0  0  0
  150.1857  136.8716  159.7570 N   0  0  0  0  0  0  0  0  0  0  0  0
  148.9600  137.1256  159.1498 C   0  0  0  0  0  0  0  0  0  0  0  0
  147.6154  136.7054  159.3821 C   0  0  0  0  0  0  0  0  0  0  0  0
  147.2151  135.8604  160.3734 N   0  0  0  0  0  0  0  0  0  0  0  0
  147.3982  136.1797  161.7819 C   0  0  2  0  0  0  0  0  0  0  0  0
  146.9738  134.8725  162.4733 C   0  0  0  0  0  0  0  0  0  0  0  0
  145.8484  134.3925  161.5462 C   0  0  0  0  0  0  0  0  0  0  0  0
  145.8018  135.5331  160.5121 C   0  0  1  0  0  0  0  0  0  0  0  0
  145.1998  136.8280  161.1171 C   0  0  1  0  0  0  0  0  0  0  0  0
  143.8099  136.6959  161.7665 C   0  0  0  0  0  0  0  0  0  0  0  0
  142.8668  136.2799  160.8021 O   0  0  0  0  0  0  0  0  0  0  0  0
  146.3339  137.2595  162.0671 C   0  0  0  0  0  0  0  0  0  0  0  0
  146.6646  137.1751  158.5314 N   0  0  0  0  0  0  0  0  0  0  0  0
  146.9884  138.0065  157.5382 C   0  0  0  0  0  0  0  0  0  0  0  0
  148.1878  138.4886  157.2132 N   0  0  0  0  0  0  0  0  0  0  0  0
  149.1522  138.0156  158.0526 C   0  0  0  0  0  0  0  0  0  0  0  0
  151.7788  141.4379  158.1531 C   0  0  1  0  0  0  0  0  0  0  0  0
  151.3887  142.8930  158.4167 C   0  0  0  0  0  0  0  0  0  0  0  0
  151.7673  143.1462  159.8792 C   0  0  0  0  0  0  0  0  0  0  0  0
  152.4394  141.9708  160.3028 O   0  0  0  0  0  0  0  0  0  0  0  0
  151.8893  140.8865  159.5771 C   0  0  0  0  0  0  0  0  0  0  0  0
  149.5747  140.0064  155.0225 H   0  0  0  0  0  0  0  0  0  0  0  0
  151.6429  141.8582  155.5876 H   0  0  0  0  0  0  0  0  0  0  0  0
  149.9276  142.0967  155.8100 H   0  0  0  0  0  0  0  0  0  0  0  0
  149.8225  140.7047  157.6856 H   0  0  0  0  0  0  0  0  0  0  0  0
  151.0820  138.8075  156.1060 H   0  0  0  0  0  0  0  0  0  0  0  0
  152.2886  139.0539  157.3417 H   0  0  0  0  0  0  0  0  0  0  0  0
  152.0961  137.5980  159.3138 H   0  0  0  0  0  0  0  0  0  0  0  0
  148.4055  136.4705  162.0738 H   0  0  0  0  0  0  0  0  0  0  0  0
  147.7926  134.1521  162.4852 H   0  0  0  0  0  0  0  0  0  0  0  0
  146.6422  135.0264  163.5008 H   0  0  0  0  0  0  0  0  0  0  0  0
  146.1332  133.4561  161.0646 H   0  0  0  0  0  0  0  0  0  0  0  0
  144.9051  134.2196  162.0624 H   0  0  0  0  0  0  0  0  0  0  0  0
  145.3114  135.2264  159.5877 H   0  0  0  0  0  0  0  0  0  0  0  0
  145.1223  137.5625  160.3131 H   0  0  0  0  0  0  0  0  0  0  0  0
  143.8343  135.9581  162.5687 H   0  0  0  0  0  0  0  0  0  0  0  0
  143.4730  137.6386  162.1970 H   0  0  0  0  0  0  0  0  0  0  0  0
  142.1923  136.9387  160.7388 H   0  0  0  0  0  0  0  0  0  0  0  0
  146.0373  137.2810  163.1164 H   0  0  0  0  0  0  0  0  0  0  0  0
  146.6981  138.2529  161.8023 H   0  0  0  0  0  0  0  0  0  0  0  0
  146.1685  138.3329  156.9157 H   0  0  0  0  0  0  0  0  0  0  0  0
  152.7785  141.4285  157.7157 H   0  0  0  0  0  0  0  0  0  0  0  0
  151.9170  143.5687  157.7431 H   0  0  0  0  0  0  0  0  0  0  0  0
  150.3191  143.0573  158.2788 H   0  0  0  0  0  0  0  0  0  0  0  0
  152.4043  144.0225  160.0011 H   0  0  0  0  0  0  0  0  0  0  0  0
  150.8730  143.2883  160.4877 H   0  0  0  0  0  0  0  0  0  0  0  0
  150.9093  140.6315  159.9847 H   0  0  0  0  0  0  0  0  0  0  0  0
  152.5315  140.0081  159.6438 H   0  0  0  0  0  0  0  0  0  0  0  0
  1  2  1  0  0  0  0
  1 28  1  0  0  0  0
  2  3  1  0  0  0  0
  2 29  1  0  0  0  0
  2 30  1  0  0  0  0
  3  4  1  0  0  0  0
  3 23  1  0  0  0  0
  3 31  1  0  0  0  0
  4  5  1  0  0  0  0
  4 32  1  0  0  0  0
  4 33  1  0  0  0  0
  5 22  1  0  0  0  0
  5  6  1  0  0  0  0
  6  7  2  0  0  0  0
  6 34  1  0  0  0  0
  7  8  1  0  0  0  0
  8 22  2  0  0  0  0
  8  9  1  0  0  0  0
  9 10  1  0  0  0  0
  9 19  2  0  0  0  0
 10 14  1  0  0  0  0
 10 11  1  0  0  0  0
 11 18  1  0  0  0  0
 11 12  1  0  0  0  0
 11 35  1  0  0  0  0
 12 13  1  0  0  0  0
 12 36  1  0  0  0  0
 12 37  1  0  0  0  0
 13 14  1  0  0  0  0
 13 38  1  0  0  0  0
 13 39  1  0  0  0  0
 14 15  1  0  0  0  0
 14 40  1  0  0  0  0
 15 16  1  0  0  0  0
 15 18  1  0  0  0  0
 15 41  1  0  0  0  0
 16 17  1  0  0  0  0
 16 42  1  0  0  0  0
 16 43  1  0  0  0  0
 17 44  1  0  0  0  0
 18 45  1  0  0  0  0
 18 46  1  0  0  0  0
 19 20  1  0  0  0  0
 20 21  2  0  0  0  0
 20 47  1  0  0  0  0
 21 22  1  0  0  0  0
 23 27  1  0  0  0  0
 23 24  1  0  0  0  0
 23 48  1  0  0  0  0
 24 25  1  0  0  0  0
 24 49  1  0  0  0  0
 24 50  1  0  0  0  0
 25 26  1  0  0  0  0
 25 51  1  0  0  0  0
 25 52  1  0  0  0  0
 26 27  1  0  0  0  0
 27 53  1  0  0  0  0
 27 54  1  0  0  0  0
M  END
> <s_m_source_file>
AV-unprocessed.smi

> <i_m_source_file_index>
227

> <i_lp_mmshare_version>
43012

> <i_f3d_flags>
0

> <s_epik_input>
W0NIMl0xT1tDSDJdW0NIMl1bQ0BIXTFbQ0BIXShbQ0gyXVtPSF0pW0NIMl1uKFtjSF1uMiljKGMyMyluW2NIXW5jM04oW0NASF00NSlbQ0BASF0oW0NIMl1bQ0gyXTQpW0NASF0oW0NIMl01KVtDSDJdW09IXQ==

> <s_epik_cmdline>
J2VwaWtfcHl0aG9uJywgJy1waCcsICc3LjAnLCAnLXRuJywgJzgnLCAnLW1hJywgJzIwMCcsICctbWV0YWxfYmluZGluZycsICctaW1hZScsICc8aW5maWxlLm1hZT4nLCAnLW9tYWUnLCAnPG91dGZpbGUubWFlPic=

> <r_lp_tautomer_probability>
1

> <r_epik_Ionization_Penalty>
0.0055791

> <r_epik_Ionization_Penalty_Charging>
0

> <r_epik_Ionization_Penalty_Neutral>
0.0055791

> <r_epik_State_Penalty>
0.00401299

> <r_epik_Charging_Adjusted_Penalty>
0.00401299

> <i_epik_Tot_Q>
0

> <i_epik_Tot_abs_Q>
0

> <r_epik_Metal_State_Penalty>
-0

> <b_epik_Metal_Only>
0

> <s_lp_Force_Field>
OPLS_2005

> <r_lp_Energy>
88.8293

> <b_lp_Chiralities_Consistent>
1

> <s_lp_Variant>
AV-unprocessed.smi:227-10

> <Gold.Version>
5.8.1

> <Gold.Id.Protein>
6NUR|6NUR_protein|mol2

> <Gold.PLP.Fitness>
49.4615

> <Gold.PLP.PLP>
-45.1454

> <Gold.PLP.part.hbond>
-2.2526

> <Gold.PLP.part.metal>
0.0000

> <Gold.PLP.part.buried>
-6.3641

> <Gold.PLP.part.nonpolar>
-36.4816

> <Gold.PLP.part.repulsive>
0.0000

> <Gold.PLP.ligand.clash>
0.0000

> <Gold.PLP.ligand.torsion>
0.9433

> <Gold.PLP.Chemscore.Hbond>
1.9760

> <Gold.PLP.Chemscore.CHOScore>
0.0000

> <Gold.PLP.Chemscore.Metal>
0.0000

> <Gold.Chemscore.Hbonds>
donor molecule, donor type, donor heavy atom, donor atom, acceptor molecule, acceptor atom, score
      P1  H  6896  6908       L1     7  0.91
      P1  H  7989  7998       L1     1  1.00

> <Gold.PLP.Chemscore.Internal.Correction>
0.2746

> <Gold.Rescore>
     Score         DG    S(hbond)    S(metal)    S(lipo)     H(rot)  DE(clash)    DE(int)     intcor
     13.02     -14.29       1.70        0.00     105.71       3.61       0.10       1.17       ----

> <Gold.Chemscore.Fitness>
13.0199

> <Gold.Chemscore.DG>
-14.2891

> <Gold.Chemscore.ZeroCoef>
-5.4800

> <Gold.Chemscore.Hbond>
1.6992

> <Gold.Chemscore.Metal>
0.0000

> <Gold.Chemscore.Lipo>
105.7096

> <Gold.Chemscore.Internal_Hbond>
0.0000

> <Gold.Chemscore.DEClash>
0.0977

> <Gold.Chemscore.DEInternal>
1.1715

> <Gold.Chemscore.Rot>
3.6071

> <Gold.Chemscore.Internal.Correction>
   9.000000E+99

> <Gold.Chemscore.Hbonds>
donor molecule, donor type, donor heavy atom, donor atom, acceptor molecule, acceptor atom, score
      P1  H  6896  6908       L1     7  0.47
      P1  H  7989  7998       L1     1  0.33

> <Gold.Chemscore.Hbond.Weighted>
-5.6753

> <Gold.Chemscore.Metal.Weighted>
-0.0000

> <Gold.Chemscore.Lipo.Weighted>
-12.3680

> <Gold.Chemscore.Internal_Hbond.Weighted>
0.0000

> <Gold.Chemscore.DEClash.Weighted>
0.0977

> <Gold.Chemscore.DEInternal.Weighted>
1.1715

> <Gold.Chemscore.Rot.Weighted>
9.2342

> <Gold.Chemscore.Internal.Correction.Weighted>
   9.000000E+99

> <Gold.Protein.RotatedTorsions>
[ 6907 6896 6895 6894 ] final -164.96 input  -60.11 | X-H torsion
[ 7974 7965 7964 7962 ] final  -61.06 input  175.53 | X-H torsion
[ 8008 7997 7996 7995 ] final   46.96 input   59.86 | X-H torsion
[ 10167 10162 10161 10158 ] final -105.40 input  -65.29 | X-H torsion
[ 10718 10713 10712 10709 ] final  -46.95 input   66.30 | X-H torsion
[ 10763 10752 10751 10750 ] final  170.57 input  -60.55 | X-H torsion
[ 11005 11000 10999 10996 ] final -154.06 input  -57.11 | X-H torsion

> <Gold.Protein.ActiveResidues>
 VAL166  LYS551  ARG553  GLY616  TRP617  ASP618  TYR619  PRO620  LYS621  CYS622 
 ASP623  PHE694  ASN695  SER759  ASP760  ASP761  ALA762  ILE779  LEU786  VAL792 
 PHE793  MET794  SER795  GLU796  ALA797  LYS798  CYS799  TRP800  GLU811  SER814 

> <Gold.Protein.RotatedAtoms>
  151.4201  133.3701  159.2754 H   0  0  0  0  0  0  0  0  0  0  0  0  # atno 6907 bound_to 6896
  150.9299  134.8716  159.7555 H   0  0  0  0  0  0  0  0  0  0  0  0  # atno 6908 bound_to 6896
  152.5023  134.4145  159.9512 H   0  0  0  0  0  0  0  0  0  0  0  0  # atno 6909 bound_to 6896
  145.8080  140.8615  143.0196 H   0  0  0  0  0  0  0  0  0  0  0  0  # atno 7974 bound_to 7965
  155.3611  140.3418  155.4241 H   0  0  0  0  0  0  0  0  0  0  0  0  # atno 8008 bound_to 7997
  156.1713  140.1633  156.8477 H   0  0  0  0  0  0  0  0  0  0  0  0  # atno 8009 bound_to 7997
  154.5236  140.0761  156.8200 H   0  0  0  0  0  0  0  0  0  0  0  0  # atno 8010 bound_to 7997
  140.1989  143.3834  152.1146 H   0  0  0  0  0  0  0  0  0  0  0  0  # atno 10167 bound_to 10162
  156.2132  130.4162  149.9087 H   0  0  0  0  0  0  0  0  0  0  0  0  # atno 10718 bound_to 10713
  154.3995  135.2755  155.2105 H   0  0  0  0  0  0  0  0  0  0  0  0  # atno 10763 bound_to 10752
  154.4137  135.6016  153.5971 H   0  0  0  0  0  0  0  0  0  0  0  0  # atno 10764 bound_to 10752
  152.9831  135.5955  154.4261 H   0  0  0  0  0  0  0  0  0  0  0  0  # atno 10765 bound_to 10752
  140.7015  134.3932  157.5209 H   0  0  0  0  0  0  0  0  0  0  0  0  # atno 11005 bound_to 11000
  144.6760  140.0355  143.7482 LP  0  0  0  0  0  0  0  0  0  0  0  0  # atno 17320 bound_to 7965
  145.9807  139.2939  143.1043 LP  0  0  0  0  0  0  0  0  0  0  0  0  # atno 17321 bound_to 7965
  139.5225  144.7060  151.5353 LP  0  0  0  0  0  0  0  0  0  0  0  0  # atno 17342 bound_to 10162
  140.6404  143.8900  150.6686 LP  0  0  0  0  0  0  0  0  0  0  0  0  # atno 17343 bound_to 10162
  156.6758  130.8838  151.3569 LP  0  0  0  0  0  0  0  0  0  0  0  0  # atno 17370 bound_to 10713
  157.7049  130.9374  150.0901 LP  0  0  0  0  0  0  0  0  0  0  0  0  # atno 17371 bound_to 10713
  139.8895  134.8827  156.2415 LP  0  0  0  0  0  0  0  0  0  0  0  0  # atno 17394 bound_to 11000
  141.0160  133.7068  156.1189 LP  0  0  0  0  0  0  0  0  0  0  0  0  # atno 17395 bound_to 11000

$$$$
