AV-unprocessed.smi:912|AV-procd|sdf|4142|dock9
  -GOLD-   22720 2 53D 1   1.00000     0.00000
 Structure written by MMmdl.
 27 27  0  0  0  0  0  0  0  0  2 V2000
  146.9007  138.8515  152.2315 C   0  0  0  0  0  0  0  0  0  0  0  0
  148.2757  138.7401  152.7725 N   0  3  0  0  0  0  0  0  0  0  0  0
  148.4758  138.9535  154.2357 C   0  0  1  0  0  0  0  0  0  0  0  0
  147.7618  140.2560  154.6834 C   0  0  0  0  0  0  0  0  0  0  0  0
  147.9181  137.7119  154.9779 C   0  0  0  0  0  0  0  0  0  0  0  0
  147.5697  136.6484  154.2436 N   0  0  0  0  0  0  0  0  0  0  0  0
  147.7864  137.7114  156.2005 O   0  0  0  0  0  0  0  0  0  0  0  0
  149.9805  139.0781  154.5571 C   0  0  0  0  0  0  0  0  0  0  0  0
  150.9325  138.1069  154.1535 C   0  0  0  0  0  0  0  0  0  0  0  0
  152.2890  138.2985  154.4848 C   0  0  0  0  0  0  0  0  0  0  0  0
  152.7431  139.3656  155.1725 N   0  0  0  0  0  0  0  0  0  0  0  0
  151.8433  140.2931  155.5573 C   0  0  0  0  0  0  0  0  0  0  0  0
  150.4663  140.1969  155.2770 C   0  0  0  0  0  0  0  0  0  0  0  0
  146.9066  138.5716  151.1783 H   0  0  0  0  0  0  0  0  0  0  0  0
  146.5270  139.8734  152.2927 H   0  0  0  0  0  0  0  0  0  0  0  0
  146.2031  138.1899  152.7449 H   0  0  0  0  0  0  0  0  0  0  0  0
  148.6218  137.8172  152.5527 H   0  0  0  0  0  0  0  0  0  0  0  0
  147.9127  140.4609  155.7436 H   0  0  0  0  0  0  0  0  0  0  0  0
  146.6829  140.2171  154.5319 H   0  0  0  0  0  0  0  0  0  0  0  0
  148.1390  141.1180  154.1323 H   0  0  0  0  0  0  0  0  0  0  0  0
  147.1749  135.8297  154.6836 H   0  0  0  0  0  0  0  0  0  0  0  0
  147.6770  136.6804  153.2396 H   0  0  0  0  0  0  0  0  0  0  0  0
  150.6604  137.2214  153.5998 H   0  0  0  0  0  0  0  0  0  0  0  0
  153.0302  137.5713  154.1884 H   0  0  0  0  0  0  0  0  0  0  0  0
  152.2312  141.1379  156.1070 H   0  0  0  0  0  0  0  0  0  0  0  0
  149.7981  140.9740  155.6187 H   0  0  0  0  0  0  0  0  0  0  0  0
  148.8485  139.4145  152.2855 H   0  0  0  0  0  0  0  0  0  0  0  0
  1  2  1  0  0  0  0
  1 14  1  0  0  0  0
  1 15  1  0  0  0  0
  1 16  1  0  0  0  0
  2  3  1  0  0  0  0
  2 17  1  0  0  0  0
  2 27  1  0  0  0  0
  3  4  1  0  0  0  0
  3  5  1  0  0  0  0
  3  8  1  0  0  0  0
  4 18  1  0  0  0  0
  4 19  1  0  0  0  0
  4 20  1  0  0  0  0
  5  6  1  0  0  0  0
  5  7  2  0  0  0  0
  6 21  1  0  0  0  0
  6 22  1  0  0  0  0
  8 13  1  0  0  0  0
  8  9  2  0  0  0  0
  9 10  1  0  0  0  0
  9 23  1  0  0  0  0
 10 11  2  0  0  0  0
 10 24  1  0  0  0  0
 11 12  1  0  0  0  0
 12 13  2  0  0  0  0
 12 25  1  0  0  0  0
 13 26  1  0  0  0  0
M  CHG  1   2   1
M  END
> <s_m_source_file>
AV-unprocessed.smi

> <i_m_source_file_index>
912

> <i_lp_mmshare_version>
43012

> <i_f3d_flags>
0

> <s_epik_input>
W0NIM11bTkhdW0NAQF0oW0NIM10pKEMoPU8pW05IMl0pYzFbY0hdW2NIXW5bY0hdW2NIXTE=

> <s_epik_cmdline>
J2VwaWtfcHl0aG9uJywgJy1waCcsICc3LjAnLCAnLXRuJywgJzgnLCAnLW1hJywgJzIwMCcsICctbWV0YWxfYmluZGluZycsICctaW1hZScsICc8aW5maWxlLm1hZT4nLCAnLW9tYWUnLCAnPG91dGZpbGUubWFlPic=

> <r_epik_Ionization_Penalty>
0.8426

> <r_epik_Ionization_Penalty_Charging>
0.842363

> <r_epik_Ionization_Penalty_Neutral>
0.000236815

> <r_epik_State_Penalty>
0.498415

> <r_epik_Charging_Adjusted_Penalty>
1.34078

> <i_epik_Tot_Q>
1

> <i_epik_Tot_abs_Q>
1

> <r_epik_Metal_State_Penalty>
0.661775

> <b_epik_Metal_Only>
0

> <s_lp_Force_Field>
OPLS_2005

> <r_lp_Energy>
11.5285

> <b_lp_Chiralities_Consistent>
1

> <s_lp_Variant>
AV-unprocessed.smi:912-3

> <Gold.Version>
5.8.1

> <Gold.Id.Protein>
6NUR|6NUR_protein|mol2

> <Gold.PLP.Fitness>
38.0422

> <Gold.PLP.PLP>
-24.6031

> <Gold.PLP.part.hbond>
-4.4479

> <Gold.PLP.part.metal>
0.0000

> <Gold.PLP.part.buried>
-1.7717

> <Gold.PLP.part.nonpolar>
-17.8689

> <Gold.PLP.part.repulsive>
0.0923

> <Gold.PLP.ligand.clash>
0.0000

> <Gold.PLP.ligand.torsion>
0.5100

> <Gold.PLP.Chemscore.Hbond>
4.8160

> <Gold.PLP.Chemscore.CHOScore>
0.0000

> <Gold.PLP.Chemscore.Metal>
0.0000

> <Gold.Chemscore.Hbonds>
donor molecule, donor type, donor heavy atom, donor atom, acceptor molecule, acceptor atom, score
      L1  H     2    17       P1  7948  2.00
      L1  H     2    27       P1  7957  0.89
      L1  H     6    22       P1  7948  0.82
      P1  H  7997  8008       L1    11  0.79

> <Gold.PLP.Chemscore.Internal.Correction>
0.0111

> <Gold.Rescore>
     Score         DG    S(hbond)    S(metal)    S(lipo)     H(rot)  DE(clash)    DE(int)     intcor
     19.22     -20.11       3.91        0.00      53.49       1.83       0.31       0.59       ----

> <Gold.Chemscore.Fitness>
19.2158

> <Gold.Chemscore.DG>
-20.1077

> <Gold.Chemscore.ZeroCoef>
-5.4800

> <Gold.Chemscore.Hbond>
3.9063

> <Gold.Chemscore.Metal>
0.0000

> <Gold.Chemscore.Lipo>
53.4854

> <Gold.Chemscore.Internal_Hbond>
0.0000

> <Gold.Chemscore.DEClash>
0.3051

> <Gold.Chemscore.DEInternal>
0.5868

> <Gold.Chemscore.Rot>
1.8270

> <Gold.Chemscore.Internal.Correction>
   9.000000E+99

> <Gold.Chemscore.Hbonds>
donor molecule, donor type, donor heavy atom, donor atom, acceptor molecule, acceptor atom, score
      L1  H     2    17       P1  7948  1.00
      L1  H     2    27       P1  7957  0.85
      L1  H     6    22       P1  7948  0.81
      P1  H  7997  8008       L1    11  0.13

> <Gold.Chemscore.Hbond.Weighted>
-13.0470

> <Gold.Chemscore.Metal.Weighted>
-0.0000

> <Gold.Chemscore.Lipo.Weighted>
-6.2578

> <Gold.Chemscore.Internal_Hbond.Weighted>
0.0000

> <Gold.Chemscore.DEClash.Weighted>
0.3051

> <Gold.Chemscore.DEInternal.Weighted>
0.5868

> <Gold.Chemscore.Rot.Weighted>
4.6771

> <Gold.Chemscore.Internal.Correction.Weighted>
   9.000000E+99

> <Gold.Protein.RotatedTorsions>
[ 6907 6896 6895 6894 ] final   63.29 input  -60.11 | X-H torsion
[ 7974 7965 7964 7962 ] final  -23.74 input  175.53 | X-H torsion
[ 8008 7997 7996 7995 ] final  -35.64 input   59.86 | X-H torsion
[ 10167 10162 10161 10158 ] final  -34.35 input  -65.29 | X-H torsion
[ 10718 10713 10712 10709 ] final   91.00 input   66.30 | X-H torsion
[ 10763 10752 10751 10750 ] final -165.36 input  -60.55 | X-H torsion
[ 11005 11000 10999 10996 ] final  137.36 input  -57.11 | X-H torsion

> <Gold.Protein.ActiveResidues>
 VAL166  LYS551  ARG553  GLY616  TRP617  ASP618  TYR619  PRO620  LYS621  CYS622 
 ASP623  PHE694  ASN695  SER759  ASP760  ASP761  ALA762  ILE779  LEU786  VAL792 
 PHE793  MET794  SER795  GLU796  ALA797  LYS798  CYS799  TRP800  GLU811  SER814 

> <Gold.Protein.RotatedAtoms>
  152.4241  134.5901  159.9971 H   0  0  0  0  0  0  0  0  0  0  0  0  # atno 6907 bound_to 6896
  151.6042  133.3347  159.3062 H   0  0  0  0  0  0  0  0  0  0  0  0  # atno 6908 bound_to 6896
  150.8130  134.7333  159.6770 H   0  0  0  0  0  0  0  0  0  0  0  0  # atno 6909 bound_to 6896
  146.1597  140.4658  142.8576 H   0  0  0  0  0  0  0  0  0  0  0  0  # atno 7974 bound_to 7965
  154.4091  140.1652  156.2245 H   0  0  0  0  0  0  0  0  0  0  0  0  # atno 8008 bound_to 7997
  155.9335  140.3413  155.6246 H   0  0  0  0  0  0  0  0  0  0  0  0  # atno 8009 bound_to 7997
  155.7077  140.0753  157.2375 H   0  0  0  0  0  0  0  0  0  0  0  0  # atno 8010 bound_to 7997
  140.7187  143.3554  151.2069 H   0  0  0  0  0  0  0  0  0  0  0  0  # atno 10167 bound_to 10162
  157.6960  131.0391  150.3663 H   0  0  0  0  0  0  0  0  0  0  0  0  # atno 10718 bound_to 10713
  154.6939  135.2975  154.9440 H   0  0  0  0  0  0  0  0  0  0  0  0  # atno 10763 bound_to 10752
  154.0394  135.6659  153.4792 H   0  0  0  0  0  0  0  0  0  0  0  0  # atno 10764 bound_to 10752
  153.0632  135.5103  154.8046 H   0  0  0  0  0  0  0  0  0  0  0  0  # atno 10765 bound_to 10752
  140.0109  134.9439  157.0274 H   0  0  0  0  0  0  0  0  0  0  0  0  # atno 11005 bound_to 11000
  144.8011  140.6214  143.6478 LP  0  0  0  0  0  0  0  0  0  0  0  0  # atno 17320 bound_to 7965
  145.4619  139.1512  143.3862 LP  0  0  0  0  0  0  0  0  0  0  0  0  # atno 17321 bound_to 7965
  139.7095  143.9400  152.2941 LP  0  0  0  0  0  0  0  0  0  0  0  0  # atno 17342 bound_to 10162
  139.9120  144.6850  150.8552 LP  0  0  0  0  0  0  0  0  0  0  0  0  # atno 17343 bound_to 10162
  156.4093  130.3931  149.6903 LP  0  0  0  0  0  0  0  0  0  0  0  0  # atno 17370 bound_to 10713
  156.4192  130.7760  151.2777 LP  0  0  0  0  0  0  0  0  0  0  0  0  # atno 17371 bound_to 10713
  140.4557  134.1536  155.7186 LP  0  0  0  0  0  0  0  0  0  0  0  0  # atno 17394 bound_to 11000
  141.1710  133.8609  157.1571 LP  0  0  0  0  0  0  0  0  0  0  0  0  # atno 17395 bound_to 11000

$$$$
