AV-unprocessed.smi:2784|AV-procd|sdf|10730|dock4
  -GOLD-   2272015163D 1   1.00000     0.00000
 Structure written by MMmdl.
 32 33  0  0  0  0  0  0  0  0  2 V2000
  152.5088  142.7222  162.1735 C   0  0  0  0  0  0  0  0  0  0  0  0
  152.0299  143.9344  161.6130 O   0  0  0  0  0  0  0  0  0  0  0  0
  151.6473  143.8207  160.2494 C   0  0  2  0  0  0  0  0  0  0  0  0
  152.8776  143.4847  159.4016 C   0  0  0  0  0  0  0  0  0  0  0  0
  152.5698  144.0799  158.0321 C   0  0  0  0  0  0  0  0  0  0  0  0
  151.8566  145.3921  158.3556 C   0  0  0  0  0  0  0  0  0  0  0  0
  151.0904  145.1414  159.6684 C   0  0  1  0  0  0  0  0  0  0  0  0
  149.6558  145.0251  159.4151 N   0  0  0  0  0  0  0  0  0  0  0  0
  148.7320  144.7043  160.3324 C   0  0  0  0  0  0  0  0  0  0  0  0
  148.9898  144.4797  161.5151 O   0  0  0  0  0  0  0  0  0  0  0  0
  147.5018  144.6606  159.7988 N   0  0  0  0  0  0  0  0  0  0  0  0
  146.3153  144.3175  160.4871 C   0  0  0  0  0  0  0  0  0  0  0  0
  145.0933  144.6595  160.0822 N   0  3  0  0  0  0  0  0  0  0  0  0
  144.1775  144.1601  160.9748 C   0  0  0  0  0  0  0  0  0  0  0  0
  144.9105  143.5028  161.9335 C   0  0  0  0  0  0  0  0  0  0  0  0
  146.2566  143.5931  161.6407 O   0  0  0  0  0  0  0  0  0  0  0  0
  152.8001  142.8905  163.2102 H   0  0  0  0  0  0  0  0  0  0  0  0
  153.3838  142.3575  161.6342 H   0  0  0  0  0  0  0  0  0  0  0  0
  151.7447  141.9444  162.1653 H   0  0  0  0  0  0  0  0  0  0  0  0
  150.9272  143.0083  160.1279 H   0  0  0  0  0  0  0  0  0  0  0  0
  153.7608  143.9740  159.8151 H   0  0  0  0  0  0  0  0  0  0  0  0
  153.0799  142.4139  159.3618 H   0  0  0  0  0  0  0  0  0  0  0  0
  153.4641  144.2258  157.4256 H   0  0  0  0  0  0  0  0  0  0  0  0
  151.8973  143.4181  157.4848 H   0  0  0  0  0  0  0  0  0  0  0  0
  152.6011  146.1726  158.5193 H   0  0  0  0  0  0  0  0  0  0  0  0
  151.2197  145.7265  157.5353 H   0  0  0  0  0  0  0  0  0  0  0  0
  151.2929  145.9641  160.3569 H   0  0  0  0  0  0  0  0  0  0  0  0
  149.3517  145.1974  158.4680 H   0  0  0  0  0  0  0  0  0  0  0  0
  144.8391  145.1948  159.2614 H   0  0  0  0  0  0  0  0  0  0  0  0
  143.1167  144.3180  160.8418 H   0  0  0  0  0  0  0  0  0  0  0  0
  144.6491  142.9557  162.8277 H   0  0  0  0  0  0  0  0  0  0  0  0
  147.4083  144.8758  158.8173 H   0  0  0  0  0  0  0  0  0  0  0  0
  1  2  1  0  0  0  0
  1 17  1  0  0  0  0
  1 18  1  0  0  0  0
  1 19  1  0  0  0  0
  2  3  1  0  0  0  0
  3  7  1  0  0  0  0
  3  4  1  0  0  0  0
  3 20  1  0  0  0  0
  4  5  1  0  0  0  0
  4 21  1  0  0  0  0
  4 22  1  0  0  0  0
  5  6  1  0  0  0  0
  5 23  1  0  0  0  0
  5 24  1  0  0  0  0
  6  7  1  0  0  0  0
  6 25  1  0  0  0  0
  6 26  1  0  0  0  0
  7  8  1  0  0  0  0
  7 27  1  0  0  0  0
  8 28  1  0  0  0  0
  8  9  1  0  0  0  0
  9 11  1  0  0  0  0
  9 10  2  0  0  0  0
 11 12  1  0  0  0  0
 11 32  1  0  0  0  0
 12 16  1  0  0  0  0
 12 13  2  0  0  0  0
 13 29  1  0  0  0  0
 13 14  1  0  0  0  0
 14 30  1  0  0  0  0
 14 15  2  0  0  0  0
 15 31  1  0  0  0  0
 15 16  1  0  0  0  0
M  CHG  1  13   1
M  END
> <s_m_source_file>
AV-unprocessed.smi

> <i_m_source_file_index>
2784

> <i_lp_mmshare_version>
43012

> <i_f3d_flags>
0

> <s_epik_input>
W0NIM11PW0NAQEhdMVtDSDJdW0NIMl1bQ0gyXVtDQEhdMVtOSF1DKD1PKVtOSF1jMm5bY0hdW2NIXW8y

> <s_epik_cmdline>
J2VwaWtfcHl0aG9uJywgJy1waCcsICc3LjAnLCAnLXRuJywgJzgnLCAnLW1hJywgJzIwMCcsICctbWV0YWxfYmluZGluZycsICctaW1hZScsICc8aW5maWxlLm1hZT4nLCAnLW9tYWUnLCAnPG91dGZpbGUubWFlPic=

> <r_epik_Ionization_Penalty>
6.73843

> <r_epik_Ionization_Penalty_Charging>
6.66704

> <r_epik_Ionization_Penalty_Neutral>
0.0713889

> <r_epik_State_Penalty>
1.94951

> <r_epik_Charging_Adjusted_Penalty>
8.61656

> <i_epik_Tot_Q>
1

> <i_epik_Tot_abs_Q>
1

> <r_epik_Metal_State_Penalty>
1.97013

> <b_epik_Metal_Only>
0

> <s_lp_Force_Field>
OPLS_2005

> <r_lp_Energy>
26.9129

> <b_lp_Chiralities_Consistent>
1

> <s_lp_Variant>
AV-unprocessed.smi:2784-5

> <Gold.Version>
5.8.1

> <Gold.Id.Protein>
6NUR|6NUR_protein|mol2

> <Gold.PLP.Fitness>
41.9878

> <Gold.PLP.PLP>
-34.6233

> <Gold.PLP.part.hbond>
-3.0000

> <Gold.PLP.part.metal>
0.0000

> <Gold.PLP.part.buried>
-6.8100

> <Gold.PLP.part.nonpolar>
-26.1101

> <Gold.PLP.part.repulsive>
0.8029

> <Gold.PLP.ligand.clash>
0.0000

> <Gold.PLP.ligand.torsion>
0.1260

> <Gold.PLP.Chemscore.Hbond>
2.5369

> <Gold.PLP.Chemscore.CHOScore>
0.0000

> <Gold.PLP.Chemscore.Metal>
0.0000

> <Gold.Chemscore.Hbonds>
donor molecule, donor type, donor heavy atom, donor atom, acceptor molecule, acceptor atom, score
      L1  H     8    28       P1  8029  0.94
      L1  H    11    32       P1  8029  1.00
      P1  H  6933  6944       L1    10  0.35

> <Gold.PLP.Chemscore.Internal.Correction>
0.0059

> <Gold.Rescore>
     Score         DG    S(hbond)    S(metal)    S(lipo)     H(rot)  DE(clash)    DE(int)     intcor
     16.87     -19.85       2.37        0.00      84.47       1.34       0.74       2.23       ----

> <Gold.Chemscore.Fitness>
16.8730

> <Gold.Chemscore.DG>
-19.8454

> <Gold.Chemscore.ZeroCoef>
-5.4800

> <Gold.Chemscore.Hbond>
2.3653

> <Gold.Chemscore.Metal>
0.0000

> <Gold.Chemscore.Lipo>
84.4699

> <Gold.Chemscore.Internal_Hbond>
0.0000

> <Gold.Chemscore.DEClash>
0.7388

> <Gold.Chemscore.DEInternal>
2.2336

> <Gold.Chemscore.Rot>
1.3351

> <Gold.Chemscore.Internal.Correction>
   9.000000E+99

> <Gold.Chemscore.Hbonds>
donor molecule, donor type, donor heavy atom, donor atom, acceptor molecule, acceptor atom, score
      L1  H     8    28       P1  8029  0.67
      L1  H    11    32       P1  8029  0.95
      P1  H  6933  6944       L1    10  0.06

> <Gold.Chemscore.Hbond.Weighted>
-7.9002

> <Gold.Chemscore.Metal.Weighted>
-0.0000

> <Gold.Chemscore.Lipo.Weighted>
-9.8830

> <Gold.Chemscore.Internal_Hbond.Weighted>
0.0000

> <Gold.Chemscore.DEClash.Weighted>
0.7388

> <Gold.Chemscore.DEInternal.Weighted>
2.2336

> <Gold.Chemscore.Rot.Weighted>
3.4177

> <Gold.Chemscore.Internal.Correction.Weighted>
   9.000000E+99

> <Gold.Protein.RotatedTorsions>
[ 6907 6896 6895 6894 ] final  -53.97 input  -60.11 | X-H torsion
[ 7974 7965 7964 7962 ] final  -63.03 input  175.53 | X-H torsion
[ 8008 7997 7996 7995 ] final  116.85 input   59.86 | X-H torsion
[ 10167 10162 10161 10158 ] final  -48.24 input  -65.29 | X-H torsion
[ 10718 10713 10712 10709 ] final   34.11 input   66.30 | X-H torsion
[ 10763 10752 10751 10750 ] final  122.10 input  -60.55 | X-H torsion
[ 11005 11000 10999 10996 ] final -121.50 input  -57.11 | X-H torsion

> <Gold.Protein.ActiveResidues>
 VAL166  LYS551  ARG553  GLY616  TRP617  ASP618  TYR619  PRO620  LYS621  CYS622 
 ASP623  PHE694  ASN695  SER759  ASP760  ASP761  ALA762  ILE779  LEU786  VAL792 
 PHE793  MET794  SER795  GLU796  ALA797  LYS798  CYS799  TRP800  GLU811  SER814 

> <Gold.Protein.RotatedAtoms>
  150.8379  134.7659  159.6907 H   0  0  0  0  0  0  0  0  0  0  0  0  # atno 6907 bound_to 6896
  152.4472  134.5466  159.9864 H   0  0  0  0  0  0  0  0  0  0  0  0  # atno 6908 bound_to 6896
  151.5612  133.3365  159.3007 H   0  0  0  0  0  0  0  0  0  0  0  0  # atno 6909 bound_to 6896
  145.7840  140.8746  143.0315 H   0  0  0  0  0  0  0  0  0  0  0  0  # atno 7974 bound_to 7965
  156.2462  140.2908  156.0588 H   0  0  0  0  0  0  0  0  0  0  0  0  # atno 8008 bound_to 7997
  155.1799  140.0404  157.2897 H   0  0  0  0  0  0  0  0  0  0  0  0  # atno 8009 bound_to 7997
  154.6267  140.2489  155.7490 H   0  0  0  0  0  0  0  0  0  0  0  0  # atno 8010 bound_to 7997
  140.6740  143.2749  151.4042 H   0  0  0  0  0  0  0  0  0  0  0  0  # atno 10167 bound_to 10162
  157.3063  130.7376  149.6697 H   0  0  0  0  0  0  0  0  0  0  0  0  # atno 10718 bound_to 10713
  153.6244  135.3407  155.3021 H   0  0  0  0  0  0  0  0  0  0  0  0  # atno 10763 bound_to 10752
  154.8593  135.4280  154.2173 H   0  0  0  0  0  0  0  0  0  0  0  0  # atno 10764 bound_to 10752
  153.3053  135.7027  153.7238 H   0  0  0  0  0  0  0  0  0  0  0  0  # atno 10765 bound_to 10752
  141.0065  134.0326  157.3470 H   0  0  0  0  0  0  0  0  0  0  0  0  # atno 11005 bound_to 11000
  144.6792  140.0029  143.7484 LP  0  0  0  0  0  0  0  0  0  0  0  0  # atno 17320 bound_to 7965
  146.0045  139.3118  143.0908 LP  0  0  0  0  0  0  0  0  0  0  0  0  # atno 17321 bound_to 7965
  139.6022  144.1272  152.2210 LP  0  0  0  0  0  0  0  0  0  0  0  0  # atno 17342 bound_to 10162
  140.0659  144.5818  150.7227 LP  0  0  0  0  0  0  0  0  0  0  0  0  # atno 17343 bound_to 10162
  155.9674  130.4265  150.4700 LP  0  0  0  0  0  0  0  0  0  0  0  0  # atno 17370 bound_to 10713
  157.2691  131.0583  151.2272 LP  0  0  0  0  0  0  0  0  0  0  0  0  # atno 17371 bound_to 10713
  139.9066  135.0181  156.7514 LP  0  0  0  0  0  0  0  0  0  0  0  0  # atno 17394 bound_to 11000
  140.6803  133.9480  155.7907 LP  0  0  0  0  0  0  0  0  0  0  0  0  # atno 17395 bound_to 11000

$$$$
