AV-unprocessed.smi:1858|AV-procd|sdf|7542|dock10
  -GOLD-   22720 9253D 1   1.00000     0.00000
 Structure written by MMmdl.
 48 49  0  0  0  0  0  0  0  0  1 V2000
  147.6607  141.5677  152.6659 C   0  0  0  0  0  0  0  0  0  0  0  0
  148.6558  140.7324  153.3197 N   0  0  0  0  0  0  0  0  0  0  0  0
  148.7775  140.5861  154.6510 C   0  0  0  0  0  0  0  0  0  0  0  0
  148.0184  141.1559  155.4358 O   0  0  0  0  0  0  0  0  0  0  0  0
  149.8862  139.7192  155.0603 C   0  0  0  0  0  0  0  0  0  0  0  0
  150.5045  138.8429  154.0847 C   0  0  0  0  0  0  0  0  0  0  0  0
  151.4923  137.9993  154.4441 C   0  0  0  0  0  0  0  0  0  0  0  0
  151.9843  137.9295  155.8238 C   0  0  0  0  0  0  0  0  0  0  0  0
  152.8653  137.1396  156.1630 O   0  0  0  0  0  0  0  0  0  0  0  0
  151.3991  138.7951  156.7054 N   0  0  0  0  0  0  0  0  0  0  0  0
  151.7667  138.8120  158.1294 C   0  0  0  0  0  0  0  0  0  0  0  0
  152.7099  139.9817  158.4253 C   0  0  0  0  0  0  0  0  0  0  0  0
  153.8547  139.7721  158.8249 O   0  0  0  0  0  0  0  0  0  0  0  0
  152.1969  141.2075  158.2407 N   0  0  0  0  0  0  0  0  0  0  0  0
  152.8398  142.4742  158.5793 C   0  0  0  0  0  0  0  0  0  0  0  0
  153.7348  142.3283  159.8360 C   0  0  0  0  0  0  0  0  0  0  0  0
  153.0661  141.8154  161.1271 C   0  0  0  0  0  0  0  0  0  0  0  0
  151.9701  142.7075  161.7379 C   0  0  0  0  0  0  0  0  0  0  0  0
  152.3231  144.2062  161.8279 C   0  0  0  0  0  0  0  0  0  0  0  0
  151.6755  145.0930  160.7441 C   0  0  0  0  0  0  0  0  0  0  0  0
  152.1728  144.9061  159.2950 C   0  0  0  0  0  0  0  0  0  0  0  0
  151.7537  143.5721  158.6450 C   0  0  0  0  0  0  0  0  0  0  0  0
  150.3651  139.6724  156.3218 C   0  0  0  0  0  0  0  0  0  0  0  0
  147.7936  141.5246  151.5849 H   0  0  0  0  0  0  0  0  0  0  0  0
  147.7605  142.6074  152.9793 H   0  0  0  0  0  0  0  0  0  0  0  0
  146.6517  141.2266  152.9005 H   0  0  0  0  0  0  0  0  0  0  0  0
  149.3094  140.2443  152.7247 H   0  0  0  0  0  0  0  0  0  0  0  0
  150.1783  138.8556  153.0545 H   0  0  0  0  0  0  0  0  0  0  0  0
  151.9338  137.3560  153.6972 H   0  0  0  0  0  0  0  0  0  0  0  0
  150.8955  138.8880  158.7818 H   0  0  0  0  0  0  0  0  0  0  0  0
  152.2425  137.8668  158.3973 H   0  0  0  0  0  0  0  0  0  0  0  0
  151.2518  141.2676  157.8912 H   0  0  0  0  0  0  0  0  0  0  0  0
  153.5028  142.7424  157.7546 H   0  0  0  0  0  0  0  0  0  0  0  0
  154.5385  141.6314  159.5958 H   0  0  0  0  0  0  0  0  0  0  0  0
  154.2593  143.2611  160.0348 H   0  0  0  0  0  0  0  0  0  0  0  0
  152.6646  140.8156  160.9652 H   0  0  0  0  0  0  0  0  0  0  0  0
  153.8511  141.6906  161.8737 H   0  0  0  0  0  0  0  0  0  0  0  0
  151.0233  142.5652  161.2196 H   0  0  0  0  0  0  0  0  0  0  0  0
  151.7830  142.3376  162.7468 H   0  0  0  0  0  0  0  0  0  0  0  0
  151.9607  144.5691  162.7905 H   0  0  0  0  0  0  0  0  0  0  0  0
  153.4023  144.3571  161.8615 H   0  0  0  0  0  0  0  0  0  0  0  0
  150.5921  144.9701  160.7754 H   0  0  0  0  0  0  0  0  0  0  0  0
  151.8535  146.1326  161.0214 H   0  0  0  0  0  0  0  0  0  0  0  0
  151.7263  145.7080  158.7059 H   0  0  0  0  0  0  0  0  0  0  0  0
  153.2469  145.0723  159.2188 H   0  0  0  0  0  0  0  0  0  0  0  0
  151.4490  143.7794  157.6182 H   0  0  0  0  0  0  0  0  0  0  0  0
  150.8470  143.1995  159.1204 H   0  0  0  0  0  0  0  0  0  0  0  0
  149.9862  140.2733  157.1364 H   0  0  0  0  0  0  0  0  0  0  0  0
  1  2  1  0  0  0  0
  1 24  1  0  0  0  0
  1 25  1  0  0  0  0
  1 26  1  0  0  0  0
  2  3  1  0  0  0  0
  2 27  1  0  0  0  0
  3  4  2  0  0  0  0
  3  5  1  0  0  0  0
  5 23  2  0  0  0  0
  5  6  1  0  0  0  0
  6  7  2  0  0  0  0
  6 28  1  0  0  0  0
  7  8  1  0  0  0  0
  7 29  1  0  0  0  0
  8  9  2  0  0  0  0
  8 10  1  0  0  0  0
 10 11  1  0  0  0  0
 10 23  1  0  0  0  0
 11 12  1  0  0  0  0
 11 30  1  0  0  0  0
 11 31  1  0  0  0  0
 12 13  2  0  0  0  0
 12 14  1  0  0  0  0
 14 15  1  0  0  0  0
 14 32  1  0  0  0  0
 15 22  1  0  0  0  0
 15 16  1  0  0  0  0
 15 33  1  0  0  0  0
 16 17  1  0  0  0  0
 16 34  1  0  0  0  0
 16 35  1  0  0  0  0
 17 18  1  0  0  0  0
 17 36  1  0  0  0  0
 17 37  1  0  0  0  0
 18 19  1  0  0  0  0
 18 38  1  0  0  0  0
 18 39  1  0  0  0  0
 19 20  1  0  0  0  0
 19 40  1  0  0  0  0
 19 41  1  0  0  0  0
 20 21  1  0  0  0  0
 20 42  1  0  0  0  0
 20 43  1  0  0  0  0
 21 22  1  0  0  0  0
 21 44  1  0  0  0  0
 21 45  1  0  0  0  0
 22 46  1  0  0  0  0
 22 47  1  0  0  0  0
 23 48  1  0  0  0  0
M  END
> <s_m_source_file>
AV-unprocessed.smi

> <i_m_source_file_index>
1858

> <i_lp_mmshare_version>
43012

> <i_f3d_flags>
0

> <s_epik_input>
W0NIM11bTkhdQyg9TyljMVtjSF1bY0hdYyg9TyluKFtjSF0xKVtDSDJdQyg9TylbTkhdW0NIXTJbQ0gyXVtDSDJdW0NIMl1bQ0gyXVtDSDJdW0NIMl1bQ0gyXTI=

> <s_epik_cmdline>
J2VwaWtfcHl0aG9uJywgJy1waCcsICc3LjAnLCAnLXRuJywgJzgnLCAnLW1hJywgJzIwMCcsICctbWV0YWxfYmluZGluZycsICctaW1hZScsICc8aW5maWxlLm1hZT4nLCAnLW9tYWUnLCAnPG91dGZpbGUubWFlPic=

> <r_lp_tautomer_probability>
1

> <r_epik_Ionization_Penalty>
3.70383e-07

> <r_epik_Ionization_Penalty_Charging>
5.00098e-08

> <r_epik_Ionization_Penalty_Neutral>
3.20374e-07

> <r_epik_State_Penalty>
-0

> <r_epik_Charging_Adjusted_Penalty>
5.00098e-08

> <i_epik_Tot_Q>
0

> <i_epik_Tot_abs_Q>
0

> <r_epik_Metal_State_Penalty>
-0

> <b_epik_Metal_Only>
0

> <s_lp_Force_Field>
OPLS_2005

> <r_lp_Energy>
33.6896

> <b_lp_Chiralities_Consistent>
1

> <s_lp_Variant>
AV-unprocessed.smi:1858-1

> <Gold.Version>
5.8.1

> <Gold.Id.Protein>
6NUR|6NUR_protein|mol2

> <Gold.PLP.Fitness>
48.8455

> <Gold.PLP.PLP>
-42.2219

> <Gold.PLP.part.hbond>
-3.0000

> <Gold.PLP.part.metal>
0.0000

> <Gold.PLP.part.buried>
-3.3200

> <Gold.PLP.part.nonpolar>
-34.7090

> <Gold.PLP.part.repulsive>
0.3190

> <Gold.PLP.ligand.clash>
0.0000

> <Gold.PLP.ligand.torsion>
0.7034

> <Gold.PLP.Chemscore.Hbond>
2.6560

> <Gold.PLP.Chemscore.CHOScore>
0.0000

> <Gold.PLP.Chemscore.Metal>
0.0000

> <Gold.Chemscore.Hbonds>
donor molecule, donor type, donor heavy atom, donor atom, acceptor molecule, acceptor atom, score
      L1  H     2    27       P1  7957  0.78
      P1  H  7997  8010       L1    13  1.00
      P1  H 10752 10764       L1     9  0.66

> <Gold.PLP.Chemscore.Internal.Correction>
0.0626

> <Gold.Rescore>
     Score         DG    S(hbond)    S(metal)    S(lipo)     H(rot)  DE(clash)    DE(int)     intcor
     20.97     -26.13       2.65        0.00     133.29       1.48       3.19       1.97       ----

> <Gold.Chemscore.Fitness>
20.9698

> <Gold.Chemscore.DG>
-26.1261

> <Gold.Chemscore.ZeroCoef>
-5.4800

> <Gold.Chemscore.Hbond>
2.6475

> <Gold.Chemscore.Metal>
0.0000

> <Gold.Chemscore.Lipo>
133.2945

> <Gold.Chemscore.Internal_Hbond>
0.0000

> <Gold.Chemscore.DEClash>
3.1894

> <Gold.Chemscore.DEInternal>
1.9669

> <Gold.Chemscore.Rot>
1.4812

> <Gold.Chemscore.Internal.Correction>
   9.000000E+99

> <Gold.Chemscore.Hbonds>
donor molecule, donor type, donor heavy atom, donor atom, acceptor molecule, acceptor atom, score
      L1  H     2    27       P1  7957  0.77
      P1  H  7997  8010       L1    13  0.30
      P1  H 10752 10764       L1     9  0.58

> <Gold.Chemscore.Hbond.Weighted>
-8.8426

> <Gold.Chemscore.Metal.Weighted>
-0.0000

> <Gold.Chemscore.Lipo.Weighted>
-15.5955

> <Gold.Chemscore.Internal_Hbond.Weighted>
0.0000

> <Gold.Chemscore.DEClash.Weighted>
3.1894

> <Gold.Chemscore.DEInternal.Weighted>
1.9669

> <Gold.Chemscore.Rot.Weighted>
3.7920

> <Gold.Chemscore.Internal.Correction.Weighted>
   9.000000E+99

> <Gold.Protein.RotatedTorsions>
[ 6907 6896 6895 6894 ] final  167.19 input  -60.11 | X-H torsion
[ 7974 7965 7964 7962 ] final  145.21 input  175.53 | X-H torsion
[ 8008 7997 7996 7995 ] final   15.16 input   59.86 | X-H torsion
[ 10167 10162 10161 10158 ] final  165.07 input  -65.29 | X-H torsion
[ 10718 10713 10712 10709 ] final   -0.11 input   66.30 | X-H torsion
[ 10763 10752 10751 10750 ] final  -35.47 input  -60.55 | X-H torsion
[ 11005 11000 10999 10996 ] final   97.19 input  -57.11 | X-H torsion

> <Gold.Protein.ActiveResidues>
 VAL166  LYS551  ARG553  GLY616  TRP617  ASP618  TYR619  PRO620  LYS621  CYS622 
 ASP623  PHE694  ASN695  SER759  ASP760  ASP761  ALA762  ILE779  LEU786  VAL792 
 PHE793  MET794  SER795  GLU796  ALA797  LYS798  CYS799  TRP800  GLU811  SER814 

> <Gold.Protein.RotatedAtoms>
  151.8671  133.3468  159.3722 H   0  0  0  0  0  0  0  0  0  0  0  0  # atno 6907 bound_to 6896
  150.7163  134.5149  159.5634 H   0  0  0  0  0  0  0  0  0  0  0  0  # atno 6908 bound_to 6896
  152.2674  134.7970  160.0471 H   0  0  0  0  0  0  0  0  0  0  0  0  # atno 6909 bound_to 6896
  144.8772  139.5755  143.5860 H   0  0  0  0  0  0  0  0  0  0  0  0  # atno 7974 bound_to 7965
  154.8587  140.2941  155.5552 H   0  0  0  0  0  0  0  0  0  0  0  0  # atno 8008 bound_to 7997
  156.3019  140.2482  156.3490 H   0  0  0  0  0  0  0  0  0  0  0  0  # atno 8009 bound_to 7997
  154.8942  140.0393  157.1845 H   0  0  0  0  0  0  0  0  0  0  0  0  # atno 8010 bound_to 7997
  139.4899  144.4170  151.9231 H   0  0  0  0  0  0  0  0  0  0  0  0  # atno 10167 bound_to 10162
  156.8253  130.5470  149.5692 H   0  0  0  0  0  0  0  0  0  0  0  0  # atno 10718 bound_to 10713
  153.8637  135.6837  153.4780 H   0  0  0  0  0  0  0  0  0  0  0  0  # atno 10763 bound_to 10752
  153.1327  135.4691  154.9372 H   0  0  0  0  0  0  0  0  0  0  0  0  # atno 10764 bound_to 10752
  154.7747  135.3249  154.8067 H   0  0  0  0  0  0  0  0  0  0  0  0  # atno 10765 bound_to 10752
  139.8777  134.8988  156.4270 H   0  0  0  0  0  0  0  0  0  0  0  0  # atno 11005 bound_to 11000
  146.2970  139.7309  142.9119 LP  0  0  0  0  0  0  0  0  0  0  0  0  # atno 17320 bound_to 7965
  145.4021  141.0386  143.3064 LP  0  0  0  0  0  0  0  0  0  0  0  0  # atno 17321 bound_to 7965
  140.3613  144.2969  150.5933 LP  0  0  0  0  0  0  0  0  0  0  0  0  # atno 17342 bound_to 10162
  140.5400  143.2225  151.8100 LP  0  0  0  0  0  0  0  0  0  0  0  0  # atno 17343 bound_to 10162
  156.0965  130.5936  150.9822 LP  0  0  0  0  0  0  0  0  0  0  0  0  # atno 17370 bound_to 10713
  157.6435  131.0907  150.8201 LP  0  0  0  0  0  0  0  0  0  0  0  0  # atno 17371 bound_to 10713
  140.9093  133.7723  155.9773 LP  0  0  0  0  0  0  0  0  0  0  0  0  # atno 17394 bound_to 11000
  140.8564  134.2893  157.5253 LP  0  0  0  0  0  0  0  0  0  0  0  0  # atno 17395 bound_to 11000

$$$$
