AV-unprocessed.smi:3232|AV-procd|sdf|12341|dock1
  -GOLD-   2272018203D 1   1.00000     0.00000
 Structure written by MMmdl.
 40 41  0  0  0  0  0  0  0  0  2 V2000
  144.1014  136.0412  151.7210 C   0  0  0  0  0  0  0  0  0  0  0  0
  145.4650  135.3616  151.5331 C   0  0  0  0  0  0  0  0  0  0  0  0
  145.3936  134.1995  150.6128 N   0  3  2  0  0  0  0  0  0  0  0  0
  144.0567  133.5719  150.5112 C   0  0  0  0  0  0  0  0  0  0  0  0
  144.2913  132.1073  150.1151 C   0  0  0  0  0  0  0  0  0  0  0  0
  145.7993  131.9980  149.8923 C   0  0  0  0  0  0  0  0  0  0  0  0
  146.3854  133.1065  150.7764 C   0  0  2  0  0  0  0  0  0  0  0  0
  146.5887  132.6778  152.2544 C   0  0  0  0  0  0  0  0  0  0  0  0
  147.5971  131.6316  152.3961 N   0  0  0  0  0  0  0  0  0  0  0  0
  147.9228  131.0145  153.5435 C   0  0  0  0  0  0  0  0  0  0  0  0
  147.3769  131.2629  154.6191 O   0  0  0  0  0  0  0  0  0  0  0  0
  149.0302  129.9541  153.4576 C   0  0  2  0  0  0  0  0  0  0  0  0
  148.4991  128.5343  153.7403 C   0  0  0  0  0  0  0  0  0  0  0  0
  150.1401  130.3178  154.3300 N   0  0  0  0  0  0  0  0  0  0  0  0
  151.3560  129.7778  154.4391 C   0  0  0  0  0  0  0  0  0  0  0  0
  152.1448  130.3950  155.3076 N   0  0  0  0  0  0  0  0  0  0  0  0
  151.2986  131.3850  155.7197 C   0  0  0  0  0  0  0  0  0  0  0  0
  150.0902  131.3918  155.1574 N   0  0  0  0  0  0  0  0  0  0  0  0
  144.1687  136.8401  152.4598 H   0  0  0  0  0  0  0  0  0  0  0  0
  143.3521  135.3307  152.0714 H   0  0  0  0  0  0  0  0  0  0  0  0
  143.7369  136.4833  150.7937 H   0  0  0  0  0  0  0  0  0  0  0  0
  146.2159  136.0794  151.2017 H   0  0  0  0  0  0  0  0  0  0  0  0
  145.8039  135.0000  152.5048 H   0  0  0  0  0  0  0  0  0  0  0  0
  143.5329  133.6190  151.4673 H   0  0  0  0  0  0  0  0  0  0  0  0
  143.4541  134.1020  149.7732 H   0  0  0  0  0  0  0  0  0  0  0  0
  143.9861  131.4493  150.9301 H   0  0  0  0  0  0  0  0  0  0  0  0
  143.7254  131.8194  149.2286 H   0  0  0  0  0  0  0  0  0  0  0  0
  146.1872  131.0006  150.0948 H   0  0  0  0  0  0  0  0  0  0  0  0
  146.0222  132.2177  148.8471 H   0  0  0  0  0  0  0  0  0  0  0  0
  147.3450  133.4312  150.3718 H   0  0  0  0  0  0  0  0  0  0  0  0
  146.9476  133.5187  152.8466 H   0  0  0  0  0  0  0  0  0  0  0  0
  145.6423  132.3748  152.7055 H   0  0  0  0  0  0  0  0  0  0  0  0
  148.0958  131.3640  151.5596 H   0  0  0  0  0  0  0  0  0  0  0  0
  149.4157  129.9543  152.4363 H   0  0  0  0  0  0  0  0  0  0  0  0
  147.7063  128.2667  153.0409 H   0  0  0  0  0  0  0  0  0  0  0  0
  148.0944  128.4380  154.7486 H   0  0  0  0  0  0  0  0  0  0  0  0
  149.2923  127.7943  153.6316 H   0  0  0  0  0  0  0  0  0  0  0  0
  151.6720  128.9170  153.8683 H   0  0  0  0  0  0  0  0  0  0  0  0
  151.5840  132.1275  156.4503 H   0  0  0  0  0  0  0  0  0  0  0  0
  145.5708  134.5686  149.6894 H   0  0  0  0  0  0  0  0  0  0  0  0
  1  2  1  0  0  0  0
  1 19  1  0  0  0  0
  1 20  1  0  0  0  0
  1 21  1  0  0  0  0
  2  3  1  0  0  0  0
  2 22  1  0  0  0  0
  2 23  1  0  0  0  0
  3  7  1  0  0  0  0
  3  4  1  0  0  0  0
  3 40  1  0  0  0  0
  4  5  1  0  0  0  0
  4 24  1  0  0  0  0
  4 25  1  0  0  0  0
  5  6  1  0  0  0  0
  5 26  1  0  0  0  0
  5 27  1  0  0  0  0
  6  7  1  0  0  0  0
  6 28  1  0  0  0  0
  6 29  1  0  0  0  0
  7  8  1  0  0  0  0
  7 30  1  0  0  0  0
  8  9  1  0  0  0  0
  8 31  1  0  0  0  0
  8 32  1  0  0  0  0
  9 10  1  0  0  0  0
  9 33  1  0  0  0  0
 10 11  2  0  0  0  0
 10 12  1  0  0  0  0
 12 13  1  0  0  0  0
 12 14  1  0  0  0  0
 12 34  1  0  0  0  0
 13 35  1  0  0  0  0
 13 36  1  0  0  0  0
 13 37  1  0  0  0  0
 14 18  1  0  0  0  0
 14 15  1  0  0  0  0
 15 16  2  0  0  0  0
 15 38  1  0  0  0  0
 16 17  1  0  0  0  0
 17 18  2  0  0  0  0
 17 39  1  0  0  0  0
M  CHG  1   3   1
M  END
> <s_m_source_file>
AV-unprocessed.smi

> <i_m_source_file_index>
3232

> <i_lp_mmshare_version>
43012

> <i_f3d_flags>
0

> <s_epik_input>
W0NIM11bQ0gyXU4xW0NIMl1bQ0gyXVtDSDJdW0NASF0xW0NIMl1bTkhdQyg9TylbQ0BIXShbQ0gzXSluMltjSF1uW2NIXW4y

> <s_epik_cmdline>
J2VwaWtfcHl0aG9uJywgJy1waCcsICc3LjAnLCAnLXRuJywgJzgnLCAnLW1hJywgJzIwMCcsICctbWV0YWxfYmluZGluZycsICctaW1hZScsICc8aW5maWxlLm1hZT4nLCAnLW9tYWUnLCAnPG91dGZpbGUubWFlPic=

> <r_lp_tautomer_probability>
1

> <r_epik_Ionization_Penalty>
0.00177695

> <r_epik_Ionization_Penalty_Charging>
0.00176881

> <r_epik_Ionization_Penalty_Neutral>
8.13528e-06

> <r_epik_State_Penalty>
0.00119827

> <r_epik_Charging_Adjusted_Penalty>
0.00296709

> <i_epik_Tot_Q>
1

> <i_epik_Tot_abs_Q>
1

> <r_epik_Metal_State_Penalty>
-0

> <b_epik_Metal_Only>
0

> <s_lp_Force_Field>
OPLS_2005

> <r_lp_Energy>
38.6691

> <b_lp_Chiralities_Consistent>
1

> <s_lp_Variant>
AV-unprocessed.smi:3232-3

> <Gold.Version>
5.8.1

> <Gold.Id.Protein>
6NUR|6NUR_protein|mol2

> <Gold.PLP.Fitness>
41.7095

> <Gold.PLP.PLP>
-33.5906

> <Gold.PLP.part.hbond>
-2.0000

> <Gold.PLP.part.metal>
0.0000

> <Gold.PLP.part.buried>
-5.0325

> <Gold.PLP.part.nonpolar>
-27.1106

> <Gold.PLP.part.repulsive>
0.1554

> <Gold.PLP.ligand.clash>
0.0000

> <Gold.PLP.ligand.torsion>
0.5167

> <Gold.PLP.Chemscore.Hbond>
2.0000

> <Gold.PLP.Chemscore.CHOScore>
1.0000

> <Gold.PLP.Chemscore.Metal>
0.0000

> <Gold.Chemscore.Hbonds>
donor molecule, donor type, donor heavy atom, donor atom, acceptor molecule, acceptor atom, score
      L1  H     3    40       P1  7921  0.71
      L1  H     9    33       P1 10747  1.00
      L1  C    15    38       P1 10737  1.00

> <Gold.PLP.Chemscore.Internal.Correction>
0.1523

> <Gold.Rescore>
     Score         DG    S(hbond)    S(metal)    S(lipo)     H(rot)  DE(clash)    DE(int)     intcor
     10.11     -12.49       1.68        0.00      66.45       2.49       0.07       2.31       ----

> <Gold.Chemscore.Fitness>
10.1080

> <Gold.Chemscore.DG>
-12.4873

> <Gold.Chemscore.ZeroCoef>
-5.4800

> <Gold.Chemscore.Hbond>
1.6773

> <Gold.Chemscore.Metal>
0.0000

> <Gold.Chemscore.Lipo>
66.4507

> <Gold.Chemscore.Internal_Hbond>
0.0000

> <Gold.Chemscore.DEClash>
0.0715

> <Gold.Chemscore.DEInternal>
2.3078

> <Gold.Chemscore.Rot>
2.4882

> <Gold.Chemscore.Internal.Correction>
   9.000000E+99

> <Gold.Chemscore.Hbonds>
donor molecule, donor type, donor heavy atom, donor atom, acceptor molecule, acceptor atom, score
      L1  H     3    40       P1  7921  0.66
      L1  H     9    33       P1 10747  1.00

> <Gold.Chemscore.Hbond.Weighted>
-5.6023

> <Gold.Chemscore.Metal.Weighted>
-0.0000

> <Gold.Chemscore.Lipo.Weighted>
-7.7747

> <Gold.Chemscore.Internal_Hbond.Weighted>
0.0000

> <Gold.Chemscore.DEClash.Weighted>
0.0715

> <Gold.Chemscore.DEInternal.Weighted>
2.3078

> <Gold.Chemscore.Rot.Weighted>
6.3697

> <Gold.Chemscore.Internal.Correction.Weighted>
   9.000000E+99

> <Gold.Protein.RotatedTorsions>
[ 6907 6896 6895 6894 ] final   85.84 input  -60.11 | X-H torsion
[ 7974 7965 7964 7962 ] final  -77.82 input  175.53 | X-H torsion
[ 8008 7997 7996 7995 ] final   43.46 input   59.86 | X-H torsion
[ 10167 10162 10161 10158 ] final   99.38 input  -65.29 | X-H torsion
[ 10718 10713 10712 10709 ] final -171.30 input   66.30 | X-H torsion
[ 10763 10752 10751 10750 ] final   37.11 input  -60.55 | X-H torsion
[ 11005 11000 10999 10996 ] final  -38.71 input  -57.11 | X-H torsion

> <Gold.Protein.ActiveResidues>
 VAL166  LYS551  ARG553  GLY616  TRP617  ASP618  TYR619  PRO620  LYS621  CYS622 
 ASP623  PHE694  ASN695  SER759  ASP760  ASP761  ALA762  ILE779  LEU786  VAL792 
 PHE793  MET794  SER795  GLU796  ALA797  LYS798  CYS799  TRP800  GLU811  SER814 

> <Gold.Protein.RotatedAtoms>
  152.5383  134.2523  159.8903 H   0  0  0  0  0  0  0  0  0  0  0  0  # atno 6907 bound_to 6896
  151.2486  133.4355  159.2618 H   0  0  0  0  0  0  0  0  0  0  0  0  # atno 6908 bound_to 6896
  151.0560  134.9719  159.8292 H   0  0  0  0  0  0  0  0  0  0  0  0  # atno 6909 bound_to 6896
  145.5947  140.9422  143.1273 H   0  0  0  0  0  0  0  0  0  0  0  0  # atno 7974 bound_to 7965
  155.3031  140.3386  155.4247 H   0  0  0  0  0  0  0  0  0  0  0  0  # atno 8008 bound_to 7997
  156.1992  140.1726  156.7974 H   0  0  0  0  0  0  0  0  0  0  0  0  # atno 8009 bound_to 7997
  154.5537  140.0700  156.8692 H   0  0  0  0  0  0  0  0  0  0  0  0  # atno 8010 bound_to 7997
  139.7622  144.6950  151.0275 H   0  0  0  0  0  0  0  0  0  0  0  0  # atno 10167 bound_to 10162
  156.7389  130.9335  151.3109 H   0  0  0  0  0  0  0  0  0  0  0  0  # atno 10718 bound_to 10713
  153.0050  135.6287  154.2092 H   0  0  0  0  0  0  0  0  0  0  0  0  # atno 10763 bound_to 10752
  154.1835  135.2812  155.3046 H   0  0  0  0  0  0  0  0  0  0  0  0  # atno 10764 bound_to 10752
  154.5816  135.5645  153.7250 H   0  0  0  0  0  0  0  0  0  0  0  0  # atno 10765 bound_to 10752
  141.0048  133.6937  156.2090 H   0  0  0  0  0  0  0  0  0  0  0  0  # atno 11005 bound_to 11000
  144.7336  139.7652  143.7338 LP  0  0  0  0  0  0  0  0  0  0  0  0  # atno 17320 bound_to 7965
  146.1621  139.4739  142.9981 LP  0  0  0  0  0  0  0  0  0  0  0  0  # atno 17321 bound_to 7965
  140.7808  143.4683  151.0181 LP  0  0  0  0  0  0  0  0  0  0  0  0  # atno 17342 bound_to 10162
  139.8369  143.7615  152.3180 LP  0  0  0  0  0  0  0  0  0  0  0  0  # atno 17343 bound_to 10162
  157.6827  130.9155  150.0308 LP  0  0  0  0  0  0  0  0  0  0  0  0  # atno 17370 bound_to 10713
  156.1478  130.3642  149.9484 LP  0  0  0  0  0  0  0  0  0  0  0  0  # atno 17371 bound_to 10713
  140.6830  134.4746  157.5589 LP  0  0  0  0  0  0  0  0  0  0  0  0  # atno 17394 bound_to 11000
  139.9057  134.8453  156.1714 LP  0  0  0  0  0  0  0  0  0  0  0  0  # atno 17395 bound_to 11000

$$$$
