AV-unprocessed.smi:3187|AV-procd|sdf|12181|dock8
  -GOLD-   2272018 23D 1   1.00000     0.00000
 Structure written by MMmdl.
 42 43  0  0  0  0  0  0  0  0  3 V2000
  151.8937  139.4486  158.2027 C   0  0  0  0  0  0  0  0  0  0  0  0
  152.2335  140.7600  158.8915 C   0  0  0  0  0  0  0  0  0  0  0  0
  152.9670  140.7509  160.0211 C   0  0  0  0  0  0  0  0  0  0  0  0
  153.4272  141.9926  160.7489 C   0  0  0  0  0  0  0  0  0  0  0  0
  153.4098  143.2103  159.8220 C   0  0  0  0  0  0  0  0  0  0  0  0
  152.0669  143.3345  159.0837 C   0  0  1  0  0  0  0  0  0  0  0  0
  152.0653  144.6234  158.2389 C   0  0  0  0  0  0  0  0  0  0  0  0
  151.7336  142.0656  158.2389 C   0  0  2  0  0  0  0  0  0  0  0  0
  150.2178  142.0294  157.9081 C   0  0  0  0  0  0  0  0  0  0  0  0
  149.9356  142.2137  156.4692 N   0  3  0  0  0  0  0  0  0  0  0  0
  148.8968  141.3087  155.9391 C   0  0  0  0  0  0  0  0  0  0  0  0
  149.3077  140.7314  154.5772 C   0  0  0  0  0  0  0  0  0  0  0  0
  148.1554  140.2137  153.8352 N   0  0  0  0  0  0  0  0  0  0  0  0
  147.9698  138.9354  153.3741 C   0  0  0  0  0  0  0  0  0  0  0  0
  146.7539  138.9212  152.7403 C   0  0  0  0  0  0  0  0  0  0  0  0
  146.2489  140.1897  152.8414 N   0  3  0  0  0  0  0  0  0  0  0  0
  147.1025  140.9744  153.5073 C   0  0  0  0  0  0  0  0  0  0  0  0
  152.1613  139.4908  157.1467 H   0  0  0  0  0  0  0  0  0  0  0  0
  150.8313  139.2239  158.2928 H   0  0  0  0  0  0  0  0  0  0  0  0
  152.4391  138.6152  158.6471 H   0  0  0  0  0  0  0  0  0  0  0  0
  153.2768  139.8115  160.4557 H   0  0  0  0  0  0  0  0  0  0  0  0
  152.7810  142.1518  161.6125 H   0  0  0  0  0  0  0  0  0  0  0  0
  154.4369  141.8328  161.1279 H   0  0  0  0  0  0  0  0  0  0  0  0
  153.6110  144.1099  160.4049 H   0  0  0  0  0  0  0  0  0  0  0  0
  154.2197  143.1270  159.0955 H   0  0  0  0  0  0  0  0  0  0  0  0
  151.2973  143.4413  159.8503 H   0  0  0  0  0  0  0  0  0  0  0  0
  152.8092  144.5750  157.4431 H   0  0  0  0  0  0  0  0  0  0  0  0
  152.3015  145.4922  158.8544 H   0  0  0  0  0  0  0  0  0  0  0  0
  151.0991  144.8191  157.7768 H   0  0  0  0  0  0  0  0  0  0  0  0
  152.2861  142.1500  157.3018 H   0  0  0  0  0  0  0  0  0  0  0  0
  149.7897  141.0851  158.2483 H   0  0  0  0  0  0  0  0  0  0  0  0
  149.6816  142.8150  158.4377 H   0  0  0  0  0  0  0  0  0  0  0  0
  149.6432  143.1692  156.3204 H   0  0  0  0  0  0  0  0  0  0  0  0
  148.7301  140.4998  156.6521 H   0  0  0  0  0  0  0  0  0  0  0  0
  147.9578  141.8561  155.8455 H   0  0  0  0  0  0  0  0  0  0  0  0
  149.7838  141.4959  153.9613 H   0  0  0  0  0  0  0  0  0  0  0  0
  150.0289  139.9216  154.6996 H   0  0  0  0  0  0  0  0  0  0  0  0
  148.6959  138.1499  153.5264 H   0  0  0  0  0  0  0  0  0  0  0  0
  146.2237  138.1244  152.2384 H   0  0  0  0  0  0  0  0  0  0  0  0
  146.9649  142.0166  153.7346 H   0  0  0  0  0  0  0  0  0  0  0  0
  150.7920  142.0555  155.9572 H   0  0  0  0  0  0  0  0  0  0  0  0
  145.3573  140.4922  152.4686 H   0  0  0  0  0  0  0  0  0  0  0  0
  1  2  1  0  0  0  0
  1 18  1  0  0  0  0
  1 19  1  0  0  0  0
  1 20  1  0  0  0  0
  2  8  1  0  0  0  0
  2  3  2  0  0  0  0
  3  4  1  0  0  0  0
  3 21  1  0  0  0  0
  4  5  1  0  0  0  0
  4 22  1  0  0  0  0
  4 23  1  0  0  0  0
  5  6  1  0  0  0  0
  5 24  1  0  0  0  0
  5 25  1  0  0  0  0
  6  7  1  0  0  0  0
  6  8  1  0  0  0  0
  6 26  1  0  0  0  0
  7 27  1  0  0  0  0
  7 28  1  0  0  0  0
  7 29  1  0  0  0  0
  8  9  1  0  0  0  0
  8 30  1  0  0  0  0
  9 10  1  0  0  0  0
  9 31  1  0  0  0  0
  9 32  1  0  0  0  0
 10 11  1  0  0  0  0
 10 33  1  0  0  0  0
 10 41  1  0  0  0  0
 11 12  1  0  0  0  0
 11 34  1  0  0  0  0
 11 35  1  0  0  0  0
 12 13  1  0  0  0  0
 12 36  1  0  0  0  0
 12 37  1  0  0  0  0
 13 17  1  0  0  0  0
 13 14  1  0  0  0  0
 14 15  2  0  0  0  0
 14 38  1  0  0  0  0
 15 16  1  0  0  0  0
 15 39  1  0  0  0  0
 16 17  2  0  0  0  0
 16 42  1  0  0  0  0
 17 40  1  0  0  0  0
M  CHG  1  10   1
M  CHG  1  16   1
M  END
> <s_m_source_file>
AV-unprocessed.smi

> <i_m_source_file_index>
3187

> <i_lp_mmshare_version>
43012

> <i_f3d_flags>
0

> <s_epik_input>
W0NIM11DMT1bQ0hdW0NIMl1bQ0gyXVtDQEBIXShbQ0gzXSlbQ0BIXTFbQ0gyXVtOSF1bQ0gyXVtDSDJdbjJbY0hdW2NIXW5bY0hdMg==

> <s_epik_cmdline>
J2VwaWtfcHl0aG9uJywgJy1waCcsICc3LjAnLCAnLXRuJywgJzgnLCAnLW1hJywgJzIwMCcsICctbWV0YWxfYmluZGluZycsICctaW1hZScsICc8aW5maWxlLm1hZT4nLCAnLW9tYWUnLCAnPG91dGZpbGUubWFlPic=

> <r_lp_tautomer_probability>
1

> <r_epik_Ionization_Penalty>
1.51066

> <r_epik_Ionization_Penalty_Charging>
0.0026721

> <r_epik_Ionization_Penalty_Neutral>
1.50798

> <r_epik_State_Penalty>
1.12593

> <r_epik_Charging_Adjusted_Penalty>
1.12861

> <i_epik_Tot_Q>
2

> <i_epik_Tot_abs_Q>
2

> <r_epik_Metal_State_Penalty>
5.12155

> <b_epik_Metal_Only>
0

> <s_lp_Force_Field>
OPLS_2005

> <r_lp_Energy>
24.2978

> <b_lp_Chiralities_Consistent>
1

> <s_lp_Variant>
AV-unprocessed.smi:3187-7

> <Gold.Version>
5.8.1

> <Gold.Id.Protein>
6NUR|6NUR_protein|mol2

> <Gold.PLP.Fitness>
50.8576

> <Gold.PLP.PLP>
-39.1592

> <Gold.PLP.part.hbond>
-2.0000

> <Gold.PLP.part.metal>
0.0000

> <Gold.PLP.part.buried>
-1.2618

> <Gold.PLP.part.nonpolar>
-36.7440

> <Gold.PLP.part.repulsive>
0.0632

> <Gold.PLP.ligand.clash>
0.0000

> <Gold.PLP.ligand.torsion>
1.4358

> <Gold.PLP.Chemscore.Hbond>
4.0000

> <Gold.PLP.Chemscore.CHOScore>
0.8402

> <Gold.PLP.Chemscore.Metal>
0.0000

> <Gold.Chemscore.Hbonds>
donor molecule, donor type, donor heavy atom, donor atom, acceptor molecule, acceptor atom, score
      L1  H    10    33       P1  8028  2.00
      L1  H    16    42       P1 10175  2.00
      L1  C    14    38       P1  7948  0.82

> <Gold.PLP.Chemscore.Internal.Correction>
0.0494

> <Gold.Rescore>
     Score         DG    S(hbond)    S(metal)    S(lipo)     H(rot)  DE(clash)    DE(int)     intcor
     18.78     -20.26       2.00        0.00     112.43       1.97       0.05       1.42       ----

> <Gold.Chemscore.Fitness>
18.7821

> <Gold.Chemscore.DG>
-20.2566

> <Gold.Chemscore.ZeroCoef>
-5.4800

> <Gold.Chemscore.Hbond>
1.9981

> <Gold.Chemscore.Metal>
0.0000

> <Gold.Chemscore.Lipo>
112.4290

> <Gold.Chemscore.Internal_Hbond>
0.0000

> <Gold.Chemscore.DEClash>
0.0545

> <Gold.Chemscore.DEInternal>
1.4201

> <Gold.Chemscore.Rot>
1.9732

> <Gold.Chemscore.Internal.Correction>
   9.000000E+99

> <Gold.Chemscore.Hbonds>
donor molecule, donor type, donor heavy atom, donor atom, acceptor molecule, acceptor atom, score
      L1  H    10    33       P1  8028  1.00
      L1  H    16    42       P1 10175  0.48

> <Gold.Chemscore.Hbond.Weighted>
-6.6738

> <Gold.Chemscore.Metal.Weighted>
-0.0000

> <Gold.Chemscore.Lipo.Weighted>
-13.1542

> <Gold.Chemscore.Internal_Hbond.Weighted>
0.0000

> <Gold.Chemscore.DEClash.Weighted>
0.0545

> <Gold.Chemscore.DEInternal.Weighted>
1.4201

> <Gold.Chemscore.Rot.Weighted>
5.0514

> <Gold.Chemscore.Internal.Correction.Weighted>
   9.000000E+99

> <Gold.Protein.RotatedTorsions>
[ 6907 6896 6895 6894 ] final  -89.47 input  -60.11 | X-H torsion
[ 7974 7965 7964 7962 ] final   86.39 input  175.53 | X-H torsion
[ 8008 7997 7996 7995 ] final   -4.69 input   59.86 | X-H torsion
[ 10167 10162 10161 10158 ] final  -99.56 input  -65.29 | X-H torsion
[ 10718 10713 10712 10709 ] final  -15.21 input   66.30 | X-H torsion
[ 10763 10752 10751 10750 ] final  -86.08 input  -60.55 | X-H torsion
[ 11005 11000 10999 10996 ] final  -14.05 input  -57.11 | X-H torsion

> <Gold.Protein.ActiveResidues>
 VAL166  LYS551  ARG553  GLY616  TRP617  ASP618  TYR619  PRO620  LYS621  CYS622 
 ASP623  PHE694  ASN695  SER759  ASP760  ASP761  ALA762  ILE779  LEU786  VAL792 
 PHE793  MET794  SER795  GLU796  ALA797  LYS798  CYS799  TRP800  GLU811  SER814 

> <Gold.Protein.RotatedAtoms>
  150.6874  134.2582  159.4538 H   0  0  0  0  0  0  0  0  0  0  0  0  # atno 6907 bound_to 6896
  152.0514  134.9648  160.0584 H   0  0  0  0  0  0  0  0  0  0  0  0  # atno 6908 bound_to 6896
  152.1111  133.4267  159.4668 H   0  0  0  0  0  0  0  0  0  0  0  0  # atno 6909 bound_to 6896
  145.5729  139.2316  143.2396 H   0  0  0  0  0  0  0  0  0  0  0  0  # atno 7974 bound_to 7965
  154.6116  140.2477  155.7661 H   0  0  0  0  0  0  0  0  0  0  0  0  # atno 8008 bound_to 7997
  156.2374  140.2945  156.0300 H   0  0  0  0  0  0  0  0  0  0  0  0  # atno 8009 bound_to 7997
  155.2042  140.0395  157.2913 H   0  0  0  0  0  0  0  0  0  0  0  0  # atno 8010 bound_to 7997
  140.2612  143.3406  152.0624 H   0  0  0  0  0  0  0  0  0  0  0  0  # atno 10167 bound_to 10162
  156.6050  130.4834  149.6224 H   0  0  0  0  0  0  0  0  0  0  0  0  # atno 10718 bound_to 10713
  154.6184  135.5462  153.7549 H   0  0  0  0  0  0  0  0  0  0  0  0  # atno 10763 bound_to 10752
  153.0227  135.6407  154.1476 H   0  0  0  0  0  0  0  0  0  0  0  0  # atno 10764 bound_to 10752
  154.1411  135.2908  155.3140 H   0  0  0  0  0  0  0  0  0  0  0  0  # atno 10765 bound_to 10752
  140.7824  133.8352  155.9304 H   0  0  0  0  0  0  0  0  0  0  0  0  # atno 11005 bound_to 11000
  146.1771  140.6555  142.9206 LP  0  0  0  0  0  0  0  0  0  0  0  0  # atno 17320 bound_to 7965
  144.7429  140.4991  143.6856 LP  0  0  0  0  0  0  0  0  0  0  0  0  # atno 17321 bound_to 7965
  139.5016  144.6718  151.6225 LP  0  0  0  0  0  0  0  0  0  0  0  0  # atno 17342 bound_to 10162
  140.5965  143.9687  150.6357 LP  0  0  0  0  0  0  0  0  0  0  0  0  # atno 17343 bound_to 10162
  156.2437  130.6866  151.1580 LP  0  0  0  0  0  0  0  0  0  0  0  0  # atno 17370 bound_to 10713
  157.7269  131.0643  150.5888 LP  0  0  0  0  0  0  0  0  0  0  0  0  # atno 17371 bound_to 10713
  140.9470  134.1828  157.4756 LP  0  0  0  0  0  0  0  0  0  0  0  0  # atno 17394 bound_to 11000
  139.8741  134.9894  156.5456 LP  0  0  0  0  0  0  0  0  0  0  0  0  # atno 17395 bound_to 11000

$$$$
