AV-unprocessed.smi:1415|AV-procd|sdf|5763|dock4
  -GOLD-   22720 5403D 1   1.00000     0.00000
 Structure written by MMmdl.
 40 41  0  0  0  0  0  0  0  0  1 V2000
  144.6644  136.8316  152.4470 O   0  0  0  0  0  0  0  0  0  0  0  0
  145.8609  136.5716  152.3154 C   0  0  0  0  0  0  0  0  0  0  0  0
  146.8426  137.4091  152.6802 N   0  0  0  0  0  0  0  0  0  0  0  0
  146.6366  138.7254  153.2721 C   0  0  0  0  0  0  0  0  0  0  0  0
  147.6634  139.7485  152.7504 C   0  0  0  0  0  0  0  0  0  0  0  0
  148.0050  140.7318  153.7856 N   0  0  0  0  0  0  0  0  0  0  0  0
  146.9732  141.7335  154.1030 C   0  0  0  0  0  0  0  0  0  0  0  0
  146.3325  141.5489  155.4991 C   0  0  0  0  0  0  0  0  0  0  0  0
  147.2238  140.9090  156.5821 C   0  0  0  0  0  0  0  0  0  0  0  0
  148.5980  141.5830  156.7790 C   0  0  0  0  0  0  0  0  0  0  0  0
  149.4712  141.7509  155.5130 C   0  0  0  0  0  0  0  0  0  0  0  0
  149.2043  140.7054  154.4184 C   0  0  0  0  0  0  0  0  0  0  0  0
  150.0818  139.8811  154.1608 O   0  0  0  0  0  0  0  0  0  0  0  0
  146.3577  135.4346  151.7970 N   0  0  0  0  0  0  0  0  0  0  0  0
  145.6439  134.3073  151.3092 C   0  0  0  0  0  0  0  0  0  0  0  0
  146.4500  133.2477  150.8353 C   0  0  0  0  0  0  0  0  0  0  0  0
  145.8383  132.0835  150.3311 C   0  0  0  0  0  0  0  0  0  0  0  0
  144.4342  132.0083  150.3145 C   0  0  0  0  0  0  0  0  0  0  0  0
  143.7057  133.1073  150.8054 C   0  0  0  0  0  0  0  0  0  0  0  0
  144.2900  134.2239  151.2888 N   0  0  0  0  0  0  0  0  0  0  0  0
  147.7986  137.1182  152.5369 H   0  0  0  0  0  0  0  0  0  0  0  0
  145.6274  139.0543  153.0227 H   0  0  0  0  0  0  0  0  0  0  0  0
  146.6766  138.6517  154.3603 H   0  0  0  0  0  0  0  0  0  0  0  0
  148.5681  139.2383  152.4146 H   0  0  0  0  0  0  0  0  0  0  0  0
  147.2715  140.2414  151.8602 H   0  0  0  0  0  0  0  0  0  0  0  0
  147.4082  142.7301  154.0256 H   0  0  0  0  0  0  0  0  0  0  0  0
  146.1795  141.7352  153.3557 H   0  0  0  0  0  0  0  0  0  0  0  0
  145.9684  142.5152  155.8494 H   0  0  0  0  0  0  0  0  0  0  0  0
  145.4458  140.9233  155.3916 H   0  0  0  0  0  0  0  0  0  0  0  0
  146.6872  140.9218  157.5311 H   0  0  0  0  0  0  0  0  0  0  0  0
  147.3661  139.8515  156.3543 H   0  0  0  0  0  0  0  0  0  0  0  0
  148.4491  142.5651  157.2287 H   0  0  0  0  0  0  0  0  0  0  0  0
  149.1574  141.0063  157.5164 H   0  0  0  0  0  0  0  0  0  0  0  0
  149.3356  142.7471  155.0928 H   0  0  0  0  0  0  0  0  0  0  0  0
  150.5238  141.7106  155.7966 H   0  0  0  0  0  0  0  0  0  0  0  0
  147.3632  135.3668  151.7458 H   0  0  0  0  0  0  0  0  0  0  0  0
  147.5276  133.3223  150.8554 H   0  0  0  0  0  0  0  0  0  0  0  0
  146.4366  131.2628  149.9643 H   0  0  0  0  0  0  0  0  0  0  0  0
  143.9285  131.1323  149.9361 H   0  0  0  0  0  0  0  0  0  0  0  0
  142.6261  133.0899  150.8103 H   0  0  0  0  0  0  0  0  0  0  0  0
  1  2  2  0  0  0  0
  2  3  1  0  0  0  0
  2 14  1  0  0  0  0
  3  4  1  0  0  0  0
  3 21  1  0  0  0  0
  4  5  1  0  0  0  0
  4 22  1  0  0  0  0
  4 23  1  0  0  0  0
  5  6  1  0  0  0  0
  5 24  1  0  0  0  0
  5 25  1  0  0  0  0
  6 12  1  0  0  0  0
  6  7  1  0  0  0  0
  7  8  1  0  0  0  0
  7 26  1  0  0  0  0
  7 27  1  0  0  0  0
  8  9  1  0  0  0  0
  8 28  1  0  0  0  0
  8 29  1  0  0  0  0
  9 10  1  0  0  0  0
  9 30  1  0  0  0  0
  9 31  1  0  0  0  0
 10 11  1  0  0  0  0
 10 32  1  0  0  0  0
 10 33  1  0  0  0  0
 11 12  1  0  0  0  0
 11 34  1  0  0  0  0
 11 35  1  0  0  0  0
 12 13  2  0  0  0  0
 14 15  1  0  0  0  0
 14 36  1  0  0  0  0
 15 20  1  0  0  0  0
 15 16  2  0  0  0  0
 16 17  1  0  0  0  0
 16 37  1  0  0  0  0
 17 18  2  0  0  0  0
 17 38  1  0  0  0  0
 18 19  1  0  0  0  0
 18 39  1  0  0  0  0
 19 20  2  0  0  0  0
 19 40  1  0  0  0  0
M  END
> <s_m_source_file>
AV-unprocessed.smi

> <i_m_source_file_index>
1415

> <i_lp_mmshare_version>
43012

> <i_f3d_flags>
0

> <s_epik_input>
bjFbY0hdW2NIXVtjSF1bY0hdYzFbTkhdQyg9TylbTkhdW0NIMl1bQ0gyXU4yW0NIMl1bQ0gyXVtDSDJdW0NIMl1bQ0gyXUMyPU8=

> <s_epik_cmdline>
J2VwaWtfcHl0aG9uJywgJy1waCcsICc3LjAnLCAnLXRuJywgJzgnLCAnLW1hJywgJzIwMCcsICctbWV0YWxfYmluZGluZycsICctaW1hZScsICc8aW5maWxlLm1hZT4nLCAnLW9tYWUnLCAnPG91dGZpbGUubWFlPic=

> <r_lp_tautomer_probability>
1

> <r_epik_Ionization_Penalty>
4.30218e-05

> <r_epik_Ionization_Penalty_Charging>
0

> <r_epik_Ionization_Penalty_Neutral>
4.30218e-05

> <r_epik_State_Penalty>
-0

> <r_epik_Charging_Adjusted_Penalty>
0

> <i_epik_Tot_Q>
0

> <i_epik_Tot_abs_Q>
0

> <r_epik_Metal_State_Penalty>
-0

> <b_epik_Metal_Only>
0

> <s_lp_Force_Field>
OPLS_2005

> <r_lp_Energy>
23.0834

> <b_lp_Chiralities_Consistent>
1

> <s_lp_Variant>
AV-unprocessed.smi:1415-1

> <Gold.Version>
5.8.1

> <Gold.Id.Protein>
6NUR|6NUR_protein|mol2

> <Gold.PLP.Fitness>
44.4757

> <Gold.PLP.PLP>
-33.5387

> <Gold.PLP.part.hbond>
-3.0000

> <Gold.PLP.part.metal>
0.0000

> <Gold.PLP.part.buried>
0.5231

> <Gold.PLP.part.nonpolar>
-32.4715

> <Gold.PLP.part.repulsive>
1.4780

> <Gold.PLP.ligand.clash>
0.0000

> <Gold.PLP.ligand.torsion>
0.5226

> <Gold.PLP.Chemscore.Hbond>
2.9920

> <Gold.PLP.Chemscore.CHOScore>
1.0000

> <Gold.PLP.Chemscore.Metal>
0.0000

> <Gold.Chemscore.Hbonds>
donor molecule, donor type, donor heavy atom, donor atom, acceptor molecule, acceptor atom, score
      L1  H     3    21       P1  7948  1.00
      L1  H    14    36       P1  7948  0.96
      P1  H  7989  7998       L1    13  1.00
      L1  C    19    40       P1 10186  1.00

> <Gold.PLP.Chemscore.Internal.Correction>
0.0062

> <Gold.Rescore>
     Score         DG    S(hbond)    S(metal)    S(lipo)     H(rot)  DE(clash)    DE(int)     intcor
     15.81     -18.34       2.83        0.00      63.59       1.57       0.78       1.75       ----

> <Gold.Chemscore.Fitness>
15.8103

> <Gold.Chemscore.DG>
-18.3359

> <Gold.Chemscore.ZeroCoef>
-5.4800

> <Gold.Chemscore.Hbond>
2.8273

> <Gold.Chemscore.Metal>
0.0000

> <Gold.Chemscore.Lipo>
63.5873

> <Gold.Chemscore.Internal_Hbond>
0.0000

> <Gold.Chemscore.DEClash>
0.7796

> <Gold.Chemscore.DEInternal>
1.7459

> <Gold.Chemscore.Rot>
1.5731

> <Gold.Chemscore.Internal.Correction>
   9.000000E+99

> <Gold.Chemscore.Hbonds>
donor molecule, donor type, donor heavy atom, donor atom, acceptor molecule, acceptor atom, score
      L1  H     3    21       P1  7948  0.96
      L1  H    14    36       P1  7948  0.90
      P1  H  7989  7998       L1    13  0.57

> <Gold.Chemscore.Hbond.Weighted>
-9.4432

> <Gold.Chemscore.Metal.Weighted>
-0.0000

> <Gold.Chemscore.Lipo.Weighted>
-7.4397

> <Gold.Chemscore.Internal_Hbond.Weighted>
0.0000

> <Gold.Chemscore.DEClash.Weighted>
0.7796

> <Gold.Chemscore.DEInternal.Weighted>
1.7459

> <Gold.Chemscore.Rot.Weighted>
4.0271

> <Gold.Chemscore.Internal.Correction.Weighted>
   9.000000E+99

> <Gold.Protein.RotatedTorsions>
[ 6907 6896 6895 6894 ] final  -57.41 input  -60.11 | X-H torsion
[ 7974 7965 7964 7962 ] final  128.46 input  175.53 | X-H torsion
[ 8008 7997 7996 7995 ] final  152.19 input   59.86 | X-H torsion
[ 10167 10162 10161 10158 ] final  -85.96 input  -65.29 | X-H torsion
[ 10718 10713 10712 10709 ] final -129.03 input   66.30 | X-H torsion
[ 10763 10752 10751 10750 ] final  142.06 input  -60.55 | X-H torsion
[ 11005 11000 10999 10996 ] final -162.94 input  -57.11 | X-H torsion

> <Gold.Protein.ActiveResidues>
 VAL166  LYS551  ARG553  GLY616  TRP617  ASP618  TYR619  PRO620  LYS621  CYS622 
 ASP623  PHE694  ASN695  SER759  ASP760  ASP761  ALA762  ILE779  LEU786  VAL792 
 PHE793  MET794  SER795  GLU796  ALA797  LYS798  CYS799  TRP800  GLU811  SER814 

> <Gold.Protein.RotatedAtoms>
  150.8088  134.7230  159.6668 H   0  0  0  0  0  0  0  0  0  0  0  0  # atno 6907 bound_to 6896
  152.4208  134.5956  159.9996 H   0  0  0  0  0  0  0  0  0  0  0  0  # atno 6908 bound_to 6896
  151.6172  133.3305  159.3116 H   0  0  0  0  0  0  0  0  0  0  0  0  # atno 6909 bound_to 6896
  145.0393  139.3977  143.5110 H   0  0  0  0  0  0  0  0  0  0  0  0  # atno 7974 bound_to 7965
  156.2640  140.2027  156.6294 H   0  0  0  0  0  0  0  0  0  0  0  0  # atno 8008 bound_to 7997
  154.6695  140.0552  157.0174 H   0  0  0  0  0  0  0  0  0  0  0  0  # atno 8009 bound_to 7997
  155.1158  140.3220  155.4512 H   0  0  0  0  0  0  0  0  0  0  0  0  # atno 8010 bound_to 7997
  140.3987  143.2672  151.9171 H   0  0  0  0  0  0  0  0  0  0  0  0  # atno 10167 bound_to 10162
  156.2008  130.6856  151.0536 H   0  0  0  0  0  0  0  0  0  0  0  0  # atno 10718 bound_to 10713
  153.9496  135.2971  155.3439 H   0  0  0  0  0  0  0  0  0  0  0  0  # atno 10763 bound_to 10752
  154.7433  135.5014  153.9164 H   0  0  0  0  0  0  0  0  0  0  0  0  # atno 10764 bound_to 10752
  153.1000  135.6732  153.9798 H   0  0  0  0  0  0  0  0  0  0  0  0  # atno 10765 bound_to 10752
  140.6037  134.4921  157.5208 H   0  0  0  0  0  0  0  0  0  0  0  0  # atno 11005 bound_to 11000
  146.3507  139.9985  142.8678 LP  0  0  0  0  0  0  0  0  0  0  0  0  # atno 17320 bound_to 7965
  145.1668  140.9701  143.4345 LP  0  0  0  0  0  0  0  0  0  0  0  0  # atno 17321 bound_to 7965
  139.4785  144.5655  151.8171 LP  0  0  0  0  0  0  0  0  0  0  0  0  # atno 17342 bound_to 10162
  140.4763  144.1514  150.5925 LP  0  0  0  0  0  0  0  0  0  0  0  0  # atno 17343 bound_to 10162
  157.6984  131.0785  150.6897 LP  0  0  0  0  0  0  0  0  0  0  0  0  # atno 17370 bound_to 10713
  156.6954  130.4607  149.5588 LP  0  0  0  0  0  0  0  0  0  0  0  0  # atno 17371 bound_to 10713
  139.9221  134.8127  156.1178 LP  0  0  0  0  0  0  0  0  0  0  0  0  # atno 17394 bound_to 11000
  141.0855  133.6736  156.2427 LP  0  0  0  0  0  0  0  0  0  0  0  0  # atno 17395 bound_to 11000

$$$$
