AV-unprocessed.smi:2245|AV-procd|sdf|9076|dock10
  -GOLD-   2272012283D 1   1.00000     0.00000
 Structure written by MMmdl.
 44 45  0  0  0  0  0  0  0  0  1 V2000
  151.8992  145.8291  160.1058 C   0  0  0  0  0  0  0  0  0  0  0  0
  151.9230  144.4616  159.4555 C   0  0  0  0  0  0  0  0  0  0  0  0
  152.8579  143.4870  159.8535 C   0  0  0  0  0  0  0  0  0  0  0  0
  152.8299  142.2357  159.2073 C   0  0  0  0  0  0  0  0  0  0  0  0
  153.8119  141.1453  159.5805 C   0  0  0  0  0  0  0  0  0  0  0  0
  151.9522  141.9321  158.2273 N   0  0  0  0  0  0  0  0  0  0  0  0
  151.0472  142.8631  157.8359 C   0  0  0  0  0  0  0  0  0  0  0  0
  150.0933  142.6497  156.8063 N   0  0  0  0  0  0  0  0  0  0  0  0
  150.1122  141.7183  155.8368 C   0  0  0  0  0  0  0  0  0  0  0  0
  150.9388  140.8112  155.7341 O   0  0  0  0  0  0  0  0  0  0  0  0
  149.1020  141.8973  154.9753 N   0  0  0  0  0  0  0  0  0  0  0  0
  148.8713  141.0883  153.7850 C   0  0  0  0  0  0  0  0  0  0  0  0
  148.5826  139.6283  154.1686 C   0  0  2  0  0  0  0  0  0  0  0  0
  147.9316  139.4401  155.5408 C   0  0  0  0  0  0  0  0  0  0  0  0
  148.6752  138.2561  156.1688 C   0  0  0  0  0  0  0  0  0  0  0  0
  149.3792  137.6301  155.0549 N   0  0  0  0  0  0  0  0  0  0  0  0
  150.4987  136.7863  155.4676 C   0  0  0  0  0  0  0  0  0  0  0  0
  150.0740  135.3451  155.8101 C   0  0  0  0  0  0  0  0  0  0  0  0
  149.5452  134.7873  154.7218 F   0  0  0  0  0  0  0  0  0  0  0  0
  151.1154  134.6064  156.1922 F   0  0  0  0  0  0  0  0  0  0  0  0
  149.1542  135.3459  156.7756 F   0  0  0  0  0  0  0  0  0  0  0  0
  149.8334  138.7562  154.2525 C   0  0  0  0  0  0  0  0  0  0  0  0
  151.0060  144.1426  158.4339 C   0  0  0  0  0  0  0  0  0  0  0  0
  152.7020  145.9354  160.8360 H   0  0  0  0  0  0  0  0  0  0  0  0
  150.9492  145.9877  160.6164 H   0  0  0  0  0  0  0  0  0  0  0  0
  152.0192  146.6079  159.3523 H   0  0  0  0  0  0  0  0  0  0  0  0
  153.5787  143.6930  160.6314 H   0  0  0  0  0  0  0  0  0  0  0  0
  154.2987  141.3627  160.5315 H   0  0  0  0  0  0  0  0  0  0  0  0
  154.5820  141.0544  158.8143 H   0  0  0  0  0  0  0  0  0  0  0  0
  153.3031  140.1850  159.6723 H   0  0  0  0  0  0  0  0  0  0  0  0
  149.3307  143.3100  156.7791 H   0  0  0  0  0  0  0  0  0  0  0  0
  148.4641  142.6627  155.1370 H   0  0  0  0  0  0  0  0  0  0  0  0
  148.0259  141.4871  153.2214 H   0  0  0  0  0  0  0  0  0  0  0  0
  149.7454  141.1500  153.1353 H   0  0  0  0  0  0  0  0  0  0  0  0
  147.9249  139.1913  153.4147 H   0  0  0  0  0  0  0  0  0  0  0  0
  148.0327  140.3240  156.1720 H   0  0  0  0  0  0  0  0  0  0  0  0
  146.8669  139.2303  155.4345 H   0  0  0  0  0  0  0  0  0  0  0  0
  149.3916  138.6216  156.9066 H   0  0  0  0  0  0  0  0  0  0  0  0
  147.9965  137.5620  156.6647 H   0  0  0  0  0  0  0  0  0  0  0  0
  151.2053  136.7427  154.6376 H   0  0  0  0  0  0  0  0  0  0  0  0
  151.0305  137.2394  156.3053 H   0  0  0  0  0  0  0  0  0  0  0  0
  150.1899  138.4407  153.2712 H   0  0  0  0  0  0  0  0  0  0  0  0
  150.6408  139.2852  154.7625 H   0  0  0  0  0  0  0  0  0  0  0  0
  150.2812  144.8763  158.1115 H   0  0  0  0  0  0  0  0  0  0  0  0
  1  2  1  0  0  0  0
  1 24  1  0  0  0  0
  1 25  1  0  0  0  0
  1 26  1  0  0  0  0
  2 23  1  0  0  0  0
  2  3  2  0  0  0  0
  3  4  1  0  0  0  0
  3 27  1  0  0  0  0
  4  5  1  0  0  0  0
  4  6  2  0  0  0  0
  5 28  1  0  0  0  0
  5 29  1  0  0  0  0
  5 30  1  0  0  0  0
  6  7  1  0  0  0  0
  7  8  1  0  0  0  0
  7 23  2  0  0  0  0
  8  9  1  0  0  0  0
  8 31  1  0  0  0  0
  9 10  2  0  0  0  0
  9 11  1  0  0  0  0
 11 12  1  0  0  0  0
 11 32  1  0  0  0  0
 12 13  1  0  0  0  0
 12 33  1  0  0  0  0
 12 34  1  0  0  0  0
 13 22  1  0  0  0  0
 13 14  1  0  0  0  0
 13 35  1  0  0  0  0
 14 15  1  0  0  0  0
 14 36  1  0  0  0  0
 14 37  1  0  0  0  0
 15 16  1  0  0  0  0
 15 38  1  0  0  0  0
 15 39  1  0  0  0  0
 16 17  1  0  0  0  0
 16 22  1  0  0  0  0
 17 18  1  0  0  0  0
 17 40  1  0  0  0  0
 17 41  1  0  0  0  0
 18 19  1  0  0  0  0
 18 20  1  0  0  0  0
 18 21  1  0  0  0  0
 22 42  1  0  0  0  0
 22 43  1  0  0  0  0
 23 44  1  0  0  0  0
M  END
> <s_m_source_file>
AV-unprocessed.smi

> <i_m_source_file_index>
2245

> <i_lp_mmshare_version>
43012

> <i_f3d_flags>
0

> <s_epik_input>
W0NIM11jMVtjSF1jKFtDSDNdKW5jKFtjSF0xKVtOSF1DKD1PKVtOSF1bQ0gyXVtDQEBIXTJbQ0gyXVtDSDJdTihbQ0gyXTIpW0NIMl1DKEYpKEYpRg==

> <s_epik_cmdline>
J2VwaWtfcHl0aG9uJywgJy1waCcsICc3LjAnLCAnLXRuJywgJzgnLCAnLW1hJywgJzIwMCcsICctbWV0YWxfYmluZGluZycsICctaW1hZScsICc8aW5maWxlLm1hZT4nLCAnLW9tYWUnLCAnPG91dGZpbGUubWFlPic=

> <r_epik_Ionization_Penalty>
0.252219

> <r_epik_Ionization_Penalty_Charging>
0

> <r_epik_Ionization_Penalty_Neutral>
0.252219

> <r_epik_State_Penalty>
0.24335

> <r_epik_Charging_Adjusted_Penalty>
0.24335

> <i_epik_Tot_Q>
0

> <i_epik_Tot_abs_Q>
0

> <r_epik_Metal_State_Penalty>
0.243337

> <b_epik_Metal_Only>
0

> <s_lp_Force_Field>
OPLS_2005

> <r_lp_Energy>
29.2312

> <b_lp_Chiralities_Consistent>
1

> <s_lp_Variant>
AV-unprocessed.smi:2245-1

> <Gold.Version>
5.8.1

> <Gold.Id.Protein>
6NUR|6NUR_protein|mol2

> <Gold.PLP.Fitness>
45.9318

> <Gold.PLP.PLP>
-43.0194

> <Gold.PLP.part.hbond>
-2.5784

> <Gold.PLP.part.metal>
0.0000

> <Gold.PLP.part.buried>
-1.2380

> <Gold.PLP.part.nonpolar>
-38.2909

> <Gold.PLP.part.repulsive>
0.4062

> <Gold.PLP.ligand.clash>
0.0000

> <Gold.PLP.ligand.torsion>
0.7451

> <Gold.PLP.Chemscore.Hbond>
1.3456

> <Gold.PLP.Chemscore.CHOScore>
0.0000

> <Gold.PLP.Chemscore.Metal>
0.0000

> <Gold.Chemscore.Hbonds>
donor molecule, donor type, donor heavy atom, donor atom, acceptor molecule, acceptor atom, score
      L1  H     8    31       P1  8028  0.69
      L1  H    11    32       P1  8028  0.43
      P1  H  7989  7998       L1    10  0.19

> <Gold.PLP.Chemscore.Internal.Correction>
0.3660

> <Gold.Rescore>
     Score         DG    S(hbond)    S(metal)    S(lipo)     H(rot)  DE(clash)    DE(int)     intcor
     12.97     -18.16       1.52        0.00      99.68       1.58       0.87       4.31       ----

> <Gold.Chemscore.Fitness>
12.9718

> <Gold.Chemscore.DG>
-18.1554

> <Gold.Chemscore.ZeroCoef>
-5.4800

> <Gold.Chemscore.Hbond>
1.5163

> <Gold.Chemscore.Metal>
0.0000

> <Gold.Chemscore.Lipo>
99.6797

> <Gold.Chemscore.Internal_Hbond>
0.0000

> <Gold.Chemscore.DEClash>
0.8729

> <Gold.Chemscore.DEInternal>
4.3107

> <Gold.Chemscore.Rot>
1.5826

> <Gold.Chemscore.Internal.Correction>
   9.000000E+99

> <Gold.Chemscore.Hbonds>
donor molecule, donor type, donor heavy atom, donor atom, acceptor molecule, acceptor atom, score
      L1  H     8    31       P1  8028  0.69
      L1  H    11    32       P1  8028  0.42
      P1  H  7989  7998       L1    10  0.10

> <Gold.Chemscore.Hbond.Weighted>
-5.0644

> <Gold.Chemscore.Metal.Weighted>
-0.0000

> <Gold.Chemscore.Lipo.Weighted>
-11.6625

> <Gold.Chemscore.Internal_Hbond.Weighted>
0.0000

> <Gold.Chemscore.DEClash.Weighted>
0.8729

> <Gold.Chemscore.DEInternal.Weighted>
4.3107

> <Gold.Chemscore.Rot.Weighted>
4.0515

> <Gold.Chemscore.Internal.Correction.Weighted>
   9.000000E+99

> <Gold.Protein.RotatedTorsions>
[ 6907 6896 6895 6894 ] final   22.98 input  -60.11 | X-H torsion
[ 7974 7965 7964 7962 ] final -124.83 input  175.53 | X-H torsion
[ 8008 7997 7996 7995 ] final   80.97 input   59.86 | X-H torsion
[ 10167 10162 10161 10158 ] final  -58.17 input  -65.29 | X-H torsion
[ 10718 10713 10712 10709 ] final  -21.91 input   66.30 | X-H torsion
[ 10763 10752 10751 10750 ] final   37.65 input  -60.55 | X-H torsion
[ 11005 11000 10999 10996 ] final  127.74 input  -57.11 | X-H torsion

> <Gold.Protein.ActiveResidues>
 VAL166  LYS551  ARG553  GLY616  TRP617  ASP618  TYR619  PRO620  LYS621  CYS622 
 ASP623  PHE694  ASN695  SER759  ASP760  ASP761  ALA762  ILE779  LEU786  VAL792 
 PHE793  MET794  SER795  GLU796  ALA797  LYS798  CYS799  TRP800  GLU811  SER814 

> <Gold.Protein.RotatedAtoms>
  151.9354  135.0238  160.0531 H   0  0  0  0  0  0  0  0  0  0  0  0  # atno 6907 bound_to 6896
  152.2083  133.4887  159.5104 H   0  0  0  0  0  0  0  0  0  0  0  0  # atno 6908 bound_to 6896
  150.6970  134.1418  159.4150 H   0  0  0  0  0  0  0  0  0  0  0  0  # atno 6909 bound_to 6896
  145.0039  140.7846  143.4479 H   0  0  0  0  0  0  0  0  0  0  0  0  # atno 7974 bound_to 7965
  155.8908  140.3439  155.5955 H   0  0  0  0  0  0  0  0  0  0  0  0  # atno 8008 bound_to 7997
  155.7613  140.0833  157.2173 H   0  0  0  0  0  0  0  0  0  0  0  0  # atno 8009 bound_to 7997
  154.4033  140.1535  156.2823 H   0  0  0  0  0  0  0  0  0  0  0  0  # atno 8010 bound_to 7997
  140.6214  143.2421  151.5472 H   0  0  0  0  0  0  0  0  0  0  0  0  # atno 10167 bound_to 10162
  156.5117  130.4611  149.6645 H   0  0  0  0  0  0  0  0  0  0  0  0  # atno 10718 bound_to 10713
  153.0030  135.6272  154.2178 H   0  0  0  0  0  0  0  0  0  0  0  0  # atno 10763 bound_to 10752
  154.1921  135.2808  155.3020 H   0  0  0  0  0  0  0  0  0  0  0  0  # atno 10764 bound_to 10752
  154.5751  135.5664  153.7191 H   0  0  0  0  0  0  0  0  0  0  0  0  # atno 10765 bound_to 10752
  139.9523  134.9619  156.8899 H   0  0  0  0  0  0  0  0  0  0  0  0  # atno 11005 bound_to 11000
  145.2115  139.2202  143.5141 LP  0  0  0  0  0  0  0  0  0  0  0  0  # atno 17320 bound_to 7965
  146.3457  140.1953  142.8589 LP  0  0  0  0  0  0  0  0  0  0  0  0  # atno 17321 bound_to 7965
  139.5442  144.2567  152.1409 LP  0  0  0  0  0  0  0  0  0  0  0  0  # atno 17342 bound_to 10162
  140.1788  144.4865  150.6539 LP  0  0  0  0  0  0  0  0  0  0  0  0  # atno 17343 bound_to 10162
  156.3234  130.7293  151.2209 LP  0  0  0  0  0  0  0  0  0  0  0  0  # atno 17370 bound_to 10713
  157.7449  131.0449  150.4818 LP  0  0  0  0  0  0  0  0  0  0  0  0  # atno 17371 bound_to 10713
  140.5689  134.0462  155.7424 LP  0  0  0  0  0  0  0  0  0  0  0  0  # atno 17394 bound_to 11000
  141.1189  133.9495  157.2769 LP  0  0  0  0  0  0  0  0  0  0  0  0  # atno 17395 bound_to 11000

$$$$
