AV-unprocessed.smi:53|AV-procd|sdf|514|dock3
  -GOLD-   2262016383D 1   1.00000     0.00000
 Structure written by MMmdl.
 30 31  0  0  0  0  0  0  0  0  1 V2000
  149.1619  142.2350  154.7256 N   0  0  0  0  0  0  0  0  0  0  0  0
  150.0114  141.3936  155.3312 C   0  0  0  0  0  0  0  0  0  0  0  0
  150.4418  141.6408  156.6879 C   0  0  0  0  0  0  0  0  0  0  0  0
  151.2943  140.7445  157.2319 C   0  0  0  0  0  0  0  0  0  0  0  0
  151.7281  139.6168  156.5424 N   0  0  0  0  0  0  0  0  0  0  0  0
  152.7117  138.6212  157.1388 C   0  0  1  0  0  0  0  0  0  0  0  0
  153.2552  139.1335  158.3174 O   0  0  0  0  0  0  0  0  0  0  0  0
  152.4778  138.6981  159.4257 C   0  0  2  0  0  0  0  0  0  0  0  0
  153.2853  138.8489  160.7233 C   0  0  0  0  0  0  0  0  0  0  0  0
  153.3864  140.2133  161.0717 O   0  0  0  0  0  0  0  0  0  0  0  0
  152.1794  137.2457  159.0500 C   0  0  1  0  0  0  0  0  0  0  0  0
  150.9837  136.8144  159.6689 O   0  0  0  0  0  0  0  0  0  0  0  0
  152.0162  137.2954  157.5313 C   0  0  2  0  0  0  0  0  0  0  0  0
  152.6470  136.1767  156.9399 O   0  0  0  0  0  0  0  0  0  0  0  0
  151.3181  139.4284  155.1992 C   0  0  0  0  0  0  0  0  0  0  0  0
  151.7245  138.4825  154.5254 O   0  0  0  0  0  0  0  0  0  0  0  0
  150.4514  140.3440  154.6661 N   0  0  0  0  0  0  0  0  0  0  0  0
  153.4944  138.5209  156.3837 H   0  0  0  0  0  0  0  0  0  0  0  0
  151.5453  139.2639  159.4771 H   0  0  0  0  0  0  0  0  0  0  0  0
  153.0127  136.6018  159.3370 H   0  0  0  0  0  0  0  0  0  0  0  0
  150.9634  137.3201  157.2458 H   0  0  0  0  0  0  0  0  0  0  0  0
  148.8673  142.0625  153.7752 H   0  0  0  0  0  0  0  0  0  0  0  0
  148.8205  143.0449  155.2225 H   0  0  0  0  0  0  0  0  0  0  0  0
  150.1174  142.4929  157.2682 H   0  0  0  0  0  0  0  0  0  0  0  0
  151.6274  140.9429  158.2390 H   0  0  0  0  0  0  0  0  0  0  0  0
  152.7770  138.3389  161.5423 H   0  0  0  0  0  0  0  0  0  0  0  0
  154.2768  138.4051  160.6291 H   0  0  0  0  0  0  0  0  0  0  0  0
  153.6688  140.6977  160.3109 H   0  0  0  0  0  0  0  0  0  0  0  0
  151.0682  136.9404  160.6020 H   0  0  0  0  0  0  0  0  0  0  0  0
  152.5490  135.4358  157.5181 H   0  0  0  0  0  0  0  0  0  0  0  0
  1  2  1  0  0  0  0
  1 22  1  0  0  0  0
  1 23  1  0  0  0  0
  2 17  2  0  0  0  0
  2  3  1  0  0  0  0
  3  4  2  0  0  0  0
  3 24  1  0  0  0  0
  4  5  1  0  0  0  0
  4 25  1  0  0  0  0
  5  6  1  0  0  0  0
  5 15  1  0  0  0  0
  6 18  1  0  0  0  0
  6 13  1  0  0  0  0
  6  7  1  0  0  0  0
  7  8  1  0  0  0  0
  8 19  1  0  0  0  0
  8  9  1  0  0  0  0
  8 11  1  0  0  0  0
  9 10  1  0  0  0  0
  9 26  1  0  0  0  0
  9 27  1  0  0  0  0
 10 28  1  0  0  0  0
 11 20  1  0  0  0  0
 11 12  1  0  0  0  0
 11 13  1  0  0  0  0
 12 29  1  0  0  0  0
 13 21  1  0  0  0  0
 13 14  1  0  0  0  0
 14 30  1  0  0  0  0
 15 16  2  0  0  0  0
 15 17  1  0  0  0  0
M  END
> <s_m_source_file>
AV-unprocessed.smi

> <i_m_source_file_index>
53

> <i_lp_mmshare_version>
43012

> <i_f3d_flags>
0

> <s_epik_input>
W05IMl1jMVtjSF1bY0hdbihjKD1PKW4xKVtDQEBIXTJPW0NASF0oW0NIMl1bT0hdKVtDQEBIXShbT0hdKVtDQEBIXTJbT0hd

> <s_epik_cmdline>
J2VwaWtfcHl0aG9uJywgJy1waCcsICc3LjAnLCAnLXRuJywgJzgnLCAnLW1hJywgJzIwMCcsICctbWV0YWxfYmluZGluZycsICctaW1hZScsICc8aW5maWxlLm1hZT4nLCAnLW9tYWUnLCAnPG91dGZpbGUubWFlPic=

> <r_lp_tautomer_probability>
0.99996

> <r_epik_Ionization_Penalty>
0.00069087

> <r_epik_Ionization_Penalty_Charging>
2.61959e-08

> <r_epik_Ionization_Penalty_Neutral>
0.000690844

> <r_epik_State_Penalty>
1.15523e-05

> <r_epik_Charging_Adjusted_Penalty>
1.15785e-05

> <i_epik_Tot_Q>
0

> <i_epik_Tot_abs_Q>
0

> <r_epik_Metal_State_Penalty>
-0

> <b_epik_Metal_Only>
0

> <s_epik_Chemistry_Notes>
This compound contains an acetal/aminal-like group ( X-CH(R)-Y where X, Y are N, S, or O) that may be acid/base labile, releasing an aldehyde.

> <s_lp_Force_Field>
OPLS_2005

> <r_lp_Energy>
26.6068

> <b_lp_Chiralities_Consistent>
1

> <s_lp_Variant>
AV-unprocessed.smi:53-2

> <Gold.Version>
5.8.1

> <Gold.Id.Protein>
6NUR|6NUR_protein|mol2

> <Gold.PLP.Fitness>
37.2753

> <Gold.PLP.PLP>
-24.3759

> <Gold.PLP.part.hbond>
-5.0000

> <Gold.PLP.part.metal>
0.0000

> <Gold.PLP.part.buried>
-3.2194

> <Gold.PLP.part.nonpolar>
-15.9262

> <Gold.PLP.part.repulsive>
1.0698

> <Gold.PLP.ligand.clash>
0.0000

> <Gold.PLP.ligand.torsion>
0.3826

> <Gold.PLP.Chemscore.Hbond>
4.5420

> <Gold.PLP.Chemscore.CHOScore>
0.0000

> <Gold.PLP.Chemscore.Metal>
0.0000

> <Gold.Chemscore.Hbonds>
donor molecule, donor type, donor heavy atom, donor atom, acceptor molecule, acceptor atom, score
      L1  H     1    23       P1  8028  1.00
      P1  H  6896  6907       L1    12  0.35
      P1  H  7989  7998       L1    17  0.65
      P1  H  7997  8009       L1     7  0.42
      P1  H 10752 10765       L1    14  1.00

> <Gold.PLP.Chemscore.Internal.Correction>
0.0387

> <Gold.Rescore>
     Score         DG    S(hbond)    S(metal)    S(lipo)     H(rot)  DE(clash)    DE(int)     intcor
     11.17     -11.31       3.50        0.00      31.23       3.71       0.01       0.13       ----

> <Gold.Chemscore.Fitness>
11.1666

> <Gold.Chemscore.DG>
-11.3142

> <Gold.Chemscore.ZeroCoef>
-5.4800

> <Gold.Chemscore.Hbond>
3.4960

> <Gold.Chemscore.Metal>
0.0000

> <Gold.Chemscore.Lipo>
31.2314

> <Gold.Chemscore.Internal_Hbond>
0.0000

> <Gold.Chemscore.DEClash>
0.0149

> <Gold.Chemscore.DEInternal>
0.1327

> <Gold.Chemscore.Rot>
3.7095

> <Gold.Chemscore.Internal.Correction>
   9.000000E+99

> <Gold.Chemscore.Hbonds>
donor molecule, donor type, donor heavy atom, donor atom, acceptor molecule, acceptor atom, score
      L1  H     1    23       P1  8028  0.97
      P1  H  7989  7998       L1    17  0.04
      P1  H  7997  8009       L1     7  0.03
      P1  H 10752 10765       L1    14  0.38

> <Gold.Chemscore.Hbond.Weighted>
-11.6765

> <Gold.Chemscore.Metal.Weighted>
-0.0000

> <Gold.Chemscore.Lipo.Weighted>
-3.6541

> <Gold.Chemscore.Internal_Hbond.Weighted>
0.0000

> <Gold.Chemscore.DEClash.Weighted>
0.0149

> <Gold.Chemscore.DEInternal.Weighted>
0.1327

> <Gold.Chemscore.Rot.Weighted>
9.4964

> <Gold.Chemscore.Internal.Correction.Weighted>
   9.000000E+99

> <Gold.Protein.RotatedTorsions>
[ 6907 6896 6895 6894 ] final  -11.52 input  -60.11 | X-H torsion
[ 7974 7965 7964 7962 ] final   -4.64 input  175.53 | X-H torsion
[ 8008 7997 7996 7995 ] final  130.66 input   59.86 | X-H torsion
[ 10167 10162 10161 10158 ] final   38.66 input  -65.29 | X-H torsion
[ 10718 10713 10712 10709 ] final  -52.93 input   66.30 | X-H torsion
[ 10763 10752 10751 10750 ] final -122.16 input  -60.55 | X-H torsion
[ 11005 11000 10999 10996 ] final  -46.33 input  -57.11 | X-H torsion

> <Gold.Protein.ActiveResidues>
 VAL166  LYS551  ARG553  GLY616  TRP617  ASP618  TYR619  PRO620  LYS621  CYS622 
 ASP623  PHE694  ASN695  SER759  ASP760  ASP761  ALA762  ILE779  LEU786  VAL792 
 PHE793  MET794  SER795  GLU796  ALA797  LYS798  CYS799  TRP800  GLU811  SER814 

> <Gold.Protein.RotatedAtoms>
  151.3850  135.0946  159.9507 H   0  0  0  0  0  0  0  0  0  0  0  0  # atno 6907 bound_to 6896
  152.5097  133.9035  159.7463 H   0  0  0  0  0  0  0  0  0  0  0  0  # atno 6908 bound_to 6896
  150.9476  133.6529  159.2807 H   0  0  0  0  0  0  0  0  0  0  0  0  # atno 6909 bound_to 6896
  146.2368  140.1901  142.8332 H   0  0  0  0  0  0  0  0  0  0  0  0  # atno 7974 bound_to 7965
  156.2958  140.2590  156.2798 H   0  0  0  0  0  0  0  0  0  0  0  0  # atno 8008 bound_to 7997
  154.9613  140.0392  157.2210 H   0  0  0  0  0  0  0  0  0  0  0  0  # atno 8009 bound_to 7997
  154.7944  140.2817  155.5972 H   0  0  0  0  0  0  0  0  0  0  0  0  # atno 8010 bound_to 7997
  140.3915  144.1845  150.6131 H   0  0  0  0  0  0  0  0  0  0  0  0  # atno 10167 bound_to 10162
  156.1578  130.4150  149.9841 H   0  0  0  0  0  0  0  0  0  0  0  0  # atno 10718 bound_to 10713
  154.8683  135.4142  154.2736 H   0  0  0  0  0  0  0  0  0  0  0  0  # atno 10763 bound_to 10752
  153.3642  135.7004  153.6694 H   0  0  0  0  0  0  0  0  0  0  0  0  # atno 10764 bound_to 10752
  153.5582  135.3615  155.2760 H   0  0  0  0  0  0  0  0  0  0  0  0  # atno 10765 bound_to 10752
  141.0572  133.6721  156.3139 H   0  0  0  0  0  0  0  0  0  0  0  0  # atno 11005 bound_to 11000
  144.9864  140.8507  143.5366 LP  0  0  0  0  0  0  0  0  0  0  0  0  # atno 17320 bound_to 7965
  145.1901  139.2305  143.5247 LP  0  0  0  0  0  0  0  0  0  0  0  0  # atno 17321 bound_to 7965
  140.4834  143.2371  151.8922 LP  0  0  0  0  0  0  0  0  0  0  0  0  # atno 17342 bound_to 10162
  139.4789  144.5244  151.8755 LP  0  0  0  0  0  0  0  0  0  0  0  0  # atno 17343 bound_to 10162
  156.7679  130.9175  151.3643 LP  0  0  0  0  0  0  0  0  0  0  0  0  # atno 17370 bound_to 10713
  157.6709  130.9050  150.0038 LP  0  0  0  0  0  0  0  0  0  0  0  0  # atno 17371 bound_to 10713
  140.5941  134.5621  157.5505 LP  0  0  0  0  0  0  0  0  0  0  0  0  # atno 17394 bound_to 11000
  139.9400  134.7804  156.0702 LP  0  0  0  0  0  0  0  0  0  0  0  0  # atno 17395 bound_to 11000

$$$$
