AV-unprocessed.smi:725|AV-procd|sdf|3509|dock6
  -GOLD-   22720 0503D 1   1.00000     0.00000
 Structure written by MMmdl.
 47 48  0  0  0  0  0  0  0  0  1 V2000
  153.5390  142.2722  159.9188 C   0  0  0  0  0  0  0  0  0  0  0  0
  152.4387  143.2056  160.4363 C   0  0  0  0  0  0  0  0  0  0  0  0
  152.1644  144.3773  159.4723 C   0  0  0  0  0  0  0  0  0  0  0  0
  151.6031  143.9978  158.0785 C   0  0  2  0  0  0  0  0  0  0  0  0
  152.6403  144.2204  156.9564 C   0  0  0  0  0  0  0  0  0  0  0  0
  150.4866  144.8313  157.8300 O   0  0  0  0  0  0  0  0  0  0  0  0
  151.0748  142.5412  158.1340 C   0  0  0  0  0  0  0  0  0  0  0  0
  150.1337  142.2193  157.0625 N   0  0  0  0  0  0  0  0  0  0  0  0
  149.6160  141.0058  156.8097 C   0  0  0  0  0  0  0  0  0  0  0  0
  149.8753  140.0016  157.4734 O   0  0  0  0  0  0  0  0  0  0  0  0
  148.6518  140.9546  155.6535 C   0  0  0  0  0  0  0  0  0  0  0  0
  147.7769  142.0442  155.4344 C   0  0  0  0  0  0  0  0  0  0  0  0
  146.9062  142.0262  154.3310 C   0  0  0  0  0  0  0  0  0  0  0  0
  146.9458  140.9154  153.4720 C   0  0  0  0  0  0  0  0  0  0  0  0
  147.7740  139.8686  153.6597 N   0  0  0  0  0  0  0  0  0  0  0  0
  148.6163  139.8730  154.7232 C   0  0  0  0  0  0  0  0  0  0  0  0
  149.4267  138.7315  154.8877 N   0  0  0  0  0  0  0  0  0  0  0  0
  149.0188  137.7546  155.8924 C   0  0  0  0  0  0  0  0  0  0  0  0
  149.8708  136.4810  155.7576 C   0  0  0  0  0  0  0  0  0  0  0  0
  151.2522  136.8180  155.8529 O   0  0  0  0  0  0  0  0  0  0  0  0
  151.6578  137.7148  154.8223 C   0  0  0  0  0  0  0  0  0  0  0  0
  150.8546  139.0223  154.9280 C   0  0  0  0  0  0  0  0  0  0  0  0
  153.7164  141.4555  160.6187 H   0  0  0  0  0  0  0  0  0  0  0  0
  154.4795  142.8073  159.7868 H   0  0  0  0  0  0  0  0  0  0  0  0
  153.2646  141.8337  158.9590 H   0  0  0  0  0  0  0  0  0  0  0  0
  151.5291  142.6254  160.5920 H   0  0  0  0  0  0  0  0  0  0  0  0
  152.7384  143.5822  161.4136 H   0  0  0  0  0  0  0  0  0  0  0  0
  151.4728  145.0677  159.9568 H   0  0  0  0  0  0  0  0  0  0  0  0
  153.0917  144.9363  159.3378 H   0  0  0  0  0  0  0  0  0  0  0  0
  153.5188  143.5925  157.1066 H   0  0  0  0  0  0  0  0  0  0  0  0
  152.9762  145.2556  156.9103 H   0  0  0  0  0  0  0  0  0  0  0  0
  152.2340  143.9891  155.9718 H   0  0  0  0  0  0  0  0  0  0  0  0
  150.1056  144.5829  157.0019 H   0  0  0  0  0  0  0  0  0  0  0  0
  151.9150  141.8452  158.1091 H   0  0  0  0  0  0  0  0  0  0  0  0
  150.5742  142.3583  159.0857 H   0  0  0  0  0  0  0  0  0  0  0  0
  149.8470  142.9849  156.4701 H   0  0  0  0  0  0  0  0  0  0  0  0
  147.7744  142.8972  156.0976 H   0  0  0  0  0  0  0  0  0  0  0  0
  146.2303  142.8474  154.1441 H   0  0  0  0  0  0  0  0  0  0  0  0
  146.2953  140.8650  152.6114 H   0  0  0  0  0  0  0  0  0  0  0  0
  149.1439  138.1767  156.8906 H   0  0  0  0  0  0  0  0  0  0  0  0
  147.9622  137.5137  155.7688 H   0  0  0  0  0  0  0  0  0  0  0  0
  149.6209  135.7757  156.5500 H   0  0  0  0  0  0  0  0  0  0  0  0
  149.6731  135.9794  154.8087 H   0  0  0  0  0  0  0  0  0  0  0  0
  152.7234  137.9186  154.9270 H   0  0  0  0  0  0  0  0  0  0  0  0
  151.5161  137.2504  153.8449 H   0  0  0  0  0  0  0  0  0  0  0  0
  151.1367  139.6969  154.1194 H   0  0  0  0  0  0  0  0  0  0  0  0
  151.0887  139.5310  155.8641 H   0  0  0  0  0  0  0  0  0  0  0  0
  1  2  1  0  0  0  0
  1 23  1  0  0  0  0
  1 24  1  0  0  0  0
  1 25  1  0  0  0  0
  2  3  1  0  0  0  0
  2 26  1  0  0  0  0
  2 27  1  0  0  0  0
  3  4  1  0  0  0  0
  3 28  1  0  0  0  0
  3 29  1  0  0  0  0
  4  5  1  0  0  0  0
  4  6  1  0  0  0  0
  4  7  1  0  0  0  0
  5 30  1  0  0  0  0
  5 31  1  0  0  0  0
  5 32  1  0  0  0  0
  6 33  1  0  0  0  0
  7  8  1  0  0  0  0
  7 34  1  0  0  0  0
  7 35  1  0  0  0  0
  8  9  1  0  0  0  0
  8 36  1  0  0  0  0
  9 10  2  0  0  0  0
  9 11  1  0  0  0  0
 11 16  1  0  0  0  0
 11 12  2  0  0  0  0
 12 13  1  0  0  0  0
 12 37  1  0  0  0  0
 13 14  2  0  0  0  0
 13 38  1  0  0  0  0
 14 15  1  0  0  0  0
 14 39  1  0  0  0  0
 15 16  2  0  0  0  0
 16 17  1  0  0  0  0
 17 22  1  0  0  0  0
 17 18  1  0  0  0  0
 18 19  1  0  0  0  0
 18 40  1  0  0  0  0
 18 41  1  0  0  0  0
 19 20  1  0  0  0  0
 19 42  1  0  0  0  0
 19 43  1  0  0  0  0
 20 21  1  0  0  0  0
 21 22  1  0  0  0  0
 21 44  1  0  0  0  0
 21 45  1  0  0  0  0
 22 46  1  0  0  0  0
 22 47  1  0  0  0  0
M  END
> <s_m_source_file>
AV-unprocessed.smi

> <i_m_source_file_index>
725

> <i_lp_mmshare_version>
43012

> <i_f3d_flags>
0

> <s_epik_input>
W0NIM11bQ0gyXVtDSDJdW0NAQF0oW0NIM10pKFtPSF0pW0NIMl1bTkhdQyg9TyljMVtjSF1bY0hdW2NIXW5jMU4yW0NIMl1bQ0gyXU9bQ0gyXVtDSDJdMg==

> <s_epik_cmdline>
J2VwaWtfcHl0aG9uJywgJy1waCcsICc3LjAnLCAnLXRuJywgJzgnLCAnLW1hJywgJzIwMCcsICctbWV0YWxfYmluZGluZycsICctaW1hZScsICc8aW5maWxlLm1hZT4nLCAnLW9tYWUnLCAnPG91dGZpbGUubWFlPic=

> <r_lp_tautomer_probability>
1

> <r_epik_Ionization_Penalty>
1.23446e-05

> <r_epik_Ionization_Penalty_Charging>
0

> <r_epik_Ionization_Penalty_Neutral>
1.23446e-05

> <r_epik_State_Penalty>
-0

> <r_epik_Charging_Adjusted_Penalty>
0

> <i_epik_Tot_Q>
0

> <i_epik_Tot_abs_Q>
0

> <r_epik_Metal_State_Penalty>
-0

> <b_epik_Metal_Only>
0

> <s_lp_Force_Field>
OPLS_2005

> <r_lp_Energy>
29.6434

> <b_lp_Chiralities_Consistent>
1

> <s_lp_Variant>
AV-unprocessed.smi:725-2

> <Gold.Version>
5.8.1

> <Gold.Id.Protein>
6NUR|6NUR_protein|mol2

> <Gold.PLP.Fitness>
46.5851

> <Gold.PLP.PLP>
-39.6544

> <Gold.PLP.part.hbond>
-3.6542

> <Gold.PLP.part.metal>
0.0000

> <Gold.PLP.part.buried>
-3.6136

> <Gold.PLP.part.nonpolar>
-34.5125

> <Gold.PLP.part.repulsive>
1.5740

> <Gold.PLP.ligand.clash>
0.0000

> <Gold.PLP.ligand.torsion>
2.0510

> <Gold.PLP.Chemscore.Hbond>
2.7550

> <Gold.PLP.Chemscore.CHOScore>
0.8197

> <Gold.PLP.Chemscore.Metal>
0.0000

> <Gold.Chemscore.Hbonds>
donor molecule, donor type, donor heavy atom, donor atom, acceptor molecule, acceptor atom, score
      L1  H     6    33       P1  8028  1.00
      L1  H     8    36       P1  8028  0.71
      L1  C    14    39       P1 10175  0.74

> <Gold.PLP.Chemscore.Internal.Correction>
0.3085

> <Gold.Rescore>
     Score         DG    S(hbond)    S(metal)    S(lipo)     H(rot)  DE(clash)    DE(int)     intcor
     11.81     -19.44       1.69        0.00     119.20       2.19       2.21       5.43       ----

> <Gold.Chemscore.Fitness>
11.8078

> <Gold.Chemscore.DG>
-19.4411

> <Gold.Chemscore.ZeroCoef>
-5.4800

> <Gold.Chemscore.Hbond>
1.6855

> <Gold.Chemscore.Metal>
0.0000

> <Gold.Chemscore.Lipo>
119.2005

> <Gold.Chemscore.Internal_Hbond>
0.0000

> <Gold.Chemscore.DEClash>
2.2073

> <Gold.Chemscore.DEInternal>
5.4259

> <Gold.Chemscore.Rot>
2.1933

> <Gold.Chemscore.Internal.Correction>
   9.000000E+99

> <Gold.Chemscore.Hbonds>
donor molecule, donor type, donor heavy atom, donor atom, acceptor molecule, acceptor atom, score
      L1  H     6    33       P1  8028  0.53
      L1  H     8    36       P1  8028  0.73

> <Gold.Chemscore.Hbond.Weighted>
-5.6295

> <Gold.Chemscore.Metal.Weighted>
-0.0000

> <Gold.Chemscore.Lipo.Weighted>
-13.9465

> <Gold.Chemscore.Internal_Hbond.Weighted>
0.0000

> <Gold.Chemscore.DEClash.Weighted>
2.2073

> <Gold.Chemscore.DEInternal.Weighted>
5.4259

> <Gold.Chemscore.Rot.Weighted>
5.6149

> <Gold.Chemscore.Internal.Correction.Weighted>
   9.000000E+99

> <Gold.Protein.RotatedTorsions>
[ 6907 6896 6895 6894 ] final -106.88 input  -60.11 | X-H torsion
[ 7974 7965 7964 7962 ] final  159.76 input  175.53 | X-H torsion
[ 8008 7997 7996 7995 ] final  102.62 input   59.86 | X-H torsion
[ 10167 10162 10161 10158 ] final   36.27 input  -65.29 | X-H torsion
[ 10718 10713 10712 10709 ] final  -72.25 input   66.30 | X-H torsion
[ 10763 10752 10751 10750 ] final  -53.24 input  -60.55 | X-H torsion
[ 11005 11000 10999 10996 ] final   89.34 input  -57.11 | X-H torsion

> <Gold.Protein.ActiveResidues>
 VAL166  LYS551  ARG553  GLY616  TRP617  ASP618  TYR619  PRO620  LYS621  CYS622 
 ASP623  PHE694  ASN695  SER759  ASP760  ASP761  ALA762  ILE779  LEU786  VAL792 
 PHE793  MET794  SER795  GLU796  ALA797  LYS798  CYS799  TRP800  GLU811  SER814 

> <Gold.Protein.RotatedAtoms>
  150.7413  133.9910  159.3606 H   0  0  0  0  0  0  0  0  0  0  0  0  # atno 6907 bound_to 6896
  151.7858  135.0747  160.0389 H   0  0  0  0  0  0  0  0  0  0  0  0  # atno 6908 bound_to 6896
  152.3242  133.5850  159.5801 H   0  0  0  0  0  0  0  0  0  0  0  0  # atno 6909 bound_to 6896
  144.7773  139.7662  143.6274 H   0  0  0  0  0  0  0  0  0  0  0  0  # atno 7974 bound_to 7965
  156.1409  140.3178  155.8494 H   0  0  0  0  0  0  0  0  0  0  0  0  # atno 8008 bound_to 7997
  155.4156  140.0509  157.3046 H   0  0  0  0  0  0  0  0  0  0  0  0  # atno 8009 bound_to 7997
  154.4975  140.2116  155.9427 H   0  0  0  0  0  0  0  0  0  0  0  0  # atno 8010 bound_to 7997
  140.4143  144.1548  150.6142 H   0  0  0  0  0  0  0  0  0  0  0  0  # atno 10167 bound_to 10162
  156.0328  130.4368  150.2564 H   0  0  0  0  0  0  0  0  0  0  0  0  # atno 10718 bound_to 10713
  154.1556  135.6483  153.4973 H   0  0  0  0  0  0  0  0  0  0  0  0  # atno 10763 bound_to 10752
  153.0125  135.5348  154.6763 H   0  0  0  0  0  0  0  0  0  0  0  0  # atno 10764 bound_to 10752
  154.6063  135.2949  155.0453 H   0  0  0  0  0  0  0  0  0  0  0  0  # atno 10765 bound_to 10752
  139.8877  134.8545  156.3129 H   0  0  0  0  0  0  0  0  0  0  0  0  # atno 11005 bound_to 11000
  146.1960  139.5227  142.9774 LP  0  0  0  0  0  0  0  0  0  0  0  0  # atno 17320 bound_to 7965
  145.6150  141.0333  143.1946 LP  0  0  0  0  0  0  0  0  0  0  0  0  # atno 17321 bound_to 7965
  140.4603  143.2451  151.9229 LP  0  0  0  0  0  0  0  0  0  0  0  0  # atno 17342 bound_to 10162
  139.4782  144.5474  151.8438 LP  0  0  0  0  0  0  0  0  0  0  0  0  # atno 17343 bound_to 10162
  157.0665  131.0105  151.3205 LP  0  0  0  0  0  0  0  0  0  0  0  0  # atno 17370 bound_to 10713
  157.5031  130.7892  149.7626 LP  0  0  0  0  0  0  0  0  0  0  0  0  # atno 17371 bound_to 10713
  140.9838  133.7251  156.0711 LP  0  0  0  0  0  0  0  0  0  0  0  0  # atno 17394 bound_to 11000
  140.7714  134.3828  157.5507 LP  0  0  0  0  0  0  0  0  0  0  0  0  # atno 17395 bound_to 11000

$$$$
