AV-unprocessed.smi:2886|AV-procd|sdf|11089|dock4
  -GOLD-   2272015563D 1   1.00000     0.00000
 Structure written by MMmdl.
 28 30  0  0  0  0  0  0  0  0  1 V2000
  150.9540  137.9638  154.0142 O   0  0  0  0  0  0  0  0  0  0  0  0
  150.6328  139.0690  154.4465 C   0  0  0  0  0  0  0  0  0  0  0  0
  149.8135  139.8901  153.7485 N   0  0  0  0  0  0  0  0  0  0  0  0
  149.3813  141.1357  154.1337 N   0  0  0  0  0  0  0  0  0  0  0  0
  149.7855  141.6026  155.2654 C   0  0  0  0  0  0  0  0  0  0  0  0
  150.6850  140.8677  156.1487 C   0  0  0  0  0  0  0  0  0  0  0  0
  151.1192  141.3715  157.3680 N   0  0  0  0  0  0  0  0  0  0  0  0
  150.7989  142.6486  157.9914 C   0  0  2  0  0  0  0  0  0  0  0  0
  151.5562  143.8245  157.3732 C   0  0  0  0  0  0  0  0  0  0  0  0
  152.2068  144.4581  158.6116 C   0  0  2  0  0  0  0  0  0  0  0  0
  153.3963  143.6267  159.1091 C   0  0  0  0  0  0  0  0  0  0  0  0
  152.6947  142.4154  159.7207 C   0  0  0  0  0  0  0  0  0  0  0  0
  151.2134  142.7448  159.4696 C   0  0  1  0  0  0  0  0  0  0  0  0
  151.2463  144.1553  159.6107 O   0  0  0  0  0  0  0  0  0  0  0  0
  151.0754  139.6319  155.7297 C   0  0  0  0  0  0  0  0  0  0  0  0
  152.1299  138.6653  156.7063 Cl  0  0  0  0  0  0  0  0  0  0  0  0
  149.4597  139.5879  152.8521 H   0  0  0  0  0  0  0  0  0  0  0  0
  149.4607  142.5814  155.6161 H   0  0  0  0  0  0  0  0  0  0  0  0
  151.8547  140.8546  157.8294 H   0  0  0  0  0  0  0  0  0  0  0  0
  149.7321  142.8527  157.9008 H   0  0  0  0  0  0  0  0  0  0  0  0
  152.2969  143.5278  156.6292 H   0  0  0  0  0  0  0  0  0  0  0  0
  150.8598  144.5170  156.8996 H   0  0  0  0  0  0  0  0  0  0  0  0
  152.4250  145.5208  158.5027 H   0  0  0  0  0  0  0  0  0  0  0  0
  154.0824  143.3588  158.3050 H   0  0  0  0  0  0  0  0  0  0  0  0
  153.9574  144.1682  159.8716 H   0  0  0  0  0  0  0  0  0  0  0  0
  153.0056  141.4714  159.2725 H   0  0  0  0  0  0  0  0  0  0  0  0
  152.8984  142.3614  160.7906 H   0  0  0  0  0  0  0  0  0  0  0  0
  150.5276  142.2416  160.1519 H   0  0  0  0  0  0  0  0  0  0  0  0
  1  2  2  0  0  0  0
  2 15  1  0  0  0  0
  2  3  1  0  0  0  0
  3 17  1  0  0  0  0
  3  4  1  0  0  0  0
  4  5  2  0  0  0  0
  5  6  1  0  0  0  0
  5 18  1  0  0  0  0
  6  7  1  0  0  0  0
  6 15  2  0  0  0  0
  7  8  1  0  0  0  0
  7 19  1  0  0  0  0
  8 13  1  0  0  0  0
  8  9  1  0  0  0  0
  8 20  1  0  0  0  0
  9 10  1  0  0  0  0
  9 21  1  0  0  0  0
  9 22  1  0  0  0  0
 10 14  1  0  0  0  0
 10 11  1  0  0  0  0
 10 23  1  0  0  0  0
 11 12  1  0  0  0  0
 11 24  1  0  0  0  0
 11 25  1  0  0  0  0
 12 13  1  0  0  0  0
 12 26  1  0  0  0  0
 12 27  1  0  0  0  0
 13 14  1  0  0  0  0
 13 28  1  0  0  0  0
 15 16  1  0  0  0  0
M  END
> <s_m_source_file>
AV-unprocessed.smi

> <i_m_source_file_index>
2886

> <i_lp_mmshare_version>
43012

> <i_f3d_flags>
0

> <s_epik_input>
Tz1jMVtuSF1uW2NIXWMoYzFDbClbTkhdW0NASF0oW0NIMl1bQ0BASF0yMylbQ0BASF0oTzMpW0NIMl1bQ0gyXTI=

> <s_epik_cmdline>
J2VwaWtfcHl0aG9uJywgJy1waCcsICc3LjAnLCAnLXRuJywgJzgnLCAnLW1hJywgJzIwMCcsICctbWV0YWxfYmluZGluZycsICctaW1hZScsICc8aW5maWxlLm1hZT4nLCAnLW9tYWUnLCAnPG91dGZpbGUubWFlPic=

> <r_lp_tautomer_probability>
0.986175

> <r_epik_Ionization_Penalty>
0.000975594

> <r_epik_Ionization_Penalty_Charging>
0.000940184

> <r_epik_Ionization_Penalty_Neutral>
3.54099e-05

> <r_epik_State_Penalty>
0.00620319

> <r_epik_Charging_Adjusted_Penalty>
0.00714337

> <i_epik_Tot_Q>
0

> <i_epik_Tot_abs_Q>
0

> <r_epik_Metal_State_Penalty>
0.287699

> <b_epik_Metal_Only>
0

> <s_lp_Force_Field>
OPLS_2005

> <r_lp_Energy>
55.2825

> <b_lp_Chiralities_Consistent>
1

> <s_lp_Variant>
AV-unprocessed.smi:2886-3

> <Gold.Version>
5.8.1

> <Gold.Id.Protein>
6NUR|6NUR_protein|mol2

> <Gold.PLP.Fitness>
39.1297

> <Gold.PLP.PLP>
-32.4581

> <Gold.PLP.part.hbond>
-3.0000

> <Gold.PLP.part.metal>
0.0000

> <Gold.PLP.part.buried>
-4.7337

> <Gold.PLP.part.nonpolar>
-27.0979

> <Gold.PLP.part.repulsive>
2.5549

> <Gold.PLP.ligand.clash>
0.0000

> <Gold.PLP.ligand.torsion>
0.1772

> <Gold.PLP.Chemscore.Hbond>
1.3390

> <Gold.PLP.Chemscore.CHOScore>
1.0000

> <Gold.PLP.Chemscore.Metal>
0.0000

> <Gold.Chemscore.Hbonds>
donor molecule, donor type, donor heavy atom, donor atom, acceptor molecule, acceptor atom, score
      L1  H     3    17       P1  7957  0.77
      P1  H  8011  8017       L1     4  0.36
      L1  C     5    18       P1  8028  1.00

> <Gold.PLP.Chemscore.Internal.Correction>
0.0090

> <Gold.Rescore>
     Score         DG    S(hbond)    S(metal)    S(lipo)     H(rot)  DE(clash)    DE(int)     intcor
     16.16     -17.99       1.14        0.00      96.17       1.00       1.58       0.25       ----

> <Gold.Chemscore.Fitness>
16.1589

> <Gold.Chemscore.DG>
-17.9899

> <Gold.Chemscore.ZeroCoef>
-5.4800

> <Gold.Chemscore.Hbond>
1.1431

> <Gold.Chemscore.Metal>
0.0000

> <Gold.Chemscore.Lipo>
96.1690

> <Gold.Chemscore.Internal_Hbond>
0.0000

> <Gold.Chemscore.DEClash>
1.5821

> <Gold.Chemscore.DEInternal>
0.2489

> <Gold.Chemscore.Rot>
1.0000

> <Gold.Chemscore.Internal.Correction>
   9.000000E+99

> <Gold.Chemscore.Hbonds>
donor molecule, donor type, donor heavy atom, donor atom, acceptor molecule, acceptor atom, score
      L1  H     3    17       P1  7957  0.78
      P1  H  8011  8017       L1     4  0.15

> <Gold.Chemscore.Hbond.Weighted>
-3.8181

> <Gold.Chemscore.Metal.Weighted>
-0.0000

> <Gold.Chemscore.Lipo.Weighted>
-11.2518

> <Gold.Chemscore.Internal_Hbond.Weighted>
0.0000

> <Gold.Chemscore.DEClash.Weighted>
1.5821

> <Gold.Chemscore.DEInternal.Weighted>
0.2489

> <Gold.Chemscore.Rot.Weighted>
2.5600

> <Gold.Chemscore.Internal.Correction.Weighted>
   9.000000E+99

> <Gold.Protein.RotatedTorsions>
[ 6907 6896 6895 6894 ] final  -40.12 input  -60.11 | X-H torsion
[ 7974 7965 7964 7962 ] final   33.90 input  175.53 | X-H torsion
[ 8008 7997 7996 7995 ] final   63.48 input   59.86 | X-H torsion
[ 10167 10162 10161 10158 ] final  -61.02 input  -65.29 | X-H torsion
[ 10718 10713 10712 10709 ] final  101.31 input   66.30 | X-H torsion
[ 10763 10752 10751 10750 ] final  143.67 input  -60.55 | X-H torsion
[ 11005 11000 10999 10996 ] final -168.63 input  -57.11 | X-H torsion

> <Gold.Protein.ActiveResidues>
 VAL166  LYS551  ARG553  GLY616  TRP617  ASP618  TYR619  PRO620  LYS621  CYS622 
 ASP623  PHE694  ASN695  SER759  ASP760  ASP761  ALA762  ILE779  LEU786  VAL792 
 PHE793  MET794  SER795  GLU796  ALA797  LYS798  CYS799  TRP800  GLU811  SER814 

> <Gold.Protein.RotatedAtoms>
  150.9822  134.9174  159.7850 H   0  0  0  0  0  0  0  0  0  0  0  0  # atno 6907 bound_to 6896
  152.5225  134.3395  159.9222 H   0  0  0  0  0  0  0  0  0  0  0  0  # atno 6908 bound_to 6896
  151.3402  133.3924  159.2705 H   0  0  0  0  0  0  0  0  0  0  0  0  # atno 6909 bound_to 6896
  146.1389  139.6337  142.9176 H   0  0  0  0  0  0  0  0  0  0  0  0  # atno 7974 bound_to 7965
  155.6308  140.3496  155.4682 H   0  0  0  0  0  0  0  0  0  0  0  0  # atno 8008 bound_to 7997
  156.0004  140.1212  157.0576 H   0  0  0  0  0  0  0  0  0  0  0  0  # atno 8009 bound_to 7997
  154.4247  140.1101  156.5675 H   0  0  0  0  0  0  0  0  0  0  0  0  # atno 8010 bound_to 7997
  140.6033  143.2367  151.5879 H   0  0  0  0  0  0  0  0  0  0  0  0  # atno 10167 bound_to 10162
  157.6832  131.0723  150.5233 H   0  0  0  0  0  0  0  0  0  0  0  0  # atno 10718 bound_to 10713
  153.9762  135.2946  155.3424 H   0  0  0  0  0  0  0  0  0  0  0  0  # atno 10763 bound_to 10752
  154.7295  135.5074  153.8943 H   0  0  0  0  0  0  0  0  0  0  0  0  # atno 10764 bound_to 10752
  153.0876  135.6698  154.0031 H   0  0  0  0  0  0  0  0  0  0  0  0  # atno 10765 bound_to 10752
  140.5399  134.5533  157.5097 H   0  0  0  0  0  0  0  0  0  0  0  0  # atno 11005 bound_to 11000
  145.5092  141.0436  143.2497 LP  0  0  0  0  0  0  0  0  0  0  0  0  # atno 17320 bound_to 7965
  144.7770  139.6608  143.7170 LP  0  0  0  0  0  0  0  0  0  0  0  0  # atno 17321 bound_to 7965
  139.5307  144.2926  152.1140 LP  0  0  0  0  0  0  0  0  0  0  0  0  # atno 17342 bound_to 10162
  140.2111  144.4562  150.6385 LP  0  0  0  0  0  0  0  0  0  0  0  0  # atno 17343 bound_to 10162
  156.5546  130.4240  149.6091 LP  0  0  0  0  0  0  0  0  0  0  0  0  # atno 17370 bound_to 10713
  156.2873  130.7104  151.1944 LP  0  0  0  0  0  0  0  0  0  0  0  0  # atno 17371 bound_to 10713
  139.9509  134.7618  156.0450 LP  0  0  0  0  0  0  0  0  0  0  0  0  # atno 17394 bound_to 11000
  141.1233  133.6606  156.3271 LP  0  0  0  0  0  0  0  0  0  0  0  0  # atno 17395 bound_to 11000

$$$$
