AV-unprocessed.smi:2276|AV-procd|sdf|9176|dock2
  -GOLD-   2272012393D 1   1.00000     0.00000
 Structure written by MMmdl.
 52 53  0  0  0  0  0  0  0  0  1 V2000
  148.3608  130.5184  153.4248 C   0  0  0  0  0  0  0  0  0  0  0  0
  149.2318  131.4716  154.2157 C   0  0  0  0  0  0  0  0  0  0  0  0
  150.1028  130.9957  155.2147 C   0  0  0  0  0  0  0  0  0  0  0  0
  150.8860  131.9338  155.9154 C   0  0  0  0  0  0  0  0  0  0  0  0
  151.8521  131.4917  156.9943 C   0  0  0  0  0  0  0  0  0  0  0  0
  150.8386  133.2608  155.6722 N   0  0  0  0  0  0  0  0  0  0  0  0
  150.0040  133.7306  154.7123 C   0  0  0  0  0  0  0  0  0  0  0  0
  149.8909  135.1047  154.3722 N   0  0  0  0  0  0  0  0  0  0  0  0
  150.5427  136.1493  154.9127 C   0  0  0  0  0  0  0  0  0  0  0  0
  151.3113  136.0903  155.8732 O   0  0  0  0  0  0  0  0  0  0  0  0
  150.2487  137.2892  154.2706 N   0  0  0  0  0  0  0  0  0  0  0  0
  150.8063  138.6018  154.5859 C   0  0  0  0  0  0  0  0  0  0  0  0
  149.7537  139.5892  155.1384 C   0  0  2  0  0  0  0  0  0  0  0  0
  148.5729  139.7018  154.1606 C   0  0  0  0  0  0  0  0  0  0  0  0
  150.3657  140.9793  155.4371 C   0  0  0  0  0  0  0  0  0  0  0  0
  150.6292  141.2681  156.8475 N   0  0  0  0  0  0  0  0  0  0  0  0
  151.0212  142.6671  157.0271 C   0  0  0  0  0  0  0  0  0  0  0  0
  151.2857  142.9997  158.5074 C   0  0  0  0  0  0  0  0  0  0  0  0
  152.3385  142.1519  159.0614 N   0  0  0  0  0  0  0  0  0  0  0  0
  152.5995  142.4651  160.4578 C   0  0  0  0  0  0  0  0  0  0  0  0
  151.9578  140.7521  158.8873 C   0  0  0  0  0  0  0  0  0  0  0  0
  151.6877  140.4203  157.4077 C   0  0  0  0  0  0  0  0  0  0  0  0
  149.1843  132.8574  153.9627 C   0  0  0  0  0  0  0  0  0  0  0  0
  148.5963  129.4799  153.6586 H   0  0  0  0  0  0  0  0  0  0  0  0
  148.5080  130.6680  152.3548 H   0  0  0  0  0  0  0  0  0  0  0  0
  147.3093  130.6911  153.6551 H   0  0  0  0  0  0  0  0  0  0  0  0
  150.1707  129.9406  155.4368 H   0  0  0  0  0  0  0  0  0  0  0  0
  151.6591  130.4629  157.2990 H   0  0  0  0  0  0  0  0  0  0  0  0
  151.7624  132.1288  157.8749 H   0  0  0  0  0  0  0  0  0  0  0  0
  152.8772  131.5542  156.6287 H   0  0  0  0  0  0  0  0  0  0  0  0
  149.2621  135.3125  153.6110 H   0  0  0  0  0  0  0  0  0  0  0  0
  149.6020  137.2459  153.4968 H   0  0  0  0  0  0  0  0  0  0  0  0
  151.6029  138.4605  155.3170 H   0  0  0  0  0  0  0  0  0  0  0  0
  151.2800  139.0123  153.6925 H   0  0  0  0  0  0  0  0  0  0  0  0
  149.3682  139.1584  156.0611 H   0  0  0  0  0  0  0  0  0  0  0  0
  148.8884  140.1195  153.2040 H   0  0  0  0  0  0  0  0  0  0  0  0
  147.7861  140.3420  154.5603 H   0  0  0  0  0  0  0  0  0  0  0  0
  148.1290  138.7249  153.9675 H   0  0  0  0  0  0  0  0  0  0  0  0
  151.2941  141.1045  154.8787 H   0  0  0  0  0  0  0  0  0  0  0  0
  149.6834  141.7326  155.0409 H   0  0  0  0  0  0  0  0  0  0  0  0
  151.9142  142.8839  156.4383 H   0  0  0  0  0  0  0  0  0  0  0  0
  150.2343  143.3212  156.6506 H   0  0  0  0  0  0  0  0  0  0  0  0
  151.5723  144.0481  158.5962 H   0  0  0  0  0  0  0  0  0  0  0  0
  150.3652  142.8778  159.0805 H   0  0  0  0  0  0  0  0  0  0  0  0
  153.4028  141.8405  160.8497 H   0  0  0  0  0  0  0  0  0  0  0  0
  151.7125  142.3023  161.0714 H   0  0  0  0  0  0  0  0  0  0  0  0
  152.9042  143.5060  160.5690 H   0  0  0  0  0  0  0  0  0  0  0  0
  152.7516  140.1055  159.2624 H   0  0  0  0  0  0  0  0  0  0  0  0
  151.0686  140.5297  159.4793 H   0  0  0  0  0  0  0  0  0  0  0  0
  151.4098  139.3696  157.3406 H   0  0  0  0  0  0  0  0  0  0  0  0
  152.6069  140.5374  156.8313 H   0  0  0  0  0  0  0  0  0  0  0  0
  148.5250  133.2438  153.1986 H   0  0  0  0  0  0  0  0  0  0  0  0
  1  2  1  0  0  0  0
  1 24  1  0  0  0  0
  1 25  1  0  0  0  0
  1 26  1  0  0  0  0
  2 23  1  0  0  0  0
  2  3  2  0  0  0  0
  3  4  1  0  0  0  0
  3 27  1  0  0  0  0
  4  5  1  0  0  0  0
  4  6  2  0  0  0  0
  5 28  1  0  0  0  0
  5 29  1  0  0  0  0
  5 30  1  0  0  0  0
  6  7  1  0  0  0  0
  7  8  1  0  0  0  0
  7 23  2  0  0  0  0
  8  9  1  0  0  0  0
  8 31  1  0  0  0  0
  9 10  2  0  0  0  0
  9 11  1  0  0  0  0
 11 12  1  0  0  0  0
 11 32  1  0  0  0  0
 12 13  1  0  0  0  0
 12 33  1  0  0  0  0
 12 34  1  0  0  0  0
 13 14  1  0  0  0  0
 13 15  1  0  0  0  0
 13 35  1  0  0  0  0
 14 36  1  0  0  0  0
 14 37  1  0  0  0  0
 14 38  1  0  0  0  0
 15 16  1  0  0  0  0
 15 39  1  0  0  0  0
 15 40  1  0  0  0  0
 16 22  1  0  0  0  0
 16 17  1  0  0  0  0
 17 18  1  0  0  0  0
 17 41  1  0  0  0  0
 17 42  1  0  0  0  0
 18 19  1  0  0  0  0
 18 43  1  0  0  0  0
 18 44  1  0  0  0  0
 19 20  1  0  0  0  0
 19 21  1  0  0  0  0
 20 45  1  0  0  0  0
 20 46  1  0  0  0  0
 20 47  1  0  0  0  0
 21 22  1  0  0  0  0
 21 48  1  0  0  0  0
 21 49  1  0  0  0  0
 22 50  1  0  0  0  0
 22 51  1  0  0  0  0
 23 52  1  0  0  0  0
M  END
> <s_m_source_file>
AV-unprocessed.smi

> <i_m_source_file_index>
2276

> <i_lp_mmshare_version>
43012

> <i_f3d_flags>
0

> <s_epik_input>
W0NIM11jMVtjSF1jKFtDSDNdKW5jKFtjSF0xKVtOSF1DKD1PKVtOSF1bQ0gyXVtDQEhdKFtDSDNdKVtDSDJdTjJbQ0gyXVtDSDJdTihbQ0gzXSlbQ0gyXVtDSDJdMg==

> <s_epik_cmdline>
J2VwaWtfcHl0aG9uJywgJy1waCcsICc3LjAnLCAnLXRuJywgJzgnLCAnLW1hJywgJzIwMCcsICctbWV0YWxfYmluZGluZycsICctaW1hZScsICc8aW5maWxlLm1hZT4nLCAnLW9tYWUnLCAnPG91dGZpbGUubWFlPic=

> <r_epik_Ionization_Penalty>
3.46991

> <r_epik_Ionization_Penalty_Charging>
0

> <r_epik_Ionization_Penalty_Neutral>
3.46991

> <r_epik_State_Penalty>
2.28006

> <r_epik_Charging_Adjusted_Penalty>
2.28006

> <i_epik_Tot_Q>
0

> <i_epik_Tot_abs_Q>
0

> <r_epik_Metal_State_Penalty>
2.28005

> <b_epik_Metal_Only>
0

> <s_lp_Force_Field>
OPLS_2005

> <r_lp_Energy>
36.9952

> <b_lp_Chiralities_Consistent>
1

> <s_lp_Variant>
AV-unprocessed.smi:2276-5

> <Gold.Version>
5.8.1

> <Gold.Id.Protein>
6NUR|6NUR_protein|mol2

> <Gold.PLP.Fitness>
49.1993

> <Gold.PLP.PLP>
-41.8034

> <Gold.PLP.part.hbond>
-3.7311

> <Gold.PLP.part.metal>
0.0000

> <Gold.PLP.part.buried>
-3.3607

> <Gold.PLP.part.nonpolar>
-34.4940

> <Gold.PLP.part.repulsive>
0.2048

> <Gold.PLP.ligand.clash>
0.0000

> <Gold.PLP.ligand.torsion>
0.6937

> <Gold.PLP.Chemscore.Hbond>
2.9040

> <Gold.PLP.Chemscore.CHOScore>
0.0000

> <Gold.PLP.Chemscore.Metal>
0.0000

> <Gold.Chemscore.Hbonds>
donor molecule, donor type, donor heavy atom, donor atom, acceptor molecule, acceptor atom, score
      L1  H     8    31       P1  7948  0.94
      L1  H    11    32       P1  7948  0.93
      P1  H 10752 10763       L1    10  0.83

> <Gold.PLP.Chemscore.Internal.Correction>
0.0714

> <Gold.Rescore>
     Score         DG    S(hbond)    S(metal)    S(lipo)     H(rot)  DE(clash)    DE(int)     intcor
     17.52     -19.54       1.83        0.00     102.25       1.57       0.03       1.99       ----

> <Gold.Chemscore.Fitness>
17.5194

> <Gold.Chemscore.DG>
-19.5354

> <Gold.Chemscore.ZeroCoef>
-5.4800

> <Gold.Chemscore.Hbond>
1.8311

> <Gold.Chemscore.Metal>
0.0000

> <Gold.Chemscore.Lipo>
102.2454

> <Gold.Chemscore.Internal_Hbond>
0.0000

> <Gold.Chemscore.DEClash>
0.0273

> <Gold.Chemscore.DEInternal>
1.9887

> <Gold.Chemscore.Rot>
1.5715

> <Gold.Chemscore.Internal.Correction>
   9.000000E+99

> <Gold.Chemscore.Hbonds>
donor molecule, donor type, donor heavy atom, donor atom, acceptor molecule, acceptor atom, score
      L1  H     8    31       P1  7948  0.27
      L1  H    11    32       P1  7948  0.72
      P1  H 10752 10763       L1    10  0.37

> <Gold.Chemscore.Hbond.Weighted>
-6.1158

> <Gold.Chemscore.Metal.Weighted>
-0.0000

> <Gold.Chemscore.Lipo.Weighted>
-11.9627

> <Gold.Chemscore.Internal_Hbond.Weighted>
0.0000

> <Gold.Chemscore.DEClash.Weighted>
0.0273

> <Gold.Chemscore.DEInternal.Weighted>
1.9887

> <Gold.Chemscore.Rot.Weighted>
4.0231

> <Gold.Chemscore.Internal.Correction.Weighted>
   9.000000E+99

> <Gold.Protein.RotatedTorsions>
[ 6907 6896 6895 6894 ] final   83.48 input  -60.11 | X-H torsion
[ 7974 7965 7964 7962 ] final  102.64 input  175.53 | X-H torsion
[ 8008 7997 7996 7995 ] final  -20.52 input   59.86 | X-H torsion
[ 10167 10162 10161 10158 ] final -154.07 input  -65.29 | X-H torsion
[ 10718 10713 10712 10709 ] final    0.89 input   66.30 | X-H torsion
[ 10763 10752 10751 10750 ] final   90.10 input  -60.55 | X-H torsion
[ 11005 11000 10999 10996 ] final  -30.53 input  -57.11 | X-H torsion

> <Gold.Protein.ActiveResidues>
 VAL166  LYS551  ARG553  GLY616  TRP617  ASP618  TYR619  PRO620  LYS621  CYS622 
 ASP623  PHE694  ASN695  SER759  ASP760  ASP761  ALA762  ILE779  LEU786  VAL792 
 PHE793  MET794  SER795  GLU796  ALA797  LYS798  CYS799  TRP800  GLU811  SER814 

> <Gold.Protein.RotatedAtoms>
  152.5328  134.2889  159.9035 H   0  0  0  0  0  0  0  0  0  0  0  0  # atno 6907 bound_to 6896
  151.2842  133.4189  159.2636 H   0  0  0  0  0  0  0  0  0  0  0  0  # atno 6908 bound_to 6896
  151.0257  134.9518  159.8141 H   0  0  0  0  0  0  0  0  0  0  0  0  # atno 6909 bound_to 6896
  145.3564  139.2427  143.3530 H   0  0  0  0  0  0  0  0  0  0  0  0  # atno 7974 bound_to 7965
  154.4764  140.2059  155.9868 H   0  0  0  0  0  0  0  0  0  0  0  0  # atno 8008 bound_to 7997
  156.1096  140.3231  155.8024 H   0  0  0  0  0  0  0  0  0  0  0  0  # atno 8009 bound_to 7997
  155.4658  140.0527  157.2976 H   0  0  0  0  0  0  0  0  0  0  0  0  # atno 8010 bound_to 7997
  139.7044  143.9210  152.2442 H   0  0  0  0  0  0  0  0  0  0  0  0  # atno 10167 bound_to 10162
  156.8401  130.5518  149.5678 H   0  0  0  0  0  0  0  0  0  0  0  0  # atno 10718 bound_to 10713
  153.1940  135.4446  155.0185 H   0  0  0  0  0  0  0  0  0  0  0  0  # atno 10763 bound_to 10752
  154.8108  135.3293  154.7314 H   0  0  0  0  0  0  0  0  0  0  0  0  # atno 10764 bound_to 10752
  153.7765  135.6981  153.4952 H   0  0  0  0  0  0  0  0  0  0  0  0  # atno 10765 bound_to 10752
  140.9391  133.7290  156.1048 H   0  0  0  0  0  0  0  0  0  0  0  0  # atno 11005 bound_to 11000
  146.2946  140.4190  142.8726 LP  0  0  0  0  0  0  0  0  0  0  0  0  # atno 17320 bound_to 7965
  144.8679  140.7231  143.6066 LP  0  0  0  0  0  0  0  0  0  0  0  0  # atno 17321 bound_to 7965
  139.9062  144.6883  150.8611 LP  0  0  0  0  0  0  0  0  0  0  0  0  # atno 17342 bound_to 10162
  140.7718  143.3477  151.2078 LP  0  0  0  0  0  0  0  0  0  0  0  0  # atno 17343 bound_to 10162
  156.0885  130.5877  150.9691 LP  0  0  0  0  0  0  0  0  0  0  0  0  # atno 17370 bound_to 10713
  157.6360  131.0916  150.8347 LP  0  0  0  0  0  0  0  0  0  0  0  0  # atno 17371 bound_to 10713
  140.7759  134.3780  157.5498 LP  0  0  0  0  0  0  0  0  0  0  0  0  # atno 17394 bound_to 11000
  139.8815  134.9051  156.2893 LP  0  0  0  0  0  0  0  0  0  0  0  0  # atno 17395 bound_to 11000

$$$$
