AV-unprocessed.smi:3351|AV-procd|sdf|12950|dock2
  -GOLD-   2272019383D 1   1.00000     0.00000
 Structure written by MMmdl.
 34 35  0  0  0  0  0  0  0  0  1 V2000
  147.0495  142.1315  154.1519 C   0  0  0  0  0  0  0  0  0  0  0  0
  148.0200  141.2273  154.9294 C   0  0  1  0  0  0  0  0  0  0  0  0
  148.5818  140.0668  154.0799 C   0  0  0  0  0  0  0  0  0  0  0  0
  147.5437  139.1925  153.5675 N   0  0  0  0  0  0  0  0  0  0  0  0
  147.1502  139.0490  152.2437 C   0  0  0  0  0  0  0  0  0  0  0  0
  146.1361  138.1180  152.2337 C   0  0  0  0  0  0  0  0  0  0  0  0
  145.8871  137.6821  153.5331 N   0  0  0  0  0  0  0  0  0  0  0  0
  146.7562  138.3642  154.2676 C   0  0  0  0  0  0  0  0  0  0  0  0
  149.1124  142.0406  155.4561 N   0  0  0  0  0  0  0  0  0  0  0  0
  150.1313  141.5852  156.2012 C   0  0  0  0  0  0  0  0  0  0  0  0
  150.2677  140.3999  156.5070 O   0  0  0  0  0  0  0  0  0  0  0  0
  151.1642  142.6304  156.6408 C   0  0  0  0  0  0  0  0  0  0  0  0
  151.8050  142.2988  157.9147 N   0  0  0  0  0  0  0  0  0  0  0  0
  151.8499  143.2999  158.9733 C   0  0  0  0  0  0  0  0  0  0  0  0
  152.2407  142.5931  160.2727 C   0  0  0  0  0  0  0  0  0  0  0  0
  153.1102  141.0761  159.8306 S   0  0  0  0  0  0  0  0  0  0  0  0
  152.4570  141.0970  158.1582 C   0  0  0  0  0  0  0  0  0  0  0  0
  152.6009  140.1518  157.3848 O   0  0  0  0  0  0  0  0  0  0  0  0
  146.1660  141.5827  153.8253 H   0  0  0  0  0  0  0  0  0  0  0  0
  147.5250  142.5548  153.2668 H   0  0  0  0  0  0  0  0  0  0  0  0
  146.7034  142.9589  154.7722 H   0  0  0  0  0  0  0  0  0  0  0  0
  147.4660  140.8065  155.7709 H   0  0  0  0  0  0  0  0  0  0  0  0
  149.1539  140.4578  153.2371 H   0  0  0  0  0  0  0  0  0  0  0  0
  149.2701  139.4595  154.6692 H   0  0  0  0  0  0  0  0  0  0  0  0
  147.6130  139.6044  151.4410 H   0  0  0  0  0  0  0  0  0  0  0  0
  145.5700  137.7328  151.3987 H   0  0  0  0  0  0  0  0  0  0  0  0
  146.8242  138.2552  155.3402 H   0  0  0  0  0  0  0  0  0  0  0  0
  149.0832  143.0288  155.2498 H   0  0  0  0  0  0  0  0  0  0  0  0
  151.9180  142.7187  155.8575 H   0  0  0  0  0  0  0  0  0  0  0  0
  150.6892  143.6097  156.7219 H   0  0  0  0  0  0  0  0  0  0  0  0
  152.6007  144.0456  158.7090 H   0  0  0  0  0  0  0  0  0  0  0  0
  150.8950  143.8159  159.0798 H   0  0  0  0  0  0  0  0  0  0  0  0
  152.8515  143.2246  160.9180 H   0  0  0  0  0  0  0  0  0  0  0  0
  151.3447  142.3159  160.8292 H   0  0  0  0  0  0  0  0  0  0  0  0
  1  2  1  0  0  0  0
  1 19  1  0  0  0  0
  1 20  1  0  0  0  0
  1 21  1  0  0  0  0
  2  3  1  0  0  0  0
  2  9  1  0  0  0  0
  2 22  1  0  0  0  0
  3  4  1  0  0  0  0
  3 23  1  0  0  0  0
  3 24  1  0  0  0  0
  4  8  1  0  0  0  0
  4  5  1  0  0  0  0
  5  6  2  0  0  0  0
  5 25  1  0  0  0  0
  6  7  1  0  0  0  0
  6 26  1  0  0  0  0
  7  8  2  0  0  0  0
  8 27  1  0  0  0  0
  9 10  1  0  0  0  0
  9 28  1  0  0  0  0
 10 11  2  0  0  0  0
 10 12  1  0  0  0  0
 12 13  1  0  0  0  0
 12 29  1  0  0  0  0
 12 30  1  0  0  0  0
 13 17  1  0  0  0  0
 13 14  1  0  0  0  0
 14 15  1  0  0  0  0
 14 31  1  0  0  0  0
 14 32  1  0  0  0  0
 15 16  1  0  0  0  0
 15 33  1  0  0  0  0
 15 34  1  0  0  0  0
 16 17  1  0  0  0  0
 17 18  2  0  0  0  0
M  END
> <s_m_source_file>
AV-unprocessed.smi

> <i_m_source_file_index>
3351

> <i_lp_mmshare_version>
43012

> <i_f3d_flags>
0

> <s_epik_input>
W2NIXTFuW2NIXVtjSF1uMVtDSDJdW0NAQEhdKFtDSDNdKVtOSF1DKD1PKVtDSDJdTjJbQ0gyXVtDSDJdU0MyPU8=

> <s_epik_cmdline>
J2VwaWtfcHl0aG9uJywgJy1waCcsICc3LjAnLCAnLXRuJywgJzgnLCAnLW1hJywgJzIwMCcsICctbWV0YWxfYmluZGluZycsICctaW1hZScsICc8aW5maWxlLm1hZT4nLCAnLW9tYWUnLCAnPG91dGZpbGUubWFlPic=

> <r_lp_tautomer_probability>
1

> <r_epik_Ionization_Penalty>
0.618163

> <r_epik_Ionization_Penalty_Charging>
0.618163

> <r_epik_Ionization_Penalty_Neutral>
6.6929e-08

> <r_epik_State_Penalty>
0.633954

> <r_epik_Charging_Adjusted_Penalty>
1.25212

> <i_epik_Tot_Q>
0

> <i_epik_Tot_abs_Q>
0

> <r_epik_Metal_State_Penalty>
0.305924

> <b_epik_Metal_Only>
0

> <s_lp_Force_Field>
OPLS_2005

> <r_lp_Energy>
4.61171

> <b_lp_Chiralities_Consistent>
1

> <s_lp_Variant>
AV-unprocessed.smi:3351-4

> <Gold.Version>
5.8.1

> <Gold.Id.Protein>
6NUR|6NUR_protein|mol2

> <Gold.PLP.Fitness>
43.6787

> <Gold.PLP.PLP>
-32.6761

> <Gold.PLP.part.hbond>
-2.0000

> <Gold.PLP.part.metal>
0.0000

> <Gold.PLP.part.buried>
-2.2901

> <Gold.PLP.part.nonpolar>
-29.0260

> <Gold.PLP.part.repulsive>
0.3376

> <Gold.PLP.ligand.clash>
0.0000

> <Gold.PLP.ligand.torsion>
0.5060

> <Gold.PLP.Chemscore.Hbond>
1.9913

> <Gold.PLP.Chemscore.CHOScore>
2.0000

> <Gold.PLP.Chemscore.Metal>
0.0000

> <Gold.Chemscore.Hbonds>
donor molecule, donor type, donor heavy atom, donor atom, acceptor molecule, acceptor atom, score
      L1  H     9    28       P1  8028  1.00
      P1  H  7997  8008       L1    18  1.00
      L1  C     5    25       P1  7957  0.97
      L1  C     6    26       P1 10171  1.00

> <Gold.PLP.Chemscore.Internal.Correction>
0.0408

> <Gold.Rescore>
     Score         DG    S(hbond)    S(metal)    S(lipo)     H(rot)  DE(clash)    DE(int)     intcor
     10.92     -14.16       1.94        0.00      69.96       2.33       0.09       3.16       ----

> <Gold.Chemscore.Fitness>
10.9181

> <Gold.Chemscore.DG>
-14.1642

> <Gold.Chemscore.ZeroCoef>
-5.4800

> <Gold.Chemscore.Hbond>
1.9367

> <Gold.Chemscore.Metal>
0.0000

> <Gold.Chemscore.Lipo>
69.9570

> <Gold.Chemscore.Internal_Hbond>
0.0000

> <Gold.Chemscore.DEClash>
0.0853

> <Gold.Chemscore.DEInternal>
3.1607

> <Gold.Chemscore.Rot>
2.3317

> <Gold.Chemscore.Internal.Correction>
   9.000000E+99

> <Gold.Chemscore.Hbonds>
donor molecule, donor type, donor heavy atom, donor atom, acceptor molecule, acceptor atom, score
      L1  H     9    28       P1  8028  0.98
      P1  H  7997  8008       L1    18  0.72

> <Gold.Chemscore.Hbond.Weighted>
-6.4684

> <Gold.Chemscore.Metal.Weighted>
-0.0000

> <Gold.Chemscore.Lipo.Weighted>
-8.1850

> <Gold.Chemscore.Internal_Hbond.Weighted>
0.0000

> <Gold.Chemscore.DEClash.Weighted>
0.0853

> <Gold.Chemscore.DEInternal.Weighted>
3.1607

> <Gold.Chemscore.Rot.Weighted>
5.9692

> <Gold.Chemscore.Internal.Correction.Weighted>
   9.000000E+99

> <Gold.Protein.RotatedTorsions>
[ 6907 6896 6895 6894 ] final  -39.57 input  -60.11 | X-H torsion
[ 7974 7965 7964 7962 ] final   79.07 input  175.53 | X-H torsion
[ 8008 7997 7996 7995 ] final  -65.73 input   59.86 | X-H torsion
[ 10167 10162 10161 10158 ] final  123.83 input  -65.29 | X-H torsion
[ 10718 10713 10712 10709 ] final  129.81 input   66.30 | X-H torsion
[ 10763 10752 10751 10750 ] final -118.69 input  -60.55 | X-H torsion
[ 11005 11000 10999 10996 ] final -170.75 input  -57.11 | X-H torsion

> <Gold.Protein.ActiveResidues>
 VAL166  LYS551  ARG553  GLY616  TRP617  ASP618  TYR619  PRO620  LYS621  CYS622 
 ASP623  PHE694  ASN695  SER759  ASP760  ASP761  ALA762  ILE779  LEU786  VAL792 
 PHE793  MET794  SER795  GLU796  ALA797  LYS798  CYS799  TRP800  GLU811  SER814 

> <Gold.Protein.RotatedAtoms>
  150.9887  134.9227  159.7886 H   0  0  0  0  0  0  0  0  0  0  0  0  # atno 6907 bound_to 6896
  152.5244  134.3311  159.9193 H   0  0  0  0  0  0  0  0  0  0  0  0  # atno 6908 bound_to 6896
  151.3317  133.3957  159.2697 H   0  0  0  0  0  0  0  0  0  0  0  0  # atno 6909 bound_to 6896
  145.6690  139.2491  143.1879 H   0  0  0  0  0  0  0  0  0  0  0  0  # atno 7974 bound_to 7965
  154.4690  140.0927  156.7095 H   0  0  0  0  0  0  0  0  0  0  0  0  # atno 8008 bound_to 7997
  155.4777  140.3466  155.4317 H   0  0  0  0  0  0  0  0  0  0  0  0  # atno 8009 bound_to 7997
  156.1006  140.1421  156.9460 H   0  0  0  0  0  0  0  0  0  0  0  0  # atno 8010 bound_to 7997
  139.5776  144.6971  151.3612 H   0  0  0  0  0  0  0  0  0  0  0  0  # atno 10167 bound_to 10162
  157.5120  131.1097  150.9279 H   0  0  0  0  0  0  0  0  0  0  0  0  # atno 10718 bound_to 10713
  154.8595  135.4265  154.2179 H   0  0  0  0  0  0  0  0  0  0  0  0  # atno 10763 bound_to 10752
  153.3191  135.6981  153.7053 H   0  0  0  0  0  0  0  0  0  0  0  0  # atno 10764 bound_to 10752
  153.6115  135.3518  155.2954 H   0  0  0  0  0  0  0  0  0  0  0  0  # atno 10765 bound_to 10752
  140.5160  134.5755  157.5033 H   0  0  0  0  0  0  0  0  0  0  0  0  # atno 11005 bound_to 11000
  146.1061  140.7485  142.9525 LP  0  0  0  0  0  0  0  0  0  0  0  0  # atno 17320 bound_to 7965
  144.7063  140.3865  143.7115 LP  0  0  0  0  0  0  0  0  0  0  0  0  # atno 17321 bound_to 7965
  140.7058  143.7518  150.7479 LP  0  0  0  0  0  0  0  0  0  0  0  0  # atno 17342 bound_to 10162
  140.1042  143.4759  152.2407 LP  0  0  0  0  0  0  0  0  0  0  0  0  # atno 17343 bound_to 10162
  156.9916  130.5565  149.5304 LP  0  0  0  0  0  0  0  0  0  0  0  0  # atno 17370 bound_to 10713
  156.0295  130.5387  150.8497 LP  0  0  0  0  0  0  0  0  0  0  0  0  # atno 17371 bound_to 10713
  139.9632  134.7417  156.0193 LP  0  0  0  0  0  0  0  0  0  0  0  0  # atno 17394 bound_to 11000
  141.1360  133.6575  156.3595 LP  0  0  0  0  0  0  0  0  0  0  0  0  # atno 17395 bound_to 11000

$$$$
