AV-unprocessed.smi:2902|AV-procd|sdf|11158|dock1
  -GOLD-   2272016 43D 1   1.00000     0.00000
 Structure written by MMmdl.
 47 48  0  0  0  0  0  0  0  0  1 V2000
  152.3225  139.4252  159.2290 C   0  0  0  0  0  0  0  0  0  0  0  0
  151.4915  139.4493  157.9401 C   0  0  0  0  0  0  0  0  0  0  0  0
  150.8513  140.8232  157.6668 C   0  0  1  0  0  0  0  0  0  0  0  0
  151.8527  141.8221  157.8634 O   0  0  0  0  0  0  0  0  0  0  0  0
  151.4258  143.0367  158.4746 C   0  0  0  0  0  0  0  0  0  0  0  0
  151.8046  144.2750  157.6578 C   0  0  0  0  0  0  0  0  0  0  0  0
  151.8300  145.4186  158.6768 C   0  0  0  0  0  0  0  0  0  0  0  0
  152.0793  144.7661  160.0462 C   0  0  0  0  0  0  0  0  0  0  0  0
  152.1710  143.2575  159.7899 C   0  0  0  0  0  0  0  0  0  0  0  0
  150.2854  140.9021  156.2395 C   0  0  0  0  0  0  0  0  0  0  0  0
  150.9859  140.5940  155.2750 O   0  0  0  0  0  0  0  0  0  0  0  0
  149.0219  141.3405  156.1235 N   0  0  0  0  0  0  0  0  0  0  0  0
  148.3066  141.5503  154.8664 C   0  0  1  0  0  0  0  0  0  0  0  0
  148.2591  140.2291  154.0745 C   0  0  0  0  0  0  0  0  0  0  0  0
  146.9042  142.1482  155.1482 C   0  0  1  0  0  0  0  0  0  0  0  0
  146.1670  142.5916  153.8704 C   0  0  0  0  0  0  0  0  0  0  0  0
  146.0706  141.2261  155.9072 N   0  0  0  0  0  0  0  0  0  0  0  0
  144.8764  140.6980  155.6276 C   0  0  0  0  0  0  0  0  0  0  0  0
  144.4167  139.8832  156.5666 N   0  0  0  0  0  0  0  0  0  0  0  0
  145.4476  139.9604  157.4597 C   0  0  0  0  0  0  0  0  0  0  0  0
  146.4629  140.7518  157.1135 N   0  0  0  0  0  0  0  0  0  0  0  0
  152.7498  138.4363  159.3957 H   0  0  0  0  0  0  0  0  0  0  0  0
  151.7114  139.6742  160.0968 H   0  0  0  0  0  0  0  0  0  0  0  0
  153.1464  140.1380  159.1823 H   0  0  0  0  0  0  0  0  0  0  0  0
  152.1236  139.1572  157.1002 H   0  0  0  0  0  0  0  0  0  0  0  0
  150.7120  138.6896  158.0162 H   0  0  0  0  0  0  0  0  0  0  0  0
  150.0437  140.9764  158.3858 H   0  0  0  0  0  0  0  0  0  0  0  0
  150.3539  143.0349  158.6816 H   0  0  0  0  0  0  0  0  0  0  0  0
  152.8014  144.1425  157.2347 H   0  0  0  0  0  0  0  0  0  0  0  0
  151.1217  144.4709  156.8318 H   0  0  0  0  0  0  0  0  0  0  0  0
  152.5933  146.1565  158.4288 H   0  0  0  0  0  0  0  0  0  0  0  0
  150.8684  145.9330  158.6849 H   0  0  0  0  0  0  0  0  0  0  0  0
  152.9863  145.1436  160.5198 H   0  0  0  0  0  0  0  0  0  0  0  0
  151.2466  144.9842  160.7159 H   0  0  0  0  0  0  0  0  0  0  0  0
  151.7619  142.6651  160.6086 H   0  0  0  0  0  0  0  0  0  0  0  0
  153.2182  142.9752  159.6698 H   0  0  0  0  0  0  0  0  0  0  0  0
  148.5244  141.5698  156.9717 H   0  0  0  0  0  0  0  0  0  0  0  0
  148.8604  142.2768  154.2684 H   0  0  0  0  0  0  0  0  0  0  0  0
  147.8198  140.3660  153.0864 H   0  0  0  0  0  0  0  0  0  0  0  0
  147.6705  139.4755  154.5985 H   0  0  0  0  0  0  0  0  0  0  0  0
  149.2597  139.8224  153.9241 H   0  0  0  0  0  0  0  0  0  0  0  0
  147.0427  143.0393  155.7639 H   0  0  0  0  0  0  0  0  0  0  0  0
  146.7094  143.3772  153.3445 H   0  0  0  0  0  0  0  0  0  0  0  0
  145.1788  142.9871  154.1075 H   0  0  0  0  0  0  0  0  0  0  0  0
  146.0337  141.7592  153.1787 H   0  0  0  0  0  0  0  0  0  0  0  0
  144.3340  140.9129  154.7184 H   0  0  0  0  0  0  0  0  0  0  0  0
  145.4497  139.4174  158.3935 H   0  0  0  0  0  0  0  0  0  0  0  0
  1  2  1  0  0  0  0
  1 22  1  0  0  0  0
  1 23  1  0  0  0  0
  1 24  1  0  0  0  0
  2  3  1  0  0  0  0
  2 25  1  0  0  0  0
  2 26  1  0  0  0  0
  3  4  1  0  0  0  0
  3 10  1  0  0  0  0
  3 27  1  0  0  0  0
  4  5  1  0  0  0  0
  5  9  1  0  0  0  0
  5  6  1  0  0  0  0
  5 28  1  0  0  0  0
  6  7  1  0  0  0  0
  6 29  1  0  0  0  0
  6 30  1  0  0  0  0
  7  8  1  0  0  0  0
  7 31  1  0  0  0  0
  7 32  1  0  0  0  0
  8  9  1  0  0  0  0
  8 33  1  0  0  0  0
  8 34  1  0  0  0  0
  9 35  1  0  0  0  0
  9 36  1  0  0  0  0
 10 11  2  0  0  0  0
 10 12  1  0  0  0  0
 12 13  1  0  0  0  0
 12 37  1  0  0  0  0
 13 14  1  0  0  0  0
 13 15  1  0  0  0  0
 13 38  1  0  0  0  0
 14 39  1  0  0  0  0
 14 40  1  0  0  0  0
 14 41  1  0  0  0  0
 15 16  1  0  0  0  0
 15 17  1  0  0  0  0
 15 42  1  0  0  0  0
 16 43  1  0  0  0  0
 16 44  1  0  0  0  0
 16 45  1  0  0  0  0
 17 21  1  0  0  0  0
 17 18  1  0  0  0  0
 18 19  2  0  0  0  0
 18 46  1  0  0  0  0
 19 20  1  0  0  0  0
 20 21  2  0  0  0  0
 20 47  1  0  0  0  0
M  END
> <s_m_source_file>
AV-unprocessed.smi

> <i_m_source_file_index>
2902

> <i_lp_mmshare_version>
43012

> <i_f3d_flags>
0

> <s_epik_input>
W0NIMl0xW0NIMl1bQ0gyXVtDSDJdW0NIXTFPW0NAQEhdKFtDSDJdW0NIM10pQyg9TylbTkhdW0NASF0oW0NIM10pW0NASF0oW0NIM10pbjJbY0hdbltjSF1uMg==

> <s_epik_cmdline>
J2VwaWtfcHl0aG9uJywgJy1waCcsICc3LjAnLCAnLXRuJywgJzgnLCAnLW1hJywgJzIwMCcsICctbWV0YWxfYmluZGluZycsICctaW1hZScsICc8aW5maWxlLm1hZT4nLCAnLW9tYWUnLCAnPG91dGZpbGUubWFlPic=

> <r_lp_tautomer_probability>
1

> <r_epik_Ionization_Penalty>
6.95617e-05

> <r_epik_Ionization_Penalty_Charging>
0

> <r_epik_Ionization_Penalty_Neutral>
6.95617e-05

> <r_epik_State_Penalty>
-0

> <r_epik_Charging_Adjusted_Penalty>
0

> <i_epik_Tot_Q>
0

> <i_epik_Tot_abs_Q>
0

> <r_epik_Metal_State_Penalty>
-0

> <b_epik_Metal_Only>
0

> <s_lp_Force_Field>
OPLS_2005

> <r_lp_Energy>
30.3462

> <b_lp_Chiralities_Consistent>
1

> <s_lp_Variant>
AV-unprocessed.smi:2902-8

> <Gold.Version>
5.8.1

> <Gold.Id.Protein>
6NUR|6NUR_protein|mol2

> <Gold.PLP.Fitness>
42.1924

> <Gold.PLP.PLP>
-38.8719

> <Gold.PLP.part.hbond>
-1.0000

> <Gold.PLP.part.metal>
0.0000

> <Gold.PLP.part.buried>
-3.7219

> <Gold.PLP.part.nonpolar>
-34.2275

> <Gold.PLP.part.repulsive>
0.1321

> <Gold.PLP.ligand.clash>
0.0000

> <Gold.PLP.ligand.torsion>
1.5562

> <Gold.PLP.Chemscore.Hbond>
0.9120

> <Gold.PLP.Chemscore.CHOScore>
1.0000

> <Gold.PLP.Chemscore.Metal>
0.0000

> <Gold.Chemscore.Hbonds>
donor molecule, donor type, donor heavy atom, donor atom, acceptor molecule, acceptor atom, score
      P1  H  7989  7998       L1    11  0.93
      L1  C    18    46       P1 10175  1.00

> <Gold.PLP.Chemscore.Internal.Correction>
0.6969

> <Gold.Rescore>
     Score         DG    S(hbond)    S(metal)    S(lipo)     H(rot)  DE(clash)    DE(int)     intcor
     10.34     -13.25       0.95        0.00      98.17       2.69       0.11       2.81       ----

> <Gold.Chemscore.Fitness>
10.3365

> <Gold.Chemscore.DG>
-13.2547

> <Gold.Chemscore.ZeroCoef>
-5.4800

> <Gold.Chemscore.Hbond>
0.9533

> <Gold.Chemscore.Metal>
0.0000

> <Gold.Chemscore.Lipo>
98.1726

> <Gold.Chemscore.Internal_Hbond>
0.0000

> <Gold.Chemscore.DEClash>
0.1077

> <Gold.Chemscore.DEInternal>
2.8106

> <Gold.Chemscore.Rot>
2.6935

> <Gold.Chemscore.Internal.Correction>
   9.000000E+99

> <Gold.Chemscore.Hbonds>
donor molecule, donor type, donor heavy atom, donor atom, acceptor molecule, acceptor atom, score
      P1  H  7989  7998       L1    11  0.89

> <Gold.Chemscore.Hbond.Weighted>
-3.1839

> <Gold.Chemscore.Metal.Weighted>
-0.0000

> <Gold.Chemscore.Lipo.Weighted>
-11.4862

> <Gold.Chemscore.Internal_Hbond.Weighted>
0.0000

> <Gold.Chemscore.DEClash.Weighted>
0.1077

> <Gold.Chemscore.DEInternal.Weighted>
2.8106

> <Gold.Chemscore.Rot.Weighted>
6.8954

> <Gold.Chemscore.Internal.Correction.Weighted>
   9.000000E+99

> <Gold.Protein.RotatedTorsions>
[ 6907 6896 6895 6894 ] final   49.54 input  -60.11 | X-H torsion
[ 7974 7965 7964 7962 ] final -143.27 input  175.53 | X-H torsion
[ 8008 7997 7996 7995 ] final  -92.50 input   59.86 | X-H torsion
[ 10167 10162 10161 10158 ] final  110.82 input  -65.29 | X-H torsion
[ 10718 10713 10712 10709 ] final   70.76 input   66.30 | X-H torsion
[ 10763 10752 10751 10750 ] final  -65.88 input  -60.55 | X-H torsion
[ 11005 11000 10999 10996 ] final -118.74 input  -57.11 | X-H torsion

> <Gold.Protein.ActiveResidues>
 VAL166  LYS551  ARG553  GLY616  TRP617  ASP618  TYR619  PRO620  LYS621  CYS622 
 ASP623  PHE694  ASN695  SER759  ASP760  ASP761  ALA762  ILE779  LEU786  VAL792 
 PHE793  MET794  SER795  GLU796  ALA797  LYS798  CYS799  TRP800  GLU811  SER814 

> <Gold.Protein.RotatedAtoms>
  152.2919  134.7712  160.0375 H   0  0  0  0  0  0  0  0  0  0  0  0  # atno 6907 bound_to 6896
  151.8255  133.3395  159.3605 H   0  0  0  0  0  0  0  0  0  0  0  0  # atno 6908 bound_to 6896
  150.7234  134.5462  159.5816 H   0  0  0  0  0  0  0  0  0  0  0  0  # atno 6909 bound_to 6896
  144.8381  140.5855  143.5470 H   0  0  0  0  0  0  0  0  0  0  0  0  # atno 7974 bound_to 7965
  154.7239  140.0508  157.0665 H   0  0  0  0  0  0  0  0  0  0  0  0  # atno 8008 bound_to 7997
  155.0390  140.3166  155.4712 H   0  0  0  0  0  0  0  0  0  0  0  0  # atno 8009 bound_to 7997
  156.2824  140.2136  156.5514 H   0  0  0  0  0  0  0  0  0  0  0  0  # atno 8010 bound_to 7997
  139.6659  144.7127  151.1778 H   0  0  0  0  0  0  0  0  0  0  0  0  # atno 10167 bound_to 10162
  157.6417  130.9494  150.0695 H   0  0  0  0  0  0  0  0  0  0  0  0  # atno 10718 bound_to 10713
  154.3516  135.6135  153.5645 H   0  0  0  0  0  0  0  0  0  0  0  0  # atno 10763 bound_to 10752
  152.9798  135.5793  154.4737 H   0  0  0  0  0  0  0  0  0  0  0  0  # atno 10764 bound_to 10752
  154.4459  135.2851  155.1793 H   0  0  0  0  0  0  0  0  0  0  0  0  # atno 10765 bound_to 10752
  141.0265  134.0046  157.3207 H   0  0  0  0  0  0  0  0  0  0  0  0  # atno 11005 bound_to 11000
  145.4751  139.1500  143.3793 LP  0  0  0  0  0  0  0  0  0  0  0  0  # atno 17320 bound_to 7965
  146.2677  140.4885  142.8827 LP  0  0  0  0  0  0  0  0  0  0  0  0  # atno 17321 bound_to 7965
  140.7599  143.5920  150.8786 LP  0  0  0  0  0  0  0  0  0  0  0  0  # atno 17342 bound_to 10162
  139.9582  143.6194  152.3010 LP  0  0  0  0  0  0  0  0  0  0  0  0  # atno 17343 bound_to 10162
  156.1704  130.3646  149.9173 LP  0  0  0  0  0  0  0  0  0  0  0  0  # atno 17370 bound_to 10713
  156.7150  130.8985  151.3613 LP  0  0  0  0  0  0  0  0  0  0  0  0  # atno 17371 bound_to 10713
  139.9179  135.0198  156.7952 LP  0  0  0  0  0  0  0  0  0  0  0  0  # atno 17394 bound_to 11000
  140.6483  133.9755  155.7742 LP  0  0  0  0  0  0  0  0  0  0  0  0  # atno 17395 bound_to 11000

$$$$
