AV-unprocessed.smi:228|AV-procd|sdf|1744|dock3
  -GOLD-   2262020253D 1   1.00000     0.00000
 Structure written by MMmdl.
 60 63  0  0  0  0  0  0  0  0  2 V2000
  148.0227  135.5765  158.4351 C   0  0  0  0  0  0  0  0  0  0  0  0
  149.2190  136.0369  157.7411 N   0  0  0  0  0  0  0  0  0  0  0  0
  149.6516  135.2390  156.5908 C   0  0  0  0  0  0  0  0  0  0  0  0
  148.6414  135.2521  155.4196 C   0  0  1  0  0  0  0  0  0  0  0  0
  148.8174  136.4562  154.7009 O   0  0  0  0  0  0  0  0  0  0  0  0
  148.8846  134.0818  154.4463 C   0  0  0  0  0  0  0  0  0  0  0  0
  147.9316  134.0891  153.3080 N   0  3  0  0  0  0  0  0  0  0  0  0
  147.8178  132.7661  152.6500 C   0  0  0  0  0  0  0  0  0  0  0  0
  146.8665  132.8468  151.4439 C   0  0  0  0  0  0  0  0  0  0  0  0
  145.5954  133.3220  151.8690 O   0  0  0  0  0  0  0  0  0  0  0  0
  145.6744  134.6279  152.4272 C   0  0  0  0  0  0  0  0  0  0  0  0
  146.5860  134.6050  153.6654 C   0  0  0  0  0  0  0  0  0  0  0  0
  149.2711  137.3913  157.6402 C   0  0  0  0  0  0  0  0  0  0  0  0
  148.2606  138.0683  157.0302 N   0  0  0  0  0  0  0  0  0  0  0  0
  148.3100  139.3984  156.9194 C   0  0  0  0  0  0  0  0  0  0  0  0
  149.2612  140.2335  157.3383 N   0  0  0  0  0  0  0  0  0  0  0  0
  150.2783  139.5643  157.9533 C   0  0  0  0  0  0  0  0  0  0  0  0
  150.3592  138.1559  158.1467 C   0  0  0  0  0  0  0  0  0  0  0  0
  151.5433  137.8352  158.7987 N   0  0  0  0  0  0  0  0  0  0  0  0
  152.1258  138.9875  158.9876 C   0  0  0  0  0  0  0  0  0  0  0  0
  151.4386  140.0809  158.5086 N   0  0  0  0  0  0  0  0  0  0  0  0
  151.8625  141.4519  158.5768 C   0  0  0  0  0  0  0  0  0  0  0  0
  152.9604  141.9012  159.5450 C   0  0  0  0  0  0  0  0  0  0  0  0
  152.2379  143.2578  159.7199 C   0  0  0  0  0  0  0  0  0  0  0  0
  152.1909  143.8286  161.1512 C   0  0  0  0  0  0  0  0  0  0  0  0
  151.6405  142.9171  162.0816 O   0  0  0  0  0  0  0  0  0  0  0  0
  152.7702  144.3723  158.8002 C   0  0  0  0  0  0  0  0  0  0  0  0
  151.9845  145.5436  158.8915 O   0  0  0  0  0  0  0  0  0  0  0  0
  150.9740  142.5261  159.2089 C   0  0  0  0  0  0  0  0  0  0  0  0
  148.0164  135.9011  159.4756 H   0  0  0  0  0  0  0  0  0  0  0  0
  147.9672  134.4875  158.4334 H   0  0  0  0  0  0  0  0  0  0  0  0
  147.1241  135.9604  157.9501 H   0  0  0  0  0  0  0  0  0  0  0  0
  150.6299  135.5777  156.2465 H   0  0  0  0  0  0  0  0  0  0  0  0
  149.8104  134.2171  156.9378 H   0  0  0  0  0  0  0  0  0  0  0  0
  147.6176  135.2222  155.7883 H   0  0  0  0  0  0  0  0  0  0  0  0
  149.1802  136.2492  153.8526 H   0  0  0  0  0  0  0  0  0  0  0  0
  149.9111  134.1369  154.0794 H   0  0  0  0  0  0  0  0  0  0  0  0
  148.8012  133.1264  154.9666 H   0  0  0  0  0  0  0  0  0  0  0  0
  148.8013  132.4314  152.3178 H   0  0  0  0  0  0  0  0  0  0  0  0
  147.4525  132.0297  153.3677 H   0  0  0  0  0  0  0  0  0  0  0  0
  147.2727  133.5006  150.6701 H   0  0  0  0  0  0  0  0  0  0  0  0
  146.7435  131.8608  150.9952 H   0  0  0  0  0  0  0  0  0  0  0  0
  146.0446  135.3346  151.6827 H   0  0  0  0  0  0  0  0  0  0  0  0
  144.6721  134.9541  152.7055 H   0  0  0  0  0  0  0  0  0  0  0  0
  146.1443  133.9730  154.4374 H   0  0  0  0  0  0  0  0  0  0  0  0
  146.6549  135.6099  154.0805 H   0  0  0  0  0  0  0  0  0  0  0  0
  147.4688  139.8598  156.4237 H   0  0  0  0  0  0  0  0  0  0  0  0
  153.0831  139.0690  159.4818 H   0  0  0  0  0  0  0  0  0  0  0  0
  152.1259  141.7457  157.5588 H   0  0  0  0  0  0  0  0  0  0  0  0
  152.9951  141.3009  160.4545 H   0  0  0  0  0  0  0  0  0  0  0  0
  153.9512  141.9676  159.0944 H   0  0  0  0  0  0  0  0  0  0  0  0
  153.1910  144.0936  161.4950 H   0  0  0  0  0  0  0  0  0  0  0  0
  151.5928  144.7392  161.1924 H   0  0  0  0  0  0  0  0  0  0  0  0
  152.1589  142.9441  162.8714 H   0  0  0  0  0  0  0  0  0  0  0  0
  153.8027  144.6230  159.0457 H   0  0  0  0  0  0  0  0  0  0  0  0
  152.7735  144.0548  157.7571 H   0  0  0  0  0  0  0  0  0  0  0  0
  151.2648  145.3780  159.4812 H   0  0  0  0  0  0  0  0  0  0  0  0
  150.3766  143.0880  158.4902 H   0  0  0  0  0  0  0  0  0  0  0  0
  150.3428  142.1369  160.0082 H   0  0  0  0  0  0  0  0  0  0  0  0
  148.3200  134.7151  152.6166 H   0  0  0  0  0  0  0  0  0  0  0  0
  1  2  1  0  0  0  0
  1 30  1  0  0  0  0
  1 31  1  0  0  0  0
  1 32  1  0  0  0  0
  2  3  1  0  0  0  0
  2 13  1  0  0  0  0
  3  4  1  0  0  0  0
  3 33  1  0  0  0  0
  3 34  1  0  0  0  0
  4  5  1  0  0  0  0
  4  6  1  0  0  0  0
  4 35  1  0  0  0  0
  5 36  1  0  0  0  0
  6  7  1  0  0  0  0
  6 37  1  0  0  0  0
  6 38  1  0  0  0  0
  7 12  1  0  0  0  0
  7  8  1  0  0  0  0
  7 60  1  0  0  0  0
  8  9  1  0  0  0  0
  8 39  1  0  0  0  0
  8 40  1  0  0  0  0
  9 10  1  0  0  0  0
  9 41  1  0  0  0  0
  9 42  1  0  0  0  0
 10 11  1  0  0  0  0
 11 12  1  0  0  0  0
 11 43  1  0  0  0  0
 11 44  1  0  0  0  0
 12 45  1  0  0  0  0
 12 46  1  0  0  0  0
 13 18  1  0  0  0  0
 13 14  2  0  0  0  0
 14 15  1  0  0  0  0
 15 16  2  0  0  0  0
 15 47  1  0  0  0  0
 16 17  1  0  0  0  0
 17 21  1  0  0  0  0
 17 18  2  0  0  0  0
 18 19  1  0  0  0  0
 19 20  2  0  0  0  0
 20 21  1  0  0  0  0
 20 48  1  0  0  0  0
 21 22  1  0  0  0  0
 22 29  1  0  0  0  0
 22 23  1  0  0  0  0
 22 49  1  0  0  0  0
 23 24  1  0  0  0  0
 23 50  1  0  0  0  0
 23 51  1  0  0  0  0
 24 25  1  0  0  0  0
 24 27  1  0  0  0  0
 24 29  1  0  0  0  0
 25 26  1  0  0  0  0
 25 52  1  0  0  0  0
 25 53  1  0  0  0  0
 26 54  1  0  0  0  0
 27 28  1  0  0  0  0
 27 55  1  0  0  0  0
 27 56  1  0  0  0  0
 28 57  1  0  0  0  0
 29 58  1  0  0  0  0
 29 59  1  0  0  0  0
M  CHG  1   7   1
M  END
> <s_m_source_file>
AV-unprocessed.smi

> <i_m_source_file_index>
228

> <i_lp_mmshare_version>
43012

> <i_f3d_flags>
0

> <s_epik_input>
W0NIMl0xW0NIMl1PW0NIMl1bQ0gyXU4xW0NIMl1bQ0BASF0oW09IXSlbQ0gyXU4oW0NIM10pYyhuW2NIXW4yKWMoYzIzKW5bY0hdbjNbQ0hdKFtDSDJdNClbQ0gyXUM0KFtDSDJdW09IXSlbQ0gyXVtPSF0=

> <s_epik_cmdline>
J2VwaWtfcHl0aG9uJywgJy1waCcsICc3LjAnLCAnLXRuJywgJzgnLCAnLW1hJywgJzIwMCcsICctbWV0YWxfYmluZGluZycsICctaW1hZScsICc8aW5maWxlLm1hZT4nLCAnLW9tYWUnLCAnPG91dGZpbGUubWFlPic=

> <r_lp_tautomer_probability>
1

> <r_epik_Ionization_Penalty>
0.403032

> <r_epik_Ionization_Penalty_Charging>
0.40072

> <r_epik_Ionization_Penalty_Neutral>
0.00231206

> <r_epik_State_Penalty>
0.387266

> <r_epik_Charging_Adjusted_Penalty>
0.787986

> <i_epik_Tot_Q>
1

> <i_epik_Tot_abs_Q>
1

> <r_epik_Metal_State_Penalty>
0.385845

> <b_epik_Metal_Only>
0

> <s_lp_Force_Field>
OPLS_2005

> <r_lp_Energy>
50.3724

> <b_lp_Chiralities_Consistent>
1

> <s_lp_Variant>
AV-unprocessed.smi:228-2

> <Gold.Version>
5.8.1

> <Gold.Id.Protein>
6NUR|6NUR_protein|mol2

> <Gold.PLP.Fitness>
52.9695

> <Gold.PLP.PLP>
-42.5932

> <Gold.PLP.part.hbond>
-4.8431

> <Gold.PLP.part.metal>
0.0000

> <Gold.PLP.part.buried>
-5.7849

> <Gold.PLP.part.nonpolar>
-32.2536

> <Gold.PLP.part.repulsive>
0.1150

> <Gold.PLP.ligand.clash>
0.0000

> <Gold.PLP.ligand.torsion>
1.2133

> <Gold.PLP.Chemscore.Hbond>
3.8640

> <Gold.PLP.Chemscore.CHOScore>
0.0000

> <Gold.PLP.Chemscore.Metal>
0.0000

> <Gold.Chemscore.Hbonds>
donor molecule, donor type, donor heavy atom, donor atom, acceptor molecule, acceptor atom, score
      L1  H     5    36       P1  7948  0.99
      L1  H     7    60       P1  7948  2.00
      P1  H  6933  6945       L1    26  0.83

> <Gold.PLP.Chemscore.Internal.Correction>
1.2109

> <Gold.Rescore>
     Score         DG    S(hbond)    S(metal)    S(lipo)     H(rot)  DE(clash)    DE(int)     intcor
     10.17     -12.69       2.68        0.00      96.95       5.11       0.16       2.36       ----

> <Gold.Chemscore.Fitness>
10.1698

> <Gold.Chemscore.DG>
-12.6898

> <Gold.Chemscore.ZeroCoef>
-5.4800

> <Gold.Chemscore.Hbond>
2.6829

> <Gold.Chemscore.Metal>
0.0000

> <Gold.Chemscore.Lipo>
96.9507

> <Gold.Chemscore.Internal_Hbond>
0.0000

> <Gold.Chemscore.DEClash>
0.1647

> <Gold.Chemscore.DEInternal>
2.3552

> <Gold.Chemscore.Rot>
5.1149

> <Gold.Chemscore.Internal.Correction>
   9.000000E+99

> <Gold.Chemscore.Hbonds>
donor molecule, donor type, donor heavy atom, donor atom, acceptor molecule, acceptor atom, score
      L1  H     5    36       P1  7948  0.87
      L1  H     7    60       P1  7948  0.35
      P1  H  6933  6945       L1    26  0.68

> <Gold.Chemscore.Hbond.Weighted>
-8.9607

> <Gold.Chemscore.Metal.Weighted>
-0.0000

> <Gold.Chemscore.Lipo.Weighted>
-11.3432

> <Gold.Chemscore.Internal_Hbond.Weighted>
0.0000

> <Gold.Chemscore.DEClash.Weighted>
0.1647

> <Gold.Chemscore.DEInternal.Weighted>
2.3552

> <Gold.Chemscore.Rot.Weighted>
13.0942

> <Gold.Chemscore.Internal.Correction.Weighted>
   9.000000E+99

> <Gold.Protein.RotatedTorsions>
[ 6907 6896 6895 6894 ] final  -65.48 input  -60.11 | X-H torsion
[ 7974 7965 7964 7962 ] final  142.01 input  175.53 | X-H torsion
[ 8008 7997 7996 7995 ] final   51.48 input   59.86 | X-H torsion
[ 10167 10162 10161 10158 ] final  170.69 input  -65.29 | X-H torsion
[ 10718 10713 10712 10709 ] final  -65.41 input   66.30 | X-H torsion
[ 10763 10752 10751 10750 ] final   61.52 input  -60.55 | X-H torsion
[ 11005 11000 10999 10996 ] final -114.80 input  -57.11 | X-H torsion

> <Gold.Protein.ActiveResidues>
 VAL166  LYS551  ARG553  GLY616  TRP617  ASP618  TYR619  PRO620  LYS621  CYS622 
 ASP623  PHE694  ASN695  SER759  ASP760  ASP761  ALA762  ILE779  LEU786  VAL792 
 PHE793  MET794  SER795  GLU796  ALA797  LYS798  CYS799  TRP800  GLU811  SER814 

> <Gold.Protein.RotatedAtoms>
  150.7521  134.6154  159.6107 H   0  0  0  0  0  0  0  0  0  0  0  0  # atno 6907 bound_to 6896
  152.3476  134.7047  160.0255 H   0  0  0  0  0  0  0  0  0  0  0  0  # atno 6908 bound_to 6896
  151.7478  133.3289  159.3420 H   0  0  0  0  0  0  0  0  0  0  0  0  # atno 6909 bound_to 6896
  144.9045  139.5377  143.5738 H   0  0  0  0  0  0  0  0  0  0  0  0  # atno 7974 bound_to 7965
  155.4359  140.3452  155.4285 H   0  0  0  0  0  0  0  0  0  0  0  0  # atno 8008 bound_to 7997
  156.1308  140.1513  156.9098 H   0  0  0  0  0  0  0  0  0  0  0  0  # atno 8009 bound_to 7997
  154.4893  140.0846  156.7538 H   0  0  0  0  0  0  0  0  0  0  0  0  # atno 8010 bound_to 7997
  139.5025  144.3568  151.9866 H   0  0  0  0  0  0  0  0  0  0  0  0  # atno 10167 bound_to 10162
  156.0671  130.4247  150.1559 H   0  0  0  0  0  0  0  0  0  0  0  0  # atno 10718 bound_to 10713
  152.9953  135.5498  154.6047 H   0  0  0  0  0  0  0  0  0  0  0  0  # atno 10763 bound_to 10752
  154.5380  135.2818  155.1123 H   0  0  0  0  0  0  0  0  0  0  0  0  # atno 10764 bound_to 10752
  154.2411  135.6416  153.5260 H   0  0  0  0  0  0  0  0  0  0  0  0  # atno 10765 bound_to 10752
  141.0529  133.9659  157.2805 H   0  0  0  0  0  0  0  0  0  0  0  0  # atno 11005 bound_to 11000
  146.3126  139.7802  142.9008 LP  0  0  0  0  0  0  0  0  0  0  0  0  # atno 17320 bound_to 7965
  145.3559  141.0316  143.3312 LP  0  0  0  0  0  0  0  0  0  0  0  0  # atno 17321 bound_to 7965
  140.3005  144.3652  150.6062 LP  0  0  0  0  0  0  0  0  0  0  0  0  # atno 17342 bound_to 10162
  140.5877  143.2169  151.7311 LP  0  0  0  0  0  0  0  0  0  0  0  0  # atno 17343 bound_to 10162
  156.9617  130.9807  151.3477 LP  0  0  0  0  0  0  0  0  0  0  0  0  # atno 17370 bound_to 10713
  157.5720  130.8317  149.8404 LP  0  0  0  0  0  0  0  0  0  0  0  0  # atno 17371 bound_to 10713
  139.9365  135.0196  156.8573 LP  0  0  0  0  0  0  0  0  0  0  0  0  # atno 17394 bound_to 11000
  140.6021  134.0162  155.7541 LP  0  0  0  0  0  0  0  0  0  0  0  0  # atno 17395 bound_to 11000

$$$$
