AV-unprocessed.smi:20|AV-procd|sdf|117|dock6
  -GOLD-   2262015283D 1   1.00000     0.00000
 Structure written by MMmdl.
 57 61  0  0  0  0  0  0  0  0  1 V2000
  146.4255  132.7325  154.1353 O   0  0  0  0  0  0  0  0  0  0  0  0
  145.8731  133.8294  154.0982 C   0  0  0  0  0  0  0  0  0  0  0  0
  146.5698  135.1116  153.6761 C   0  0  0  0  0  0  0  0  0  0  0  0
  145.3985  136.0949  153.4367 C   0  0  2  0  0  0  0  0  0  0  0  0
  144.9691  136.1224  151.9450 C   0  0  0  0  0  0  0  0  0  0  0  0
  145.9921  136.8564  151.0604 C   0  0  0  0  0  0  0  0  0  0  0  0
  146.2995  138.2548  151.6141 C   0  0  0  0  0  0  0  0  0  0  0  0
  146.6973  138.1793  153.0180 N   0  0  0  0  0  0  0  0  0  0  0  0
  147.3338  139.2839  153.4835 C   0  0  0  0  0  0  0  0  0  0  0  0
  146.7979  140.5164  153.2729 N   0  0  0  0  0  0  0  0  0  0  0  0
  147.4216  141.6097  153.7214 C   0  0  0  0  0  0  0  0  0  0  0  0
  148.5697  141.6985  154.3951 N   0  0  0  0  0  0  0  0  0  0  0  0
  149.1095  140.4657  154.6134 C   0  0  0  0  0  0  0  0  0  0  0  0
  148.5638  139.2188  154.1970 C   0  0  0  0  0  0  0  0  0  0  0  0
  149.3883  138.1798  154.6142 N   0  0  0  0  0  0  0  0  0  0  0  0
  150.3688  138.7789  155.2336 C   0  0  0  0  0  0  0  0  0  0  0  0
  150.2831  140.1524  155.2749 N   0  0  0  0  0  0  0  0  0  0  0  0
  151.2206  141.0695  155.8981 C   0  0  0  0  0  0  0  0  0  0  0  0
  150.9836  141.2767  157.4178 C   0  0  2  0  0  0  0  0  0  0  0  0
  149.5351  141.7331  157.7292 C   0  0  0  0  0  0  0  0  0  0  0  0
  148.6900  140.6425  158.0326 O   0  0  0  0  0  0  0  0  0  0  0  0
  152.0172  142.2776  157.9977 C   0  0  1  0  0  0  0  0  0  0  0  0
  151.7000  143.7496  157.7388 C   0  0  0  0  0  0  0  0  0  0  0  0
  152.2251  144.4886  158.9737 C   0  0  0  0  0  0  0  0  0  0  0  0
  152.7992  143.4904  159.8041 O   0  0  0  0  0  0  0  0  0  0  0  0
  152.1456  142.2657  159.5228 C   0  0  0  0  0  0  0  0  0  0  0  0
  145.7248  137.5326  153.9011 C   0  0  0  0  0  0  0  0  0  0  0  0
  144.2643  135.4817  154.2921 C   0  0  0  0  0  0  0  0  0  0  0  0
  144.6042  134.0774  154.4127 N   0  0  0  0  0  0  0  0  0  0  0  0
  147.2130  135.4403  154.4934 H   0  0  0  0  0  0  0  0  0  0  0  0
  147.1951  134.9511  152.7985 H   0  0  0  0  0  0  0  0  0  0  0  0
  144.8101  135.1111  151.5686 H   0  0  0  0  0  0  0  0  0  0  0  0
  144.0099  136.6340  151.8536 H   0  0  0  0  0  0  0  0  0  0  0  0
  146.9155  136.2817  150.9913 H   0  0  0  0  0  0  0  0  0  0  0  0
  145.6105  136.9383  150.0425 H   0  0  0  0  0  0  0  0  0  0  0  0
  147.0694  138.7241  151.0027 H   0  0  0  0  0  0  0  0  0  0  0  0
  145.4130  138.8858  151.5370 H   0  0  0  0  0  0  0  0  0  0  0  0
  146.9304  142.5480  153.5096 H   0  0  0  0  0  0  0  0  0  0  0  0
  151.1890  138.2326  155.6762 H   0  0  0  0  0  0  0  0  0  0  0  0
  152.2185  140.6726  155.7139 H   0  0  0  0  0  0  0  0  0  0  0  0
  151.1698  142.0260  155.3765 H   0  0  0  0  0  0  0  0  0  0  0  0
  151.1500  140.3221  157.9196 H   0  0  0  0  0  0  0  0  0  0  0  0
  149.5044  142.3917  158.5961 H   0  0  0  0  0  0  0  0  0  0  0  0
  149.1190  142.2974  156.8942 H   0  0  0  0  0  0  0  0  0  0  0  0
  147.8461  140.9789  158.2932 H   0  0  0  0  0  0  0  0  0  0  0  0
  153.0014  142.0622  157.5778 H   0  0  0  0  0  0  0  0  0  0  0  0
  152.1725  144.1068  156.8233 H   0  0  0  0  0  0  0  0  0  0  0  0
  150.6257  143.9132  157.6439 H   0  0  0  0  0  0  0  0  0  0  0  0
  152.9677  145.2455  158.7198 H   0  0  0  0  0  0  0  0  0  0  0  0
  151.4084  144.9788  159.5048 H   0  0  0  0  0  0  0  0  0  0  0  0
  151.1667  142.2522  160.0055 H   0  0  0  0  0  0  0  0  0  0  0  0
  152.7288  141.4234  159.8957 H   0  0  0  0  0  0  0  0  0  0  0  0
  144.8128  138.1315  153.9144 H   0  0  0  0  0  0  0  0  0  0  0  0
  146.1033  137.5107  154.9244 H   0  0  0  0  0  0  0  0  0  0  0  0
  144.2399  135.9134  155.2938 H   0  0  0  0  0  0  0  0  0  0  0  0
  143.2757  135.6122  153.8509 H   0  0  0  0  0  0  0  0  0  0  0  0
  143.9450  133.3776  154.7218 H   0  0  0  0  0  0  0  0  0  0  0  0
  1  2  2  0  0  0  0
  2 29  1  0  0  0  0
  2  3  1  0  0  0  0
  3  4  1  0  0  0  0
  3 30  1  0  0  0  0
  3 31  1  0  0  0  0
  4 27  1  0  0  0  0
  4  5  1  0  0  0  0
  4 28  1  0  0  0  0
  5  6  1  0  0  0  0
  5 32  1  0  0  0  0
  5 33  1  0  0  0  0
  6  7  1  0  0  0  0
  6 34  1  0  0  0  0
  6 35  1  0  0  0  0
  7  8  1  0  0  0  0
  7 36  1  0  0  0  0
  7 37  1  0  0  0  0
  8  9  1  0  0  0  0
  8 27  1  0  0  0  0
  9 14  1  0  0  0  0
  9 10  2  0  0  0  0
 10 11  1  0  0  0  0
 11 12  2  0  0  0  0
 11 38  1  0  0  0  0
 12 13  1  0  0  0  0
 13 17  1  0  0  0  0
 13 14  2  0  0  0  0
 14 15  1  0  0  0  0
 15 16  2  0  0  0  0
 16 17  1  0  0  0  0
 16 39  1  0  0  0  0
 17 18  1  0  0  0  0
 18 19  1  0  0  0  0
 18 40  1  0  0  0  0
 18 41  1  0  0  0  0
 19 20  1  0  0  0  0
 19 22  1  0  0  0  0
 19 42  1  0  0  0  0
 20 21  1  0  0  0  0
 20 43  1  0  0  0  0
 20 44  1  0  0  0  0
 21 45  1  0  0  0  0
 22 26  1  0  0  0  0
 22 23  1  0  0  0  0
 22 46  1  0  0  0  0
 23 24  1  0  0  0  0
 23 47  1  0  0  0  0
 23 48  1  0  0  0  0
 24 25  1  0  0  0  0
 24 49  1  0  0  0  0
 24 50  1  0  0  0  0
 25 26  1  0  0  0  0
 26 51  1  0  0  0  0
 26 52  1  0  0  0  0
 27 53  1  0  0  0  0
 27 54  1  0  0  0  0
 28 29  1  0  0  0  0
 28 55  1  0  0  0  0
 28 56  1  0  0  0  0
 29 57  1  0  0  0  0
M  END
> <s_m_source_file>
AV-unprocessed.smi

> <i_m_source_file_index>
20

> <i_lp_mmshare_version>
43012

> <i_f3d_flags>
0

> <s_epik_input>
W0NIMl0xW05IXUMoPU8pW0NIMl1bQ0BAXTEyW0NIMl1bQ0gyXVtDSDJdTihbQ0gyXTIpYyhuW2NIXW4zKWMoYzM0KW5bY0hdbjRbQ0gyXVtDQEhdKFtDSDJdW09IXSlbQ0BASF01W0NIMl1bQ0gyXU9bQ0gyXTU=

> <s_epik_cmdline>
J2VwaWtfcHl0aG9uJywgJy1waCcsICc3LjAnLCAnLXRuJywgJzgnLCAnLW1hJywgJzIwMCcsICctbWV0YWxfYmluZGluZycsICctaW1hZScsICc8aW5maWxlLm1hZT4nLCAnLW9tYWUnLCAnPG91dGZpbGUubWFlPic=

> <r_lp_tautomer_probability>
1

> <r_epik_Ionization_Penalty>
0.0019697

> <r_epik_Ionization_Penalty_Charging>
0

> <r_epik_Ionization_Penalty_Neutral>
0.0019697

> <r_epik_State_Penalty>
0.00113613

> <r_epik_Charging_Adjusted_Penalty>
0.00113613

> <i_epik_Tot_Q>
0

> <i_epik_Tot_abs_Q>
0

> <r_epik_Metal_State_Penalty>
-0

> <b_epik_Metal_Only>
0

> <s_lp_Force_Field>
OPLS_2005

> <r_lp_Energy>
58.6133

> <b_lp_Chiralities_Consistent>
1

> <s_lp_Variant>
AV-unprocessed.smi:20-5

> <Gold.Version>
5.8.1

> <Gold.Id.Protein>
6NUR|6NUR_protein|mol2

> <Gold.PLP.Fitness>
43.3325

> <Gold.PLP.PLP>
-43.0033

> <Gold.PLP.part.hbond>
-1.8189

> <Gold.PLP.part.metal>
0.0000

> <Gold.PLP.part.buried>
-3.5157

> <Gold.PLP.part.nonpolar>
-39.0844

> <Gold.PLP.part.repulsive>
0.8772

> <Gold.PLP.ligand.clash>
0.0000

> <Gold.PLP.ligand.torsion>
1.5517

> <Gold.PLP.Chemscore.Hbond>
0.9913

> <Gold.PLP.Chemscore.CHOScore>
0.0000

> <Gold.PLP.Chemscore.Metal>
0.0000

> <Gold.Chemscore.Hbonds>
donor molecule, donor type, donor heavy atom, donor atom, acceptor molecule, acceptor atom, score
      L1  H    29    57       P1 10957  0.93

> <Gold.PLP.Chemscore.Internal.Correction>
0.4589

> <Gold.Rescore>
     Score         DG    S(hbond)    S(metal)    S(lipo)     H(rot)  DE(clash)    DE(int)     intcor
     11.03     -13.07       0.98        0.00      96.94       2.74       0.69       1.34       ----

> <Gold.Chemscore.Fitness>
11.0301

> <Gold.Chemscore.DG>
-13.0665

> <Gold.Chemscore.ZeroCoef>
-5.4800

> <Gold.Chemscore.Hbond>
0.9770

> <Gold.Chemscore.Metal>
0.0000

> <Gold.Chemscore.Lipo>
96.9353

> <Gold.Chemscore.Internal_Hbond>
0.0000

> <Gold.Chemscore.DEClash>
0.6934

> <Gold.Chemscore.DEInternal>
1.3431

> <Gold.Chemscore.Rot>
2.7415

> <Gold.Chemscore.Internal.Correction>
   9.000000E+99

> <Gold.Chemscore.Hbonds>
donor molecule, donor type, donor heavy atom, donor atom, acceptor molecule, acceptor atom, score
      L1  H    29    57       P1 10957  0.88

> <Gold.Chemscore.Hbond.Weighted>
-3.2633

> <Gold.Chemscore.Metal.Weighted>
-0.0000

> <Gold.Chemscore.Lipo.Weighted>
-11.3414

> <Gold.Chemscore.Internal_Hbond.Weighted>
0.0000

> <Gold.Chemscore.DEClash.Weighted>
0.6934

> <Gold.Chemscore.DEInternal.Weighted>
1.3431

> <Gold.Chemscore.Rot.Weighted>
7.0182

> <Gold.Chemscore.Internal.Correction.Weighted>
   9.000000E+99

> <Gold.Protein.RotatedTorsions>
[ 6907 6896 6895 6894 ] final  179.57 input  -60.11 | X-H torsion
[ 7974 7965 7964 7962 ] final -105.87 input  175.53 | X-H torsion
[ 8008 7997 7996 7995 ] final   62.84 input   59.86 | X-H torsion
[ 10167 10162 10161 10158 ] final  125.27 input  -65.29 | X-H torsion
[ 10718 10713 10712 10709 ] final   97.10 input   66.30 | X-H torsion
[ 10763 10752 10751 10750 ] final -117.98 input  -60.55 | X-H torsion
[ 11005 11000 10999 10996 ] final  140.45 input  -57.11 | X-H torsion

> <Gold.Protein.ActiveResidues>
 VAL166  LYS551  ARG553  GLY616  TRP617  ASP618  TYR619  PRO620  LYS621  CYS622 
 ASP623  PHE694  ASN695  SER759  ASP760  ASP761  ALA762  ILE779  LEU786  VAL792 
 PHE793  MET794  SER795  GLU796  ALA797  LYS798  CYS799  TRP800  GLU811  SER814 

> <Gold.Protein.RotatedAtoms>
  151.6696  133.3314  159.3193 H   0  0  0  0  0  0  0  0  0  0  0  0  # atno 6907 bound_to 6896
  150.7874  134.6874  159.6487 H   0  0  0  0  0  0  0  0  0  0  0  0  # atno 6908 bound_to 6896
  152.3947  134.6389  160.0146 H   0  0  0  0  0  0  0  0  0  0  0  0  # atno 6909 bound_to 6896
  145.2250  140.9149  143.3237 H   0  0  0  0  0  0  0  0  0  0  0  0  # atno 7974 bound_to 7965
  155.6207  140.3495  155.4651 H   0  0  0  0  0  0  0  0  0  0  0  0  # atno 8008 bound_to 7997
  156.0081  140.1227  157.0505 H   0  0  0  0  0  0  0  0  0  0  0  0  # atno 8009 bound_to 7997
  154.4271  140.1087  156.5777 H   0  0  0  0  0  0  0  0  0  0  0  0  # atno 8010 bound_to 7997
  139.5695  144.6931  151.3818 H   0  0  0  0  0  0  0  0  0  0  0  0  # atno 10167 bound_to 10162
  157.6917  131.0599  150.4593 H   0  0  0  0  0  0  0  0  0  0  0  0  # atno 10718 bound_to 10713
  154.8573  135.4290  154.2066 H   0  0  0  0  0  0  0  0  0  0  0  0  # atno 10763 bound_to 10752
  153.3101  135.6975  153.7130 H   0  0  0  0  0  0  0  0  0  0  0  0  # atno 10764 bound_to 10752
  153.6226  135.3499  155.2990 H   0  0  0  0  0  0  0  0  0  0  0  0  # atno 10765 bound_to 10752
  140.0329  134.9343  157.0696 H   0  0  0  0  0  0  0  0  0  0  0  0  # atno 11005 bound_to 11000
  144.9730  139.3861  143.6300 LP  0  0  0  0  0  0  0  0  0  0  0  0  # atno 17320 bound_to 7965
  146.3367  139.8836  142.8820 LP  0  0  0  0  0  0  0  0  0  0  0  0  # atno 17321 bound_to 7965
  140.6979  143.7704  150.7356 LP  0  0  0  0  0  0  0  0  0  0  0  0  # atno 17342 bound_to 10162
  140.1205  143.4616  152.2316 LP  0  0  0  0  0  0  0  0  0  0  0  0  # atno 17343 bound_to 10162
  156.4938  130.4101  149.6391 LP  0  0  0  0  0  0  0  0  0  0  0  0  # atno 17370 bound_to 10713
  156.3392  130.7373  151.2315 LP  0  0  0  0  0  0  0  0  0  0  0  0  # atno 17371 bound_to 10713
  140.4196  134.1894  155.7164 LP  0  0  0  0  0  0  0  0  0  0  0  0  # atno 17394 bound_to 11000
  141.1841  133.8351  157.1152 LP  0  0  0  0  0  0  0  0  0  0  0  0  # atno 17395 bound_to 11000

$$$$
