AV-unprocessed.smi:2359|AV-procd|sdf|9408|dock8
  -GOLD-   2272013 43D 1   1.00000     0.00000
 Structure written by MMmdl.
 40 41  0  0  0  0  0  0  0  0  1 V2000
  143.2209  133.4505  151.4437 C   0  0  0  0  0  0  0  0  0  0  0  0
  144.0740  134.6846  151.6483 C   0  0  0  0  0  0  0  0  0  0  0  0
  143.8029  135.5807  152.6989 C   0  0  0  0  0  0  0  0  0  0  0  0
  144.6230  136.7149  152.8526 C   0  0  0  0  0  0  0  0  0  0  0  0
  145.6937  136.9263  151.9549 C   0  0  0  0  0  0  0  0  0  0  0  0
  146.4568  138.0999  152.1951 N   0  0  0  0  0  0  0  0  0  0  0  0
  146.5662  138.8018  153.3370 C   0  0  0  0  0  0  0  0  0  0  0  0
  145.9921  138.5393  154.3944 O   0  0  0  0  0  0  0  0  0  0  0  0
  147.3911  139.8469  153.1864 N   0  0  0  0  0  0  0  0  0  0  0  0
  147.7127  140.7989  154.2408 C   0  0  0  0  0  0  0  0  0  0  0  0
  149.2219  141.0809  154.2728 C   0  0  0  0  0  0  0  0  0  0  0  0
  150.0253  139.9574  154.9469 C   0  0  1  0  0  0  0  0  0  0  0  0
  149.9744  138.6460  154.1387 C   0  0  0  0  0  0  0  0  0  0  0  0
  150.8444  137.5714  154.8005 C   0  0  0  0  0  0  0  0  0  0  0  0
  152.2590  138.1165  155.0234 C   0  0  0  0  0  0  0  0  0  0  0  0
  152.2033  139.4560  155.7751 C   0  0  0  0  0  0  0  0  0  0  0  0
  151.3834  140.3778  155.0635 O   0  0  0  0  0  0  0  0  0  0  0  0
  145.9477  136.0561  150.9459 N   0  0  0  0  0  0  0  0  0  0  0  0
  145.1614  134.9692  150.7993 C   0  0  0  0  0  0  0  0  0  0  0  0
  142.1631  133.7147  151.4451 H   0  0  0  0  0  0  0  0  0  0  0  0
  143.3980  132.7332  152.2450 H   0  0  0  0  0  0  0  0  0  0  0  0
  143.4486  132.9663  150.4936 H   0  0  0  0  0  0  0  0  0  0  0  0
  142.9809  135.4042  153.3770 H   0  0  0  0  0  0  0  0  0  0  0  0
  144.4283  137.4128  153.6539 H   0  0  0  0  0  0  0  0  0  0  0  0
  146.9836  138.4436  151.4060 H   0  0  0  0  0  0  0  0  0  0  0  0
  147.8232  139.9949  152.2861 H   0  0  0  0  0  0  0  0  0  0  0  0
  147.1582  141.7225  154.0696 H   0  0  0  0  0  0  0  0  0  0  0  0
  147.3869  140.4000  155.2029 H   0  0  0  0  0  0  0  0  0  0  0  0
  149.5785  141.2106  153.2502 H   0  0  0  0  0  0  0  0  0  0  0  0
  149.4111  142.0245  154.7866 H   0  0  0  0  0  0  0  0  0  0  0  0
  149.6161  139.7829  155.9438 H   0  0  0  0  0  0  0  0  0  0  0  0
  148.9467  138.2916  154.0543 H   0  0  0  0  0  0  0  0  0  0  0  0
  150.3278  138.8254  153.1225 H   0  0  0  0  0  0  0  0  0  0  0  0
  150.4070  137.2821  155.7570 H   0  0  0  0  0  0  0  0  0  0  0  0
  150.8750  136.6726  154.1841 H   0  0  0  0  0  0  0  0  0  0  0  0
  152.8588  137.3953  155.5794 H   0  0  0  0  0  0  0  0  0  0  0  0
  152.7523  138.2597  154.0614 H   0  0  0  0  0  0  0  0  0  0  0  0
  151.8210  139.3194  156.7879 H   0  0  0  0  0  0  0  0  0  0  0  0
  153.2051  139.8754  155.8676 H   0  0  0  0  0  0  0  0  0  0  0  0
  145.4100  134.3104  149.9804 H   0  0  0  0  0  0  0  0  0  0  0  0
  1  2  1  0  0  0  0
  1 20  1  0  0  0  0
  1 21  1  0  0  0  0
  1 22  1  0  0  0  0
  2 19  1  0  0  0  0
  2  3  2  0  0  0  0
  3  4  1  0  0  0  0
  3 23  1  0  0  0  0
  4  5  2  0  0  0  0
  4 24  1  0  0  0  0
  5  6  1  0  0  0  0
  5 18  1  0  0  0  0
  6  7  1  0  0  0  0
  6 25  1  0  0  0  0
  7  8  2  0  0  0  0
  7  9  1  0  0  0  0
  9 10  1  0  0  0  0
  9 26  1  0  0  0  0
 10 11  1  0  0  0  0
 10 27  1  0  0  0  0
 10 28  1  0  0  0  0
 11 12  1  0  0  0  0
 11 29  1  0  0  0  0
 11 30  1  0  0  0  0
 12 17  1  0  0  0  0
 12 13  1  0  0  0  0
 12 31  1  0  0  0  0
 13 14  1  0  0  0  0
 13 32  1  0  0  0  0
 13 33  1  0  0  0  0
 14 15  1  0  0  0  0
 14 34  1  0  0  0  0
 14 35  1  0  0  0  0
 15 16  1  0  0  0  0
 15 36  1  0  0  0  0
 15 37  1  0  0  0  0
 16 17  1  0  0  0  0
 16 38  1  0  0  0  0
 16 39  1  0  0  0  0
 18 19  2  0  0  0  0
 19 40  1  0  0  0  0
M  END
> <s_m_source_file>
AV-unprocessed.smi

> <i_m_source_file_index>
2359

> <i_lp_mmshare_version>
43012

> <i_f3d_flags>
0

> <s_epik_input>
W0NIM11jMVtjSF1bY0hdYyhuW2NIXTEpW05IXUMoPU8pW05IXVtDSDJdW0NIMl1bQ0BASF0yW0NIMl1bQ0gyXVtDSDJdW0NIMl1PMg==

> <s_epik_cmdline>
J2VwaWtfcHl0aG9uJywgJy1waCcsICc3LjAnLCAnLXRuJywgJzgnLCAnLW1hJywgJzIwMCcsICctbWV0YWxfYmluZGluZycsICctaW1hZScsICc8aW5maWxlLm1hZT4nLCAnLW9tYWUnLCAnPG91dGZpbGUubWFlPic=

> <r_lp_tautomer_probability>
1

> <r_epik_Ionization_Penalty>
5.73679e-05

> <r_epik_Ionization_Penalty_Charging>
0

> <r_epik_Ionization_Penalty_Neutral>
5.73679e-05

> <r_epik_State_Penalty>
-0

> <r_epik_Charging_Adjusted_Penalty>
0

> <i_epik_Tot_Q>
0

> <i_epik_Tot_abs_Q>
0

> <r_epik_Metal_State_Penalty>
-0

> <b_epik_Metal_Only>
0

> <s_lp_Force_Field>
OPLS_2005

> <r_lp_Energy>
11.4199

> <b_lp_Chiralities_Consistent>
1

> <s_lp_Variant>
AV-unprocessed.smi:2359-2

> <Gold.Version>
5.8.1

> <Gold.Id.Protein>
6NUR|6NUR_protein|mol2

> <Gold.PLP.Fitness>
42.0110

> <Gold.PLP.PLP>
-34.4069

> <Gold.PLP.part.hbond>
-2.6577

> <Gold.PLP.part.metal>
0.0000

> <Gold.PLP.part.buried>
-2.2307

> <Gold.PLP.part.nonpolar>
-30.6084

> <Gold.PLP.part.repulsive>
0.5943

> <Gold.PLP.ligand.clash>
0.0000

> <Gold.PLP.ligand.torsion>
0.2938

> <Gold.PLP.Chemscore.Hbond>
1.7283

> <Gold.PLP.Chemscore.CHOScore>
1.0000

> <Gold.PLP.Chemscore.Metal>
0.0000

> <Gold.Chemscore.Hbonds>
donor molecule, donor type, donor heavy atom, donor atom, acceptor molecule, acceptor atom, score
      L1  H     9    26       P1  7957  0.82
      P1  H  7989  7998       L1    17  0.99
      L1  C    19    40       P1  7921  1.00

> <Gold.PLP.Chemscore.Internal.Correction>
0.0068

> <Gold.Rescore>
     Score         DG    S(hbond)    S(metal)    S(lipo)     H(rot)  DE(clash)    DE(int)     intcor
     11.86     -14.76       1.14        0.00      78.06       1.42       0.18       2.72       ----

> <Gold.Chemscore.Fitness>
11.8578

> <Gold.Chemscore.DG>
-14.7604

> <Gold.Chemscore.ZeroCoef>
-5.4800

> <Gold.Chemscore.Hbond>
1.1363

> <Gold.Chemscore.Metal>
0.0000

> <Gold.Chemscore.Lipo>
78.0571

> <Gold.Chemscore.Internal_Hbond>
0.0000

> <Gold.Chemscore.DEClash>
0.1844

> <Gold.Chemscore.DEInternal>
2.7183

> <Gold.Chemscore.Rot>
1.4248

> <Gold.Chemscore.Internal.Correction>
   9.000000E+99

> <Gold.Chemscore.Hbonds>
donor molecule, donor type, donor heavy atom, donor atom, acceptor molecule, acceptor atom, score
      L1  H     9    26       P1  7957  0.77
      P1  H  7989  7998       L1    17  0.24

> <Gold.Chemscore.Hbond.Weighted>
-3.7953

> <Gold.Chemscore.Metal.Weighted>
-0.0000

> <Gold.Chemscore.Lipo.Weighted>
-9.1327

> <Gold.Chemscore.Internal_Hbond.Weighted>
0.0000

> <Gold.Chemscore.DEClash.Weighted>
0.1844

> <Gold.Chemscore.DEInternal.Weighted>
2.7183

> <Gold.Chemscore.Rot.Weighted>
3.6476

> <Gold.Chemscore.Internal.Correction.Weighted>
   9.000000E+99

> <Gold.Protein.RotatedTorsions>
[ 6907 6896 6895 6894 ] final  122.19 input  -60.11 | X-H torsion
[ 7974 7965 7964 7962 ] final  127.57 input  175.53 | X-H torsion
[ 8008 7997 7996 7995 ] final   46.38 input   59.86 | X-H torsion
[ 10167 10162 10161 10158 ] final  109.42 input  -65.29 | X-H torsion
[ 10718 10713 10712 10709 ] final   24.30 input   66.30 | X-H torsion
[ 10763 10752 10751 10750 ] final  146.05 input  -60.55 | X-H torsion
[ 11005 11000 10999 10996 ] final -154.49 input  -57.11 | X-H torsion

> <Gold.Protein.ActiveResidues>
 VAL166  LYS551  ARG553  GLY616  TRP617  ASP618  TYR619  PRO620  LYS621  CYS622 
 ASP623  PHE694  ASN695  SER759  ASP760  ASP761  ALA762  ILE779  LEU786  VAL792 
 PHE793  MET794  SER795  GLU796  ALA797  LYS798  CYS799  TRP800  GLU811  SER814 

> <Gold.Protein.RotatedAtoms>
  152.4263  133.7200  159.6527 H   0  0  0  0  0  0  0  0  0  0  0  0  # atno 6907 bound_to 6896
  150.8139  133.8361  159.3175 H   0  0  0  0  0  0  0  0  0  0  0  0  # atno 6908 bound_to 6896
  151.6063  135.1046  160.0123 H   0  0  0  0  0  0  0  0  0  0  0  0  # atno 6909 bound_to 6896
  145.0491  139.3898  143.5063 H   0  0  0  0  0  0  0  0  0  0  0  0  # atno 7974 bound_to 7965
  155.3515  140.3413  155.4239 H   0  0  0  0  0  0  0  0  0  0  0  0  # atno 8008 bound_to 7997
  156.1761  140.1648  156.8394 H   0  0  0  0  0  0  0  0  0  0  0  0  # atno 8009 bound_to 7997
  154.5284  140.0751  156.8283 H   0  0  0  0  0  0  0  0  0  0  0  0  # atno 8010 bound_to 7997
  139.6768  144.7121  151.1588 H   0  0  0  0  0  0  0  0  0  0  0  0  # atno 10167 bound_to 10162
  157.1779  130.6789  149.6102 H   0  0  0  0  0  0  0  0  0  0  0  0  # atno 10718 bound_to 10713
  154.0155  135.2910  155.3387 H   0  0  0  0  0  0  0  0  0  0  0  0  # atno 10763 bound_to 10752
  154.7078  135.5162  153.8624 H   0  0  0  0  0  0  0  0  0  0  0  0  # atno 10764 bound_to 10752
  153.0704  135.6646  154.0382 H   0  0  0  0  0  0  0  0  0  0  0  0  # atno 10765 bound_to 10752
  140.6967  134.3982  157.5214 H   0  0  0  0  0  0  0  0  0  0  0  0  # atno 11005 bound_to 11000
  146.3516  140.0131  142.8665 LP  0  0  0  0  0  0  0  0  0  0  0  0  # atno 17320 bound_to 7965
  145.1550  140.9643  143.4410 LP  0  0  0  0  0  0  0  0  0  0  0  0  # atno 17321 bound_to 7965
  140.7638  143.5760  150.8945 LP  0  0  0  0  0  0  0  0  0  0  0  0  # atno 17342 bound_to 10162
  139.9429  143.6361  152.3049 LP  0  0  0  0  0  0  0  0  0  0  0  0  # atno 17343 bound_to 10162
  155.9728  130.4656  150.6261 LP  0  0  0  0  0  0  0  0  0  0  0  0  # atno 17370 bound_to 10713
  157.3980  131.0806  151.1334 LP  0  0  0  0  0  0  0  0  0  0  0  0  # atno 17371 bound_to 10713
  139.8908  134.8796  156.2352 LP  0  0  0  0  0  0  0  0  0  0  0  0  # atno 17394 bound_to 11000
  141.0197  133.7048  156.1247 LP  0  0  0  0  0  0  0  0  0  0  0  0  # atno 17395 bound_to 11000

$$$$
