AV-unprocessed.smi:50|AV-procd|sdf|492|dock7
  -GOLD-   2262016353D 1   1.00000     0.00000
 Structure written by MMmdl.
 44 45  0  0  0  0  0  0  0  0  2 V2000
  151.9362  141.3003  158.1709 C   0  0  0  0  0  0  0  0  0  0  0  0
  150.8216  142.0588  157.4237 C   0  0  0  0  0  0  0  0  0  0  0  0
  150.0918  142.9914  158.4088 C   0  0  0  0  0  0  0  0  0  0  0  0
  149.8393  141.0993  156.6973 C   0  0  1  0  0  0  0  0  0  0  0  0
  148.8328  141.8388  155.9127 N   0  3  0  0  0  0  0  0  0  0  0  0
  150.5173  140.1410  155.7048 C   0  0  0  0  0  0  0  0  0  0  0  0
  150.3023  140.1245  154.4919 O   0  0  0  0  0  0  0  0  0  0  0  0
  151.3424  139.3035  156.3561 O   0  0  0  0  0  0  0  0  0  0  0  0
  151.8367  138.1492  155.6952 C   0  0  0  0  0  0  0  0  0  0  0  0
  150.6694  137.3658  155.0886 C   0  0  0  0  0  0  0  0  0  0  0  0
  151.1122  136.0532  154.7834 O   0  0  0  0  0  0  0  0  0  0  0  0
  150.8233  135.1292  155.7810 C   0  0  0  0  0  0  0  0  0  0  0  0
  150.3360  133.9149  155.1503 N   0  0  0  0  0  0  0  0  0  0  0  0
  149.2870  133.7505  154.2780 C   0  0  0  0  0  0  0  0  0  0  0  0
  149.1034  132.5176  153.8953 N   0  0  0  0  0  0  0  0  0  0  0  0
  150.0903  131.8018  154.5662 C   0  0  0  0  0  0  0  0  0  0  0  0
  150.3868  130.3972  154.5505 C   0  0  0  0  0  0  0  0  0  0  0  0
  149.8216  129.5059  153.9203 O   0  0  0  0  0  0  0  0  0  0  0  0
  151.4674  130.0766  155.3823 N   0  0  0  0  0  0  0  0  0  0  0  0
  152.1759  131.0078  156.1380 C   0  0  0  0  0  0  0  0  0  0  0  0
  153.1821  130.5365  156.8860 N   0  0  0  0  0  0  0  0  0  0  0  0
  151.9044  132.3012  156.1484 N   0  0  0  0  0  0  0  0  0  0  0  0
  150.8523  132.6513  155.3448 C   0  0  0  0  0  0  0  0  0  0  0  0
  149.3058  140.5139  157.4471 H   0  0  0  0  0  0  0  0  0  0  0  0
  151.7361  129.1047  155.4264 H   0  0  0  0  0  0  0  0  0  0  0  0
  151.5203  140.6217  158.9165 H   0  0  0  0  0  0  0  0  0  0  0  0
  152.6013  141.9919  158.6890 H   0  0  0  0  0  0  0  0  0  0  0  0
  152.5570  140.7110  157.4966 H   0  0  0  0  0  0  0  0  0  0  0  0
  151.3015  142.6946  156.6775 H   0  0  0  0  0  0  0  0  0  0  0  0
  149.5538  142.4222  159.1677 H   0  0  0  0  0  0  0  0  0  0  0  0
  149.3739  143.6371  157.9032 H   0  0  0  0  0  0  0  0  0  0  0  0
  150.7965  143.6445  158.9249 H   0  0  0  0  0  0  0  0  0  0  0  0
  147.9121  141.6373  156.2758 H   0  0  0  0  0  0  0  0  0  0  0  0
  148.8841  141.5502  154.9461 H   0  0  0  0  0  0  0  0  0  0  0  0
  152.5222  138.4605  154.9059 H   0  0  0  0  0  0  0  0  0  0  0  0
  152.3970  137.5173  156.3862 H   0  0  0  0  0  0  0  0  0  0  0  0
  149.8192  137.3458  155.7724 H   0  0  0  0  0  0  0  0  0  0  0  0
  150.3432  137.8604  154.1726 H   0  0  0  0  0  0  0  0  0  0  0  0
  151.7240  134.8971  156.3527 H   0  0  0  0  0  0  0  0  0  0  0  0
  150.0468  135.5054  156.4489 H   0  0  0  0  0  0  0  0  0  0  0  0
  148.6665  134.5653  153.9339 H   0  0  0  0  0  0  0  0  0  0  0  0
  153.3904  129.5482  156.8793 H   0  0  0  0  0  0  0  0  0  0  0  0
  153.7331  131.1640  157.4535 H   0  0  0  0  0  0  0  0  0  0  0  0
  149.0137  142.8302  155.9794 H   0  0  0  0  0  0  0  0  0  0  0  0
  1  2  1  0  0  0  0
  1 26  1  0  0  0  0
  1 27  1  0  0  0  0
  1 28  1  0  0  0  0
  2  3  1  0  0  0  0
  2  4  1  0  0  0  0
  2 29  1  0  0  0  0
  3 30  1  0  0  0  0
  3 31  1  0  0  0  0
  3 32  1  0  0  0  0
  4 24  1  0  0  0  0
  4  5  1  0  0  0  0
  4  6  1  0  0  0  0
  5 33  1  0  0  0  0
  5 34  1  0  0  0  0
  5 44  1  0  0  0  0
  6  7  2  0  0  0  0
  6  8  1  0  0  0  0
  8  9  1  0  0  0  0
  9 10  1  0  0  0  0
  9 35  1  0  0  0  0
  9 36  1  0  0  0  0
 10 11  1  0  0  0  0
 10 37  1  0  0  0  0
 10 38  1  0  0  0  0
 11 12  1  0  0  0  0
 12 13  1  0  0  0  0
 12 39  1  0  0  0  0
 12 40  1  0  0  0  0
 13 23  1  0  0  0  0
 13 14  1  0  0  0  0
 14 15  2  0  0  0  0
 14 41  1  0  0  0  0
 15 16  1  0  0  0  0
 16 23  2  0  0  0  0
 16 17  1  0  0  0  0
 17 18  2  0  0  0  0
 17 19  1  0  0  0  0
 19 25  1  0  0  0  0
 19 20  1  0  0  0  0
 20 21  1  0  0  0  0
 20 22  2  0  0  0  0
 21 42  1  0  0  0  0
 21 43  1  0  0  0  0
 22 23  1  0  0  0  0
M  CHG  1   5   1
M  END
> <s_m_source_file>
AV-unprocessed.smi

> <i_m_source_file_index>
50

> <i_lp_mmshare_version>
43012

> <i_f3d_flags>
0

> <s_epik_input>
W0NIM11bQ0hdKFtDSDNdKVtDQEhdKFtOSDJdKUMoPU8pT1tDSDJdW0NIMl1PW0NIMl1uKFtjSF1uMSljKGMxMiluYyhbTkgyXSlbbkhdYzI9Tw==

> <s_epik_cmdline>
J2VwaWtfcHl0aG9uJywgJy1waCcsICc3LjAnLCAnLXRuJywgJzgnLCAnLW1hJywgJzIwMCcsICctbWV0YWxfYmluZGluZycsICctaW1hZScsICc8aW5maWxlLm1hZT4nLCAnLW9tYWUnLCAnPG91dGZpbGUubWFlPic=

> <r_lp_tautomer_probability>
0.99994

> <r_epik_Ionization_Penalty>
0.217551

> <r_epik_Ionization_Penalty_Charging>
0.217477

> <r_epik_Ionization_Penalty_Neutral>
7.42487e-05

> <r_epik_State_Penalty>
0.206211

> <r_epik_Charging_Adjusted_Penalty>
0.423688

> <i_epik_Tot_Q>
1

> <i_epik_Tot_abs_Q>
1

> <r_epik_Metal_State_Penalty>
0.526339

> <b_epik_Metal_Only>
0

> <s_epik_Chemistry_Notes>
This compound has an ester and may undergo hydrolysis at high or low pH. This compound contains an acetal/aminal-like group ( X-CH(R)-Y where X, Y are N, S, or O) that may be acid/base labile, releasing an aldehyde.

> <s_lp_Force_Field>
OPLS_2005

> <r_lp_Energy>
7.49642

> <b_lp_Chiralities_Consistent>
1

> <s_lp_Variant>
AV-unprocessed.smi:50-2

> <Gold.Version>
5.8.1

> <Gold.Id.Protein>
6NUR|6NUR_protein|mol2

> <Gold.PLP.Fitness>
48.0958

> <Gold.PLP.PLP>
-34.6341

> <Gold.PLP.part.hbond>
-3.0000

> <Gold.PLP.part.metal>
0.0000

> <Gold.PLP.part.buried>
-7.6036

> <Gold.PLP.part.nonpolar>
-25.5843

> <Gold.PLP.part.repulsive>
0.6779

> <Gold.PLP.ligand.clash>
0.0000

> <Gold.PLP.ligand.torsion>
0.8783

> <Gold.PLP.Chemscore.Hbond>
4.0000

> <Gold.PLP.Chemscore.CHOScore>
1.0000

> <Gold.PLP.Chemscore.Metal>
0.0000

> <Gold.Chemscore.Hbonds>
donor molecule, donor type, donor heavy atom, donor atom, acceptor molecule, acceptor atom, score
      L1  H     5    44       P1  8028  2.00
      P1  H  7989  7998       L1     7  1.00
      P1  H 10752 10764       L1    11  1.00
      L1  C    14    41       P1  7948  0.72

> <Gold.PLP.Chemscore.Internal.Correction>
0.2183

> <Gold.Rescore>
     Score         DG    S(hbond)    S(metal)    S(lipo)     H(rot)  DE(clash)    DE(int)     intcor
      4.17      -7.85       2.86        0.00      44.92       4.86       0.00       3.67       ----

> <Gold.Chemscore.Fitness>
4.1716

> <Gold.Chemscore.DG>
-7.8475

> <Gold.Chemscore.ZeroCoef>
-5.4800

> <Gold.Chemscore.Hbond>
2.8581

> <Gold.Chemscore.Metal>
0.0000

> <Gold.Chemscore.Lipo>
44.9216

> <Gold.Chemscore.Internal_Hbond>
0.0000

> <Gold.Chemscore.DEClash>
0.0009

> <Gold.Chemscore.DEInternal>
3.6750

> <Gold.Chemscore.Rot>
4.8571

> <Gold.Chemscore.Internal.Correction>
   9.000000E+99

> <Gold.Chemscore.Hbonds>
donor molecule, donor type, donor heavy atom, donor atom, acceptor molecule, acceptor atom, score
      L1  H     5    44       P1  8028  0.99
      P1  H  7989  7998       L1     7  0.87
      P1  H 10752 10764       L1    11  0.34

> <Gold.Chemscore.Hbond.Weighted>
-9.5460

> <Gold.Chemscore.Metal.Weighted>
-0.0000

> <Gold.Chemscore.Lipo.Weighted>
-5.2558

> <Gold.Chemscore.Internal_Hbond.Weighted>
0.0000

> <Gold.Chemscore.DEClash.Weighted>
0.0009

> <Gold.Chemscore.DEInternal.Weighted>
3.6750

> <Gold.Chemscore.Rot.Weighted>
12.4343

> <Gold.Chemscore.Internal.Correction.Weighted>
   9.000000E+99

> <Gold.Protein.RotatedTorsions>
[ 6907 6896 6895 6894 ] final  138.82 input  -60.11 | X-H torsion
[ 7974 7965 7964 7962 ] final -114.00 input  175.53 | X-H torsion
[ 8008 7997 7996 7995 ] final  -41.70 input   59.86 | X-H torsion
[ 10167 10162 10161 10158 ] final -105.29 input  -65.29 | X-H torsion
[ 10718 10713 10712 10709 ] final -112.10 input   66.30 | X-H torsion
[ 10763 10752 10751 10750 ] final  -75.29 input  -60.55 | X-H torsion
[ 11005 11000 10999 10996 ] final  137.05 input  -57.11 | X-H torsion

> <Gold.Protein.ActiveResidues>
 VAL166  LYS551  ARG553  GLY616  TRP617  ASP618  TYR619  PRO620  LYS621  CYS622 
 ASP623  PHE694  ASN695  SER759  ASP760  ASP761  ALA762  ILE779  LEU786  VAL792 
 PHE793  MET794  SER795  GLU796  ALA797  LYS798  CYS799  TRP800  GLU811  SER814 

> <Gold.Protein.RotatedAtoms>
  152.2621  133.5307  159.5387 H   0  0  0  0  0  0  0  0  0  0  0  0  # atno 6907 bound_to 6896
  150.7129  134.0815  159.3908 H   0  0  0  0  0  0  0  0  0  0  0  0  # atno 6908 bound_to 6896
  151.8732  135.0481  160.0532 H   0  0  0  0  0  0  0  0  0  0  0  0  # atno 6909 bound_to 6896
  145.1253  140.8693  143.3789 H   0  0  0  0  0  0  0  0  0  0  0  0  # atno 7974 bound_to 7965
  154.4002  140.1492  156.3234 H   0  0  0  0  0  0  0  0  0  0  0  0  # atno 8008 bound_to 7997
  155.8509  140.3458  155.5671 H   0  0  0  0  0  0  0  0  0  0  0  0  # atno 8009 bound_to 7997
  155.7985  140.0867  157.1960 H   0  0  0  0  0  0  0  0  0  0  0  0  # atno 8010 bound_to 7997
  140.2001  143.3825  152.1136 H   0  0  0  0  0  0  0  0  0  0  0  0  # atno 10167 bound_to 10162
  156.0685  130.5902  150.8462 H   0  0  0  0  0  0  0  0  0  0  0  0  # atno 10718 bound_to 10713
  154.4845  135.5836  153.6414 H   0  0  0  0  0  0  0  0  0  0  0  0  # atno 10763 bound_to 10752
  152.9852  135.6098  154.3203 H   0  0  0  0  0  0  0  0  0  0  0  0  # atno 10764 bound_to 10752
  154.3098  135.2845  155.2551 H   0  0  0  0  0  0  0  0  0  0  0  0  # atno 10765 bound_to 10752
  140.0087  134.9448  157.0231 H   0  0  0  0  0  0  0  0  0  0  0  0  # atno 11005 bound_to 11000
  145.0694  139.3043  143.5839 LP  0  0  0  0  0  0  0  0  0  0  0  0  # atno 17320 bound_to 7965
  146.3518  140.0164  142.8662 LP  0  0  0  0  0  0  0  0  0  0  0  0  # atno 17321 bound_to 7965
  139.5220  144.7054  151.5370 LP  0  0  0  0  0  0  0  0  0  0  0  0  # atno 17342 bound_to 10162
  140.6396  143.8915  150.6679 LP  0  0  0  0  0  0  0  0  0  0  0  0  # atno 17343 bound_to 10162
  157.5742  131.0946  150.9371 LP  0  0  0  0  0  0  0  0  0  0  0  0  # atno 17370 bound_to 10713
  156.9580  130.5444  149.5285 LP  0  0  0  0  0  0  0  0  0  0  0  0  # atno 17371 bound_to 10713
  140.4594  134.1500  155.7189 LP  0  0  0  0  0  0  0  0  0  0  0  0  # atno 17394 bound_to 11000
  141.1695  133.8636  157.1612 LP  0  0  0  0  0  0  0  0  0  0  0  0  # atno 17395 bound_to 11000

$$$$
