AV-unprocessed.smi:2462|AV-procd|sdf|9718|dock1
  -GOLD-   2272013353D 1   1.00000     0.00000
 Structure written by MMmdl.
 40 41  0  0  0  0  0  0  0  0  1 V2000
  145.4796  135.7770  150.8147 C   0  0  0  0  0  0  0  0  0  0  0  0
  145.8279  136.9515  151.7120 C   0  0  0  0  0  0  0  0  0  0  0  0
  146.6665  137.9153  151.1461 N   0  0  0  0  0  0  0  0  0  0  0  0
  147.0009  138.9599  151.8303 C   0  0  0  0  0  0  0  0  0  0  0  0
  146.5411  139.1648  153.1438 N   0  0  0  0  0  0  0  0  0  0  0  0
  146.9872  140.4019  153.8174 C   0  0  0  0  0  0  0  0  0  0  0  0
  148.4901  140.4232  154.2303 C   0  0  1  0  0  0  0  0  0  0  0  0
  149.2088  141.0223  153.1678 O   0  0  0  0  0  0  0  0  0  0  0  0
  148.6713  141.3482  155.4587 C   0  0  0  0  0  0  0  0  0  0  0  0
  150.1179  141.3909  155.9841 C   0  0  0  0  0  0  0  0  0  0  0  0
  150.6481  139.9816  156.2987 C   0  0  2  0  0  0  0  0  0  0  0  0
  152.0868  140.0274  156.8320 C   0  0  0  0  0  0  0  0  0  0  0  0
  150.5361  139.0861  155.0531 C   0  0  0  0  0  0  0  0  0  0  0  0
  149.0926  139.0252  154.5226 C   0  0  0  0  0  0  0  0  0  0  0  0
  145.7537  138.2515  153.7835 C   0  0  0  0  0  0  0  0  0  0  0  0
  145.3962  138.4077  154.9522 O   0  0  0  0  0  0  0  0  0  0  0  0
  145.3649  137.0774  152.9854 C   0  0  0  0  0  0  0  0  0  0  0  0
  144.4479  136.0600  153.6531 C   0  0  0  0  0  0  0  0  0  0  0  0
  145.7886  134.8381  151.2750 H   0  0  0  0  0  0  0  0  0  0  0  0
  145.9779  135.8539  149.8475 H   0  0  0  0  0  0  0  0  0  0  0  0
  144.4049  135.7413  150.6347 H   0  0  0  0  0  0  0  0  0  0  0  0
  147.6481  139.7423  151.4305 H   0  0  0  0  0  0  0  0  0  0  0  0
  146.7541  141.2732  153.2020 H   0  0  0  0  0  0  0  0  0  0  0  0
  146.3776  140.5558  154.7099 H   0  0  0  0  0  0  0  0  0  0  0  0
  149.1642  140.4512  152.4162 H   0  0  0  0  0  0  0  0  0  0  0  0
  148.3382  142.3598  155.2220 H   0  0  0  0  0  0  0  0  0  0  0  0
  148.0261  141.0027  156.2678 H   0  0  0  0  0  0  0  0  0  0  0  0
  150.7640  141.8755  155.2508 H   0  0  0  0  0  0  0  0  0  0  0  0
  150.1578  142.0109  156.8804 H   0  0  0  0  0  0  0  0  0  0  0  0
  150.0209  139.5513  157.0811 H   0  0  0  0  0  0  0  0  0  0  0  0
  152.7700  140.4525  156.0961 H   0  0  0  0  0  0  0  0  0  0  0  0
  152.4455  139.0282  157.0811 H   0  0  0  0  0  0  0  0  0  0  0  0
  152.1511  140.6344  157.7355 H   0  0  0  0  0  0  0  0  0  0  0  0
  151.2007  139.4547  154.2705 H   0  0  0  0  0  0  0  0  0  0  0  0
  150.8754  138.0770  155.2897 H   0  0  0  0  0  0  0  0  0  0  0  0
  148.4741  138.5156  155.2624 H   0  0  0  0  0  0  0  0  0  0  0  0
  149.0730  138.4039  153.6265 H   0  0  0  0  0  0  0  0  0  0  0  0
  143.5254  136.5421  153.9791 H   0  0  0  0  0  0  0  0  0  0  0  0
  144.9354  135.6341  154.5309 H   0  0  0  0  0  0  0  0  0  0  0  0
  144.1705  135.2357  152.9981 H   0  0  0  0  0  0  0  0  0  0  0  0
  1  2  1  0  0  0  0
  1 19  1  0  0  0  0
  1 20  1  0  0  0  0
  1 21  1  0  0  0  0
  2 17  2  0  0  0  0
  2  3  1  0  0  0  0
  3  4  2  0  0  0  0
  4  5  1  0  0  0  0
  4 22  1  0  0  0  0
  5  6  1  0  0  0  0
  5 15  1  0  0  0  0
  6  7  1  0  0  0  0
  6 23  1  0  0  0  0
  6 24  1  0  0  0  0
  7 14  1  0  0  0  0
  7  8  1  0  0  0  0
  7  9  1  0  0  0  0
  8 25  1  0  0  0  0
  9 10  1  0  0  0  0
  9 26  1  0  0  0  0
  9 27  1  0  0  0  0
 10 11  1  0  0  0  0
 10 28  1  0  0  0  0
 10 29  1  0  0  0  0
 11 12  1  0  0  0  0
 11 13  1  0  0  0  0
 11 30  1  0  0  0  0
 12 31  1  0  0  0  0
 12 32  1  0  0  0  0
 12 33  1  0  0  0  0
 13 14  1  0  0  0  0
 13 34  1  0  0  0  0
 13 35  1  0  0  0  0
 14 36  1  0  0  0  0
 14 37  1  0  0  0  0
 15 16  2  0  0  0  0
 15 17  1  0  0  0  0
 17 18  1  0  0  0  0
 18 38  1  0  0  0  0
 18 39  1  0  0  0  0
 18 40  1  0  0  0  0
M  END
> <s_m_source_file>
AV-unprocessed.smi

> <i_m_source_file_index>
2462

> <i_lp_mmshare_version>
43012

> <i_f3d_flags>
0

> <s_epik_input>
W0NIM11jMW5bY0hdbihjKD1PKWMxW0NIM10pW0NIMl1bQ0BAXTIoW09IXSlbQ0gyXVtDSDJdW0NAQEhdKFtDSDNdKVtDSDJdW0NIMl0y

> <s_epik_cmdline>
J2VwaWtfcHl0aG9uJywgJy1waCcsICc3LjAnLCAnLXRuJywgJzgnLCAnLW1hJywgJzIwMCcsICctbWV0YWxfYmluZGluZycsICctaW1hZScsICc8aW5maWxlLm1hZT4nLCAnLW9tYWUnLCAnPG91dGZpbGUubWFlPic=

> <r_lp_tautomer_probability>
1

> <r_epik_Ionization_Penalty>
0.000179745

> <r_epik_Ionization_Penalty_Charging>
2.35483e-07

> <r_epik_Ionization_Penalty_Neutral>
0.00017951

> <r_epik_State_Penalty>
-0

> <r_epik_Charging_Adjusted_Penalty>
2.35483e-07

> <i_epik_Tot_Q>
0

> <i_epik_Tot_abs_Q>
0

> <r_epik_Metal_State_Penalty>
-0

> <b_epik_Metal_Only>
0

> <s_lp_Force_Field>
OPLS_2005

> <r_lp_Energy>
24.8563

> <b_lp_Chiralities_Consistent>
1

> <s_lp_Variant>
AV-unprocessed.smi:2462-2

> <Gold.Version>
5.8.1

> <Gold.Id.Protein>
6NUR|6NUR_protein|mol2

> <Gold.PLP.Fitness>
38.0951

> <Gold.PLP.PLP>
-28.9535

> <Gold.PLP.part.hbond>
-3.2189

> <Gold.PLP.part.metal>
0.0000

> <Gold.PLP.part.buried>
-0.4634

> <Gold.PLP.part.nonpolar>
-28.4411

> <Gold.PLP.part.repulsive>
1.7137

> <Gold.PLP.ligand.clash>
0.0000

> <Gold.PLP.ligand.torsion>
0.7225

> <Gold.PLP.Chemscore.Hbond>
2.5076

> <Gold.PLP.Chemscore.CHOScore>
1.0000

> <Gold.PLP.Chemscore.Metal>
0.0000

> <Gold.Chemscore.Hbonds>
donor molecule, donor type, donor heavy atom, donor atom, acceptor molecule, acceptor atom, score
      L1  H     8    25       P1  7957  0.65
      P1  H  7954  7966       L1     3  0.95
      P1  H  7989  7998       L1     8  0.01
      P1  H  8011  8017       L1     8  0.80
      L1  C     4    22       P1  7957  0.81

> <Gold.PLP.Chemscore.Internal.Correction>
0.0636

> <Gold.Rescore>
     Score         DG    S(hbond)    S(metal)    S(lipo)     H(rot)  DE(clash)    DE(int)     intcor
     12.48     -14.56       1.67        0.00      66.54       1.68       1.25       0.83       ----

> <Gold.Chemscore.Fitness>
12.4821

> <Gold.Chemscore.DG>
-14.5625

> <Gold.Chemscore.ZeroCoef>
-5.4800

> <Gold.Chemscore.Hbond>
1.6728

> <Gold.Chemscore.Metal>
0.0000

> <Gold.Chemscore.Lipo>
66.5398

> <Gold.Chemscore.Internal_Hbond>
0.0000

> <Gold.Chemscore.DEClash>
1.2456

> <Gold.Chemscore.DEInternal>
0.8349

> <Gold.Chemscore.Rot>
1.6758

> <Gold.Chemscore.Internal.Correction>
   9.000000E+99

> <Gold.Chemscore.Hbonds>
donor molecule, donor type, donor heavy atom, donor atom, acceptor molecule, acceptor atom, score
      L1  H     8    25       P1  7957  0.62
      P1  H  7954  7966       L1     3  0.21
      P1  H  8011  8017       L1     8  0.12

> <Gold.Chemscore.Hbond.Weighted>
-5.5873

> <Gold.Chemscore.Metal.Weighted>
-0.0000

> <Gold.Chemscore.Lipo.Weighted>
-7.7852

> <Gold.Chemscore.Internal_Hbond.Weighted>
0.0000

> <Gold.Chemscore.DEClash.Weighted>
1.2456

> <Gold.Chemscore.DEInternal.Weighted>
0.8349

> <Gold.Chemscore.Rot.Weighted>
4.2899

> <Gold.Chemscore.Internal.Correction.Weighted>
   9.000000E+99

> <Gold.Protein.RotatedTorsions>
[ 6907 6896 6895 6894 ] final  174.01 input  -60.11 | X-H torsion
[ 7974 7965 7964 7962 ] final -142.80 input  175.53 | X-H torsion
[ 8008 7997 7996 7995 ] final  -80.21 input   59.86 | X-H torsion
[ 10167 10162 10161 10158 ] final   -2.66 input  -65.29 | X-H torsion
[ 10718 10713 10712 10709 ] final  -66.62 input   66.30 | X-H torsion
[ 10763 10752 10751 10750 ] final  127.45 input  -60.55 | X-H torsion
[ 11005 11000 10999 10996 ] final  115.32 input  -57.11 | X-H torsion

> <Gold.Protein.ActiveResidues>
 VAL166  LYS551  ARG553  GLY616  TRP617  ASP618  TYR619  PRO620  LYS621  CYS622 
 ASP623  PHE694  ASN695  SER759  ASP760  ASP761  ALA762  ILE779  LEU786  VAL792 
 PHE793  MET794  SER795  GLU796  ALA797  LYS798  CYS799  TRP800  GLU811  SER814 

> <Gold.Protein.RotatedAtoms>
  151.7592  133.3332  159.3412 H   0  0  0  0  0  0  0  0  0  0  0  0  # atno 6907 bound_to 6896
  150.7505  134.6121  159.6101 H   0  0  0  0  0  0  0  0  0  0  0  0  # atno 6908 bound_to 6896
  152.3417  134.7128  160.0313 H   0  0  0  0  0  0  0  0  0  0  0  0  # atno 6909 bound_to 6896
  144.8417  140.5914  143.5448 H   0  0  0  0  0  0  0  0  0  0  0  0  # atno 7974 bound_to 7965
  154.5861  140.0666  156.9173 H   0  0  0  0  0  0  0  0  0  0  0  0  # atno 8008 bound_to 7997
  155.2377  140.3342  155.4277 H   0  0  0  0  0  0  0  0  0  0  0  0  # atno 8009 bound_to 7997
  156.2223  140.1804  156.7431 H   0  0  0  0  0  0  0  0  0  0  0  0  # atno 8010 bound_to 7997
  140.6859  143.6631  150.8249 H   0  0  0  0  0  0  0  0  0  0  0  0  # atno 10167 bound_to 10162
  156.0602  130.4265  150.1735 H   0  0  0  0  0  0  0  0  0  0  0  0  # atno 10718 bound_to 10713
  153.7097  135.3270  155.3243 H   0  0  0  0  0  0  0  0  0  0  0  0  # atno 10763 bound_to 10752
  154.8388  135.4474  154.1327 H   0  0  0  0  0  0  0  0  0  0  0  0  # atno 10764 bound_to 10752
  153.2417  135.6971  153.7855 H   0  0  0  0  0  0  0  0  0  0  0  0  # atno 10765 bound_to 10752
  139.9006  134.9582  156.7028 H   0  0  0  0  0  0  0  0  0  0  0  0  # atno 11005 bound_to 11000
  145.4681  139.1506  143.3829 LP  0  0  0  0  0  0  0  0  0  0  0  0  # atno 17320 bound_to 7965
  146.2708  140.4814  142.8815 LP  0  0  0  0  0  0  0  0  0  0  0  0  # atno 17321 bound_to 7965
  140.0338  143.5416  152.2748 LP  0  0  0  0  0  0  0  0  0  0  0  0  # atno 17342 bound_to 10162
  139.6218  144.7630  151.2723 LP  0  0  0  0  0  0  0  0  0  0  0  0  # atno 17343 bound_to 10162
  156.9805  130.9862  151.3438 LP  0  0  0  0  0  0  0  0  0  0  0  0  # atno 17370 bound_to 10713
  157.5605  130.8242  149.8259 LP  0  0  0  0  0  0  0  0  0  0  0  0  # atno 17371 bound_to 10713
  140.7137  133.9201  155.8101 LP  0  0  0  0  0  0  0  0  0  0  0  0  # atno 17394 bound_to 11000
  141.0281  134.0795  157.4046 LP  0  0  0  0  0  0  0  0  0  0  0  0  # atno 17395 bound_to 11000

$$$$
