AV-unprocessed.smi:1053|AV-procd|sdf|4618|dock10
  -GOLD-   22720 3123D 1   1.00000     0.00000
 Structure written by MMmdl.
 38 39  0  0  0  0  0  0  0  0  2 V2000
  150.5805  135.2036  155.1824 C   0  0  0  0  0  0  0  0  0  0  0  0
  149.7966  136.5196  155.2854 C   0  0  0  0  0  0  0  0  0  0  0  0
  150.0702  137.4354  154.1460 N   0  3  2  0  0  0  0  0  0  0  0  0
  151.4895  137.8556  154.0524 C   0  0  0  0  0  0  0  0  0  0  0  0
  151.8122  138.9563  155.0784 C   0  0  0  0  0  0  0  0  0  0  0  0
  150.9312  140.0552  154.8828 O   0  0  0  0  0  0  0  0  0  0  0  0
  149.5655  139.7062  155.0888 C   0  0  1  0  0  0  0  0  0  0  0  0
  148.7177  140.9731  154.9127 C   0  0  0  0  0  0  0  0  0  0  0  0
  149.2935  142.1093  155.6161 N   0  0  0  0  0  0  0  0  0  0  0  0
  149.9160  142.0221  156.8465 C   0  0  0  0  0  0  0  0  0  0  0  0
  149.8261  140.8368  157.4535 N   0  0  0  0  0  0  0  0  0  0  0  0
  150.4249  140.7177  158.6585 C   0  0  0  0  0  0  0  0  0  0  0  0
  151.1155  141.7918  159.2541 C   0  0  0  0  0  0  0  0  0  0  0  0
  151.1463  142.9997  158.5220 C   0  0  0  0  0  0  0  0  0  0  0  0
  151.8547  144.2428  159.0387 C   0  0  0  0  0  0  0  0  0  0  0  0
  152.4644  144.0119  160.2019 F   0  0  0  0  0  0  0  0  0  0  0  0
  152.7691  144.6391  158.1534 F   0  0  0  0  0  0  0  0  0  0  0  0
  150.9699  145.2248  159.2122 F   0  0  0  0  0  0  0  0  0  0  0  0
  150.5419  143.1068  157.3158 N   0  0  0  0  0  0  0  0  0  0  0  0
  149.1742  138.6180  154.0646 C   0  0  0  0  0  0  0  0  0  0  0  0
  150.4372  134.6014  156.0799 H   0  0  0  0  0  0  0  0  0  0  0  0
  151.6500  135.3890  155.0781 H   0  0  0  0  0  0  0  0  0  0  0  0
  150.2587  134.5986  154.3354 H   0  0  0  0  0  0  0  0  0  0  0  0
  148.7293  136.3210  155.3808 H   0  0  0  0  0  0  0  0  0  0  0  0
  150.0987  137.0091  156.2121 H   0  0  0  0  0  0  0  0  0  0  0  0
  152.1560  137.0012  154.1760 H   0  0  0  0  0  0  0  0  0  0  0  0
  151.6680  138.2390  153.0468 H   0  0  0  0  0  0  0  0  0  0  0  0
  151.7335  138.5841  156.1008 H   0  0  0  0  0  0  0  0  0  0  0  0
  152.8377  139.3014  154.9456 H   0  0  0  0  0  0  0  0  0  0  0  0
  149.4291  139.3302  156.1040 H   0  0  0  0  0  0  0  0  0  0  0  0
  148.6096  141.2130  153.8541 H   0  0  0  0  0  0  0  0  0  0  0  0
  147.7153  140.8014  155.3068 H   0  0  0  0  0  0  0  0  0  0  0  0
  149.1898  143.0299  155.2144 H   0  0  0  0  0  0  0  0  0  0  0  0
  150.3526  139.7592  159.1508 H   0  0  0  0  0  0  0  0  0  0  0  0
  151.5918  141.6873  160.2176 H   0  0  0  0  0  0  0  0  0  0  0  0
  149.2532  139.0287  153.0570 H   0  0  0  0  0  0  0  0  0  0  0  0
  148.1315  138.3281  154.1888 H   0  0  0  0  0  0  0  0  0  0  0  0
  149.8923  136.8834  153.3187 H   0  0  0  0  0  0  0  0  0  0  0  0
  1  2  1  0  0  0  0
  1 21  1  0  0  0  0
  1 22  1  0  0  0  0
  1 23  1  0  0  0  0
  2  3  1  0  0  0  0
  2 24  1  0  0  0  0
  2 25  1  0  0  0  0
  3 20  1  0  0  0  0
  3  4  1  0  0  0  0
  3 38  1  0  0  0  0
  4  5  1  0  0  0  0
  4 26  1  0  0  0  0
  4 27  1  0  0  0  0
  5  6  1  0  0  0  0
  5 28  1  0  0  0  0
  5 29  1  0  0  0  0
  6  7  1  0  0  0  0
  7  8  1  0  0  0  0
  7 20  1  0  0  0  0
  7 30  1  0  0  0  0
  8  9  1  0  0  0  0
  8 31  1  0  0  0  0
  8 32  1  0  0  0  0
  9 10  1  0  0  0  0
  9 33  1  0  0  0  0
 10 19  1  0  0  0  0
 10 11  2  0  0  0  0
 11 12  1  0  0  0  0
 12 13  2  0  0  0  0
 12 34  1  0  0  0  0
 13 14  1  0  0  0  0
 13 35  1  0  0  0  0
 14 15  1  0  0  0  0
 14 19  2  0  0  0  0
 15 16  1  0  0  0  0
 15 17  1  0  0  0  0
 15 18  1  0  0  0  0
 20 36  1  0  0  0  0
 20 37  1  0  0  0  0
M  CHG  1   3   1
M  END
> <s_m_source_file>
AV-unprocessed.smi

> <i_m_source_file_index>
1053

> <i_lp_mmshare_version>
43012

> <i_f3d_flags>
0

> <s_epik_input>
W0NIM11bQ0gyXU4xW0NIMl1bQ0gyXU9bQ0BIXShbQ0gyXTEpW0NIMl1bTkhdYzJuW2NIXVtjSF1jKG4yKUMoRikoRilG

> <s_epik_cmdline>
J2VwaWtfcHl0aG9uJywgJy1waCcsICc3LjAnLCAnLXRuJywgJzgnLCAnLW1hJywgJzIwMCcsICctbWV0YWxfYmluZGluZycsICctaW1hZScsICc8aW5maWxlLm1hZT4nLCAnLW9tYWUnLCAnPG91dGZpbGUubWFlPic=

> <r_lp_tautomer_probability>
1

> <r_epik_Ionization_Penalty>
0.178506

> <r_epik_Ionization_Penalty_Charging>
0.178504

> <r_epik_Ionization_Penalty_Neutral>
2.47619e-06

> <r_epik_State_Penalty>
0.167974

> <r_epik_Charging_Adjusted_Penalty>
0.346478

> <i_epik_Tot_Q>
1

> <i_epik_Tot_abs_Q>
1

> <r_epik_Metal_State_Penalty>
0.167974

> <b_epik_Metal_Only>
0

> <s_lp_Force_Field>
OPLS_2005

> <r_lp_Energy>
12.5681

> <b_lp_Chiralities_Consistent>
1

> <s_lp_Variant>
AV-unprocessed.smi:1053-2

> <Gold.Version>
5.8.1

> <Gold.Id.Protein>
6NUR|6NUR_protein|mol2

> <Gold.PLP.Fitness>
45.6416

> <Gold.PLP.PLP>
-38.8430

> <Gold.PLP.part.hbond>
-3.4653

> <Gold.PLP.part.metal>
0.0000

> <Gold.PLP.part.buried>
-4.4498

> <Gold.PLP.part.nonpolar>
-33.8152

> <Gold.PLP.part.repulsive>
2.4323

> <Gold.PLP.ligand.clash>
4.1305

> <Gold.PLP.ligand.torsion>
0.3241

> <Gold.PLP.Chemscore.Hbond>
3.8480

> <Gold.PLP.Chemscore.CHOScore>
0.0000

> <Gold.PLP.Chemscore.Metal>
0.0000

> <Gold.Chemscore.Hbonds>
donor molecule, donor type, donor heavy atom, donor atom, acceptor molecule, acceptor atom, score
      L1  H     3    38       P1  7948  2.00
      L1  H     9    33       P1  8028  0.86
      P1  H  7989  7998       L1     6  1.00

> <Gold.PLP.Chemscore.Internal.Correction>
0.0333

> <Gold.Rescore>
     Score         DG    S(hbond)    S(metal)    S(lipo)     H(rot)  DE(clash)    DE(int)     intcor
     13.58     -17.08       2.01        0.00      75.72       1.55       0.11       3.39       ----

> <Gold.Chemscore.Fitness>
13.5844

> <Gold.Chemscore.DG>
-17.0844

> <Gold.Chemscore.ZeroCoef>
-5.4800

> <Gold.Chemscore.Hbond>
2.0136

> <Gold.Chemscore.Metal>
0.0000

> <Gold.Chemscore.Lipo>
75.7233

> <Gold.Chemscore.Internal_Hbond>
0.0000

> <Gold.Chemscore.DEClash>
0.1114

> <Gold.Chemscore.DEInternal>
3.3887

> <Gold.Chemscore.Rot>
1.5549

> <Gold.Chemscore.Internal.Correction>
   9.000000E+99

> <Gold.Chemscore.Hbonds>
donor molecule, donor type, donor heavy atom, donor atom, acceptor molecule, acceptor atom, score
      L1  H     3    38       P1  7948  0.25
      L1  H     9    33       P1  8028  0.85
      P1  H  7989  7998       L1     6  0.40

> <Gold.Chemscore.Hbond.Weighted>
-6.7253

> <Gold.Chemscore.Metal.Weighted>
-0.0000

> <Gold.Chemscore.Lipo.Weighted>
-8.8596

> <Gold.Chemscore.Internal_Hbond.Weighted>
0.0000

> <Gold.Chemscore.DEClash.Weighted>
0.1114

> <Gold.Chemscore.DEInternal.Weighted>
3.3887

> <Gold.Chemscore.Rot.Weighted>
3.9806

> <Gold.Chemscore.Internal.Correction.Weighted>
   9.000000E+99

> <Gold.Protein.RotatedTorsions>
[ 6907 6896 6895 6894 ] final  -44.60 input  -60.11 | X-H torsion
[ 7974 7965 7964 7962 ] final  155.07 input  175.53 | X-H torsion
[ 8008 7997 7996 7995 ] final   63.34 input   59.86 | X-H torsion
[ 10167 10162 10161 10158 ] final   94.47 input  -65.29 | X-H torsion
[ 10718 10713 10712 10709 ] final   -6.44 input   66.30 | X-H torsion
[ 10763 10752 10751 10750 ] final -175.74 input  -60.55 | X-H torsion
[ 11005 11000 10999 10996 ] final -143.27 input  -57.11 | X-H torsion

> <Gold.Protein.ActiveResidues>
 VAL166  LYS551  ARG553  GLY616  TRP617  ASP618  TYR619  PRO620  LYS621  CYS622 
 ASP623  PHE694  ASN695  SER759  ASP760  ASP761  ALA762  ILE779  LEU786  VAL792 
 PHE793  MET794  SER795  GLU796  ALA797  LYS798  CYS799  TRP800  GLU811  SER814 

> <Gold.Protein.RotatedAtoms>
  150.9311  134.8725  159.7551 H   0  0  0  0  0  0  0  0  0  0  0  0  # atno 6907 bound_to 6896
  152.5038  134.4078  159.9448 H   0  0  0  0  0  0  0  0  0  0  0  0  # atno 6908 bound_to 6896
  151.4105  133.3689  159.2778 H   0  0  0  0  0  0  0  0  0  0  0  0  # atno 6909 bound_to 6896
  144.8048  139.7018  143.6166 H   0  0  0  0  0  0  0  0  0  0  0  0  # atno 7974 bound_to 7965
  155.6286  140.3496  155.4675 H   0  0  0  0  0  0  0  0  0  0  0  0  # atno 8008 bound_to 7997
  156.0021  140.1215  157.0561 H   0  0  0  0  0  0  0  0  0  0  0  0  # atno 8009 bound_to 7997
  154.4252  140.1098  156.5697 H   0  0  0  0  0  0  0  0  0  0  0  0  # atno 8010 bound_to 7997
  139.8080  144.6785  150.9677 H   0  0  0  0  0  0  0  0  0  0  0  0  # atno 10167 bound_to 10162
  156.7318  130.5182  149.5844 H   0  0  0  0  0  0  0  0  0  0  0  0  # atno 10718 bound_to 10713
  154.5807  135.2836  155.0735 H   0  0  0  0  0  0  0  0  0  0  0  0  # atno 10763 bound_to 10752
  154.2073  135.6414  153.5108 H   0  0  0  0  0  0  0  0  0  0  0  0  # atno 10764 bound_to 10752
  153.0087  135.5483  154.6460 H   0  0  0  0  0  0  0  0  0  0  0  0  # atno 10765 bound_to 10752
  140.8142  134.2708  157.4928 H   0  0  0  0  0  0  0  0  0  0  0  0  # atno 11005 bound_to 11000
  146.2337  139.5864  142.9538 LP  0  0  0  0  0  0  0  0  0  0  0  0  # atno 17320 bound_to 7965
  145.5465  141.0417  143.2302 LP  0  0  0  0  0  0  0  0  0  0  0  0  # atno 17321 bound_to 7965
  140.7818  143.4214  151.0836 LP  0  0  0  0  0  0  0  0  0  0  0  0  # atno 17342 bound_to 10162
  139.7882  143.8257  152.3148 LP  0  0  0  0  0  0  0  0  0  0  0  0  # atno 17343 bound_to 10162
  156.1523  130.6318  151.0612 LP  0  0  0  0  0  0  0  0  0  0  0  0  # atno 17370 bound_to 10713
  157.6855  131.0826  150.7253 LP  0  0  0  0  0  0  0  0  0  0  0  0  # atno 17371 bound_to 10713
  139.8712  134.9500  156.4042 LP  0  0  0  0  0  0  0  0  0  0  0  0  # atno 17394 bound_to 11000
  140.9166  133.7674  155.9856 LP  0  0  0  0  0  0  0  0  0  0  0  0  # atno 17395 bound_to 11000

$$$$
