AV-unprocessed.smi:643|AV-procd|sdf|3153|dock4
  -GOLD-   22720 0 73D 1   1.00000     0.00000
 Structure written by MMmdl.
 40 41  0  0  0  0  0  0  0  0  1 V2000
  146.0907  133.2236  152.1430 C   0  0  0  0  0  0  0  0  0  0  0  0
  145.0860  134.2847  151.6426 C   0  0  0  0  0  0  0  0  0  0  0  0
  143.6753  133.6565  151.6462 C   0  0  0  0  0  0  0  0  0  0  0  0
  145.1005  135.5396  152.5300 C   0  0  0  0  0  0  0  0  0  0  0  0
  144.5132  136.6623  151.6706 C   0  0  0  0  0  0  0  0  0  0  0  0
  144.7917  136.2719  150.2128 C   0  0  0  0  0  0  0  0  0  0  0  0
  145.4036  134.8579  150.2366 C   0  0  1  0  0  0  0  0  0  0  0  0
  146.8437  134.9497  149.9826 N   0  0  0  0  0  0  0  0  0  0  0  0
  147.4987  134.4003  148.9492 C   0  0  0  0  0  0  0  0  0  0  0  0
  146.9503  133.7427  148.0650 O   0  0  0  0  0  0  0  0  0  0  0  0
  148.8150  134.6605  149.0200 N   0  0  0  0  0  0  0  0  0  0  0  0
  149.8445  134.2512  148.1331 C   0  0  0  0  0  0  0  0  0  0  0  0
  150.8946  135.0743  147.6256 C   0  0  0  0  0  0  0  0  0  0  0  0
  151.6059  134.2201  146.8322 C   0  0  0  0  0  0  0  0  0  0  0  0
  150.9909  132.9864  146.8946 N   0  0  0  0  0  0  0  0  0  0  0  0
  151.3685  131.7572  146.2246 C   0  0  0  0  0  0  0  0  0  0  0  0
  150.2357  131.2128  145.3442 C   0  0  0  0  0  0  0  0  0  0  0  0
  149.9258  132.1013  144.4008 F   0  0  0  0  0  0  0  0  0  0  0  0
  150.5995  130.0695  144.7634 F   0  0  0  0  0  0  0  0  0  0  0  0
  149.9056  133.0038  147.6986 N   0  0  0  0  0  0  0  0  0  0  0  0
  145.7963  132.8341  153.1180 H   0  0  0  0  0  0  0  0  0  0  0  0
  147.0978  133.6264  152.2546 H   0  0  0  0  0  0  0  0  0  0  0  0
  146.1462  132.3798  151.4544 H   0  0  0  0  0  0  0  0  0  0  0  0
  142.9131  134.3546  151.2995 H   0  0  0  0  0  0  0  0  0  0  0  0
  143.3881  133.3317  152.6468 H   0  0  0  0  0  0  0  0  0  0  0  0
  143.6335  132.7822  150.9956 H   0  0  0  0  0  0  0  0  0  0  0  0
  144.5578  135.4057  153.4665 H   0  0  0  0  0  0  0  0  0  0  0  0
  146.1284  135.7970  152.7897 H   0  0  0  0  0  0  0  0  0  0  0  0
  143.4370  136.7322  151.8331 H   0  0  0  0  0  0  0  0  0  0  0  0
  144.9430  137.6314  151.9253 H   0  0  0  0  0  0  0  0  0  0  0  0
  143.8575  136.2675  149.6501 H   0  0  0  0  0  0  0  0  0  0  0  0
  145.4460  136.9963  149.7252 H   0  0  0  0  0  0  0  0  0  0  0  0
  144.9329  134.2425  149.4679 H   0  0  0  0  0  0  0  0  0  0  0  0
  147.3838  135.4716  150.6569 H   0  0  0  0  0  0  0  0  0  0  0  0
  149.1217  135.2033  149.8138 H   0  0  0  0  0  0  0  0  0  0  0  0
  151.1068  136.1177  147.8032 H   0  0  0  0  0  0  0  0  0  0  0  0
  152.4909  134.3853  146.2355 H   0  0  0  0  0  0  0  0  0  0  0  0
  152.2554  131.9528  145.6201 H   0  0  0  0  0  0  0  0  0  0  0  0
  151.6547  131.0199  146.9758 H   0  0  0  0  0  0  0  0  0  0  0  0
  149.3296  131.0205  145.9196 H   0  0  0  0  0  0  0  0  0  0  0  0
  1  2  1  0  0  0  0
  1 21  1  0  0  0  0
  1 22  1  0  0  0  0
  1 23  1  0  0  0  0
  2  7  1  0  0  0  0
  2  3  1  0  0  0  0
  2  4  1  0  0  0  0
  3 24  1  0  0  0  0
  3 25  1  0  0  0  0
  3 26  1  0  0  0  0
  4  5  1  0  0  0  0
  4 27  1  0  0  0  0
  4 28  1  0  0  0  0
  5  6  1  0  0  0  0
  5 29  1  0  0  0  0
  5 30  1  0  0  0  0
  6  7  1  0  0  0  0
  6 31  1  0  0  0  0
  6 32  1  0  0  0  0
  7  8  1  0  0  0  0
  7 33  1  0  0  0  0
  8  9  1  0  0  0  0
  8 34  1  0  0  0  0
  9 10  2  0  0  0  0
  9 11  1  0  0  0  0
 11 12  1  0  0  0  0
 11 35  1  0  0  0  0
 12 20  2  0  0  0  0
 12 13  1  0  0  0  0
 13 14  2  0  0  0  0
 13 36  1  0  0  0  0
 14 15  1  0  0  0  0
 14 37  1  0  0  0  0
 15 16  1  0  0  0  0
 15 20  1  0  0  0  0
 16 17  1  0  0  0  0
 16 38  1  0  0  0  0
 16 39  1  0  0  0  0
 17 18  1  0  0  0  0
 17 19  1  0  0  0  0
 17 40  1  0  0  0  0
M  END
> <s_m_source_file>
AV-unprocessed.smi

> <i_m_source_file_index>
643

> <i_lp_mmshare_version>
43012

> <i_f3d_flags>
0

> <s_epik_input>
W0NIM11DMShbQ0gzXSlbQ0gyXVtDSDJdW0NIMl1bQ0BIXTFbTkhdQyg9TylbTkhdYzJbY0hdW2NIXW4objIpW0NIMl1bQ0hdKEYpRg==

> <s_epik_cmdline>
J2VwaWtfcHl0aG9uJywgJy1waCcsICc3LjAnLCAnLXRuJywgJzgnLCAnLW1hJywgJzIwMCcsICctbWV0YWxfYmluZGluZycsICctaW1hZScsICc8aW5maWxlLm1hZT4nLCAnLW9tYWUnLCAnPG91dGZpbGUubWFlPic=

> <r_lp_tautomer_probability>
1

> <r_epik_Ionization_Penalty>
3.99908e-05

> <r_epik_Ionization_Penalty_Charging>
0

> <r_epik_Ionization_Penalty_Neutral>
3.99908e-05

> <r_epik_State_Penalty>
-0

> <r_epik_Charging_Adjusted_Penalty>
0

> <i_epik_Tot_Q>
0

> <i_epik_Tot_abs_Q>
0

> <r_epik_Metal_State_Penalty>
-0

> <b_epik_Metal_Only>
0

> <s_lp_Force_Field>
OPLS_2005

> <r_lp_Energy>
26.1954

> <b_lp_Chiralities_Consistent>
1

> <s_lp_Variant>
AV-unprocessed.smi:643-1

> <Gold.Version>
5.8.1

> <Gold.Id.Protein>
6NUR|6NUR_protein|mol2

> <Gold.PLP.Fitness>
42.8922

> <Gold.PLP.PLP>
-34.9259

> <Gold.PLP.part.hbond>
-1.9855

> <Gold.PLP.part.metal>
0.0000

> <Gold.PLP.part.buried>
-2.8694

> <Gold.PLP.part.nonpolar>
-30.5338

> <Gold.PLP.part.repulsive>
0.3264

> <Gold.PLP.ligand.clash>
0.0000

> <Gold.PLP.ligand.torsion>
0.3963

> <Gold.PLP.Chemscore.Hbond>
1.9120

> <Gold.PLP.Chemscore.CHOScore>
0.9976

> <Gold.PLP.Chemscore.Metal>
0.0000

> <Gold.Chemscore.Hbonds>
donor molecule, donor type, donor heavy atom, donor atom, acceptor molecule, acceptor atom, score
      L1  H     8    34       P1  7948  0.96

> <Gold.PLP.Chemscore.Internal.Correction>
0.0299

> <Gold.Rescore>
     Score         DG    S(hbond)    S(metal)    S(lipo)     H(rot)  DE(clash)    DE(int)     intcor
     15.00     -15.51       1.96        0.00      57.60       1.28       0.01       0.50       ----

> <Gold.Chemscore.Fitness>
14.9989

> <Gold.Chemscore.DG>
-15.5091

> <Gold.Chemscore.ZeroCoef>
-5.4800

> <Gold.Chemscore.Hbond>
1.9639

> <Gold.Chemscore.Metal>
0.0000

> <Gold.Chemscore.Lipo>
57.5979

> <Gold.Chemscore.Internal_Hbond>
0.0000

> <Gold.Chemscore.DEClash>
0.0089

> <Gold.Chemscore.DEInternal>
0.5013

> <Gold.Chemscore.Rot>
1.2771

> <Gold.Chemscore.Internal.Correction>
   9.000000E+99

> <Gold.Chemscore.Hbonds>
donor molecule, donor type, donor heavy atom, donor atom, acceptor molecule, acceptor atom, score
      L1  H     8    34       P1  7948  0.23

> <Gold.Chemscore.Hbond.Weighted>
-6.5596

> <Gold.Chemscore.Metal.Weighted>
-0.0000

> <Gold.Chemscore.Lipo.Weighted>
-6.7390

> <Gold.Chemscore.Internal_Hbond.Weighted>
0.0000

> <Gold.Chemscore.DEClash.Weighted>
0.0089

> <Gold.Chemscore.DEInternal.Weighted>
0.5013

> <Gold.Chemscore.Rot.Weighted>
3.2694

> <Gold.Chemscore.Internal.Correction.Weighted>
   9.000000E+99

> <Gold.Protein.RotatedTorsions>
[ 6907 6896 6895 6894 ] final -135.92 input  -60.11 | X-H torsion
[ 7974 7965 7964 7962 ] final   73.21 input  175.53 | X-H torsion
[ 8008 7997 7996 7995 ] final  102.48 input   59.86 | X-H torsion
[ 10167 10162 10161 10158 ] final  136.60 input  -65.29 | X-H torsion
[ 10718 10713 10712 10709 ] final   70.62 input   66.30 | X-H torsion
[ 10763 10752 10751 10750 ] final -129.77 input  -60.55 | X-H torsion
[ 11005 11000 10999 10996 ] final    8.84 input  -57.11 | X-H torsion

> <Gold.Protein.ActiveResidues>
 VAL166  LYS551  ARG553  GLY616  TRP617  ASP618  TYR619  PRO620  LYS621  CYS622 
 ASP623  PHE694  ASN695  SER759  ASP760  ASP761  ALA762  ILE779  LEU786  VAL792 
 PHE793  MET794  SER795  GLU796  ALA797  LYS798  CYS799  TRP800  GLU811  SER814 

> <Gold.Protein.RotatedAtoms>
  151.0037  133.6031  159.2691 H   0  0  0  0  0  0  0  0  0  0  0  0  # atno 6907 bound_to 6896
  151.3208  135.0817  159.9315 H   0  0  0  0  0  0  0  0  0  0  0  0  # atno 6908 bound_to 6896
  152.5281  133.9685  159.7805 H   0  0  0  0  0  0  0  0  0  0  0  0  # atno 6909 bound_to 6896
  145.7437  139.2731  143.1471 H   0  0  0  0  0  0  0  0  0  0  0  0  # atno 7974 bound_to 7965
  156.1397  140.3180  155.8475 H   0  0  0  0  0  0  0  0  0  0  0  0  # atno 8008 bound_to 7997
  155.4178  140.0510  157.3045 H   0  0  0  0  0  0  0  0  0  0  0  0  # atno 8009 bound_to 7997
  154.4966  140.2113  155.9447 H   0  0  0  0  0  0  0  0  0  0  0  0  # atno 8010 bound_to 7997
  139.5174  144.6455  151.5450 H   0  0  0  0  0  0  0  0  0  0  0  0  # atno 10167 bound_to 10162
  157.6409  130.9486  150.0675 H   0  0  0  0  0  0  0  0  0  0  0  0  # atno 10718 bound_to 10713
  154.8757  135.3884  154.3974 H   0  0  0  0  0  0  0  0  0  0  0  0  # atno 10763 bound_to 10752
  153.4702  135.7030  153.6003 H   0  0  0  0  0  0  0  0  0  0  0  0  # atno 10764 bound_to 10752
  153.4463  135.3844  155.2226 H   0  0  0  0  0  0  0  0  0  0  0  0  # atno 10765 bound_to 10752
  140.5324  134.0453  155.7878 H   0  0  0  0  0  0  0  0  0  0  0  0  # atno 11005 bound_to 11000
  146.0423  140.8152  142.9822 LP  0  0  0  0  0  0  0  0  0  0  0  0  # atno 17320 bound_to 7965
  144.6865  140.2929  143.7275 LP  0  0  0  0  0  0  0  0  0  0  0  0  # atno 17321 bound_to 7965
  140.6239  143.9206  150.6548 LP  0  0  0  0  0  0  0  0  0  0  0  0  # atno 17342 bound_to 10162
  140.2488  143.3608  152.1423 LP  0  0  0  0  0  0  0  0  0  0  0  0  # atno 17343 bound_to 10162
  156.1689  130.3646  149.9193 LP  0  0  0  0  0  0  0  0  0  0  0  0  # atno 17370 bound_to 10713
  156.7173  130.8993  151.3615 LP  0  0  0  0  0  0  0  0  0  0  0  0  # atno 17371 bound_to 10713
  141.1274  133.9360  157.2608 LP  0  0  0  0  0  0  0  0  0  0  0  0  # atno 17394 bound_to 11000
  139.9547  135.0168  156.9094 LP  0  0  0  0  0  0  0  0  0  0  0  0  # atno 17395 bound_to 11000

$$$$
