AV-unprocessed.smi:1323|AV-procd|sdf|5468|dock3
  -GOLD-   22720 5 43D 1   1.00000     0.00000
 Structure written by MMmdl.
 45 46  0  0  0  0  0  0  0  0  1 V2000
  145.5800  135.1023  149.3380 C   0  0  0  0  0  0  0  0  0  0  0  0
  145.3625  134.0030  150.3900 C   0  0  1  0  0  0  0  0  0  0  0  0
  144.4163  132.9118  149.8490 C   0  0  0  0  0  0  0  0  0  0  0  0
  144.1880  131.7923  150.8761 C   0  0  0  0  0  0  0  0  0  0  0  0
  145.5208  131.1725  151.3165 C   0  0  0  0  0  0  0  0  0  0  0  0
  146.4652  132.2474  151.8695 C   0  0  0  0  0  0  0  0  0  0  0  0
  146.7013  133.3869  150.8550 C   0  0  2  0  0  0  0  0  0  0  0  0
  147.4583  134.4069  151.4936 O   0  0  0  0  0  0  0  0  0  0  0  0
  148.8215  134.0743  151.7145 C   0  0  0  0  0  0  0  0  0  0  0  0
  149.5690  135.3292  152.1935 C   0  0  0  0  0  0  0  0  0  0  0  0
  150.4034  135.8993  151.1392 N   0  0  0  0  0  0  0  0  0  0  0  0
  151.3937  136.7857  151.3253 C   0  0  0  0  0  0  0  0  0  0  0  0
  151.7530  137.1754  152.4362 O   0  0  0  0  0  0  0  0  0  0  0  0
  152.0938  137.3052  150.0642 C   0  0  0  0  0  0  0  0  0  0  0  0
  152.0033  138.7704  149.9511 N   0  0  0  0  0  0  0  0  0  0  0  0
  150.7304  139.3054  149.6672 C   0  0  0  0  0  0  0  0  0  0  0  0
  150.5218  140.6271  149.5585 C   0  0  0  0  0  0  0  0  0  0  0  0
  151.6461  141.5127  149.7445 C   0  0  0  0  0  0  0  0  0  0  0  0
  152.8690  141.0128  150.0107 C   0  0  0  0  0  0  0  0  0  0  0  0
  153.1041  139.5681  150.1187 C   0  0  0  0  0  0  0  0  0  0  0  0
  154.2220  139.1060  150.3466 O   0  0  0  0  0  0  0  0  0  0  0  0
  146.0787  134.7088  148.4517 H   0  0  0  0  0  0  0  0  0  0  0  0
  146.1935  135.9130  149.7317 H   0  0  0  0  0  0  0  0  0  0  0  0
  144.6311  135.5356  149.0210 H   0  0  0  0  0  0  0  0  0  0  0  0
  144.8812  134.4611  151.2556 H   0  0  0  0  0  0  0  0  0  0  0  0
  143.4577  133.3531  149.5736 H   0  0  0  0  0  0  0  0  0  0  0  0
  144.8314  132.4840  148.9354 H   0  0  0  0  0  0  0  0  0  0  0  0
  143.6640  132.1920  151.7453 H   0  0  0  0  0  0  0  0  0  0  0  0
  143.5424  131.0229  150.4517 H   0  0  0  0  0  0  0  0  0  0  0  0
  145.3441  130.4084  152.0740 H   0  0  0  0  0  0  0  0  0  0  0  0
  145.9918  130.6699  150.4707 H   0  0  0  0  0  0  0  0  0  0  0  0
  146.0354  132.6661  152.7780 H   0  0  0  0  0  0  0  0  0  0  0  0
  147.4072  131.7846  152.1635 H   0  0  0  0  0  0  0  0  0  0  0  0
  147.2343  133.0059  149.9812 H   0  0  0  0  0  0  0  0  0  0  0  0
  148.9316  133.2744  152.4469 H   0  0  0  0  0  0  0  0  0  0  0  0
  149.2522  133.7039  150.7835 H   0  0  0  0  0  0  0  0  0  0  0  0
  148.8613  136.0791  152.5497 H   0  0  0  0  0  0  0  0  0  0  0  0
  150.2104  135.0775  153.0384 H   0  0  0  0  0  0  0  0  0  0  0  0
  150.1822  135.6296  150.1918 H   0  0  0  0  0  0  0  0  0  0  0  0
  153.1382  136.9895  150.0863 H   0  0  0  0  0  0  0  0  0  0  0  0
  151.6719  136.8199  149.1825 H   0  0  0  0  0  0  0  0  0  0  0  0
  149.9399  138.5780  149.5536 H   0  0  0  0  0  0  0  0  0  0  0  0
  149.5377  141.0179  149.3463 H   0  0  0  0  0  0  0  0  0  0  0  0
  151.5057  142.5813  149.6729 H   0  0  0  0  0  0  0  0  0  0  0  0
  153.6982  141.6908  150.1493 H   0  0  0  0  0  0  0  0  0  0  0  0
  1  2  1  0  0  0  0
  1 22  1  0  0  0  0
  1 23  1  0  0  0  0
  1 24  1  0  0  0  0
  2  7  1  0  0  0  0
  2  3  1  0  0  0  0
  2 25  1  0  0  0  0
  3  4  1  0  0  0  0
  3 26  1  0  0  0  0
  3 27  1  0  0  0  0
  4  5  1  0  0  0  0
  4 28  1  0  0  0  0
  4 29  1  0  0  0  0
  5  6  1  0  0  0  0
  5 30  1  0  0  0  0
  5 31  1  0  0  0  0
  6  7  1  0  0  0  0
  6 32  1  0  0  0  0
  6 33  1  0  0  0  0
  7  8  1  0  0  0  0
  7 34  1  0  0  0  0
  8  9  1  0  0  0  0
  9 10  1  0  0  0  0
  9 35  1  0  0  0  0
  9 36  1  0  0  0  0
 10 11  1  0  0  0  0
 10 37  1  0  0  0  0
 10 38  1  0  0  0  0
 11 12  1  0  0  0  0
 11 39  1  0  0  0  0
 12 13  2  0  0  0  0
 12 14  1  0  0  0  0
 14 15  1  0  0  0  0
 14 40  1  0  0  0  0
 14 41  1  0  0  0  0
 15 20  1  0  0  0  0
 15 16  1  0  0  0  0
 16 17  2  0  0  0  0
 16 42  1  0  0  0  0
 17 18  1  0  0  0  0
 17 43  1  0  0  0  0
 18 19  2  0  0  0  0
 18 44  1  0  0  0  0
 19 20  1  0  0  0  0
 19 45  1  0  0  0  0
 20 21  2  0  0  0  0
M  END
> <s_m_source_file>
AV-unprocessed.smi

> <i_m_source_file_index>
1323

> <i_lp_mmshare_version>
43012

> <i_f3d_flags>
0

> <s_epik_input>
W0NIM11bQ0BASF0xW0NIMl1bQ0gyXVtDSDJdW0NIMl1bQ0BIXTFPW0NIMl1bQ0gyXVtOSF1DKD1PKVtDSDJdbjJbY0hdW2NIXVtjSF1bY0hdYzI9Tw==

> <s_epik_cmdline>
J2VwaWtfcHl0aG9uJywgJy1waCcsICc3LjAnLCAnLXRuJywgJzgnLCAnLW1hJywgJzIwMCcsICctbWV0YWxfYmluZGluZycsICctaW1hZScsICc8aW5maWxlLm1hZT4nLCAnLW9tYWUnLCAnPG91dGZpbGUubWFlPic=

> <r_lp_tautomer_probability>
1

> <r_epik_Ionization_Penalty>
4.02412e-07

> <r_epik_Ionization_Penalty_Charging>
3.74552e-07

> <r_epik_Ionization_Penalty_Neutral>
2.78599e-08

> <r_epik_State_Penalty>
-0

> <r_epik_Charging_Adjusted_Penalty>
3.74552e-07

> <i_epik_Tot_Q>
0

> <i_epik_Tot_abs_Q>
0

> <r_epik_Metal_State_Penalty>
-0

> <b_epik_Metal_Only>
0

> <s_lp_Force_Field>
OPLS_2005

> <r_lp_Energy>
20.2591

> <b_lp_Chiralities_Consistent>
1

> <s_lp_Variant>
AV-unprocessed.smi:1323-4

> <Gold.Version>
5.8.1

> <Gold.Id.Protein>
6NUR|6NUR_protein|mol2

> <Gold.PLP.Fitness>
47.9971

> <Gold.PLP.PLP>
-44.0723

> <Gold.PLP.part.hbond>
-2.1801

> <Gold.PLP.part.metal>
0.0000

> <Gold.PLP.part.buried>
-5.5121

> <Gold.PLP.part.nonpolar>
-36.8832

> <Gold.PLP.part.repulsive>
0.1548

> <Gold.PLP.ligand.clash>
0.0000

> <Gold.PLP.ligand.torsion>
0.6240

> <Gold.PLP.Chemscore.Hbond>
1.7000

> <Gold.PLP.Chemscore.CHOScore>
0.0000

> <Gold.PLP.Chemscore.Metal>
0.0000

> <Gold.PLP.Chemscore.Internal.Correction>
0.0728

> <Gold.Rescore>
     Score         DG    S(hbond)    S(metal)    S(lipo)     H(rot)  DE(clash)    DE(int)     intcor
     16.34     -16.93       1.89        0.00      86.36       1.94       0.00       0.58       ----

> <Gold.Chemscore.Fitness>
16.3432

> <Gold.Chemscore.DG>
-16.9261

> <Gold.Chemscore.ZeroCoef>
-5.4800

> <Gold.Chemscore.Hbond>
1.8887

> <Gold.Chemscore.Metal>
0.0000

> <Gold.Chemscore.Lipo>
86.3571

> <Gold.Chemscore.Internal_Hbond>
0.0000

> <Gold.Chemscore.DEClash>
0.0000

> <Gold.Chemscore.DEInternal>
0.5829

> <Gold.Chemscore.Rot>
1.9398

> <Gold.Chemscore.Internal.Correction>
   9.000000E+99

> <Gold.Chemscore.Hbond.Weighted>
-6.3083

> <Gold.Chemscore.Metal.Weighted>
-0.0000

> <Gold.Chemscore.Lipo.Weighted>
-10.1038

> <Gold.Chemscore.Internal_Hbond.Weighted>
0.0000

> <Gold.Chemscore.DEClash.Weighted>
0.0000

> <Gold.Chemscore.DEInternal.Weighted>
0.5829

> <Gold.Chemscore.Rot.Weighted>
4.9659

> <Gold.Chemscore.Internal.Correction.Weighted>
   9.000000E+99

> <Gold.Protein.RotatedTorsions>
[ 6907 6896 6895 6894 ] final  153.59 input  -60.11 | X-H torsion
[ 7974 7965 7964 7962 ] final    7.21 input  175.53 | X-H torsion
[ 8008 7997 7996 7995 ] final   79.14 input   59.86 | X-H torsion
[ 10167 10162 10161 10158 ] final   47.18 input  -65.29 | X-H torsion
[ 10718 10713 10712 10709 ] final  -52.72 input   66.30 | X-H torsion
[ 10763 10752 10751 10750 ] final  -76.04 input  -60.55 | X-H torsion
[ 11005 11000 10999 10996 ] final  -71.61 input  -57.11 | X-H torsion

> <Gold.Protein.ActiveResidues>
 VAL166  LYS551  ARG553  GLY616  TRP617  ASP618  TYR619  PRO620  LYS621  CYS622 
 ASP623  PHE694  ASN695  SER759  ASP760  ASP761  ALA762  ILE779  LEU786  VAL792 
 PHE793  MET794  SER795  GLU796  ALA797  LYS798  CYS799  TRP800  GLU811  SER814 

> <Gold.Protein.RotatedAtoms>
  152.0705  133.4104  159.4456 H   0  0  0  0  0  0  0  0  0  0  0  0  # atno 6907 bound_to 6896
  150.6863  134.3097  159.4750 H   0  0  0  0  0  0  0  0  0  0  0  0  # atno 6908 bound_to 6896
  152.0928  134.9395  160.0622 H   0  0  0  0  0  0  0  0  0  0  0  0  # atno 6909 bound_to 6896
  146.2428  140.0117  142.8406 H   0  0  0  0  0  0  0  0  0  0  0  0  # atno 7974 bound_to 7965
  155.8656  140.3451  155.5786 H   0  0  0  0  0  0  0  0  0  0  0  0  # atno 8008 bound_to 7997
  155.7885  140.0868  157.2041 H   0  0  0  0  0  0  0  0  0  0  0  0  # atno 8009 bound_to 7997
  154.4014  140.1487  156.3122 H   0  0  0  0  0  0  0  0  0  0  0  0  # atno 8010 bound_to 7997
  140.3063  144.2874  150.6208 H   0  0  0  0  0  0  0  0  0  0  0  0  # atno 10167 bound_to 10162
  156.1597  130.4150  149.9813 H   0  0  0  0  0  0  0  0  0  0  0  0  # atno 10718 bound_to 10713
  154.4946  135.5811  153.6485 H   0  0  0  0  0  0  0  0  0  0  0  0  # atno 10763 bound_to 10752
  152.9868  135.6121  154.3081 H   0  0  0  0  0  0  0  0  0  0  0  0  # atno 10764 bound_to 10752
  154.2984  135.2847  155.2602 H   0  0  0  0  0  0  0  0  0  0  0  0  # atno 10765 bound_to 10752
  141.1595  133.6822  156.6932 H   0  0  0  0  0  0  0  0  0  0  0  0  # atno 11005 bound_to 11000
  145.1322  140.9524  143.4538 LP  0  0  0  0  0  0  0  0  0  0  0  0  # atno 17320 bound_to 7965
  145.0377  139.3287  143.5992 LP  0  0  0  0  0  0  0  0  0  0  0  0  # atno 17321 bound_to 7965
  140.5607  143.2192  151.7770 LP  0  0  0  0  0  0  0  0  0  0  0  0  # atno 17342 bound_to 10162
  139.4903  144.4352  151.9827 LP  0  0  0  0  0  0  0  0  0  0  0  0  # atno 17343 bound_to 10162
  156.7646  130.9164  151.3642 LP  0  0  0  0  0  0  0  0  0  0  0  0  # atno 17370 bound_to 10713
  157.6722  130.9062  150.0067 LP  0  0  0  0  0  0  0  0  0  0  0  0  # atno 17371 bound_to 10713
  140.3014  134.8160  157.4101 LP  0  0  0  0  0  0  0  0  0  0  0  0  # atno 17394 bound_to 11000
  140.1258  134.5160  155.8146 LP  0  0  0  0  0  0  0  0  0  0  0  0  # atno 17395 bound_to 11000

$$$$
