AV-unprocessed.smi:1464|AV-procd|sdf|5947|dock7
  -GOLD-   22720 6 33D 1   1.00000     0.00000
 Structure written by MMmdl.
 41 42  0  0  0  0  0  0  0  0  1 V2000
  153.2048  142.3010  160.6903 C   0  0  0  0  0  0  0  0  0  0  0  0
  153.0774  142.4661  159.1618 C   0  0  2  0  0  0  0  0  0  0  0  0
  153.0834  143.9517  158.7482 C   0  0  0  0  0  0  0  0  0  0  0  0
  151.7691  144.6602  159.1108 C   0  0  0  0  0  0  0  0  0  0  0  0
  150.5628  143.9356  158.4984 C   0  0  0  0  0  0  0  0  0  0  0  0
  150.5208  142.4469  158.8942 C   0  0  1  0  0  0  0  0  0  0  0  0
  149.3964  141.8157  158.2044 N   0  0  0  0  0  0  0  0  0  0  0  0
  148.1095  142.1889  158.2846 C   0  0  0  0  0  0  0  0  0  0  0  0
  147.7147  143.1208  158.9869 O   0  0  0  0  0  0  0  0  0  0  0  0
  147.1206  141.3539  157.4584 C   0  0  0  0  0  0  0  0  0  0  0  0
  147.1284  141.6861  156.0265 N   0  0  0  0  0  0  0  0  0  0  0  0
  148.2725  141.2797  155.3566 N   0  0  0  0  0  0  0  0  0  0  0  0
  148.3936  141.5064  154.0923 C   0  0  0  0  0  0  0  0  0  0  0  0
  149.5413  141.0842  153.4680 O   0  0  0  0  0  0  0  0  0  0  0  0
  147.3544  142.1851  153.3503 C   0  0  0  0  0  0  0  0  0  0  0  0
  146.2450  142.5804  154.0122 C   0  0  0  0  0  0  0  0  0  0  0  0
  146.0747  142.3387  155.4461 C   0  0  0  0  0  0  0  0  0  0  0  0
  145.0763  142.6892  156.0750 O   0  0  0  0  0  0  0  0  0  0  0  0
  151.8550  141.7353  158.5439 C   0  0  2  0  0  0  0  0  0  0  0  0
  151.8453  140.2296  158.8751 C   0  0  0  0  0  0  0  0  0  0  0  0
  149.2597  140.4458  152.8309 H   0  0  0  0  0  0  0  0  0  0  0  0
  152.3256  142.6669  161.2196 H   0  0  0  0  0  0  0  0  0  0  0  0
  154.0664  142.8504  161.0696 H   0  0  0  0  0  0  0  0  0  0  0  0
  153.3477  141.2576  160.9701 H   0  0  0  0  0  0  0  0  0  0  0  0
  153.9748  142.0181  158.7325 H   0  0  0  0  0  0  0  0  0  0  0  0
  153.9255  144.4697  159.2084 H   0  0  0  0  0  0  0  0  0  0  0  0
  153.2391  144.0231  157.6710 H   0  0  0  0  0  0  0  0  0  0  0  0
  151.6573  144.7114  160.1940 H   0  0  0  0  0  0  0  0  0  0  0  0
  151.7971  145.6915  158.7584 H   0  0  0  0  0  0  0  0  0  0  0  0
  149.6425  144.4306  158.8112 H   0  0  0  0  0  0  0  0  0  0  0  0
  150.6062  144.0266  157.4120 H   0  0  0  0  0  0  0  0  0  0  0  0
  150.3695  142.3935  159.9734 H   0  0  0  0  0  0  0  0  0  0  0  0
  149.6190  141.0322  157.6078 H   0  0  0  0  0  0  0  0  0  0  0  0
  147.3362  140.2923  157.5937 H   0  0  0  0  0  0  0  0  0  0  0  0
  146.1233  141.5049  157.8757 H   0  0  0  0  0  0  0  0  0  0  0  0
  147.4718  142.3672  152.2922 H   0  0  0  0  0  0  0  0  0  0  0  0
  145.4608  143.0883  153.4705 H   0  0  0  0  0  0  0  0  0  0  0  0
  151.9752  141.8037  157.4613 H   0  0  0  0  0  0  0  0  0  0  0  0
  151.5933  140.0507  159.9206 H   0  0  0  0  0  0  0  0  0  0  0  0
  152.8184  139.7778  158.6819 H   0  0  0  0  0  0  0  0  0  0  0  0
  151.1170  139.6920  158.2679 H   0  0  0  0  0  0  0  0  0  0  0  0
  1  2  1  0  0  0  0
  1 22  1  0  0  0  0
  1 23  1  0  0  0  0
  1 24  1  0  0  0  0
  2 19  1  0  0  0  0
  2  3  1  0  0  0  0
  2 25  1  0  0  0  0
  3  4  1  0  0  0  0
  3 26  1  0  0  0  0
  3 27  1  0  0  0  0
  4  5  1  0  0  0  0
  4 28  1  0  0  0  0
  4 29  1  0  0  0  0
  5  6  1  0  0  0  0
  5 30  1  0  0  0  0
  5 31  1  0  0  0  0
  6  7  1  0  0  0  0
  6 19  1  0  0  0  0
  6 32  1  0  0  0  0
  7  8  1  0  0  0  0
  7 33  1  0  0  0  0
  8  9  2  0  0  0  0
  8 10  1  0  0  0  0
 10 34  1  0  0  0  0
 10 35  1  0  0  0  0
 10 11  1  0  0  0  0
 11 12  1  0  0  0  0
 11 17  1  0  0  0  0
 12 13  2  0  0  0  0
 13 14  1  0  0  0  0
 13 15  1  0  0  0  0
 14 21  1  0  0  0  0
 15 36  1  0  0  0  0
 15 16  2  0  0  0  0
 16 37  1  0  0  0  0
 16 17  1  0  0  0  0
 17 18  2  0  0  0  0
 19 20  1  0  0  0  0
 19 38  1  0  0  0  0
 20 39  1  0  0  0  0
 20 40  1  0  0  0  0
 20 41  1  0  0  0  0
M  END
> <s_m_source_file>
AV-unprocessed.smi

> <i_m_source_file_index>
1464

> <i_lp_mmshare_version>
43012

> <i_f3d_flags>
0

> <s_epik_input>
W0NIM11bQ0BASF0xW0NIMl1bQ0gyXVtDSDJdW0NASF0oW0NASF0xW0NIM10pW05IXUMoPU8pW0NIMl1uMltuSF1jKD1PKVtjSF1bY0hdYzI9Tw==

> <s_epik_cmdline>
J2VwaWtfcHl0aG9uJywgJy1waCcsICc3LjAnLCAnLXRuJywgJzgnLCAnLW1hJywgJzIwMCcsICctbWV0YWxfYmluZGluZycsICctaW1hZScsICc8aW5maWxlLm1hZT4nLCAnLW9tYWUnLCAnPG91dGZpbGUubWFlPic=

> <r_lp_tautomer_probability>
0.9996

> <r_epik_Ionization_Penalty>
2.10335

> <r_epik_Ionization_Penalty_Charging>
3.98079e-08

> <r_epik_Ionization_Penalty_Neutral>
2.10335

> <r_epik_State_Penalty>
1.67957

> <r_epik_Charging_Adjusted_Penalty>
1.67957

> <i_epik_Tot_Q>
0

> <i_epik_Tot_abs_Q>
0

> <r_epik_Metal_State_Penalty>
1.67957

> <b_epik_Metal_Only>
0

> <s_lp_Force_Field>
OPLS_2005

> <r_lp_Energy>
25.8074

> <b_lp_Chiralities_Consistent>
1

> <s_lp_Variant>
AV-unprocessed.smi:1464-13

> <Gold.Version>
5.8.1

> <Gold.Id.Protein>
6NUR|6NUR_protein|mol2

> <Gold.PLP.Fitness>
43.8662

> <Gold.PLP.PLP>
-38.8930

> <Gold.PLP.part.hbond>
-2.9542

> <Gold.PLP.part.metal>
0.0000

> <Gold.PLP.part.buried>
-6.1231

> <Gold.PLP.part.nonpolar>
-30.6500

> <Gold.PLP.part.repulsive>
0.5226

> <Gold.PLP.ligand.clash>
0.0000

> <Gold.PLP.ligand.torsion>
0.3430

> <Gold.PLP.Chemscore.Hbond>
1.8834

> <Gold.PLP.Chemscore.CHOScore>
0.0000

> <Gold.PLP.Chemscore.Metal>
0.0000

> <Gold.Chemscore.Hbonds>
donor molecule, donor type, donor heavy atom, donor atom, acceptor molecule, acceptor atom, score
      L1  H    14    21       P1  7957  0.75
      P1  H  7989  7998       L1    14  0.21
      P1  H  8011  8017       L1    14  0.85

> <Gold.PLP.Chemscore.Internal.Correction>
0.0092

> <Gold.Rescore>
     Score         DG    S(hbond)    S(metal)    S(lipo)     H(rot)  DE(clash)    DE(int)     intcor
     12.67     -14.53       1.02        0.00      96.91       2.22       0.43       1.42       ----

> <Gold.Chemscore.Fitness>
12.6724

> <Gold.Chemscore.DG>
-14.5253

> <Gold.Chemscore.ZeroCoef>
-5.4800

> <Gold.Chemscore.Hbond>
1.0170

> <Gold.Chemscore.Metal>
0.0000

> <Gold.Chemscore.Lipo>
96.9060

> <Gold.Chemscore.Internal_Hbond>
0.0000

> <Gold.Chemscore.DEClash>
0.4340

> <Gold.Chemscore.DEInternal>
1.4189

> <Gold.Chemscore.Rot>
2.2224

> <Gold.Chemscore.Internal.Correction>
   9.000000E+99

> <Gold.Chemscore.Hbonds>
donor molecule, donor type, donor heavy atom, donor atom, acceptor molecule, acceptor atom, score
      L1  H    14    21       P1  7957  0.74
      P1  H  7989  7998       L1    14  0.08
      P1  H  8011  8017       L1    14  0.04

> <Gold.Chemscore.Hbond.Weighted>
-3.3966

> <Gold.Chemscore.Metal.Weighted>
-0.0000

> <Gold.Chemscore.Lipo.Weighted>
-11.3380

> <Gold.Chemscore.Internal_Hbond.Weighted>
0.0000

> <Gold.Chemscore.DEClash.Weighted>
0.4340

> <Gold.Chemscore.DEInternal.Weighted>
1.4189

> <Gold.Chemscore.Rot.Weighted>
5.6893

> <Gold.Chemscore.Internal.Correction.Weighted>
   9.000000E+99

> <Gold.Protein.RotatedTorsions>
[ 6907 6896 6895 6894 ] final  107.67 input  -60.11 | X-H torsion
[ 7974 7965 7964 7962 ] final -165.18 input  175.53 | X-H torsion
[ 8008 7997 7996 7995 ] final  111.35 input   59.86 | X-H torsion
[ 10167 10162 10161 10158 ] final  -89.84 input  -65.29 | X-H torsion
[ 10718 10713 10712 10709 ] final   36.04 input   66.30 | X-H torsion
[ 10763 10752 10751 10750 ] final  -15.33 input  -60.55 | X-H torsion
[ 11005 11000 10999 10996 ] final  -25.33 input  -57.11 | X-H torsion

> <Gold.Protein.ActiveResidues>
 VAL166  LYS551  ARG553  GLY616  TRP617  ASP618  TYR619  PRO620  LYS621  CYS622 
 ASP623  PHE694  ASN695  SER759  ASP760  ASP761  ALA762  ILE779  LEU786  VAL792 
 PHE793  MET794  SER795  GLU796  ALA797  LYS798  CYS799  TRP800  GLU811  SER814 

> <Gold.Protein.RotatedAtoms>
  152.5144  133.9200  159.7529 H   0  0  0  0  0  0  0  0  0  0  0  0  # atno 6907 bound_to 6896
  150.9574  133.6474  159.2767 H   0  0  0  0  0  0  0  0  0  0  0  0  # atno 6908 bound_to 6896
  151.3731  135.0931  159.9524 H   0  0  0  0  0  0  0  0  0  0  0  0  # atno 6909 bound_to 6896
  144.7277  140.2851  143.6229 H   0  0  0  0  0  0  0  0  0  0  0  0  # atno 7974 bound_to 7965
  156.2118  140.3021  155.9749 H   0  0  0  0  0  0  0  0  0  0  0  0  # atno 8008 bound_to 7997
  155.2705  140.0433  157.3023 H   0  0  0  0  0  0  0  0  0  0  0  0  # atno 8009 bound_to 7997
  154.5710  140.2348  155.8200 H   0  0  0  0  0  0  0  0  0  0  0  0  # atno 8010 bound_to 7997
  140.3609  143.2842  151.9616 H   0  0  0  0  0  0  0  0  0  0  0  0  # atno 10167 bound_to 10162
  157.3300  130.7493  149.6841 H   0  0  0  0  0  0  0  0  0  0  0  0  # atno 10718 bound_to 10713
  153.5417  135.7013  153.5633 H   0  0  0  0  0  0  0  0  0  0  0  0  # atno 10763 bound_to 10752
  153.3596  135.3973  155.1708 H   0  0  0  0  0  0  0  0  0  0  0  0  # atno 10764 bound_to 10752
  154.8672  135.3785  154.4922 H   0  0  0  0  0  0  0  0  0  0  0  0  # atno 10765 bound_to 10752
  140.8928  133.7577  156.0442 H   0  0  0  0  0  0  0  0  0  0  0  0  # atno 11005 bound_to 11000
  145.7910  139.1927  143.2103 LP  0  0  0  0  0  0  0  0  0  0  0  0  # atno 17320 bound_to 7965
  146.0755  140.7821  142.9667 LP  0  0  0  0  0  0  0  0  0  0  0  0  # atno 17321 bound_to 7965
  139.4814  144.5994  151.7633 LP  0  0  0  0  0  0  0  0  0  0  0  0  # atno 17342 bound_to 10162
  140.5128  144.0999  150.6000 LP  0  0  0  0  0  0  0  0  0  0  0  0  # atno 17343 bound_to 10162
  155.9695  130.4198  150.4391 LP  0  0  0  0  0  0  0  0  0  0  0  0  # atno 17370 bound_to 10713
  157.2422  131.0528  151.2430 LP  0  0  0  0  0  0  0  0  0  0  0  0  # atno 17371 bound_to 10713
  140.8326  134.3160  157.5343 LP  0  0  0  0  0  0  0  0  0  0  0  0  # atno 17394 bound_to 11000
  139.8732  134.9372  156.3680 LP  0  0  0  0  0  0  0  0  0  0  0  0  # atno 17395 bound_to 11000

$$$$
