AV-unprocessed.smi:2780|AV-procd|sdf|10713|dock1
  -GOLD-   2272015153D 1   1.00000     0.00000
 Structure written by MMmdl.
 47 49  0  0  0  0  0  0  0  0  2 V2000
  144.1304  135.0560  152.4976 C   0  0  0  0  0  0  0  0  0  0  0  0
  144.5341  133.9511  151.5350 C   0  0  0  0  0  0  0  0  0  0  0  0
  144.1167  133.9669  150.2536 C   0  0  0  0  0  0  0  0  0  0  0  0
  144.4140  132.8837  149.2315 C   0  0  0  0  0  0  0  0  0  0  0  0
  145.4079  131.8273  149.7417 C   0  0  0  0  0  0  0  0  0  0  0  0
  145.1893  131.5235  151.2341 C   0  0  1  0  0  0  0  0  0  0  0  0
  146.0080  130.3083  151.7035 C   0  0  0  0  0  0  0  0  0  0  0  0
  145.3830  132.8026  152.0969 C   0  0  1  0  0  0  0  0  0  0  0  0
  146.8737  133.1988  152.2639 C   0  0  0  0  0  0  0  0  0  0  0  0
  147.0574  134.4347  153.0496 N   0  3  0  0  0  0  0  0  0  0  0  0
  147.8044  134.2428  154.3070 C   0  0  0  0  0  0  0  0  0  0  0  0
  149.1812  133.6192  154.0408 C   0  0  0  0  0  0  0  0  0  0  0  0
  150.1444  134.0002  155.0578 N   0  0  0  0  0  0  0  0  0  0  0  0
  150.6728  135.2111  155.2932 C   0  0  0  0  0  0  0  0  0  0  0  0
  151.5299  135.2646  156.3114 N   0  0  0  0  0  0  0  0  0  0  0  0
  151.5692  133.9739  156.8002 N   0  0  0  0  0  0  0  0  0  0  0  0
  150.7445  133.2672  156.0184 C   0  0  0  0  0  0  0  0  0  0  0  0
  150.4601  131.8123  156.2168 C   0  0  0  0  0  0  0  0  0  0  0  0
  151.5675  130.7824  156.1728 C   0  0  0  0  0  0  0  0  0  0  0  0
  150.5487  130.8358  155.0646 C   0  0  0  0  0  0  0  0  0  0  0  0
  143.7420  134.6332  153.4244 H   0  0  0  0  0  0  0  0  0  0  0  0
  143.3479  135.6822  152.0676 H   0  0  0  0  0  0  0  0  0  0  0  0
  144.9694  135.7079  152.7347 H   0  0  0  0  0  0  0  0  0  0  0  0
  143.4968  134.7800  149.9038 H   0  0  0  0  0  0  0  0  0  0  0  0
  143.4670  132.4041  148.9817 H   0  0  0  0  0  0  0  0  0  0  0  0
  144.7871  133.3397  148.3142 H   0  0  0  0  0  0  0  0  0  0  0  0
  145.3046  130.9190  149.1468 H   0  0  0  0  0  0  0  0  0  0  0  0
  146.4283  132.1763  149.5817 H   0  0  0  0  0  0  0  0  0  0  0  0
  144.1434  131.2301  151.3441 H   0  0  0  0  0  0  0  0  0  0  0  0
  147.0720  130.4279  151.5000 H   0  0  0  0  0  0  0  0  0  0  0  0
  145.6844  129.4036  151.1881 H   0  0  0  0  0  0  0  0  0  0  0  0
  145.8827  130.1369  152.7729 H   0  0  0  0  0  0  0  0  0  0  0  0
  144.9890  132.5688  153.0871 H   0  0  0  0  0  0  0  0  0  0  0  0
  147.4234  132.4135  152.7811 H   0  0  0  0  0  0  0  0  0  0  0  0
  147.3437  133.3265  151.2882 H   0  0  0  0  0  0  0  0  0  0  0  0
  147.5537  135.1039  152.4783 H   0  0  0  0  0  0  0  0  0  0  0  0
  147.9183  135.2066  154.8039 H   0  0  0  0  0  0  0  0  0  0  0  0
  147.2259  133.6030  154.9751 H   0  0  0  0  0  0  0  0  0  0  0  0
  149.1098  132.5307  154.0279 H   0  0  0  0  0  0  0  0  0  0  0  0
  149.5563  133.9200  153.0621 H   0  0  0  0  0  0  0  0  0  0  0  0
  150.4214  136.0809  154.7041 H   0  0  0  0  0  0  0  0  0  0  0  0
  149.6635  131.6721  156.9447 H   0  0  0  0  0  0  0  0  0  0  0  0
  152.5743  131.1265  155.9442 H   0  0  0  0  0  0  0  0  0  0  0  0
  151.5070  129.9513  156.8725 H   0  0  0  0  0  0  0  0  0  0  0  0
  149.8073  130.0407  155.0230 H   0  0  0  0  0  0  0  0  0  0  0  0
  150.8861  131.2104  154.1006 H   0  0  0  0  0  0  0  0  0  0  0  0
  146.1466  134.8116  153.2703 H   0  0  0  0  0  0  0  0  0  0  0  0
  1  2  1  0  0  0  0
  1 21  1  0  0  0  0
  1 22  1  0  0  0  0
  1 23  1  0  0  0  0
  2  8  1  0  0  0  0
  2  3  2  0  0  0  0
  3  4  1  0  0  0  0
  3 24  1  0  0  0  0
  4  5  1  0  0  0  0
  4 25  1  0  0  0  0
  4 26  1  0  0  0  0
  5  6  1  0  0  0  0
  5 27  1  0  0  0  0
  5 28  1  0  0  0  0
  6  7  1  0  0  0  0
  6  8  1  0  0  0  0
  6 29  1  0  0  0  0
  7 30  1  0  0  0  0
  7 31  1  0  0  0  0
  7 32  1  0  0  0  0
  8  9  1  0  0  0  0
  8 33  1  0  0  0  0
  9 10  1  0  0  0  0
  9 34  1  0  0  0  0
  9 35  1  0  0  0  0
 10 11  1  0  0  0  0
 10 36  1  0  0  0  0
 10 47  1  0  0  0  0
 11 12  1  0  0  0  0
 11 37  1  0  0  0  0
 11 38  1  0  0  0  0
 12 13  1  0  0  0  0
 12 39  1  0  0  0  0
 12 40  1  0  0  0  0
 13 17  1  0  0  0  0
 13 14  1  0  0  0  0
 14 15  2  0  0  0  0
 14 41  1  0  0  0  0
 15 16  1  0  0  0  0
 16 17  2  0  0  0  0
 17 18  1  0  0  0  0
 18 20  1  0  0  0  0
 18 19  1  0  0  0  0
 18 42  1  0  0  0  0
 19 20  1  0  0  0  0
 19 43  1  0  0  0  0
 19 44  1  0  0  0  0
 20 45  1  0  0  0  0
 20 46  1  0  0  0  0
M  CHG  1  10   1
M  END
> <s_m_source_file>
AV-unprocessed.smi

> <i_m_source_file_index>
2780

> <i_lp_mmshare_version>
43012

> <i_f3d_flags>
0

> <s_epik_input>
W0NIM11DMT1bQ0hdW0NIMl1bQ0gyXVtDQEBIXShbQ0gzXSlbQ0BIXTFbQ0gyXVtOSF1bQ0gyXVtDSDJdbjJbY0hdbm5jMltDSF0zW0NIMl1bQ0gyXTM=

> <s_epik_cmdline>
J2VwaWtfcHl0aG9uJywgJy1waCcsICc3LjAnLCAnLXRuJywgJzgnLCAnLW1hJywgJzIwMCcsICctbWV0YWxfYmluZGluZycsICctaW1hZScsICc8aW5maWxlLm1hZT4nLCAnLW9tYWUnLCAnPG91dGZpbGUubWFlPic=

> <r_lp_tautomer_probability>
1

> <r_epik_Ionization_Penalty>
0.00176214

> <r_epik_Ionization_Penalty_Charging>
0.00175191

> <r_epik_Ionization_Penalty_Neutral>
1.02377e-05

> <r_epik_State_Penalty>
-0

> <r_epik_Charging_Adjusted_Penalty>
0.00175191

> <i_epik_Tot_Q>
1

> <i_epik_Tot_abs_Q>
1

> <r_epik_Metal_State_Penalty>
-0

> <b_epik_Metal_Only>
0

> <s_lp_Force_Field>
OPLS_2005

> <r_lp_Energy>
21.6978

> <b_lp_Chiralities_Consistent>
1

> <s_lp_Variant>
AV-unprocessed.smi:2780-1

> <Gold.Version>
5.8.1

> <Gold.Id.Protein>
6NUR|6NUR_protein|mol2

> <Gold.PLP.Fitness>
46.1822

> <Gold.PLP.PLP>
-38.2068

> <Gold.PLP.part.hbond>
-2.6084

> <Gold.PLP.part.metal>
0.0000

> <Gold.PLP.part.buried>
-3.8437

> <Gold.PLP.part.nonpolar>
-31.4881

> <Gold.PLP.part.repulsive>
0.0064

> <Gold.PLP.ligand.clash>
0.0000

> <Gold.PLP.ligand.torsion>
0.7125

> <Gold.PLP.Chemscore.Hbond>
3.0000

> <Gold.PLP.Chemscore.CHOScore>
0.0000

> <Gold.PLP.Chemscore.Metal>
0.0000

> <Gold.Chemscore.Hbonds>
donor molecule, donor type, donor heavy atom, donor atom, acceptor molecule, acceptor atom, score
      L1  H    10    36       P1  7948  2.00
      P1  H 10752 10763       L1    15  0.78

> <Gold.PLP.Chemscore.Internal.Correction>
0.4003

> <Gold.Rescore>
     Score         DG    S(hbond)    S(metal)    S(lipo)     H(rot)  DE(clash)    DE(int)     intcor
     15.38     -16.06       1.41        0.00      93.60       1.98       0.03       0.65       ----

> <Gold.Chemscore.Fitness>
15.3790

> <Gold.Chemscore.DG>
-16.0592

> <Gold.Chemscore.ZeroCoef>
-5.4800

> <Gold.Chemscore.Hbond>
1.4060

> <Gold.Chemscore.Metal>
0.0000

> <Gold.Chemscore.Lipo>
93.6032

> <Gold.Chemscore.Internal_Hbond>
0.0000

> <Gold.Chemscore.DEClash>
0.0285

> <Gold.Chemscore.DEInternal>
0.6517

> <Gold.Chemscore.Rot>
1.9799

> <Gold.Chemscore.Internal.Correction>
   9.000000E+99

> <Gold.Chemscore.Hbonds>
donor molecule, donor type, donor heavy atom, donor atom, acceptor molecule, acceptor atom, score
      L1  H    10    36       P1  7948  0.99
      P1  H 10752 10763       L1    15  0.06

> <Gold.Chemscore.Hbond.Weighted>
-4.6962

> <Gold.Chemscore.Metal.Weighted>
-0.0000

> <Gold.Chemscore.Lipo.Weighted>
-10.9516

> <Gold.Chemscore.Internal_Hbond.Weighted>
0.0000

> <Gold.Chemscore.DEClash.Weighted>
0.0285

> <Gold.Chemscore.DEInternal.Weighted>
0.6517

> <Gold.Chemscore.Rot.Weighted>
5.0685

> <Gold.Chemscore.Internal.Correction.Weighted>
   9.000000E+99

> <Gold.Protein.RotatedTorsions>
[ 6907 6896 6895 6894 ] final  -55.55 input  -60.11 | X-H torsion
[ 7974 7965 7964 7962 ] final -123.86 input  175.53 | X-H torsion
[ 8008 7997 7996 7995 ] final  163.84 input   59.86 | X-H torsion
[ 10167 10162 10161 10158 ] final -160.63 input  -65.29 | X-H torsion
[ 10718 10713 10712 10709 ] final   93.93 input   66.30 | X-H torsion
[ 10763 10752 10751 10750 ] final  103.32 input  -60.55 | X-H torsion
[ 11005 11000 10999 10996 ] final -172.97 input  -57.11 | X-H torsion

> <Gold.Protein.ActiveResidues>
 VAL166  LYS551  ARG553  GLY616  TRP617  ASP618  TYR619  PRO620  LYS621  CYS622 
 ASP623  PHE694  ASN695  SER759  ASP760  ASP761  ALA762  ILE779  LEU786  VAL792 
 PHE793  MET794  SER795  GLU796  ALA797  LYS798  CYS799  TRP800  GLU811  SER814 

> <Gold.Protein.RotatedAtoms>
  150.8242  134.7465  159.6798 H   0  0  0  0  0  0  0  0  0  0  0  0  # atno 6907 bound_to 6896
  152.4355  134.5692  159.9926 H   0  0  0  0  0  0  0  0  0  0  0  0  # atno 6908 bound_to 6896
  151.5868  133.3333  159.3055 H   0  0  0  0  0  0  0  0  0  0  0  0  # atno 6909 bound_to 6896
  145.0142  140.7932  143.4420 H   0  0  0  0  0  0  0  0  0  0  0  0  # atno 7974 bound_to 7965
  156.1926  140.1712  156.8062 H   0  0  0  0  0  0  0  0  0  0  0  0  # atno 8008 bound_to 7997
  154.5490  140.0721  156.8668 H   0  0  0  0  0  0  0  0  0  0  0  0  # atno 8009 bound_to 7997
  155.3066  140.3365  155.4248 H   0  0  0  0  0  0  0  0  0  0  0  0  # atno 8010 bound_to 7997
  139.6525  144.0058  152.2171 H   0  0  0  0  0  0  0  0  0  0  0  0  # atno 10167 bound_to 10162
  157.6951  131.0495  150.4109 H   0  0  0  0  0  0  0  0  0  0  0  0  # atno 10718 bound_to 10713
  153.3511  135.3980  155.1647 H   0  0  0  0  0  0  0  0  0  0  0  0  # atno 10763 bound_to 10752
  154.8662  135.3657  154.5220 H   0  0  0  0  0  0  0  0  0  0  0  0  # atno 10764 bound_to 10752
  153.5672  135.7080  153.5581 H   0  0  0  0  0  0  0  0  0  0  0  0  # atno 10765 bound_to 10752
  140.4910  134.5985  157.4954 H   0  0  0  0  0  0  0  0  0  0  0  0  # atno 11005 bound_to 11000
  145.1982  139.2265  143.5206 LP  0  0  0  0  0  0  0  0  0  0  0  0  # atno 17320 bound_to 7965
  146.3475  140.1794  142.8589 LP  0  0  0  0  0  0  0  0  0  0  0  0  # atno 17321 bound_to 7965
  139.9776  144.6451  150.7931 LP  0  0  0  0  0  0  0  0  0  0  0  0  # atno 17342 bound_to 10162
  140.7544  143.3027  151.3040 LP  0  0  0  0  0  0  0  0  0  0  0  0  # atno 17343 bound_to 10162
  156.4493  130.4008  149.6646 LP  0  0  0  0  0  0  0  0  0  0  0  0  # atno 17370 bound_to 10713
  156.3801  130.7575  151.2567 LP  0  0  0  0  0  0  0  0  0  0  0  0  # atno 17371 bound_to 10713
  139.9769  134.7200  155.9932 LP  0  0  0  0  0  0  0  0  0  0  0  0  # atno 17394 bound_to 11000
  141.1484  133.6552  156.3938 LP  0  0  0  0  0  0  0  0  0  0  0  0  # atno 17395 bound_to 11000

$$$$
