AV-unprocessed.smi:275|AV-procd|sdf|2065|dock5
  -GOLD-   2262021313D 1   1.00000     0.00000
 Structure written by MMmdl.
 65 69  0  0  0  0  0  0  0  0  1 V2000
  147.3826  134.7668  162.7352 C   0  0  0  0  0  0  0  0  0  0  0  0
  147.8640  136.1278  162.2054 C   0  0  0  0  0  0  0  0  0  0  0  0
  147.3452  137.2206  163.1600 C   0  0  0  0  0  0  0  0  0  0  0  0
  147.4461  136.4059  160.7373 C   0  0  1  0  0  0  0  0  0  0  0  0
  147.9818  135.3163  159.9155 N   0  0  0  0  0  0  0  0  0  0  0  0
  148.6583  135.6882  158.7072 C   0  0  0  0  0  0  0  0  0  0  0  0
  148.2586  135.1381  157.5281 N   0  0  0  0  0  0  0  0  0  0  0  0
  148.8448  135.4586  156.3721 C   0  0  0  0  0  0  0  0  0  0  0  0
  149.8567  136.2973  156.1582 N   0  0  0  0  0  0  0  0  0  0  0  0
  150.2989  136.8325  157.3299 C   0  0  0  0  0  0  0  0  0  0  0  0
  149.7732  136.5772  158.6300 C   0  0  0  0  0  0  0  0  0  0  0  0
  150.5032  137.2953  159.5710 N   0  0  0  0  0  0  0  0  0  0  0  0
  151.3880  137.9495  158.8716 C   0  0  0  0  0  0  0  0  0  0  0  0
  151.3192  137.7488  157.5135 N   0  0  0  0  0  0  0  0  0  0  0  0
  152.1652  138.3592  156.5052 C   0  0  0  0  0  0  0  0  0  0  0  0
  151.5513  139.6167  155.8296 C   0  0  1  0  0  0  0  0  0  0  0  0
  150.4310  139.1694  154.8592 C   0  0  0  0  0  0  0  0  0  0  0  0
  150.1160  140.1914  153.9357 O   0  0  0  0  0  0  0  0  0  0  0  0
  151.0399  140.6725  156.8577 C   0  0  2  0  0  0  0  0  0  0  0  0
  150.9230  142.0947  156.3267 C   0  0  0  0  0  0  0  0  0  0  0  0
  150.9109  142.9202  157.6035 C   0  0  0  0  0  0  0  0  0  0  0  0
  151.8803  142.2853  158.4184 O   0  0  0  0  0  0  0  0  0  0  0  0
  151.9401  140.9010  158.0883 C   0  0  0  0  0  0  0  0  0  0  0  0
  146.6645  134.7062  159.7766 C   0  0  0  0  0  0  0  0  0  0  0  0
  146.0470  136.0665  160.1320 C   0  0  0  0  0  0  0  0  0  0  0  0
  145.6119  136.8985  158.9000 C   0  0  0  0  0  0  0  0  0  0  0  0
  145.0600  138.2871  159.2510 C   0  0  0  0  0  0  0  0  0  0  0  0
  143.8425  138.1649  160.1696 C   0  0  0  0  0  0  0  0  0  0  0  0
  144.2006  137.3563  161.4181 C   0  0  0  0  0  0  0  0  0  0  0  0
  144.8142  135.9872  161.0556 C   0  0  0  0  0  0  0  0  0  0  0  0
  146.3325  134.5949  162.4973 H   0  0  0  0  0  0  0  0  0  0  0  0
  147.4867  134.7067  163.8190 H   0  0  0  0  0  0  0  0  0  0  0  0
  147.9689  133.9423  162.3379 H   0  0  0  0  0  0  0  0  0  0  0  0
  148.9527  136.1286  162.2805 H   0  0  0  0  0  0  0  0  0  0  0  0
  146.2555  137.2407  163.1829 H   0  0  0  0  0  0  0  0  0  0  0  0
  147.6916  138.2129  162.8705 H   0  0  0  0  0  0  0  0  0  0  0  0
  147.6913  137.0498  164.1798 H   0  0  0  0  0  0  0  0  0  0  0  0
  147.7556  137.3963  160.4060 H   0  0  0  0  0  0  0  0  0  0  0  0
  148.4416  134.9770  155.4936 H   0  0  0  0  0  0  0  0  0  0  0  0
  152.1091  138.6122  159.3275 H   0  0  0  0  0  0  0  0  0  0  0  0
  153.1082  138.6062  156.9931 H   0  0  0  0  0  0  0  0  0  0  0  0
  152.4046  137.6113  155.7486 H   0  0  0  0  0  0  0  0  0  0  0  0
  152.3239  140.0947  155.2250 H   0  0  0  0  0  0  0  0  0  0  0  0
  150.7222  138.2687  154.3176 H   0  0  0  0  0  0  0  0  0  0  0  0
  149.5076  138.9408  155.3890 H   0  0  0  0  0  0  0  0  0  0  0  0
  149.8140  139.7910  153.1346 H   0  0  0  0  0  0  0  0  0  0  0  0
  150.0504  140.3730  157.2077 H   0  0  0  0  0  0  0  0  0  0  0  0
  151.7953  142.3547  155.7252 H   0  0  0  0  0  0  0  0  0  0  0  0
  150.0280  142.2563  155.7251 H   0  0  0  0  0  0  0  0  0  0  0  0
  151.1523  143.9695  157.4333 H   0  0  0  0  0  0  0  0  0  0  0  0
  149.9367  142.8638  158.0913 H   0  0  0  0  0  0  0  0  0  0  0  0
  151.6138  140.3100  158.9430 H   0  0  0  0  0  0  0  0  0  0  0  0
  152.9806  140.6503  157.8812 H   0  0  0  0  0  0  0  0  0  0  0  0
  146.3850  134.3285  158.7932 H   0  0  0  0  0  0  0  0  0  0  0  0
  146.5010  133.9497  160.5454 H   0  0  0  0  0  0  0  0  0  0  0  0
  146.4396  137.0360  158.2057 H   0  0  0  0  0  0  0  0  0  0  0  0
  144.8564  136.3512  158.3347 H   0  0  0  0  0  0  0  0  0  0  0  0
  145.8354  138.8811  159.7360 H   0  0  0  0  0  0  0  0  0  0  0  0
  144.7854  138.8196  158.3401 H   0  0  0  0  0  0  0  0  0  0  0  0
  143.4813  139.1542  160.4521 H   0  0  0  0  0  0  0  0  0  0  0  0
  143.0270  137.6752  159.6359 H   0  0  0  0  0  0  0  0  0  0  0  0
  144.8951  137.9450  162.0130 H   0  0  0  0  0  0  0  0  0  0  0  0
  143.3130  137.2132  162.0350 H   0  0  0  0  0  0  0  0  0  0  0  0
  144.0427  135.3887  160.5693 H   0  0  0  0  0  0  0  0  0  0  0  0
  145.0525  135.4384  161.9659 H   0  0  0  0  0  0  0  0  0  0  0  0
  1  2  1  0  0  0  0
  1 31  1  0  0  0  0
  1 32  1  0  0  0  0
  1 33  1  0  0  0  0
  2  3  1  0  0  0  0
  2  4  1  0  0  0  0
  2 34  1  0  0  0  0
  3 35  1  0  0  0  0
  3 36  1  0  0  0  0
  3 37  1  0  0  0  0
  4 25  1  0  0  0  0
  4  5  1  0  0  0  0
  4 38  1  0  0  0  0
  5  6  1  0  0  0  0
  5 24  1  0  0  0  0
  6 11  1  0  0  0  0
  6  7  2  0  0  0  0
  7  8  1  0  0  0  0
  8  9  2  0  0  0  0
  8 39  1  0  0  0  0
  9 10  1  0  0  0  0
 10 14  1  0  0  0  0
 10 11  2  0  0  0  0
 11 12  1  0  0  0  0
 12 13  2  0  0  0  0
 13 14  1  0  0  0  0
 13 40  1  0  0  0  0
 14 15  1  0  0  0  0
 15 16  1  0  0  0  0
 15 41  1  0  0  0  0
 15 42  1  0  0  0  0
 16 17  1  0  0  0  0
 16 19  1  0  0  0  0
 16 43  1  0  0  0  0
 17 18  1  0  0  0  0
 17 44  1  0  0  0  0
 17 45  1  0  0  0  0
 18 46  1  0  0  0  0
 19 23  1  0  0  0  0
 19 20  1  0  0  0  0
 19 47  1  0  0  0  0
 20 21  1  0  0  0  0
 20 48  1  0  0  0  0
 20 49  1  0  0  0  0
 21 22  1  0  0  0  0
 21 50  1  0  0  0  0
 21 51  1  0  0  0  0
 22 23  1  0  0  0  0
 23 52  1  0  0  0  0
 23 53  1  0  0  0  0
 24 25  1  0  0  0  0
 24 54  1  0  0  0  0
 24 55  1  0  0  0  0
 25 30  1  0  0  0  0
 25 26  1  0  0  0  0
 26 27  1  0  0  0  0
 26 56  1  0  0  0  0
 26 57  1  0  0  0  0
 27 28  1  0  0  0  0
 27 58  1  0  0  0  0
 27 59  1  0  0  0  0
 28 29  1  0  0  0  0
 28 60  1  0  0  0  0
 28 61  1  0  0  0  0
 29 30  1  0  0  0  0
 29 62  1  0  0  0  0
 29 63  1  0  0  0  0
 30 64  1  0  0  0  0
 30 65  1  0  0  0  0
M  END
> <s_m_source_file>
AV-unprocessed.smi

> <i_m_source_file_index>
275

> <i_lp_mmshare_version>
43012

> <i_f3d_flags>
0

> <s_epik_input>
W0NIMl0xW0NIMl1bQ0gyXVtDSDJdW0NIMl1DMTJbQ0BIXShbQ0hdKFtDSDNdKVtDSDNdKU4oW0NIMl0yKWMobltjSF1uMyljKGMzNCluW2NIXW40W0NIMl1bQ0BIXShbQ0gyXVtPSF0pW0NAQEhdNVtDSDJdW0NIMl1PW0NIMl01

> <s_epik_cmdline>
J2VwaWtfcHl0aG9uJywgJy1waCcsICc3LjAnLCAnLXRuJywgJzgnLCAnLW1hJywgJzIwMCcsICctbWV0YWxfYmluZGluZycsICctaW1hZScsICc8aW5maWxlLm1hZT4nLCAnLW9tYWUnLCAnPG91dGZpbGUubWFlPic=

> <r_lp_tautomer_probability>
1

> <r_epik_Ionization_Penalty>
0.00375122

> <r_epik_Ionization_Penalty_Charging>
0

> <r_epik_Ionization_Penalty_Neutral>
0.00375122

> <r_epik_State_Penalty>
0.00260593

> <r_epik_Charging_Adjusted_Penalty>
0.00260593

> <i_epik_Tot_Q>
0

> <i_epik_Tot_abs_Q>
0

> <r_epik_Metal_State_Penalty>
-0

> <b_epik_Metal_Only>
0

> <s_lp_Force_Field>
OPLS_2005

> <r_lp_Energy>
67.0366

> <b_lp_Chiralities_Consistent>
1

> <s_lp_Variant>
AV-unprocessed.smi:275-4

> <Gold.Version>
5.8.1

> <Gold.Id.Protein>
6NUR|6NUR_protein|mol2

> <Gold.PLP.Fitness>
44.6271

> <Gold.PLP.PLP>
-41.3588

> <Gold.PLP.part.hbond>
-2.5755

> <Gold.PLP.part.metal>
0.0000

> <Gold.PLP.part.buried>
-5.9474

> <Gold.PLP.part.nonpolar>
-33.2574

> <Gold.PLP.part.repulsive>
0.0400

> <Gold.PLP.ligand.clash>
0.0000

> <Gold.PLP.ligand.torsion>
1.3092

> <Gold.PLP.Chemscore.Hbond>
1.7837

> <Gold.PLP.Chemscore.CHOScore>
0.0000

> <Gold.PLP.Chemscore.Metal>
0.0000

> <Gold.Chemscore.Hbonds>
donor molecule, donor type, donor heavy atom, donor atom, acceptor molecule, acceptor atom, score
      L1  H    18    46       P1  7957  0.90
      P1  H  7989  7998       L1    18  0.85

> <Gold.PLP.Chemscore.Internal.Correction>
0.5354

> <Gold.Rescore>
     Score         DG    S(hbond)    S(metal)    S(lipo)     H(rot)  DE(clash)    DE(int)     intcor
     13.31     -15.36       1.31        0.00     102.57       2.54       0.02       2.03       ----

> <Gold.Chemscore.Fitness>
13.3113

> <Gold.Chemscore.DG>
-15.3644

> <Gold.Chemscore.ZeroCoef>
-5.4800

> <Gold.Chemscore.Hbond>
1.3116

> <Gold.Chemscore.Metal>
0.0000

> <Gold.Chemscore.Lipo>
102.5650

> <Gold.Chemscore.Internal_Hbond>
0.0000

> <Gold.Chemscore.DEClash>
0.0185

> <Gold.Chemscore.DEInternal>
2.0346

> <Gold.Chemscore.Rot>
2.5377

> <Gold.Chemscore.Internal.Correction>
   9.000000E+99

> <Gold.Chemscore.Hbonds>
donor molecule, donor type, donor heavy atom, donor atom, acceptor molecule, acceptor atom, score
      L1  H    18    46       P1  7957  0.85
      P1  H  7989  7998       L1    18  0.16

> <Gold.Chemscore.Hbond.Weighted>
-4.3809

> <Gold.Chemscore.Metal.Weighted>
-0.0000

> <Gold.Chemscore.Lipo.Weighted>
-12.0001

> <Gold.Chemscore.Internal_Hbond.Weighted>
0.0000

> <Gold.Chemscore.DEClash.Weighted>
0.0185

> <Gold.Chemscore.DEInternal.Weighted>
2.0346

> <Gold.Chemscore.Rot.Weighted>
6.4966

> <Gold.Chemscore.Internal.Correction.Weighted>
   9.000000E+99

> <Gold.Protein.RotatedTorsions>
[ 6907 6896 6895 6894 ] final  -89.04 input  -60.11 | X-H torsion
[ 7974 7965 7964 7962 ] final -173.29 input  175.53 | X-H torsion
[ 8008 7997 7996 7995 ] final -101.42 input   59.86 | X-H torsion
[ 10167 10162 10161 10158 ] final   94.22 input  -65.29 | X-H torsion
[ 10718 10713 10712 10709 ] final   19.57 input   66.30 | X-H torsion
[ 10763 10752 10751 10750 ] final  115.17 input  -60.55 | X-H torsion
[ 11005 11000 10999 10996 ] final   91.69 input  -57.11 | X-H torsion

> <Gold.Protein.ActiveResidues>
 VAL166  LYS551  ARG553  GLY616  TRP617  ASP618  TYR619  PRO620  LYS621  CYS622 
 ASP623  PHE694  ASN695  SER759  ASP760  ASP761  ALA762  ILE779  LEU786  VAL792 
 PHE793  MET794  SER795  GLU796  ALA797  LYS798  CYS799  TRP800  GLU811  SER814 

> <Gold.Protein.RotatedAtoms>
  150.6871  134.2649  159.4563 H   0  0  0  0  0  0  0  0  0  0  0  0  # atno 6907 bound_to 6896
  152.0576  134.9612  160.0584 H   0  0  0  0  0  0  0  0  0  0  0  0  # atno 6908 bound_to 6896
  152.1052  133.4236  159.4642 H   0  0  0  0  0  0  0  0  0  0  0  0  # atno 6909 bound_to 6896
  144.7139  140.1645  143.6373 H   0  0  0  0  0  0  0  0  0  0  0  0  # atno 7974 bound_to 7965
  154.8423  140.0434  157.1550 H   0  0  0  0  0  0  0  0  0  0  0  0  # atno 8008 bound_to 7997
  154.9033  140.3003  155.5285 H   0  0  0  0  0  0  0  0  0  0  0  0  # atno 8009 bound_to 7997
  156.2993  140.2372  156.4063 H   0  0  0  0  0  0  0  0  0  0  0  0  # atno 8010 bound_to 7997
  139.8105  144.6775  150.9647 H   0  0  0  0  0  0  0  0  0  0  0  0  # atno 10167 bound_to 10162
  157.1123  130.6514  149.5901 H   0  0  0  0  0  0  0  0  0  0  0  0  # atno 10718 bound_to 10713
  153.5183  135.3603  155.2619 H   0  0  0  0  0  0  0  0  0  0  0  0  # atno 10763 bound_to 10752
  154.8737  135.4039  154.3290 H   0  0  0  0  0  0  0  0  0  0  0  0  # atno 10764 bound_to 10752
  153.3955  135.7073  153.6530 H   0  0  0  0  0  0  0  0  0  0  0  0  # atno 10765 bound_to 10752
  139.8835  134.8689  156.3464 H   0  0  0  0  0  0  0  0  0  0  0  0  # atno 11005 bound_to 11000
  145.9000  139.2425  143.1499 LP  0  0  0  0  0  0  0  0  0  0  0  0  # atno 17320 bound_to 7965
  145.9820  140.8675  143.0110 LP  0  0  0  0  0  0  0  0  0  0  0  0  # atno 17321 bound_to 7965
  140.7818  143.4190  151.0871 LP  0  0  0  0  0  0  0  0  0  0  0  0  # atno 17342 bound_to 10162
  139.7857  143.8291  152.3144 LP  0  0  0  0  0  0  0  0  0  0  0  0  # atno 17343 bound_to 10162
  155.9848  130.4874  150.6999 LP  0  0  0  0  0  0  0  0  0  0  0  0  # atno 17370 bound_to 10713
  157.4549  131.0876  151.0807 LP  0  0  0  0  0  0  0  0  0  0  0  0  # atno 17371 bound_to 10713
  140.9624  133.7380  156.0419 LP  0  0  0  0  0  0  0  0  0  0  0  0  # atno 17394 bound_to 11000
  140.7973  134.3549  157.5449 LP  0  0  0  0  0  0  0  0  0  0  0  0  # atno 17395 bound_to 11000

$$$$
