AV-unprocessed.smi:2721|AV-procd|sdf|10501|dock4
  -GOLD-   2272014543D 1   1.00000     0.00000
 Structure written by MMmdl.
 29 30  0  0  0  0  0  0  0  0  2 V2000
  152.1228  138.2296  154.5259 C   0  0  0  0  0  0  0  0  0  0  0  0
  150.9128  139.0235  154.5262 N   0  0  0  0  0  0  0  0  0  0  0  0
  149.6461  138.6622  154.1236 C   0  0  0  0  0  0  0  0  0  0  0  0
  148.8257  139.7436  154.3051 C   0  0  0  0  0  0  0  0  0  0  0  0
  147.3477  139.9339  154.0200 C   0  0  2  0  0  0  0  0  0  0  0  0
  146.5722  140.1759  155.1966 O   0  0  0  0  0  0  0  0  0  0  0  0
  146.3374  139.0487  156.0390 C   0  0  0  0  0  0  0  0  0  0  0  0
  145.6218  137.9329  155.2626 C   0  0  0  0  0  0  0  0  0  0  0  0
  146.4126  137.5486  154.0084 C   0  0  0  0  0  0  0  0  0  0  0  0
  146.6987  138.8071  153.1766 C   0  0  2  0  0  0  0  0  0  0  0  0
  147.4887  138.4937  151.9711 N   0  3  0  0  0  0  0  0  0  0  0  0
  149.7112  140.7284  154.8320 C   0  0  0  0  0  0  0  0  0  0  0  0
  150.9546  140.2980  154.9600 N   0  0  0  0  0  0  0  0  0  0  0  0
  147.2417  140.8495  153.4364 H   0  0  0  0  0  0  0  0  0  0  0  0
  145.7361  139.1796  152.8233 H   0  0  0  0  0  0  0  0  0  0  0  0
  151.9024  137.2110  154.2055 H   0  0  0  0  0  0  0  0  0  0  0  0
  152.5471  138.2008  155.5302 H   0  0  0  0  0  0  0  0  0  0  0  0
  152.8503  138.6673  153.8417 H   0  0  0  0  0  0  0  0  0  0  0  0
  149.4449  137.6714  153.7449 H   0  0  0  0  0  0  0  0  0  0  0  0
  147.2681  138.6879  156.4734 H   0  0  0  0  0  0  0  0  0  0  0  0
  145.7172  139.3700  156.8758 H   0  0  0  0  0  0  0  0  0  0  0  0
  145.4801  137.0603  155.9011 H   0  0  0  0  0  0  0  0  0  0  0  0
  144.6262  138.2738  154.9754 H   0  0  0  0  0  0  0  0  0  0  0  0
  147.3392  137.0494  154.2894 H   0  0  0  0  0  0  0  0  0  0  0  0
  145.8436  136.8272  153.4207 H   0  0  0  0  0  0  0  0  0  0  0  0
  148.2135  139.1875  151.8536 H   0  0  0  0  0  0  0  0  0  0  0  0
  146.8850  138.5008  151.1614 H   0  0  0  0  0  0  0  0  0  0  0  0
  149.4863  141.7450  155.1194 H   0  0  0  0  0  0  0  0  0  0  0  0
  147.9085  137.5804  152.0694 H   0  0  0  0  0  0  0  0  0  0  0  0
  1  2  1  0  0  0  0
  1 16  1  0  0  0  0
  1 17  1  0  0  0  0
  1 18  1  0  0  0  0
  2 13  1  0  0  0  0
  2  3  1  0  0  0  0
  3  4  2  0  0  0  0
  3 19  1  0  0  0  0
  4  5  1  0  0  0  0
  4 12  1  0  0  0  0
  5 14  1  0  0  0  0
  5 10  1  0  0  0  0
  5  6  1  0  0  0  0
  6  7  1  0  0  0  0
  7  8  1  0  0  0  0
  7 20  1  0  0  0  0
  7 21  1  0  0  0  0
  8  9  1  0  0  0  0
  8 22  1  0  0  0  0
  8 23  1  0  0  0  0
  9 10  1  0  0  0  0
  9 24  1  0  0  0  0
  9 25  1  0  0  0  0
 10 15  1  0  0  0  0
 10 11  1  0  0  0  0
 11 26  1  0  0  0  0
 11 27  1  0  0  0  0
 11 29  1  0  0  0  0
 12 13  2  0  0  0  0
 12 28  1  0  0  0  0
M  CHG  1  11   1
M  END
> <s_m_source_file>
AV-unprocessed.smi

> <i_m_source_file_index>
2721

> <i_lp_mmshare_version>
43012

> <i_f3d_flags>
0

> <s_epik_input>
W0NIM11uMVtjSF1jKFtjSF1uMSlbQ0BIXTJPW0NIMl1bQ0gyXVtDSDJdW0NAQEhdMltOSDJd

> <s_epik_cmdline>
J2VwaWtfcHl0aG9uJywgJy1waCcsICc3LjAnLCAnLXRuJywgJzgnLCAnLW1hJywgJzIwMCcsICctbWV0YWxfYmluZGluZycsICctaW1hZScsICc8aW5maWxlLm1hZT4nLCAnLW9tYWUnLCAnPG91dGZpbGUubWFlPic=

> <r_lp_tautomer_probability>
1

> <r_epik_Ionization_Penalty>
0.0061467

> <r_epik_Ionization_Penalty_Charging>
0.00611941

> <r_epik_Ionization_Penalty_Neutral>
2.72888e-05

> <r_epik_State_Penalty>
0.00451057

> <r_epik_Charging_Adjusted_Penalty>
0.01063

> <i_epik_Tot_Q>
1

> <i_epik_Tot_abs_Q>
1

> <r_epik_Metal_State_Penalty>
-0

> <b_epik_Metal_Only>
0

> <s_lp_Force_Field>
OPLS_2005

> <r_lp_Energy>
14.6487

> <b_lp_Chiralities_Consistent>
1

> <s_lp_Variant>
AV-unprocessed.smi:2721-2

> <Gold.Version>
5.8.1

> <Gold.Id.Protein>
6NUR|6NUR_protein|mol2

> <Gold.PLP.Fitness>
35.5239

> <Gold.PLP.PLP>
-21.4967

> <Gold.PLP.part.hbond>
-3.0000

> <Gold.PLP.part.metal>
0.0000

> <Gold.PLP.part.buried>
-2.1636

> <Gold.PLP.part.nonpolar>
-16.8063

> <Gold.PLP.part.repulsive>
0.2086

> <Gold.PLP.ligand.clash>
0.0000

> <Gold.PLP.ligand.torsion>
0.1418

> <Gold.PLP.Chemscore.Hbond>
3.7500

> <Gold.PLP.Chemscore.CHOScore>
1.0000

> <Gold.PLP.Chemscore.Metal>
0.0000

> <Gold.Chemscore.Hbonds>
donor molecule, donor type, donor heavy atom, donor atom, acceptor molecule, acceptor atom, score
      L1  H    11    26       P1  7957  1.00
      L1  H    11    29       P1  7948  2.00
      P1  H  7989  7998       L1    13  0.65
      L1  C     3    19       P1  7948  1.00

> <Gold.PLP.Chemscore.Internal.Correction>
0.0607

> <Gold.Rescore>
     Score         DG    S(hbond)    S(metal)    S(lipo)     H(rot)  DE(clash)    DE(int)     intcor
     14.58     -14.96       2.05        0.00      44.24       1.00       0.04       0.34       ----

> <Gold.Chemscore.Fitness>
14.5811

> <Gold.Chemscore.DG>
-14.9581

> <Gold.Chemscore.ZeroCoef>
-5.4800

> <Gold.Chemscore.Hbond>
2.0546

> <Gold.Chemscore.Metal>
0.0000

> <Gold.Chemscore.Lipo>
44.2383

> <Gold.Chemscore.Internal_Hbond>
0.0000

> <Gold.Chemscore.DEClash>
0.0414

> <Gold.Chemscore.DEInternal>
0.3356

> <Gold.Chemscore.Rot>
1.0000

> <Gold.Chemscore.Internal.Correction>
   9.000000E+99

> <Gold.Chemscore.Hbonds>
donor molecule, donor type, donor heavy atom, donor atom, acceptor molecule, acceptor atom, score
      L1  H    11    26       P1  7957  0.98
      L1  H    11    29       P1  7948  1.00
      P1  H  7989  7998       L1    13  0.01

> <Gold.Chemscore.Hbond.Weighted>
-6.8622

> <Gold.Chemscore.Metal.Weighted>
-0.0000

> <Gold.Chemscore.Lipo.Weighted>
-5.1759

> <Gold.Chemscore.Internal_Hbond.Weighted>
0.0000

> <Gold.Chemscore.DEClash.Weighted>
0.0414

> <Gold.Chemscore.DEInternal.Weighted>
0.3356

> <Gold.Chemscore.Rot.Weighted>
2.5600

> <Gold.Chemscore.Internal.Correction.Weighted>
   9.000000E+99

> <Gold.Protein.RotatedTorsions>
[ 6907 6896 6895 6894 ] final   37.81 input  -60.11 | X-H torsion
[ 7974 7965 7964 7962 ] final -107.26 input  175.53 | X-H torsion
[ 8008 7997 7996 7995 ] final  -81.18 input   59.86 | X-H torsion
[ 10167 10162 10161 10158 ] final  -95.24 input  -65.29 | X-H torsion
[ 10718 10713 10712 10709 ] final -174.85 input   66.30 | X-H torsion
[ 10763 10752 10751 10750 ] final  -23.29 input  -60.55 | X-H torsion
[ 11005 11000 10999 10996 ] final  152.81 input  -57.11 | X-H torsion

> <Gold.Protein.ActiveResidues>
 VAL166  LYS551  ARG553  GLY616  TRP617  ASP618  TYR619  PRO620  LYS621  CYS622 
 ASP623  PHE694  ASN695  SER759  ASP760  ASP761  ALA762  ILE779  LEU786  VAL792 
 PHE793  MET794  SER795  GLU796  ALA797  LYS798  CYS799  TRP800  GLU811  SER814 

> <Gold.Protein.RotatedAtoms>
  152.1482  134.9009  160.0549 H   0  0  0  0  0  0  0  0  0  0  0  0  # atno 6907 bound_to 6896
  152.0051  133.3835  159.4205 H   0  0  0  0  0  0  0  0  0  0  0  0  # atno 6908 bound_to 6896
  150.6872  134.3713  159.5037 H   0  0  0  0  0  0  0  0  0  0  0  0  # atno 6909 bound_to 6896
  145.2075  140.9082  143.3334 H   0  0  0  0  0  0  0  0  0  0  0  0  # atno 7974 bound_to 7965
  154.5958  140.0651  156.9301 H   0  0  0  0  0  0  0  0  0  0  0  0  # atno 8008 bound_to 7997
  155.2217  140.3330  155.4296 H   0  0  0  0  0  0  0  0  0  0  0  0  # atno 8009 bound_to 7997
  156.2286  140.1830  156.7284 H   0  0  0  0  0  0  0  0  0  0  0  0  # atno 8010 bound_to 7997
  140.3062  143.3132  152.0197 H   0  0  0  0  0  0  0  0  0  0  0  0  # atno 10167 bound_to 10162
  156.7911  130.9518  151.3120 H   0  0  0  0  0  0  0  0  0  0  0  0  # atno 10718 bound_to 10713
  153.6654  135.6974  153.5164 H   0  0  0  0  0  0  0  0  0  0  0  0  # atno 10763 bound_to 10752
  153.2599  135.4248  155.0882 H   0  0  0  0  0  0  0  0  0  0  0  0  # atno 10764 bound_to 10752
  154.8441  135.3552  154.6199 H   0  0  0  0  0  0  0  0  0  0  0  0  # atno 10765 bound_to 10752
  140.1341  134.8782  157.2244 H   0  0  0  0  0  0  0  0  0  0  0  0  # atno 11005 bound_to 11000
  144.9888  139.3710  143.6225 LP  0  0  0  0  0  0  0  0  0  0  0  0  # atno 17320 bound_to 7965
  146.3405  139.9061  142.8787 LP  0  0  0  0  0  0  0  0  0  0  0  0  # atno 17321 bound_to 7965
  139.4904  144.6419  151.6859 LP  0  0  0  0  0  0  0  0  0  0  0  0  # atno 17342 bound_to 10162
  140.5608  144.0271  150.6169 LP  0  0  0  0  0  0  0  0  0  0  0  0  # atno 17343 bound_to 10162
  157.6600  130.8958  149.9809 LP  0  0  0  0  0  0  0  0  0  0  0  0  # atno 17370 bound_to 10713
  156.1158  130.3648  149.9970 LP  0  0  0  0  0  0  0  0  0  0  0  0  # atno 17371 bound_to 10713
  140.2804  134.3356  155.7345 LP  0  0  0  0  0  0  0  0  0  0  0  0  # atno 17394 bound_to 11000
  141.2175  133.7475  156.9356 LP  0  0  0  0  0  0  0  0  0  0  0  0  # atno 17395 bound_to 11000

$$$$
