AV-unprocessed.smi:3340|AV-procd|sdf|12879|dock10
  -GOLD-   2272019283D 1   1.00000     0.00000
 Structure written by MMmdl.
 42 43  0  0  0  0  0  0  0  0  2 V2000
  152.1542  130.2896  156.9659 C   0  0  0  0  0  0  0  0  0  0  0  0
  151.4867  131.6646  156.8896 C   0  0  0  0  0  0  0  0  0  0  0  0
  152.0677  132.6175  157.4093 O   0  0  0  0  0  0  0  0  0  0  0  0
  150.2939  131.7897  156.2594 N   0  0  0  0  0  0  0  0  0  0  0  0
  149.6177  133.0835  156.0853 C   0  0  0  0  0  0  0  0  0  0  0  0
  149.5575  133.4175  154.5811 C   0  0  0  0  0  0  0  0  0  0  0  0
  148.8404  132.3358  153.8779 N   0  0  0  0  0  0  0  0  0  0  0  0
  147.6175  132.4329  153.2990 C   0  0  0  0  0  0  0  0  0  0  0  0
  146.8177  133.3347  153.5533 O   0  0  0  0  0  0  0  0  0  0  0  0
  147.3145  131.4280  152.4593 N   0  0  0  0  0  0  0  0  0  0  0  0
  146.0536  131.2704  151.7407 C   0  0  2  0  0  0  0  0  0  0  0  0
  145.7206  129.7734  151.6317 C   0  0  0  0  0  0  0  0  0  0  0  0
  146.1330  131.9778  150.3707 C   0  0  0  0  0  0  0  0  0  0  0  0
  145.1847  133.0885  150.2465 N   0  0  0  0  0  0  0  0  0  0  0  0
  145.3650  134.3811  150.6666 C   0  0  0  0  0  0  0  0  0  0  0  0
  144.2199  135.0613  150.3409 C   0  0  0  0  0  0  0  0  0  0  0  0
  143.3908  134.1563  149.7338 N   0  3  0  0  0  0  0  0  0  0  0  0
  143.9807  132.9579  149.6741 C   0  0  0  0  0  0  0  0  0  0  0  0
  149.5158  131.0416  154.0610 C   0  0  0  0  0  0  0  0  0  0  0  0
  149.5775  130.7091  155.5650 C   0  0  0  0  0  0  0  0  0  0  0  0
  152.3572  129.9027  155.9669 H   0  0  0  0  0  0  0  0  0  0  0  0
  151.5210  129.5811  157.5005 H   0  0  0  0  0  0  0  0  0  0  0  0
  153.1047  130.3527  157.4966 H   0  0  0  0  0  0  0  0  0  0  0  0
  148.6105  133.0228  156.5005 H   0  0  0  0  0  0  0  0  0  0  0  0
  150.1132  133.8948  156.6198 H   0  0  0  0  0  0  0  0  0  0  0  0
  149.1101  134.4030  154.4547 H   0  0  0  0  0  0  0  0  0  0  0  0
  150.5666  133.4985  154.1742 H   0  0  0  0  0  0  0  0  0  0  0  0
  148.0116  130.7115  152.3169 H   0  0  0  0  0  0  0  0  0  0  0  0
  145.2600  131.7363  152.3279 H   0  0  0  0  0  0  0  0  0  0  0  0
  144.7381  129.6132  151.1878 H   0  0  0  0  0  0  0  0  0  0  0  0
  145.7091  129.3030  152.6155 H   0  0  0  0  0  0  0  0  0  0  0  0
  146.4539  129.2471  151.0199 H   0  0  0  0  0  0  0  0  0  0  0  0
  147.1312  132.3859  150.2049 H   0  0  0  0  0  0  0  0  0  0  0  0
  145.9432  131.2707  149.5614 H   0  0  0  0  0  0  0  0  0  0  0  0
  146.2711  134.7108  151.1546 H   0  0  0  0  0  0  0  0  0  0  0  0
  143.9405  136.0941  150.4915 H   0  0  0  0  0  0  0  0  0  0  0  0
  143.5634  132.0611  149.2520 H   0  0  0  0  0  0  0  0  0  0  0  0
  149.0235  130.2297  153.5241 H   0  0  0  0  0  0  0  0  0  0  0  0
  150.5233  131.1018  153.6466 H   0  0  0  0  0  0  0  0  0  0  0  0
  150.0278  129.7272  155.7005 H   0  0  0  0  0  0  0  0  0  0  0  0
  148.5691  130.6291  155.9734 H   0  0  0  0  0  0  0  0  0  0  0  0
  142.4648  134.3617  149.3799 H   0  0  0  0  0  0  0  0  0  0  0  0
  1  2  1  0  0  0  0
  1 21  1  0  0  0  0
  1 22  1  0  0  0  0
  1 23  1  0  0  0  0
  2  3  2  0  0  0  0
  2  4  1  0  0  0  0
  4 20  1  0  0  0  0
  4  5  1  0  0  0  0
  5  6  1  0  0  0  0
  5 24  1  0  0  0  0
  5 25  1  0  0  0  0
  6  7  1  0  0  0  0
  6 26  1  0  0  0  0
  6 27  1  0  0  0  0
  7  8  1  0  0  0  0
  7 19  1  0  0  0  0
  8  9  2  0  0  0  0
  8 10  1  0  0  0  0
 10 11  1  0  0  0  0
 10 28  1  0  0  0  0
 11 12  1  0  0  0  0
 11 13  1  0  0  0  0
 11 29  1  0  0  0  0
 12 30  1  0  0  0  0
 12 31  1  0  0  0  0
 12 32  1  0  0  0  0
 13 14  1  0  0  0  0
 13 33  1  0  0  0  0
 13 34  1  0  0  0  0
 14 18  1  0  0  0  0
 14 15  1  0  0  0  0
 15 16  2  0  0  0  0
 15 35  1  0  0  0  0
 16 17  1  0  0  0  0
 16 36  1  0  0  0  0
 17 18  2  0  0  0  0
 17 42  1  0  0  0  0
 18 37  1  0  0  0  0
 19 20  1  0  0  0  0
 19 38  1  0  0  0  0
 19 39  1  0  0  0  0
 20 40  1  0  0  0  0
 20 41  1  0  0  0  0
M  CHG  1  17   1
M  END
> <s_m_source_file>
AV-unprocessed.smi

> <i_m_source_file_index>
3340

> <i_lp_mmshare_version>
43012

> <i_f3d_flags>
0

> <s_epik_input>
W0NIM11DKD1PKU4xW0NIMl1bQ0gyXU4oW0NIMl1bQ0gyXTEpQyg9TylbTkhdW0NASF0oW0NIM10pW0NIMl1uMltjSF1bY0hdbltjSF0y

> <s_epik_cmdline>
J2VwaWtfcHl0aG9uJywgJy1waCcsICc3LjAnLCAnLXRuJywgJzgnLCAnLW1hJywgJzIwMCcsICctbWV0YWxfYmluZGluZycsICctaW1hZScsICc8aW5maWxlLm1hZT4nLCAnLW9tYWUnLCAnPG91dGZpbGUubWFlPic=

> <r_lp_tautomer_probability>
1

> <r_epik_Ionization_Penalty>
0.254791

> <r_epik_Ionization_Penalty_Charging>
0

> <r_epik_Ionization_Penalty_Neutral>
0.254791

> <r_epik_State_Penalty>
0.246235

> <r_epik_Charging_Adjusted_Penalty>
0.246235

> <i_epik_Tot_Q>
1

> <i_epik_Tot_abs_Q>
1

> <r_epik_Metal_State_Penalty>
0.536161

> <b_epik_Metal_Only>
0

> <s_lp_Force_Field>
OPLS_2005

> <r_lp_Energy>
50.8971

> <b_lp_Chiralities_Consistent>
1

> <s_lp_Variant>
AV-unprocessed.smi:3340-1

> <Gold.Version>
5.8.1

> <Gold.Id.Protein>
6NUR|6NUR_protein|mol2

> <Gold.PLP.Fitness>
44.7702

> <Gold.PLP.PLP>
-36.2848

> <Gold.PLP.part.hbond>
-3.0000

> <Gold.PLP.part.metal>
0.0000

> <Gold.PLP.part.buried>
-3.5730

> <Gold.PLP.part.nonpolar>
-30.3972

> <Gold.PLP.part.repulsive>
0.1287

> <Gold.PLP.ligand.clash>
0.0120

> <Gold.PLP.ligand.torsion>
1.6692

> <Gold.PLP.Chemscore.Hbond>
2.9280

> <Gold.PLP.Chemscore.CHOScore>
0.9968

> <Gold.PLP.Chemscore.Metal>
0.0000

> <Gold.Chemscore.Hbonds>
donor molecule, donor type, donor heavy atom, donor atom, acceptor molecule, acceptor atom, score
      L1  H    10    28       P1 10747  0.12
      L1  H    17    42       P1 10186  1.66
      P1  H  6896  6907       L1     3  0.90

> <Gold.PLP.Chemscore.Internal.Correction>
0.0615

> <Gold.Rescore>
     Score         DG    S(hbond)    S(metal)    S(lipo)     H(rot)  DE(clash)    DE(int)     intcor
     12.73     -14.24       1.93        0.00      56.84       1.70       0.01       1.50       ----

> <Gold.Chemscore.Fitness>
12.7295

> <Gold.Chemscore.DG>
-14.2425

> <Gold.Chemscore.ZeroCoef>
-5.4800

> <Gold.Chemscore.Hbond>
1.9334

> <Gold.Chemscore.Metal>
0.0000

> <Gold.Chemscore.Lipo>
56.8413

> <Gold.Chemscore.Internal_Hbond>
0.0000

> <Gold.Chemscore.DEClash>
0.0118

> <Gold.Chemscore.DEInternal>
1.5012

> <Gold.Chemscore.Rot>
1.6975

> <Gold.Chemscore.Internal.Correction>
   9.000000E+99

> <Gold.Chemscore.Hbonds>
donor molecule, donor type, donor heavy atom, donor atom, acceptor molecule, acceptor atom, score
      L1  H    10    28       P1 10747  0.12
      L1  H    17    42       P1 10186  0.77
      P1  H  6896  6907       L1     3  0.83

> <Gold.Chemscore.Hbond.Weighted>
-6.4576

> <Gold.Chemscore.Metal.Weighted>
-0.0000

> <Gold.Chemscore.Lipo.Weighted>
-6.6504

> <Gold.Chemscore.Internal_Hbond.Weighted>
0.0000

> <Gold.Chemscore.DEClash.Weighted>
0.0118

> <Gold.Chemscore.DEInternal.Weighted>
1.5012

> <Gold.Chemscore.Rot.Weighted>
4.3455

> <Gold.Chemscore.Internal.Correction.Weighted>
   9.000000E+99

> <Gold.Protein.RotatedTorsions>
[ 6907 6896 6895 6894 ] final  166.21 input  -60.11 | X-H torsion
[ 7974 7965 7964 7962 ] final  -36.64 input  175.53 | X-H torsion
[ 8008 7997 7996 7995 ] final  114.28 input   59.86 | X-H torsion
[ 10167 10162 10161 10158 ] final  -99.82 input  -65.29 | X-H torsion
[ 10718 10713 10712 10709 ] final -108.17 input   66.30 | X-H torsion
[ 10763 10752 10751 10750 ] final   38.33 input  -60.55 | X-H torsion
[ 11005 11000 10999 10996 ] final  116.45 input  -57.11 | X-H torsion

> <Gold.Protein.ActiveResidues>
 VAL166  LYS551  ARG553  GLY616  TRP617  ASP618  TYR619  PRO620  LYS621  CYS622 
 ASP623  PHE694  ASN695  SER759  ASP760  ASP761  ALA762  ILE779  LEU786  VAL792 
 PHE793  MET794  SER795  GLU796  ALA797  LYS798  CYS799  TRP800  GLU811  SER814 

> <Gold.Protein.RotatedAtoms>
  151.8824  133.3498  159.3770 H   0  0  0  0  0  0  0  0  0  0  0  0  # atno 6907 bound_to 6896
  150.7124  134.5005  159.5568 H   0  0  0  0  0  0  0  0  0  0  0  0  # atno 6908 bound_to 6896
  152.2559  134.8084  160.0489 H   0  0  0  0  0  0  0  0  0  0  0  0  # atno 6909 bound_to 6896
  146.0644  140.6303  142.8982 H   0  0  0  0  0  0  0  0  0  0  0  0  # atno 7974 bound_to 7965
  156.2311  140.2962  156.0191 H   0  0  0  0  0  0  0  0  0  0  0  0  # atno 8008 bound_to 7997
  155.2222  140.0416  157.2967 H   0  0  0  0  0  0  0  0  0  0  0  0  # atno 8009 bound_to 7997
  154.5998  140.2424  155.7816 H   0  0  0  0  0  0  0  0  0  0  0  0  # atno 8010 bound_to 7997
  140.2584  143.3424  152.0649 H   0  0  0  0  0  0  0  0  0  0  0  0  # atno 10167 bound_to 10162
  156.0472  130.5699  150.7924 H   0  0  0  0  0  0  0  0  0  0  0  0  # atno 10718 bound_to 10713
  153.0005  135.6252  154.2287 H   0  0  0  0  0  0  0  0  0  0  0  0  # atno 10763 bound_to 10752
  154.2030  135.2803  155.2986 H   0  0  0  0  0  0  0  0  0  0  0  0  # atno 10764 bound_to 10752
  154.5668  135.5688  153.7117 H   0  0  0  0  0  0  0  0  0  0  0  0  # atno 10765 bound_to 10752
  139.9041  134.9598  156.7199 H   0  0  0  0  0  0  0  0  0  0  0  0  # atno 11005 bound_to 11000
  144.7193  140.4320  143.7020 LP  0  0  0  0  0  0  0  0  0  0  0  0  # atno 17320 bound_to 7965
  145.6504  139.1564  143.2865 LP  0  0  0  0  0  0  0  0  0  0  0  0  # atno 17321 bound_to 7965
  139.5024  144.6734  151.6186 LP  0  0  0  0  0  0  0  0  0  0  0  0  # atno 17342 bound_to 10162
  140.5985  143.9652  150.6370 LP  0  0  0  0  0  0  0  0  0  0  0  0  # atno 17343 bound_to 10162
  157.5361  131.0939  150.9890 LP  0  0  0  0  0  0  0  0  0  0  0  0  # atno 17370 bound_to 10713
  157.0185  130.5664  149.5328 LP  0  0  0  0  0  0  0  0  0  0  0  0  # atno 17371 bound_to 10713
  140.7008  133.9308  155.8023 LP  0  0  0  0  0  0  0  0  0  0  0  0  # atno 17394 bound_to 11000
  141.0373  134.0672  157.3944 LP  0  0  0  0  0  0  0  0  0  0  0  0  # atno 17395 bound_to 11000

$$$$
