AV-unprocessed.smi:2816|AV-procd|sdf|10845|dock10
  -GOLD-   2272015283D 1   1.00000     0.00000
 Structure written by MMmdl.
 43 45  0  0  0  0  0  0  0  0  1 V2000
  151.6106  129.0978  157.1275 C   0  0  0  0  0  0  0  0  0  0  0  0
  151.9695  130.4190  156.4252 C   0  0  0  0  0  0  0  0  0  0  0  0
  153.4021  130.8327  156.8077 C   0  0  0  0  0  0  0  0  0  0  0  0
  151.8519  130.2362  154.9008 C   0  0  0  0  0  0  0  0  0  0  0  0
  150.7686  131.7170  157.0077 S   0  0  0  0  0  0  0  0  0  0  0  0
  149.8270  131.0893  157.9484 O   0  0  0  0  0  0  0  0  0  0  0  0
  151.5478  132.8858  157.4468 O   0  0  0  0  0  0  0  0  0  0  0  0
  149.8335  132.2084  155.5573 C   0  0  0  0  0  0  0  0  0  0  0  0
  149.0347  131.2644  154.8808 C   0  0  0  0  0  0  0  0  0  0  0  0
  148.2808  131.7026  153.7761 C   0  0  0  0  0  0  0  0  0  0  0  0
  148.3456  133.0646  153.3967 C   0  0  0  0  0  0  0  0  0  0  0  0
  147.6268  133.6011  152.3181 N   0  0  0  0  0  0  0  0  0  0  0  0
  146.4623  132.9182  151.7668 C   0  0  1  0  0  0  0  0  0  0  0  0
  145.2964  132.8144  152.7599 C   0  0  0  0  0  0  0  0  0  0  0  0
  144.1557  133.4818  151.9825 C   0  0  2  0  0  0  0  0  0  0  0  0
  143.7004  132.6417  150.7814 C   0  0  0  0  0  0  0  0  0  0  0  0
  144.8603  132.8391  149.8057 C   0  0  0  0  0  0  0  0  0  0  0  0
  145.8158  133.7193  150.6232 C   0  0  1  0  0  0  0  0  0  0  0  0
  144.8737  134.5121  151.3275 O   0  0  0  0  0  0  0  0  0  0  0  0
  149.1768  133.9194  154.1531 C   0  0  0  0  0  0  0  0  0  0  0  0
  149.9031  133.5126  155.2152 N   0  0  0  0  0  0  0  0  0  0  0  0
  152.2819  128.2925  156.8272 H   0  0  0  0  0  0  0  0  0  0  0  0
  150.5935  128.7854  156.8883 H   0  0  0  0  0  0  0  0  0  0  0  0
  151.6777  129.1940  158.2116 H   0  0  0  0  0  0  0  0  0  0  0  0
  153.4959  130.9984  157.8812 H   0  0  0  0  0  0  0  0  0  0  0  0
  153.7032  131.7513  156.3040 H   0  0  0  0  0  0  0  0  0  0  0  0
  154.1217  130.0613  156.5312 H   0  0  0  0  0  0  0  0  0  0  0  0
  152.4877  129.4216  154.5527 H   0  0  0  0  0  0  0  0  0  0  0  0
  152.1568  131.1322  154.3615 H   0  0  0  0  0  0  0  0  0  0  0  0
  150.8291  130.0023  154.6045 H   0  0  0  0  0  0  0  0  0  0  0  0
  148.9949  130.2333  155.1991 H   0  0  0  0  0  0  0  0  0  0  0  0
  147.6657  130.9928  153.2443 H   0  0  0  0  0  0  0  0  0  0  0  0
  147.7646  134.5716  152.0737 H   0  0  0  0  0  0  0  0  0  0  0  0
  146.7662  131.9381  151.3971 H   0  0  0  0  0  0  0  0  0  0  0  0
  145.0673  131.7840  153.0323 H   0  0  0  0  0  0  0  0  0  0  0  0
  145.4970  133.3691  153.6779 H   0  0  0  0  0  0  0  0  0  0  0  0
  143.3386  133.8345  152.6126 H   0  0  0  0  0  0  0  0  0  0  0  0
  143.5407  131.5960  151.0454 H   0  0  0  0  0  0  0  0  0  0  0  0
  142.7745  133.0337  150.3591 H   0  0  0  0  0  0  0  0  0  0  0  0
  145.3188  131.9000  149.4948 H   0  0  0  0  0  0  0  0  0  0  0  0
  144.5212  133.3650  148.9125 H   0  0  0  0  0  0  0  0  0  0  0  0
  146.5188  134.2848  150.0099 H   0  0  0  0  0  0  0  0  0  0  0  0
  149.2563  134.9675  153.9032 H   0  0  0  0  0  0  0  0  0  0  0  0
  1  2  1  0  0  0  0
  1 22  1  0  0  0  0
  1 23  1  0  0  0  0
  1 24  1  0  0  0  0
  2  3  1  0  0  0  0
  2  4  1  0  0  0  0
  2  5  1  0  0  0  0
  3 25  1  0  0  0  0
  3 26  1  0  0  0  0
  3 27  1  0  0  0  0
  4 28  1  0  0  0  0
  4 29  1  0  0  0  0
  4 30  1  0  0  0  0
  5  6  2  0  0  0  0
  5  7  2  0  0  0  0
  5  8  1  0  0  0  0
  8 21  1  0  0  0  0
  8  9  2  0  0  0  0
  9 10  1  0  0  0  0
  9 31  1  0  0  0  0
 10 11  2  0  0  0  0
 10 32  1  0  0  0  0
 11 12  1  0  0  0  0
 11 20  1  0  0  0  0
 12 13  1  0  0  0  0
 12 33  1  0  0  0  0
 13 18  1  0  0  0  0
 13 14  1  0  0  0  0
 13 34  1  0  0  0  0
 14 15  1  0  0  0  0
 14 35  1  0  0  0  0
 14 36  1  0  0  0  0
 15 19  1  0  0  0  0
 15 16  1  0  0  0  0
 15 37  1  0  0  0  0
 16 17  1  0  0  0  0
 16 38  1  0  0  0  0
 16 39  1  0  0  0  0
 17 18  1  0  0  0  0
 17 40  1  0  0  0  0
 17 41  1  0  0  0  0
 18 19  1  0  0  0  0
 18 42  1  0  0  0  0
 20 21  2  0  0  0  0
 20 43  1  0  0  0  0
M  END
> <s_m_source_file>
AV-unprocessed.smi

> <i_m_source_file_index>
2816

> <i_lp_mmshare_version>
43012

> <i_f3d_flags>
0

> <s_epik_input>
W0NIM11DKFtDSDNdKShbQ0gzXSlTKD1PKSg9TyljMVtjSF1bY0hdYyhbY0hdbjEpW05IXVtDQEhdKFtDSDJdW0NAQEhdMjMpW0NAQEhdKE8zKVtDSDJdW0NIMl0y

> <s_epik_cmdline>
J2VwaWtfcHl0aG9uJywgJy1waCcsICc3LjAnLCAnLXRuJywgJzgnLCAnLW1hJywgJzIwMCcsICctbWV0YWxfYmluZGluZycsICctaW1hZScsICc8aW5maWxlLm1hZT4nLCAnLW9tYWUnLCAnPG91dGZpbGUubWFlPic=

> <r_lp_tautomer_probability>
1

> <r_epik_Ionization_Penalty>
1.94439e-07

> <r_epik_Ionization_Penalty_Charging>
0

> <r_epik_Ionization_Penalty_Neutral>
1.94439e-07

> <r_epik_State_Penalty>
-0

> <r_epik_Charging_Adjusted_Penalty>
0

> <i_epik_Tot_Q>
0

> <i_epik_Tot_abs_Q>
0

> <r_epik_Metal_State_Penalty>
-0

> <b_epik_Metal_Only>
0

> <s_lp_Force_Field>
OPLS_2005

> <r_lp_Energy>
42.0373

> <b_lp_Chiralities_Consistent>
1

> <s_lp_Variant>
AV-unprocessed.smi:2816-4

> <Gold.Version>
5.8.1

> <Gold.Id.Protein>
6NUR|6NUR_protein|mol2

> <Gold.PLP.Fitness>
40.6325

> <Gold.PLP.PLP>
-32.3373

> <Gold.PLP.part.hbond>
-2.0000

> <Gold.PLP.part.metal>
0.0000

> <Gold.PLP.part.buried>
-2.2057

> <Gold.PLP.part.nonpolar>
-26.7451

> <Gold.PLP.part.repulsive>
0.2293

> <Gold.PLP.ligand.clash>
0.0335

> <Gold.PLP.ligand.torsion>
1.3296

> <Gold.PLP.Chemscore.Hbond>
1.9193

> <Gold.PLP.Chemscore.CHOScore>
0.9987

> <Gold.PLP.Chemscore.Metal>
0.0000

> <Gold.Chemscore.Hbonds>
donor molecule, donor type, donor heavy atom, donor atom, acceptor molecule, acceptor atom, score
      L1  H    12    33       P1  7948  1.00
      P1  H  6896  6908       L1     7  0.93
      L1  C    20    43       P1  7948  1.00

> <Gold.PLP.Chemscore.Internal.Correction>
2.2340

> <Gold.Rescore>
     Score         DG    S(hbond)    S(metal)    S(lipo)     H(rot)  DE(clash)    DE(int)     intcor
     14.25     -16.92       1.69        0.00      74.69       1.15       0.18       2.49       ----

> <Gold.Chemscore.Fitness>
14.2531

> <Gold.Chemscore.DG>
-16.9211

> <Gold.Chemscore.ZeroCoef>
-5.4800

> <Gold.Chemscore.Hbond>
1.6884

> <Gold.Chemscore.Metal>
0.0000

> <Gold.Chemscore.Lipo>
74.6863

> <Gold.Chemscore.Internal_Hbond>
0.0000

> <Gold.Chemscore.DEClash>
0.1815

> <Gold.Chemscore.DEInternal>
2.4864

> <Gold.Chemscore.Rot>
1.1471

> <Gold.Chemscore.Internal.Correction>
   9.000000E+99

> <Gold.Chemscore.Hbonds>
donor molecule, donor type, donor heavy atom, donor atom, acceptor molecule, acceptor atom, score
      L1  H    12    33       P1  7948  0.41
      P1  H  6896  6908       L1     7  0.85

> <Gold.Chemscore.Hbond.Weighted>
-5.6394

> <Gold.Chemscore.Metal.Weighted>
-0.0000

> <Gold.Chemscore.Lipo.Weighted>
-8.7383

> <Gold.Chemscore.Internal_Hbond.Weighted>
0.0000

> <Gold.Chemscore.DEClash.Weighted>
0.1815

> <Gold.Chemscore.DEInternal.Weighted>
2.4864

> <Gold.Chemscore.Rot.Weighted>
2.9366

> <Gold.Chemscore.Internal.Correction.Weighted>
   9.000000E+99

> <Gold.Protein.RotatedTorsions>
[ 6907 6896 6895 6894 ] final   77.09 input  -60.11 | X-H torsion
[ 7974 7965 7964 7962 ] final  -70.08 input  175.53 | X-H torsion
[ 8008 7997 7996 7995 ] final -123.28 input   59.86 | X-H torsion
[ 10167 10162 10161 10158 ] final   39.27 input  -65.29 | X-H torsion
[ 10718 10713 10712 10709 ] final  -18.18 input   66.30 | X-H torsion
[ 10763 10752 10751 10750 ] final -133.80 input  -60.55 | X-H torsion
[ 11005 11000 10999 10996 ] final  134.65 input  -57.11 | X-H torsion

> <Gold.Protein.ActiveResidues>
 VAL166  LYS551  ARG553  GLY616  TRP617  ASP618  TYR619  PRO620  LYS621  CYS622 
 ASP623  PHE694  ASN695  SER759  ASP760  ASP761  ALA762  ILE779  LEU786  VAL792 
 PHE793  MET794  SER795  GLU796  ALA797  LYS798  CYS799  TRP800  GLU811  SER814 

> <Gold.Protein.RotatedAtoms>
  152.5102  134.3870  159.9370 H   0  0  0  0  0  0  0  0  0  0  0  0  # atno 6907 bound_to 6896
  151.3829  133.3809  159.2720 H   0  0  0  0  0  0  0  0  0  0  0  0  # atno 6908 bound_to 6896
  150.9491  134.8913  159.7719 H   0  0  0  0  0  0  0  0  0  0  0  0  # atno 6909 bound_to 6896
  145.6956  140.9136  143.0758 H   0  0  0  0  0  0  0  0  0  0  0  0  # atno 7974 bound_to 7965
  155.1779  140.0410  157.2876 H   0  0  0  0  0  0  0  0  0  0  0  0  # atno 8008 bound_to 7997
  154.6224  140.2504  155.7506 H   0  0  0  0  0  0  0  0  0  0  0  0  # atno 8009 bound_to 7997
  156.2440  140.2892  156.0538 H   0  0  0  0  0  0  0  0  0  0  0  0  # atno 8010 bound_to 7997
  140.3856  144.1921  150.6130 H   0  0  0  0  0  0  0  0  0  0  0  0  # atno 10167 bound_to 10162
  156.5631  130.4730  149.6397 H   0  0  0  0  0  0  0  0  0  0  0  0  # atno 10718 bound_to 10713
  154.8728  135.3754  154.4632 H   0  0  0  0  0  0  0  0  0  0  0  0  # atno 10763 bound_to 10752
  153.5299  135.7028  153.5694 H   0  0  0  0  0  0  0  0  0  0  0  0  # atno 10764 bound_to 10752
  153.3903  135.3974  155.1883 H   0  0  0  0  0  0  0  0  0  0  0  0  # atno 10765 bound_to 10752
  139.9928  134.9508  156.9896 H   0  0  0  0  0  0  0  0  0  0  0  0  # atno 11005 bound_to 11000
  144.6984  139.8879  143.7451 LP  0  0  0  0  0  0  0  0  0  0  0  0  # atno 17320 bound_to 7965
  146.0843  139.3832  143.0445 LP  0  0  0  0  0  0  0  0  0  0  0  0  # atno 17321 bound_to 7965
  140.4893  143.2353  151.8842 LP  0  0  0  0  0  0  0  0  0  0  0  0  # atno 17342 bound_to 10162
  139.4792  144.5184  151.8836 LP  0  0  0  0  0  0  0  0  0  0  0  0  # atno 17343 bound_to 10162
  156.2781  130.7055  151.1871 LP  0  0  0  0  0  0  0  0  0  0  0  0  # atno 17370 bound_to 10713
  157.7364  131.0562  150.5415 LP  0  0  0  0  0  0  0  0  0  0  0  0  # atno 17371 bound_to 10713
  140.4875  134.1227  155.7227 LP  0  0  0  0  0  0  0  0  0  0  0  0  # atno 17394 bound_to 11000
  141.1580  133.8846  157.1925 LP  0  0  0  0  0  0  0  0  0  0  0  0  # atno 17395 bound_to 11000

$$$$
