AV-unprocessed.smi:845|AV-procd|sdf|3933|dock9
  -GOLD-   22720 1393D 1   1.00000     0.00000
 Structure written by MMmdl.
 41 42  0  0  0  0  0  0  0  0  2 V2000
  151.7366  139.2564  155.2261 C   0  0  0  0  0  0  0  0  0  0  0  0
  151.1329  140.1474  156.3249 C   0  0  0  0  0  0  0  0  0  0  0  0
  152.1540  140.4043  157.4505 C   0  0  0  0  0  0  0  0  0  0  0  0
  149.7113  139.6677  156.7596 C   0  0  2  0  0  0  0  0  0  0  0  0
  149.6754  138.2060  157.2827 C   0  0  0  0  0  0  0  0  0  0  0  0
  148.8607  138.0816  158.4892 N   0  0  0  0  0  0  0  0  0  0  0  0
  148.8592  137.0563  159.3531 C   0  0  0  0  0  0  0  0  0  0  0  0
  149.5849  136.0786  159.1581 O   0  0  0  0  0  0  0  0  0  0  0  0
  148.0132  137.2283  160.3943 N   0  5  0  0  0  0  0  0  0  0  0  0
  147.6000  136.1668  161.1057 C   0  0  0  0  0  0  0  0  0  0  0  0
  147.3443  134.9740  160.5559 N   0  0  0  0  0  0  0  0  0  0  0  0
  146.9326  134.0130  161.4813 C   0  0  0  0  0  0  0  0  0  0  0  0
  146.8836  134.4823  162.7670 C   0  0  0  0  0  0  0  0  0  0  0  0
  147.3544  136.1556  162.8546 S   0  0  0  0  0  0  0  0  0  0  0  0
  148.6247  140.0158  155.8215 N   0  0  0  0  0  0  0  0  0  0  0  0
  148.5994  141.4092  155.3774 C   0  0  0  0  0  0  0  0  0  0  0  0
  147.3798  141.6979  154.4854 C   0  0  0  0  0  0  0  0  0  0  0  0
  147.3758  140.8084  153.3733 O   0  0  0  0  0  0  0  0  0  0  0  0
  147.3577  139.4395  153.7652 C   0  0  0  0  0  0  0  0  0  0  0  0
  148.5780  139.1402  154.6523 C   0  0  0  0  0  0  0  0  0  0  0  0
  151.9828  138.2643  155.6056 H   0  0  0  0  0  0  0  0  0  0  0  0
  152.6529  139.6933  154.8281 H   0  0  0  0  0  0  0  0  0  0  0  0
  151.0433  139.1329  154.3937 H   0  0  0  0  0  0  0  0  0  0  0  0
  150.9851  141.1192  155.8524 H   0  0  0  0  0  0  0  0  0  0  0  0
  152.5746  139.4838  157.8495 H   0  0  0  0  0  0  0  0  0  0  0  0
  151.7294  140.9742  158.2754 H   0  0  0  0  0  0  0  0  0  0  0  0
  152.9943  140.9839  157.0678 H   0  0  0  0  0  0  0  0  0  0  0  0
  149.5225  140.2722  157.6483 H   0  0  0  0  0  0  0  0  0  0  0  0
  149.2304  137.5446  156.5408 H   0  0  0  0  0  0  0  0  0  0  0  0
  150.6866  137.8331  157.4450 H   0  0  0  0  0  0  0  0  0  0  0  0
  148.2462  138.8546  158.6983 H   0  0  0  0  0  0  0  0  0  0  0  0
  146.6957  133.0178  161.1360 H   0  0  0  0  0  0  0  0  0  0  0  0
  146.6025  133.9498  163.6630 H   0  0  0  0  0  0  0  0  0  0  0  0
  148.5735  142.0876  156.2235 H   0  0  0  0  0  0  0  0  0  0  0  0
  149.5054  141.6409  154.8170 H   0  0  0  0  0  0  0  0  0  0  0  0
  146.4538  141.5877  155.0517 H   0  0  0  0  0  0  0  0  0  0  0  0
  147.4117  142.7245  154.1204 H   0  0  0  0  0  0  0  0  0  0  0  0
  146.4306  139.2181  154.2961 H   0  0  0  0  0  0  0  0  0  0  0  0
  147.3743  138.8128  152.8736 H   0  0  0  0  0  0  0  0  0  0  0  0
  149.4825  139.2565  154.0552 H   0  0  0  0  0  0  0  0  0  0  0  0
  148.5422  138.0972  154.9683 H   0  0  0  0  0  0  0  0  0  0  0  0
  1  2  1  0  0  0  0
  1 21  1  0  0  0  0
  1 22  1  0  0  0  0
  1 23  1  0  0  0  0
  2  3  1  0  0  0  0
  2  4  1  0  0  0  0
  2 24  1  0  0  0  0
  3 25  1  0  0  0  0
  3 26  1  0  0  0  0
  3 27  1  0  0  0  0
  4  5  1  0  0  0  0
  4 15  1  0  0  0  0
  4 28  1  0  0  0  0
  5  6  1  0  0  0  0
  5 29  1  0  0  0  0
  5 30  1  0  0  0  0
  6  7  1  0  0  0  0
  6 31  1  0  0  0  0
  7  8  2  0  0  0  0
  7  9  1  0  0  0  0
  9 10  1  0  0  0  0
 10 14  1  0  0  0  0
 10 11  2  0  0  0  0
 11 12  1  0  0  0  0
 12 13  2  0  0  0  0
 12 32  1  0  0  0  0
 13 14  1  0  0  0  0
 13 33  1  0  0  0  0
 15 20  1  0  0  0  0
 15 16  1  0  0  0  0
 16 17  1  0  0  0  0
 16 34  1  0  0  0  0
 16 35  1  0  0  0  0
 17 18  1  0  0  0  0
 17 36  1  0  0  0  0
 17 37  1  0  0  0  0
 18 19  1  0  0  0  0
 19 20  1  0  0  0  0
 19 38  1  0  0  0  0
 19 39  1  0  0  0  0
 20 40  1  0  0  0  0
 20 41  1  0  0  0  0
M  CHG  1   9  -1
M  END
> <s_m_source_file>
AV-unprocessed.smi

> <i_m_source_file_index>
845

> <i_lp_mmshare_version>
43012

> <i_f3d_flags>
0

> <s_epik_input>
W0NIMl0xW0NIMl1PW0NIMl1bQ0gyXU4xW0NASF0oW0NIXShbQ0gzXSlbQ0gzXSlbQ0gyXVtOSF1DKD1PKVtOSF1jMm5bY0hdW2NIXXMy

> <s_epik_cmdline>
J2VwaWtfcHl0aG9uJywgJy1waCcsICc3LjAnLCAnLXRuJywgJzgnLCAnLW1hJywgJzIwMCcsICctbWV0YWxfYmluZGluZycsICctaW1hZScsICc8aW5maWxlLm1hZT4nLCAnLW9tYWUnLCAnPG91dGZpbGUubWFlPic=

> <r_lp_tautomer_probability>
0.999

> <r_epik_Ionization_Penalty>
9.02543

> <r_epik_Ionization_Penalty_Charging>
6.76546

> <r_epik_Ionization_Penalty_Neutral>
2.25997

> <r_epik_State_Penalty>
7.18984

> <r_epik_Charging_Adjusted_Penalty>
13.9553

> <i_epik_Tot_Q>
-1

> <i_epik_Tot_abs_Q>
1

> <r_epik_Metal_State_Penalty>
3.11401

> <b_epik_Metal_Only>
1

> <s_lp_Force_Field>
OPLS_2005

> <r_lp_Energy>
34.1255

> <b_lp_Chiralities_Consistent>
1

> <s_lp_Variant>
AV-unprocessed.smi:845-7

> <Gold.Version>
5.8.1

> <Gold.Id.Protein>
6NUR|6NUR_protein|mol2

> <Gold.PLP.Fitness>
43.2267

> <Gold.PLP.PLP>
-33.8253

> <Gold.PLP.part.hbond>
-3.0000

> <Gold.PLP.part.metal>
0.0000

> <Gold.PLP.part.buried>
-5.1732

> <Gold.PLP.part.nonpolar>
-28.1212

> <Gold.PLP.part.repulsive>
0.3570

> <Gold.PLP.ligand.clash>
0.0000

> <Gold.PLP.ligand.torsion>
1.3267

> <Gold.PLP.Chemscore.Hbond>
3.8548

> <Gold.PLP.Chemscore.CHOScore>
0.0000

> <Gold.PLP.Chemscore.Metal>
0.0000

> <Gold.Chemscore.Hbonds>
donor molecule, donor type, donor heavy atom, donor atom, acceptor molecule, acceptor atom, score
      P1  H  6896  6908       L1     8  1.00
      P1  H  6931  6943       L1     9  1.24
      P1  H  6934  6947       L1     9  1.47

> <Gold.PLP.Chemscore.Internal.Correction>
0.4903

> <Gold.Rescore>
     Score         DG    S(hbond)    S(metal)    S(lipo)     H(rot)  DE(clash)    DE(int)     intcor
     13.62     -16.14       2.00        0.00      71.51       1.71       0.02       2.50       ----

> <Gold.Chemscore.Fitness>
13.6235

> <Gold.Chemscore.DG>
-16.1405

> <Gold.Chemscore.ZeroCoef>
-5.4800

> <Gold.Chemscore.Hbond>
1.9959

> <Gold.Chemscore.Metal>
0.0000

> <Gold.Chemscore.Lipo>
71.5117

> <Gold.Chemscore.Internal_Hbond>
0.0000

> <Gold.Chemscore.DEClash>
0.0174

> <Gold.Chemscore.DEInternal>
2.4996

> <Gold.Chemscore.Rot>
1.7081

> <Gold.Chemscore.Internal.Correction>
   9.000000E+99

> <Gold.Chemscore.Hbonds>
donor molecule, donor type, donor heavy atom, donor atom, acceptor molecule, acceptor atom, score
      P1  H  6896  6908       L1     8  0.97
      P1  H  6931  6943       L1     9  0.10
      P1  H  6934  6947       L1     9  0.62

> <Gold.Chemscore.Hbond.Weighted>
-6.6664

> <Gold.Chemscore.Metal.Weighted>
-0.0000

> <Gold.Chemscore.Lipo.Weighted>
-8.3669

> <Gold.Chemscore.Internal_Hbond.Weighted>
0.0000

> <Gold.Chemscore.DEClash.Weighted>
0.0174

> <Gold.Chemscore.DEInternal.Weighted>
2.4996

> <Gold.Chemscore.Rot.Weighted>
4.3728

> <Gold.Chemscore.Internal.Correction.Weighted>
   9.000000E+99

> <Gold.Protein.RotatedTorsions>
[ 6907 6896 6895 6894 ] final  168.42 input  -60.11 | X-H torsion
[ 7974 7965 7964 7962 ] final -164.06 input  175.53 | X-H torsion
[ 8008 7997 7996 7995 ] final  175.17 input   59.86 | X-H torsion
[ 10167 10162 10161 10158 ] final  141.55 input  -65.29 | X-H torsion
[ 10718 10713 10712 10709 ] final   -0.74 input   66.30 | X-H torsion
[ 10763 10752 10751 10750 ] final   59.65 input  -60.55 | X-H torsion
[ 11005 11000 10999 10996 ] final   90.19 input  -57.11 | X-H torsion

> <Gold.Protein.ActiveResidues>
 VAL166  LYS551  ARG553  GLY616  TRP617  ASP618  TYR619  PRO620  LYS621  CYS622 
 ASP623  PHE694  ASN695  SER759  ASP760  ASP761  ALA762  ILE779  LEU786  VAL792 
 PHE793  MET794  SER795  GLU796  ALA797  LYS798  CYS799  TRP800  GLU811  SER814 

> <Gold.Protein.RotatedAtoms>
  151.8479  133.3434  159.3663 H   0  0  0  0  0  0  0  0  0  0  0  0  # atno 6907 bound_to 6896
  150.7215  134.5328  159.5718 H   0  0  0  0  0  0  0  0  0  0  0  0  # atno 6908 bound_to 6896
  152.2815  134.7824  160.0446 H   0  0  0  0  0  0  0  0  0  0  0  0  # atno 6909 bound_to 6896
  144.7307  140.3016  143.6203 H   0  0  0  0  0  0  0  0  0  0  0  0  # atno 7974 bound_to 7965
  156.0899  140.1416  156.9606 H   0  0  0  0  0  0  0  0  0  0  0  0  # atno 8008 bound_to 7997
  154.4635  140.0934  156.7005 H   0  0  0  0  0  0  0  0  0  0  0  0  # atno 8009 bound_to 7997
  155.4938  140.3449  155.4361 H   0  0  0  0  0  0  0  0  0  0  0  0  # atno 8010 bound_to 7997
  139.5017  144.6164  151.6154 H   0  0  0  0  0  0  0  0  0  0  0  0  # atno 10167 bound_to 10162
  156.8159  130.5440  149.5703 H   0  0  0  0  0  0  0  0  0  0  0  0  # atno 10718 bound_to 10713
  152.9900  135.5564  154.5747 H   0  0  0  0  0  0  0  0  0  0  0  0  # atno 10763 bound_to 10752
  154.5141  135.2804  155.1320 H   0  0  0  0  0  0  0  0  0  0  0  0  # atno 10764 bound_to 10752
  154.2700  135.6365  153.5359 H   0  0  0  0  0  0  0  0  0  0  0  0  # atno 10765 bound_to 10752
  139.8861  134.8598  156.3249 H   0  0  0  0  0  0  0  0  0  0  0  0  # atno 11005 bound_to 11000
  145.7755  139.1872  143.2188 LP  0  0  0  0  0  0  0  0  0  0  0  0  # atno 17320 bound_to 7965
  146.0876  140.7692  142.9611 LP  0  0  0  0  0  0  0  0  0  0  0  0  # atno 17321 bound_to 7965
  140.5853  143.9875  150.6292 LP  0  0  0  0  0  0  0  0  0  0  0  0  # atno 17342 bound_to 10162
  140.3037  143.3243  152.0946 LP  0  0  0  0  0  0  0  0  0  0  0  0  # atno 17343 bound_to 10162
  156.1017  130.5974  150.9904 LP  0  0  0  0  0  0  0  0  0  0  0  0  # atno 17370 bound_to 10713
  157.6482  131.0901  150.8108 LP  0  0  0  0  0  0  0  0  0  0  0  0  # atno 17371 bound_to 10713
  140.9762  133.7296  156.0605 LP  0  0  0  0  0  0  0  0  0  0  0  0  # atno 17394 bound_to 11000
  140.7808  134.3727  157.5487 LP  0  0  0  0  0  0  0  0  0  0  0  0  # atno 17395 bound_to 11000

$$$$
