AV-unprocessed.smi:1971|AV-procd|sdf|7970|dock2
  -GOLD-   2272010143D 1   1.00000     0.00000
 Structure written by MMmdl.
 43 44  0  0  0  0  0  0  0  0  3 V2000
  151.0446  141.8308  155.9136 C   0  0  0  0  0  0  0  0  0  0  0  0
  151.2785  140.3131  155.9191 C   0  0  0  0  0  0  0  0  0  0  0  0
  151.1277  139.7296  154.5840 N   0  0  0  0  0  0  0  0  0  0  0  0
  151.5874  138.3421  154.5262 C   0  0  0  0  0  0  0  0  0  0  0  0
  150.6495  137.3812  155.2875 C   0  0  0  0  0  0  0  0  0  0  0  0
  149.2612  137.4514  154.7554 N   0  3  0  0  0  0  0  0  0  0  0  0
  148.2891  136.5083  155.3980 C   0  0  2  0  0  0  0  0  0  0  0  0
  148.7206  135.0294  155.2858 C   0  0  0  0  0  0  0  0  0  0  0  0
  146.8522  136.6856  154.8387 C   0  0  0  0  0  0  0  0  0  0  0  0
  146.7476  136.3293  153.4250 N   0  0  0  0  0  0  0  0  0  0  0  0
  145.6287  135.9906  152.7712 C   0  0  0  0  0  0  0  0  0  0  0  0
  144.5412  136.0225  153.3507 O   0  0  0  0  0  0  0  0  0  0  0  0
  145.8465  135.6211  151.4897 N   0  5  0  0  0  0  0  0  0  0  0  0
  145.2024  134.5586  150.9797 C   0  0  0  0  0  0  0  0  0  0  0  0
  143.9227  134.5990  150.5923 N   0  0  0  0  0  0  0  0  0  0  0  0
  143.4568  133.3831  150.0885 C   0  0  0  0  0  0  0  0  0  0  0  0
  144.4069  132.3963  150.0845 C   0  0  0  0  0  0  0  0  0  0  0  0
  145.9247  132.9688  150.7153 S   0  0  0  0  0  0  0  0  0  0  0  0
  148.7932  138.8641  154.7750 C   0  0  0  0  0  0  0  0  0  0  0  0
  149.7744  139.7883  154.0256 C   0  0  0  0  0  0  0  0  0  0  0  0
  151.2928  142.2568  156.8859 H   0  0  0  0  0  0  0  0  0  0  0  0
  150.0052  142.0847  155.7081 H   0  0  0  0  0  0  0  0  0  0  0  0
  151.6692  142.3252  155.1689 H   0  0  0  0  0  0  0  0  0  0  0  0
  152.2994  140.1323  156.2575 H   0  0  0  0  0  0  0  0  0  0  0  0
  150.6243  139.8346  156.6466 H   0  0  0  0  0  0  0  0  0  0  0  0
  151.6486  138.0381  153.4801 H   0  0  0  0  0  0  0  0  0  0  0  0
  152.6011  138.2746  154.9224 H   0  0  0  0  0  0  0  0  0  0  0  0
  151.0554  136.3787  155.1598 H   0  0  0  0  0  0  0  0  0  0  0  0
  150.6522  137.5889  156.3582 H   0  0  0  0  0  0  0  0  0  0  0  0
  148.2579  136.7385  156.4641 H   0  0  0  0  0  0  0  0  0  0  0  0
  147.9354  134.3626  155.6431 H   0  0  0  0  0  0  0  0  0  0  0  0
  149.6009  134.8154  155.8920 H   0  0  0  0  0  0  0  0  0  0  0  0
  148.9443  134.7511  154.2556 H   0  0  0  0  0  0  0  0  0  0  0  0
  146.1264  136.1307  155.4352 H   0  0  0  0  0  0  0  0  0  0  0  0
  146.5469  137.7279  154.9295 H   0  0  0  0  0  0  0  0  0  0  0  0
  147.6072  136.3106  152.8956 H   0  0  0  0  0  0  0  0  0  0  0  0
  142.4327  133.3100  149.7539 H   0  0  0  0  0  0  0  0  0  0  0  0
  144.3083  131.3748  149.7498 H   0  0  0  0  0  0  0  0  0  0  0  0
  147.8243  138.9478  154.2854 H   0  0  0  0  0  0  0  0  0  0  0  0
  148.6466  139.1968  155.8030 H   0  0  0  0  0  0  0  0  0  0  0  0
  149.4055  140.8132  154.0262 H   0  0  0  0  0  0  0  0  0  0  0  0
  149.8198  139.4902  152.9771 H   0  0  0  0  0  0  0  0  0  0  0  0
  149.3181  137.1772  153.7843 H   0  0  0  0  0  0  0  0  0  0  0  0
  1  2  1  0  0  0  0
  1 21  1  0  0  0  0
  1 22  1  0  0  0  0
  1 23  1  0  0  0  0
  2  3  1  0  0  0  0
  2 24  1  0  0  0  0
  2 25  1  0  0  0  0
  3 20  1  0  0  0  0
  3  4  1  0  0  0  0
  4  5  1  0  0  0  0
  4 26  1  0  0  0  0
  4 27  1  0  0  0  0
  5  6  1  0  0  0  0
  5 28  1  0  0  0  0
  5 29  1  0  0  0  0
  6  7  1  0  0  0  0
  6 19  1  0  0  0  0
  6 43  1  0  0  0  0
  7  8  1  0  0  0  0
  7  9  1  0  0  0  0
  7 30  1  0  0  0  0
  8 31  1  0  0  0  0
  8 32  1  0  0  0  0
  8 33  1  0  0  0  0
  9 10  1  0  0  0  0
  9 34  1  0  0  0  0
  9 35  1  0  0  0  0
 10 11  1  0  0  0  0
 10 36  1  0  0  0  0
 11 12  2  0  0  0  0
 11 13  1  0  0  0  0
 13 14  1  0  0  0  0
 14 18  1  0  0  0  0
 14 15  2  0  0  0  0
 15 16  1  0  0  0  0
 16 17  2  0  0  0  0
 16 37  1  0  0  0  0
 17 18  1  0  0  0  0
 17 38  1  0  0  0  0
 19 20  1  0  0  0  0
 19 39  1  0  0  0  0
 19 40  1  0  0  0  0
 20 41  1  0  0  0  0
 20 42  1  0  0  0  0
M  CHG  1   6   1
M  CHG  1  13  -1
M  END
> <s_m_source_file>
AV-unprocessed.smi

> <i_m_source_file_index>
1971

> <i_lp_mmshare_version>
43012

> <i_f3d_flags>
0

> <s_epik_input>
W0NIM11bQ0gyXU4xW0NIMl1bQ0gyXU4oW0NIMl1bQ0gyXTEpW0NASF0oW0NIM10pW0NIMl1bTkhdQyg9TylbTkhdYzJuW2NIXVtjSF1zMg==

> <s_epik_cmdline>
J2VwaWtfcHl0aG9uJywgJy1waCcsICc3LjAnLCAnLXRuJywgJzgnLCAnLW1hJywgJzIwMCcsICctbWV0YWxfYmluZGluZycsICctaW1hZScsICc8aW5maWxlLm1hZT4nLCAnLW9tYWUnLCAnPG91dGZpbGUubWFlPic=

> <r_epik_Ionization_Penalty>
6.3441

> <r_epik_Ionization_Penalty_Charging>
5.51153

> <r_epik_Ionization_Penalty_Neutral>
0.832567

> <r_epik_State_Penalty>
6.33945

> <r_epik_Charging_Adjusted_Penalty>
11.851

> <i_epik_Tot_Q>
0

> <i_epik_Tot_abs_Q>
2

> <r_epik_Metal_State_Penalty>
2.34542

> <b_epik_Metal_Only>
1

> <s_lp_Force_Field>
OPLS_2005

> <r_lp_Energy>
17.5564

> <b_lp_Chiralities_Consistent>
1

> <s_lp_Variant>
AV-unprocessed.smi:1971-9

> <Gold.Version>
5.8.1

> <Gold.Id.Protein>
6NUR|6NUR_protein|mol2

> <Gold.PLP.Fitness>
45.6779

> <Gold.PLP.PLP>
-33.4757

> <Gold.PLP.part.hbond>
-3.0000

> <Gold.PLP.part.metal>
0.0000

> <Gold.PLP.part.buried>
-6.1533

> <Gold.PLP.part.nonpolar>
-26.2361

> <Gold.PLP.part.repulsive>
0.5987

> <Gold.PLP.ligand.clash>
0.0000

> <Gold.PLP.ligand.torsion>
1.2720

> <Gold.PLP.Chemscore.Hbond>
4.0000

> <Gold.PLP.Chemscore.CHOScore>
0.8685

> <Gold.PLP.Chemscore.Metal>
0.0000

> <Gold.Chemscore.Hbonds>
donor molecule, donor type, donor heavy atom, donor atom, acceptor molecule, acceptor atom, score
      L1  H     6    43       P1  7948  1.40
      L1  H    10    36       P1  7948  1.00
      P1  H  7989  7998       L1     3  0.50
      L1  C    16    37       P1 10186  0.47

> <Gold.PLP.Chemscore.Internal.Correction>
0.1408

> <Gold.Rescore>
     Score         DG    S(hbond)    S(metal)    S(lipo)     H(rot)  DE(clash)    DE(int)     intcor
     15.34     -16.82       2.07        0.00      76.15       1.75       0.00       1.48       ----

> <Gold.Chemscore.Fitness>
15.3395

> <Gold.Chemscore.DG>
-16.8208

> <Gold.Chemscore.ZeroCoef>
-5.4800

> <Gold.Chemscore.Hbond>
2.0698

> <Gold.Chemscore.Metal>
0.0000

> <Gold.Chemscore.Lipo>
76.1454

> <Gold.Chemscore.Internal_Hbond>
0.0000

> <Gold.Chemscore.DEClash>
0.0009

> <Gold.Chemscore.DEInternal>
1.4803

> <Gold.Chemscore.Rot>
1.7505

> <Gold.Chemscore.Internal.Correction>
   9.000000E+99

> <Gold.Chemscore.Hbonds>
donor molecule, donor type, donor heavy atom, donor atom, acceptor molecule, acceptor atom, score
      L1  H     6    43       P1  7948  0.67
      L1  H    10    36       P1  7948  1.00
      P1  H  7989  7998       L1     3  0.01

> <Gold.Chemscore.Hbond.Weighted>
-6.9131

> <Gold.Chemscore.Metal.Weighted>
-0.0000

> <Gold.Chemscore.Lipo.Weighted>
-8.9090

> <Gold.Chemscore.Internal_Hbond.Weighted>
0.0000

> <Gold.Chemscore.DEClash.Weighted>
0.0009

> <Gold.Chemscore.DEInternal.Weighted>
1.4803

> <Gold.Chemscore.Rot.Weighted>
4.4813

> <Gold.Chemscore.Internal.Correction.Weighted>
   9.000000E+99

> <Gold.Protein.RotatedTorsions>
[ 6907 6896 6895 6894 ] final  -70.76 input  -60.11 | X-H torsion
[ 7974 7965 7964 7962 ] final  121.89 input  175.53 | X-H torsion
[ 8008 7997 7996 7995 ] final  -92.43 input   59.86 | X-H torsion
[ 10167 10162 10161 10158 ] final  -54.33 input  -65.29 | X-H torsion
[ 10718 10713 10712 10709 ] final  -61.83 input   66.30 | X-H torsion
[ 10763 10752 10751 10750 ] final    8.83 input  -60.55 | X-H torsion
[ 11005 11000 10999 10996 ] final  -63.08 input  -57.11 | X-H torsion

> <Gold.Protein.ActiveResidues>
 VAL166  LYS551  ARG553  GLY616  TRP617  ASP618  TYR619  PRO620  LYS621  CYS622 
 ASP623  PHE694  ASN695  SER759  ASP760  ASP761  ALA762  ILE779  LEU786  VAL792 
 PHE793  MET794  SER795  GLU796  ALA797  LYS798  CYS799  TRP800  GLU811  SER814 

> <Gold.Protein.RotatedAtoms>
  150.7243  134.5406  159.5745 H   0  0  0  0  0  0  0  0  0  0  0  0  # atno 6907 bound_to 6896
  152.2917  134.7710  160.0385 H   0  0  0  0  0  0  0  0  0  0  0  0  # atno 6908 bound_to 6896
  151.8321  133.3375  159.3653 H   0  0  0  0  0  0  0  0  0  0  0  0  # atno 6909 bound_to 6896
  145.1140  139.3434  143.4748 H   0  0  0  0  0  0  0  0  0  0  0  0  # atno 7974 bound_to 7965
  154.7231  140.0509  157.0658 H   0  0  0  0  0  0  0  0  0  0  0  0  # atno 8008 bound_to 7997
  155.0401  140.3167  155.4708 H   0  0  0  0  0  0  0  0  0  0  0  0  # atno 8009 bound_to 7997
  156.2822  140.2134  156.5524 H   0  0  0  0  0  0  0  0  0  0  0  0  # atno 8010 bound_to 7997
  140.6436  143.2522  151.4920 H   0  0  0  0  0  0  0  0  0  0  0  0  # atno 10167 bound_to 10162
  156.0895  130.4202  150.1049 H   0  0  0  0  0  0  0  0  0  0  0  0  # atno 10718 bound_to 10713
  153.2207  135.6880  153.8004 H   0  0  0  0  0  0  0  0  0  0  0  0  # atno 10763 bound_to 10752
  153.7204  135.3268  155.3266 H   0  0  0  0  0  0  0  0  0  0  0  0  # atno 10764 bound_to 10752
  154.8268  135.4611  154.1052 H   0  0  0  0  0  0  0  0  0  0  0  0  # atno 10765 bound_to 10752
  141.1381  133.6647  156.5625 H   0  0  0  0  0  0  0  0  0  0  0  0  # atno 11005 bound_to 11000
  146.3525  140.1071  142.8605 LP  0  0  0  0  0  0  0  0  0  0  0  0  # atno 17320 bound_to 7965
  145.0815  140.9224  143.4822 LP  0  0  0  0  0  0  0  0  0  0  0  0  # atno 17321 bound_to 7965
  139.5646  144.2073  152.1745 LP  0  0  0  0  0  0  0  0  0  0  0  0  # atno 17342 bound_to 10162
  140.1351  144.5253  150.6778 LP  0  0  0  0  0  0  0  0  0  0  0  0  # atno 17343 bound_to 10162
  156.9062  130.9637  151.3569 LP  0  0  0  0  0  0  0  0  0  0  0  0  # atno 17370 bound_to 10713
  157.6040  130.8534  149.8847 LP  0  0  0  0  0  0  0  0  0  0  0  0  # atno 17371 bound_to 10713
  140.3977  134.7384  157.4760 LP  0  0  0  0  0  0  0  0  0  0  0  0  # atno 17394 bound_to 11000
  140.0519  134.6118  155.8851 LP  0  0  0  0  0  0  0  0  0  0  0  0  # atno 17395 bound_to 11000

$$$$
