AV-unprocessed.smi:1437|AV-procd|sdf|5866|dock4
  -GOLD-   22720 5543D 1   1.00000     0.00000
 Structure written by MMmdl.
 35 36  0  0  0  0  0  0  0  0  3 V2000
  152.6095  141.3825  159.1455 C   0  0  0  0  0  0  0  0  0  0  0  0
  152.2048  140.9146  157.7894 C   0  0  0  0  0  0  0  0  0  0  0  0
  151.2270  141.3149  156.9234 C   0  0  0  0  0  0  0  0  0  0  0  0
  151.3964  140.4399  155.8156 C   0  0  0  0  0  0  0  0  0  0  0  0
  150.6700  140.4453  154.6873 N   0  5  0  0  0  0  0  0  0  0  0  0
  149.3781  140.8446  154.7113 C   0  0  0  0  0  0  0  0  0  0  0  0
  148.7763  141.3246  155.6744 O   0  0  0  0  0  0  0  0  0  0  0  0
  148.7469  140.6828  153.5399 N   0  0  0  0  0  0  0  0  0  0  0  0
  147.3585  141.0369  153.2473 C   0  0  2  0  0  0  0  0  0  0  0  0
  146.4204  140.4147  154.2968 C   0  0  0  0  0  0  0  0  0  0  0  0
  146.3340  138.8838  154.1530 C   0  0  0  0  0  0  0  0  0  0  0  0
  145.9273  138.4959  152.7793 N   0  3  2  0  0  0  0  0  0  0  0  0
  145.7283  137.0371  152.6437 C   0  0  0  0  0  0  0  0  0  0  0  0
  146.8478  139.0370  151.7485 C   0  0  0  0  0  0  0  0  0  0  0  0
  146.9376  140.5705  151.8390 C   0  0  0  0  0  0  0  0  0  0  0  0
  152.3993  139.5952  155.9870 N   0  0  0  0  0  0  0  0  0  0  0  0
  152.9196  139.8891  157.2530 O   0  0  0  0  0  0  0  0  0  0  0  0
  153.1258  142.3404  159.0839 H   0  0  0  0  0  0  0  0  0  0  0  0
  153.2789  140.6676  159.6246 H   0  0  0  0  0  0  0  0  0  0  0  0
  151.7368  141.5085  159.7862 H   0  0  0  0  0  0  0  0  0  0  0  0
  150.5037  142.1047  157.0607 H   0  0  0  0  0  0  0  0  0  0  0  0
  149.2822  140.2754  152.7873 H   0  0  0  0  0  0  0  0  0  0  0  0
  147.2651  142.1226  153.3067 H   0  0  0  0  0  0  0  0  0  0  0  0
  146.7500  140.6791  155.3025 H   0  0  0  0  0  0  0  0  0  0  0  0
  145.4227  140.8410  154.1839 H   0  0  0  0  0  0  0  0  0  0  0  0
  147.2946  138.4251  154.3932 H   0  0  0  0  0  0  0  0  0  0  0  0
  145.6112  138.4933  154.8704 H   0  0  0  0  0  0  0  0  0  0  0  0
  146.6626  136.4986  152.8081 H   0  0  0  0  0  0  0  0  0  0  0  0
  145.3612  136.7895  151.6472 H   0  0  0  0  0  0  0  0  0  0  0  0
  144.9944  136.6792  153.3666 H   0  0  0  0  0  0  0  0  0  0  0  0
  147.8369  138.5912  151.8673 H   0  0  0  0  0  0  0  0  0  0  0  0
  146.4922  138.7538  150.7574 H   0  0  0  0  0  0  0  0  0  0  0  0
  145.9645  140.9995  151.5968 H   0  0  0  0  0  0  0  0  0  0  0  0
  147.6280  140.9488  151.0844 H   0  0  0  0  0  0  0  0  0  0  0  0
  145.0283  138.9253  152.6143 H   0  0  0  0  0  0  0  0  0  0  0  0
  1  2  1  0  0  0  0
  1 18  1  0  0  0  0
  1 19  1  0  0  0  0
  1 20  1  0  0  0  0
  2 17  1  0  0  0  0
  2  3  2  0  0  0  0
  3  4  1  0  0  0  0
  3 21  1  0  0  0  0
  4  5  1  0  0  0  0
  4 16  2  0  0  0  0
  5  6  1  0  0  0  0
  6  7  2  0  0  0  0
  6  8  1  0  0  0  0
  8  9  1  0  0  0  0
  8 22  1  0  0  0  0
  9 15  1  0  0  0  0
  9 10  1  0  0  0  0
  9 23  1  0  0  0  0
 10 11  1  0  0  0  0
 10 24  1  0  0  0  0
 10 25  1  0  0  0  0
 11 12  1  0  0  0  0
 11 26  1  0  0  0  0
 11 27  1  0  0  0  0
 12 13  1  0  0  0  0
 12 14  1  0  0  0  0
 12 35  1  0  0  0  0
 13 28  1  0  0  0  0
 13 29  1  0  0  0  0
 13 30  1  0  0  0  0
 14 15  1  0  0  0  0
 14 31  1  0  0  0  0
 14 32  1  0  0  0  0
 15 33  1  0  0  0  0
 15 34  1  0  0  0  0
 16 17  1  0  0  0  0
M  CHG  1   5  -1
M  CHG  1  12   1
M  END
> <s_m_source_file>
AV-unprocessed.smi

> <i_m_source_file_index>
1437

> <i_lp_mmshare_version>
43012

> <i_f3d_flags>
0

> <s_epik_input>
W0NIM11jMVtjSF1jKG5vMSlbTkhdQyg9TylbTkhdW0NIXTJbQ0gyXVtDSDJdTihbQ0gzXSlbQ0gyXVtDSDJdMg==

> <s_epik_cmdline>
J2VwaWtfcHl0aG9uJywgJy1waCcsICc3LjAnLCAnLXRuJywgJzgnLCAnLW1hJywgJzIwMCcsICctbWV0YWxfYmluZGluZycsICctaW1hZScsICc8aW5maWxlLm1hZT4nLCAnLW9tYWUnLCAnPG91dGZpbGUubWFlPic=

> <r_epik_Ionization_Penalty>
6.28535

> <r_epik_Ionization_Penalty_Charging>
6.28525

> <r_epik_Ionization_Penalty_Neutral>
9.66055e-05

> <r_epik_State_Penalty>
6.28414

> <r_epik_Charging_Adjusted_Penalty>
12.5694

> <i_epik_Tot_Q>
0

> <i_epik_Tot_abs_Q>
2

> <r_epik_Metal_State_Penalty>
2.21724

> <b_epik_Metal_Only>
1

> <s_lp_Force_Field>
OPLS_2005

> <r_lp_Energy>
2.0091

> <b_lp_Chiralities_Consistent>
1

> <s_lp_Variant>
AV-unprocessed.smi:1437-4

> <Gold.Version>
5.8.1

> <Gold.Id.Protein>
6NUR|6NUR_protein|mol2

> <Gold.PLP.Fitness>
41.0874

> <Gold.PLP.PLP>
-26.5438

> <Gold.PLP.part.hbond>
-4.7691

> <Gold.PLP.part.metal>
0.0000

> <Gold.PLP.part.buried>
-0.4905

> <Gold.PLP.part.nonpolar>
-21.3645

> <Gold.PLP.part.repulsive>
0.3371

> <Gold.PLP.ligand.clash>
0.0000

> <Gold.PLP.ligand.torsion>
0.2343

> <Gold.PLP.Chemscore.Hbond>
5.0000

> <Gold.PLP.Chemscore.CHOScore>
0.0000

> <Gold.PLP.Chemscore.Metal>
0.0000

> <Gold.Chemscore.Hbonds>
donor molecule, donor type, donor heavy atom, donor atom, acceptor molecule, acceptor atom, score
      L1  H     8    22       P1  7957  1.00
      L1  H    12    35       P1 10175  1.92
      P1  H  7989  7998       L1     5  1.00
      P1  H  7997  8009       L1    17  0.94

> <Gold.PLP.Chemscore.Internal.Correction>
0.0122

> <Gold.Rescore>
     Score         DG    S(hbond)    S(metal)    S(lipo)     H(rot)  DE(clash)    DE(int)     intcor
     15.80     -20.34       3.05        0.00      61.84       1.00       1.59       2.94       ----

> <Gold.Chemscore.Fitness>
15.8041

> <Gold.Chemscore.DG>
-20.3370

> <Gold.Chemscore.ZeroCoef>
-5.4800

> <Gold.Chemscore.Hbond>
3.0486

> <Gold.Chemscore.Metal>
0.0000

> <Gold.Chemscore.Lipo>
61.8356

> <Gold.Chemscore.Internal_Hbond>
0.0000

> <Gold.Chemscore.DEClash>
1.5914

> <Gold.Chemscore.DEInternal>
2.9416

> <Gold.Chemscore.Rot>
1.0000

> <Gold.Chemscore.Internal.Correction>
   9.000000E+99

> <Gold.Chemscore.Hbonds>
donor molecule, donor type, donor heavy atom, donor atom, acceptor molecule, acceptor atom, score
      L1  H     8    22       P1  7957  0.96
      L1  H    12    35       P1 10175  0.90
      P1  H  7989  7998       L1     5  0.61
      P1  H  7997  8009       L1    17  0.35

> <Gold.Chemscore.Hbond.Weighted>
-10.1822

> <Gold.Chemscore.Metal.Weighted>
-0.0000

> <Gold.Chemscore.Lipo.Weighted>
-7.2348

> <Gold.Chemscore.Internal_Hbond.Weighted>
0.0000

> <Gold.Chemscore.DEClash.Weighted>
1.5914

> <Gold.Chemscore.DEInternal.Weighted>
2.9416

> <Gold.Chemscore.Rot.Weighted>
2.5600

> <Gold.Chemscore.Internal.Correction.Weighted>
   9.000000E+99

> <Gold.Protein.RotatedTorsions>
[ 6907 6896 6895 6894 ] final -169.45 input  -60.11 | X-H torsion
[ 7974 7965 7964 7962 ] final  161.72 input  175.53 | X-H torsion
[ 8008 7997 7996 7995 ] final  157.95 input   59.86 | X-H torsion
[ 10167 10162 10161 10158 ] final -158.54 input  -65.29 | X-H torsion
[ 10718 10713 10712 10709 ] final   52.98 input   66.30 | X-H torsion
[ 10763 10752 10751 10750 ] final -152.05 input  -60.55 | X-H torsion
[ 11005 11000 10999 10996 ] final   89.60 input  -57.11 | X-H torsion

> <Gold.Protein.ActiveResidues>
 VAL166  LYS551  ARG553  GLY616  TRP617  ASP618  TYR619  PRO620  LYS621  CYS622 
 ASP623  PHE694  ASN695  SER759  ASP760  ASP761  ALA762  ILE779  LEU786  VAL792 
 PHE793  MET794  SER795  GLU796  ALA797  LYS798  CYS799  TRP800  GLU811  SER814 

> <Gold.Protein.RotatedAtoms>
  151.4918  133.3523  159.2854 H   0  0  0  0  0  0  0  0  0  0  0  0  # atno 6907 bound_to 6896
  150.8829  134.8225  159.7249 H   0  0  0  0  0  0  0  0  0  0  0  0  # atno 6908 bound_to 6896
  152.4774  134.4818  159.9720 H   0  0  0  0  0  0  0  0  0  0  0  0  # atno 6909 bound_to 6896
  144.7672  139.7938  143.6311 H   0  0  0  0  0  0  0  0  0  0  0  0  # atno 7974 bound_to 7965
  156.2333  140.1871  156.7186 H   0  0  0  0  0  0  0  0  0  0  0  0  # atno 8008 bound_to 7997
  154.6061  140.0629  156.9459 H   0  0  0  0  0  0  0  0  0  0  0  0  # atno 8009 bound_to 7997
  155.2094  140.3298  155.4333 H   0  0  0  0  0  0  0  0  0  0  0  0  # atno 8010 bound_to 7997
  139.6684  143.9788  152.2269 H   0  0  0  0  0  0  0  0  0  0  0  0  # atno 10167 bound_to 10162
  157.5125  130.8510  149.8453 H   0  0  0  0  0  0  0  0  0  0  0  0  # atno 10718 bound_to 10713
  154.8019  135.3245  154.7528 H   0  0  0  0  0  0  0  0  0  0  0  0  # atno 10763 bound_to 10752
  153.8195  135.6889  153.4833 H   0  0  0  0  0  0  0  0  0  0  0  0  # atno 10764 bound_to 10752
  153.1741  135.4612  154.9885 H   0  0  0  0  0  0  0  0  0  0  0  0  # atno 10765 bound_to 10752
  139.8872  134.8562  156.3165 H   0  0  0  0  0  0  0  0  0  0  0  0  # atno 11005 bound_to 11000
  146.1789  139.4972  142.9879 LP  0  0  0  0  0  0  0  0  0  0  0  0  # atno 17320 bound_to 7965
  145.6435  141.0279  143.1799 LP  0  0  0  0  0  0  0  0  0  0  0  0  # atno 17321 bound_to 7965
  139.9546  144.6598  150.8138 LP  0  0  0  0  0  0  0  0  0  0  0  0  # atno 17342 bound_to 10162
  140.7608  143.3160  151.2732 LP  0  0  0  0  0  0  0  0  0  0  0  0  # atno 17343 bound_to 10162
  156.0298  130.3768  150.1719 LP  0  0  0  0  0  0  0  0  0  0  0  0  # atno 17370 bound_to 10713
  156.9909  130.9893  151.3415 LP  0  0  0  0  0  0  0  0  0  0  0  0  # atno 17371 bound_to 10713
  140.9815  133.7264  156.0679 LP  0  0  0  0  0  0  0  0  0  0  0  0  # atno 17394 bound_to 11000
  140.7743  134.3797  157.5501 LP  0  0  0  0  0  0  0  0  0  0  0  0  # atno 17395 bound_to 11000

$$$$
