AV-unprocessed.smi:1523|AV-procd|sdf|6138|dock10
  -GOLD-   22720 6283D 1   1.00000     0.00000
 Structure written by MMmdl.
 37 38  0  0  0  0  0  0  0  0  1 V2000
  154.3103  140.8944  160.3783 C   0  0  0  0  0  0  0  0  0  0  0  0
  153.4656  142.1194  160.2962 C   0  0  0  0  0  0  0  0  0  0  0  0
  152.9970  142.6154  159.1483 N   0  0  0  0  0  0  0  0  0  0  0  0
  152.2306  143.7707  159.3336 C   0  0  0  0  0  0  0  0  0  0  0  0
  151.6176  144.4588  158.1519 C   0  0  0  0  0  0  0  0  0  0  0  0
  151.8189  143.6660  156.8501 C   0  0  0  0  0  0  0  0  0  0  0  0
  150.6618  142.8321  156.5462 N   0  0  0  0  0  0  0  0  0  0  0  0
  150.7055  141.5306  156.2139 C   0  0  0  0  0  0  0  0  0  0  0  0
  151.7682  140.9128  156.1340 O   0  0  0  0  0  0  0  0  0  0  0  0
  149.4951  140.9633  155.9753 N   0  0  0  0  0  0  0  0  0  0  0  0
  148.2128  141.6725  155.8150 C   0  0  0  0  0  0  0  0  0  0  0  0
  147.7953  141.6143  154.3343 C   0  0  0  0  0  0  0  0  0  0  0  0
  147.7064  140.1525  153.8515 C   0  0  0  0  0  0  0  0  0  0  0  0
  147.4801  140.1205  152.4585 O   0  0  0  0  0  0  0  0  0  0  0  0
  148.9870  139.3645  154.1926 C   0  0  0  0  0  0  0  0  0  0  0  0
  149.3508  139.5309  155.6801 C   0  0  0  0  0  0  0  0  0  0  0  0
  152.1262  144.1449  160.6501 C   0  0  0  0  0  0  0  0  0  0  0  0
  152.9898  143.0602  161.7048 S   0  0  0  0  0  0  0  0  0  0  0  0
  154.0479  140.1974  159.5819 H   0  0  0  0  0  0  0  0  0  0  0  0
  154.1617  140.3983  161.3376 H   0  0  0  0  0  0  0  0  0  0  0  0
  155.3628  141.1606  160.2804 H   0  0  0  0  0  0  0  0  0  0  0  0
  150.5518  144.6115  158.3269 H   0  0  0  0  0  0  0  0  0  0  0  0
  152.0470  145.4555  158.0410 H   0  0  0  0  0  0  0  0  0  0  0  0
  151.9652  144.3520  156.0153 H   0  0  0  0  0  0  0  0  0  0  0  0
  152.7204  143.0537  156.9098 H   0  0  0  0  0  0  0  0  0  0  0  0
  149.7569  143.2773  156.5896 H   0  0  0  0  0  0  0  0  0  0  0  0
  147.4569  141.1845  156.4321 H   0  0  0  0  0  0  0  0  0  0  0  0
  148.2323  142.7080  156.1547 H   0  0  0  0  0  0  0  0  0  0  0  0
  146.8367  142.1154  154.1960 H   0  0  0  0  0  0  0  0  0  0  0  0
  148.5232  142.1625  153.7338 H   0  0  0  0  0  0  0  0  0  0  0  0
  146.8577  139.6708  154.3390 H   0  0  0  0  0  0  0  0  0  0  0  0
  148.2035  140.5482  152.0258 H   0  0  0  0  0  0  0  0  0  0  0  0
  148.8541  138.3084  153.9550 H   0  0  0  0  0  0  0  0  0  0  0  0
  149.8167  139.7188  153.5786 H   0  0  0  0  0  0  0  0  0  0  0  0
  150.2508  138.9578  155.9073 H   0  0  0  0  0  0  0  0  0  0  0  0
  148.5658  139.1083  156.3086 H   0  0  0  0  0  0  0  0  0  0  0  0
  151.5941  144.9896  161.0621 H   0  0  0  0  0  0  0  0  0  0  0  0
  1  2  1  0  0  0  0
  1 19  1  0  0  0  0
  1 20  1  0  0  0  0
  1 21  1  0  0  0  0
  2 18  1  0  0  0  0
  2  3  2  0  0  0  0
  3  4  1  0  0  0  0
  4  5  1  0  0  0  0
  4 17  2  0  0  0  0
  5  6  1  0  0  0  0
  5 22  1  0  0  0  0
  5 23  1  0  0  0  0
  6  7  1  0  0  0  0
  6 24  1  0  0  0  0
  6 25  1  0  0  0  0
  7  8  1  0  0  0  0
  7 26  1  0  0  0  0
  8  9  2  0  0  0  0
  8 10  1  0  0  0  0
 10 16  1  0  0  0  0
 10 11  1  0  0  0  0
 11 12  1  0  0  0  0
 11 27  1  0  0  0  0
 11 28  1  0  0  0  0
 12 13  1  0  0  0  0
 12 29  1  0  0  0  0
 12 30  1  0  0  0  0
 13 14  1  0  0  0  0
 13 15  1  0  0  0  0
 13 31  1  0  0  0  0
 14 32  1  0  0  0  0
 15 16  1  0  0  0  0
 15 33  1  0  0  0  0
 15 34  1  0  0  0  0
 16 35  1  0  0  0  0
 16 36  1  0  0  0  0
 17 18  1  0  0  0  0
 17 37  1  0  0  0  0
M  END
> <s_m_source_file>
AV-unprocessed.smi

> <i_m_source_file_index>
1523

> <i_lp_mmshare_version>
43012

> <i_f3d_flags>
0

> <s_epik_input>
W0NIM11jMW5jKFtjSF1zMSlbQ0gyXVtDSDJdW05IXUMoPU8pTjJbQ0gyXVtDSDJdW0NIXShbT0hdKVtDSDJdW0NIMl0y

> <s_epik_cmdline>
J2VwaWtfcHl0aG9uJywgJy1waCcsICc3LjAnLCAnLXRuJywgJzgnLCAnLW1hJywgJzIwMCcsICctbWV0YWxfYmluZGluZycsICctaW1hZScsICc8aW5maWxlLm1hZT4nLCAnLW9tYWUnLCAnPG91dGZpbGUubWFlPic=

> <r_epik_Ionization_Penalty>
0.00204564

> <r_epik_Ionization_Penalty_Charging>
0

> <r_epik_Ionization_Penalty_Neutral>
0.00204564

> <r_epik_State_Penalty>
0.00135655

> <r_epik_Charging_Adjusted_Penalty>
0.00135655

> <i_epik_Tot_Q>
0

> <i_epik_Tot_abs_Q>
0

> <r_epik_Metal_State_Penalty>
-0

> <b_epik_Metal_Only>
0

> <s_lp_Force_Field>
OPLS_2005

> <r_lp_Energy>
24.1717

> <b_lp_Chiralities_Consistent>
1

> <s_lp_Variant>
AV-unprocessed.smi:1523-1

> <Gold.Version>
5.8.1

> <Gold.Id.Protein>
6NUR|6NUR_protein|mol2

> <Gold.PLP.Fitness>
45.9033

> <Gold.PLP.PLP>
-40.6818

> <Gold.PLP.part.hbond>
-1.5163

> <Gold.PLP.part.metal>
0.0000

> <Gold.PLP.part.buried>
-5.0999

> <Gold.PLP.part.nonpolar>
-33.9779

> <Gold.PLP.part.repulsive>
0.0830

> <Gold.PLP.ligand.clash>
0.0000

> <Gold.PLP.ligand.torsion>
0.3738

> <Gold.PLP.Chemscore.Hbond>
1.9833

> <Gold.PLP.Chemscore.CHOScore>
0.0000

> <Gold.PLP.Chemscore.Metal>
0.0000

> <Gold.Chemscore.Hbonds>
donor molecule, donor type, donor heavy atom, donor atom, acceptor molecule, acceptor atom, score
      L1  H     7    26       P1  8028  0.72
      L1  H    14    32       P1  7957  0.74

> <Gold.PLP.Chemscore.Internal.Correction>
0.0191

> <Gold.Rescore>
     Score         DG    S(hbond)    S(metal)    S(lipo)     H(rot)  DE(clash)    DE(int)     intcor
     18.28     -19.19       1.84        0.00     105.29       1.86       0.53       0.37       ----

> <Gold.Chemscore.Fitness>
18.2803

> <Gold.Chemscore.DG>
-19.1888

> <Gold.Chemscore.ZeroCoef>
-5.4800

> <Gold.Chemscore.Hbond>
1.8422

> <Gold.Chemscore.Metal>
0.0000

> <Gold.Chemscore.Lipo>
105.2903

> <Gold.Chemscore.Internal_Hbond>
0.0000

> <Gold.Chemscore.DEClash>
0.5346

> <Gold.Chemscore.DEInternal>
0.3738

> <Gold.Chemscore.Rot>
1.8607

> <Gold.Chemscore.Internal.Correction>
   9.000000E+99

> <Gold.Chemscore.Hbonds>
donor molecule, donor type, donor heavy atom, donor atom, acceptor molecule, acceptor atom, score
      L1  H     7    26       P1  8028  0.72
      L1  H    14    32       P1  7957  0.72

> <Gold.Chemscore.Hbond.Weighted>
-6.1531

> <Gold.Chemscore.Metal.Weighted>
-0.0000

> <Gold.Chemscore.Lipo.Weighted>
-12.3190

> <Gold.Chemscore.Internal_Hbond.Weighted>
0.0000

> <Gold.Chemscore.DEClash.Weighted>
0.5346

> <Gold.Chemscore.DEInternal.Weighted>
0.3738

> <Gold.Chemscore.Rot.Weighted>
4.7633

> <Gold.Chemscore.Internal.Correction.Weighted>
   9.000000E+99

> <Gold.Protein.RotatedTorsions>
[ 6907 6896 6895 6894 ] final  177.26 input  -60.11 | X-H torsion
[ 7974 7965 7964 7962 ] final -130.53 input  175.53 | X-H torsion
[ 8008 7997 7996 7995 ] final  -54.39 input   59.86 | X-H torsion
[ 10167 10162 10161 10158 ] final -166.83 input  -65.29 | X-H torsion
[ 10718 10713 10712 10709 ] final  -86.03 input   66.30 | X-H torsion
[ 10763 10752 10751 10750 ] final   35.04 input  -60.55 | X-H torsion
[ 11005 11000 10999 10996 ] final -135.26 input  -57.11 | X-H torsion

> <Gold.Protein.ActiveResidues>
 VAL166  LYS551  ARG553  GLY616  TRP617  ASP618  TYR619  PRO620  LYS621  CYS622 
 ASP623  PHE694  ASN695  SER759  ASP760  ASP761  ALA762  ILE779  LEU786  VAL792 
 PHE793  MET794  SER795  GLU796  ALA797  LYS798  CYS799  TRP800  GLU811  SER814 

> <Gold.Protein.RotatedAtoms>
  151.7069  133.3312  159.3280 H   0  0  0  0  0  0  0  0  0  0  0  0  # atno 6907 bound_to 6896
  150.7711  134.6566  159.6326 H   0  0  0  0  0  0  0  0  0  0  0  0  # atno 6908 bound_to 6896
  152.3735  134.6701  160.0219 H   0  0  0  0  0  0  0  0  0  0  0  0  # atno 6909 bound_to 6896
  144.9465  140.7298  143.4814 H   0  0  0  0  0  0  0  0  0  0  0  0  # atno 7974 bound_to 7965
  154.4161  140.1177  156.5308 H   0  0  0  0  0  0  0  0  0  0  0  0  # atno 8008 bound_to 7997
  155.6608  140.3496  155.4762 H   0  0  0  0  0  0  0  0  0  0  0  0  # atno 8009 bound_to 7997
  155.9715  140.1142  157.0798 H   0  0  0  0  0  0  0  0  0  0  0  0  # atno 8010 bound_to 7997
  139.6089  144.0855  152.1821 H   0  0  0  0  0  0  0  0  0  0  0  0  # atno 10167 bound_to 10162
  155.9992  130.4751  150.4653 H   0  0  0  0  0  0  0  0  0  0  0  0  # atno 10718 bound_to 10713
  153.0137  135.6344  154.1764 H   0  0  0  0  0  0  0  0  0  0  0  0  # atno 10763 bound_to 10752
  154.1505  135.2829  155.3138 H   0  0  0  0  0  0  0  0  0  0  0  0  # atno 10764 bound_to 10752
  154.6057  135.5573  153.7481 H   0  0  0  0  0  0  0  0  0  0  0  0  # atno 10765 bound_to 10752
  140.8914  134.1806  157.4525 H   0  0  0  0  0  0  0  0  0  0  0  0  # atno 11005 bound_to 11000
  145.2909  139.1884  143.4741 LP  0  0  0  0  0  0  0  0  0  0  0  0  # atno 17320 bound_to 7965
  146.3305  140.2886  142.8614 LP  0  0  0  0  0  0  0  0  0  0  0  0  # atno 17321 bound_to 7965
  140.0469  144.5963  150.7366 LP  0  0  0  0  0  0  0  0  0  0  0  0  # atno 17342 bound_to 10162
  140.7305  143.2684  151.3969 LP  0  0  0  0  0  0  0  0  0  0  0  0  # atno 17343 bound_to 10162
  157.2673  131.0579  151.2282 LP  0  0  0  0  0  0  0  0  0  0  0  0  # atno 17370 bound_to 10713
  157.3375  130.7016  149.6361 LP  0  0  0  0  0  0  0  0  0  0  0  0  # atno 17371 bound_to 10713
  139.8730  134.9860  156.5306 LP  0  0  0  0  0  0  0  0  0  0  0  0  # atno 17394 bound_to 11000
  140.8342  133.8255  155.9012 LP  0  0  0  0  0  0  0  0  0  0  0  0  # atno 17395 bound_to 11000

$$$$
