AV-unprocessed.smi:705|AV-procd|sdf|3448|dock9
  -GOLD-   22720 0433D 1   1.00000     0.00000
 Structure written by MMmdl.
 29 30  0  0  0  0  0  0  0  0  2 V2000
  148.3098  136.5216  154.3411 N   0  0  0  0  0  0  0  0  0  0  0  0
  147.3717  136.0718  155.1788 C   0  0  0  0  0  0  0  0  0  0  0  0
  147.3622  136.3469  156.3775 O   0  0  0  0  0  0  0  0  0  0  0  0
  146.3146  135.2042  154.5614 C   0  0  0  0  0  0  0  0  0  0  0  0
  146.0294  135.2868  153.1652 C   0  0  0  0  0  0  0  0  0  0  0  0
  145.0343  134.3703  152.9665 C   0  0  0  0  0  0  0  0  0  0  0  0
  144.2892  133.9731  151.7311 C   0  0  2  0  0  0  0  0  0  0  0  0
  144.4178  132.4650  151.4398 C   0  0  0  0  0  0  0  0  0  0  0  0
  143.6643  132.0913  150.1542 C   0  0  0  0  0  0  0  0  0  0  0  0
  144.1372  132.9524  148.9724 C   0  0  0  0  0  0  0  0  0  0  0  0
  143.9987  134.3905  149.2882 N   0  3  0  0  0  0  0  0  0  0  0  0
  144.7436  134.7893  150.5030 C   0  0  0  0  0  0  0  0  0  0  0  0
  144.7773  133.8113  154.1983 N   0  0  0  0  0  0  0  0  0  0  0  0
  145.5524  134.3102  155.1791 N   0  0  0  0  0  0  0  0  0  0  0  0
  144.0893  133.0945  154.3820 H   0  0  0  0  0  0  0  0  0  0  0  0
  149.0523  137.1119  154.6866 H   0  0  0  0  0  0  0  0  0  0  0  0
  148.2692  136.2681  153.3645 H   0  0  0  0  0  0  0  0  0  0  0  0
  146.4865  135.9228  152.4214 H   0  0  0  0  0  0  0  0  0  0  0  0
  143.2309  134.1853  151.8924 H   0  0  0  0  0  0  0  0  0  0  0  0
  145.4691  132.1932  151.3346 H   0  0  0  0  0  0  0  0  0  0  0  0
  144.0296  131.8855  152.2782 H   0  0  0  0  0  0  0  0  0  0  0  0
  143.8128  131.0345  149.9296 H   0  0  0  0  0  0  0  0  0  0  0  0
  142.5924  132.2284  150.3032 H   0  0  0  0  0  0  0  0  0  0  0  0
  145.1801  132.7348  148.7376 H   0  0  0  0  0  0  0  0  0  0  0  0
  143.5540  132.7247  148.0799 H   0  0  0  0  0  0  0  0  0  0  0  0
  144.3361  134.9322  148.5051 H   0  0  0  0  0  0  0  0  0  0  0  0
  144.5848  135.8541  150.6763 H   0  0  0  0  0  0  0  0  0  0  0  0
  145.8115  134.6527  150.3257 H   0  0  0  0  0  0  0  0  0  0  0  0
  143.0198  134.5961  149.4283 H   0  0  0  0  0  0  0  0  0  0  0  0
  1  2  1  0  0  0  0
  1 16  1  0  0  0  0
  1 17  1  0  0  0  0
  2  3  2  0  0  0  0
  2  4  1  0  0  0  0
  4 14  2  0  0  0  0
  4  5  1  0  0  0  0
  5  6  2  0  0  0  0
  5 18  1  0  0  0  0
  6  7  1  0  0  0  0
  6 13  1  0  0  0  0
  7 12  1  0  0  0  0
  7  8  1  0  0  0  0
  7 19  1  0  0  0  0
  8  9  1  0  0  0  0
  8 20  1  0  0  0  0
  8 21  1  0  0  0  0
  9 10  1  0  0  0  0
  9 22  1  0  0  0  0
  9 23  1  0  0  0  0
 10 11  1  0  0  0  0
 10 24  1  0  0  0  0
 10 25  1  0  0  0  0
 11 12  1  0  0  0  0
 11 26  1  0  0  0  0
 11 29  1  0  0  0  0
 12 27  1  0  0  0  0
 12 28  1  0  0  0  0
 13 15  1  0  0  0  0
 13 14  1  0  0  0  0
M  CHG  1  11   1
M  END
> <s_m_source_file>
AV-unprocessed.smi

> <i_m_source_file_index>
705

> <i_lp_mmshare_version>
43012

> <i_f3d_flags>
0

> <s_epik_input>
W05IMl1DKD1PKWMxW2NIXWMoW25IXW4xKVtDQEBIXTJbQ0gyXVtDSDJdW0NIMl1bTkhdW0NIMl0y

> <s_epik_cmdline>
J2VwaWtfcHl0aG9uJywgJy1waCcsICc3LjAnLCAnLXRuJywgJzgnLCAnLW1hJywgJzIwMCcsICctbWV0YWxfYmluZGluZycsICctaW1hZScsICc8aW5maWxlLm1hZT4nLCAnLW9tYWUnLCAnPG91dGZpbGUubWFlPic=

> <r_lp_tautomer_probability>
0.5

> <r_epik_Ionization_Penalty>
0.000245231

> <r_epik_Ionization_Penalty_Charging>
0.000226378

> <r_epik_Ionization_Penalty_Neutral>
1.88531e-05

> <r_epik_State_Penalty>
0.41068

> <r_epik_Charging_Adjusted_Penalty>
0.410906

> <i_epik_Tot_Q>
1

> <i_epik_Tot_abs_Q>
1

> <r_epik_Metal_State_Penalty>
0.446108

> <b_epik_Metal_Only>
0

> <s_lp_Force_Field>
OPLS_2005

> <r_lp_Energy>
15.347

> <b_lp_Chiralities_Consistent>
1

> <s_lp_Variant>
AV-unprocessed.smi:705-3

> <Gold.Version>
5.8.1

> <Gold.Id.Protein>
6NUR|6NUR_protein|mol2

> <Gold.PLP.Fitness>
34.1873

> <Gold.PLP.PLP>
-20.8096

> <Gold.PLP.part.hbond>
-3.9995

> <Gold.PLP.part.metal>
0.0000

> <Gold.PLP.part.buried>
-1.8351

> <Gold.PLP.part.nonpolar>
-14.7802

> <Gold.PLP.part.repulsive>
0.1889

> <Gold.PLP.ligand.clash>
0.0000

> <Gold.PLP.ligand.torsion>
0.2434

> <Gold.PLP.Chemscore.Hbond>
4.6160

> <Gold.PLP.Chemscore.CHOScore>
0.0000

> <Gold.PLP.Chemscore.Metal>
0.0000

> <Gold.Chemscore.Hbonds>
donor molecule, donor type, donor heavy atom, donor atom, acceptor molecule, acceptor atom, score
      L1  H     1    17       P1  7948  1.00
      L1  H    11    26       P1  7921  0.56
      L1  H    11    29       P1 10186  2.00
      L1  H    13    15       P1 10957  1.00

> <Gold.PLP.Chemscore.Internal.Correction>
0.0164

> <Gold.Rescore>
     Score         DG    S(hbond)    S(metal)    S(lipo)     H(rot)  DE(clash)    DE(int)     intcor
     19.95     -20.39       3.51        0.00      49.12       1.00       0.08       0.36       ----

> <Gold.Chemscore.Fitness>
19.9465

> <Gold.Chemscore.DG>
-20.3922

> <Gold.Chemscore.ZeroCoef>
-5.4800

> <Gold.Chemscore.Hbond>
3.5106

> <Gold.Chemscore.Metal>
0.0000

> <Gold.Chemscore.Lipo>
49.1192

> <Gold.Chemscore.Internal_Hbond>
0.0000

> <Gold.Chemscore.DEClash>
0.0846

> <Gold.Chemscore.DEInternal>
0.3611

> <Gold.Chemscore.Rot>
1.0000

> <Gold.Chemscore.Internal.Correction>
   9.000000E+99

> <Gold.Chemscore.Hbonds>
donor molecule, donor type, donor heavy atom, donor atom, acceptor molecule, acceptor atom, score
      L1  H     1    17       P1  7948  0.94
      L1  H    11    26       P1  7921  0.55
      L1  H    11    29       P1 10186  0.93
      L1  H    13    15       P1 10957  0.97

> <Gold.Chemscore.Hbond.Weighted>
-11.7253

> <Gold.Chemscore.Metal.Weighted>
-0.0000

> <Gold.Chemscore.Lipo.Weighted>
-5.7469

> <Gold.Chemscore.Internal_Hbond.Weighted>
0.0000

> <Gold.Chemscore.DEClash.Weighted>
0.0846

> <Gold.Chemscore.DEInternal.Weighted>
0.3611

> <Gold.Chemscore.Rot.Weighted>
2.5600

> <Gold.Chemscore.Internal.Correction.Weighted>
   9.000000E+99

> <Gold.Protein.RotatedTorsions>
[ 6907 6896 6895 6894 ] final   94.72 input  -60.11 | X-H torsion
[ 7974 7965 7964 7962 ] final  152.40 input  175.53 | X-H torsion
[ 8008 7997 7996 7995 ] final -103.31 input   59.86 | X-H torsion
[ 10167 10162 10161 10158 ] final  -73.34 input  -65.29 | X-H torsion
[ 10718 10713 10712 10709 ] final  -94.47 input   66.30 | X-H torsion
[ 10763 10752 10751 10750 ] final -175.68 input  -60.55 | X-H torsion
[ 11005 11000 10999 10996 ] final   34.07 input  -57.11 | X-H torsion

> <Gold.Protein.ActiveResidues>
 VAL166  LYS551  ARG553  GLY616  TRP617  ASP618  TYR619  PRO620  LYS621  CYS622 
 ASP623  PHE694  ASN695  SER759  ASP760  ASP761  ALA762  ILE779  LEU786  VAL792 
 PHE793  MET794  SER795  GLU796  ALA797  LYS798  CYS799  TRP800  GLU811  SER814 

> <Gold.Protein.RotatedAtoms>
  152.5448  134.1151  159.8374 H   0  0  0  0  0  0  0  0  0  0  0  0  # atno 6907 bound_to 6896
  151.1213  133.5095  159.2609 H   0  0  0  0  0  0  0  0  0  0  0  0  # atno 6908 bound_to 6896
  151.1776  135.0356  159.8833 H   0  0  0  0  0  0  0  0  0  0  0  0  # atno 6909 bound_to 6896
  144.8225  139.6663  143.6094 H   0  0  0  0  0  0  0  0  0  0  0  0  # atno 7974 bound_to 7965
  154.8691  140.0423  157.1713 H   0  0  0  0  0  0  0  0  0  0  0  0  # atno 8008 bound_to 7997
  154.8758  140.2965  155.5433 H   0  0  0  0  0  0  0  0  0  0  0  0  # atno 8009 bound_to 7997
  156.2999  140.2420  156.3754 H   0  0  0  0  0  0  0  0  0  0  0  0  # atno 8010 bound_to 7997
  140.5118  143.2344  151.7580 H   0  0  0  0  0  0  0  0  0  0  0  0  # atno 10167 bound_to 10162
  156.0028  130.5069  150.5932 H   0  0  0  0  0  0  0  0  0  0  0  0  # atno 10718 bound_to 10713
  154.5815  135.2836  155.0728 H   0  0  0  0  0  0  0  0  0  0  0  0  # atno 10763 bound_to 10752
  154.2063  135.6416  153.5105 H   0  0  0  0  0  0  0  0  0  0  0  0  # atno 10764 bound_to 10752
  153.0090  135.5481  154.6470 H   0  0  0  0  0  0  0  0  0  0  0  0  # atno 10765 bound_to 10752
  140.2567  134.3240  155.7871 H   0  0  0  0  0  0  0  0  0  0  0  0  # atno 11005 bound_to 11000
  146.2531  139.6242  142.9414 LP  0  0  0  0  0  0  0  0  0  0  0  0  # atno 17320 bound_to 7965
  145.5073  141.0436  143.2507 LP  0  0  0  0  0  0  0  0  0  0  0  0  # atno 17321 bound_to 7965
  139.4898  144.4379  151.9797 LP  0  0  0  0  0  0  0  0  0  0  0  0  # atno 17342 bound_to 10162
  140.3472  144.3132  150.5956 LP  0  0  0  0  0  0  0  0  0  0  0  0  # atno 17343 bound_to 10162
  157.3793  131.0778  151.1490 LP  0  0  0  0  0  0  0  0  0  0  0  0  # atno 17370 bound_to 10713
  157.2218  130.6485  149.5814 LP  0  0  0  0  0  0  0  0  0  0  0  0  # atno 17371 bound_to 10713
  141.2195  133.7385  156.9122 LP  0  0  0  0  0  0  0  0  0  0  0  0  # atno 17394 bound_to 11000
  140.1505  134.9233  157.2586 LP  0  0  0  0  0  0  0  0  0  0  0  0  # atno 17395 bound_to 11000

$$$$
