AV-unprocessed.smi:910|AV-procd|sdf|4131|dock2
  -GOLD-   22720 2 33D 1   1.00000     0.00000
 Structure written by MMmdl.
 47 48  0  0  0  0  0  0  0  0  2 V2000
  148.4106  132.4009  153.6515 C   0  0  0  0  0  0  0  0  0  0  0  0
  149.3189  133.4456  154.2200 C   0  0  0  0  0  0  0  0  0  0  0  0
  149.5318  134.7313  153.7806 N   0  3  0  0  0  0  0  0  0  0  0  0
  150.4232  135.3287  154.5678 C   0  0  0  0  0  0  0  0  0  0  0  0
  150.8672  136.6600  154.3964 N   0  0  0  0  0  0  0  0  0  0  0  0
  151.2737  137.4806  155.3768 C   0  0  0  0  0  0  0  0  0  0  0  0
  151.3437  137.1674  156.5656 O   0  0  0  0  0  0  0  0  0  0  0  0
  151.5967  138.6938  154.9041 N   0  0  0  0  0  0  0  0  0  0  0  0
  152.0381  139.8218  155.7182 C   0  0  0  0  0  0  0  0  0  0  0  0
  150.9601  140.2451  156.7261 C   0  0  0  0  0  0  0  0  0  0  0  0
  151.5589  140.4245  158.0005 O   0  0  0  0  0  0  0  0  0  0  0  0
  152.1250  141.7104  158.2121 C   0  0  1  0  0  0  0  0  0  0  0  0
  151.0556  142.7849  157.9231 C   0  0  0  0  0  0  0  0  0  0  0  0
  151.5605  144.1928  158.2707 C   0  0  0  0  0  0  0  0  0  0  0  0
  152.0272  144.2653  159.7314 C   0  0  0  0  0  0  0  0  0  0  0  0
  153.0981  143.2026  160.0214 C   0  0  0  0  0  0  0  0  0  0  0  0
  152.6030  141.7825  159.6798 C   0  0  2  0  0  0  0  0  0  0  0  0
  153.6952  140.7413  159.9744 C   0  0  0  0  0  0  0  0  0  0  0  0
  150.8351  134.4838  155.5509 O   0  0  0  0  0  0  0  0  0  0  0  0
  150.1362  133.3162  155.3222 C   0  0  0  0  0  0  0  0  0  0  0  0
  150.3830  132.1831  156.2601 C   0  0  0  0  0  0  0  0  0  0  0  0
  148.9348  131.4550  153.5136 H   0  0  0  0  0  0  0  0  0  0  0  0
  148.0156  132.7029  152.6815 H   0  0  0  0  0  0  0  0  0  0  0  0
  147.5626  132.2163  154.3112 H   0  0  0  0  0  0  0  0  0  0  0  0
  149.0612  135.1243  152.9752 H   0  0  0  0  0  0  0  0  0  0  0  0
  151.5130  138.8604  153.9119 H   0  0  0  0  0  0  0  0  0  0  0  0
  152.9774  139.5975  156.2268 H   0  0  0  0  0  0  0  0  0  0  0  0
  152.2445  140.6518  155.0423 H   0  0  0  0  0  0  0  0  0  0  0  0
  150.5104  141.1866  156.4085 H   0  0  0  0  0  0  0  0  0  0  0  0
  150.1641  139.5005  156.7594 H   0  0  0  0  0  0  0  0  0  0  0  0
  152.9866  141.8598  157.5580 H   0  0  0  0  0  0  0  0  0  0  0  0
  150.7576  142.7586  156.8754 H   0  0  0  0  0  0  0  0  0  0  0  0
  150.1574  142.5692  158.5033 H   0  0  0  0  0  0  0  0  0  0  0  0
  152.3848  144.4598  157.6082 H   0  0  0  0  0  0  0  0  0  0  0  0
  150.7721  144.9252  158.0951 H   0  0  0  0  0  0  0  0  0  0  0  0
  152.4215  145.2588  159.9468 H   0  0  0  0  0  0  0  0  0  0  0  0
  151.1753  144.1191  160.3966 H   0  0  0  0  0  0  0  0  0  0  0  0
  153.9961  143.4281  159.4443 H   0  0  0  0  0  0  0  0  0  0  0  0
  153.3865  143.2543  161.0717 H   0  0  0  0  0  0  0  0  0  0  0  0
  151.7516  141.5608  160.3253 H   0  0  0  0  0  0  0  0  0  0  0  0
  154.5740  140.9002  159.3487 H   0  0  0  0  0  0  0  0  0  0  0  0
  153.3372  139.7276  159.7926 H   0  0  0  0  0  0  0  0  0  0  0  0
  154.0146  140.7916  161.0156 H   0  0  0  0  0  0  0  0  0  0  0  0
  149.4999  131.5497  156.3473 H   0  0  0  0  0  0  0  0  0  0  0  0
  150.6334  132.5486  157.2560 H   0  0  0  0  0  0  0  0  0  0  0  0
  151.2090  131.5649  155.9083 H   0  0  0  0  0  0  0  0  0  0  0  0
  150.8641  137.0206  153.4539 H   0  0  0  0  0  0  0  0  0  0  0  0
  1 22  1  0  0  0  0
  1 23  1  0  0  0  0
  1 24  1  0  0  0  0
  1  2  1  0  0  0  0
  2  3  1  0  0  0  0
  2 20  2  0  0  0  0
  3 25  1  0  0  0  0
  3  4  2  0  0  0  0
  4 19  1  0  0  0  0
  4  5  1  0  0  0  0
  5  6  1  0  0  0  0
  5 47  1  0  0  0  0
  6  8  1  0  0  0  0
  6  7  2  0  0  0  0
  8  9  1  0  0  0  0
  8 26  1  0  0  0  0
  9 10  1  0  0  0  0
  9 27  1  0  0  0  0
  9 28  1  0  0  0  0
 10 11  1  0  0  0  0
 10 29  1  0  0  0  0
 10 30  1  0  0  0  0
 11 12  1  0  0  0  0
 12 17  1  0  0  0  0
 12 13  1  0  0  0  0
 12 31  1  0  0  0  0
 13 14  1  0  0  0  0
 13 32  1  0  0  0  0
 13 33  1  0  0  0  0
 14 15  1  0  0  0  0
 14 34  1  0  0  0  0
 14 35  1  0  0  0  0
 15 16  1  0  0  0  0
 15 36  1  0  0  0  0
 15 37  1  0  0  0  0
 16 17  1  0  0  0  0
 16 38  1  0  0  0  0
 16 39  1  0  0  0  0
 17 18  1  0  0  0  0
 17 40  1  0  0  0  0
 18 41  1  0  0  0  0
 18 42  1  0  0  0  0
 18 43  1  0  0  0  0
 19 20  1  0  0  0  0
 20 21  1  0  0  0  0
 21 44  1  0  0  0  0
 21 45  1  0  0  0  0
 21 46  1  0  0  0  0
M  CHG  1   3   1
M  END
> <s_m_source_file>
AV-unprocessed.smi

> <i_m_source_file_index>
910

> <i_lp_mmshare_version>
43012

> <i_f3d_flags>
0

> <s_epik_input>
W0NIM11jMW5jKG9jMVtDSDNdKVtOSF1DKD1PKVtOSF1bQ0gyXVtDSDJdT1tDQEBIXTJbQ0gyXVtDSDJdW0NIMl1bQ0gyXVtDQEhdMltDSDNd

> <s_epik_cmdline>
J2VwaWtfcHl0aG9uJywgJy1waCcsICc3LjAnLCAnLXRuJywgJzgnLCAnLW1hJywgJzIwMCcsICctbWV0YWxfYmluZGluZycsICctaW1hZScsICc8aW5maWxlLm1hZT4nLCAnLW9tYWUnLCAnPG91dGZpbGUubWFlPic=

> <r_epik_Ionization_Penalty>
7.32931

> <r_epik_Ionization_Penalty_Charging>
7.12214

> <r_epik_Ionization_Penalty_Neutral>
0.207166

> <r_epik_State_Penalty>
2.61278

> <r_epik_Charging_Adjusted_Penalty>
9.73492

> <i_epik_Tot_Q>
1

> <i_epik_Tot_abs_Q>
1

> <r_epik_Metal_State_Penalty>
2.64585

> <b_epik_Metal_Only>
0

> <s_lp_Force_Field>
OPLS_2005

> <r_lp_Energy>
16.7683

> <b_lp_Chiralities_Consistent>
1

> <s_lp_Variant>
AV-unprocessed.smi:910-16

> <Gold.Version>
5.8.1

> <Gold.Id.Protein>
6NUR|6NUR_protein|mol2

> <Gold.PLP.Fitness>
46.6439

> <Gold.PLP.PLP>
-41.5779

> <Gold.PLP.part.hbond>
-2.6452

> <Gold.PLP.part.metal>
0.0000

> <Gold.PLP.part.buried>
-3.4392

> <Gold.PLP.part.nonpolar>
-35.5203

> <Gold.PLP.part.repulsive>
0.3115

> <Gold.PLP.ligand.clash>
0.0000

> <Gold.PLP.ligand.torsion>
0.6761

> <Gold.PLP.Chemscore.Hbond>
2.1122

> <Gold.PLP.Chemscore.CHOScore>
0.0000

> <Gold.PLP.Chemscore.Metal>
0.0000

> <Gold.Chemscore.Hbonds>
donor molecule, donor type, donor heavy atom, donor atom, acceptor molecule, acceptor atom, score
      L1  H     3    25       P1  7948  1.57
      L1  H     5    47       P1  7949  0.27

> <Gold.PLP.Chemscore.Internal.Correction>
0.0815

> <Gold.Rescore>
     Score         DG    S(hbond)    S(metal)    S(lipo)     H(rot)  DE(clash)    DE(int)     intcor
     13.89     -15.96       0.82        0.00     103.37       1.69       0.09       1.98       ----

> <Gold.Chemscore.Fitness>
13.8886

> <Gold.Chemscore.DG>
-15.9579

> <Gold.Chemscore.ZeroCoef>
-5.4800

> <Gold.Chemscore.Hbond>
0.8153

> <Gold.Chemscore.Metal>
0.0000

> <Gold.Chemscore.Lipo>
103.3654

> <Gold.Chemscore.Internal_Hbond>
0.0000

> <Gold.Chemscore.DEClash>
0.0865

> <Gold.Chemscore.DEInternal>
1.9828

> <Gold.Chemscore.Rot>
1.6949

> <Gold.Chemscore.Internal.Correction>
   9.000000E+99

> <Gold.Chemscore.Hbonds>
donor molecule, donor type, donor heavy atom, donor atom, acceptor molecule, acceptor atom, score
      L1  H     3    25       P1  7948  0.10
      L1  H     5    47       P1  7949  0.05

> <Gold.Chemscore.Hbond.Weighted>
-2.7231

> <Gold.Chemscore.Metal.Weighted>
-0.0000

> <Gold.Chemscore.Lipo.Weighted>
-12.0937

> <Gold.Chemscore.Internal_Hbond.Weighted>
0.0000

> <Gold.Chemscore.DEClash.Weighted>
0.0865

> <Gold.Chemscore.DEInternal.Weighted>
1.9828

> <Gold.Chemscore.Rot.Weighted>
4.3390

> <Gold.Chemscore.Internal.Correction.Weighted>
   9.000000E+99

> <Gold.Protein.RotatedTorsions>
[ 6907 6896 6895 6894 ] final   92.44 input  -60.11 | X-H torsion
[ 7974 7965 7964 7962 ] final  170.13 input  175.53 | X-H torsion
[ 8008 7997 7996 7995 ] final  175.40 input   59.86 | X-H torsion
[ 10167 10162 10161 10158 ] final  159.20 input  -65.29 | X-H torsion
[ 10718 10713 10712 10709 ] final   18.90 input   66.30 | X-H torsion
[ 10763 10752 10751 10750 ] final  -34.02 input  -60.55 | X-H torsion
[ 11005 11000 10999 10996 ] final  164.87 input  -57.11 | X-H torsion

> <Gold.Protein.ActiveResidues>
 VAL166  LYS551  ARG553  GLY616  TRP617  ASP618  TYR619  PRO620  LYS621  CYS622 
 ASP623  PHE694  ASN695  SER759  ASP760  ASP761  ALA762  ILE779  LEU786  VAL792 
 PHE793  MET794  SER795  GLU796  ALA797  LYS798  CYS799  TRP800  GLU811  SER814 

> <Gold.Protein.RotatedAtoms>
  152.5452  134.1502  159.8515 H   0  0  0  0  0  0  0  0  0  0  0  0  # atno 6907 bound_to 6896
  151.1530  133.4888  159.2602 H   0  0  0  0  0  0  0  0  0  0  0  0  # atno 6908 bound_to 6896
  151.1452  135.0210  159.8698 H   0  0  0  0  0  0  0  0  0  0  0  0  # atno 6909 bound_to 6896
  144.7333  139.9156  143.6417 H   0  0  0  0  0  0  0  0  0  0  0  0  # atno 7974 bound_to 7965
  156.0875  140.1410  156.9635 H   0  0  0  0  0  0  0  0  0  0  0  0  # atno 8008 bound_to 7997
  154.4621  140.0939  156.6970 H   0  0  0  0  0  0  0  0  0  0  0  0  # atno 8009 bound_to 7997
  155.4975  140.3450  155.4367 H   0  0  0  0  0  0  0  0  0  0  0  0  # atno 8010 bound_to 7997
  139.4831  144.4752  151.8521 H   0  0  0  0  0  0  0  0  0  0  0  0  # atno 10167 bound_to 10162
  157.1029  130.6475  149.5877 H   0  0  0  0  0  0  0  0  0  0  0  0  # atno 10718 bound_to 10713
  153.8398  135.6858  153.4804 H   0  0  0  0  0  0  0  0  0  0  0  0  # atno 10763 bound_to 10752
  153.1460  135.4637  154.9565 H   0  0  0  0  0  0  0  0  0  0  0  0  # atno 10764 bound_to 10752
  154.7850  135.3281  154.7853 H   0  0  0  0  0  0  0  0  0  0  0  0  # atno 10765 bound_to 10752
  140.2504  134.7982  157.3496 H   0  0  0  0  0  0  0  0  0  0  0  0  # atno 11005 bound_to 11000
  146.0968  139.3961  143.0371 LP  0  0  0  0  0  0  0  0  0  0  0  0  # atno 17320 bound_to 7965
  145.7634  140.9926  143.1187 LP  0  0  0  0  0  0  0  0  0  0  0  0  # atno 17321 bound_to 7965
  140.4224  144.2225  150.5887 LP  0  0  0  0  0  0  0  0  0  0  0  0  # atno 17342 bound_to 10162
  140.4860  143.2363  151.8887 LP  0  0  0  0  0  0  0  0  0  0  0  0  # atno 17343 bound_to 10162
  155.9869  130.4906  150.7101 LP  0  0  0  0  0  0  0  0  0  0  0  0  # atno 17370 bound_to 10713
  157.4625  131.0885  151.0730 LP  0  0  0  0  0  0  0  0  0  0  0  0  # atno 17371 bound_to 10713
  140.1564  134.4784  155.7925 LP  0  0  0  0  0  0  0  0  0  0  0  0  # atno 17394 bound_to 11000
  141.2202  133.6883  156.7468 LP  0  0  0  0  0  0  0  0  0  0  0  0  # atno 17395 bound_to 11000

$$$$
