AV-unprocessed.smi:1304|AV-procd|sdf|5430|dock6
  -GOLD-   22720 4593D 1   1.00000     0.00000
 Structure written by MMmdl.
 47 48  0  0  0  0  0  0  0  0  1 V2000
  145.3729  143.4043  154.2148 C   0  0  0  0  0  0  0  0  0  0  0  0
  146.4768  142.3953  154.5757 C   0  0  0  0  0  0  0  0  0  0  0  0
  146.3872  141.7891  156.0155 C   0  0  2  0  0  0  0  0  0  0  0  0
  146.2535  142.9873  156.9929 C   0  0  0  0  0  0  0  0  0  0  0  0
  147.7357  141.0663  156.3353 C   0  0  0  0  0  0  0  0  0  0  0  0
  148.8735  141.9750  156.3938 N   0  0  0  0  0  0  0  0  0  0  0  0
  150.1450  141.6225  156.6356 C   0  0  0  0  0  0  0  0  0  0  0  0
  150.4804  140.4655  156.8844 O   0  0  0  0  0  0  0  0  0  0  0  0
  151.2171  142.7253  156.5834 C   0  0  0  0  0  0  0  0  0  0  0  0
  151.5851  143.2846  157.8977 N   0  0  0  0  0  0  0  0  0  0  0  0
  151.3074  144.6493  158.1127 C   0  0  0  0  0  0  0  0  0  0  0  0
  151.6250  145.2664  159.2616 C   0  0  0  0  0  0  0  0  0  0  0  0
  152.2673  144.4921  160.2971 C   0  0  0  0  0  0  0  0  0  0  0  0
  152.5400  143.1868  160.1014 C   0  0  0  0  0  0  0  0  0  0  0  0
  152.2005  142.5098  158.8446 C   0  0  0  0  0  0  0  0  0  0  0  0
  152.4640  141.3233  158.6499 O   0  0  0  0  0  0  0  0  0  0  0  0
  145.2447  140.8341  156.1323 N   0  0  0  0  0  0  0  0  0  0  0  0
  143.9140  141.4298  155.9489 C   0  0  0  0  0  0  0  0  0  0  0  0
  142.7804  140.4204  156.1990 C   0  0  0  0  0  0  0  0  0  0  0  0
  142.9440  139.2926  155.3492 O   0  0  0  0  0  0  0  0  0  0  0  0
  144.1934  138.6450  155.5499 C   0  0  0  0  0  0  0  0  0  0  0  0
  145.3387  139.6366  155.2859 C   0  0  0  0  0  0  0  0  0  0  0  0
  145.5386  143.8094  153.2167 H   0  0  0  0  0  0  0  0  0  0  0  0
  145.3508  144.2441  154.9092 H   0  0  0  0  0  0  0  0  0  0  0  0
  144.3866  142.9406  154.2144 H   0  0  0  0  0  0  0  0  0  0  0  0
  146.4641  141.6038  153.8261 H   0  0  0  0  0  0  0  0  0  0  0  0
  147.4470  142.8643  154.4180 H   0  0  0  0  0  0  0  0  0  0  0  0
  147.0764  143.6934  156.8765 H   0  0  0  0  0  0  0  0  0  0  0  0
  146.2615  142.6698  158.0354 H   0  0  0  0  0  0  0  0  0  0  0  0
  145.3387  143.5549  156.8269 H   0  0  0  0  0  0  0  0  0  0  0  0
  147.6932  140.5690  157.3043 H   0  0  0  0  0  0  0  0  0  0  0  0
  147.9338  140.2896  155.5947 H   0  0  0  0  0  0  0  0  0  0  0  0
  148.6826  142.9479  156.2028 H   0  0  0  0  0  0  0  0  0  0  0  0
  152.0989  142.3142  156.0902 H   0  0  0  0  0  0  0  0  0  0  0  0
  150.8678  143.5179  155.9194 H   0  0  0  0  0  0  0  0  0  0  0  0
  150.8329  145.1579  157.2857 H   0  0  0  0  0  0  0  0  0  0  0  0
  151.4091  146.3149  159.4064 H   0  0  0  0  0  0  0  0  0  0  0  0
  152.5310  144.9616  161.2334 H   0  0  0  0  0  0  0  0  0  0  0  0
  153.0217  142.6235  160.8870 H   0  0  0  0  0  0  0  0  0  0  0  0
  143.7591  142.2619  156.6324 H   0  0  0  0  0  0  0  0  0  0  0  0
  143.8139  141.8249  154.9379 H   0  0  0  0  0  0  0  0  0  0  0  0
  142.7696  140.1012  157.2423 H   0  0  0  0  0  0  0  0  0  0  0  0
  141.8135  140.8807  155.9952 H   0  0  0  0  0  0  0  0  0  0  0  0
  144.2495  138.2506  156.5659 H   0  0  0  0  0  0  0  0  0  0  0  0
  144.2661  137.7943  154.8722 H   0  0  0  0  0  0  0  0  0  0  0  0
  145.3238  139.9150  154.2322 H   0  0  0  0  0  0  0  0  0  0  0  0
  146.2707  139.1038  155.4614 H   0  0  0  0  0  0  0  0  0  0  0  0
  1  2  1  0  0  0  0
  1 23  1  0  0  0  0
  1 24  1  0  0  0  0
  1 25  1  0  0  0  0
  2  3  1  0  0  0  0
  2 26  1  0  0  0  0
  2 27  1  0  0  0  0
  3  4  1  0  0  0  0
  3  5  1  0  0  0  0
  3 17  1  0  0  0  0
  4 28  1  0  0  0  0
  4 29  1  0  0  0  0
  4 30  1  0  0  0  0
  5  6  1  0  0  0  0
  5 31  1  0  0  0  0
  5 32  1  0  0  0  0
  6  7  1  0  0  0  0
  6 33  1  0  0  0  0
  7  8  2  0  0  0  0
  7  9  1  0  0  0  0
  9 10  1  0  0  0  0
  9 34  1  0  0  0  0
  9 35  1  0  0  0  0
 10 15  1  0  0  0  0
 10 11  1  0  0  0  0
 11 12  2  0  0  0  0
 11 36  1  0  0  0  0
 12 13  1  0  0  0  0
 12 37  1  0  0  0  0
 13 14  2  0  0  0  0
 13 38  1  0  0  0  0
 14 15  1  0  0  0  0
 14 39  1  0  0  0  0
 15 16  2  0  0  0  0
 17 22  1  0  0  0  0
 17 18  1  0  0  0  0
 18 19  1  0  0  0  0
 18 40  1  0  0  0  0
 18 41  1  0  0  0  0
 19 20  1  0  0  0  0
 19 42  1  0  0  0  0
 19 43  1  0  0  0  0
 20 21  1  0  0  0  0
 21 22  1  0  0  0  0
 21 44  1  0  0  0  0
 21 45  1  0  0  0  0
 22 46  1  0  0  0  0
 22 47  1  0  0  0  0
M  END
> <s_m_source_file>
AV-unprocessed.smi

> <i_m_source_file_index>
1304

> <i_lp_mmshare_version>
43012

> <i_f3d_flags>
0

> <s_epik_input>
W0NIMl0xW0NIMl1PW0NIMl1bQ0gyXU4xW0NAQF0oW0NIM10pKFtDSDJdW0NIM10pW0NIMl1bTkhdQyg9TylbQ0gyXW4yW2NIXVtjSF1bY0hdW2NIXWMyPU8=

> <s_epik_cmdline>
J2VwaWtfcHl0aG9uJywgJy1waCcsICc3LjAnLCAnLXRuJywgJzgnLCAnLW1hJywgJzIwMCcsICctbWV0YWxfYmluZGluZycsICctaW1hZScsICc8aW5maWxlLm1hZT4nLCAnLW9tYWUnLCAnPG91dGZpbGUubWFlPic=

> <r_lp_tautomer_probability>
1

> <r_epik_Ionization_Penalty>
0.318667

> <r_epik_Ionization_Penalty_Charging>
3.55364e-07

> <r_epik_Ionization_Penalty_Neutral>
0.318667

> <r_epik_State_Penalty>
0.313095

> <r_epik_Charging_Adjusted_Penalty>
0.313095

> <i_epik_Tot_Q>
0

> <i_epik_Tot_abs_Q>
0

> <r_epik_Metal_State_Penalty>
0.313065

> <b_epik_Metal_Only>
0

> <s_lp_Force_Field>
OPLS_2005

> <r_lp_Energy>
51.8872

> <b_lp_Chiralities_Consistent>
1

> <s_lp_Variant>
AV-unprocessed.smi:1304-2

> <Gold.Version>
5.8.1

> <Gold.Id.Protein>
6NUR|6NUR_protein|mol2

> <Gold.PLP.Fitness>
42.0743

> <Gold.PLP.PLP>
-36.9954

> <Gold.PLP.part.hbond>
-1.0000

> <Gold.PLP.part.metal>
0.0000

> <Gold.PLP.part.buried>
-5.9087

> <Gold.PLP.part.nonpolar>
-30.2628

> <Gold.PLP.part.repulsive>
0.3497

> <Gold.PLP.ligand.clash>
0.0000

> <Gold.PLP.ligand.torsion>
0.5003

> <Gold.PLP.Chemscore.Hbond>
1.0000

> <Gold.PLP.Chemscore.CHOScore>
0.9896

> <Gold.PLP.Chemscore.Metal>
0.0000

> <Gold.Chemscore.Hbonds>
donor molecule, donor type, donor heavy atom, donor atom, acceptor molecule, acceptor atom, score
      L1  H     6    33       P1  8028  1.00
      L1  C    11    36       P1  8028  1.00

> <Gold.PLP.Chemscore.Internal.Correction>
0.1108

> <Gold.Rescore>
     Score         DG    S(hbond)    S(metal)    S(lipo)     H(rot)  DE(clash)    DE(int)     intcor
     11.19     -13.64       1.00        0.00      84.01       1.95       0.52       1.93       ----

> <Gold.Chemscore.Fitness>
11.1893

> <Gold.Chemscore.DG>
-13.6370

> <Gold.Chemscore.ZeroCoef>
-5.4800

> <Gold.Chemscore.Hbond>
0.9953

> <Gold.Chemscore.Metal>
0.0000

> <Gold.Chemscore.Lipo>
84.0053

> <Gold.Chemscore.Internal_Hbond>
0.0000

> <Gold.Chemscore.DEClash>
0.5174

> <Gold.Chemscore.DEInternal>
1.9303

> <Gold.Chemscore.Rot>
1.9515

> <Gold.Chemscore.Internal.Correction>
   9.000000E+99

> <Gold.Chemscore.Hbonds>
donor molecule, donor type, donor heavy atom, donor atom, acceptor molecule, acceptor atom, score
      L1  H     6    33       P1  8028  0.98

> <Gold.Chemscore.Hbond.Weighted>
-3.3242

> <Gold.Chemscore.Metal.Weighted>
-0.0000

> <Gold.Chemscore.Lipo.Weighted>
-9.8286

> <Gold.Chemscore.Internal_Hbond.Weighted>
0.0000

> <Gold.Chemscore.DEClash.Weighted>
0.5174

> <Gold.Chemscore.DEInternal.Weighted>
1.9303

> <Gold.Chemscore.Rot.Weighted>
4.9958

> <Gold.Chemscore.Internal.Correction.Weighted>
   9.000000E+99

> <Gold.Protein.RotatedTorsions>
[ 6907 6896 6895 6894 ] final   53.20 input  -60.11 | X-H torsion
[ 7974 7965 7964 7962 ] final -103.89 input  175.53 | X-H torsion
[ 8008 7997 7996 7995 ] final  174.99 input   59.86 | X-H torsion
[ 10167 10162 10161 10158 ] final    3.41 input  -65.29 | X-H torsion
[ 10718 10713 10712 10709 ] final   18.70 input   66.30 | X-H torsion
[ 10763 10752 10751 10750 ] final  131.12 input  -60.55 | X-H torsion
[ 11005 11000 10999 10996 ] final -141.58 input  -57.11 | X-H torsion

> <Gold.Protein.ActiveResidues>
 VAL166  LYS551  ARG553  GLY616  TRP617  ASP618  TYR619  PRO620  LYS621  CYS622 
 ASP623  PHE694  ASN695  SER759  ASP760  ASP761  ALA762  ILE779  LEU786  VAL792 
 PHE793  MET794  SER795  GLU796  ALA797  LYS798  CYS799  TRP800  GLU811  SER814 

> <Gold.Protein.RotatedAtoms>
  152.3312  134.7256  160.0288 H   0  0  0  0  0  0  0  0  0  0  0  0  # atno 6907 bound_to 6896
  151.7672  133.3333  159.3442 H   0  0  0  0  0  0  0  0  0  0  0  0  # atno 6908 bound_to 6896
  150.7424  134.5983  159.6068 H   0  0  0  0  0  0  0  0  0  0  0  0  # atno 6909 bound_to 6896
  145.2501  140.9235  143.3100 H   0  0  0  0  0  0  0  0  0  0  0  0  # atno 7974 bound_to 7965
  156.0917  140.1420  156.9584 H   0  0  0  0  0  0  0  0  0  0  0  0  # atno 8008 bound_to 7997
  154.4646  140.0931  156.7032 H   0  0  0  0  0  0  0  0  0  0  0  0  # atno 8009 bound_to 7997
  155.4909  140.3448  155.4357 H   0  0  0  0  0  0  0  0  0  0  0  0  # atno 8010 bound_to 7997
  140.6587  143.7360  150.7700 H   0  0  0  0  0  0  0  0  0  0  0  0  # atno 10167 bound_to 10162
  157.1001  130.6464  149.5870 H   0  0  0  0  0  0  0  0  0  0  0  0  # atno 10718 bound_to 10713
  153.7691  135.3184  155.3349 H   0  0  0  0  0  0  0  0  0  0  0  0  # atno 10763 bound_to 10752
  154.8203  135.4608  154.0762 H   0  0  0  0  0  0  0  0  0  0  0  0  # atno 10764 bound_to 10752
  153.2016  135.6923  153.8308 H   0  0  0  0  0  0  0  0  0  0  0  0  # atno 10765 bound_to 10752
  140.8311  134.2516  157.4856 H   0  0  0  0  0  0  0  0  0  0  0  0  # atno 11005 bound_to 11000
  144.9511  139.4082  143.6402 LP  0  0  0  0  0  0  0  0  0  0  0  0  # atno 17320 bound_to 7965
  146.3305  139.8518  142.8872 LP  0  0  0  0  0  0  0  0  0  0  0  0  # atno 17321 bound_to 7965
  140.1025  143.4775  152.2417 LP  0  0  0  0  0  0  0  0  0  0  0  0  # atno 17342 bound_to 10162
  139.5816  144.7513  151.3627 LP  0  0  0  0  0  0  0  0  0  0  0  0  # atno 17343 bound_to 10162
  155.9876  130.4916  150.7131 LP  0  0  0  0  0  0  0  0  0  0  0  0  # atno 17370 bound_to 10713
  157.4648  131.0887  151.0706 LP  0  0  0  0  0  0  0  0  0  0  0  0  # atno 17371 bound_to 10713
  139.8705  134.9586  156.4306 LP  0  0  0  0  0  0  0  0  0  0  0  0  # atno 17394 bound_to 11000
  140.8997  133.7788  155.9666 LP  0  0  0  0  0  0  0  0  0  0  0  0  # atno 17395 bound_to 11000

$$$$
