AV-unprocessed.smi:1512|AV-procd|sdf|6100|dock7
  -GOLD-   22720 6233D 1   1.00000     0.00000
 Structure written by MMmdl.
 44 46  0  0  0  0  0  0  0  0  3 V2000
  151.5715  143.2708  156.5014 C   0  0  0  0  0  0  0  0  0  0  0  0
  150.7944  142.3345  157.4415 C   0  0  2  0  0  0  0  0  0  0  0  0
  149.3657  142.5180  157.1892 N   0  0  0  0  0  0  0  0  0  0  0  0
  148.3829  141.6889  157.5747 C   0  0  0  0  0  0  0  0  0  0  0  0
  148.5780  140.6596  158.2226 O   0  0  0  0  0  0  0  0  0  0  0  0
  146.9599  142.1113  157.1825 C   0  0  0  0  0  0  0  0  0  0  0  0
  146.0808  142.3403  158.3423 N   0  0  0  0  0  0  0  0  0  0  0  0
  146.4168  143.4090  159.1942 C   0  0  0  0  0  0  0  0  0  0  0  0
  145.6891  143.7051  160.2804 C   0  0  0  0  0  0  0  0  0  0  0  0
  144.5350  142.8901  160.5720 C   0  0  0  0  0  0  0  0  0  0  0  0
  144.1954  141.8537  159.7713 C   0  0  0  0  0  0  0  0  0  0  0  0
  143.0336  141.0716  160.1270 N   0  3  0  0  0  0  0  0  0  0  0  0
  142.3631  141.4126  161.0967 O   0  0  0  0  0  0  0  0  0  0  0  0
  142.7495  140.0976  159.4363 O   0  5  0  0  0  0  0  0  0  0  0  0
  144.9940  141.5381  158.5685 C   0  0  0  0  0  0  0  0  0  0  0  0
  144.7096  140.6179  157.7992 O   0  0  0  0  0  0  0  0  0  0  0  0
  151.1181  142.5971  158.9339 C   0  0  2  0  0  0  0  0  0  0  0  0
  150.5503  143.9383  159.4604 C   0  0  0  0  0  0  0  0  0  0  0  0
  151.7830  144.6369  160.0604 C   0  0  1  0  0  0  0  0  0  0  0  0
  152.2246  143.8979  161.3363 C   0  0  0  0  0  0  0  0  0  0  0  0
  152.8326  142.5980  160.7787 C   0  0  0  0  0  0  0  0  0  0  0  0
  152.6273  142.7501  159.2591 C   0  0  2  0  0  0  0  0  0  0  0  0
  152.8700  144.2436  159.0692 C   0  0  0  0  0  0  0  0  0  0  0  0
  152.6488  143.1440  156.6059 H   0  0  0  0  0  0  0  0  0  0  0  0
  151.3403  144.3173  156.7026 H   0  0  0  0  0  0  0  0  0  0  0  0
  151.3230  143.0708  155.4585 H   0  0  0  0  0  0  0  0  0  0  0  0
  151.0862  141.3119  157.1979 H   0  0  0  0  0  0  0  0  0  0  0  0
  149.1042  143.3427  156.6688 H   0  0  0  0  0  0  0  0  0  0  0  0
  147.0315  143.0119  156.5710 H   0  0  0  0  0  0  0  0  0  0  0  0
  146.5252  141.3559  156.5249 H   0  0  0  0  0  0  0  0  0  0  0  0
  147.3000  143.9639  158.9127 H   0  0  0  0  0  0  0  0  0  0  0  0
  145.9642  144.5274  160.9248 H   0  0  0  0  0  0  0  0  0  0  0  0
  143.9501  143.1139  161.4524 H   0  0  0  0  0  0  0  0  0  0  0  0
  150.7078  141.7706  159.5165 H   0  0  0  0  0  0  0  0  0  0  0  0
  150.1441  144.5468  158.6517 H   0  0  0  0  0  0  0  0  0  0  0  0
  149.7562  143.7931  160.1937 H   0  0  0  0  0  0  0  0  0  0  0  0
  151.6522  145.7104  160.1992 H   0  0  0  0  0  0  0  0  0  0  0  0
  152.9777  144.4717  161.8780 H   0  0  0  0  0  0  0  0  0  0  0  0
  151.3915  143.7116  162.0151 H   0  0  0  0  0  0  0  0  0  0  0  0
  153.8948  142.5396  161.0199 H   0  0  0  0  0  0  0  0  0  0  0  0
  152.3514  141.7052  161.1795 H   0  0  0  0  0  0  0  0  0  0  0  0
  153.2889  142.1053  158.6815 H   0  0  0  0  0  0  0  0  0  0  0  0
  152.6789  144.5910  158.0527 H   0  0  0  0  0  0  0  0  0  0  0  0
  153.8687  144.5624  159.3728 H   0  0  0  0  0  0  0  0  0  0  0  0
  1  2  1  0  0  0  0
  1 24  1  0  0  0  0
  1 25  1  0  0  0  0
  1 26  1  0  0  0  0
  2  3  1  0  0  0  0
  2 17  1  0  0  0  0
  2 27  1  0  0  0  0
  3  4  1  0  0  0  0
  3 28  1  0  0  0  0
  4  5  2  0  0  0  0
  4  6  1  0  0  0  0
  6  7  1  0  0  0  0
  6 29  1  0  0  0  0
  6 30  1  0  0  0  0
  7 15  1  0  0  0  0
  7  8  1  0  0  0  0
  8  9  2  0  0  0  0
  8 31  1  0  0  0  0
  9 10  1  0  0  0  0
  9 32  1  0  0  0  0
 10 11  2  0  0  0  0
 10 33  1  0  0  0  0
 11 12  1  0  0  0  0
 11 15  1  0  0  0  0
 12 13  2  0  0  0  0
 12 14  1  0  0  0  0
 15 16  2  0  0  0  0
 17 22  1  0  0  0  0
 17 18  1  0  0  0  0
 17 34  1  0  0  0  0
 18 19  1  0  0  0  0
 18 35  1  0  0  0  0
 18 36  1  0  0  0  0
 19 23  1  0  0  0  0
 19 20  1  0  0  0  0
 19 37  1  0  0  0  0
 20 21  1  0  0  0  0
 20 38  1  0  0  0  0
 20 39  1  0  0  0  0
 21 22  1  0  0  0  0
 21 40  1  0  0  0  0
 21 41  1  0  0  0  0
 22 23  1  0  0  0  0
 22 42  1  0  0  0  0
 23 43  1  0  0  0  0
 23 44  1  0  0  0  0
M  CHG  1  12   1
M  CHG  1  14  -1
M  END
> <s_m_source_file>
AV-unprocessed.smi

> <i_m_source_file_index>
1512

> <i_lp_mmshare_version>
43012

> <i_f3d_flags>
0

> <s_epik_input>
W0NIMl0xW0NIMl1bQ0BIXShbQ0gyXTIpW0NAQEhdKFtDSDJdW0NAQEhdMTIpW0NASF0oW0NIM10pW05IXUMoPU8pW0NIMl1uM1tjSF1bY0hdW2NIXWMoW04rXSg9TylbTy1dKWMzPU8=

> <s_epik_cmdline>
J2VwaWtfcHl0aG9uJywgJy1waCcsICc3LjAnLCAnLXRuJywgJzgnLCAnLW1hJywgJzIwMCcsICctbWV0YWxfYmluZGluZycsICctaW1hZScsICc8aW5maWxlLm1hZT4nLCAnLW9tYWUnLCAnPG91dGZpbGUubWFlPic=

> <r_lp_tautomer_probability>
1

> <r_epik_Ionization_Penalty>
2.17697e-08

> <r_epik_Ionization_Penalty_Charging>
1.42735e-10

> <r_epik_Ionization_Penalty_Neutral>
2.16269e-08

> <r_epik_State_Penalty>
-0

> <r_epik_Charging_Adjusted_Penalty>
1.42735e-10

> <i_epik_Tot_Q>
0

> <i_epik_Tot_abs_Q>
2

> <r_epik_Metal_State_Penalty>
-0

> <b_epik_Metal_Only>
0

> <s_lp_Force_Field>
OPLS_2005

> <r_lp_Energy>
64.3974

> <b_lp_Chiralities_Consistent>
1

> <s_lp_Variant>
AV-unprocessed.smi:1512-1

> <Gold.Version>
5.8.1

> <Gold.Id.Protein>
6NUR|6NUR_protein|mol2

> <Gold.PLP.Fitness>
41.3676

> <Gold.PLP.PLP>
-36.0284

> <Gold.PLP.part.hbond>
-2.9378

> <Gold.PLP.part.metal>
0.0000

> <Gold.PLP.part.buried>
-5.8654

> <Gold.PLP.part.nonpolar>
-26.8170

> <Gold.PLP.part.repulsive>
0.0243

> <Gold.PLP.ligand.clash>
0.0000

> <Gold.PLP.ligand.torsion>
0.3489

> <Gold.PLP.Chemscore.Hbond>
1.0000

> <Gold.PLP.Chemscore.CHOScore>
1.0000

> <Gold.PLP.Chemscore.Metal>
0.0000

> <Gold.Chemscore.Hbonds>
donor molecule, donor type, donor heavy atom, donor atom, acceptor molecule, acceptor atom, score
      L1  H     3    28       P1  8028  1.00
      L1  C     8    31       P1  8029  0.76

> <Gold.PLP.Chemscore.Internal.Correction>
0.0370

> <Gold.Rescore>
     Score         DG    S(hbond)    S(metal)    S(lipo)     H(rot)  DE(clash)    DE(int)     intcor
     13.48     -16.73       0.99        0.00     105.99       1.75       1.41       1.85       ----

> <Gold.Chemscore.Fitness>
13.4756

> <Gold.Chemscore.DG>
-16.7285

> <Gold.Chemscore.ZeroCoef>
-5.4800

> <Gold.Chemscore.Hbond>
0.9943

> <Gold.Chemscore.Metal>
0.0000

> <Gold.Chemscore.Lipo>
105.9916

> <Gold.Chemscore.Internal_Hbond>
0.0000

> <Gold.Chemscore.DEClash>
1.4058

> <Gold.Chemscore.DEInternal>
1.8471

> <Gold.Chemscore.Rot>
1.7474

> <Gold.Chemscore.Internal.Correction>
   9.000000E+99

> <Gold.Chemscore.Hbonds>
donor molecule, donor type, donor heavy atom, donor atom, acceptor molecule, acceptor atom, score
      L1  H     3    28       P1  8028  0.96

> <Gold.Chemscore.Hbond.Weighted>
-3.3208

> <Gold.Chemscore.Metal.Weighted>
-0.0000

> <Gold.Chemscore.Lipo.Weighted>
-12.4010

> <Gold.Chemscore.Internal_Hbond.Weighted>
0.0000

> <Gold.Chemscore.DEClash.Weighted>
1.4058

> <Gold.Chemscore.DEInternal.Weighted>
1.8471

> <Gold.Chemscore.Rot.Weighted>
4.4733

> <Gold.Chemscore.Internal.Correction.Weighted>
   9.000000E+99

> <Gold.Protein.RotatedTorsions>
[ 6907 6896 6895 6894 ] final   58.05 input  -60.11 | X-H torsion
[ 7974 7965 7964 7962 ] final  -46.03 input  175.53 | X-H torsion
[ 8008 7997 7996 7995 ] final -134.01 input   59.86 | X-H torsion
[ 10167 10162 10161 10158 ] final   49.29 input  -65.29 | X-H torsion
[ 10718 10713 10712 10709 ] final   -9.17 input   66.30 | X-H torsion
[ 10763 10752 10751 10750 ] final  -46.80 input  -60.55 | X-H torsion
[ 11005 11000 10999 10996 ] final   72.61 input  -57.11 | X-H torsion

> <Gold.Protein.ActiveResidues>
 VAL166  LYS551  ARG553  GLY616  TRP617  ASP618  TYR619  PRO620  LYS621  CYS622 
 ASP623  PHE694  ASN695  SER759  ASP760  ASP761  ALA762  ILE779  LEU786  VAL792 
 PHE793  MET794  SER795  GLU796  ALA797  LYS798  CYS799  TRP800  GLU811  SER814 

> <Gold.Protein.RotatedAtoms>
  152.3788  134.6622  160.0150 H   0  0  0  0  0  0  0  0  0  0  0  0  # atno 6907 bound_to 6896
  151.6892  133.3305  159.3246 H   0  0  0  0  0  0  0  0  0  0  0  0  # atno 6908 bound_to 6896
  150.7731  134.6649  159.6404 H   0  0  0  0  0  0  0  0  0  0  0  0  # atno 6909 bound_to 6896
  145.9760  140.7333  142.9387 H   0  0  0  0  0  0  0  0  0  0  0  0  # atno 7974 bound_to 7965
  155.3549  140.0479  157.3046 H   0  0  0  0  0  0  0  0  0  0  0  0  # atno 8008 bound_to 7997
  154.5208  140.2224  155.8944 H   0  0  0  0  0  0  0  0  0  0  0  0  # atno 8009 bound_to 7997
  156.1687  140.3100  155.8940 H   0  0  0  0  0  0  0  0  0  0  0  0  # atno 8010 bound_to 7997
  140.2844  144.3119  150.6256 H   0  0  0  0  0  0  0  0  0  0  0  0  # atno 10167 bound_to 10162
  156.6919  130.5067  149.5941 H   0  0  0  0  0  0  0  0  0  0  0  0  # atno 10718 bound_to 10713
  154.0509  135.6631  153.4800 H   0  0  0  0  0  0  0  0  0  0  0  0  # atno 10763 bound_to 10752
  153.0464  135.5112  154.7752 H   0  0  0  0  0  0  0  0  0  0  0  0  # atno 10764 bound_to 10752
  154.6758  135.3037  154.9647 H   0  0  0  0  0  0  0  0  0  0  0  0  # atno 10765 bound_to 10752
  139.9482  134.7275  156.0927 H   0  0  0  0  0  0  0  0  0  0  0  0  # atno 11005 bound_to 11000
  144.6849  140.2828  143.7289 LP  0  0  0  0  0  0  0  0  0  0  0  0  # atno 17320 bound_to 7965
  145.7838  139.1901  143.2142 LP  0  0  0  0  0  0  0  0  0  0  0  0  # atno 17321 bound_to 7965
  140.5785  143.2174  151.7472 LP  0  0  0  0  0  0  0  0  0  0  0  0  # atno 17342 bound_to 10162
  139.4954  144.4115  152.0075 LP  0  0  0  0  0  0  0  0  0  0  0  0  # atno 17343 bound_to 10162
  156.1792  130.6487  151.0931 LP  0  0  0  0  0  0  0  0  0  0  0  0  # atno 17370 bound_to 10713
  157.7006  131.0777  150.6833 LP  0  0  0  0  0  0  0  0  0  0  0  0  # atno 17371 bound_to 10713
  141.1138  133.6634  156.3044 LP  0  0  0  0  0  0  0  0  0  0  0  0  # atno 17394 bound_to 11000
  140.5783  134.5771  157.5473 LP  0  0  0  0  0  0  0  0  0  0  0  0  # atno 17395 bound_to 11000

$$$$
