AV-unprocessed.smi:1662|AV-procd|sdf|6662|dock10
  -GOLD-   22720 7373D 1   1.00000     0.00000
 Structure written by MMmdl.
 47 48  0  0  0  0  0  0  0  0  1 V2000
  152.2572  144.2616  161.2305 C   0  0  0  0  0  0  0  0  0  0  0  0
  152.3800  143.1146  160.2640 C   0  0  0  0  0  0  0  0  0  0  0  0
  153.1570  142.1424  160.6130 N   0  0  0  0  0  0  0  0  0  0  0  0
  153.3448  141.0436  159.7970 N   0  0  0  0  0  0  0  0  0  0  0  0
  154.2804  140.0464  160.3370 C   0  0  0  0  0  0  0  0  0  0  0  0
  155.2089  140.6221  161.4154 C   0  0  0  0  0  0  0  0  0  0  0  0
  156.4282  140.6493  161.2424 O   0  0  0  0  0  0  0  0  0  0  0  0
  154.6093  141.0943  162.5185 N   0  0  0  0  0  0  0  0  0  0  0  0
  155.2926  141.6557  163.6822 C   0  0  1  0  0  0  0  0  0  0  0  0
  154.4783  142.8470  164.2208 C   0  0  0  0  0  0  0  0  0  0  0  0
  155.1302  143.4467  165.4699 C   0  0  0  0  0  0  0  0  0  0  0  0
  155.3047  142.3773  166.5538 C   0  0  0  0  0  0  0  0  0  0  0  0
  156.1359  141.1796  166.0511 C   0  0  1  0  0  0  0  0  0  0  0  0
  156.3060  140.1574  167.1902 C   0  0  0  0  0  0  0  0  0  0  0  0
  155.5123  140.5649  164.7655 C   0  0  2  0  0  0  0  0  0  0  0  0
  156.3609  139.3979  164.2132 C   0  0  0  0  0  0  0  0  0  0  0  0
  152.7413  140.8625  158.5867 C   0  0  0  0  0  0  0  0  0  0  0  0
  152.9282  139.8586  157.8968 O   0  0  0  0  0  0  0  0  0  0  0  0
  151.8638  141.9685  158.1973 C   0  0  0  0  0  0  0  0  0  0  0  0
  151.2194  141.8236  156.9319 C   0  0  0  0  0  0  0  0  0  0  0  0
  150.7138  141.6987  155.8981 N   0  0  0  0  0  0  0  0  0  0  0  0
  151.6789  143.0571  158.9853 C   0  0  0  0  0  0  0  0  0  0  0  0
  150.7791  144.2317  158.6268 C   0  0  0  0  0  0  0  0  0  0  0  0
  151.2143  144.4363  161.4961 H   0  0  0  0  0  0  0  0  0  0  0  0
  152.6534  145.1780  160.7931 H   0  0  0  0  0  0  0  0  0  0  0  0
  152.8044  144.0747  162.1559 H   0  0  0  0  0  0  0  0  0  0  0  0
  153.7341  139.2094  160.7755 H   0  0  0  0  0  0  0  0  0  0  0  0
  154.8720  139.6172  159.5258 H   0  0  0  0  0  0  0  0  0  0  0  0
  153.6022  141.0387  162.5688 H   0  0  0  0  0  0  0  0  0  0  0  0
  156.2755  142.0221  163.3787 H   0  0  0  0  0  0  0  0  0  0  0  0
  154.3866  143.6175  163.4541 H   0  0  0  0  0  0  0  0  0  0  0  0
  153.4631  142.5261  164.4594 H   0  0  0  0  0  0  0  0  0  0  0  0
  156.1000  143.8738  165.2118 H   0  0  0  0  0  0  0  0  0  0  0  0
  154.5205  144.2665  165.8506 H   0  0  0  0  0  0  0  0  0  0  0  0
  155.7842  142.8252  167.4251 H   0  0  0  0  0  0  0  0  0  0  0  0
  154.3241  142.0330  166.8853 H   0  0  0  0  0  0  0  0  0  0  0  0
  157.1292  141.5535  165.7977 H   0  0  0  0  0  0  0  0  0  0  0  0
  155.3598  139.6740  167.4347 H   0  0  0  0  0  0  0  0  0  0  0  0
  156.6746  140.6399  168.0959 H   0  0  0  0  0  0  0  0  0  0  0  0
  157.0261  139.3803  166.9361 H   0  0  0  0  0  0  0  0  0  0  0  0
  154.5343  140.1605  165.0322 H   0  0  0  0  0  0  0  0  0  0  0  0
  157.3757  139.7231  163.9829 H   0  0  0  0  0  0  0  0  0  0  0  0
  155.9355  138.9784  163.3016 H   0  0  0  0  0  0  0  0  0  0  0  0
  156.4267  138.5740  164.9226 H   0  0  0  0  0  0  0  0  0  0  0  0
  150.3541  144.1366  157.6279 H   0  0  0  0  0  0  0  0  0  0  0  0
  151.3384  145.1674  158.6539 H   0  0  0  0  0  0  0  0  0  0  0  0
  149.9504  144.3054  159.3319 H   0  0  0  0  0  0  0  0  0  0  0  0
  1  2  1  0  0  0  0
  1 24  1  0  0  0  0
  1 25  1  0  0  0  0
  1 26  1  0  0  0  0
  2 22  1  0  0  0  0
  2  3  2  0  0  0  0
  3  4  1  0  0  0  0
  4  5  1  0  0  0  0
  4 17  1  0  0  0  0
  5  6  1  0  0  0  0
  5 27  1  0  0  0  0
  5 28  1  0  0  0  0
  6  7  2  0  0  0  0
  6  8  1  0  0  0  0
  8  9  1  0  0  0  0
  8 29  1  0  0  0  0
  9 15  1  0  0  0  0
  9 10  1  0  0  0  0
  9 30  1  0  0  0  0
 10 11  1  0  0  0  0
 10 31  1  0  0  0  0
 10 32  1  0  0  0  0
 11 12  1  0  0  0  0
 11 33  1  0  0  0  0
 11 34  1  0  0  0  0
 12 13  1  0  0  0  0
 12 35  1  0  0  0  0
 12 36  1  0  0  0  0
 13 14  1  0  0  0  0
 13 15  1  0  0  0  0
 13 37  1  0  0  0  0
 14 38  1  0  0  0  0
 14 39  1  0  0  0  0
 14 40  1  0  0  0  0
 15 16  1  0  0  0  0
 15 41  1  0  0  0  0
 16 42  1  0  0  0  0
 16 43  1  0  0  0  0
 16 44  1  0  0  0  0
 17 18  2  0  0  0  0
 17 19  1  0  0  0  0
 19 20  1  0  0  0  0
 19 22  2  0  0  0  0
 20 21  3  0  0  0  0
 22 23  1  0  0  0  0
 23 45  1  0  0  0  0
 23 46  1  0  0  0  0
 23 47  1  0  0  0  0
M  END
> <s_m_source_file>
AV-unprocessed.smi

> <i_m_source_file_index>
1662

> <i_lp_mmshare_version>
43012

> <i_f3d_flags>
0

> <s_epik_input>
TiNDYyhjMVtDSDNdKWMoPU8pbihuYzFbQ0gzXSlbQ0gyXUMoPU8pW05IXVtDQEBIXTJbQ0gyXVtDSDJdW0NIMl1bQ0BASF0oW0NIM10pW0NASF0yW0NIM10=

> <s_epik_cmdline>
J2VwaWtfcHl0aG9uJywgJy1waCcsICc3LjAnLCAnLXRuJywgJzgnLCAnLW1hJywgJzIwMCcsICctbWV0YWxfYmluZGluZycsICctaW1hZScsICc8aW5maWxlLm1hZT4nLCAnLW9tYWUnLCAnPG91dGZpbGUubWFlPic=

> <r_lp_tautomer_probability>
1

> <r_epik_Ionization_Penalty>
1.90709e-08

> <r_epik_Ionization_Penalty_Charging>
2.37982e-11

> <r_epik_Ionization_Penalty_Neutral>
1.90471e-08

> <r_epik_State_Penalty>
-0

> <r_epik_Charging_Adjusted_Penalty>
2.37982e-11

> <i_epik_Tot_Q>
0

> <i_epik_Tot_abs_Q>
0

> <r_epik_Metal_State_Penalty>
-0

> <b_epik_Metal_Only>
0

> <s_lp_Force_Field>
OPLS_2005

> <r_lp_Energy>
26.9998

> <b_lp_Chiralities_Consistent>
1

> <s_lp_Variant>
AV-unprocessed.smi:1662-6

> <Gold.Version>
5.8.1

> <Gold.Id.Protein>
6NUR|6NUR_protein|mol2

> <Gold.PLP.Fitness>
45.2370

> <Gold.PLP.PLP>
-43.4694

> <Gold.PLP.part.hbond>
-2.9157

> <Gold.PLP.part.metal>
0.0000

> <Gold.PLP.part.buried>
-0.5899

> <Gold.PLP.part.nonpolar>
-38.3403

> <Gold.PLP.part.repulsive>
0.0758

> <Gold.PLP.ligand.clash>
0.0000

> <Gold.PLP.ligand.torsion>
0.6209

> <Gold.PLP.Chemscore.Hbond>
1.0000

> <Gold.PLP.Chemscore.CHOScore>
0.0000

> <Gold.PLP.Chemscore.Metal>
0.0000

> <Gold.Chemscore.Hbonds>
donor molecule, donor type, donor heavy atom, donor atom, acceptor molecule, acceptor atom, score
      P1  H  7997  8010       L1    18  1.00

> <Gold.PLP.Chemscore.Internal.Correction>
0.0094

> <Gold.Rescore>
     Score         DG    S(hbond)    S(metal)    S(lipo)     H(rot)  DE(clash)    DE(int)     intcor
     15.52     -17.73       0.91        0.00     110.49       1.45       1.54       0.66       ----

> <Gold.Chemscore.Fitness>
15.5238

> <Gold.Chemscore.DG>
-17.7285

> <Gold.Chemscore.ZeroCoef>
-5.4800

> <Gold.Chemscore.Hbond>
0.9085

> <Gold.Chemscore.Metal>
0.0000

> <Gold.Chemscore.Lipo>
110.4886

> <Gold.Chemscore.Internal_Hbond>
0.0000

> <Gold.Chemscore.DEClash>
1.5446

> <Gold.Chemscore.DEInternal>
0.6601

> <Gold.Chemscore.Rot>
1.4504

> <Gold.Chemscore.Internal.Correction>
   9.000000E+99

> <Gold.Chemscore.Hbonds>
donor molecule, donor type, donor heavy atom, donor atom, acceptor molecule, acceptor atom, score
      P1  H  7997  8010       L1    18  0.78

> <Gold.Chemscore.Hbond.Weighted>
-3.0342

> <Gold.Chemscore.Metal.Weighted>
-0.0000

> <Gold.Chemscore.Lipo.Weighted>
-12.9272

> <Gold.Chemscore.Internal_Hbond.Weighted>
0.0000

> <Gold.Chemscore.DEClash.Weighted>
1.5446

> <Gold.Chemscore.DEInternal.Weighted>
0.6601

> <Gold.Chemscore.Rot.Weighted>
3.7129

> <Gold.Chemscore.Internal.Correction.Weighted>
   9.000000E+99

> <Gold.Protein.RotatedTorsions>
[ 6907 6896 6895 6894 ] final  151.00 input  -60.11 | X-H torsion
[ 7974 7965 7964 7962 ] final -129.08 input  175.53 | X-H torsion
[ 8008 7997 7996 7995 ] final   57.39 input   59.86 | X-H torsion
[ 10167 10162 10161 10158 ] final -155.52 input  -65.29 | X-H torsion
[ 10718 10713 10712 10709 ] final -167.00 input   66.30 | X-H torsion
[ 10763 10752 10751 10750 ] final -139.29 input  -60.55 | X-H torsion
[ 11005 11000 10999 10996 ] final  -49.62 input  -57.11 | X-H torsion

> <Gold.Protein.ActiveResidues>
 VAL166  LYS551  ARG553  GLY616  TRP617  ASP618  TYR619  PRO620  LYS621  CYS622 
 ASP623  PHE694  ASN695  SER759  ASP760  ASP761  ALA762  ILE779  LEU786  VAL792 
 PHE793  MET794  SER795  GLU796  ALA797  LYS798  CYS799  TRP800  GLU811  SER814 

> <Gold.Protein.RotatedAtoms>
  152.1066  133.4278  159.4611 H   0  0  0  0  0  0  0  0  0  0  0  0  # atno 6907 bound_to 6896
  150.6866  134.2697  159.4592 H   0  0  0  0  0  0  0  0  0  0  0  0  # atno 6908 bound_to 6896
  152.0562  134.9622  160.0625 H   0  0  0  0  0  0  0  0  0  0  0  0  # atno 6909 bound_to 6896
  144.9607  140.7443  143.4731 H   0  0  0  0  0  0  0  0  0  0  0  0  # atno 7974 bound_to 7965
  155.5331  140.3482  155.4430 H   0  0  0  0  0  0  0  0  0  0  0  0  # atno 8008 bound_to 7997
  156.0704  140.1362  156.9861 H   0  0  0  0  0  0  0  0  0  0  0  0  # atno 8009 bound_to 7997
  154.4525  140.0967  156.6636 H   0  0  0  0  0  0  0  0  0  0  0  0  # atno 8010 bound_to 7997
  139.6925  143.9397  152.2391 H   0  0  0  0  0  0  0  0  0  0  0  0  # atno 10167 bound_to 10162
  156.6761  130.9103  151.3050 H   0  0  0  0  0  0  0  0  0  0  0  0  # atno 10718 bound_to 10713
  154.8613  135.3587  154.5522 H   0  0  0  0  0  0  0  0  0  0  0  0  # atno 10763 bound_to 10752
  153.6140  135.7008  153.5341 H   0  0  0  0  0  0  0  0  0  0  0  0  # atno 10764 bound_to 10752
  153.3185  135.4158  155.1357 H   0  0  0  0  0  0  0  0  0  0  0  0  # atno 10765 bound_to 10752
  141.0769  133.6663  156.3612 H   0  0  0  0  0  0  0  0  0  0  0  0  # atno 11005 bound_to 11000
  145.2705  139.1956  143.4844 LP  0  0  0  0  0  0  0  0  0  0  0  0  # atno 17320 bound_to 7965
  146.3352  140.2650  142.8603 LP  0  0  0  0  0  0  0  0  0  0  0  0  # atno 17321 bound_to 7965
  139.9217  144.6795  150.8454 LP  0  0  0  0  0  0  0  0  0  0  0  0  # atno 17342 bound_to 10162
  140.7687  143.3370  151.2288 LP  0  0  0  0  0  0  0  0  0  0  0  0  # atno 17343 bound_to 10162
  157.7060  130.9386  150.0933 LP  0  0  0  0  0  0  0  0  0  0  0  0  # atno 17370 bound_to 10713
  156.1903  130.3654  149.8919 LP  0  0  0  0  0  0  0  0  0  0  0  0  # atno 17371 bound_to 10713
  140.5553  134.5988  157.5419 LP  0  0  0  0  0  0  0  0  0  0  0  0  # atno 17394 bound_to 11000
  139.9582  134.7498  156.0295 LP  0  0  0  0  0  0  0  0  0  0  0  0  # atno 17395 bound_to 11000

$$$$
