AV-unprocessed.smi:2356|AV-procd|sdf|9397|dock8
  -GOLD-   2272013 33D 1   1.00000     0.00000
 Structure written by MMmdl.
 54 57  0  0  0  0  0  0  0  0  2 V2000
  149.0065  141.3434  154.0766 C   0  0  0  0  0  0  0  0  0  0  0  0
  149.7020  141.1884  155.4175 C   0  0  0  0  0  0  0  0  0  0  0  0
  150.0128  142.3176  156.0919 N   0  3  0  0  0  0  0  0  0  0  0  0
  150.6251  142.3354  157.3001 C   0  0  0  0  0  0  0  0  0  0  0  0
  150.8951  143.5805  157.9038 N   0  0  0  0  0  0  0  0  0  0  0  0
  150.1712  143.9557  159.1072 C   0  0  0  0  0  0  0  0  0  0  0  0
  150.8551  145.2258  159.6201 C   0  0  0  0  0  0  0  0  0  0  0  0
  152.2267  145.2605  158.9324 C   0  0  0  0  0  0  0  0  0  0  0  0
  152.2745  144.0125  158.0460 C   0  0  0  0  0  0  0  0  0  0  0  0
  150.9688  141.0996  157.8963 C   0  0  0  0  0  0  0  0  0  0  0  0
  150.6668  139.8931  157.2336 C   0  0  0  0  0  0  0  0  0  0  0  0
  150.0310  139.9273  155.9679 C   0  0  0  0  0  0  0  0  0  0  0  0
  149.6690  138.7613  155.2391 N   0  0  0  0  0  0  0  0  0  0  0  0
  149.4505  137.5093  155.6857 C   0  0  0  0  0  0  0  0  0  0  0  0
  149.5485  137.1570  156.8589 O   0  0  0  0  0  0  0  0  0  0  0  0
  149.1253  136.6323  154.7185 N   0  0  0  0  0  0  0  0  0  0  0  0
  148.8259  135.2046  154.8536 C   0  0  2  0  0  0  0  0  0  0  0  0
  147.6799  135.0062  155.8543 C   0  0  0  0  0  0  0  0  0  0  0  0
  147.4243  133.5105  156.0945 C   0  0  0  0  0  0  0  0  0  0  0  0
  148.6152  132.8682  156.5447 O   0  0  0  0  0  0  0  0  0  0  0  0
  149.7297  132.9545  155.6550 C   0  0  1  0  0  0  0  0  0  0  0  0
  149.5273  132.1065  154.4064 C   0  0  0  0  0  0  0  0  0  0  0  0
  148.4843  132.4864  153.3821 C   0  0  0  0  0  0  0  0  0  0  0  0
  148.2879  131.2589  154.2396 C   0  0  0  0  0  0  0  0  0  0  0  0
  150.0613  134.4273  155.3451 C   0  0  0  0  0  0  0  0  0  0  0  0
  148.0507  140.8187  154.0797 H   0  0  0  0  0  0  0  0  0  0  0  0
  149.6234  140.9291  153.2788 H   0  0  0  0  0  0  0  0  0  0  0  0
  148.8148  142.3917  153.8454 H   0  0  0  0  0  0  0  0  0  0  0  0
  149.1145  144.1294  158.9008 H   0  0  0  0  0  0  0  0  0  0  0  0
  150.2497  143.1556  159.8447 H   0  0  0  0  0  0  0  0  0  0  0  0
  150.2766  146.1066  159.3387 H   0  0  0  0  0  0  0  0  0  0  0  0
  150.9397  145.2215  160.7073 H   0  0  0  0  0  0  0  0  0  0  0  0
  152.3123  146.1609  158.3228 H   0  0  0  0  0  0  0  0  0  0  0  0
  153.0470  145.2701  159.6506 H   0  0  0  0  0  0  0  0  0  0  0  0
  152.8567  143.2238  158.5251 H   0  0  0  0  0  0  0  0  0  0  0  0
  152.7268  144.2357  157.0793 H   0  0  0  0  0  0  0  0  0  0  0  0
  151.4587  141.0577  158.8577 H   0  0  0  0  0  0  0  0  0  0  0  0
  150.9185  138.9647  157.7215 H   0  0  0  0  0  0  0  0  0  0  0  0
  149.6272  138.8776  154.2371 H   0  0  0  0  0  0  0  0  0  0  0  0
  149.0804  136.9993  153.7786 H   0  0  0  0  0  0  0  0  0  0  0  0
  148.4989  134.8088  153.8907 H   0  0  0  0  0  0  0  0  0  0  0  0
  147.9256  135.4847  156.8035 H   0  0  0  0  0  0  0  0  0  0  0  0
  146.7702  135.4843  155.4890 H   0  0  0  0  0  0  0  0  0  0  0  0
  146.6550  133.3839  156.8562 H   0  0  0  0  0  0  0  0  0  0  0  0
  147.0457  133.0307  155.1919 H   0  0  0  0  0  0  0  0  0  0  0  0
  150.5781  132.5321  156.1949 H   0  0  0  0  0  0  0  0  0  0  0  0
  150.4403  131.6739  154.0035 H   0  0  0  0  0  0  0  0  0  0  0  0
  147.8582  133.3513  153.5924 H   0  0  0  0  0  0  0  0  0  0  0  0
  148.7329  132.3351  152.3337 H   0  0  0  0  0  0  0  0  0  0  0  0
  148.4038  130.2884  153.7614 H   0  0  0  0  0  0  0  0  0  0  0  0
  147.5309  131.3067  155.0199 H   0  0  0  0  0  0  0  0  0  0  0  0
  150.8710  134.4808  154.6167 H   0  0  0  0  0  0  0  0  0  0  0  0
  150.4395  134.8973  156.2540 H   0  0  0  0  0  0  0  0  0  0  0  0
  149.7680  143.2114  155.6657 H   0  0  0  0  0  0  0  0  0  0  0  0
  1  2  1  0  0  0  0
  1 26  1  0  0  0  0
  1 27  1  0  0  0  0
  1 28  1  0  0  0  0
  2 12  1  0  0  0  0
  2  3  2  0  0  0  0
  3  4  1  0  0  0  0
  3 54  1  0  0  0  0
  4  5  1  0  0  0  0
  4 10  2  0  0  0  0
  5  9  1  0  0  0  0
  5  6  1  0  0  0  0
  6  7  1  0  0  0  0
  6 29  1  0  0  0  0
  6 30  1  0  0  0  0
  7  8  1  0  0  0  0
  7 31  1  0  0  0  0
  7 32  1  0  0  0  0
  8  9  1  0  0  0  0
  8 33  1  0  0  0  0
  8 34  1  0  0  0  0
  9 35  1  0  0  0  0
  9 36  1  0  0  0  0
 10 11  1  0  0  0  0
 10 37  1  0  0  0  0
 11 12  2  0  0  0  0
 11 38  1  0  0  0  0
 12 13  1  0  0  0  0
 13 14  1  0  0  0  0
 13 39  1  0  0  0  0
 14 15  2  0  0  0  0
 14 16  1  0  0  0  0
 16 17  1  0  0  0  0
 16 40  1  0  0  0  0
 17 25  1  0  0  0  0
 17 18  1  0  0  0  0
 17 41  1  0  0  0  0
 18 19  1  0  0  0  0
 18 42  1  0  0  0  0
 18 43  1  0  0  0  0
 19 20  1  0  0  0  0
 19 44  1  0  0  0  0
 19 45  1  0  0  0  0
 20 21  1  0  0  0  0
 21 22  1  0  0  0  0
 21 25  1  0  0  0  0
 21 46  1  0  0  0  0
 22 24  1  0  0  0  0
 22 23  1  0  0  0  0
 22 47  1  0  0  0  0
 23 24  1  0  0  0  0
 23 48  1  0  0  0  0
 23 49  1  0  0  0  0
 24 50  1  0  0  0  0
 24 51  1  0  0  0  0
 25 52  1  0  0  0  0
 25 53  1  0  0  0  0
M  CHG  1   3   1
M  END
> <s_m_source_file>
AV-unprocessed.smi

> <i_m_source_file_index>
2356

> <i_lp_mmshare_version>
43012

> <i_f3d_flags>
0

> <s_epik_input>
W0NIMl0xW0NIMl1bQ0gyXVtDSDJdTjFjKG5jMltDSDNdKVtjSF1bY0hdYzJbTkhdQyg9TylbTkhdW0NAQEhdM1tDSDJdW0NIMl1PW0NASF0oW0NIMl0zKVtDSF00W0NIMl1bQ0gyXTQ=

> <s_epik_cmdline>
J2VwaWtfcHl0aG9uJywgJy1waCcsICc3LjAnLCAnLXRuJywgJzgnLCAnLW1hJywgJzIwMCcsICctbWV0YWxfYmluZGluZycsICctaW1hZScsICc8aW5maWxlLm1hZT4nLCAnLW9tYWUnLCAnPG91dGZpbGUubWFlPic=

> <r_lp_tautomer_probability>
0.999994

> <r_epik_Ionization_Penalty>
0.534681

> <r_epik_Ionization_Penalty_Charging>
0.534661

> <r_epik_Ionization_Penalty_Neutral>
1.99132e-05

> <r_epik_State_Penalty>
0.543738

> <r_epik_Charging_Adjusted_Penalty>
1.0784

> <i_epik_Tot_Q>
1

> <i_epik_Tot_abs_Q>
1

> <r_epik_Metal_State_Penalty>
0.74699

> <b_epik_Metal_Only>
0

> <s_lp_Force_Field>
OPLS_2005

> <r_lp_Energy>
60.0457

> <b_lp_Chiralities_Consistent>
1

> <s_lp_Variant>
AV-unprocessed.smi:2356-5

> <Gold.Version>
5.8.1

> <Gold.Id.Protein>
6NUR|6NUR_protein|mol2

> <Gold.PLP.Fitness>
49.4660

> <Gold.PLP.PLP>
-41.9750

> <Gold.PLP.part.hbond>
-2.0000

> <Gold.PLP.part.metal>
0.0000

> <Gold.PLP.part.buried>
-4.7588

> <Gold.PLP.part.nonpolar>
-35.4083

> <Gold.PLP.part.repulsive>
0.3072

> <Gold.PLP.ligand.clash>
0.0000

> <Gold.PLP.ligand.torsion>
1.0200

> <Gold.PLP.Chemscore.Hbond>
2.7296

> <Gold.PLP.Chemscore.CHOScore>
0.0000

> <Gold.PLP.Chemscore.Metal>
0.0000

> <Gold.Chemscore.Hbonds>
donor molecule, donor type, donor heavy atom, donor atom, acceptor molecule, acceptor atom, score
      L1  H     3    54       P1  8028  2.00
      L1  H    16    40       P1  7948  0.69

> <Gold.PLP.Chemscore.Internal.Correction>
1.3423

> <Gold.Rescore>
     Score         DG    S(hbond)    S(metal)    S(lipo)     H(rot)  DE(clash)    DE(int)     intcor
     16.75     -20.59       1.76        0.00     107.53       1.31       0.17       3.66       ----

> <Gold.Chemscore.Fitness>
16.7544

> <Gold.Chemscore.DG>
-20.5891

> <Gold.Chemscore.ZeroCoef>
-5.4800

> <Gold.Chemscore.Hbond>
1.7578

> <Gold.Chemscore.Metal>
0.0000

> <Gold.Chemscore.Lipo>
107.5316

> <Gold.Chemscore.Internal_Hbond>
0.0000

> <Gold.Chemscore.DEClash>
0.1711

> <Gold.Chemscore.DEInternal>
3.6635

> <Gold.Chemscore.Rot>
1.3060

> <Gold.Chemscore.Internal.Correction>
   9.000000E+99

> <Gold.Chemscore.Hbonds>
donor molecule, donor type, donor heavy atom, donor atom, acceptor molecule, acceptor atom, score
      L1  H     3    54       P1  8028  0.96
      L1  H    16    40       P1  7948  0.66

> <Gold.Chemscore.Hbond.Weighted>
-5.8711

> <Gold.Chemscore.Metal.Weighted>
-0.0000

> <Gold.Chemscore.Lipo.Weighted>
-12.5812

> <Gold.Chemscore.Internal_Hbond.Weighted>
0.0000

> <Gold.Chemscore.DEClash.Weighted>
0.1711

> <Gold.Chemscore.DEInternal.Weighted>
3.6635

> <Gold.Chemscore.Rot.Weighted>
3.3433

> <Gold.Chemscore.Internal.Correction.Weighted>
   9.000000E+99

> <Gold.Protein.RotatedTorsions>
[ 6907 6896 6895 6894 ] final  139.55 input  -60.11 | X-H torsion
[ 7974 7965 7964 7962 ] final -115.19 input  175.53 | X-H torsion
[ 8008 7997 7996 7995 ] final   -4.89 input   59.86 | X-H torsion
[ 10167 10162 10161 10158 ] final -159.38 input  -65.29 | X-H torsion
[ 10718 10713 10712 10709 ] final  134.77 input   66.30 | X-H torsion
[ 10763 10752 10751 10750 ] final    9.41 input  -60.55 | X-H torsion
[ 11005 11000 10999 10996 ] final -158.62 input  -57.11 | X-H torsion

> <Gold.Protein.ActiveResidues>
 VAL166  LYS551  ARG553  GLY616  TRP617  ASP618  TYR619  PRO620  LYS621  CYS622 
 ASP623  PHE694  ASN695  SER759  ASP760  ASP761  ALA762  ILE779  LEU786  VAL792 
 PHE793  MET794  SER795  GLU796  ALA797  LYS798  CYS799  TRP800  GLU811  SER814 

> <Gold.Protein.RotatedAtoms>
  152.2535  133.5235  159.5339 H   0  0  0  0  0  0  0  0  0  0  0  0  # atno 6907 bound_to 6896
  150.7101  134.0927  159.3946 H   0  0  0  0  0  0  0  0  0  0  0  0  # atno 6908 bound_to 6896
  151.8846  135.0440  160.0543 H   0  0  0  0  0  0  0  0  0  0  0  0  # atno 6909 bound_to 6896
  145.1113  140.8613  143.3868 H   0  0  0  0  0  0  0  0  0  0  0  0  # atno 7974 bound_to 7965
  154.6096  140.2472  155.7686 H   0  0  0  0  0  0  0  0  0  0  0  0  # atno 8008 bound_to 7997
  156.2362  140.2949  156.0270 H   0  0  0  0  0  0  0  0  0  0  0  0  # atno 8009 bound_to 7997
  155.2074  140.0396  157.2918 H   0  0  0  0  0  0  0  0  0  0  0  0  # atno 8010 bound_to 7997
  139.6620  143.9896  152.2231 H   0  0  0  0  0  0  0  0  0  0  0  0  # atno 10167 bound_to 10162
  157.4639  131.1075  150.9886 H   0  0  0  0  0  0  0  0  0  0  0  0  # atno 10718 bound_to 10713
  153.2143  135.6873  153.8076 H   0  0  0  0  0  0  0  0  0  0  0  0  # atno 10763 bound_to 10752
  153.7298  135.3254  155.3284 H   0  0  0  0  0  0  0  0  0  0  0  0  # atno 10764 bound_to 10752
  154.8238  135.4633  154.0964 H   0  0  0  0  0  0  0  0  0  0  0  0  # atno 10765 bound_to 10752
  140.6516  134.4444  157.5235 H   0  0  0  0  0  0  0  0  0  0  0  0  # atno 11005 bound_to 11000
  145.0844  139.2936  143.5767 LP  0  0  0  0  0  0  0  0  0  0  0  0  # atno 17320 bound_to 7965
  146.3526  140.0361  142.8646 LP  0  0  0  0  0  0  0  0  0  0  0  0  # atno 17321 bound_to 7965
  139.9638  144.6540  150.8054 LP  0  0  0  0  0  0  0  0  0  0  0  0  # atno 17342 bound_to 10162
  140.7584  143.3106  151.2855 LP  0  0  0  0  0  0  0  0  0  0  0  0  # atno 17343 bound_to 10162
  157.0674  130.5850  149.5396 LP  0  0  0  0  0  0  0  0  0  0  0  0  # atno 17370 bound_to 10713
  156.0041  130.5125  150.7768 LP  0  0  0  0  0  0  0  0  0  0  0  0  # atno 17371 bound_to 10713
  139.9044  134.8483  156.1766 LP  0  0  0  0  0  0  0  0  0  0  0  0  # atno 17394 bound_to 11000
  141.0532  133.6878  156.1811 LP  0  0  0  0  0  0  0  0  0  0  0  0  # atno 17395 bound_to 11000

$$$$
