AV-unprocessed.smi:1019|AV-procd|sdf|4451|dock8
  -GOLD-   22720 2423D 1   1.00000     0.00000
 Structure written by MMmdl.
 43 45  0  0  0  0  0  0  0  0  1 V2000
  151.0075  140.3845  155.7341 C   0  0  0  0  0  0  0  0  0  0  0  0
  150.0694  141.3434  156.3176 N   0  0  0  0  0  0  0  0  0  0  0  0
  150.0497  141.2334  157.7772 C   0  0  0  0  0  0  0  0  0  0  0  0
  151.2281  141.9033  158.4644 C   0  0  0  0  0  0  0  0  0  0  0  0
  152.0190  141.1796  159.3820 C   0  0  0  0  0  0  0  0  0  0  0  0
  153.1113  141.8006  160.0188 C   0  0  0  0  0  0  0  0  0  0  0  0
  153.4181  143.1464  159.7386 C   0  0  0  0  0  0  0  0  0  0  0  0
  152.6324  143.8710  158.8216 C   0  0  0  0  0  0  0  0  0  0  0  0
  151.5399  143.2508  158.1848 C   0  0  0  0  0  0  0  0  0  0  0  0
  148.7171  141.1769  155.7776 C   0  0  0  0  0  0  0  0  0  0  0  0
  148.5361  141.5360  154.2878 C   0  0  2  0  0  0  0  0  0  0  0  0
  148.8585  142.9018  154.1073 O   0  0  0  0  0  0  0  0  0  0  0  0
  147.0871  141.2919  153.8248 C   0  0  0  0  0  0  0  0  0  0  0  0
  146.1227  142.0912  154.5601 N   0  0  0  0  0  0  0  0  0  0  0  0
  145.6151  141.8259  155.7792 C   0  0  0  0  0  0  0  0  0  0  0  0
  144.7428  142.6960  156.2795 N   0  0  0  0  0  0  0  0  0  0  0  0
  144.6752  143.6370  155.2664 C   0  0  0  0  0  0  0  0  0  0  0  0
  143.9219  144.8292  155.1716 C   0  0  0  0  0  0  0  0  0  0  0  0
  144.0158  145.6444  154.0245 C   0  0  0  0  0  0  0  0  0  0  0  0
  144.8615  145.2809  152.9564 C   0  0  0  0  0  0  0  0  0  0  0  0
  145.6220  144.0979  153.0280 C   0  0  0  0  0  0  0  0  0  0  0  0
  145.5269  143.2877  154.1749 C   0  0  0  0  0  0  0  0  0  0  0  0
  151.0970  140.5161  154.6571 H   0  0  0  0  0  0  0  0  0  0  0  0
  150.6940  139.3580  155.9286 H   0  0  0  0  0  0  0  0  0  0  0  0
  152.0094  140.5133  156.1440 H   0  0  0  0  0  0  0  0  0  0  0  0
  149.1491  141.7077  158.1694 H   0  0  0  0  0  0  0  0  0  0  0  0
  149.9968  140.1847  158.0737 H   0  0  0  0  0  0  0  0  0  0  0  0
  151.7871  140.1474  159.6009 H   0  0  0  0  0  0  0  0  0  0  0  0
  153.7134  141.2441  160.7219 H   0  0  0  0  0  0  0  0  0  0  0  0
  154.2557  143.6227  160.2266 H   0  0  0  0  0  0  0  0  0  0  0  0
  152.8670  144.9032  158.6065 H   0  0  0  0  0  0  0  0  0  0  0  0
  150.9411  143.8137  157.4838 H   0  0  0  0  0  0  0  0  0  0  0  0
  148.3996  140.1452  155.9370 H   0  0  0  0  0  0  0  0  0  0  0  0
  148.0198  141.7885  156.3525 H   0  0  0  0  0  0  0  0  0  0  0  0
  149.1977  140.9416  153.6593 H   0  0  0  0  0  0  0  0  0  0  0  0
  148.8521  143.3269  154.9512 H   0  0  0  0  0  0  0  0  0  0  0  0
  146.9869  141.5327  152.7656 H   0  0  0  0  0  0  0  0  0  0  0  0
  146.8231  140.2387  153.9289 H   0  0  0  0  0  0  0  0  0  0  0  0
  145.9029  140.9425  156.3304 H   0  0  0  0  0  0  0  0  0  0  0  0
  143.2704  145.1170  155.9834 H   0  0  0  0  0  0  0  0  0  0  0  0
  143.4355  146.5534  153.9638 H   0  0  0  0  0  0  0  0  0  0  0  0
  144.9259  145.9112  152.0816 H   0  0  0  0  0  0  0  0  0  0  0  0
  146.2696  143.8167  152.2110 H   0  0  0  0  0  0  0  0  0  0  0  0
  1  2  1  0  0  0  0
  1 23  1  0  0  0  0
  1 24  1  0  0  0  0
  1 25  1  0  0  0  0
  2  3  1  0  0  0  0
  2 10  1  0  0  0  0
  3  4  1  0  0  0  0
  3 26  1  0  0  0  0
  3 27  1  0  0  0  0
  4  9  1  0  0  0  0
  4  5  2  0  0  0  0
  5  6  1  0  0  0  0
  5 28  1  0  0  0  0
  6  7  2  0  0  0  0
  6 29  1  0  0  0  0
  7  8  1  0  0  0  0
  7 30  1  0  0  0  0
  8  9  2  0  0  0  0
  8 31  1  0  0  0  0
  9 32  1  0  0  0  0
 10 11  1  0  0  0  0
 10 33  1  0  0  0  0
 10 34  1  0  0  0  0
 11 12  1  0  0  0  0
 11 13  1  0  0  0  0
 11 35  1  0  0  0  0
 12 36  1  0  0  0  0
 13 14  1  0  0  0  0
 13 37  1  0  0  0  0
 13 38  1  0  0  0  0
 14 22  1  0  0  0  0
 14 15  1  0  0  0  0
 15 16  2  0  0  0  0
 15 39  1  0  0  0  0
 16 17  1  0  0  0  0
 17 22  2  0  0  0  0
 17 18  1  0  0  0  0
 18 19  2  0  0  0  0
 18 40  1  0  0  0  0
 19 20  1  0  0  0  0
 19 41  1  0  0  0  0
 20 21  2  0  0  0  0
 20 42  1  0  0  0  0
 21 22  1  0  0  0  0
 21 43  1  0  0  0  0
M  END
> <s_m_source_file>
AV-unprocessed.smi

> <i_m_source_file_index>
1019

> <i_lp_mmshare_version>
43012

> <i_f3d_flags>
0

> <s_epik_input>
W2NIXTFbY0hdW2NIXVtjSF1bY0hdYzFbQ0gyXU4oW0NIM10pW0NIMl1bQ0BIXShbT0hdKVtDSDJdbihbY0hdbjIpYyhjMjMpW2NIXVtjSF1bY0hdW2NIXTM=

> <s_epik_cmdline>
J2VwaWtfcHl0aG9uJywgJy1waCcsICc3LjAnLCAnLXRuJywgJzgnLCAnLW1hJywgJzIwMCcsICctbWV0YWxfYmluZGluZycsICctaW1hZScsICc8aW5maWxlLm1hZT4nLCAnLW9tYWUnLCAnPG91dGZpbGUubWFlPic=

> <r_epik_Ionization_Penalty>
1.56741

> <r_epik_Ionization_Penalty_Charging>
0

> <r_epik_Ionization_Penalty_Neutral>
1.56741

> <r_epik_State_Penalty>
1.62466

> <r_epik_Charging_Adjusted_Penalty>
1.62466

> <i_epik_Tot_Q>
0

> <i_epik_Tot_abs_Q>
0

> <r_epik_Metal_State_Penalty>
1.58486

> <b_epik_Metal_Only>
0

> <s_lp_Force_Field>
OPLS_2005

> <r_lp_Energy>
24.0301

> <b_lp_Chiralities_Consistent>
1

> <s_lp_Variant>
AV-unprocessed.smi:1019-9

> <Gold.Version>
5.8.1

> <Gold.Id.Protein>
6NUR|6NUR_protein|mol2

> <Gold.PLP.Fitness>
53.2161

> <Gold.PLP.PLP>
-51.6477

> <Gold.PLP.part.hbond>
-1.8668

> <Gold.PLP.part.metal>
0.0000

> <Gold.PLP.part.buried>
-2.9425

> <Gold.PLP.part.nonpolar>
-45.4405

> <Gold.PLP.part.repulsive>
0.1520

> <Gold.PLP.ligand.clash>
0.0000

> <Gold.PLP.ligand.torsion>
0.5896

> <Gold.PLP.Chemscore.Hbond>
0.8640

> <Gold.PLP.Chemscore.CHOScore>
0.0000

> <Gold.PLP.Chemscore.Metal>
0.0000

> <Gold.Chemscore.Hbonds>
donor molecule, donor type, donor heavy atom, donor atom, acceptor molecule, acceptor atom, score
      L1  H    12    36       P1  8028  0.85

> <Gold.PLP.Chemscore.Internal.Correction>
0.1556

> <Gold.Rescore>
     Score         DG    S(hbond)    S(metal)    S(lipo)     H(rot)  DE(clash)    DE(int)     intcor
     17.84     -18.71       0.87        0.00     137.89       2.27       0.30       0.58       ----

> <Gold.Chemscore.Fitness>
17.8362

> <Gold.Chemscore.DG>
-18.7115

> <Gold.Chemscore.ZeroCoef>
-5.4800

> <Gold.Chemscore.Hbond>
0.8685

> <Gold.Chemscore.Metal>
0.0000

> <Gold.Chemscore.Lipo>
137.8933

> <Gold.Chemscore.Internal_Hbond>
0.0000

> <Gold.Chemscore.DEClash>
0.3000

> <Gold.Chemscore.DEInternal>
0.5752

> <Gold.Chemscore.Rot>
2.2667

> <Gold.Chemscore.Internal.Correction>
   9.000000E+99

> <Gold.Chemscore.Hbonds>
donor molecule, donor type, donor heavy atom, donor atom, acceptor molecule, acceptor atom, score
      L1  H    12    36       P1  8028  0.79

> <Gold.Chemscore.Hbond.Weighted>
-2.9008

> <Gold.Chemscore.Metal.Weighted>
-0.0000

> <Gold.Chemscore.Lipo.Weighted>
-16.1335

> <Gold.Chemscore.Internal_Hbond.Weighted>
0.0000

> <Gold.Chemscore.DEClash.Weighted>
0.3000

> <Gold.Chemscore.DEInternal.Weighted>
0.5752

> <Gold.Chemscore.Rot.Weighted>
5.8028

> <Gold.Chemscore.Internal.Correction.Weighted>
   9.000000E+99

> <Gold.Protein.RotatedTorsions>
[ 6907 6896 6895 6894 ] final -134.34 input  -60.11 | X-H torsion
[ 7974 7965 7964 7962 ] final  111.98 input  175.53 | X-H torsion
[ 8008 7997 7996 7995 ] final  -98.24 input   59.86 | X-H torsion
[ 10167 10162 10161 10158 ] final -111.50 input  -65.29 | X-H torsion
[ 10718 10713 10712 10709 ] final  111.03 input   66.30 | X-H torsion
[ 10763 10752 10751 10750 ] final  -83.40 input  -60.55 | X-H torsion
[ 11005 11000 10999 10996 ] final   89.96 input  -57.11 | X-H torsion

> <Gold.Protein.ActiveResidues>
 VAL166  LYS551  ARG553  GLY616  TRP617  ASP618  TYR619  PRO620  LYS621  CYS622 
 ASP623  PHE694  ASN695  SER759  ASP760  ASP761  ALA762  ILE779  LEU786  VAL792 
 PHE793  MET794  SER795  GLU796  ALA797  LYS798  CYS799  TRP800  GLU811  SER814 

> <Gold.Protein.RotatedAtoms>
  150.9847  133.6210  159.2717 H   0  0  0  0  0  0  0  0  0  0  0  0  # atno 6907 bound_to 6896
  151.3452  135.0871  159.9394 H   0  0  0  0  0  0  0  0  0  0  0  0  # atno 6908 bound_to 6896
  152.5227  133.9450  159.7699 H   0  0  0  0  0  0  0  0  0  0  0  0  # atno 6909 bound_to 6896
  145.2354  139.2801  143.4146 H   0  0  0  0  0  0  0  0  0  0  0  0  # atno 7974 bound_to 7965
  154.7986  140.0456  157.1255 H   0  0  0  0  0  0  0  0  0  0  0  0  # atno 8008 bound_to 7997
  154.9506  140.3064  155.5057 H   0  0  0  0  0  0  0  0  0  0  0  0  # atno 8009 bound_to 7997
  156.2959  140.2289  156.4583 H   0  0  0  0  0  0  0  0  0  0  0  0  # atno 8010 bound_to 7997
  140.1329  143.4345  152.1615 H   0  0  0  0  0  0  0  0  0  0  0  0  # atno 10167 bound_to 10162
  157.6465  131.0943  150.6689 H   0  0  0  0  0  0  0  0  0  0  0  0  # atno 10718 bound_to 10713
  154.5873  135.5557  153.7244 H   0  0  0  0  0  0  0  0  0  0  0  0  # atno 10763 bound_to 10752
  153.0103  135.6334  154.1898 H   0  0  0  0  0  0  0  0  0  0  0  0  # atno 10764 bound_to 10752
  154.1839  135.2886  155.3023 H   0  0  0  0  0  0  0  0  0  0  0  0  # atno 10765 bound_to 10752
  139.8865  134.8584  156.3217 H   0  0  0  0  0  0  0  0  0  0  0  0  # atno 11005 bound_to 11000
  146.3342  140.2701  142.8605 LP  0  0  0  0  0  0  0  0  0  0  0  0  # atno 17320 bound_to 7965
  144.9638  140.8301  143.5497 LP  0  0  0  0  0  0  0  0  0  0  0  0  # atno 17321 bound_to 7965
  139.5510  144.7337  151.4434 LP  0  0  0  0  0  0  0  0  0  0  0  0  # atno 17342 bound_to 10162
  140.6806  143.8090  150.7116 LP  0  0  0  0  0  0  0  0  0  0  0  0  # atno 17343 bound_to 10162
  156.7006  130.4622  149.5574 LP  0  0  0  0  0  0  0  0  0  0  0  0  # atno 17370 bound_to 10713
  156.1798  130.6491  151.0938 LP  0  0  0  0  0  0  0  0  0  0  0  0  # atno 17371 bound_to 10713
  140.9782  133.7284  156.0633 LP  0  0  0  0  0  0  0  0  0  0  0  0  # atno 17394 bound_to 11000
  140.7783  134.3754  157.5493 LP  0  0  0  0  0  0  0  0  0  0  0  0  # atno 17395 bound_to 11000

$$$$
