AV-unprocessed.smi:1978|AV-procd|sdf|8011|dock3
  -GOLD-   2272010203D 1   1.00000     0.00000
 Structure written by MMmdl.
 44 45  0  0  0  0  0  0  0  0  3 V2000
  146.5255  133.9522  162.2519 C   0  0  0  0  0  0  0  0  0  0  0  0
  147.0092  135.1560  161.5191 C   0  0  0  0  0  0  0  0  0  0  0  0
  147.5757  135.3290  160.2879 C   0  0  0  0  0  0  0  0  0  0  0  0
  147.7853  136.7324  160.2251 C   0  0  0  0  0  0  0  0  0  0  0  0
  148.3681  137.3255  159.0744 N   0  0  0  0  0  0  0  0  0  0  0  0
  149.6267  137.2103  158.6128 C   0  0  0  0  0  0  0  0  0  0  0  0
  150.4511  136.5106  159.2131 O   0  0  0  0  0  0  0  0  0  0  0  0
  149.8277  137.9382  157.4797 N   0  5  0  0  0  0  0  0  0  0  0  0
  150.6276  139.1619  157.3993 C   0  0  0  0  0  0  0  0  0  0  0  0
  149.7489  140.4216  157.6475 C   0  0  1  0  0  0  0  0  0  0  0  0
  150.5337  141.6733  158.1174 C   0  0  0  0  0  0  0  0  0  0  0  0
  148.8707  140.7007  156.4583 N   0  3  2  0  0  0  0  0  0  0  0  0
  149.6135  140.8252  155.1627 C   0  0  0  0  0  0  0  0  0  0  0  0
  148.6623  140.8236  153.9601 C   0  0  0  0  0  0  0  0  0  0  0  0
  147.6668  141.9774  154.0769 C   0  0  0  0  0  0  0  0  0  0  0  0
  146.9204  141.8730  155.4093 C   0  0  0  0  0  0  0  0  0  0  0  0
  147.8756  141.8159  156.6247 C   0  0  1  0  0  0  0  0  0  0  0  0
  147.0119  141.7017  157.9002 C   0  0  0  0  0  0  0  0  0  0  0  0
  147.3850  137.3586  161.3221 N   0  0  0  0  0  0  0  0  0  0  0  0
  146.8863  136.3515  162.1570 O   0  0  0  0  0  0  0  0  0  0  0  0
  146.4878  133.0850  161.5923 H   0  0  0  0  0  0  0  0  0  0  0  0
  145.5241  134.1173  162.6495 H   0  0  0  0  0  0  0  0  0  0  0  0
  147.1874  133.7163  163.0850 H   0  0  0  0  0  0  0  0  0  0  0  0
  147.8008  134.5731  159.5507 H   0  0  0  0  0  0  0  0  0  0  0  0
  147.7569  137.9198  158.5345 H   0  0  0  0  0  0  0  0  0  0  0  0
  151.4710  139.1661  158.0909 H   0  0  0  0  0  0  0  0  0  0  0  0
  151.0763  139.2502  156.4090 H   0  0  0  0  0  0  0  0  0  0  0  0
  149.1217  140.1384  158.4867 H   0  0  0  0  0  0  0  0  0  0  0  0
  151.0199  141.5089  159.0805 H   0  0  0  0  0  0  0  0  0  0  0  0
  149.8634  142.5220  158.2535 H   0  0  0  0  0  0  0  0  0  0  0  0
  151.3106  141.9765  157.4136 H   0  0  0  0  0  0  0  0  0  0  0  0
  150.1954  141.7478  155.1551 H   0  0  0  0  0  0  0  0  0  0  0  0
  150.3243  140.0084  155.0379 H   0  0  0  0  0  0  0  0  0  0  0  0
  149.2309  140.9152  153.0342 H   0  0  0  0  0  0  0  0  0  0  0  0
  148.1306  139.8726  153.9071 H   0  0  0  0  0  0  0  0  0  0  0  0
  148.1917  142.9318  154.0174 H   0  0  0  0  0  0  0  0  0  0  0  0
  146.9611  141.9535  153.2461 H   0  0  0  0  0  0  0  0  0  0  0  0
  146.2443  142.7235  155.5043 H   0  0  0  0  0  0  0  0  0  0  0  0
  146.2903  140.9823  155.3976 H   0  0  0  0  0  0  0  0  0  0  0  0
  148.4273  142.7561  156.6720 H   0  0  0  0  0  0  0  0  0  0  0  0
  146.1678  142.3910  157.8636 H   0  0  0  0  0  0  0  0  0  0  0  0
  147.5626  141.9617  158.8035 H   0  0  0  0  0  0  0  0  0  0  0  0
  146.6070  140.6961  158.0193 H   0  0  0  0  0  0  0  0  0  0  0  0
  148.3071  139.8670  156.3714 H   0  0  0  0  0  0  0  0  0  0  0  0
  1  2  1  0  0  0  0
  1 21  1  0  0  0  0
  1 22  1  0  0  0  0
  1 23  1  0  0  0  0
  2 20  1  0  0  0  0
  2  3  2  0  0  0  0
  3  4  1  0  0  0  0
  3 24  1  0  0  0  0
  4  5  1  0  0  0  0
  4 19  2  0  0  0  0
  5  6  1  0  0  0  0
  5 25  1  0  0  0  0
  6  7  2  0  0  0  0
  6  8  1  0  0  0  0
  8  9  1  0  0  0  0
  9 10  1  0  0  0  0
  9 26  1  0  0  0  0
  9 27  1  0  0  0  0
 10 11  1  0  0  0  0
 10 12  1  0  0  0  0
 10 28  1  0  0  0  0
 11 29  1  0  0  0  0
 11 30  1  0  0  0  0
 11 31  1  0  0  0  0
 12 17  1  0  0  0  0
 12 13  1  0  0  0  0
 12 44  1  0  0  0  0
 13 14  1  0  0  0  0
 13 32  1  0  0  0  0
 13 33  1  0  0  0  0
 14 15  1  0  0  0  0
 14 34  1  0  0  0  0
 14 35  1  0  0  0  0
 15 16  1  0  0  0  0
 15 36  1  0  0  0  0
 15 37  1  0  0  0  0
 16 17  1  0  0  0  0
 16 38  1  0  0  0  0
 16 39  1  0  0  0  0
 17 18  1  0  0  0  0
 17 40  1  0  0  0  0
 18 41  1  0  0  0  0
 18 42  1  0  0  0  0
 18 43  1  0  0  0  0
 19 20  1  0  0  0  0
M  CHG  1   8  -1
M  CHG  1  12   1
M  END
> <s_m_source_file>
AV-unprocessed.smi

> <i_m_source_file_index>
1978

> <i_lp_mmshare_version>
43012

> <i_f3d_flags>
0

> <s_epik_input>
W0NIM11jMVtjSF1jKG5vMSlbTkhdQyg9TylbTkhdW0NIMl1bQ0BIXShbQ0gzXSlOMltDSDJdW0NIMl1bQ0gyXVtDSDJdW0NASF0yW0NIM10=

> <s_epik_cmdline>
J2VwaWtfcHl0aG9uJywgJy1waCcsICc3LjAnLCAnLXRuJywgJzgnLCAnLW1hJywgJzIwMCcsICctbWV0YWxfYmluZGluZycsICctaW1hZScsICc8aW5maWxlLm1hZT4nLCAnLW9tYWUnLCAnPG91dGZpbGUubWFlPic=

> <r_epik_Ionization_Penalty>
6.7666

> <r_epik_Ionization_Penalty_Charging>
6.7666

> <r_epik_Ionization_Penalty_Neutral>
5.77131e-06

> <r_epik_State_Penalty>
6.79217

> <r_epik_Charging_Adjusted_Penalty>
13.5588

> <i_epik_Tot_Q>
0

> <i_epik_Tot_abs_Q>
2

> <r_epik_Metal_State_Penalty>
2.72569

> <b_epik_Metal_Only>
1

> <s_lp_Force_Field>
OPLS_2005

> <r_lp_Energy>
21.6667

> <b_lp_Chiralities_Consistent>
1

> <s_lp_Variant>
AV-unprocessed.smi:1978-20

> <Gold.Version>
5.8.1

> <Gold.Id.Protein>
6NUR|6NUR_protein|mol2

> <Gold.PLP.Fitness>
36.8765

> <Gold.PLP.PLP>
-31.6748

> <Gold.PLP.part.hbond>
-3.0000

> <Gold.PLP.part.metal>
0.0000

> <Gold.PLP.part.buried>
-5.0260

> <Gold.PLP.part.nonpolar>
-24.4672

> <Gold.PLP.part.repulsive>
0.2077

> <Gold.PLP.ligand.clash>
0.0000

> <Gold.PLP.ligand.torsion>
1.7391

> <Gold.PLP.Chemscore.Hbond>
2.8080

> <Gold.PLP.Chemscore.CHOScore>
0.0000

> <Gold.PLP.Chemscore.Metal>
0.0000

> <Gold.Chemscore.Hbonds>
donor molecule, donor type, donor heavy atom, donor atom, acceptor molecule, acceptor atom, score
      P1  H  6896  6907       L1     7  1.00
      P1  H  6931  6943       L1    19  0.80
      P1  H  6934  6947       L1    19  0.94

> <Gold.PLP.Chemscore.Internal.Correction>
0.2559

> <Gold.Rescore>
     Score         DG    S(hbond)    S(metal)    S(lipo)     H(rot)  DE(clash)    DE(int)     intcor
     14.85     -16.96       2.46        0.00      61.13       1.52       0.16       1.95       ----

> <Gold.Chemscore.Fitness>
14.8477

> <Gold.Chemscore.DG>
-16.9584

> <Gold.Chemscore.ZeroCoef>
-5.4800

> <Gold.Chemscore.Hbond>
2.4596

> <Gold.Chemscore.Metal>
0.0000

> <Gold.Chemscore.Lipo>
61.1274

> <Gold.Chemscore.Internal_Hbond>
0.0000

> <Gold.Chemscore.DEClash>
0.1644

> <Gold.Chemscore.DEInternal>
1.9463

> <Gold.Chemscore.Rot>
1.5190

> <Gold.Chemscore.Internal.Correction>
   9.000000E+99

> <Gold.Chemscore.Hbonds>
donor molecule, donor type, donor heavy atom, donor atom, acceptor molecule, acceptor atom, score
      P1  H  6896  6907       L1     7  0.99
      P1  H  6931  6943       L1    19  0.26
      P1  H  6934  6947       L1    19  0.59

> <Gold.Chemscore.Hbond.Weighted>
-8.2152

> <Gold.Chemscore.Metal.Weighted>
-0.0000

> <Gold.Chemscore.Lipo.Weighted>
-7.1519

> <Gold.Chemscore.Internal_Hbond.Weighted>
0.0000

> <Gold.Chemscore.DEClash.Weighted>
0.1644

> <Gold.Chemscore.DEInternal.Weighted>
1.9463

> <Gold.Chemscore.Rot.Weighted>
3.8886

> <Gold.Chemscore.Internal.Correction.Weighted>
   9.000000E+99

> <Gold.Protein.RotatedTorsions>
[ 6907 6896 6895 6894 ] final  -21.32 input  -60.11 | X-H torsion
[ 7974 7965 7964 7962 ] final   11.48 input  175.53 | X-H torsion
[ 8008 7997 7996 7995 ] final   70.09 input   59.86 | X-H torsion
[ 10167 10162 10161 10158 ] final  -77.18 input  -65.29 | X-H torsion
[ 10718 10713 10712 10709 ] final   30.97 input   66.30 | X-H torsion
[ 10763 10752 10751 10750 ] final  -58.60 input  -60.55 | X-H torsion
[ 11005 11000 10999 10996 ] final -105.35 input  -57.11 | X-H torsion

> <Gold.Protein.ActiveResidues>
 VAL166  LYS551  ARG553  GLY616  TRP617  ASP618  TYR619  PRO620  LYS621  CYS622 
 ASP623  PHE694  ASN695  SER759  ASP760  ASP761  ALA762  ILE779  LEU786  VAL792 
 PHE793  MET794  SER795  GLU796  ALA797  LYS798  CYS799  TRP800  GLU811  SER814 

> <Gold.Protein.RotatedAtoms>
  151.2351  135.0568  159.9002 H   0  0  0  0  0  0  0  0  0  0  0  0  # atno 6907 bound_to 6896
  152.5400  134.0495  159.8113 H   0  0  0  0  0  0  0  0  0  0  0  0  # atno 6908 bound_to 6896
  151.0680  133.5441  159.2660 H   0  0  0  0  0  0  0  0  0  0  0  0  # atno 6909 bound_to 6896
  146.2370  139.9479  142.8474 H   0  0  0  0  0  0  0  0  0  0  0  0  # atno 7974 bound_to 7965
  155.7335  140.3491  155.5070 H   0  0  0  0  0  0  0  0  0  0  0  0  # atno 8008 bound_to 7997
  155.9161  140.1059  157.1264 H   0  0  0  0  0  0  0  0  0  0  0  0  # atno 8009 bound_to 7997
  154.4063  140.1258  156.4606 H   0  0  0  0  0  0  0  0  0  0  0  0  # atno 8010 bound_to 7997
  140.4792  143.2406  151.8084 H   0  0  0  0  0  0  0  0  0  0  0  0  # atno 10167 bound_to 10162
  157.2665  130.7187  149.6481 H   0  0  0  0  0  0  0  0  0  0  0  0  # atno 10718 bound_to 10713
  154.2407  135.6344  153.5206 H   0  0  0  0  0  0  0  0  0  0  0  0  # atno 10763 bound_to 10752
  152.9931  135.5541  154.5913 H   0  0  0  0  0  0  0  0  0  0  0  0  # atno 10764 bound_to 10752
  154.5418  135.2895  155.1063 H   0  0  0  0  0  0  0  0  0  0  0  0  # atno 10765 bound_to 10752
  141.1057  133.8800  157.1723 H   0  0  0  0  0  0  0  0  0  0  0  0  # atno 11005 bound_to 11000
  145.1889  140.9802  143.4222 LP  0  0  0  0  0  0  0  0  0  0  0  0  # atno 17320 bound_to 7965
  144.9874  139.3722  143.6231 LP  0  0  0  0  0  0  0  0  0  0  0  0  # atno 17321 bound_to 7965
  139.4830  144.4794  151.9326 LP  0  0  0  0  0  0  0  0  0  0  0  0  # atno 17342 bound_to 10162
  140.3879  144.2653  150.5902 LP  0  0  0  0  0  0  0  0  0  0  0  0  # atno 17343 bound_to 10162
  155.9663  130.4381  150.5203 LP  0  0  0  0  0  0  0  0  0  0  0  0  # atno 17370 bound_to 10713
  157.3118  131.0665  151.1995 LP  0  0  0  0  0  0  0  0  0  0  0  0  # atno 17371 bound_to 10713
  139.9927  135.0058  157.0011 LP  0  0  0  0  0  0  0  0  0  0  0  0  # atno 17394 bound_to 11000
  140.4907  134.1196  155.7232 LP  0  0  0  0  0  0  0  0  0  0  0  0  # atno 17395 bound_to 11000

$$$$
