AV-unprocessed.smi:2749|AV-procd|sdf|10588|dock7
  -GOLD-   2272015 43D 1   1.00000     0.00000
 Structure written by MMmdl.
 32 34  0  0  0  0  0  0  0  0  1 V2000
  150.6994  140.9460  156.7067 O   0  0  0  0  0  0  0  0  0  0  0  0
  150.3384  142.0761  156.3823 C   0  0  0  0  0  0  0  0  0  0  0  0
  149.3803  142.2555  155.4473 N   0  0  0  0  0  0  0  0  0  0  0  0
  148.6228  141.3256  154.6750 C   0  0  0  0  0  0  0  0  0  0  0  0
  149.1908  140.0332  154.5951 C   0  0  0  0  0  0  0  0  0  0  0  0
  148.5365  139.0286  153.8558 C   0  0  0  0  0  0  0  0  0  0  0  0
  147.3272  139.3432  153.2116 C   0  0  0  0  0  0  0  0  0  0  0  0
  146.6616  138.4114  152.4891 F   0  0  0  0  0  0  0  0  0  0  0  0
  146.8276  140.6521  153.3367 C   0  0  0  0  0  0  0  0  0  0  0  0
  147.4547  141.6148  154.0456 N   0  0  0  0  0  0  0  0  0  0  0  0
  150.8556  143.1903  156.9244 N   0  0  0  0  0  0  0  0  0  0  0  0
  151.8971  143.2508  157.9457 C   0  0  1  0  0  0  0  0  0  0  0  0
  152.0293  144.6557  158.5425 C   0  0  0  0  0  0  0  0  0  0  0  0
  151.7451  144.3954  160.0280 C   0  0  2  0  0  0  0  0  0  0  0  0
  152.8780  143.6101  160.7051 C   0  0  0  0  0  0  0  0  0  0  0  0
  152.6833  142.2103  160.1216 C   0  0  0  0  0  0  0  0  0  0  0  0
  151.4910  142.4295  159.1811 C   0  0  1  0  0  0  0  0  0  0  0  0
  150.7553  143.3880  159.9241 O   0  0  0  0  0  0  0  0  0  0  0  0
  149.1465  143.2225  155.2758 H   0  0  0  0  0  0  0  0  0  0  0  0
  150.1216  139.8080  155.0955 H   0  0  0  0  0  0  0  0  0  0  0  0
  148.9559  138.0359  153.7847 H   0  0  0  0  0  0  0  0  0  0  0  0
  145.9027  140.9351  152.8561 H   0  0  0  0  0  0  0  0  0  0  0  0
  150.4961  144.0760  156.5966 H   0  0  0  0  0  0  0  0  0  0  0  0
  152.8539  142.8987  157.5562 H   0  0  0  0  0  0  0  0  0  0  0  0
  153.0154  145.0915  158.3790 H   0  0  0  0  0  0  0  0  0  0  0  0
  151.2865  145.3400  158.1291 H   0  0  0  0  0  0  0  0  0  0  0  0
  151.4288  145.2811  160.5798 H   0  0  0  0  0  0  0  0  0  0  0  0
  153.8608  144.0284  160.4852 H   0  0  0  0  0  0  0  0  0  0  0  0
  152.7475  143.5940  161.7877 H   0  0  0  0  0  0  0  0  0  0  0  0
  153.5664  141.8395  159.6001 H   0  0  0  0  0  0  0  0  0  0  0  0
  152.4288  141.5005  160.9096 H   0  0  0  0  0  0  0  0  0  0  0  0
  150.9412  141.5153  158.9539 H   0  0  0  0  0  0  0  0  0  0  0  0
  1  2  2  0  0  0  0
  2  3  1  0  0  0  0
  2 11  1  0  0  0  0
  3  4  1  0  0  0  0
  3 19  1  0  0  0  0
  4 10  1  0  0  0  0
  4  5  2  0  0  0  0
  5  6  1  0  0  0  0
  5 20  1  0  0  0  0
  6  7  2  0  0  0  0
  6 21  1  0  0  0  0
  7  8  1  0  0  0  0
  7  9  1  0  0  0  0
  9 10  2  0  0  0  0
  9 22  1  0  0  0  0
 11 12  1  0  0  0  0
 11 23  1  0  0  0  0
 12 17  1  0  0  0  0
 12 13  1  0  0  0  0
 12 24  1  0  0  0  0
 13 14  1  0  0  0  0
 13 25  1  0  0  0  0
 13 26  1  0  0  0  0
 14 18  1  0  0  0  0
 14 15  1  0  0  0  0
 14 27  1  0  0  0  0
 15 16  1  0  0  0  0
 15 28  1  0  0  0  0
 15 29  1  0  0  0  0
 16 17  1  0  0  0  0
 16 30  1  0  0  0  0
 16 31  1  0  0  0  0
 17 18  1  0  0  0  0
 17 32  1  0  0  0  0
M  END
> <s_m_source_file>
AV-unprocessed.smi

> <i_m_source_file_index>
2749

> <i_lp_mmshare_version>
43012

> <i_f3d_flags>
0

> <s_epik_input>
W0NIMl0xW0NIMl1bQ0BIXShPMilbQ0BASF0oW0NIMl1bQ0BASF0xMilbTkhdQyg9TylbTkhdYzNbY0hdW2NIXWMoRilbY0hdbjM=

> <s_epik_cmdline>
J2VwaWtfcHl0aG9uJywgJy1waCcsICc3LjAnLCAnLXRuJywgJzgnLCAnLW1hJywgJzIwMCcsICctbWV0YWxfYmluZGluZycsICctaW1hZScsICc8aW5maWxlLm1hZT4nLCAnLW9tYWUnLCAnPG91dGZpbGUubWFlPic=

> <r_lp_tautomer_probability>
1

> <r_epik_Ionization_Penalty>
3.37159e-05

> <r_epik_Ionization_Penalty_Charging>
0

> <r_epik_Ionization_Penalty_Neutral>
3.37159e-05

> <r_epik_State_Penalty>
-0

> <r_epik_Charging_Adjusted_Penalty>
0

> <i_epik_Tot_Q>
0

> <i_epik_Tot_abs_Q>
0

> <r_epik_Metal_State_Penalty>
-0

> <b_epik_Metal_Only>
0

> <s_lp_Force_Field>
OPLS_2005

> <r_lp_Energy>
42.1361

> <b_lp_Chiralities_Consistent>
1

> <s_lp_Variant>
AV-unprocessed.smi:2749-4

> <Gold.Version>
5.8.1

> <Gold.Id.Protein>
6NUR|6NUR_protein|mol2

> <Gold.PLP.Fitness>
46.4559

> <Gold.PLP.PLP>
-38.3405

> <Gold.PLP.part.hbond>
-3.0000

> <Gold.PLP.part.metal>
0.0000

> <Gold.PLP.part.buried>
-2.5789

> <Gold.PLP.part.nonpolar>
-34.0495

> <Gold.PLP.part.repulsive>
0.4450

> <Gold.PLP.ligand.clash>
0.0000

> <Gold.PLP.ligand.torsion>
0.1573

> <Gold.PLP.Chemscore.Hbond>
1.8000

> <Gold.PLP.Chemscore.CHOScore>
1.0000

> <Gold.PLP.Chemscore.Metal>
0.0000

> <Gold.Chemscore.Hbonds>
donor molecule, donor type, donor heavy atom, donor atom, acceptor molecule, acceptor atom, score
      L1  H     3    19       P1  8028  1.00
      L1  H    11    23       P1  8028  0.77
      L1  C     9    22       P1 10175  1.00

> <Gold.PLP.Chemscore.Internal.Correction>
0.0299

> <Gold.Rescore>
     Score         DG    S(hbond)    S(metal)    S(lipo)     H(rot)  DE(clash)    DE(int)     intcor
     18.33     -19.93       1.85        0.00      92.62       1.00       0.06       1.55       ----

> <Gold.Chemscore.Fitness>
18.3311

> <Gold.Chemscore.DG>
-19.9343

> <Gold.Chemscore.ZeroCoef>
-5.4800

> <Gold.Chemscore.Hbond>
1.8496

> <Gold.Chemscore.Metal>
0.0000

> <Gold.Chemscore.Lipo>
92.6200

> <Gold.Chemscore.Internal_Hbond>
0.0000

> <Gold.Chemscore.DEClash>
0.0560

> <Gold.Chemscore.DEInternal>
1.5472

> <Gold.Chemscore.Rot>
1.0000

> <Gold.Chemscore.Internal.Correction>
   9.000000E+99

> <Gold.Chemscore.Hbonds>
donor molecule, donor type, donor heavy atom, donor atom, acceptor molecule, acceptor atom, score
      L1  H     3    19       P1  8028  0.95
      L1  H    11    23       P1  8028  0.75

> <Gold.Chemscore.Hbond.Weighted>
-6.1778

> <Gold.Chemscore.Metal.Weighted>
-0.0000

> <Gold.Chemscore.Lipo.Weighted>
-10.8365

> <Gold.Chemscore.Internal_Hbond.Weighted>
0.0000

> <Gold.Chemscore.DEClash.Weighted>
0.0560

> <Gold.Chemscore.DEInternal.Weighted>
1.5472

> <Gold.Chemscore.Rot.Weighted>
2.5600

> <Gold.Chemscore.Internal.Correction.Weighted>
   9.000000E+99

> <Gold.Protein.RotatedTorsions>
[ 6907 6896 6895 6894 ] final -163.32 input  -60.11 | X-H torsion
[ 7974 7965 7964 7962 ] final  156.59 input  175.53 | X-H torsion
[ 8008 7997 7996 7995 ] final   53.99 input   59.86 | X-H torsion
[ 10167 10162 10161 10158 ] final  -60.74 input  -65.29 | X-H torsion
[ 10718 10713 10712 10709 ] final   93.57 input   66.30 | X-H torsion
[ 10763 10752 10751 10750 ] final   -3.55 input  -60.55 | X-H torsion
[ 11005 11000 10999 10996 ] final -143.96 input  -57.11 | X-H torsion

> <Gold.Protein.ActiveResidues>
 VAL166  LYS551  ARG553  GLY616  TRP617  ASP618  TYR619  PRO620  LYS621  CYS622 
 ASP623  PHE694  ASN695  SER759  ASP760  ASP761  ALA762  ILE779  LEU786  VAL792 
 PHE793  MET794  SER795  GLU796  ALA797  LYS798  CYS799  TRP800  GLU811  SER814 

> <Gold.Protein.RotatedAtoms>
  151.3942  133.3778  159.2724 H   0  0  0  0  0  0  0  0  0  0  0  0  # atno 6907 bound_to 6896
  150.9482  134.8886  159.7666 H   0  0  0  0  0  0  0  0  0  0  0  0  # atno 6908 bound_to 6896
  152.5100  134.3896  159.9431 H   0  0  0  0  0  0  0  0  0  0  0  0  # atno 6909 bound_to 6896
  144.7954  139.7224  143.6204 H   0  0  0  0  0  0  0  0  0  0  0  0  # atno 7974 bound_to 7965
  155.4773  140.3467  155.4334 H   0  0  0  0  0  0  0  0  0  0  0  0  # atno 8008 bound_to 7997
  156.1062  140.1448  156.9430 H   0  0  0  0  0  0  0  0  0  0  0  0  # atno 8009 bound_to 7997
  154.4726  140.0896  156.7160 H   0  0  0  0  0  0  0  0  0  0  0  0  # atno 8010 bound_to 7997
  140.6051  143.2371  151.5838 H   0  0  0  0  0  0  0  0  0  0  0  0  # atno 10167 bound_to 10162
  157.6954  131.0482  150.4054 H   0  0  0  0  0  0  0  0  0  0  0  0  # atno 10718 bound_to 10713
  153.3729  135.6995  153.6624 H   0  0  0  0  0  0  0  0  0  0  0  0  # atno 10763 bound_to 10752
  153.5267  135.3600  155.2657 H   0  0  0  0  0  0  0  0  0  0  0  0  # atno 10764 bound_to 10752
  154.8683  135.4171  154.3010 H   0  0  0  0  0  0  0  0  0  0  0  0  # atno 10765 bound_to 10752
  140.8073  134.2786  157.4955 H   0  0  0  0  0  0  0  0  0  0  0  0  # atno 11005 bound_to 11000
  146.2220  139.5654  142.9612 LP  0  0  0  0  0  0  0  0  0  0  0  0  # atno 17320 bound_to 7965
  145.5687  141.0396  143.2186 LP  0  0  0  0  0  0  0  0  0  0  0  0  # atno 17321 bound_to 7965
  139.5319  144.2891  152.1167 LP  0  0  0  0  0  0  0  0  0  0  0  0  # atno 17342 bound_to 10162
  140.2079  144.4592  150.6400 LP  0  0  0  0  0  0  0  0  0  0  0  0  # atno 17343 bound_to 10162
  156.4443  130.3998  149.6677 LP  0  0  0  0  0  0  0  0  0  0  0  0  # atno 17370 bound_to 10713
  156.3849  130.7598  151.2594 LP  0  0  0  0  0  0  0  0  0  0  0  0  # atno 17371 bound_to 10713
  139.8717  134.9463  156.3935 LP  0  0  0  0  0  0  0  0  0  0  0  0  # atno 17394 bound_to 11000
  140.9234  133.7629  155.9935 LP  0  0  0  0  0  0  0  0  0  0  0  0  # atno 17395 bound_to 11000

$$$$
