AV-unprocessed.smi:1461|AV-procd|sdf|5931|dock2
  -GOLD-   22720 6 13D 1   1.00000     0.00000
 Structure written by MMmdl.
 42 43  0  0  0  0  0  0  0  0  2 V2000
  151.4954  145.1659  159.1037 C   0  0  0  0  0  0  0  0  0  0  0  0
  151.6206  143.6394  159.2154 C   0  0  0  0  0  0  0  0  0  0  0  0
  152.6984  143.2555  160.2442 C   0  0  0  0  0  0  0  0  0  0  0  0
  151.8756  143.0106  157.8280 C   0  0  0  0  0  0  0  0  0  0  0  0
  150.6675  142.9299  157.0129 N   0  0  0  0  0  0  0  0  0  0  0  0
  150.2207  141.8218  156.4060 C   0  0  0  0  0  0  0  0  0  0  0  0
  150.7775  140.7271  156.4866 O   0  0  0  0  0  0  0  0  0  0  0  0
  149.1121  142.0718  155.6901 N   0  0  0  0  0  0  0  0  0  0  0  0
  148.4252  141.1799  154.8206 C   0  0  0  0  0  0  0  0  0  0  0  0
  149.0030  139.9399  154.4452 C   0  0  0  0  0  0  0  0  0  0  0  0
  148.2781  139.0419  153.6396 C   0  0  0  0  0  0  0  0  0  0  0  0
  146.9783  139.3899  153.2343 C   0  0  0  0  0  0  0  0  0  0  0  0
  146.4514  140.5710  153.6187 N   0  3  0  0  0  0  0  0  0  0  0  0
  147.1038  141.4844  154.3808 C   0  0  0  0  0  0  0  0  0  0  0  0
  146.4251  142.6849  154.6940 N   0  0  0  0  0  0  0  0  0  0  0  0
  145.5352  142.7510  155.8473 C   0  0  0  0  0  0  0  0  0  0  0  0
  144.7502  144.0476  155.6677 C   0  0  0  0  0  0  0  0  0  0  0  0
  144.5892  144.1262  154.1524 C   0  0  0  0  0  0  0  0  0  0  0  0
  145.8839  143.5066  153.6154 C   0  0  0  0  0  0  0  0  0  0  0  0
  152.4185  145.6136  158.7338 H   0  0  0  0  0  0  0  0  0  0  0  0
  151.2724  145.6149  160.0719 H   0  0  0  0  0  0  0  0  0  0  0  0
  150.6930  145.4455  158.4204 H   0  0  0  0  0  0  0  0  0  0  0  0
  150.6652  143.2671  159.5872 H   0  0  0  0  0  0  0  0  0  0  0  0
  153.6870  143.5847  159.9231 H   0  0  0  0  0  0  0  0  0  0  0  0
  152.7397  142.1776  160.4012 H   0  0  0  0  0  0  0  0  0  0  0  0
  152.4944  143.7135  161.2124 H   0  0  0  0  0  0  0  0  0  0  0  0
  152.6399  143.5738  157.2896 H   0  0  0  0  0  0  0  0  0  0  0  0
  152.2677  141.9998  157.9455 H   0  0  0  0  0  0  0  0  0  0  0  0
  150.1452  143.7855  156.8930 H   0  0  0  0  0  0  0  0  0  0  0  0
  148.8161  143.0361  155.6510 H   0  0  0  0  0  0  0  0  0  0  0  0
  149.9880  139.6541  154.7832 H   0  0  0  0  0  0  0  0  0  0  0  0
  148.7094  138.0954  153.3481 H   0  0  0  0  0  0  0  0  0  0  0  0
  146.3456  138.7632  152.6225 H   0  0  0  0  0  0  0  0  0  0  0  0
  144.8484  141.9035  155.8462 H   0  0  0  0  0  0  0  0  0  0  0  0
  146.0935  142.7420  156.7839 H   0  0  0  0  0  0  0  0  0  0  0  0
  143.7987  144.0467  156.2000 H   0  0  0  0  0  0  0  0  0  0  0  0
  145.3389  144.8940  156.0242 H   0  0  0  0  0  0  0  0  0  0  0  0
  143.7363  143.5200  153.8439 H   0  0  0  0  0  0  0  0  0  0  0  0
  144.4259  145.1427  153.7934 H   0  0  0  0  0  0  0  0  0  0  0  0
  146.6020  144.2925  153.3799 H   0  0  0  0  0  0  0  0  0  0  0  0
  145.7003  142.9287  152.7087 H   0  0  0  0  0  0  0  0  0  0  0  0
  145.5051  140.7935  153.3096 H   0  0  0  0  0  0  0  0  0  0  0  0
  1  2  1  0  0  0  0
  1 20  1  0  0  0  0
  1 21  1  0  0  0  0
  1 22  1  0  0  0  0
  2  3  1  0  0  0  0
  2  4  1  0  0  0  0
  2 23  1  0  0  0  0
  3 24  1  0  0  0  0
  3 25  1  0  0  0  0
  3 26  1  0  0  0  0
  4  5  1  0  0  0  0
  4 27  1  0  0  0  0
  4 28  1  0  0  0  0
  5  6  1  0  0  0  0
  5 29  1  0  0  0  0
  6  7  2  0  0  0  0
  6  8  1  0  0  0  0
  8  9  1  0  0  0  0
  8 30  1  0  0  0  0
  9 14  1  0  0  0  0
  9 10  2  0  0  0  0
 10 11  1  0  0  0  0
 10 31  1  0  0  0  0
 11 12  2  0  0  0  0
 11 32  1  0  0  0  0
 12 13  1  0  0  0  0
 12 33  1  0  0  0  0
 13 14  2  0  0  0  0
 13 42  1  0  0  0  0
 14 15  1  0  0  0  0
 15 19  1  0  0  0  0
 15 16  1  0  0  0  0
 16 17  1  0  0  0  0
 16 34  1  0  0  0  0
 16 35  1  0  0  0  0
 17 18  1  0  0  0  0
 17 36  1  0  0  0  0
 17 37  1  0  0  0  0
 18 19  1  0  0  0  0
 18 38  1  0  0  0  0
 18 39  1  0  0  0  0
 19 40  1  0  0  0  0
 19 41  1  0  0  0  0
M  CHG  1  13   1
M  END
> <s_m_source_file>
AV-unprocessed.smi

> <i_m_source_file_index>
1461

> <i_lp_mmshare_version>
43012

> <i_f3d_flags>
0

> <s_epik_input>
W0NIM11bQ0hdKFtDSDNdKVtDSDJdW05IXUMoPU8pW05IXWMxW2NIXVtjSF1bY0hdbmMxTjJbQ0gyXVtDSDJdW0NIMl1bQ0gyXTI=

> <s_epik_cmdline>
J2VwaWtfcHl0aG9uJywgJy1waCcsICc3LjAnLCAnLXRuJywgJzgnLCAnLW1hJywgJzIwMCcsICctbWV0YWxfYmluZGluZycsICctaW1hZScsICc8aW5maWxlLm1hZT4nLCAnLW9tYWUnLCAnPG91dGZpbGUubWFlPic=

> <r_lp_tautomer_probability>
0.999994

> <r_epik_Ionization_Penalty>
1.09853

> <r_epik_Ionization_Penalty_Charging>
1.09851

> <r_epik_Ionization_Penalty_Neutral>
2.1796e-05

> <r_epik_State_Penalty>
1.15544

> <r_epik_Charging_Adjusted_Penalty>
2.25394

> <i_epik_Tot_Q>
1

> <i_epik_Tot_abs_Q>
1

> <r_epik_Metal_State_Penalty>
1.24304

> <b_epik_Metal_Only>
0

> <s_lp_Force_Field>
OPLS_2005

> <r_lp_Energy>
38.2179

> <b_lp_Chiralities_Consistent>
1

> <s_lp_Variant>
AV-unprocessed.smi:1461-2

> <Gold.Version>
5.8.1

> <Gold.Id.Protein>
6NUR|6NUR_protein|mol2

> <Gold.PLP.Fitness>
49.8832

> <Gold.PLP.PLP>
-39.0114

> <Gold.PLP.part.hbond>
-3.0000

> <Gold.PLP.part.metal>
0.0000

> <Gold.PLP.part.buried>
-5.4869

> <Gold.PLP.part.nonpolar>
-31.8396

> <Gold.PLP.part.repulsive>
0.3801

> <Gold.PLP.ligand.clash>
0.0000

> <Gold.PLP.ligand.torsion>
0.6330

> <Gold.PLP.Chemscore.Hbond>
3.8960

> <Gold.PLP.Chemscore.CHOScore>
0.0000

> <Gold.PLP.Chemscore.Metal>
0.0000

> <Gold.Chemscore.Hbonds>
donor molecule, donor type, donor heavy atom, donor atom, acceptor molecule, acceptor atom, score
      L1  H     5    29       P1  8028  0.88
      L1  H     8    30       P1  8028  1.00
      L1  H    13    42       P1 10175  2.00

> <Gold.PLP.Chemscore.Internal.Correction>
0.4498

> <Gold.Rescore>
     Score         DG    S(hbond)    S(metal)    S(lipo)     H(rot)  DE(clash)    DE(int)     intcor
     20.51     -22.39       2.88        0.00      91.94       1.35       0.16       1.72       ----

> <Gold.Chemscore.Fitness>
20.5103

> <Gold.Chemscore.DG>
-22.3888

> <Gold.Chemscore.ZeroCoef>
-5.4800

> <Gold.Chemscore.Hbond>
2.8754

> <Gold.Chemscore.Metal>
0.0000

> <Gold.Chemscore.Lipo>
91.9359

> <Gold.Chemscore.Internal_Hbond>
0.0000

> <Gold.Chemscore.DEClash>
0.1588

> <Gold.Chemscore.DEInternal>
1.7198

> <Gold.Chemscore.Rot>
1.3482

> <Gold.Chemscore.Internal.Correction>
   9.000000E+99

> <Gold.Chemscore.Hbonds>
donor molecule, donor type, donor heavy atom, donor atom, acceptor molecule, acceptor atom, score
      L1  H     5    29       P1  8028  0.84
      L1  H     8    30       P1  8028  1.00
      L1  H    13    42       P1 10175  0.70

> <Gold.Chemscore.Hbond.Weighted>
-9.6037

> <Gold.Chemscore.Metal.Weighted>
-0.0000

> <Gold.Chemscore.Lipo.Weighted>
-10.7565

> <Gold.Chemscore.Internal_Hbond.Weighted>
0.0000

> <Gold.Chemscore.DEClash.Weighted>
0.1588

> <Gold.Chemscore.DEInternal.Weighted>
1.7198

> <Gold.Chemscore.Rot.Weighted>
3.4514

> <Gold.Chemscore.Internal.Correction.Weighted>
   9.000000E+99

> <Gold.Protein.RotatedTorsions>
[ 6907 6896 6895 6894 ] final  -10.91 input  -60.11 | X-H torsion
[ 7974 7965 7964 7962 ] final    9.96 input  175.53 | X-H torsion
[ 8008 7997 7996 7995 ] final   20.57 input   59.86 | X-H torsion
[ 10167 10162 10161 10158 ] final   65.82 input  -65.29 | X-H torsion
[ 10718 10713 10712 10709 ] final  -80.55 input   66.30 | X-H torsion
[ 10763 10752 10751 10750 ] final   68.43 input  -60.55 | X-H torsion
[ 11005 11000 10999 10996 ] final   20.08 input  -57.11 | X-H torsion

> <Gold.Protein.ActiveResidues>
 VAL166  LYS551  ARG553  GLY616  TRP617  ASP618  TYR619  PRO620  LYS621  CYS622 
 ASP623  PHE694  ASN695  SER759  ASP760  ASP761  ALA762  ILE779  LEU786  VAL792 
 PHE793  MET794  SER795  GLU796  ALA797  LYS798  CYS799  TRP800  GLU811  SER814 

> <Gold.Protein.RotatedAtoms>
  151.3945  135.0961  159.9536 H   0  0  0  0  0  0  0  0  0  0  0  0  # atno 6907 bound_to 6896
  152.5069  133.8948  159.7422 H   0  0  0  0  0  0  0  0  0  0  0  0  # atno 6908 bound_to 6896
  150.9408  133.6602  159.2819 H   0  0  0  0  0  0  0  0  0  0  0  0  # atno 6909 bound_to 6896
  146.2396  139.9706  142.8447 H   0  0  0  0  0  0  0  0  0  0  0  0  # atno 7974 bound_to 7965
  154.9376  140.3049  155.5136 H   0  0  0  0  0  0  0  0  0  0  0  0  # atno 8008 bound_to 7997
  156.2998  140.2342  156.4379 H   0  0  0  0  0  0  0  0  0  0  0  0  # atno 8009 bound_to 7997
  154.8177  140.0425  157.1377 H   0  0  0  0  0  0  0  0  0  0  0  0  # atno 8010 bound_to 7997
  140.1071  144.4852  150.7001 H   0  0  0  0  0  0  0  0  0  0  0  0  # atno 10167 bound_to 10162
  156.0068  130.4577  150.3817 H   0  0  0  0  0  0  0  0  0  0  0  0  # atno 10718 bound_to 10713
  153.0235  135.5248  154.7132 H   0  0  0  0  0  0  0  0  0  0  0  0  # atno 10763 bound_to 10752
  154.6209  135.2889  155.0329 H   0  0  0  0  0  0  0  0  0  0  0  0  # atno 10764 bound_to 10752
  154.1317  135.6592  153.4976 H   0  0  0  0  0  0  0  0  0  0  0  0  # atno 10765 bound_to 10752
  140.4066  134.1662  155.7665 H   0  0  0  0  0  0  0  0  0  0  0  0  # atno 11005 bound_to 11000
  145.1685  140.9709  143.4335 LP  0  0  0  0  0  0  0  0  0  0  0  0  # atno 17320 bound_to 7965
  145.0050  139.3562  143.6148 LP  0  0  0  0  0  0  0  0  0  0  0  0  # atno 17321 bound_to 7965
  140.6946  143.2396  151.5036 LP  0  0  0  0  0  0  0  0  0  0  0  0  # atno 17342 bound_to 10162
  139.5639  144.2089  152.1735 LP  0  0  0  0  0  0  0  0  0  0  0  0  # atno 17343 bound_to 10162
  157.1896  131.0412  151.2707 LP  0  0  0  0  0  0  0  0  0  0  0  0  # atno 17370 bound_to 10713
  157.4073  130.7366  149.6812 LP  0  0  0  0  0  0  0  0  0  0  0  0  # atno 17371 bound_to 10713
  141.1837  133.8359  157.1166 LP  0  0  0  0  0  0  0  0  0  0  0  0  # atno 17394 bound_to 11000
  140.0297  134.9907  157.0757 LP  0  0  0  0  0  0  0  0  0  0  0  0  # atno 17395 bound_to 11000

$$$$
