AV-unprocessed.smi:2379|AV-procd|sdf|9451|dock9
  -GOLD-   2272013 83D 1   1.00000     0.00000
 Structure written by MMmdl.
 53 55  0  0  0  0  0  0  0  0  2 V2000
  152.2874  145.8965  160.3473 C   0  0  0  0  0  0  0  0  0  0  0  0
  152.1383  144.5072  159.7635 C   0  0  0  0  0  0  0  0  0  0  0  0
  152.8791  143.4246  160.2748 C   0  0  0  0  0  0  0  0  0  0  0  0
  152.6954  142.1571  159.6879 C   0  0  0  0  0  0  0  0  0  0  0  0
  153.4610  140.9494  160.1863 C   0  0  0  0  0  0  0  0  0  0  0  0
  151.8458  141.9364  158.6619 N   0  0  0  0  0  0  0  0  0  0  0  0
  151.1279  142.9720  158.1610 C   0  0  0  0  0  0  0  0  0  0  0  0
  150.2094  142.8467  157.0852 N   0  0  0  0  0  0  0  0  0  0  0  0
  149.6001  141.7347  156.6379 C   0  0  0  0  0  0  0  0  0  0  0  0
  149.7439  140.6040  157.1041 O   0  0  0  0  0  0  0  0  0  0  0  0
  148.7914  142.0080  155.6035 N   0  0  0  0  0  0  0  0  0  0  0  0
  147.9714  141.0289  154.8958 C   0  0  2  0  0  0  0  0  0  0  0  0
  148.8528  139.8652  154.4128 C   0  0  0  0  0  0  0  0  0  0  0  0
  148.0476  138.8646  153.5665 C   0  0  0  0  0  0  0  0  0  0  0  0
  147.3959  139.5415  152.4159 N   0  3  1  0  0  0  0  0  0  0  0  0
  146.7409  138.5943  151.4775 C   0  0  0  0  0  0  0  0  0  0  0  0
  146.0836  137.4158  152.2207 C   0  0  2  0  0  0  0  0  0  0  0  0
  145.5347  136.3111  151.3377 C   0  0  0  0  0  0  0  0  0  0  0  0
  144.5545  135.6064  152.2717 C   0  0  0  0  0  0  0  0  0  0  0  0
  144.0959  136.6019  153.1821 O   0  0  0  0  0  0  0  0  0  0  0  0
  144.8239  137.8101  152.9911 C   0  0  0  0  0  0  0  0  0  0  0  0
  146.4935  140.6317  152.8689 C   0  0  0  0  0  0  0  0  0  0  0  0
  147.2630  141.6775  153.6914 C   0  0  0  0  0  0  0  0  0  0  0  0
  151.2531  144.2757  158.6914 C   0  0  0  0  0  0  0  0  0  0  0  0
  152.8839  145.8803  161.2601 H   0  0  0  0  0  0  0  0  0  0  0  0
  151.3096  146.3146  160.5879 H   0  0  0  0  0  0  0  0  0  0  0  0
  152.7768  146.5552  159.6297 H   0  0  0  0  0  0  0  0  0  0  0  0
  153.5699  143.5617  161.0942 H   0  0  0  0  0  0  0  0  0  0  0  0
  154.0259  141.1841  161.0888 H   0  0  0  0  0  0  0  0  0  0  0  0
  154.1615  140.6060  159.4247 H   0  0  0  0  0  0  0  0  0  0  0  0
  152.7766  140.1326  160.4175 H   0  0  0  0  0  0  0  0  0  0  0  0
  149.9854  143.7061  156.6061 H   0  0  0  0  0  0  0  0  0  0  0  0
  148.7372  142.9645  155.2848 H   0  0  0  0  0  0  0  0  0  0  0  0
  147.2199  140.6290  155.5797 H   0  0  0  0  0  0  0  0  0  0  0  0
  149.6837  140.2504  153.8193 H   0  0  0  0  0  0  0  0  0  0  0  0
  149.2958  139.3515  155.2668 H   0  0  0  0  0  0  0  0  0  0  0  0
  148.7202  138.0864  153.2032 H   0  0  0  0  0  0  0  0  0  0  0  0
  147.2909  138.3719  154.1791 H   0  0  0  0  0  0  0  0  0  0  0  0
  145.9561  139.1133  150.9246 H   0  0  0  0  0  0  0  0  0  0  0  0
  147.4467  138.2427  150.7229 H   0  0  0  0  0  0  0  0  0  0  0  0
  146.7955  136.9852  152.9273 H   0  0  0  0  0  0  0  0  0  0  0  0
  144.9983  136.7334  150.4864 H   0  0  0  0  0  0  0  0  0  0  0  0
  146.3052  135.6390  150.9583 H   0  0  0  0  0  0  0  0  0  0  0  0
  143.7252  135.1481  151.7321 H   0  0  0  0  0  0  0  0  0  0  0  0
  145.0619  134.8254  152.8399 H   0  0  0  0  0  0  0  0  0  0  0  0
  145.0487  138.2926  153.9426 H   0  0  0  0  0  0  0  0  0  0  0  0
  144.2087  138.4931  152.4031 H   0  0  0  0  0  0  0  0  0  0  0  0
  146.0314  141.1194  152.0113 H   0  0  0  0  0  0  0  0  0  0  0  0
  145.6818  140.2111  153.4649 H   0  0  0  0  0  0  0  0  0  0  0  0
  146.5746  142.4530  154.0301 H   0  0  0  0  0  0  0  0  0  0  0  0
  147.9951  142.1734  153.0520 H   0  0  0  0  0  0  0  0  0  0  0  0
  150.6762  145.0930  158.2827 H   0  0  0  0  0  0  0  0  0  0  0  0
  148.1425  139.9784  151.8945 H   0  0  0  0  0  0  0  0  0  0  0  0
  1  2  1  0  0  0  0
  1 25  1  0  0  0  0
  1 26  1  0  0  0  0
  1 27  1  0  0  0  0
  2 24  1  0  0  0  0
  2  3  2  0  0  0  0
  3  4  1  0  0  0  0
  3 28  1  0  0  0  0
  4  5  1  0  0  0  0
  4  6  2  0  0  0  0
  5 29  1  0  0  0  0
  5 30  1  0  0  0  0
  5 31  1  0  0  0  0
  6  7  1  0  0  0  0
  7  8  1  0  0  0  0
  7 24  2  0  0  0  0
  8  9  1  0  0  0  0
  8 32  1  0  0  0  0
  9 10  2  0  0  0  0
  9 11  1  0  0  0  0
 11 12  1  0  0  0  0
 11 33  1  0  0  0  0
 12 23  1  0  0  0  0
 12 13  1  0  0  0  0
 12 34  1  0  0  0  0
 13 14  1  0  0  0  0
 13 35  1  0  0  0  0
 13 36  1  0  0  0  0
 14 15  1  0  0  0  0
 14 37  1  0  0  0  0
 14 38  1  0  0  0  0
 15 16  1  0  0  0  0
 15 22  1  0  0  0  0
 15 53  1  0  0  0  0
 16 17  1  0  0  0  0
 16 39  1  0  0  0  0
 16 40  1  0  0  0  0
 17 21  1  0  0  0  0
 17 18  1  0  0  0  0
 17 41  1  0  0  0  0
 18 19  1  0  0  0  0
 18 42  1  0  0  0  0
 18 43  1  0  0  0  0
 19 20  1  0  0  0  0
 19 44  1  0  0  0  0
 19 45  1  0  0  0  0
 20 21  1  0  0  0  0
 21 46  1  0  0  0  0
 21 47  1  0  0  0  0
 22 23  1  0  0  0  0
 22 48  1  0  0  0  0
 22 49  1  0  0  0  0
 23 50  1  0  0  0  0
 23 51  1  0  0  0  0
 24 52  1  0  0  0  0
M  CHG  1  15   1
M  END
> <s_m_source_file>
AV-unprocessed.smi

> <i_m_source_file_index>
2379

> <i_lp_mmshare_version>
43012

> <i_f3d_flags>
0

> <s_epik_input>
W0NIM11jMVtjSF1jKFtDSDNdKW5jKFtjSF0xKVtOSF1DKD1PKVtOSF1bQ0hdMltDSDJdW0NIMl1OKFtDSDJdW0NIMl0yKVtDSDJdW0NAQEhdM1tDSDJdW0NIMl1PW0NIMl0z

> <s_epik_cmdline>
J2VwaWtfcHl0aG9uJywgJy1waCcsICc3LjAnLCAnLXRuJywgJzgnLCAnLW1hJywgJzIwMCcsICctbWV0YWxfYmluZGluZycsICctaW1hZScsICc8aW5maWxlLm1hZT4nLCAnLW9tYWUnLCAnPG91dGZpbGUubWFlPic=

> <r_epik_Ionization_Penalty>
0.00766556

> <r_epik_Ionization_Penalty_Charging>
0.00747775

> <r_epik_Ionization_Penalty_Neutral>
0.00018781

> <r_epik_State_Penalty>
0.00558817

> <r_epik_Charging_Adjusted_Penalty>
0.0130659

> <i_epik_Tot_Q>
1

> <i_epik_Tot_abs_Q>
1

> <r_epik_Metal_State_Penalty>
-0

> <b_epik_Metal_Only>
0

> <s_lp_Force_Field>
OPLS_2005

> <r_lp_Energy>
36.075

> <b_lp_Chiralities_Consistent>
1

> <s_lp_Variant>
AV-unprocessed.smi:2379-1

> <Gold.Version>
5.8.1

> <Gold.Id.Protein>
6NUR|6NUR_protein|mol2

> <Gold.PLP.Fitness>
52.3356

> <Gold.PLP.PLP>
-44.2911

> <Gold.PLP.part.hbond>
-3.0000

> <Gold.PLP.part.metal>
0.0000

> <Gold.PLP.part.buried>
3.1221

> <Gold.PLP.part.nonpolar>
-44.1236

> <Gold.PLP.part.repulsive>
0.3405

> <Gold.PLP.ligand.clash>
0.0000

> <Gold.PLP.ligand.torsion>
0.4844

> <Gold.PLP.Chemscore.Hbond>
2.9920

> <Gold.PLP.Chemscore.CHOScore>
0.0000

> <Gold.PLP.Chemscore.Metal>
0.0000

> <Gold.Chemscore.Hbonds>
donor molecule, donor type, donor heavy atom, donor atom, acceptor molecule, acceptor atom, score
      L1  H     8    32       P1  8028  1.00
      L1  H    11    33       P1  8028  0.99
      L1  H    15    53       P1  7957  1.00

> <Gold.PLP.Chemscore.Internal.Correction>
0.0373

> <Gold.Rescore>
     Score         DG    S(hbond)    S(metal)    S(lipo)     H(rot)  DE(clash)    DE(int)     intcor
     22.14     -26.12       2.91        0.00     123.24       1.37       1.49       2.48       ----

> <Gold.Chemscore.Fitness>
22.1442

> <Gold.Chemscore.DG>
-26.1169

> <Gold.Chemscore.ZeroCoef>
-5.4800

> <Gold.Chemscore.Hbond>
2.9136

> <Gold.Chemscore.Metal>
0.0000

> <Gold.Chemscore.Lipo>
123.2404

> <Gold.Chemscore.Internal_Hbond>
0.0000

> <Gold.Chemscore.DEClash>
1.4910

> <Gold.Chemscore.DEInternal>
2.4816

> <Gold.Chemscore.Rot>
1.3725

> <Gold.Chemscore.Internal.Correction>
   9.000000E+99

> <Gold.Chemscore.Hbonds>
donor molecule, donor type, donor heavy atom, donor atom, acceptor molecule, acceptor atom, score
      L1  H     8    32       P1  8028  0.97
      L1  H    11    33       P1  8028  0.94
      L1  H    15    53       P1  7957  0.98

> <Gold.Chemscore.Hbond.Weighted>
-9.7313

> <Gold.Chemscore.Metal.Weighted>
-0.0000

> <Gold.Chemscore.Lipo.Weighted>
-14.4191

> <Gold.Chemscore.Internal_Hbond.Weighted>
0.0000

> <Gold.Chemscore.DEClash.Weighted>
1.4910

> <Gold.Chemscore.DEInternal.Weighted>
2.4816

> <Gold.Chemscore.Rot.Weighted>
3.5136

> <Gold.Chemscore.Internal.Correction.Weighted>
   9.000000E+99

> <Gold.Protein.RotatedTorsions>
[ 6907 6896 6895 6894 ] final  133.42 input  -60.11 | X-H torsion
[ 7974 7965 7964 7962 ] final  -77.89 input  175.53 | X-H torsion
[ 8008 7997 7996 7995 ] final -100.61 input   59.86 | X-H torsion
[ 10167 10162 10161 10158 ] final   32.73 input  -65.29 | X-H torsion
[ 10718 10713 10712 10709 ] final   24.27 input   66.30 | X-H torsion
[ 10763 10752 10751 10750 ] final -161.71 input  -60.55 | X-H torsion
[ 11005 11000 10999 10996 ] final -156.26 input  -57.11 | X-H torsion

> <Gold.Protein.ActiveResidues>
 VAL166  LYS551  ARG553  GLY616  TRP617  ASP618  TYR619  PRO620  LYS621  CYS622 
 ASP623  PHE694  ASN695  SER759  ASP760  ASP761  ALA762  ILE779  LEU786  VAL792 
 PHE793  MET794  SER795  GLU796  ALA797  LYS798  CYS799  TRP800  GLU811  SER814 

> <Gold.Protein.RotatedAtoms>
  152.3221  133.5865  159.5751 H   0  0  0  0  0  0  0  0  0  0  0  0  # atno 6907 bound_to 6896
  150.7377  133.9995  159.3642 H   0  0  0  0  0  0  0  0  0  0  0  0  # atno 6908 bound_to 6896
  151.7878  135.0744  160.0434 H   0  0  0  0  0  0  0  0  0  0  0  0  # atno 6909 bound_to 6896
  145.5937  140.9424  143.1278 H   0  0  0  0  0  0  0  0  0  0  0  0  # atno 7974 bound_to 7965
  154.8309  140.0440  157.1476 H   0  0  0  0  0  0  0  0  0  0  0  0  # atno 8008 bound_to 7997
  154.9153  140.3019  155.5224 H   0  0  0  0  0  0  0  0  0  0  0  0  # atno 8009 bound_to 7997
  156.2987  140.2350  156.4197 H   0  0  0  0  0  0  0  0  0  0  0  0  # atno 8010 bound_to 7997
  140.4472  144.1101  150.6184 H   0  0  0  0  0  0  0  0  0  0  0  0  # atno 10167 bound_to 10162
  157.1774  130.6787  149.6100 H   0  0  0  0  0  0  0  0  0  0  0  0  # atno 10718 bound_to 10713
  154.7279  135.3040  154.8940 H   0  0  0  0  0  0  0  0  0  0  0  0  # atno 10763 bound_to 10752
  153.9792  135.6732  153.4753 H   0  0  0  0  0  0  0  0  0  0  0  0  # atno 10764 bound_to 10752
  153.0892  135.4968  154.8576 H   0  0  0  0  0  0  0  0  0  0  0  0  # atno 10765 bound_to 10752
  140.6775  134.4181  157.5228 H   0  0  0  0  0  0  0  0  0  0  0  0  # atno 11005 bound_to 11000
  144.7340  139.7640  143.7336 LP  0  0  0  0  0  0  0  0  0  0  0  0  # atno 17320 bound_to 7965
  146.1628  139.4748  142.9977 LP  0  0  0  0  0  0  0  0  0  0  0  0  # atno 17321 bound_to 7965
  140.4250  143.2594  151.9668 LP  0  0  0  0  0  0  0  0  0  0  0  0  # atno 17342 bound_to 10162
  139.4794  144.5796  151.7954 LP  0  0  0  0  0  0  0  0  0  0  0  0  # atno 17343 bound_to 10162
  155.9729  130.4658  150.6267 LP  0  0  0  0  0  0  0  0  0  0  0  0  # atno 17370 bound_to 10713
  157.3985  131.0806  151.1330 LP  0  0  0  0  0  0  0  0  0  0  0  0  # atno 17371 bound_to 10713
  139.8962  134.8665  156.2098 LP  0  0  0  0  0  0  0  0  0  0  0  0  # atno 17394 bound_to 11000
  141.0344  133.6971  156.1486 LP  0  0  0  0  0  0  0  0  0  0  0  0  # atno 17395 bound_to 11000

$$$$
