AV-unprocessed.smi:2248|AV-procd|sdf|9095|dock3
  -GOLD-   2272012293D 1   1.00000     0.00000
 Structure written by MMmdl.
 35 36  0  0  0  0  0  0  0  0  1 V2000
  153.3832  141.3785  160.4282 C   0  0  0  0  0  0  0  0  0  0  0  0
  152.6444  142.4987  159.7267 C   0  0  0  0  0  0  0  0  0  0  0  0
  152.8011  143.8370  160.1373 C   0  0  0  0  0  0  0  0  0  0  0  0
  152.0889  144.8309  159.4424 C   0  0  0  0  0  0  0  0  0  0  0  0
  151.2575  144.4487  158.3719 C   0  0  0  0  0  0  0  0  0  0  0  0
  151.1583  143.0833  158.0218 C   0  0  0  0  0  0  0  0  0  0  0  0
  150.3014  142.8038  156.9241 N   0  0  0  0  0  0  0  0  0  0  0  0
  150.3309  141.7450  156.0956 C   0  0  0  0  0  0  0  0  0  0  0  0
  151.1075  140.7930  156.1816 O   0  0  0  0  0  0  0  0  0  0  0  0
  149.3943  141.8484  155.1415 N   0  0  0  0  0  0  0  0  0  0  0  0
  149.1773  140.8732  154.0785 C   0  0  1  0  0  0  0  0  0  0  0  0
  149.2282  139.4734  154.6261 C   0  0  0  0  0  0  0  0  0  0  0  0
  148.1004  138.7978  154.4171 C   0  0  0  0  0  0  0  0  0  0  0  0
  147.0505  139.6128  153.7085 C   0  0  2  0  0  0  0  0  0  0  0  0
  146.5480  138.9208  152.4305 C   0  0  0  0  0  0  0  0  0  0  0  0
  147.6396  138.5390  151.6206 O   0  0  0  0  0  0  0  0  0  0  0  0
  147.7606  140.9684  153.4531 C   0  0  0  0  0  0  0  0  0  0  0  0
  151.8484  142.1322  158.6994 N   0  0  0  0  0  0  0  0  0  0  0  0
  149.9482  140.9740  153.3124 H   0  0  0  0  0  0  0  0  0  0  0  0
  146.2209  139.7519  154.4033 H   0  0  0  0  0  0  0  0  0  0  0  0
  153.7643  141.7047  161.3963 H   0  0  0  0  0  0  0  0  0  0  0  0
  154.2265  141.0462  159.8225 H   0  0  0  0  0  0  0  0  0  0  0  0
  152.7225  140.5268  160.5945 H   0  0  0  0  0  0  0  0  0  0  0  0
  153.4490  144.0974  160.9614 H   0  0  0  0  0  0  0  0  0  0  0  0
  152.1796  145.8695  159.7238 H   0  0  0  0  0  0  0  0  0  0  0  0
  150.7047  145.2004  157.8273 H   0  0  0  0  0  0  0  0  0  0  0  0
  149.5944  143.4994  156.7380 H   0  0  0  0  0  0  0  0  0  0  0  0
  148.7973  142.6623  155.1420 H   0  0  0  0  0  0  0  0  0  0  0  0
  150.1042  139.0803  155.1206 H   0  0  0  0  0  0  0  0  0  0  0  0
  147.9229  137.7783  154.7267 H   0  0  0  0  0  0  0  0  0  0  0  0
  145.9505  138.0407  152.6711 H   0  0  0  0  0  0  0  0  0  0  0  0
  145.9134  139.5964  151.8561 H   0  0  0  0  0  0  0  0  0  0  0  0
  148.3676  139.1118  151.8077 H   0  0  0  0  0  0  0  0  0  0  0  0
  147.1777  141.7854  153.8810 H   0  0  0  0  0  0  0  0  0  0  0  0
  147.8449  141.1762  152.3856 H   0  0  0  0  0  0  0  0  0  0  0  0
  1  2  1  0  0  0  0
  1 21  1  0  0  0  0
  1 22  1  0  0  0  0
  1 23  1  0  0  0  0
  2 18  1  0  0  0  0
  2  3  2  0  0  0  0
  3  4  1  0  0  0  0
  3 24  1  0  0  0  0
  4  5  2  0  0  0  0
  4 25  1  0  0  0  0
  5  6  1  0  0  0  0
  5 26  1  0  0  0  0
  6  7  1  0  0  0  0
  6 18  2  0  0  0  0
  7  8  1  0  0  0  0
  7 27  1  0  0  0  0
  8  9  2  0  0  0  0
  8 10  1  0  0  0  0
 10 11  1  0  0  0  0
 10 28  1  0  0  0  0
 11 19  1  0  0  0  0
 11 17  1  0  0  0  0
 11 12  1  0  0  0  0
 12 13  2  0  0  0  0
 12 29  1  0  0  0  0
 13 14  1  0  0  0  0
 13 30  1  0  0  0  0
 14 20  1  0  0  0  0
 14 15  1  0  0  0  0
 14 17  1  0  0  0  0
 15 16  1  0  0  0  0
 15 31  1  0  0  0  0
 15 32  1  0  0  0  0
 16 33  1  0  0  0  0
 17 34  1  0  0  0  0
 17 35  1  0  0  0  0
M  END
> <s_m_source_file>
AV-unprocessed.smi

> <i_m_source_file_index>
2248

> <i_lp_mmshare_version>
43012

> <i_f3d_flags>
0

> <s_epik_input>
W0NIM11jMVtjSF1bY0hdW2NIXWMobjEpW05IXUMoPU8pW05IXVtDQEBIXTJbQ0hdPVtDSF1bQ0BASF0oW0NIMl0yKVtDSDJdW09IXQ==

> <s_epik_cmdline>
J2VwaWtfcHl0aG9uJywgJy1waCcsICc3LjAnLCAnLXRuJywgJzgnLCAnLW1hJywgJzIwMCcsICctbWV0YWxfYmluZGluZycsICctaW1hZScsICc8aW5maWxlLm1hZT4nLCAnLW9tYWUnLCAnPG91dGZpbGUubWFlPic=

> <r_lp_tautomer_probability>
1

> <r_epik_Ionization_Penalty>
8.36606e-05

> <r_epik_Ionization_Penalty_Charging>
0

> <r_epik_Ionization_Penalty_Neutral>
8.36606e-05

> <r_epik_State_Penalty>
-0

> <r_epik_Charging_Adjusted_Penalty>
0

> <i_epik_Tot_Q>
0

> <i_epik_Tot_abs_Q>
0

> <r_epik_Metal_State_Penalty>
-0

> <b_epik_Metal_Only>
0

> <s_lp_Force_Field>
OPLS_2005

> <r_lp_Energy>
17.7077

> <b_lp_Chiralities_Consistent>
1

> <s_lp_Variant>
AV-unprocessed.smi:2248-2

> <Gold.Version>
5.8.1

> <Gold.Id.Protein>
6NUR|6NUR_protein|mol2

> <Gold.PLP.Fitness>
51.8174

> <Gold.PLP.PLP>
-42.3562

> <Gold.PLP.part.hbond>
-4.8293

> <Gold.PLP.part.metal>
0.0000

> <Gold.PLP.part.buried>
-3.0558

> <Gold.PLP.part.nonpolar>
-34.8601

> <Gold.PLP.part.repulsive>
0.2297

> <Gold.PLP.ligand.clash>
0.0000

> <Gold.PLP.ligand.torsion>
0.4043

> <Gold.PLP.Chemscore.Hbond>
3.4180

> <Gold.PLP.Chemscore.CHOScore>
0.0000

> <Gold.PLP.Chemscore.Metal>
0.0000

> <Gold.Chemscore.Hbonds>
donor molecule, donor type, donor heavy atom, donor atom, acceptor molecule, acceptor atom, score
      L1  H     7    27       P1  8028  1.00
      L1  H    10    28       P1  8028  0.64
      L1  H    16    33       P1  7957  0.88
      P1  H  7954  7966       L1    16  0.93

> <Gold.PLP.Chemscore.Internal.Correction>
0.0157

> <Gold.Rescore>
     Score         DG    S(hbond)    S(metal)    S(lipo)     H(rot)  DE(clash)    DE(int)     intcor
     18.70     -21.98       2.85        0.00      99.49       1.82       0.37       2.91       ----

> <Gold.Chemscore.Fitness>
18.6963

> <Gold.Chemscore.DG>
-21.9763

> <Gold.Chemscore.ZeroCoef>
-5.4800

> <Gold.Chemscore.Hbond>
2.8474

> <Gold.Chemscore.Metal>
0.0000

> <Gold.Chemscore.Lipo>
99.4947

> <Gold.Chemscore.Internal_Hbond>
0.0000

> <Gold.Chemscore.DEClash>
0.3703

> <Gold.Chemscore.DEInternal>
2.9097

> <Gold.Chemscore.Rot>
1.8184

> <Gold.Chemscore.Internal.Correction>
   9.000000E+99

> <Gold.Chemscore.Hbonds>
donor molecule, donor type, donor heavy atom, donor atom, acceptor molecule, acceptor atom, score
      L1  H     7    27       P1  8028  0.94
      L1  H    10    28       P1  8028  0.63
      L1  H    16    33       P1  7957  0.83
      P1  H  7954  7966       L1    16  0.20

> <Gold.Chemscore.Hbond.Weighted>
-9.5105

> <Gold.Chemscore.Metal.Weighted>
-0.0000

> <Gold.Chemscore.Lipo.Weighted>
-11.6409

> <Gold.Chemscore.Internal_Hbond.Weighted>
0.0000

> <Gold.Chemscore.DEClash.Weighted>
0.3703

> <Gold.Chemscore.DEInternal.Weighted>
2.9097

> <Gold.Chemscore.Rot.Weighted>
4.6551

> <Gold.Chemscore.Internal.Correction.Weighted>
   9.000000E+99

> <Gold.Protein.RotatedTorsions>
[ 6907 6896 6895 6894 ] final   85.48 input  -60.11 | X-H torsion
[ 7974 7965 7964 7962 ] final  -25.40 input  175.53 | X-H torsion
[ 8008 7997 7996 7995 ] final    8.10 input   59.86 | X-H torsion
[ 10167 10162 10161 10158 ] final -104.93 input  -65.29 | X-H torsion
[ 10718 10713 10712 10709 ] final -119.05 input   66.30 | X-H torsion
[ 10763 10752 10751 10750 ] final   54.94 input  -60.55 | X-H torsion
[ 11005 11000 10999 10996 ] final   98.03 input  -57.11 | X-H torsion

> <Gold.Protein.ActiveResidues>
 VAL166  LYS551  ARG553  GLY616  TRP617  ASP618  TYR619  PRO620  LYS621  CYS622 
 ASP623  PHE694  ASN695  SER759  ASP760  ASP761  ALA762  ILE779  LEU786  VAL792 
 PHE793  MET794  SER795  GLU796  ALA797  LYS798  CYS799  TRP800  GLU811  SER814 

> <Gold.Protein.RotatedAtoms>
  152.5375  134.2580  159.8923 H   0  0  0  0  0  0  0  0  0  0  0  0  # atno 6907 bound_to 6896
  151.2541  133.4329  159.2620 H   0  0  0  0  0  0  0  0  0  0  0  0  # atno 6908 bound_to 6896
  151.0513  134.9689  159.8269 H   0  0  0  0  0  0  0  0  0  0  0  0  # atno 6909 bound_to 6896
  146.1493  140.4881  142.8618 H   0  0  0  0  0  0  0  0  0  0  0  0  # atno 7974 bound_to 7965
  154.7624  140.2787  155.6203 H   0  0  0  0  0  0  0  0  0  0  0  0  # atno 8008 bound_to 7997
  156.2918  140.2657  156.2333 H   0  0  0  0  0  0  0  0  0  0  0  0  # atno 8009 bound_to 7997
  155.0001  140.0373  157.2346 H   0  0  0  0  0  0  0  0  0  0  0  0  # atno 8010 bound_to 7997
  140.2040  143.3797  152.1106 H   0  0  0  0  0  0  0  0  0  0  0  0  # atno 10167 bound_to 10162
  156.1152  130.6280  150.9368 H   0  0  0  0  0  0  0  0  0  0  0  0  # atno 10718 bound_to 10713
  152.9810  135.5728  154.4986 H   0  0  0  0  0  0  0  0  0  0  0  0  # atno 10763 bound_to 10752
  154.4509  135.2778  155.1784 H   0  0  0  0  0  0  0  0  0  0  0  0  # atno 10764 bound_to 10752
  154.3412  135.6229  153.5651 H   0  0  0  0  0  0  0  0  0  0  0  0  # atno 10765 bound_to 10752
  139.8773  134.9029  156.4395 H   0  0  0  0  0  0  0  0  0  0  0  0  # atno 11005 bound_to 11000
  144.7885  140.5984  143.6558 LP  0  0  0  0  0  0  0  0  0  0  0  0  # atno 17320 bound_to 7965
  145.4861  139.1492  143.3735 LP  0  0  0  0  0  0  0  0  0  0  0  0  # atno 17321 bound_to 7965
  139.5206  144.7035  151.5425 LP  0  0  0  0  0  0  0  0  0  0  0  0  # atno 17342 bound_to 10162
  140.6370  143.8964  150.6656 LP  0  0  0  0  0  0  0  0  0  0  0  0  # atno 17343 bound_to 10162
  157.6335  131.0918  150.8394 LP  0  0  0  0  0  0  0  0  0  0  0  0  # atno 17370 bound_to 10713
  156.8499  130.5077  149.5313 LP  0  0  0  0  0  0  0  0  0  0  0  0  # atno 17371 bound_to 10713
  140.9009  133.7780  155.9679 LP  0  0  0  0  0  0  0  0  0  0  0  0  # atno 17394 bound_to 11000
  140.8652  134.2793  157.5216 LP  0  0  0  0  0  0  0  0  0  0  0  0  # atno 17395 bound_to 11000

$$$$
