AV-unprocessed.smi:2247|AV-procd|sdf|9092|dock2
  -GOLD-   2272012293D 1   1.00000     0.00000
 Structure written by MMmdl.
 33 34  0  0  0  0  0  0  0  0  2 V2000
  152.4104  143.9209  161.6575 C   0  0  0  0  0  0  0  0  0  0  0  0
  152.3558  144.4299  160.2057 C   0  0  0  0  0  0  0  0  0  0  0  0
  151.3762  145.6031  160.0448 C   0  0  0  0  0  0  0  0  0  0  0  0
  152.0378  143.3638  159.2462 N   0  0  0  0  0  0  0  0  0  0  0  0
  151.8486  141.9807  159.6528 C   0  0  0  0  0  0  0  0  0  0  0  0
  151.2046  141.3079  158.4377 C   0  0  0  0  0  0  0  0  0  0  0  0
  151.5443  142.1999  157.2330 C   0  0  1  0  0  0  0  0  0  0  0  0
  150.3840  142.3101  156.3497 N   0  0  0  0  0  0  0  0  0  0  0  0
  150.0841  141.4867  155.3345 C   0  0  0  0  0  0  0  0  0  0  0  0
  150.8240  140.5348  155.0754 O   0  0  0  0  0  0  0  0  0  0  0  0
  148.9434  141.8153  154.6868 N   0  5  0  0  0  0  0  0  0  0  0  0
  148.2075  140.8566  154.1016 C   0  0  0  0  0  0  0  0  0  0  0  0
  147.1166  141.0411  153.3561 N   0  0  0  0  0  0  0  0  0  0  0  0
  146.6970  139.7750  152.9784 C   0  0  0  0  0  0  0  0  0  0  0  0
  147.5598  138.8657  153.5268 C   0  0  0  0  0  0  0  0  0  0  0  0
  148.5145  139.5356  154.2408 O   0  0  0  0  0  0  0  0  0  0  0  0
  151.8509  143.5271  157.9287 C   0  0  0  0  0  0  0  0  0  0  0  0
  151.9326  144.5960  157.3233 O   0  0  0  0  0  0  0  0  0  0  0  0
  152.7457  144.7092  162.3318 H   0  0  0  0  0  0  0  0  0  0  0  0
  153.1078  143.0885  161.7573 H   0  0  0  0  0  0  0  0  0  0  0  0
  151.4337  143.5874  162.0089 H   0  0  0  0  0  0  0  0  0  0  0  0
  153.3550  144.8012  159.9707 H   0  0  0  0  0  0  0  0  0  0  0  0
  151.6286  146.4196  160.7217 H   0  0  0  0  0  0  0  0  0  0  0  0
  150.3523  145.2962  160.2605 H   0  0  0  0  0  0  0  0  0  0  0  0
  151.3977  146.0006  159.0295 H   0  0  0  0  0  0  0  0  0  0  0  0
  152.8175  141.5308  159.8732 H   0  0  0  0  0  0  0  0  0  0  0  0
  151.2176  141.8987  160.5386 H   0  0  0  0  0  0  0  0  0  0  0  0
  151.5560  140.2846  158.3023 H   0  0  0  0  0  0  0  0  0  0  0  0
  150.1247  141.2594  158.5904 H   0  0  0  0  0  0  0  0  0  0  0  0
  152.4351  141.8393  156.7159 H   0  0  0  0  0  0  0  0  0  0  0  0
  149.7535  143.0794  156.5210 H   0  0  0  0  0  0  0  0  0  0  0  0
  145.8269  139.6229  152.3571 H   0  0  0  0  0  0  0  0  0  0  0  0
  147.6316  137.7889  153.5079 H   0  0  0  0  0  0  0  0  0  0  0  0
  1  2  1  0  0  0  0
  1 19  1  0  0  0  0
  1 20  1  0  0  0  0
  1 21  1  0  0  0  0
  2  3  1  0  0  0  0
  2  4  1  0  0  0  0
  2 22  1  0  0  0  0
  3 23  1  0  0  0  0
  3 24  1  0  0  0  0
  3 25  1  0  0  0  0
  4 17  1  0  0  0  0
  4  5  1  0  0  0  0
  5  6  1  0  0  0  0
  5 26  1  0  0  0  0
  5 27  1  0  0  0  0
  6  7  1  0  0  0  0
  6 28  1  0  0  0  0
  6 29  1  0  0  0  0
  7  8  1  0  0  0  0
  7 17  1  0  0  0  0
  7 30  1  0  0  0  0
  8  9  1  0  0  0  0
  8 31  1  0  0  0  0
  9 10  2  0  0  0  0
  9 11  1  0  0  0  0
 11 12  1  0  0  0  0
 12 16  1  0  0  0  0
 12 13  2  0  0  0  0
 13 14  1  0  0  0  0
 14 15  2  0  0  0  0
 14 32  1  0  0  0  0
 15 16  1  0  0  0  0
 15 33  1  0  0  0  0
 17 18  2  0  0  0  0
M  CHG  1  11  -1
M  END
> <s_m_source_file>
AV-unprocessed.smi

> <i_m_source_file_index>
2247

> <i_lp_mmshare_version>
43012

> <i_f3d_flags>
0

> <s_epik_input>
W0NIM11bQ0hdKFtDSDNdKU4xW0NIMl1bQ0gyXVtDQEhdKEMxPU8pW05IXUMoPU8pW05IXWMybltjSF1bY0hdbzI=

> <s_epik_cmdline>
J2VwaWtfcHl0aG9uJywgJy1waCcsICc3LjAnLCAnLXRuJywgJzgnLCAnLW1hJywgJzIwMCcsICctbWV0YWxfYmluZGluZycsICctaW1hZScsICc8aW5maWxlLm1hZT4nLCAnLW9tYWUnLCAnPG91dGZpbGUubWFlPic=

> <r_lp_tautomer_probability>
0.785861

> <r_epik_Ionization_Penalty>
8.37364

> <r_epik_Ionization_Penalty_Charging>
6.20178

> <r_epik_Ionization_Penalty_Neutral>
2.17186

> <r_epik_State_Penalty>
6.22234

> <r_epik_Charging_Adjusted_Penalty>
12.4241

> <i_epik_Tot_Q>
-1

> <i_epik_Tot_abs_Q>
1

> <r_epik_Metal_State_Penalty>
2.14252

> <b_epik_Metal_Only>
1

> <s_lp_Force_Field>
OPLS_2005

> <r_lp_Energy>
16.3592

> <b_lp_Chiralities_Consistent>
1

> <s_lp_Variant>
AV-unprocessed.smi:2247-7

> <Gold.Version>
5.8.1

> <Gold.Id.Protein>
6NUR|6NUR_protein|mol2

> <Gold.PLP.Fitness>
44.5616

> <Gold.PLP.PLP>
-34.1184

> <Gold.PLP.part.hbond>
-2.5815

> <Gold.PLP.part.metal>
0.0000

> <Gold.PLP.part.buried>
-2.4913

> <Gold.PLP.part.nonpolar>
-29.3374

> <Gold.PLP.part.repulsive>
1.0589

> <Gold.PLP.ligand.clash>
0.0000

> <Gold.PLP.ligand.torsion>
0.6015

> <Gold.PLP.Chemscore.Hbond>
1.8596

> <Gold.PLP.Chemscore.CHOScore>
1.9890

> <Gold.PLP.Chemscore.Metal>
0.0000

> <Gold.Chemscore.Hbonds>
donor molecule, donor type, donor heavy atom, donor atom, acceptor molecule, acceptor atom, score
      L1  H     8    31       P1  8028  0.84
      P1  H  7989  7998       L1    10  0.99
      L1  C    14    32       P1 10175  1.00
      L1  C    15    33       P1  7948  0.77

> <Gold.PLP.Chemscore.Internal.Correction>
0.1005

> <Gold.Rescore>
     Score         DG    S(hbond)    S(metal)    S(lipo)     H(rot)  DE(clash)    DE(int)     intcor
      9.49     -14.06       1.12        0.00      70.19       1.32       0.83       3.74       ----

> <Gold.Chemscore.Fitness>
9.4930

> <Gold.Chemscore.DG>
-14.0583

> <Gold.Chemscore.ZeroCoef>
-5.4800

> <Gold.Chemscore.Hbond>
1.1227

> <Gold.Chemscore.Metal>
0.0000

> <Gold.Chemscore.Lipo>
70.1925

> <Gold.Chemscore.Internal_Hbond>
0.0000

> <Gold.Chemscore.DEClash>
0.8285

> <Gold.Chemscore.DEInternal>
3.7368

> <Gold.Chemscore.Rot>
1.3219

> <Gold.Chemscore.Internal.Correction>
   9.000000E+99

> <Gold.Chemscore.Hbonds>
donor molecule, donor type, donor heavy atom, donor atom, acceptor molecule, acceptor atom, score
      L1  H     8    31       P1  8028  0.79
      P1  H  7989  7998       L1    10  0.57

> <Gold.Chemscore.Hbond.Weighted>
-3.7500

> <Gold.Chemscore.Metal.Weighted>
-0.0000

> <Gold.Chemscore.Lipo.Weighted>
-8.2125

> <Gold.Chemscore.Internal_Hbond.Weighted>
0.0000

> <Gold.Chemscore.DEClash.Weighted>
0.8285

> <Gold.Chemscore.DEInternal.Weighted>
3.7368

> <Gold.Chemscore.Rot.Weighted>
3.3842

> <Gold.Chemscore.Internal.Correction.Weighted>
   9.000000E+99

> <Gold.Protein.RotatedTorsions>
[ 6907 6896 6895 6894 ] final  117.59 input  -60.11 | X-H torsion
[ 7974 7965 7964 7962 ] final   15.60 input  175.53 | X-H torsion
[ 8008 7997 7996 7995 ] final  127.28 input   59.86 | X-H torsion
[ 10167 10162 10161 10158 ] final    5.85 input  -65.29 | X-H torsion
[ 10718 10713 10712 10709 ] final  151.91 input   66.30 | X-H torsion
[ 10763 10752 10751 10750 ] final   97.90 input  -60.55 | X-H torsion
[ 11005 11000 10999 10996 ] final  -80.93 input  -57.11 | X-H torsion

> <Gold.Protein.ActiveResidues>
 VAL166  LYS551  ARG553  GLY616  TRP617  ASP618  TYR619  PRO620  LYS621  CYS622 
 ASP623  PHE694  ASN695  SER759  ASP760  ASP761  ALA762  ILE779  LEU786  VAL792 
 PHE793  MET794  SER795  GLU796  ALA797  LYS798  CYS799  TRP800  GLU811  SER814 

> <Gold.Protein.RotatedAtoms>
  152.4601  133.7805  159.6847 H   0  0  0  0  0  0  0  0  0  0  0  0  # atno 6907 bound_to 6896
  150.8542  133.7731  159.3021 H   0  0  0  0  0  0  0  0  0  0  0  0  # atno 6908 bound_to 6896
  151.5317  135.1071  159.9956 H   0  0  0  0  0  0  0  0  0  0  0  0  # atno 6909 bound_to 6896
  146.2273  139.8870  142.8561 H   0  0  0  0  0  0  0  0  0  0  0  0  # atno 7974 bound_to 7965
  156.2886  140.2672  156.2247 H   0  0  0  0  0  0  0  0  0  0  0  0  # atno 8008 bound_to 7997
  155.0132  140.0387  157.2426 H   0  0  0  0  0  0  0  0  0  0  0  0  # atno 8009 bound_to 7997
  154.7500  140.2741  155.6306 H   0  0  0  0  0  0  0  0  0  0  0  0  # atno 8010 bound_to 7997
  140.6460  143.7661  150.7499 H   0  0  0  0  0  0  0  0  0  0  0  0  # atno 10167 bound_to 10162
  157.2646  131.0805  151.1642 H   0  0  0  0  0  0  0  0  0  0  0  0  # atno 10718 bound_to 10713
  153.2825  135.4167  155.1091 H   0  0  0  0  0  0  0  0  0  0  0  0  # atno 10763 bound_to 10752
  154.8494  135.3498  154.6093 H   0  0  0  0  0  0  0  0  0  0  0  0  # atno 10764 bound_to 10752
  153.6514  135.7052  153.5265 H   0  0  0  0  0  0  0  0  0  0  0  0  # atno 10765 bound_to 10752
  141.1667  133.7173  156.8347 H   0  0  0  0  0  0  0  0  0  0  0  0  # atno 11005 bound_to 11000
  145.2456  141.0025  143.3911 LP  0  0  0  0  0  0  0  0  0  0  0  0  # atno 17320 bound_to 7965
  144.9416  139.4182  143.6446 LP  0  0  0  0  0  0  0  0  0  0  0  0  # atno 17321 bound_to 7965
  140.1302  143.4533  152.2259 LP  0  0  0  0  0  0  0  0  0  0  0  0  # atno 17342 bound_to 10162
  139.5671  144.7441  151.3993 LP  0  0  0  0  0  0  0  0  0  0  0  0  # atno 17343 bound_to 10162
  157.3138  130.6903  149.6230 LP  0  0  0  0  0  0  0  0  0  0  0  0  # atno 17370 bound_to 10713
  155.9663  130.4356  150.5097 LP  0  0  0  0  0  0  0  0  0  0  0  0  # atno 17371 bound_to 10713
  140.2026  134.8886  157.3186 LP  0  0  0  0  0  0  0  0  0  0  0  0  # atno 17394 bound_to 11000
  140.2171  134.4068  155.7584 LP  0  0  0  0  0  0  0  0  0  0  0  0  # atno 17395 bound_to 11000

$$$$
