AV-unprocessed.smi:87|AV-procd|sdf|823|dock9
  -GOLD-   2262017233D 1   1.00000     0.00000
 Structure written by MMmdl.
 58 60  0  0  0  0  0  0  0  0  1 V2000
  153.4262  142.5785  162.4948 C   0  0  0  0  0  0  0  0  0  0  0  0
  153.0757  143.4065  161.2499 C   0  0  0  0  0  0  0  0  0  0  0  0
  153.1616  142.6325  159.9121 C   0  0  0  0  0  0  0  0  0  0  0  0
  153.0774  143.5945  158.7033 C   0  0  0  0  0  0  0  0  0  0  0  0
  151.9510  144.6344  158.8020 C   0  0  0  0  0  0  0  0  0  0  0  0
  152.0540  141.5514  159.8196 C   0  0  0  0  0  0  0  0  0  0  0  0
  151.8114  141.0401  158.4659 N   0  0  0  0  0  0  0  0  0  0  0  0
  152.5508  139.8692  157.9862 C   0  0  0  0  0  0  0  0  0  0  0  0
  153.5014  139.2907  159.0427 C   0  0  0  0  0  0  0  0  0  0  0  0
  153.0927  137.9507  159.4883 C   0  0  0  0  0  0  0  0  0  0  0  0
  152.7713  136.8963  159.8393 N   0  0  0  0  0  0  0  0  0  0  0  0
  150.6161  141.3243  157.8815 C   0  0  0  0  0  0  0  0  0  0  0  0
  149.6758  142.0000  158.5960 N   0  0  0  0  0  0  0  0  0  0  0  0
  148.5021  142.3189  158.0444 C   0  0  0  0  0  0  0  0  0  0  0  0
  148.0621  142.0591  156.8128 N   0  0  0  0  0  0  0  0  0  0  0  0
  148.9891  141.3648  156.0939 C   0  0  0  0  0  0  0  0  0  0  0  0
  150.2789  140.9608  156.5446 C   0  0  0  0  0  0  0  0  0  0  0  0
  150.9307  140.2664  155.5310 N   0  0  0  0  0  0  0  0  0  0  0  0
  150.0884  140.2818  154.5351 C   0  0  0  0  0  0  0  0  0  0  0  0
  148.8884  140.9036  154.7928 N   0  0  0  0  0  0  0  0  0  0  0  0
  147.7800  141.0699  153.8682 C   0  0  0  0  0  0  0  0  0  0  0  0
  147.0281  139.7595  153.5354 C   0  0  1  0  0  0  0  0  0  0  0  0
  147.9714  138.9415  152.8729 O   0  0  0  0  0  0  0  0  0  0  0  0
  146.5119  138.9588  154.7531 C   0  0  1  0  0  0  0  0  0  0  0  0
  145.4587  139.6538  155.6218 C   0  0  0  0  0  0  0  0  0  0  0  0
  144.6572  138.5119  156.2281 C   0  0  0  0  0  0  0  0  0  0  0  0
  145.0834  137.2911  155.4137 C   0  0  0  0  0  0  0  0  0  0  0  0
  145.7743  137.8326  154.2988 O   0  0  0  0  0  0  0  0  0  0  0  0
  153.2279  143.1510  163.4010 H   0  0  0  0  0  0  0  0  0  0  0  0
  154.4777  142.2957  162.5192 H   0  0  0  0  0  0  0  0  0  0  0  0
  152.8284  141.6679  162.5436 H   0  0  0  0  0  0  0  0  0  0  0  0
  152.0608  143.7701  161.3971 H   0  0  0  0  0  0  0  0  0  0  0  0
  153.7071  144.2947  161.2078 H   0  0  0  0  0  0  0  0  0  0  0  0
  154.1356  142.1442  159.8689 H   0  0  0  0  0  0  0  0  0  0  0  0
  154.0333  144.1004  158.5623 H   0  0  0  0  0  0  0  0  0  0  0  0
  152.9026  143.0288  157.7899 H   0  0  0  0  0  0  0  0  0  0  0  0
  151.8811  145.2103  157.8790 H   0  0  0  0  0  0  0  0  0  0  0  0
  152.1153  145.3443  159.6117 H   0  0  0  0  0  0  0  0  0  0  0  0
  150.9851  144.1551  158.9643 H   0  0  0  0  0  0  0  0  0  0  0  0
  152.3000  140.7516  160.5146 H   0  0  0  0  0  0  0  0  0  0  0  0
  151.1042  141.9462  160.1744 H   0  0  0  0  0  0  0  0  0  0  0  0
  151.8486  139.1054  157.6507 H   0  0  0  0  0  0  0  0  0  0  0  0
  153.1480  140.1473  157.1167 H   0  0  0  0  0  0  0  0  0  0  0  0
  154.5138  139.2151  158.6453 H   0  0  0  0  0  0  0  0  0  0  0  0
  153.5415  139.9281  159.9258 H   0  0  0  0  0  0  0  0  0  0  0  0
  147.8183  142.8607  158.6813 H   0  0  0  0  0  0  0  0  0  0  0  0
  150.3160  139.8241  153.5832 H   0  0  0  0  0  0  0  0  0  0  0  0
  147.0945  141.7855  154.3250 H   0  0  0  0  0  0  0  0  0  0  0  0
  148.1481  141.5379  152.9541 H   0  0  0  0  0  0  0  0  0  0  0  0
  146.2081  139.9589  152.8454 H   0  0  0  0  0  0  0  0  0  0  0  0
  148.6306  139.4967  152.4857 H   0  0  0  0  0  0  0  0  0  0  0  0
  147.3419  138.6244  155.3793 H   0  0  0  0  0  0  0  0  0  0  0  0
  145.9016  140.2939  156.3842 H   0  0  0  0  0  0  0  0  0  0  0  0
  144.8005  140.2655  155.0032 H   0  0  0  0  0  0  0  0  0  0  0  0
  144.8855  138.3723  157.2851 H   0  0  0  0  0  0  0  0  0  0  0  0
  143.5871  138.7015  156.1367 H   0  0  0  0  0  0  0  0  0  0  0  0
  145.7654  136.6627  155.9885 H   0  0  0  0  0  0  0  0  0  0  0  0
  144.2388  136.6789  155.0977 H   0  0  0  0  0  0  0  0  0  0  0  0
  1  2  1  0  0  0  0
  1 29  1  0  0  0  0
  1 30  1  0  0  0  0
  1 31  1  0  0  0  0
  2  3  1  0  0  0  0
  2 32  1  0  0  0  0
  2 33  1  0  0  0  0
  3  4  1  0  0  0  0
  3  6  1  0  0  0  0
  3 34  1  0  0  0  0
  4  5  1  0  0  0  0
  4 35  1  0  0  0  0
  4 36  1  0  0  0  0
  5 37  1  0  0  0  0
  5 38  1  0  0  0  0
  5 39  1  0  0  0  0
  6  7  1  0  0  0  0
  6 40  1  0  0  0  0
  6 41  1  0  0  0  0
  7  8  1  0  0  0  0
  7 12  1  0  0  0  0
  8  9  1  0  0  0  0
  8 42  1  0  0  0  0
  8 43  1  0  0  0  0
  9 10  1  0  0  0  0
  9 44  1  0  0  0  0
  9 45  1  0  0  0  0
 10 11  3  0  0  0  0
 12 17  1  0  0  0  0
 12 13  2  0  0  0  0
 13 14  1  0  0  0  0
 14 15  2  0  0  0  0
 14 46  1  0  0  0  0
 15 16  1  0  0  0  0
 16 20  1  0  0  0  0
 16 17  2  0  0  0  0
 17 18  1  0  0  0  0
 18 19  2  0  0  0  0
 19 20  1  0  0  0  0
 19 47  1  0  0  0  0
 20 21  1  0  0  0  0
 21 22  1  0  0  0  0
 21 48  1  0  0  0  0
 21 49  1  0  0  0  0
 22 23  1  0  0  0  0
 22 24  1  0  0  0  0
 22 50  1  0  0  0  0
 23 51  1  0  0  0  0
 24 28  1  0  0  0  0
 24 25  1  0  0  0  0
 24 52  1  0  0  0  0
 25 26  1  0  0  0  0
 25 53  1  0  0  0  0
 25 54  1  0  0  0  0
 26 27  1  0  0  0  0
 26 55  1  0  0  0  0
 26 56  1  0  0  0  0
 27 28  1  0  0  0  0
 27 57  1  0  0  0  0
 27 58  1  0  0  0  0
M  END
> <s_m_source_file>
AV-unprocessed.smi

> <i_m_source_file_index>
87

> <i_lp_mmshare_version>
43012

> <i_f3d_flags>
0

> <s_epik_input>
W0NIM11bQ0gyXVtDSF0oW0NIMl1bQ0gzXSlbQ0gyXU4oW0NIMl1bQ0gyXUMjTiljKG5bY0hdbjEpYyhjMTIpbltjSF1uMltDSDJdW0NASF0oW09IXSlbQ0BASF0zW0NIMl1bQ0gyXVtDSDJdTzM=

> <s_epik_cmdline>
J2VwaWtfcHl0aG9uJywgJy1waCcsICc3LjAnLCAnLXRuJywgJzgnLCAnLW1hJywgJzIwMCcsICctbWV0YWxfYmluZGluZycsICctaW1hZScsICc8aW5maWxlLm1hZT4nLCAnLW9tYWUnLCAnPG91dGZpbGUubWFlPic=

> <r_lp_tautomer_probability>
1

> <r_epik_Ionization_Penalty>
0.000348566

> <r_epik_Ionization_Penalty_Charging>
0

> <r_epik_Ionization_Penalty_Neutral>
0.000348566

> <r_epik_State_Penalty>
-0

> <r_epik_Charging_Adjusted_Penalty>
0

> <i_epik_Tot_Q>
0

> <i_epik_Tot_abs_Q>
0

> <r_epik_Metal_State_Penalty>
-0

> <b_epik_Metal_Only>
0

> <s_lp_Force_Field>
OPLS_2005

> <r_lp_Energy>
38.5026

> <b_lp_Chiralities_Consistent>
1

> <s_lp_Variant>
AV-unprocessed.smi:87-4

> <Gold.Version>
5.8.1

> <Gold.Id.Protein>
6NUR|6NUR_protein|mol2

> <Gold.PLP.Fitness>
56.7745

> <Gold.PLP.PLP>
-49.4012

> <Gold.PLP.part.hbond>
-3.4889

> <Gold.PLP.part.metal>
0.0000

> <Gold.PLP.part.buried>
-4.8004

> <Gold.PLP.part.nonpolar>
-41.8771

> <Gold.PLP.part.repulsive>
1.3190

> <Gold.PLP.ligand.clash>
0.0000

> <Gold.PLP.ligand.torsion>
1.3506

> <Gold.PLP.Chemscore.Hbond>
2.0000

> <Gold.PLP.Chemscore.CHOScore>
1.0000

> <Gold.PLP.Chemscore.Metal>
0.0000

> <Gold.Chemscore.Hbonds>
donor molecule, donor type, donor heavy atom, donor atom, acceptor molecule, acceptor atom, score
      L1  H    23    51       P1  7957  1.00
      P1  H  6896  6909       L1    11  0.89
      L1  C    19    47       P1  7957  1.00

> <Gold.PLP.Chemscore.Internal.Correction>
1.0745

> <Gold.Rescore>
     Score         DG    S(hbond)    S(metal)    S(lipo)     H(rot)  DE(clash)    DE(int)     intcor
     12.66     -15.29       2.00        0.00     100.53       3.37       0.43       2.20       ----

> <Gold.Chemscore.Fitness>
12.6643

> <Gold.Chemscore.DG>
-15.2878

> <Gold.Chemscore.ZeroCoef>
-5.4800

> <Gold.Chemscore.Hbond>
1.9957

> <Gold.Chemscore.Metal>
0.0000

> <Gold.Chemscore.Lipo>
100.5317

> <Gold.Chemscore.Internal_Hbond>
0.0000

> <Gold.Chemscore.DEClash>
0.4272

> <Gold.Chemscore.DEInternal>
2.1963

> <Gold.Chemscore.Rot>
3.3672

> <Gold.Chemscore.Internal.Correction>
   9.000000E+99

> <Gold.Chemscore.Hbonds>
donor molecule, donor type, donor heavy atom, donor atom, acceptor molecule, acceptor atom, score
      L1  H    23    51       P1  7957  0.96
      P1  H  6896  6909       L1    11  0.81

> <Gold.Chemscore.Hbond.Weighted>
-6.6657

> <Gold.Chemscore.Metal.Weighted>
-0.0000

> <Gold.Chemscore.Lipo.Weighted>
-11.7622

> <Gold.Chemscore.Internal_Hbond.Weighted>
0.0000

> <Gold.Chemscore.DEClash.Weighted>
0.4272

> <Gold.Chemscore.DEInternal.Weighted>
2.1963

> <Gold.Chemscore.Rot.Weighted>
8.6201

> <Gold.Chemscore.Internal.Correction.Weighted>
   9.000000E+99

> <Gold.Protein.RotatedTorsions>
[ 6907 6896 6895 6894 ] final  122.17 input  -60.11 | X-H torsion
[ 7974 7965 7964 7962 ] final  -40.99 input  175.53 | X-H torsion
[ 8008 7997 7996 7995 ] final   73.90 input   59.86 | X-H torsion
[ 10167 10162 10161 10158 ] final   38.84 input  -65.29 | X-H torsion
[ 10718 10713 10712 10709 ] final  -61.35 input   66.30 | X-H torsion
[ 10763 10752 10751 10750 ] final   60.18 input  -60.55 | X-H torsion
[ 11005 11000 10999 10996 ] final  170.84 input  -57.11 | X-H torsion

> <Gold.Protein.ActiveResidues>
 VAL166  LYS551  ARG553  GLY616  TRP617  ASP618  TYR619  PRO620  LYS621  CYS622 
 ASP623  PHE694  ASN695  SER759  ASP760  ASP761  ALA762  ILE779  LEU786  VAL792 
 PHE793  MET794  SER795  GLU796  ALA797  LYS798  CYS799  TRP800  GLU811  SER814 

> <Gold.Protein.RotatedAtoms>
  152.4264  133.7202  159.6528 H   0  0  0  0  0  0  0  0  0  0  0  0  # atno 6907 bound_to 6896
  150.8141  133.8358  159.3175 H   0  0  0  0  0  0  0  0  0  0  0  0  # atno 6908 bound_to 6896
  151.6060  135.1046  160.0122 H   0  0  0  0  0  0  0  0  0  0  0  0  # atno 6909 bound_to 6896
  146.0253  140.6800  142.9159 H   0  0  0  0  0  0  0  0  0  0  0  0  # atno 7974 bound_to 7965
  155.7905  140.3479  155.5347 H   0  0  0  0  0  0  0  0  0  0  0  0  # atno 8008 bound_to 7997
  155.8638  140.0975  157.1616 H   0  0  0  0  0  0  0  0  0  0  0  0  # atno 8009 bound_to 7997
  154.4013  140.1353  156.3981 H   0  0  0  0  0  0  0  0  0  0  0  0  # atno 8010 bound_to 7997
  140.3897  144.1868  150.6131 H   0  0  0  0  0  0  0  0  0  0  0  0  # atno 10167 bound_to 10162
  156.0928  130.4197  150.0982 H   0  0  0  0  0  0  0  0  0  0  0  0  # atno 10718 bound_to 10713
  152.9914  135.5545  154.5832 H   0  0  0  0  0  0  0  0  0  0  0  0  # atno 10763 bound_to 10752
  154.5209  135.2807  155.1265 H   0  0  0  0  0  0  0  0  0  0  0  0  # atno 10764 bound_to 10752
  154.2619  135.6379  153.5330 H   0  0  0  0  0  0  0  0  0  0  0  0  # atno 10765 bound_to 10752
  140.3126  134.7504  157.4003 H   0  0  0  0  0  0  0  0  0  0  0  0  # atno 11005 bound_to 11000
  144.7007  140.3638  143.7158 LP  0  0  0  0  0  0  0  0  0  0  0  0  # atno 17320 bound_to 7965
  145.7128  139.1689  143.2529 LP  0  0  0  0  0  0  0  0  0  0  0  0  # atno 17321 bound_to 7965
  140.4852  143.2365  151.8898 LP  0  0  0  0  0  0  0  0  0  0  0  0  # atno 17342 bound_to 10162
  139.4790  144.5226  151.8780 LP  0  0  0  0  0  0  0  0  0  0  0  0  # atno 17343 bound_to 10162
  156.8988  130.9613  151.3579 LP  0  0  0  0  0  0  0  0  0  0  0  0  # atno 17370 bound_to 10713
  157.6081  130.8562  149.8908 LP  0  0  0  0  0  0  0  0  0  0  0  0  # atno 17371 bound_to 10713
  140.1011  134.5471  155.8352 LP  0  0  0  0  0  0  0  0  0  0  0  0  # atno 17394 bound_to 11000
  141.2105  133.6695  156.6511 LP  0  0  0  0  0  0  0  0  0  0  0  0  # atno 17395 bound_to 11000

$$$$
