AV-unprocessed.smi:148|AV-procd|sdf|1232|dock6
  -GOLD-   2262018443D 1   1.00000     0.00000
 Structure written by MMmdl.
 63 67  0  0  0  0  0  0  0  0  1 V2000
  149.3551  135.7364  154.1636 O   0  0  0  0  0  0  0  0  0  0  0  0
  148.4553  135.4217  155.2050 C   0  0  0  0  0  0  0  0  0  0  0  0
  149.0663  134.4176  156.2160 C   0  0  2  0  0  0  0  0  0  0  0  0
  150.5545  134.7494  156.4945 C   0  0  0  0  0  0  0  0  0  0  0  0
  150.7486  136.0311  157.1499 N   0  0  0  0  0  0  0  0  0  0  0  0
  149.8020  136.7698  157.8248 C   0  0  0  0  0  0  0  0  0  0  0  0
  150.2273  137.9005  158.3201 N   0  0  0  0  0  0  0  0  0  0  0  0
  151.5645  137.9471  157.9474 C   0  0  0  0  0  0  0  0  0  0  0  0
  152.6088  138.8890  158.1365 C   0  0  0  0  0  0  0  0  0  0  0  0
  152.4157  140.0441  158.8143 N   0  0  0  0  0  0  0  0  0  0  0  0
  153.5797  140.3152  159.6584 C   0  0  0  0  0  0  0  0  0  0  0  0
  153.3252  141.4932  160.6061 C   0  0  0  0  0  0  0  0  0  0  0  0
  152.9069  142.7298  159.8066 C   0  0  0  0  0  0  0  0  0  0  0  0
  151.6698  142.4087  158.9579 C   0  0  0  0  0  0  0  0  0  0  0  0
  151.8989  141.1840  158.0324 C   0  0  2  0  0  0  0  0  0  0  0  0
  150.6366  140.8081  157.1918 C   0  0  1  0  0  0  0  0  0  0  0  0
  149.3005  141.4114  157.6726 C   0  0  0  0  0  0  0  0  0  0  0  0
  148.4443  141.6327  156.4152 C   0  0  0  0  0  0  0  0  0  0  0  0
  149.2330  141.0266  155.2517 C   0  0  0  0  0  0  0  0  0  0  0  0
  150.6915  141.1399  155.6922 C   0  0  2  0  0  0  0  0  0  0  0  0
  151.5178  140.2454  154.9760 O   0  0  0  0  0  0  0  0  0  0  0  0
  153.8328  138.5965  157.6214 N   0  0  0  0  0  0  0  0  0  0  0  0
  154.0165  137.4574  156.9468 C   0  0  0  0  0  0  0  0  0  0  0  0
  153.1333  136.4915  156.6824 N   0  0  0  0  0  0  0  0  0  0  0  0
  151.9091  136.7812  157.2099 C   0  0  0  0  0  0  0  0  0  0  0  0
  148.9182  132.9436  155.7467 C   0  0  1  0  0  0  0  0  0  0  0  0
  149.4217  132.6677  154.3387 C   0  0  0  0  0  0  0  0  0  0  0  0
  149.5771  131.1510  154.3327 C   0  0  0  0  0  0  0  0  0  0  0  0
  149.9104  130.7922  155.6678 O   0  0  0  0  0  0  0  0  0  0  0  0
  149.7438  131.9143  156.5279 C   0  0  0  0  0  0  0  0  0  0  0  0
  148.8704  136.1353  153.4571 H   0  0  0  0  0  0  0  0  0  0  0  0
  148.1445  136.3371  155.7092 H   0  0  0  0  0  0  0  0  0  0  0  0
  147.5687  135.0133  154.7226 H   0  0  0  0  0  0  0  0  0  0  0  0
  148.5303  134.5268  157.1601 H   0  0  0  0  0  0  0  0  0  0  0  0
  151.0083  133.9963  157.1380 H   0  0  0  0  0  0  0  0  0  0  0  0
  151.1221  134.7431  155.5629 H   0  0  0  0  0  0  0  0  0  0  0  0
  148.7802  136.4393  157.9428 H   0  0  0  0  0  0  0  0  0  0  0  0
  153.8292  139.4289  160.2442 H   0  0  0  0  0  0  0  0  0  0  0  0
  154.4427  140.5310  159.0264 H   0  0  0  0  0  0  0  0  0  0  0  0
  152.5434  141.2308  161.3199 H   0  0  0  0  0  0  0  0  0  0  0  0
  154.2225  141.7063  161.1874 H   0  0  0  0  0  0  0  0  0  0  0  0
  152.6955  143.5607  160.4801 H   0  0  0  0  0  0  0  0  0  0  0  0
  153.7263  143.0491  159.1613 H   0  0  0  0  0  0  0  0  0  0  0  0
  150.8264  142.2335  159.6249 H   0  0  0  0  0  0  0  0  0  0  0  0
  151.4231  143.2937  158.3737 H   0  0  0  0  0  0  0  0  0  0  0  0
  152.6845  141.4654  157.3294 H   0  0  0  0  0  0  0  0  0  0  0  0
  150.5061  139.7257  157.2359 H   0  0  0  0  0  0  0  0  0  0  0  0
  148.8061  140.7347  158.3700 H   0  0  0  0  0  0  0  0  0  0  0  0
  149.4356  142.3568  158.1958 H   0  0  0  0  0  0  0  0  0  0  0  0
  147.4524  141.1897  156.5074 H   0  0  0  0  0  0  0  0  0  0  0  0
  148.3097  142.7028  156.2507 H   0  0  0  0  0  0  0  0  0  0  0  0
  148.9554  139.9774  155.1356 H   0  0  0  0  0  0  0  0  0  0  0  0
  149.0379  141.5285  154.3034 H   0  0  0  0  0  0  0  0  0  0  0  0
  151.0254  142.1614  155.5169 H   0  0  0  0  0  0  0  0  0  0  0  0
  151.4969  139.4054  155.4085 H   0  0  0  0  0  0  0  0  0  0  0  0
  155.0134  137.2975  156.5632 H   0  0  0  0  0  0  0  0  0  0  0  0
  147.8675  132.6527  155.7970 H   0  0  0  0  0  0  0  0  0  0  0  0
  148.7420  133.0115  153.5588 H   0  0  0  0  0  0  0  0  0  0  0  0
  150.3910  133.1438  154.1820 H   0  0  0  0  0  0  0  0  0  0  0  0
  148.6320  130.6730  154.0718 H   0  0  0  0  0  0  0  0  0  0  0  0
  150.3352  130.8126  153.6260 H   0  0  0  0  0  0  0  0  0  0  0  0
  150.7325  132.3106  156.7638 H   0  0  0  0  0  0  0  0  0  0  0  0
  149.2661  131.6160  157.4614 H   0  0  0  0  0  0  0  0  0  0  0  0
  1  2  1  0  0  0  0
  1 31  1  0  0  0  0
  2  3  1  0  0  0  0
  2 32  1  0  0  0  0
  2 33  1  0  0  0  0
  3  4  1  0  0  0  0
  3 26  1  0  0  0  0
  3 34  1  0  0  0  0
  4  5  1  0  0  0  0
  4 35  1  0  0  0  0
  4 36  1  0  0  0  0
  5 25  1  0  0  0  0
  5  6  1  0  0  0  0
  6  7  2  0  0  0  0
  6 37  1  0  0  0  0
  7  8  1  0  0  0  0
  8 25  2  0  0  0  0
  8  9  1  0  0  0  0
  9 10  1  0  0  0  0
  9 22  2  0  0  0  0
 10 15  1  0  0  0  0
 10 11  1  0  0  0  0
 11 12  1  0  0  0  0
 11 38  1  0  0  0  0
 11 39  1  0  0  0  0
 12 13  1  0  0  0  0
 12 40  1  0  0  0  0
 12 41  1  0  0  0  0
 13 14  1  0  0  0  0
 13 42  1  0  0  0  0
 13 43  1  0  0  0  0
 14 15  1  0  0  0  0
 14 44  1  0  0  0  0
 14 45  1  0  0  0  0
 15 16  1  0  0  0  0
 15 46  1  0  0  0  0
 16 20  1  0  0  0  0
 16 17  1  0  0  0  0
 16 47  1  0  0  0  0
 17 18  1  0  0  0  0
 17 48  1  0  0  0  0
 17 49  1  0  0  0  0
 18 19  1  0  0  0  0
 18 50  1  0  0  0  0
 18 51  1  0  0  0  0
 19 20  1  0  0  0  0
 19 52  1  0  0  0  0
 19 53  1  0  0  0  0
 20 21  1  0  0  0  0
 20 54  1  0  0  0  0
 21 55  1  0  0  0  0
 22 23  1  0  0  0  0
 23 24  2  0  0  0  0
 23 56  1  0  0  0  0
 24 25  1  0  0  0  0
 26 30  1  0  0  0  0
 26 27  1  0  0  0  0
 26 57  1  0  0  0  0
 27 28  1  0  0  0  0
 27 58  1  0  0  0  0
 27 59  1  0  0  0  0
 28 29  1  0  0  0  0
 28 60  1  0  0  0  0
 28 61  1  0  0  0  0
 29 30  1  0  0  0  0
 30 62  1  0  0  0  0
 30 63  1  0  0  0  0
M  END
> <s_m_source_file>
AV-unprocessed.smi

> <i_m_source_file_index>
148

> <i_lp_mmshare_version>
43012

> <i_f3d_flags>
0

> <s_epik_input>
W0NIMl0xT1tDSDJdW0NIMl1bQ0BIXTFbQ0BIXShbQ0gyXVtPSF0pW0NIMl1uKFtjSF1uMiljKGMyMyluW2NIXW5jM040W0NIMl1bQ0gyXVtDSDJdW0NIMl1bQ0BIXTRbQ0BASF01W0NIMl1bQ0gyXVtDSDJdW0NASF01W09IXQ==

> <s_epik_cmdline>
J2VwaWtfcHl0aG9uJywgJy1waCcsICc3LjAnLCAnLXRuJywgJzgnLCAnLW1hJywgJzIwMCcsICctbWV0YWxfYmluZGluZycsICctaW1hZScsICc8aW5maWxlLm1hZT4nLCAnLW9tYWUnLCAnPG91dGZpbGUubWFlPic=

> <r_lp_tautomer_probability>
1

> <r_epik_Ionization_Penalty>
0.00556303

> <r_epik_Ionization_Penalty_Charging>
0

> <r_epik_Ionization_Penalty_Neutral>
0.00556303

> <r_epik_State_Penalty>
0.00401767

> <r_epik_Charging_Adjusted_Penalty>
0.00401767

> <i_epik_Tot_Q>
0

> <i_epik_Tot_abs_Q>
0

> <r_epik_Metal_State_Penalty>
-0

> <b_epik_Metal_Only>
0

> <s_lp_Force_Field>
OPLS_2005

> <r_lp_Energy>
68.3277

> <b_lp_Chiralities_Consistent>
1

> <s_lp_Variant>
AV-unprocessed.smi:148-31

> <Gold.Version>
5.8.1

> <Gold.Id.Protein>
6NUR|6NUR_protein|mol2

> <Gold.PLP.Fitness>
48.2226

> <Gold.PLP.PLP>
-41.3387

> <Gold.PLP.part.hbond>
-4.4917

> <Gold.PLP.part.metal>
0.0000

> <Gold.PLP.part.buried>
-4.4729

> <Gold.PLP.part.nonpolar>
-31.7212

> <Gold.PLP.part.repulsive>
0.0000

> <Gold.PLP.ligand.clash>
0.0000

> <Gold.PLP.ligand.torsion>
2.6481

> <Gold.PLP.Chemscore.Hbond>
3.9280

> <Gold.PLP.Chemscore.CHOScore>
0.0000

> <Gold.PLP.Chemscore.Metal>
0.0000

> <Gold.Chemscore.Hbonds>
donor molecule, donor type, donor heavy atom, donor atom, acceptor molecule, acceptor atom, score
      L1  H     1    31       P1  7948  0.74
      P1  H  7989  7998       L1    21  1.00
      P1  H  7997  8008       L1    22  1.00
      P1  H 10752 10765       L1    24  1.00

> <Gold.PLP.Chemscore.Internal.Correction>
0.3962

> <Gold.Rescore>
     Score         DG    S(hbond)    S(metal)    S(lipo)     H(rot)  DE(clash)    DE(int)     intcor
     17.33     -19.91       3.44        0.00      97.75       3.32       0.31       2.27       ----

> <Gold.Chemscore.Fitness>
17.3347

> <Gold.Chemscore.DG>
-19.9145

> <Gold.Chemscore.ZeroCoef>
-5.4800

> <Gold.Chemscore.Hbond>
3.4425

> <Gold.Chemscore.Metal>
0.0000

> <Gold.Chemscore.Lipo>
97.7482

> <Gold.Chemscore.Internal_Hbond>
0.0000

> <Gold.Chemscore.DEClash>
0.3107

> <Gold.Chemscore.DEInternal>
2.2692

> <Gold.Chemscore.Rot>
3.3203

> <Gold.Chemscore.Internal.Correction>
   9.000000E+99

> <Gold.Chemscore.Hbonds>
donor molecule, donor type, donor heavy atom, donor atom, acceptor molecule, acceptor atom, score
      L1  H     1    31       P1  7948  0.72
      P1  H  7989  7998       L1    21  0.47
      P1  H  7997  8008       L1    22  0.75
      P1  H 10752 10765       L1    24  0.84

> <Gold.Chemscore.Hbond.Weighted>
-11.4980

> <Gold.Chemscore.Metal.Weighted>
-0.0000

> <Gold.Chemscore.Lipo.Weighted>
-11.4365

> <Gold.Chemscore.Internal_Hbond.Weighted>
0.0000

> <Gold.Chemscore.DEClash.Weighted>
0.3107

> <Gold.Chemscore.DEInternal.Weighted>
2.2692

> <Gold.Chemscore.Rot.Weighted>
8.5000

> <Gold.Chemscore.Internal.Correction.Weighted>
   9.000000E+99

> <Gold.Protein.RotatedTorsions>
[ 6907 6896 6895 6894 ] final   71.65 input  -60.11 | X-H torsion
[ 7974 7965 7964 7962 ] final  -34.24 input  175.53 | X-H torsion
[ 8008 7997 7996 7995 ] final  -86.94 input   59.86 | X-H torsion
[ 10167 10162 10161 10158 ] final  -85.17 input  -65.29 | X-H torsion
[ 10718 10713 10712 10709 ] final   89.35 input   66.30 | X-H torsion
[ 10763 10752 10751 10750 ] final -114.89 input  -60.55 | X-H torsion
[ 11005 11000 10999 10996 ] final   86.12 input  -57.11 | X-H torsion

> <Gold.Protein.ActiveResidues>
 VAL166  LYS551  ARG553  GLY616  TRP617  ASP618  TYR619  PRO620  LYS621  CYS622 
 ASP623  PHE694  ASN695  SER759  ASP760  ASP761  ALA762  ILE779  LEU786  VAL792 
 PHE793  MET794  SER795  GLU796  ALA797  LYS798  CYS799  TRP800  GLU811  SER814 

> <Gold.Protein.RotatedAtoms>
  152.4823  134.4688  159.9628 H   0  0  0  0  0  0  0  0  0  0  0  0  # atno 6907 bound_to 6896
  151.4691  133.3567  159.2828 H   0  0  0  0  0  0  0  0  0  0  0  0  # atno 6908 bound_to 6896
  150.8904  134.8333  159.7350 H   0  0  0  0  0  0  0  0  0  0  0  0  # atno 6909 bound_to 6896
  146.0846  140.6014  142.8892 H   0  0  0  0  0  0  0  0  0  0  0  0  # atno 7974 bound_to 7965
  154.6575  140.0572  157.0025 H   0  0  0  0  0  0  0  0  0  0  0  0  # atno 8008 bound_to 7997
  155.1278  140.3253  155.4463 H   0  0  0  0  0  0  0  0  0  0  0  0  # atno 8009 bound_to 7997
  156.2604  140.1986  156.6398 H   0  0  0  0  0  0  0  0  0  0  0  0  # atno 8010 bound_to 7997
  140.4063  143.2641  151.9077 H   0  0  0  0  0  0  0  0  0  0  0  0  # atno 10167 bound_to 10162
  157.6955  131.0330  150.3413 H   0  0  0  0  0  0  0  0  0  0  0  0  # atno 10718 bound_to 10713
  154.8459  135.4401  154.1577 H   0  0  0  0  0  0  0  0  0  0  0  0  # atno 10763 bound_to 10752
  153.2722  135.6946  153.7475 H   0  0  0  0  0  0  0  0  0  0  0  0  # atno 10764 bound_to 10752
  153.6711  135.3418  155.3129 H   0  0  0  0  0  0  0  0  0  0  0  0  # atno 10765 bound_to 10752
  139.8953  134.8333  156.2676 H   0  0  0  0  0  0  0  0  0  0  0  0  # atno 11005 bound_to 11000
  144.7316  140.4689  143.6933 LP  0  0  0  0  0  0  0  0  0  0  0  0  # atno 17320 bound_to 7965
  145.6154  139.1518  143.3052 LP  0  0  0  0  0  0  0  0  0  0  0  0  # atno 17321 bound_to 7965
  139.4783  144.5583  151.8279 LP  0  0  0  0  0  0  0  0  0  0  0  0  # atno 17342 bound_to 10162
  140.4686  144.1619  150.5915 LP  0  0  0  0  0  0  0  0  0  0  0  0  # atno 17343 bound_to 10162
  156.3874  130.3891  149.7056 LP  0  0  0  0  0  0  0  0  0  0  0  0  # atno 17370 bound_to 10713
  156.4417  130.7864  151.2885 LP  0  0  0  0  0  0  0  0  0  0  0  0  # atno 17371 bound_to 10713
  141.0122  133.7089  156.1130 LP  0  0  0  0  0  0  0  0  0  0  0  0  # atno 17394 bound_to 11000
  140.7352  134.4211  157.5561 LP  0  0  0  0  0  0  0  0  0  0  0  0  # atno 17395 bound_to 11000

$$$$
