AV-unprocessed.smi:2303|AV-procd|sdf|9243|dock3
  -GOLD-   2272012463D 1   1.00000     0.00000
 Structure written by MMmdl.
 32 33  0  0  0  0  0  0  0  0  2 V2000
  155.6897  137.8565  162.7625 C   0  0  0  0  0  0  0  0  0  0  0  0
  156.0275  139.3126  162.4052 C   0  0  0  0  0  0  0  0  0  0  0  0
  156.1855  140.1801  163.6666 C   0  0  0  0  0  0  0  0  0  0  0  0
  155.0046  139.8925  161.4248 C   0  0  0  0  0  0  0  0  0  0  0  0
  154.2916  141.0276  161.7845 C   0  0  0  0  0  0  0  0  0  0  0  0
  153.3229  141.5275  160.8120 C   0  0  0  0  0  0  0  0  0  0  0  0
  152.4949  142.6982  161.1041 C   0  0  0  0  0  0  0  0  0  0  0  0
  151.7041  142.7489  162.0474 O   0  0  0  0  0  0  0  0  0  0  0  0
  152.6431  143.7526  160.2706 N   0  0  0  0  0  0  0  0  0  0  0  0
  151.9062  145.0091  160.2918 C   0  0  0  0  0  0  0  0  0  0  0  0
  152.1428  145.5946  158.9113 C   0  0  0  0  0  0  0  0  0  0  0  0
  152.4157  144.3550  158.0745 C   0  0  0  0  0  0  0  0  0  0  0  0
  153.1349  143.5242  158.9686 O   0  0  0  0  0  0  0  0  0  0  0  0
  153.1199  140.8605  159.6523 C   0  0  0  0  0  0  0  0  0  0  0  0
  153.9052  139.6678  159.3363 C   0  0  0  0  0  0  0  0  0  0  0  0
  153.7093  139.0932  158.2674 O   0  0  0  0  0  0  0  0  0  0  0  0
  154.8297  139.2413  160.2421 N   0  5  0  0  0  0  0  0  0  0  0  0
  155.6243  137.2398  161.8657 H   0  0  0  0  0  0  0  0  0  0  0  0
  154.7356  137.7847  163.2858 H   0  0  0  0  0  0  0  0  0  0  0  0
  156.4549  137.4225  163.4064 H   0  0  0  0  0  0  0  0  0  0  0  0
  157.0031  139.2981  161.9173 H   0  0  0  0  0  0  0  0  0  0  0  0
  156.4353  141.2087  163.4049 H   0  0  0  0  0  0  0  0  0  0  0  0
  156.9834  139.7993  164.3042 H   0  0  0  0  0  0  0  0  0  0  0  0
  155.2712  140.1994  164.2607 H   0  0  0  0  0  0  0  0  0  0  0  0
  154.4404  141.5108  162.7392 H   0  0  0  0  0  0  0  0  0  0  0  0
  150.8443  144.8142  160.4515 H   0  0  0  0  0  0  0  0  0  0  0  0
  152.2601  145.6688  161.0844 H   0  0  0  0  0  0  0  0  0  0  0  0
  151.3020  146.1831  158.5434 H   0  0  0  0  0  0  0  0  0  0  0  0
  153.0274  146.2324  158.9251 H   0  0  0  0  0  0  0  0  0  0  0  0
  151.4833  143.8626  157.7941 H   0  0  0  0  0  0  0  0  0  0  0  0
  152.9849  144.5659  157.1690 H   0  0  0  0  0  0  0  0  0  0  0  0
  152.3842  141.2041  158.9383 H   0  0  0  0  0  0  0  0  0  0  0  0
  1  2  1  0  0  0  0
  1 18  1  0  0  0  0
  1 19  1  0  0  0  0
  1 20  1  0  0  0  0
  2  3  1  0  0  0  0
  2 21  1  0  0  0  0
  2  4  1  0  0  0  0
  3 22  1  0  0  0  0
  3 23  1  0  0  0  0
  3 24  1  0  0  0  0
  4 17  1  0  0  0  0
  4  5  2  0  0  0  0
  5 25  1  0  0  0  0
  5  6  1  0  0  0  0
  6  7  1  0  0  0  0
  6 14  2  0  0  0  0
  7  8  2  0  0  0  0
  7  9  1  0  0  0  0
  9 13  1  0  0  0  0
  9 10  1  0  0  0  0
 10 11  1  0  0  0  0
 10 26  1  0  0  0  0
 10 27  1  0  0  0  0
 11 12  1  0  0  0  0
 11 28  1  0  0  0  0
 11 29  1  0  0  0  0
 12 13  1  0  0  0  0
 12 30  1  0  0  0  0
 12 31  1  0  0  0  0
 14 15  1  0  0  0  0
 14 32  1  0  0  0  0
 15 16  2  0  0  0  0
 15 17  1  0  0  0  0
M  CHG  1  17  -1
M  END
> <s_m_source_file>
AV-unprocessed.smi

> <i_m_source_file_index>
2303

> <i_lp_mmshare_version>
43012

> <i_f3d_flags>
0

> <s_epik_input>
W0NIM11bQ0hdKFtDSDNdKWMxW2NIXWMoW2NIXWMobjEpW09IXSlDKD1PKU4yW0NIMl1bQ0gyXVtDSDJdTzI=

> <s_epik_cmdline>
J2VwaWtfcHl0aG9uJywgJy1waCcsICc3LjAnLCAnLXRuJywgJzgnLCAnLW1hJywgJzIwMCcsICctbWV0YWxfYmluZGluZycsICctaW1hZScsICc8aW5maWxlLm1hZT4nLCAnLW9tYWUnLCAnPG91dGZpbGUubWFlPic=

> <r_lp_tautomer_probability>
1

> <r_epik_Ionization_Penalty>
5.39588

> <r_epik_Ionization_Penalty_Charging>
0.166011

> <r_epik_Ionization_Penalty_Neutral>
5.22987

> <r_epik_State_Penalty>
5.22978

> <r_epik_Charging_Adjusted_Penalty>
5.39579

> <i_epik_Tot_Q>
-1

> <i_epik_Tot_abs_Q>
1

> <r_epik_Metal_State_Penalty>
1.21816

> <b_epik_Metal_Only>
1

> <s_epik_Chemistry_Notes>
This compound has a N-S or N-O group and may undergo hydrolysis at high or low pH.

> <s_lp_Force_Field>
OPLS_2005

> <r_lp_Energy>
27.9757

> <b_lp_Chiralities_Consistent>
1

> <s_lp_Variant>
AV-unprocessed.smi:2303-2

> <Gold.Version>
5.8.1

> <Gold.Id.Protein>
6NUR|6NUR_protein|mol2

> <Gold.PLP.Fitness>
41.3496

> <Gold.PLP.PLP>
-37.1629

> <Gold.PLP.part.hbond>
-2.0000

> <Gold.PLP.part.metal>
0.0000

> <Gold.PLP.part.buried>
-3.2984

> <Gold.PLP.part.nonpolar>
-32.0473

> <Gold.PLP.part.repulsive>
1.5872

> <Gold.PLP.ligand.clash>
0.0000

> <Gold.PLP.ligand.torsion>
1.3190

> <Gold.PLP.Chemscore.Hbond>
1.8640

> <Gold.PLP.Chemscore.CHOScore>
0.0000

> <Gold.PLP.Chemscore.Metal>
0.0000

> <Gold.Chemscore.Hbonds>
donor molecule, donor type, donor heavy atom, donor atom, acceptor molecule, acceptor atom, score
      P1  H  6933  6945       L1     8  0.86
      P1  H  7997  8010       L1    16  1.00

> <Gold.PLP.Chemscore.Internal.Correction>
1.2327

> <Gold.Rescore>
     Score         DG    S(hbond)    S(metal)    S(lipo)     H(rot)  DE(clash)    DE(int)     intcor
     15.76     -19.41       1.67        0.00      93.25       1.00       0.85       2.79       ----

> <Gold.Chemscore.Fitness>
15.7642

> <Gold.Chemscore.DG>
-19.4115

> <Gold.Chemscore.ZeroCoef>
-5.4800

> <Gold.Chemscore.Hbond>
1.6710

> <Gold.Chemscore.Metal>
0.0000

> <Gold.Chemscore.Lipo>
93.2520

> <Gold.Chemscore.Internal_Hbond>
0.0000

> <Gold.Chemscore.DEClash>
0.8534

> <Gold.Chemscore.DEInternal>
2.7939

> <Gold.Chemscore.Rot>
1.0000

> <Gold.Chemscore.Internal.Correction>
   9.000000E+99

> <Gold.Chemscore.Hbonds>
donor molecule, donor type, donor heavy atom, donor atom, acceptor molecule, acceptor atom, score
      P1  H  6933  6945       L1     8  0.84
      P1  H  7997  8010       L1    16  0.60

> <Gold.Chemscore.Hbond.Weighted>
-5.5810

> <Gold.Chemscore.Metal.Weighted>
-0.0000

> <Gold.Chemscore.Lipo.Weighted>
-10.9105

> <Gold.Chemscore.Internal_Hbond.Weighted>
0.0000

> <Gold.Chemscore.DEClash.Weighted>
0.8534

> <Gold.Chemscore.DEInternal.Weighted>
2.7939

> <Gold.Chemscore.Rot.Weighted>
2.5600

> <Gold.Chemscore.Internal.Correction.Weighted>
   9.000000E+99

> <Gold.Protein.RotatedTorsions>
[ 6907 6896 6895 6894 ] final   38.35 input  -60.11 | X-H torsion
[ 7974 7965 7964 7962 ] final   23.41 input  175.53 | X-H torsion
[ 8008 7997 7996 7995 ] final   37.67 input   59.86 | X-H torsion
[ 10167 10162 10161 10158 ] final   72.96 input  -65.29 | X-H torsion
[ 10718 10713 10712 10709 ] final -120.94 input   66.30 | X-H torsion
[ 10763 10752 10751 10750 ] final -150.67 input  -60.55 | X-H torsion
[ 11005 11000 10999 10996 ] final   -9.36 input  -57.11 | X-H torsion

> <Gold.Protein.ActiveResidues>
 VAL166  LYS551  ARG553  GLY616  TRP617  ASP618  TYR619  PRO620  LYS621  CYS622 
 ASP623  PHE694  ASN695  SER759  ASP760  ASP761  ALA762  ILE779  LEU786  VAL792 
 PHE793  MET794  SER795  GLU796  ALA797  LYS798  CYS799  TRP800  GLU811  SER814 

> <Gold.Protein.RotatedAtoms>
  152.1552  134.8956  160.0545 H   0  0  0  0  0  0  0  0  0  0  0  0  # atno 6907 bound_to 6896
  151.9973  133.3807  159.4176 H   0  0  0  0  0  0  0  0  0  0  0  0  # atno 6908 bound_to 6896
  150.6880  134.3794  159.5071 H   0  0  0  0  0  0  0  0  0  0  0  0  # atno 6909 bound_to 6896
  146.1985  139.7748  142.8779 H   0  0  0  0  0  0  0  0  0  0  0  0  # atno 7974 bound_to 7965
  155.2076  140.3321  155.4333 H   0  0  0  0  0  0  0  0  0  0  0  0  # atno 8008 bound_to 7997
  156.2383  140.1882  156.7109 H   0  0  0  0  0  0  0  0  0  0  0  0  # atno 8009 bound_to 7997
  154.6099  140.0610  156.9466 H   0  0  0  0  0  0  0  0  0  0  0  0  # atno 8010 bound_to 7997
  140.0296  144.5476  150.7517 H   0  0  0  0  0  0  0  0  0  0  0  0  # atno 10167 bound_to 10162
  156.1298  130.6387  150.9602 H   0  0  0  0  0  0  0  0  0  0  0  0  # atno 10718 bound_to 10713
  154.8105  135.3278  154.7318 H   0  0  0  0  0  0  0  0  0  0  0  0  # atno 10763 bound_to 10752
  153.7968  135.6906  153.4866 H   0  0  0  0  0  0  0  0  0  0  0  0  # atno 10764 bound_to 10752
  153.1880  135.4561  155.0059 H   0  0  0  0  0  0  0  0  0  0  0  0  # atno 10765 bound_to 10752
  140.7333  133.8730  155.8910 H   0  0  0  0  0  0  0  0  0  0  0  0  # atno 11005 bound_to 11000
  145.3562  141.0317  143.3310 LP  0  0  0  0  0  0  0  0  0  0  0  0  # atno 17320 bound_to 7965
  144.8632  139.5146  143.6802 LP  0  0  0  0  0  0  0  0  0  0  0  0  # atno 17321 bound_to 7965
  140.7307  143.2687  151.3960 LP  0  0  0  0  0  0  0  0  0  0  0  0  # atno 17342 bound_to 10162
  139.6085  144.1148  152.2274 LP  0  0  0  0  0  0  0  0  0  0  0  0  # atno 17343 bound_to 10162
  157.6477  131.0901  150.8119 LP  0  0  0  0  0  0  0  0  0  0  0  0  # atno 17370 bound_to 10713
  156.8205  130.4982  149.5344 LP  0  0  0  0  0  0  0  0  0  0  0  0  # atno 17371 bound_to 10713
  140.9901  134.1290  157.4416 LP  0  0  0  0  0  0  0  0  0  0  0  0  # atno 17394 bound_to 11000
  139.8821  135.0038  156.6208 LP  0  0  0  0  0  0  0  0  0  0  0  0  # atno 17395 bound_to 11000

$$$$
