AV-unprocessed.smi:363|AV-procd|sdf|2423|dock8
  -GOLD-   2262022363D 1   1.00000     0.00000
 Structure written by MMmdl.
 39 40  0  0  0  0  0  0  0  0  1 V2000
  153.3480  142.5989  162.4979 C   0  0  0  0  0  0  0  0  0  0  0  0
  152.9696  142.4195  161.0327 C   0  0  0  0  0  0  0  0  0  0  0  0
  152.2466  143.4885  160.3842 C   0  0  0  0  0  0  0  0  0  0  0  0
  151.8400  143.3791  159.1094 C   0  0  0  0  0  0  0  0  0  0  0  0
  151.0626  144.5088  158.4419 C   0  0  0  0  0  0  0  0  0  0  0  0
  152.1334  142.2087  158.3564 N   0  0  0  0  0  0  0  0  0  0  0  0
  151.6749  142.1100  156.9505 C   0  0  0  0  0  0  0  0  0  0  0  0
  150.8372  140.8342  156.6971 C   0  0  2  0  0  0  0  0  0  0  0  0
  150.9126  140.4945  155.3268 O   0  0  0  0  0  0  0  0  0  0  0  0
  149.3912  141.0344  157.1254 C   0  0  0  0  0  0  0  0  0  0  0  0
  148.9849  142.2623  157.6909 C   0  0  0  0  0  0  0  0  0  0  0  0
  147.6464  142.4546  158.0850 C   0  0  0  0  0  0  0  0  0  0  0  0
  146.7054  141.4208  157.9146 C   0  0  0  0  0  0  0  0  0  0  0  0
  145.0662  141.6567  158.3989 Cl  0  0  0  0  0  0  0  0  0  0  0  0
  147.1039  140.1948  157.3480 C   0  0  0  0  0  0  0  0  0  0  0  0
  148.4423  140.0023  156.9538 C   0  0  0  0  0  0  0  0  0  0  0  0
  152.8454  141.1618  158.8847 C   0  0  0  0  0  0  0  0  0  0  0  0
  153.1383  140.1891  158.1818 O   0  0  0  0  0  0  0  0  0  0  0  0
  153.2421  141.2976  160.3134 C   0  0  0  0  0  0  0  0  0  0  0  0
  153.9757  140.1621  160.9058 C   0  0  0  0  0  0  0  0  0  0  0  0
  153.8227  138.9919  160.2709 N   0  0  0  0  0  0  0  0  0  0  0  0
  154.6261  140.2136  161.9485 O   0  0  0  0  0  0  0  0  0  0  0  0
  152.8592  143.4743  162.9261 H   0  0  0  0  0  0  0  0  0  0  0  0
  154.4246  142.7365  162.6008 H   0  0  0  0  0  0  0  0  0  0  0  0
  153.0459  141.7355  163.0914 H   0  0  0  0  0  0  0  0  0  0  0  0
  152.0203  144.3875  160.9395 H   0  0  0  0  0  0  0  0  0  0  0  0
  150.7082  145.2235  159.1853 H   0  0  0  0  0  0  0  0  0  0  0  0
  150.1828  144.1520  157.9096 H   0  0  0  0  0  0  0  0  0  0  0  0
  151.7022  145.0526  157.7460 H   0  0  0  0  0  0  0  0  0  0  0  0
  151.0847  142.9912  156.7034 H   0  0  0  0  0  0  0  0  0  0  0  0
  152.4926  142.1754  156.2303 H   0  0  0  0  0  0  0  0  0  0  0  0
  151.2508  139.9967  157.2598 H   0  0  0  0  0  0  0  0  0  0  0  0
  150.4921  139.6574  155.2025 H   0  0  0  0  0  0  0  0  0  0  0  0
  149.6976  143.0631  157.8251 H   0  0  0  0  0  0  0  0  0  0  0  0
  147.3430  143.3963  158.5184 H   0  0  0  0  0  0  0  0  0  0  0  0
  146.3844  139.4004  157.2144 H   0  0  0  0  0  0  0  0  0  0  0  0
  148.7385  139.0592  156.5181 H   0  0  0  0  0  0  0  0  0  0  0  0
  154.2789  138.1630  160.6235 H   0  0  0  0  0  0  0  0  0  0  0  0
  153.2371  138.9404  159.4499 H   0  0  0  0  0  0  0  0  0  0  0  0
  1  2  1  0  0  0  0
  1 23  1  0  0  0  0
  1 24  1  0  0  0  0
  1 25  1  0  0  0  0
  2 19  2  0  0  0  0
  2  3  1  0  0  0  0
  3  4  2  0  0  0  0
  3 26  1  0  0  0  0
  4  5  1  0  0  0  0
  4  6  1  0  0  0  0
  5 27  1  0  0  0  0
  5 28  1  0  0  0  0
  5 29  1  0  0  0  0
  6  7  1  0  0  0  0
  6 17  1  0  0  0  0
  7  8  1  0  0  0  0
  7 30  1  0  0  0  0
  7 31  1  0  0  0  0
  8  9  1  0  0  0  0
  8 10  1  0  0  0  0
  8 32  1  0  0  0  0
  9 33  1  0  0  0  0
 10 16  1  0  0  0  0
 10 11  2  0  0  0  0
 11 12  1  0  0  0  0
 11 34  1  0  0  0  0
 12 13  2  0  0  0  0
 12 35  1  0  0  0  0
 13 14  1  0  0  0  0
 13 15  1  0  0  0  0
 15 16  2  0  0  0  0
 15 36  1  0  0  0  0
 16 37  1  0  0  0  0
 17 18  2  0  0  0  0
 17 19  1  0  0  0  0
 19 20  1  0  0  0  0
 20 21  1  0  0  0  0
 20 22  2  0  0  0  0
 21 38  1  0  0  0  0
 21 39  1  0  0  0  0
M  END
> <s_m_source_file>
AV-unprocessed.smi

> <i_m_source_file_index>
363

> <i_lp_mmshare_version>
43012

> <i_f3d_flags>
0

> <s_epik_input>
W0NIM11jMVtjSF1jKFtDSDNdKW4oYyg9TyljMUMoPU8pW05IMl0pW0NIMl1bQ0BIXShbT0hdKWMyW2NIXVtjSF1jKENsKVtjSF1bY0hdMg==

> <s_epik_cmdline>
J2VwaWtfcHl0aG9uJywgJy1waCcsICc3LjAnLCAnLXRuJywgJzgnLCAnLW1hJywgJzIwMCcsICctbWV0YWxfYmluZGluZycsICctaW1hZScsICc8aW5maWxlLm1hZT4nLCAnLW9tYWUnLCAnPG91dGZpbGUubWFlPic=

> <r_lp_tautomer_probability>
1

> <r_epik_Ionization_Penalty>
3.91973e-07

> <r_epik_Ionization_Penalty_Charging>
1.35363e-07

> <r_epik_Ionization_Penalty_Neutral>
2.5661e-07

> <r_epik_State_Penalty>
-0

> <r_epik_Charging_Adjusted_Penalty>
1.35363e-07

> <i_epik_Tot_Q>
0

> <i_epik_Tot_abs_Q>
0

> <r_epik_Metal_State_Penalty>
-0

> <b_epik_Metal_Only>
0

> <s_lp_Force_Field>
OPLS_2005

> <r_lp_Energy>
39.7948

> <b_lp_Chiralities_Consistent>
1

> <s_lp_Variant>
AV-unprocessed.smi:363-1

> <Gold.Version>
5.8.1

> <Gold.Id.Protein>
6NUR|6NUR_protein|mol2

> <Gold.PLP.Fitness>
44.0191

> <Gold.PLP.PLP>
-38.7321

> <Gold.PLP.part.hbond>
-2.0000

> <Gold.PLP.part.metal>
0.0000

> <Gold.PLP.part.buried>
-5.4288

> <Gold.PLP.part.nonpolar>
-29.6541

> <Gold.PLP.part.repulsive>
0.0497

> <Gold.PLP.ligand.clash>
0.0000

> <Gold.PLP.ligand.torsion>
0.4369

> <Gold.PLP.Chemscore.Hbond>
1.9360

> <Gold.PLP.Chemscore.CHOScore>
0.0000

> <Gold.PLP.Chemscore.Metal>
0.0000

> <Gold.Chemscore.Hbonds>
donor molecule, donor type, donor heavy atom, donor atom, acceptor molecule, acceptor atom, score
      P1  H  7989  7998       L1     9  0.98
      P1  H  7997  8008       L1    18  0.96

> <Gold.PLP.Chemscore.Internal.Correction>
0.3528

> <Gold.Rescore>
     Score         DG    S(hbond)    S(metal)    S(lipo)     H(rot)  DE(clash)    DE(int)     intcor
     12.85     -16.92       1.78        0.00      89.71       1.95       0.65       3.42       ----

> <Gold.Chemscore.Fitness>
12.8511

> <Gold.Chemscore.DG>
-16.9212

> <Gold.Chemscore.ZeroCoef>
-5.4800

> <Gold.Chemscore.Hbond>
1.7771

> <Gold.Chemscore.Metal>
0.0000

> <Gold.Chemscore.Lipo>
89.7128

> <Gold.Chemscore.Internal_Hbond>
0.0000

> <Gold.Chemscore.DEClash>
0.6462

> <Gold.Chemscore.DEInternal>
3.4239

> <Gold.Chemscore.Rot>
1.9495

> <Gold.Chemscore.Internal.Correction>
   9.000000E+99

> <Gold.Chemscore.Hbonds>
donor molecule, donor type, donor heavy atom, donor atom, acceptor molecule, acceptor atom, score
      P1  H  7989  7998       L1     9  0.36
      P1  H  7997  8008       L1    18  0.92

> <Gold.Chemscore.Hbond.Weighted>
-5.9356

> <Gold.Chemscore.Metal.Weighted>
-0.0000

> <Gold.Chemscore.Lipo.Weighted>
-10.4964

> <Gold.Chemscore.Internal_Hbond.Weighted>
0.0000

> <Gold.Chemscore.DEClash.Weighted>
0.6462

> <Gold.Chemscore.DEInternal.Weighted>
3.4239

> <Gold.Chemscore.Rot.Weighted>
4.9908

> <Gold.Chemscore.Internal.Correction.Weighted>
   9.000000E+99

> <Gold.Protein.RotatedTorsions>
[ 6907 6896 6895 6894 ] final   57.29 input  -60.11 | X-H torsion
[ 7974 7965 7964 7962 ] final  151.29 input  175.53 | X-H torsion
[ 8008 7997 7996 7995 ] final  -88.19 input   59.86 | X-H torsion
[ 10167 10162 10161 10158 ] final -137.95 input  -65.29 | X-H torsion
[ 10718 10713 10712 10709 ] final   84.37 input   66.30 | X-H torsion
[ 10763 10752 10751 10750 ] final  137.61 input  -60.55 | X-H torsion
[ 11005 11000 10999 10996 ] final  -60.87 input  -57.11 | X-H torsion

> <Gold.Protein.ActiveResidues>
 VAL166  LYS551  ARG553  GLY616  TRP617  ASP618  TYR619  PRO620  LYS621  CYS622 
 ASP623  PHE694  ASN695  SER759  ASP760  ASP761  ALA762  ILE779  LEU786  VAL792 
 PHE793  MET794  SER795  GLU796  ALA797  LYS798  CYS799  TRP800  GLU811  SER814 

> <Gold.Protein.RotatedAtoms>
  152.3717  134.6724  160.0173 H   0  0  0  0  0  0  0  0  0  0  0  0  # atno 6907 bound_to 6896
  151.7015  133.3306  159.3276 H   0  0  0  0  0  0  0  0  0  0  0  0  # atno 6908 bound_to 6896
  150.7679  134.6547  159.6351 H   0  0  0  0  0  0  0  0  0  0  0  0  # atno 6909 bound_to 6896
  144.8303  139.6518  143.6062 H   0  0  0  0  0  0  0  0  0  0  0  0  # atno 7974 bound_to 7965
  154.6719  140.0556  157.0175 H   0  0  0  0  0  0  0  0  0  0  0  0  # atno 8008 bound_to 7997
  155.1076  140.3235  155.4511 H   0  0  0  0  0  0  0  0  0  0  0  0  # atno 8009 bound_to 7997
  156.2661  140.2020  156.6201 H   0  0  0  0  0  0  0  0  0  0  0  0  # atno 8010 bound_to 7997
  139.8526  143.7179  152.2656 H   0  0  0  0  0  0  0  0  0  0  0  0  # atno 10167 bound_to 10162
  157.6897  131.0130  150.2662 H   0  0  0  0  0  0  0  0  0  0  0  0  # atno 10718 bound_to 10713
  153.8758  135.3050  155.3443 H   0  0  0  0  0  0  0  0  0  0  0  0  # atno 10763 bound_to 10752
  154.7784  135.4848  153.9796 H   0  0  0  0  0  0  0  0  0  0  0  0  # atno 10764 bound_to 10752
  153.1380  135.6818  153.9169 H   0  0  0  0  0  0  0  0  0  0  0  0  # atno 10765 bound_to 10752
  141.1303  133.6625  156.5289 H   0  0  0  0  0  0  0  0  0  0  0  0  # atno 11005 bound_to 11000
  146.2606  139.6402  142.9364 LP  0  0  0  0  0  0  0  0  0  0  0  0  # atno 17320 bound_to 7965
  145.4910  141.0438  143.2593 LP  0  0  0  0  0  0  0  0  0  0  0  0  # atno 17321 bound_to 7965
  139.7450  144.7549  151.0593 LP  0  0  0  0  0  0  0  0  0  0  0  0  # atno 17342 bound_to 10162
  140.7785  143.4927  150.9873 LP  0  0  0  0  0  0  0  0  0  0  0  0  # atno 17343 bound_to 10162
  156.3233  130.3789  149.7556 LP  0  0  0  0  0  0  0  0  0  0  0  0  # atno 17370 bound_to 10713
  156.5119  130.8176  151.3172 LP  0  0  0  0  0  0  0  0  0  0  0  0  # atno 17371 bound_to 10713
  140.4231  134.7169  157.4901 LP  0  0  0  0  0  0  0  0  0  0  0  0  # atno 17394 bound_to 11000
  140.0346  134.6356  155.9061 LP  0  0  0  0  0  0  0  0  0  0  0  0  # atno 17395 bound_to 11000

$$$$
