AV-unprocessed.smi:2822|AV-procd|sdf|10867|dock4
  -GOLD-   2272015313D 1   1.00000     0.00000
 Structure written by MMmdl.
 41 43  0  0  0  0  0  0  0  0  3 V2000
  150.0511  139.2121  153.8468 Cl  0  0  0  0  0  0  0  0  0  0  0  0
  148.6580  140.2183  153.6571 C   0  0  0  0  0  0  0  0  0  0  0  0
  148.8047  141.6189  153.7311 C   0  0  0  0  0  0  0  0  0  0  0  0
  147.7278  142.4194  153.5852 N   0  3  0  0  0  0  0  0  0  0  0  0
  146.4860  141.9382  153.3659 C   0  0  0  0  0  0  0  0  0  0  0  0
  146.2755  140.5468  153.2815 C   0  0  0  0  0  0  0  0  0  0  0  0
  147.3743  139.6633  153.4291 C   0  0  0  0  0  0  0  0  0  0  0  0
  147.2324  138.2685  153.3609 N   0  0  0  0  0  0  0  0  0  0  0  0
  145.9999  137.6127  153.7717 C   0  0  0  0  0  0  0  0  0  0  0  0
  145.7184  136.3616  152.9268 C   0  0  1  0  0  0  0  0  0  0  0  0
  146.6783  135.2093  153.2764 C   0  0  0  0  0  0  0  0  0  0  0  0
  146.3402  133.9941  152.4992 N   0  3  1  0  0  0  0  0  0  0  0  0
  147.2671  132.8674  152.7765 C   0  0  0  0  0  0  0  0  0  0  0  0
  146.9471  131.6554  151.8865 C   0  0  0  0  0  0  0  0  0  0  0  0
  145.4853  131.2229  152.0571 C   0  0  0  0  0  0  0  0  0  0  0  0
  144.5510  132.4112  151.7930 C   0  0  0  0  0  0  0  0  0  0  0  0
  144.9125  133.6163  152.6841 C   0  0  2  0  0  0  0  0  0  0  0  0
  144.0050  134.8262  152.3868 C   0  0  0  0  0  0  0  0  0  0  0  0
  144.3886  135.9305  153.1963 O   0  0  0  0  0  0  0  0  0  0  0  0
  149.7464  142.1197  153.9019 H   0  0  0  0  0  0  0  0  0  0  0  0
  145.7026  142.6754  153.2656 H   0  0  0  0  0  0  0  0  0  0  0  0
  145.2742  140.1819  153.1074 H   0  0  0  0  0  0  0  0  0  0  0  0
  147.9115  137.7326  152.8383 H   0  0  0  0  0  0  0  0  0  0  0  0
  146.0940  137.3258  154.8198 H   0  0  0  0  0  0  0  0  0  0  0  0
  145.1661  138.3121  153.6983 H   0  0  0  0  0  0  0  0  0  0  0  0
  145.8206  136.6121  151.8688 H   0  0  0  0  0  0  0  0  0  0  0  0
  147.7062  135.5035  153.0603 H   0  0  0  0  0  0  0  0  0  0  0  0
  146.6266  134.9861  154.3434 H   0  0  0  0  0  0  0  0  0  0  0  0
  148.2948  133.1876  152.6007 H   0  0  0  0  0  0  0  0  0  0  0  0
  147.1974  132.5872  153.8287 H   0  0  0  0  0  0  0  0  0  0  0  0
  147.1367  131.9062  150.8419 H   0  0  0  0  0  0  0  0  0  0  0  0
  147.6120  130.8266  152.1317 H   0  0  0  0  0  0  0  0  0  0  0  0
  145.2527  130.4020  151.3780 H   0  0  0  0  0  0  0  0  0  0  0  0
  145.3274  130.8461  153.0686 H   0  0  0  0  0  0  0  0  0  0  0  0
  144.6144  132.6957  150.7416 H   0  0  0  0  0  0  0  0  0  0  0  0
  143.5172  132.1115  151.9695 H   0  0  0  0  0  0  0  0  0  0  0  0
  144.7715  133.3322  153.7286 H   0  0  0  0  0  0  0  0  0  0  0  0
  144.0496  135.1033  151.3321 H   0  0  0  0  0  0  0  0  0  0  0  0
  142.9658  134.5791  152.6055 H   0  0  0  0  0  0  0  0  0  0  0  0
  146.4539  134.2309  151.5239 H   0  0  0  0  0  0  0  0  0  0  0  0
  147.8581  143.4298  153.6432 H   0  0  0  0  0  0  0  0  0  0  0  0
  1  2  1  0  0  0  0
  2  7  1  0  0  0  0
  2  3  2  0  0  0  0
  3  4  1  0  0  0  0
  3 20  1  0  0  0  0
  4  5  2  0  0  0  0
  4 41  1  0  0  0  0
  5  6  1  0  0  0  0
  5 21  1  0  0  0  0
  6  7  2  0  0  0  0
  6 22  1  0  0  0  0
  7  8  1  0  0  0  0
  8  9  1  0  0  0  0
  8 23  1  0  0  0  0
  9 10  1  0  0  0  0
  9 24  1  0  0  0  0
  9 25  1  0  0  0  0
 10 19  1  0  0  0  0
 10 11  1  0  0  0  0
 10 26  1  0  0  0  0
 11 12  1  0  0  0  0
 11 27  1  0  0  0  0
 11 28  1  0  0  0  0
 12 17  1  0  0  0  0
 12 13  1  0  0  0  0
 12 40  1  0  0  0  0
 13 14  1  0  0  0  0
 13 29  1  0  0  0  0
 13 30  1  0  0  0  0
 14 15  1  0  0  0  0
 14 31  1  0  0  0  0
 14 32  1  0  0  0  0
 15 16  1  0  0  0  0
 15 33  1  0  0  0  0
 15 34  1  0  0  0  0
 16 17  1  0  0  0  0
 16 35  1  0  0  0  0
 16 36  1  0  0  0  0
 17 18  1  0  0  0  0
 17 37  1  0  0  0  0
 18 19  1  0  0  0  0
 18 38  1  0  0  0  0
 18 39  1  0  0  0  0
M  CHG  1   4   1
M  CHG  1  12   1
M  END
> <s_m_source_file>
AV-unprocessed.smi

> <i_m_source_file_index>
2822

> <i_lp_mmshare_version>
43012

> <i_f3d_flags>
0

> <s_epik_input>
Q2xjMVtjSF1uW2NIXVtjSF1jMVtOSF1bQ0gyXVtDQEhdKFtDSDJdMilPW0NIMl1bQ0BASF0oTjIzKVtDSDJdW0NIMl1bQ0gyXVtDSDJdMw==

> <s_epik_cmdline>
J2VwaWtfcHl0aG9uJywgJy1waCcsICc3LjAnLCAnLXRuJywgJzgnLCAnLW1hJywgJzIwMCcsICctbWV0YWxfYmluZGluZycsICctaW1hZScsICc8aW5maWxlLm1hZT4nLCAnLW9tYWUnLCAnPG91dGZpbGUubWFlPic=

> <r_lp_tautomer_probability>
1

> <r_epik_Ionization_Penalty>
0.254999

> <r_epik_Ionization_Penalty_Charging>
0.254956

> <r_epik_Ionization_Penalty_Neutral>
4.33524e-05

> <r_epik_State_Penalty>
0.230978

> <r_epik_Charging_Adjusted_Penalty>
0.485934

> <i_epik_Tot_Q>
2

> <i_epik_Tot_abs_Q>
2

> <r_epik_Metal_State_Penalty>
3.47007

> <b_epik_Metal_Only>
0

> <s_lp_Force_Field>
OPLS_2005

> <r_lp_Energy>
36.8988

> <b_lp_Chiralities_Consistent>
1

> <s_lp_Variant>
AV-unprocessed.smi:2822-8

> <Gold.Version>
5.8.1

> <Gold.Id.Protein>
6NUR|6NUR_protein|mol2

> <Gold.PLP.Fitness>
40.6203

> <Gold.PLP.PLP>
-32.4994

> <Gold.PLP.part.hbond>
-2.0000

> <Gold.PLP.part.metal>
0.0000

> <Gold.PLP.part.buried>
-2.6530

> <Gold.PLP.part.nonpolar>
-28.5349

> <Gold.PLP.part.repulsive>
0.8715

> <Gold.PLP.ligand.clash>
0.0000

> <Gold.PLP.ligand.torsion>
0.4398

> <Gold.PLP.Chemscore.Hbond>
3.0000

> <Gold.PLP.Chemscore.CHOScore>
0.0000

> <Gold.PLP.Chemscore.Metal>
0.0000

> <Gold.Chemscore.Hbonds>
donor molecule, donor type, donor heavy atom, donor atom, acceptor molecule, acceptor atom, score
      L1  H     8    23       P1  7948  0.93

> <Gold.PLP.Chemscore.Internal.Correction>
0.0005

> <Gold.Rescore>
     Score         DG    S(hbond)    S(metal)    S(lipo)     H(rot)  DE(clash)    DE(int)     intcor
     18.04     -18.97       1.95        0.00      85.78       1.20       0.43       0.51       ----

> <Gold.Chemscore.Fitness>
18.0367

> <Gold.Chemscore.DG>
-18.9736

> <Gold.Chemscore.ZeroCoef>
-5.4800

> <Gold.Chemscore.Hbond>
1.9518

> <Gold.Chemscore.Metal>
0.0000

> <Gold.Chemscore.Lipo>
85.7840

> <Gold.Chemscore.Internal_Hbond>
0.0000

> <Gold.Chemscore.DEClash>
0.4296

> <Gold.Chemscore.DEInternal>
0.5072

> <Gold.Chemscore.Rot>
1.1962

> <Gold.Chemscore.Internal.Correction>
   9.000000E+99

> <Gold.Chemscore.Hbonds>
donor molecule, donor type, donor heavy atom, donor atom, acceptor molecule, acceptor atom, score
      L1  H     8    23       P1  7948  0.89

> <Gold.Chemscore.Hbond.Weighted>
-6.5191

> <Gold.Chemscore.Metal.Weighted>
-0.0000

> <Gold.Chemscore.Lipo.Weighted>
-10.0367

> <Gold.Chemscore.Internal_Hbond.Weighted>
0.0000

> <Gold.Chemscore.DEClash.Weighted>
0.4296

> <Gold.Chemscore.DEInternal.Weighted>
0.5072

> <Gold.Chemscore.Rot.Weighted>
3.0623

> <Gold.Chemscore.Internal.Correction.Weighted>
   9.000000E+99

> <Gold.Protein.RotatedTorsions>
[ 6907 6896 6895 6894 ] final  -86.39 input  -60.11 | X-H torsion
[ 7974 7965 7964 7962 ] final  -34.37 input  175.53 | X-H torsion
[ 8008 7997 7996 7995 ] final -167.60 input   59.86 | X-H torsion
[ 10167 10162 10161 10158 ] final   23.28 input  -65.29 | X-H torsion
[ 10718 10713 10712 10709 ] final  121.98 input   66.30 | X-H torsion
[ 10763 10752 10751 10750 ] final   28.47 input  -60.55 | X-H torsion
[ 11005 11000 10999 10996 ] final   53.64 input  -57.11 | X-H torsion

> <Gold.Protein.ActiveResidues>
 VAL166  LYS551  ARG553  GLY616  TRP617  ASP618  TYR619  PRO620  LYS621  CYS622 
 ASP623  PHE694  ASN695  SER759  ASP760  ASP761  ALA762  ILE779  LEU786  VAL792 
 PHE793  MET794  SER795  GLU796  ALA797  LYS798  CYS799  TRP800  GLU811  SER814 

> <Gold.Protein.RotatedAtoms>
  150.6867  134.3058  159.4725 H   0  0  0  0  0  0  0  0  0  0  0  0  # atno 6907 bound_to 6896
  152.0949  134.9379  160.0580 H   0  0  0  0  0  0  0  0  0  0  0  0  # atno 6908 bound_to 6896
  152.0680  133.4058  159.4484 H   0  0  0  0  0  0  0  0  0  0  0  0  # atno 6909 bound_to 6896
  146.0835  140.6030  142.8897 H   0  0  0  0  0  0  0  0  0  0  0  0  # atno 7974 bound_to 7965
  155.8800  140.1007  157.1492 H   0  0  0  0  0  0  0  0  0  0  0  0  # atno 8008 bound_to 7997
  154.4004  140.1331  156.4248 H   0  0  0  0  0  0  0  0  0  0  0  0  # atno 8009 bound_to 7997
  155.7654  140.3462  155.5221 H   0  0  0  0  0  0  0  0  0  0  0  0  # atno 8010 bound_to 7997
  140.5281  143.9888  150.6451 H   0  0  0  0  0  0  0  0  0  0  0  0  # atno 10167 bound_to 10162
  157.5777  131.1078  150.8248 H   0  0  0  0  0  0  0  0  0  0  0  0  # atno 10718 bound_to 10713
  153.0490  135.6512  154.0742 H   0  0  0  0  0  0  0  0  0  0  0  0  # atno 10763 bound_to 10752
  154.0434  135.2901  155.3353 H   0  0  0  0  0  0  0  0  0  0  0  0  # atno 10764 bound_to 10752
  154.6767  135.5336  153.8274 H   0  0  0  0  0  0  0  0  0  0  0  0  # atno 10765 bound_to 10752
  140.0751  134.5416  155.9005 H   0  0  0  0  0  0  0  0  0  0  0  0  # atno 11005 bound_to 11000
  144.7310  140.4670  143.6938 LP  0  0  0  0  0  0  0  0  0  0  0  0  # atno 17320 bound_to 7965
  145.6173  139.1520  143.3042 LP  0  0  0  0  0  0  0  0  0  0  0  0  # atno 17321 bound_to 7965
  140.3255  143.3110  152.0740 LP  0  0  0  0  0  0  0  0  0  0  0  0  # atno 17342 bound_to 10162
  139.4945  144.6545  151.6604 LP  0  0  0  0  0  0  0  0  0  0  0  0  # atno 17343 bound_to 10162
  156.8703  130.5143  149.5297 LP  0  0  0  0  0  0  0  0  0  0  0  0  # atno 17370 bound_to 10713
  156.0821  130.5829  150.9583 LP  0  0  0  0  0  0  0  0  0  0  0  0  # atno 17371 bound_to 10713
  141.2026  133.6626  156.6017 LP  0  0  0  0  0  0  0  0  0  0  0  0  # atno 17394 bound_to 11000
  140.3570  134.7720  157.4507 LP  0  0  0  0  0  0  0  0  0  0  0  0  # atno 17395 bound_to 11000

$$$$
