AV-unprocessed.smi:2351|AV-procd|sdf|9377|dock9
  -GOLD-   2272013 03D 1   1.00000     0.00000
 Structure written by MMmdl.
 47 49  0  0  0  0  0  0  0  0  2 V2000
  142.7804  141.5376  157.4639 O   0  0  0  0  0  0  0  0  0  0  0  0
  142.8956  141.2639  156.2699 C   0  0  0  0  0  0  0  0  0  0  0  0
  142.2299  140.2922  155.6223 N   0  0  0  0  0  0  0  0  0  0  0  0
  141.2282  139.4102  156.1140 C   0  0  0  0  0  0  0  0  0  0  0  0
  140.7941  139.3647  157.4614 C   0  0  0  0  0  0  0  0  0  0  0  0
  139.7771  138.4539  157.8126 C   0  0  0  0  0  0  0  0  0  0  0  0
  139.1845  137.6228  156.9297 N   0  0  0  0  0  0  0  0  0  0  0  0
  139.5922  137.6772  155.6442 C   0  0  0  0  0  0  0  0  0  0  0  0
  140.6004  138.5501  155.1883 C   0  0  0  0  0  0  0  0  0  0  0  0
  140.9586  138.5573  153.8813 F   0  0  0  0  0  0  0  0  0  0  0  0
  143.7322  141.9094  155.4441 N   0  0  0  0  0  0  0  0  0  0  0  0
  144.6117  143.0148  155.8244 C   0  0  2  0  0  0  0  0  0  0  0  0
  145.2983  143.6526  154.6001 C   0  0  0  0  0  0  0  0  0  0  0  0
  146.3519  142.7186  153.9799 C   0  0  0  0  0  0  0  0  0  0  0  0
  147.3650  142.3090  154.9862 N   0  3  2  0  0  0  0  0  0  0  0  0
  148.4728  141.5268  154.3798 C   0  0  0  0  0  0  0  0  0  0  0  0
  149.3320  140.7980  155.4318 C   0  0  1  0  0  0  0  0  0  0  0  0
  150.0816  139.6018  154.8812 C   0  0  0  0  0  0  0  0  0  0  0  0
  151.1669  139.3939  155.9336 C   0  0  0  0  0  0  0  0  0  0  0  0
  151.4433  140.6855  156.4682 O   0  0  0  0  0  0  0  0  0  0  0  0
  150.4906  141.6277  155.9872 C   0  0  0  0  0  0  0  0  0  0  0  0
  146.7334  141.6307  156.1498 C   0  0  0  0  0  0  0  0  0  0  0  0
  145.6808  142.5332  156.8202 C   0  0  0  0  0  0  0  0  0  0  0  0
  142.4966  140.1370  154.6610 H   0  0  0  0  0  0  0  0  0  0  0  0
  141.2039  140.0077  158.2243 H   0  0  0  0  0  0  0  0  0  0  0  0
  139.4256  138.3962  158.8320 H   0  0  0  0  0  0  0  0  0  0  0  0
  139.0981  137.0061  154.9572 H   0  0  0  0  0  0  0  0  0  0  0  0
  143.7717  141.6063  154.4820 H   0  0  0  0  0  0  0  0  0  0  0  0
  144.0017  143.7714  156.3213 H   0  0  0  0  0  0  0  0  0  0  0  0
  144.5622  143.9372  153.8478 H   0  0  0  0  0  0  0  0  0  0  0  0
  145.7840  144.5798  154.9075 H   0  0  0  0  0  0  0  0  0  0  0  0
  145.8749  141.8327  153.5576 H   0  0  0  0  0  0  0  0  0  0  0  0
  146.8410  143.2372  153.1543 H   0  0  0  0  0  0  0  0  0  0  0  0
  148.0649  140.8156  153.6598 H   0  0  0  0  0  0  0  0  0  0  0  0
  149.1218  142.1945  153.8109 H   0  0  0  0  0  0  0  0  0  0  0  0
  148.7157  140.4500  156.2608 H   0  0  0  0  0  0  0  0  0  0  0  0
  149.4495  138.7236  154.7463 H   0  0  0  0  0  0  0  0  0  0  0  0
  150.5379  139.8444  153.9201 H   0  0  0  0  0  0  0  0  0  0  0  0
  150.7995  138.7575  156.7395 H   0  0  0  0  0  0  0  0  0  0  0  0
  152.0639  138.9325  155.5198 H   0  0  0  0  0  0  0  0  0  0  0  0
  150.9599  142.2172  155.1982 H   0  0  0  0  0  0  0  0  0  0  0  0
  150.1747  142.3110  156.7760 H   0  0  0  0  0  0  0  0  0  0  0  0
  146.2758  140.6958  155.8228 H   0  0  0  0  0  0  0  0  0  0  0  0
  147.4868  141.3660  156.8904 H   0  0  0  0  0  0  0  0  0  0  0  0
  146.1815  143.4003  157.2533 H   0  0  0  0  0  0  0  0  0  0  0  0
  145.2126  142.0085  157.6542 H   0  0  0  0  0  0  0  0  0  0  0  0
  147.7764  143.1648  155.3308 H   0  0  0  0  0  0  0  0  0  0  0  0
  1  2  2  0  0  0  0
  2  3  1  0  0  0  0
  2 11  1  0  0  0  0
  3  4  1  0  0  0  0
  3 24  1  0  0  0  0
  4  9  1  0  0  0  0
  4  5  2  0  0  0  0
  5  6  1  0  0  0  0
  5 25  1  0  0  0  0
  6  7  2  0  0  0  0
  6 26  1  0  0  0  0
  7  8  1  0  0  0  0
  8  9  2  0  0  0  0
  8 27  1  0  0  0  0
  9 10  1  0  0  0  0
 11 12  1  0  0  0  0
 11 28  1  0  0  0  0
 12 23  1  0  0  0  0
 12 13  1  0  0  0  0
 12 29  1  0  0  0  0
 13 14  1  0  0  0  0
 13 30  1  0  0  0  0
 13 31  1  0  0  0  0
 14 15  1  0  0  0  0
 14 32  1  0  0  0  0
 14 33  1  0  0  0  0
 15 16  1  0  0  0  0
 15 22  1  0  0  0  0
 15 47  1  0  0  0  0
 16 17  1  0  0  0  0
 16 34  1  0  0  0  0
 16 35  1  0  0  0  0
 17 21  1  0  0  0  0
 17 18  1  0  0  0  0
 17 36  1  0  0  0  0
 18 19  1  0  0  0  0
 18 37  1  0  0  0  0
 18 38  1  0  0  0  0
 19 20  1  0  0  0  0
 19 39  1  0  0  0  0
 19 40  1  0  0  0  0
 20 21  1  0  0  0  0
 21 41  1  0  0  0  0
 21 42  1  0  0  0  0
 22 23  1  0  0  0  0
 22 43  1  0  0  0  0
 22 44  1  0  0  0  0
 23 45  1  0  0  0  0
 23 46  1  0  0  0  0
M  CHG  1  15   1
M  END
> <s_m_source_file>
AV-unprocessed.smi

> <i_m_source_file_index>
2351

> <i_lp_mmshare_version>
43012

> <i_f3d_flags>
0

> <s_epik_input>
RmMxW2NIXW5bY0hdW2NIXWMxW05IXUMoPU8pW05IXVtDSF0yW0NIMl1bQ0gyXU4oW0NIMl1bQ0gyXTIpW0NIMl1bQ0BASF0zW0NIMl1bQ0gyXU9bQ0gyXTM=

> <s_epik_cmdline>
J2VwaWtfcHl0aG9uJywgJy1waCcsICc3LjAnLCAnLXRuJywgJzgnLCAnLW1hJywgJzIwMCcsICctbWV0YWxfYmluZGluZycsICctaW1hZScsICc8aW5maWxlLm1hZT4nLCAnLW9tYWUnLCAnPG91dGZpbGUubWFlPic=

> <r_epik_Ionization_Penalty>
0.0102464

> <r_epik_Ionization_Penalty_Charging>
0.00747775

> <r_epik_Ionization_Penalty_Neutral>
0.00276864

> <r_epik_State_Penalty>
0.00558817

> <r_epik_Charging_Adjusted_Penalty>
0.0130659

> <i_epik_Tot_Q>
1

> <i_epik_Tot_abs_Q>
1

> <r_epik_Metal_State_Penalty>
-0

> <b_epik_Metal_Only>
0

> <s_lp_Force_Field>
OPLS_2005

> <r_lp_Energy>
39.2901

> <b_lp_Chiralities_Consistent>
1

> <s_lp_Variant>
AV-unprocessed.smi:2351-4

> <Gold.Version>
5.8.1

> <Gold.Id.Protein>
6NUR|6NUR_protein|mol2

> <Gold.PLP.Fitness>
48.7043

> <Gold.PLP.PLP>
-34.6736

> <Gold.PLP.part.hbond>
-4.4106

> <Gold.PLP.part.metal>
0.0000

> <Gold.PLP.part.buried>
-2.6566

> <Gold.PLP.part.nonpolar>
-26.4401

> <Gold.PLP.part.repulsive>
0.1811

> <Gold.PLP.ligand.clash>
0.0000

> <Gold.PLP.ligand.torsion>
0.4982

> <Gold.PLP.Chemscore.Hbond>
5.0000

> <Gold.PLP.Chemscore.CHOScore>
0.0000

> <Gold.PLP.Chemscore.Metal>
0.0000

> <Gold.Chemscore.Hbonds>
donor molecule, donor type, donor heavy atom, donor atom, acceptor molecule, acceptor atom, score
      L1  H    11    28       P1 10175  0.42
      L1  H    15    47       P1  8028  2.00

> <Gold.PLP.Chemscore.Internal.Correction>
0.0272

> <Gold.Rescore>
     Score         DG    S(hbond)    S(metal)    S(lipo)     H(rot)  DE(clash)    DE(int)     intcor
     18.32     -20.30       3.27        0.00      65.16       1.45       0.01       1.97       ----

> <Gold.Chemscore.Fitness>
18.3242

> <Gold.Chemscore.DG>
-20.3024

> <Gold.Chemscore.ZeroCoef>
-5.4800

> <Gold.Chemscore.Hbond>
3.2655

> <Gold.Chemscore.Metal>
0.0000

> <Gold.Chemscore.Lipo>
65.1563

> <Gold.Chemscore.Internal_Hbond>
0.0000

> <Gold.Chemscore.DEClash>
0.0096

> <Gold.Chemscore.DEInternal>
1.9686

> <Gold.Chemscore.Rot>
1.4483

> <Gold.Chemscore.Internal.Correction>
   9.000000E+99

> <Gold.Chemscore.Hbonds>
donor molecule, donor type, donor heavy atom, donor atom, acceptor molecule, acceptor atom, score
      L1  H     3    24       P1 10175  0.05
      L1  H    11    28       P1 10175  0.09
      L1  H    15    47       P1  8028  0.55

> <Gold.Chemscore.Hbond.Weighted>
-10.9068

> <Gold.Chemscore.Metal.Weighted>
-0.0000

> <Gold.Chemscore.Lipo.Weighted>
-7.6233

> <Gold.Chemscore.Internal_Hbond.Weighted>
0.0000

> <Gold.Chemscore.DEClash.Weighted>
0.0096

> <Gold.Chemscore.DEInternal.Weighted>
1.9686

> <Gold.Chemscore.Rot.Weighted>
3.7077

> <Gold.Chemscore.Internal.Correction.Weighted>
   9.000000E+99

> <Gold.Protein.RotatedTorsions>
[ 6907 6896 6895 6894 ] final  -50.12 input  -60.11 | X-H torsion
[ 7974 7965 7964 7962 ] final -106.50 input  175.53 | X-H torsion
[ 8008 7997 7996 7995 ] final  -89.08 input   59.86 | X-H torsion
[ 10167 10162 10161 10158 ] final -147.43 input  -65.29 | X-H torsion
[ 10718 10713 10712 10709 ] final -171.56 input   66.30 | X-H torsion
[ 10763 10752 10751 10750 ] final   -1.95 input  -60.55 | X-H torsion
[ 11005 11000 10999 10996 ] final  106.42 input  -57.11 | X-H torsion

> <Gold.Protein.ActiveResidues>
 VAL166  LYS551  ARG553  GLY616  TRP617  ASP618  TYR619  PRO620  LYS621  CYS622 
 ASP623  PHE694  ASN695  SER759  ASP760  ASP761  ALA762  ILE779  LEU786  VAL792 
 PHE793  MET794  SER795  GLU796  ALA797  LYS798  CYS799  TRP800  GLU811  SER814 

> <Gold.Protein.RotatedAtoms>
  150.8738  134.8118  159.7174 H   0  0  0  0  0  0  0  0  0  0  0  0  # atno 6907 bound_to 6896
  152.4733  134.4903  159.9703 H   0  0  0  0  0  0  0  0  0  0  0  0  # atno 6908 bound_to 6896
  151.4988  133.3470  159.2901 H   0  0  0  0  0  0  0  0  0  0  0  0  # atno 6909 bound_to 6896
  145.2170  140.9119  143.3281 H   0  0  0  0  0  0  0  0  0  0  0  0  # atno 7974 bound_to 7965
  154.6823  140.0546  157.0279 H   0  0  0  0  0  0  0  0  0  0  0  0  # atno 8008 bound_to 7997
  155.0933  140.3221  155.4548 H   0  0  0  0  0  0  0  0  0  0  0  0  # atno 8009 bound_to 7997
  156.2699  140.2044  156.6060 H   0  0  0  0  0  0  0  0  0  0  0  0  # atno 8010 bound_to 7997
  139.7622  143.8360  152.2609 H   0  0  0  0  0  0  0  0  0  0  0  0  # atno 10167 bound_to 10162
  156.7427  130.9348  151.3111 H   0  0  0  0  0  0  0  0  0  0  0  0  # atno 10718 bound_to 10713
  153.3516  135.6986  153.6784 H   0  0  0  0  0  0  0  0  0  0  0  0  # atno 10763 bound_to 10752
  153.5508  135.3554  155.2759 H   0  0  0  0  0  0  0  0  0  0  0  0  # atno 10764 bound_to 10752
  154.8654  135.4226  154.2753 H   0  0  0  0  0  0  0  0  0  0  0  0  # atno 10765 bound_to 10752
  139.8814  134.9369  156.5664 H   0  0  0  0  0  0  0  0  0  0  0  0  # atno 11005 bound_to 11000
  144.9801  139.3792  143.6266 LP  0  0  0  0  0  0  0  0  0  0  0  0  # atno 17320 bound_to 7965
  146.3385  139.8938  142.8805 LP  0  0  0  0  0  0  0  0  0  0  0  0  # atno 17321 bound_to 7965
  139.8369  144.7228  150.9379 LP  0  0  0  0  0  0  0  0  0  0  0  0  # atno 17342 bound_to 10162
  140.7808  143.4018  151.1136 LP  0  0  0  0  0  0  0  0  0  0  0  0  # atno 17343 bound_to 10162
  157.6812  130.9141  150.0271 LP  0  0  0  0  0  0  0  0  0  0  0  0  # atno 17370 bound_to 10713
  156.1454  130.3642  149.9518 LP  0  0  0  0  0  0  0  0  0  0  0  0  # atno 17371 bound_to 10713
  140.8131  133.8413  155.8827 LP  0  0  0  0  0  0  0  0  0  0  0  0  # atno 17394 bound_to 11000
  140.9488  134.1805  157.4743 LP  0  0  0  0  0  0  0  0  0  0  0  0  # atno 17395 bound_to 11000

$$$$
