AV-unprocessed.smi:1253|AV-procd|sdf|5268|dock1
  -GOLD-   22720 4383D 1   1.00000     0.00000
 Structure written by MMmdl.
 31 32  0  0  0  0  0  0  0  0  1 V2000
  153.2416  141.9960  161.1769 C   0  0  0  0  0  0  0  0  0  0  0  0
  152.6334  142.5451  159.9204 C   0  0  0  0  0  0  0  0  0  0  0  0
  151.7292  141.8988  159.0282 C   0  0  0  0  0  0  0  0  0  0  0  0
  151.5123  142.8553  158.0742 C   0  0  0  0  0  0  0  0  0  0  0  0
  150.7278  142.7957  156.9653 N   0  0  0  0  0  0  0  0  0  0  0  0
  150.5217  141.7571  156.1364 C   0  0  0  0  0  0  0  0  0  0  0  0
  151.0287  140.6408  156.2497 O   0  0  0  0  0  0  0  0  0  0  0  0
  149.6795  142.0879  155.1472 N   0  0  0  0  0  0  0  0  0  0  0  0
  149.2565  141.1942  154.0768 C   0  0  0  0  0  0  0  0  0  0  0  0
  147.8050  141.3378  153.6596 C   0  0  0  0  0  0  0  0  0  0  0  0
  146.7578  140.3552  154.1290 C   0  0  0  0  0  0  0  0  0  0  0  0
  147.1903  140.3643  152.6821 C   0  0  0  0  0  0  0  0  0  0  0  0
  152.2428  143.9777  158.3954 N   0  0  0  0  0  0  0  0  0  0  0  0
  152.3417  145.2433  157.6950 C   0  0  0  0  0  0  0  0  0  0  0  0
  152.9347  143.7812  159.5386 N   0  0  0  0  0  0  0  0  0  0  0  0
  152.9559  140.9552  161.3305 H   0  0  0  0  0  0  0  0  0  0  0  0
  152.9157  142.5618  162.0500 H   0  0  0  0  0  0  0  0  0  0  0  0
  154.3303  142.0380  161.1377 H   0  0  0  0  0  0  0  0  0  0  0  0
  151.3221  140.9014  159.0964 H   0  0  0  0  0  0  0  0  0  0  0  0
  150.2386  143.6489  156.7389 H   0  0  0  0  0  0  0  0  0  0  0  0
  149.3083  143.0265  155.1293 H   0  0  0  0  0  0  0  0  0  0  0  0
  149.8879  141.3502  153.2005 H   0  0  0  0  0  0  0  0  0  0  0  0
  149.4365  140.1690  154.4017 H   0  0  0  0  0  0  0  0  0  0  0  0
  147.4796  142.3709  153.5505 H   0  0  0  0  0  0  0  0  0  0  0  0
  147.0848  139.5201  154.7456 H   0  0  0  0  0  0  0  0  0  0  0  0
  145.7704  140.7485  154.3621 H   0  0  0  0  0  0  0  0  0  0  0  0
  146.4907  140.7625  151.9502 H   0  0  0  0  0  0  0  0  0  0  0  0
  147.8041  139.5346  152.3371 H   0  0  0  0  0  0  0  0  0  0  0  0
  151.3500  145.6858  157.5964 H   0  0  0  0  0  0  0  0  0  0  0  0
  152.7597  145.0793  156.7015 H   0  0  0  0  0  0  0  0  0  0  0  0
  152.9850  145.9356  158.2400 H   0  0  0  0  0  0  0  0  0  0  0  0
  1  2  1  0  0  0  0
  1 16  1  0  0  0  0
  1 17  1  0  0  0  0
  1 18  1  0  0  0  0
  2 15  2  0  0  0  0
  2  3  1  0  0  0  0
  3  4  2  0  0  0  0
  3 19  1  0  0  0  0
  4  5  1  0  0  0  0
  4 13  1  0  0  0  0
  5  6  1  0  0  0  0
  5 20  1  0  0  0  0
  6  7  2  0  0  0  0
  6  8  1  0  0  0  0
  8  9  1  0  0  0  0
  8 21  1  0  0  0  0
  9 10  1  0  0  0  0
  9 22  1  0  0  0  0
  9 23  1  0  0  0  0
 10 12  1  0  0  0  0
 10 11  1  0  0  0  0
 10 24  1  0  0  0  0
 11 12  1  0  0  0  0
 11 25  1  0  0  0  0
 11 26  1  0  0  0  0
 12 27  1  0  0  0  0
 12 28  1  0  0  0  0
 13 14  1  0  0  0  0
 13 15  1  0  0  0  0
 14 29  1  0  0  0  0
 14 30  1  0  0  0  0
 14 31  1  0  0  0  0
M  END
> <s_m_source_file>
AV-unprocessed.smi

> <i_m_source_file_index>
1253

> <i_lp_mmshare_version>
43012

> <i_f3d_flags>
0

> <s_epik_input>
W0NIM11jMVtjSF1jKG4objEpW0NIM10pW05IXUMoPU8pW05IXVtDSDJdW0NIXTJbQ0gyXVtDSDJdMg==

> <s_epik_cmdline>
J2VwaWtfcHl0aG9uJywgJy1waCcsICc3LjAnLCAnLXRuJywgJzgnLCAnLW1hJywgJzIwMCcsICctbWV0YWxfYmluZGluZycsICctaW1hZScsICc8aW5maWxlLm1hZT4nLCAnLW9tYWUnLCAnPG91dGZpbGUubWFlPic=

> <r_lp_tautomer_probability>
1

> <r_epik_Ionization_Penalty>
9.92667e-05

> <r_epik_Ionization_Penalty_Charging>
0

> <r_epik_Ionization_Penalty_Neutral>
9.92667e-05

> <r_epik_State_Penalty>
-0

> <r_epik_Charging_Adjusted_Penalty>
0

> <i_epik_Tot_Q>
0

> <i_epik_Tot_abs_Q>
0

> <r_epik_Metal_State_Penalty>
-0

> <b_epik_Metal_Only>
0

> <s_lp_Force_Field>
OPLS_2005

> <r_lp_Energy>
13.2565

> <b_lp_Chiralities_Consistent>
1

> <s_lp_Variant>
AV-unprocessed.smi:1253-1

> <Gold.Version>
5.8.1

> <Gold.Id.Protein>
6NUR|6NUR_protein|mol2

> <Gold.PLP.Fitness>
39.7525

> <Gold.PLP.PLP>
-34.7520

> <Gold.PLP.part.hbond>
-2.0000

> <Gold.PLP.part.metal>
0.0000

> <Gold.PLP.part.buried>
-3.8920

> <Gold.PLP.part.nonpolar>
-29.4673

> <Gold.PLP.part.repulsive>
0.2472

> <Gold.PLP.ligand.clash>
0.0000

> <Gold.PLP.ligand.torsion>
0.7455

> <Gold.PLP.Chemscore.Hbond>
1.9833

> <Gold.PLP.Chemscore.CHOScore>
0.0000

> <Gold.PLP.Chemscore.Metal>
0.0000

> <Gold.Chemscore.Hbonds>
donor molecule, donor type, donor heavy atom, donor atom, acceptor molecule, acceptor atom, score
      L1  H     5    20       P1  8028  1.00
      L1  H     8    21       P1  8028  1.00

> <Gold.PLP.Chemscore.Internal.Correction>
0.5416

> <Gold.Rescore>
     Score         DG    S(hbond)    S(metal)    S(lipo)     H(rot)  DE(clash)    DE(int)     intcor
     15.42     -17.82       1.96        0.00      75.90       1.21       1.54       0.86       ----

> <Gold.Chemscore.Fitness>
15.4206

> <Gold.Chemscore.DG>
-17.8234

> <Gold.Chemscore.ZeroCoef>
-5.4800

> <Gold.Chemscore.Hbond>
1.9645

> <Gold.Chemscore.Metal>
0.0000

> <Gold.Chemscore.Lipo>
75.9019

> <Gold.Chemscore.Internal_Hbond>
0.0000

> <Gold.Chemscore.DEClash>
1.5392

> <Gold.Chemscore.DEInternal>
0.8636

> <Gold.Chemscore.Rot>
1.2103

> <Gold.Chemscore.Internal.Correction>
   9.000000E+99

> <Gold.Chemscore.Hbonds>
donor molecule, donor type, donor heavy atom, donor atom, acceptor molecule, acceptor atom, score
      L1  H     5    20       P1  8028  0.91
      L1  H     8    21       P1  8028  1.00

> <Gold.Chemscore.Hbond.Weighted>
-6.5613

> <Gold.Chemscore.Metal.Weighted>
-0.0000

> <Gold.Chemscore.Lipo.Weighted>
-8.8805

> <Gold.Chemscore.Internal_Hbond.Weighted>
0.0000

> <Gold.Chemscore.DEClash.Weighted>
1.5392

> <Gold.Chemscore.DEInternal.Weighted>
0.8636

> <Gold.Chemscore.Rot.Weighted>
3.0984

> <Gold.Chemscore.Internal.Correction.Weighted>
   9.000000E+99

> <Gold.Protein.RotatedTorsions>
[ 6907 6896 6895 6894 ] final  -36.04 input  -60.11 | X-H torsion
[ 7974 7965 7964 7962 ] final  -40.67 input  175.53 | X-H torsion
[ 8008 7997 7996 7995 ] final  154.62 input   59.86 | X-H torsion
[ 10167 10162 10161 10158 ] final   10.78 input  -65.29 | X-H torsion
[ 10718 10713 10712 10709 ] final    0.51 input   66.30 | X-H torsion
[ 10763 10752 10751 10750 ] final  -18.34 input  -60.55 | X-H torsion
[ 11005 11000 10999 10996 ] final -149.36 input  -57.11 | X-H torsion

> <Gold.Protein.ActiveResidues>
 VAL166  LYS551  ARG553  GLY616  TRP617  ASP618  TYR619  PRO620  LYS621  CYS622 
 ASP623  PHE694  ASN695  SER759  ASP760  ASP761  ALA762  ILE779  LEU786  VAL792 
 PHE793  MET794  SER795  GLU796  ALA797  LYS798  CYS799  TRP800  GLU811  SER814 

> <Gold.Protein.RotatedAtoms>
  151.0322  134.9547  159.8116 H   0  0  0  0  0  0  0  0  0  0  0  0  # atno 6907 bound_to 6896
  152.5348  134.2766  159.9001 H   0  0  0  0  0  0  0  0  0  0  0  0  # atno 6908 bound_to 6896
  151.2776  133.4183  159.2659 H   0  0  0  0  0  0  0  0  0  0  0  0  # atno 6909 bound_to 6896
  146.0283  140.6764  142.9145 H   0  0  0  0  0  0  0  0  0  0  0  0  # atno 7974 bound_to 7965
  156.2521  140.1961  156.6675 H   0  0  0  0  0  0  0  0  0  0  0  0  # atno 8008 bound_to 7997
  154.6418  140.0582  156.9880 H   0  0  0  0  0  0  0  0  0  0  0  0  # atno 8009 bound_to 7997
  155.1551  140.3255  155.4425 H   0  0  0  0  0  0  0  0  0  0  0  0  # atno 8010 bound_to 7997
  140.6173  143.8280  150.7133 H   0  0  0  0  0  0  0  0  0  0  0  0  # atno 10167 bound_to 10162
  156.8345  130.5500  149.5683 H   0  0  0  0  0  0  0  0  0  0  0  0  # atno 10718 bound_to 10713
  153.5878  135.7003  153.5436 H   0  0  0  0  0  0  0  0  0  0  0  0  # atno 10763 bound_to 10752
  153.3205  135.4075  155.1412 H   0  0  0  0  0  0  0  0  0  0  0  0  # atno 10764 bound_to 10752
  154.8606  135.3694  154.5408 H   0  0  0  0  0  0  0  0  0  0  0  0  # atno 10765 bound_to 10752
  140.7516  134.3400  157.5124 H   0  0  0  0  0  0  0  0  0  0  0  0  # atno 11005 bound_to 11000
  144.7019  140.3689  143.7149 LP  0  0  0  0  0  0  0  0  0  0  0  0  # atno 17320 bound_to 7965
  145.7083  139.1678  143.2553 LP  0  0  0  0  0  0  0  0  0  0  0  0  # atno 17321 bound_to 7965
  140.1862  143.4074  152.1896 LP  0  0  0  0  0  0  0  0  0  0  0  0  # atno 17342 bound_to 10162
  139.5409  144.7255  151.4737 LP  0  0  0  0  0  0  0  0  0  0  0  0  # atno 17343 bound_to 10162
  156.0915  130.5900  150.9741 LP  0  0  0  0  0  0  0  0  0  0  0  0  # atno 17370 bound_to 10713
  157.6389  131.0912  150.8292 LP  0  0  0  0  0  0  0  0  0  0  0  0  # atno 17371 bound_to 10713
  139.8786  134.9145  156.3109 LP  0  0  0  0  0  0  0  0  0  0  0  0  # atno 17394 bound_to 11000
  140.9746  133.7306  156.0583 LP  0  0  0  0  0  0  0  0  0  0  0  0  # atno 17395 bound_to 11000

$$$$
