AV-unprocessed.smi:2273|AV-procd|sdf|9164|dock5
  -GOLD-   2272012373D 1   1.00000     0.00000
 Structure written by MMmdl.
 53 54  0  0  0  0  0  0  0  0  1 V2000
  149.8246  141.3812  156.7056 C   0  0  0  0  0  0  0  0  0  0  0  0
  150.0125  141.7011  155.2177 C   0  0  0  0  0  0  0  0  0  0  0  0
  149.4014  140.6847  154.2152 C   0  0  0  0  0  0  0  0  0  0  0  0
  147.8617  140.6155  154.4023 C   0  0  0  0  0  0  0  0  0  0  0  0
  147.1074  141.9214  154.1062 C   0  0  0  0  0  0  0  0  0  0  0  0
  150.0661  139.2790  154.3326 C   0  0  2  0  0  0  0  0  0  0  0  0
  149.7079  138.5414  155.6476 C   0  0  0  0  0  0  0  0  0  0  0  0
  150.3666  137.1509  155.7194 C   0  0  1  0  0  0  0  0  0  0  0  0
  149.7701  136.2255  154.7502 N   0  0  0  0  0  0  0  0  0  0  0  0
  149.4893  134.9186  154.9006 C   0  0  0  0  0  0  0  0  0  0  0  0
  149.7361  134.3292  155.9516 O   0  0  0  0  0  0  0  0  0  0  0  0
  148.9385  134.3377  153.8152 N   0  0  0  0  0  0  0  0  0  0  0  0
  148.5594  132.9920  153.6836 C   0  0  0  0  0  0  0  0  0  0  0  0
  147.3712  132.7017  153.0907 C   0  0  0  0  0  0  0  0  0  0  0  0
  146.4680  133.7883  152.5303 C   0  0  0  0  0  0  0  0  0  0  0  0
  146.9667  131.3172  152.9624 C   0  0  0  0  0  0  0  0  0  0  0  0
  147.7639  130.3509  153.4368 C   0  0  0  0  0  0  0  0  0  0  0  0
  148.9772  130.6448  154.0746 N   0  0  0  0  0  0  0  0  0  0  0  0
  149.7701  129.5186  154.5742 C   0  0  0  0  0  0  0  0  0  0  0  0
  149.4078  131.9245  154.2694 C   0  0  0  0  0  0  0  0  0  0  0  0
  150.4338  132.1520  154.9145 O   0  0  0  0  0  0  0  0  0  0  0  0
  151.8746  137.2898  155.4655 C   0  0  0  0  0  0  0  0  0  0  0  0
  152.1548  138.1241  154.2055 C   0  0  0  0  0  0  0  0  0  0  0  0
  151.4908  139.3799  154.3007 O   0  0  0  0  0  0  0  0  0  0  0  0
  150.3940  142.0778  157.3212 H   0  0  0  0  0  0  0  0  0  0  0  0
  150.1723  140.3752  156.9403 H   0  0  0  0  0  0  0  0  0  0  0  0
  148.7814  141.4711  157.0080 H   0  0  0  0  0  0  0  0  0  0  0  0
  149.6142  142.6964  155.0178 H   0  0  0  0  0  0  0  0  0  0  0  0
  151.0866  141.7709  155.0528 H   0  0  0  0  0  0  0  0  0  0  0  0
  149.5739  141.0558  153.2038 H   0  0  0  0  0  0  0  0  0  0  0  0
  147.4461  139.8668  153.7278 H   0  0  0  0  0  0  0  0  0  0  0  0
  147.6246  140.2798  155.4125 H   0  0  0  0  0  0  0  0  0  0  0  0
  146.0308  141.7503  154.1158 H   0  0  0  0  0  0  0  0  0  0  0  0
  147.3698  142.3160  153.1243 H   0  0  0  0  0  0  0  0  0  0  0  0
  147.3120  142.6908  154.8500 H   0  0  0  0  0  0  0  0  0  0  0  0
  149.7580  138.6852  153.4701 H   0  0  0  0  0  0  0  0  0  0  0  0
  150.0549  139.1385  156.4921 H   0  0  0  0  0  0  0  0  0  0  0  0
  148.6333  138.4464  155.7822 H   0  0  0  0  0  0  0  0  0  0  0  0
  150.2394  136.7435  156.7235 H   0  0  0  0  0  0  0  0  0  0  0  0
  149.4977  136.6383  153.8697 H   0  0  0  0  0  0  0  0  0  0  0  0
  148.8938  134.8904  152.9717 H   0  0  0  0  0  0  0  0  0  0  0  0
  145.5312  133.3714  152.1597 H   0  0  0  0  0  0  0  0  0  0  0  0
  146.9611  134.2947  151.7014 H   0  0  0  0  0  0  0  0  0  0  0  0
  146.2257  134.5264  153.2957 H   0  0  0  0  0  0  0  0  0  0  0  0
  146.0352  131.0586  152.4805 H   0  0  0  0  0  0  0  0  0  0  0  0
  147.5174  129.3015  153.3675 H   0  0  0  0  0  0  0  0  0  0  0  0
  150.7960  129.5746  154.2065 H   0  0  0  0  0  0  0  0  0  0  0  0
  149.3712  128.5523  154.2634 H   0  0  0  0  0  0  0  0  0  0  0  0
  149.7987  129.5276  155.6646 H   0  0  0  0  0  0  0  0  0  0  0  0
  152.3351  137.7840  156.3219 H   0  0  0  0  0  0  0  0  0  0  0  0
  152.3456  136.3092  155.3877 H   0  0  0  0  0  0  0  0  0  0  0  0
  153.2259  138.3001  154.1065 H   0  0  0  0  0  0  0  0  0  0  0  0
  151.8380  137.5964  153.3047 H   0  0  0  0  0  0  0  0  0  0  0  0
  1  2  1  0  0  0  0
  1 25  1  0  0  0  0
  1 26  1  0  0  0  0
  1 27  1  0  0  0  0
  2  3  1  0  0  0  0
  2 28  1  0  0  0  0
  2 29  1  0  0  0  0
  3  4  1  0  0  0  0
  3  6  1  0  0  0  0
  3 30  1  0  0  0  0
  4  5  1  0  0  0  0
  4 31  1  0  0  0  0
  4 32  1  0  0  0  0
  5 33  1  0  0  0  0
  5 34  1  0  0  0  0
  5 35  1  0  0  0  0
  6 24  1  0  0  0  0
  6  7  1  0  0  0  0
  6 36  1  0  0  0  0
  7  8  1  0  0  0  0
  7 37  1  0  0  0  0
  7 38  1  0  0  0  0
  8  9  1  0  0  0  0
  8 22  1  0  0  0  0
  8 39  1  0  0  0  0
  9 10  1  0  0  0  0
  9 40  1  0  0  0  0
 10 11  2  0  0  0  0
 10 12  1  0  0  0  0
 12 13  1  0  0  0  0
 12 41  1  0  0  0  0
 13 20  1  0  0  0  0
 13 14  2  0  0  0  0
 14 15  1  0  0  0  0
 14 16  1  0  0  0  0
 15 42  1  0  0  0  0
 15 43  1  0  0  0  0
 15 44  1  0  0  0  0
 16 17  2  0  0  0  0
 16 45  1  0  0  0  0
 17 18  1  0  0  0  0
 17 46  1  0  0  0  0
 18 19  1  0  0  0  0
 18 20  1  0  0  0  0
 19 47  1  0  0  0  0
 19 48  1  0  0  0  0
 19 49  1  0  0  0  0
 20 21  2  0  0  0  0
 22 23  1  0  0  0  0
 22 50  1  0  0  0  0
 22 51  1  0  0  0  0
 23 24  1  0  0  0  0
 23 52  1  0  0  0  0
 23 53  1  0  0  0  0
M  END
> <s_m_source_file>
AV-unprocessed.smi

> <i_m_source_file_index>
2273

> <i_lp_mmshare_version>
43012

> <i_f3d_flags>
0

> <s_epik_input>
W0NIM11bQ0gyXVtDSF0oW0NIMl1bQ0gzXSlbQ0BASF0xW0NIMl1bQ0BIXShbQ0gyXVtDSDJdTzEpW05IXUMoPU8pW05IXWMyYyhbQ0gzXSlbY0hdW2NIXW4oW0NIM10pYzI9Tw==

> <s_epik_cmdline>
J2VwaWtfcHl0aG9uJywgJy1waCcsICc3LjAnLCAnLXRuJywgJzgnLCAnLW1hJywgJzIwMCcsICctbWV0YWxfYmluZGluZycsICctaW1hZScsICc8aW5maWxlLm1hZT4nLCAnLW9tYWUnLCAnPG91dGZpbGUubWFlPic=

> <r_lp_tautomer_probability>
1

> <r_epik_Ionization_Penalty>
2.66245e-05

> <r_epik_Ionization_Penalty_Charging>
6.91055e-06

> <r_epik_Ionization_Penalty_Neutral>
1.97139e-05

> <r_epik_State_Penalty>
-0

> <r_epik_Charging_Adjusted_Penalty>
6.91055e-06

> <i_epik_Tot_Q>
0

> <i_epik_Tot_abs_Q>
0

> <r_epik_Metal_State_Penalty>
-0

> <b_epik_Metal_Only>
0

> <s_lp_Force_Field>
OPLS_2005

> <r_lp_Energy>
42.8548

> <b_lp_Chiralities_Consistent>
1

> <s_lp_Variant>
AV-unprocessed.smi:2273-1

> <Gold.Version>
5.8.1

> <Gold.Id.Protein>
6NUR|6NUR_protein|mol2

> <Gold.PLP.Fitness>
48.5622

> <Gold.PLP.PLP>
-40.9173

> <Gold.PLP.part.hbond>
-3.0000

> <Gold.PLP.part.metal>
0.0000

> <Gold.PLP.part.buried>
-3.0269

> <Gold.PLP.part.nonpolar>
-35.1029

> <Gold.PLP.part.repulsive>
0.1815

> <Gold.PLP.ligand.clash>
0.0000

> <Gold.PLP.ligand.torsion>
0.7277

> <Gold.PLP.Chemscore.Hbond>
2.8460

> <Gold.PLP.Chemscore.CHOScore>
0.0000

> <Gold.PLP.Chemscore.Metal>
0.0000

> <Gold.Chemscore.Hbonds>
donor molecule, donor type, donor heavy atom, donor atom, acceptor molecule, acceptor atom, score
      L1  H     9    40       P1  7948  0.76
      L1  H    12    41       P1  7948  0.80
      P1  H  7989  7998       L1    24  1.00

> <Gold.PLP.Chemscore.Internal.Correction>
0.5623

> <Gold.Rescore>
     Score         DG    S(hbond)    S(metal)    S(lipo)     H(rot)  DE(clash)    DE(int)     intcor
     15.60     -18.46       1.96        0.00      86.24       1.42       0.40       2.45       ----

> <Gold.Chemscore.Fitness>
15.6036

> <Gold.Chemscore.DG>
-18.4594

> <Gold.Chemscore.ZeroCoef>
-5.4800

> <Gold.Chemscore.Hbond>
1.9562

> <Gold.Chemscore.Metal>
0.0000

> <Gold.Chemscore.Lipo>
86.2407

> <Gold.Chemscore.Internal_Hbond>
0.0000

> <Gold.Chemscore.DEClash>
0.4036

> <Gold.Chemscore.DEInternal>
2.4522

> <Gold.Chemscore.Rot>
1.4236

> <Gold.Chemscore.Internal.Correction>
   9.000000E+99

> <Gold.Chemscore.Hbonds>
donor molecule, donor type, donor heavy atom, donor atom, acceptor molecule, acceptor atom, score
      L1  H     9    40       P1  7948  0.61
      L1  H    12    41       P1  7948  0.12
      P1  H  7989  7998       L1    24  0.25

> <Gold.Chemscore.Hbond.Weighted>
-6.5337

> <Gold.Chemscore.Metal.Weighted>
-0.0000

> <Gold.Chemscore.Lipo.Weighted>
-10.0902

> <Gold.Chemscore.Internal_Hbond.Weighted>
0.0000

> <Gold.Chemscore.DEClash.Weighted>
0.4036

> <Gold.Chemscore.DEInternal.Weighted>
2.4522

> <Gold.Chemscore.Rot.Weighted>
3.6445

> <Gold.Chemscore.Internal.Correction.Weighted>
   9.000000E+99

> <Gold.Protein.RotatedTorsions>
[ 6907 6896 6895 6894 ] final  102.60 input  -60.11 | X-H torsion
[ 7974 7965 7964 7962 ] final -165.89 input  175.53 | X-H torsion
[ 8008 7997 7996 7995 ] final   75.19 input   59.86 | X-H torsion
[ 10167 10162 10161 10158 ] final  121.75 input  -65.29 | X-H torsion
[ 10718 10713 10712 10709 ] final  129.27 input   66.30 | X-H torsion
[ 10763 10752 10751 10750 ] final   36.70 input  -60.55 | X-H torsion
[ 11005 11000 10999 10996 ] final   59.53 input  -57.11 | X-H torsion

> <Gold.Protein.ActiveResidues>
 VAL166  LYS551  ARG553  GLY616  TRP617  ASP618  TYR619  PRO620  LYS621  CYS622 
 ASP623  PHE694  ASN695  SER759  ASP760  ASP761  ALA762  ILE779  LEU786  VAL792 
 PHE793  MET794  SER795  GLU796  ALA797  LYS798  CYS799  TRP800  GLU811  SER814 

> <Gold.Protein.RotatedAtoms>
  152.5319  133.9952  159.7868 H   0  0  0  0  0  0  0  0  0  0  0  0  # atno 6907 bound_to 6896
  151.0181  133.5895  159.2681 H   0  0  0  0  0  0  0  0  0  0  0  0  # atno 6908 bound_to 6896
  151.2944  135.0758  159.9269 H   0  0  0  0  0  0  0  0  0  0  0  0  # atno 6909 bound_to 6896
  144.7259  140.2748  143.6245 H   0  0  0  0  0  0  0  0  0  0  0  0  # atno 7974 bound_to 7965
  155.8093  140.3473  155.5448 H   0  0  0  0  0  0  0  0  0  0  0  0  # atno 8008 bound_to 7997
  155.8457  140.0948  157.1727 H   0  0  0  0  0  0  0  0  0  0  0  0  # atno 8009 bound_to 7997
  154.4006  140.1386  156.3770 H   0  0  0  0  0  0  0  0  0  0  0  0  # atno 8010 bound_to 7997
  139.5900  144.7021  151.3313 H   0  0  0  0  0  0  0  0  0  0  0  0  # atno 10167 bound_to 10162
  157.5170  131.1097  150.9210 H   0  0  0  0  0  0  0  0  0  0  0  0  # atno 10718 bound_to 10713
  153.0066  135.6298  154.2028 H   0  0  0  0  0  0  0  0  0  0  0  0  # atno 10763 bound_to 10752
  154.1771  135.2815  155.3065 H   0  0  0  0  0  0  0  0  0  0  0  0  # atno 10764 bound_to 10752
  154.5863  135.5631  153.7294 H   0  0  0  0  0  0  0  0  0  0  0  0  # atno 10765 bound_to 10752
  140.0297  134.6030  155.9523 H   0  0  0  0  0  0  0  0  0  0  0  0  # atno 11005 bound_to 11000
  145.8008  139.1963  143.2049 LP  0  0  0  0  0  0  0  0  0  0  0  0  # atno 17320 bound_to 7965
  146.0678  140.7901  142.9703 LP  0  0  0  0  0  0  0  0  0  0  0  0  # atno 17321 bound_to 7965
  140.7165  143.7252  150.7665 LP  0  0  0  0  0  0  0  0  0  0  0  0  # atno 17342 bound_to 10162
  140.0806  143.4972  152.2532 LP  0  0  0  0  0  0  0  0  0  0  0  0  # atno 17343 bound_to 10162
  156.9833  130.5535  149.5298 LP  0  0  0  0  0  0  0  0  0  0  0  0  # atno 17370 bound_to 10713
  156.0327  130.5417  150.8575 LP  0  0  0  0  0  0  0  0  0  0  0  0  # atno 17371 bound_to 10713
  141.1824  133.6549  156.5075 LP  0  0  0  0  0  0  0  0  0  0  0  0  # atno 17394 bound_to 11000
  140.4246  134.7157  157.4908 LP  0  0  0  0  0  0  0  0  0  0  0  0  # atno 17395 bound_to 11000

$$$$
