AV-unprocessed.smi:1024|AV-procd|sdf|4465|dock5
  -GOLD-   22720 2443D 1   1.00000     0.00000
 Structure written by MMmdl.
 47 49  0  0  0  0  0  0  0  0  1 V2000
  145.4073  136.4197  154.1906 O   0  0  0  0  0  0  0  0  0  0  0  0
  145.7169  137.2991  153.3852 C   0  0  0  0  0  0  0  0  0  0  0  0
  145.5015  137.1635  152.0657 N   0  0  0  0  0  0  0  0  0  0  0  0
  144.9171  135.9931  151.4222 C   0  0  0  0  0  0  0  0  0  0  0  0
  145.9401  134.8534  151.2897 C   0  0  0  0  0  0  0  0  0  0  0  0
  145.3070  133.6185  150.8743 N   0  0  0  0  0  0  0  0  0  0  0  0
  143.9620  133.4202  150.5922 C   0  0  0  0  0  0  0  0  0  0  0  0
  143.8252  132.0953  150.2441 C   0  0  0  0  0  0  0  0  0  0  0  0
  145.0652  131.4637  150.3061 N   0  0  0  0  0  0  0  0  0  0  0  0
  145.8932  132.4282  150.6865 C   0  0  0  0  0  0  0  0  0  0  0  0
  146.2682  138.4841  153.7524 N   0  0  0  0  0  0  0  0  0  0  0  0
  146.8280  139.5016  152.8494 C   0  0  0  0  0  0  0  0  0  0  0  0
  148.3655  139.4507  152.9404 C   0  0  0  0  0  0  0  0  0  0  0  0
  148.8992  139.6591  154.3856 C   0  0  0  0  0  0  0  0  0  0  0  0
  150.4088  139.3018  154.4016 C   0  0  0  0  0  0  0  0  0  0  0  0
  151.1074  139.6439  155.7297 C   0  0  0  0  0  0  0  0  0  0  0  0
  150.9346  141.1273  156.0808 C   0  0  0  0  0  0  0  0  0  0  0  0
  149.4511  141.5176  156.1095 C   0  0  0  0  0  0  0  0  0  0  0  0
  148.7495  141.1549  154.7875 C   0  0  0  0  0  0  0  0  0  0  0  0
  148.1122  138.7177  155.3457 C   0  0  0  0  0  0  0  0  0  0  0  0
  146.5852  138.7934  155.1503 C   0  0  0  0  0  0  0  0  0  0  0  0
  145.7674  137.9293  151.4638 H   0  0  0  0  0  0  0  0  0  0  0  0
  144.0383  135.6592  151.9766 H   0  0  0  0  0  0  0  0  0  0  0  0
  144.5652  136.2931  150.4348 H   0  0  0  0  0  0  0  0  0  0  0  0
  146.7075  135.1121  150.5589 H   0  0  0  0  0  0  0  0  0  0  0  0
  146.4501  134.6780  152.2380 H   0  0  0  0  0  0  0  0  0  0  0  0
  143.2342  134.2154  150.6611 H   0  0  0  0  0  0  0  0  0  0  0  0
  142.9368  131.5524  149.9568 H   0  0  0  0  0  0  0  0  0  0  0  0
  146.9510  132.2649  150.8329 H   0  0  0  0  0  0  0  0  0  0  0  0
  146.5229  139.3844  151.8098 H   0  0  0  0  0  0  0  0  0  0  0  0
  146.4580  140.4851  153.1406 H   0  0  0  0  0  0  0  0  0  0  0  0
  148.6964  138.4800  152.5672 H   0  0  0  0  0  0  0  0  0  0  0  0
  148.7980  140.1895  152.2648 H   0  0  0  0  0  0  0  0  0  0  0  0
  150.5487  138.2427  154.1818 H   0  0  0  0  0  0  0  0  0  0  0  0
  150.9154  139.8401  153.5990 H   0  0  0  0  0  0  0  0  0  0  0  0
  150.7113  139.0240  156.5344 H   0  0  0  0  0  0  0  0  0  0  0  0
  152.1690  139.4057  155.6580 H   0  0  0  0  0  0  0  0  0  0  0  0
  151.3961  141.3399  157.0455 H   0  0  0  0  0  0  0  0  0  0  0  0
  151.4586  141.7389  155.3452 H   0  0  0  0  0  0  0  0  0  0  0  0
  148.9553  141.0292  156.9481 H   0  0  0  0  0  0  0  0  0  0  0  0
  149.3590  142.5888  156.2904 H   0  0  0  0  0  0  0  0  0  0  0  0
  149.1729  141.7799  154.0000 H   0  0  0  0  0  0  0  0  0  0  0  0
  147.7010  141.4418  154.8533 H   0  0  0  0  0  0  0  0  0  0  0  0
  148.4241  137.6865  155.1733 H   0  0  0  0  0  0  0  0  0  0  0  0
  148.3521  138.9217  156.3881 H   0  0  0  0  0  0  0  0  0  0  0  0
  146.2105  139.7864  155.3989 H   0  0  0  0  0  0  0  0  0  0  0  0
  146.0915  138.1175  155.8499 H   0  0  0  0  0  0  0  0  0  0  0  0
  1  2  2  0  0  0  0
  2  3  1  0  0  0  0
  2 11  1  0  0  0  0
  3  4  1  0  0  0  0
  3 22  1  0  0  0  0
  4  5  1  0  0  0  0
  4 23  1  0  0  0  0
  4 24  1  0  0  0  0
  5  6  1  0  0  0  0
  5 25  1  0  0  0  0
  5 26  1  0  0  0  0
  6 10  1  0  0  0  0
  6  7  1  0  0  0  0
  7  8  2  0  0  0  0
  7 27  1  0  0  0  0
  8  9  1  0  0  0  0
  8 28  1  0  0  0  0
  9 10  2  0  0  0  0
 10 29  1  0  0  0  0
 11 21  1  0  0  0  0
 11 12  1  0  0  0  0
 12 13  1  0  0  0  0
 12 30  1  0  0  0  0
 12 31  1  0  0  0  0
 13 14  1  0  0  0  0
 13 32  1  0  0  0  0
 13 33  1  0  0  0  0
 14 19  1  0  0  0  0
 14 15  1  0  0  0  0
 14 20  1  0  0  0  0
 15 16  1  0  0  0  0
 15 34  1  0  0  0  0
 15 35  1  0  0  0  0
 16 17  1  0  0  0  0
 16 36  1  0  0  0  0
 16 37  1  0  0  0  0
 17 18  1  0  0  0  0
 17 38  1  0  0  0  0
 17 39  1  0  0  0  0
 18 19  1  0  0  0  0
 18 40  1  0  0  0  0
 18 41  1  0  0  0  0
 19 42  1  0  0  0  0
 19 43  1  0  0  0  0
 20 21  1  0  0  0  0
 20 44  1  0  0  0  0
 20 45  1  0  0  0  0
 21 46  1  0  0  0  0
 21 47  1  0  0  0  0
M  END
> <s_m_source_file>
AV-unprocessed.smi

> <i_m_source_file_index>
1024

> <i_lp_mmshare_version>
43012

> <i_f3d_flags>
0

> <s_epik_input>
W2NIXTFuW2NIXVtjSF1uMVtDSDJdW0NIMl1bTkhdQyg9TylOKFtDSDJdW0NIMl0yKVtDSDJdW0NIMl1DMjNbQ0gyXVtDSDJdW0NIMl1bQ0gyXVtDSDJdMw==

> <s_epik_cmdline>
J2VwaWtfcHl0aG9uJywgJy1waCcsICc3LjAnLCAnLXRuJywgJzgnLCAnLW1hJywgJzIwMCcsICctbWV0YWxfYmluZGluZycsICctaW1hZScsICc8aW5maWxlLm1hZT4nLCAnLW9tYWUnLCAnPG91dGZpbGUubWFlPic=

> <r_lp_tautomer_probability>
1

> <r_epik_Ionization_Penalty>
0.632392

> <r_epik_Ionization_Penalty_Charging>
0.632323

> <r_epik_Ionization_Penalty_Neutral>
6.90503e-05

> <r_epik_State_Penalty>
0.649284

> <r_epik_Charging_Adjusted_Penalty>
1.28161

> <i_epik_Tot_Q>
0

> <i_epik_Tot_abs_Q>
0

> <r_epik_Metal_State_Penalty>
0.309626

> <b_epik_Metal_Only>
0

> <s_lp_Force_Field>
OPLS_2005

> <r_lp_Energy>
42.875

> <b_lp_Chiralities_Consistent>
1

> <s_lp_Variant>
AV-unprocessed.smi:1024-2

> <Gold.Version>
5.8.1

> <Gold.Id.Protein>
6NUR|6NUR_protein|mol2

> <Gold.PLP.Fitness>
41.2967

> <Gold.PLP.PLP>
-32.6102

> <Gold.PLP.part.hbond>
-0.8043

> <Gold.PLP.part.metal>
0.0000

> <Gold.PLP.part.buried>
1.4408

> <Gold.PLP.part.nonpolar>
-34.4039

> <Gold.PLP.part.repulsive>
0.1871

> <Gold.PLP.ligand.clash>
0.0000

> <Gold.PLP.ligand.torsion>
0.1710

> <Gold.PLP.Chemscore.Hbond>
0.0000

> <Gold.PLP.Chemscore.CHOScore>
2.9992

> <Gold.PLP.Chemscore.Metal>
0.0000

> <Gold.Chemscore.Hbonds>
donor molecule, donor type, donor heavy atom, donor atom, acceptor molecule, acceptor atom, score
      L1  C     7    27       P1 10186  1.00
      L1  C     8    28       P1 10952  1.00
      L1  C    10    29       P1 10747  1.00

> <Gold.PLP.Chemscore.Internal.Correction>
0.0310

> <Gold.Rescore>
     Score         DG    S(hbond)    S(metal)    S(lipo)     H(rot)  DE(clash)    DE(int)     intcor
     10.27     -12.89       0.01        0.00      96.47       1.52       2.45       0.16       ----

> <Gold.Chemscore.Fitness>
10.2737

> <Gold.Chemscore.DG>
-12.8861

> <Gold.Chemscore.ZeroCoef>
-5.4800

> <Gold.Chemscore.Hbond>
0.0051

> <Gold.Chemscore.Metal>
0.0000

> <Gold.Chemscore.Lipo>
96.4705

> <Gold.Chemscore.Internal_Hbond>
0.0000

> <Gold.Chemscore.DEClash>
2.4492

> <Gold.Chemscore.DEInternal>
0.1632

> <Gold.Chemscore.Rot>
1.5227

> <Gold.Chemscore.Internal.Correction>
   9.000000E+99

> <Gold.Chemscore.Hbond.Weighted>
-0.0170

> <Gold.Chemscore.Metal.Weighted>
-0.0000

> <Gold.Chemscore.Lipo.Weighted>
-11.2870

> <Gold.Chemscore.Internal_Hbond.Weighted>
0.0000

> <Gold.Chemscore.DEClash.Weighted>
2.4492

> <Gold.Chemscore.DEInternal.Weighted>
0.1632

> <Gold.Chemscore.Rot.Weighted>
3.8980

> <Gold.Chemscore.Internal.Correction.Weighted>
   9.000000E+99

> <Gold.Protein.RotatedTorsions>
[ 6907 6896 6895 6894 ] final  -49.58 input  -60.11 | X-H torsion
[ 7974 7965 7964 7962 ] final  -88.32 input  175.53 | X-H torsion
[ 8008 7997 7996 7995 ] final -177.35 input   59.86 | X-H torsion
[ 10167 10162 10161 10158 ] final  122.35 input  -65.29 | X-H torsion
[ 10718 10713 10712 10709 ] final -154.31 input   66.30 | X-H torsion
[ 10763 10752 10751 10750 ] final -101.67 input  -60.55 | X-H torsion
[ 11005 11000 10999 10996 ] final  129.53 input  -57.11 | X-H torsion

> <Gold.Protein.ActiveResidues>
 VAL166  LYS551  ARG553  GLY616  TRP617  ASP618  TYR619  PRO620  LYS621  CYS622 
 ASP623  PHE694  ASN695  SER759  ASP760  ASP761  ALA762  ILE779  LEU786  VAL792 
 PHE793  MET794  SER795  GLU796  ALA797  LYS798  CYS799  TRP800  GLU811  SER814 

> <Gold.Protein.RotatedAtoms>
  150.8792  134.8180  159.7211 H   0  0  0  0  0  0  0  0  0  0  0  0  # atno 6907 bound_to 6896
  152.4766  134.4824  159.9679 H   0  0  0  0  0  0  0  0  0  0  0  0  # atno 6908 bound_to 6896
  151.4901  133.3488  159.2887 H   0  0  0  0  0  0  0  0  0  0  0  0  # atno 6909 bound_to 6896
  145.4547  140.9561  143.2003 H   0  0  0  0  0  0  0  0  0  0  0  0  # atno 7974 bound_to 7965
  156.0058  140.1230  157.0502 H   0  0  0  0  0  0  0  0  0  0  0  0  # atno 8008 bound_to 7997
  154.4258  140.1097  156.5830 H   0  0  0  0  0  0  0  0  0  0  0  0  # atno 8009 bound_to 7997
  155.6148  140.3472  155.4636 H   0  0  0  0  0  0  0  0  0  0  0  0  # atno 8010 bound_to 7997
  139.5864  144.7008  151.3399 H   0  0  0  0  0  0  0  0  0  0  0  0  # atno 10167 bound_to 10162
  156.4976  130.8376  151.2596 H   0  0  0  0  0  0  0  0  0  0  0  0  # atno 10718 bound_to 10713
  154.7675  135.4889  153.9583 H   0  0  0  0  0  0  0  0  0  0  0  0  # atno 10763 bound_to 10752
  153.1326  135.6756  153.9161 H   0  0  0  0  0  0  0  0  0  0  0  0  # atno 10764 bound_to 10752
  153.8860  135.3126  155.3425 H   0  0  0  0  0  0  0  0  0  0  0  0  # atno 10765 bound_to 10752
  139.9620  134.9600  156.9161 H   0  0  0  0  0  0  0  0  0  0  0  0  # atno 11005 bound_to 11000
  144.8040  139.6087  143.7059 LP  0  0  0  0  0  0  0  0  0  0  0  0  # atno 17320 bound_to 7965
  146.2485  139.6148  142.9443 LP  0  0  0  0  0  0  0  0  0  0  0  0  # atno 17321 bound_to 7965
  140.7135  143.7329  150.7610 LP  0  0  0  0  0  0  0  0  0  0  0  0  # atno 17342 bound_to 10162
  140.0874  143.4910  152.2497 LP  0  0  0  0  0  0  0  0  0  0  0  0  # atno 17343 bound_to 10162
  157.7467  130.9992  150.2882 LP  0  0  0  0  0  0  0  0  0  0  0  0  # atno 17370 bound_to 10713
  156.3365  130.3808  149.7446 LP  0  0  0  0  0  0  0  0  0  0  0  0  # atno 17371 bound_to 10713
  140.5478  134.0657  155.7360 LP  0  0  0  0  0  0  0  0  0  0  0  0  # atno 17394 bound_to 11000
  141.1298  133.9321  157.2559 LP  0  0  0  0  0  0  0  0  0  0  0  0  # atno 17395 bound_to 11000

$$$$
