AV-unprocessed.smi:3140|AV-procd|sdf|11960|dock6
  -GOLD-   2272017363D 1   1.00000     0.00000
 Structure written by MMmdl.
 37 38  0  0  0  0  0  0  0  0  1 V2000
  152.1771  139.1202  155.3759 C   0  0  0  0  0  0  0  0  0  0  0  0
  150.8619  139.8840  155.5996 C   0  0  2  0  0  0  0  0  0  0  0  0
  149.8912  139.7734  154.3951 C   0  0  0  0  0  0  0  0  0  0  0  0
  148.6829  140.5722  154.5314 N   0  0  0  0  0  0  0  0  0  0  0  0
  147.6212  140.3844  155.3915 C   0  0  0  0  0  0  0  0  0  0  0  0
  146.7254  141.3882  155.1584 C   0  0  0  0  0  0  0  0  0  0  0  0
  147.3383  142.1557  154.1290 C   0  0  0  0  0  0  0  0  0  0  0  0
  148.5109  141.6680  153.7600 N   0  0  0  0  0  0  0  0  0  0  0  0
  151.2060  141.2689  155.9006 N   0  0  0  0  0  0  0  0  0  0  0  0
  151.1862  141.5575  157.3278 C   0  0  0  0  0  0  0  0  0  0  0  0
  151.3704  143.0679  157.5523 C   0  0  0  0  0  0  0  0  0  0  0  0
  151.7531  143.3705  158.9312 N   0  0  0  0  0  0  0  0  0  0  0  0
  152.2811  142.3300  159.7978 C   0  0  0  0  0  0  0  0  0  0  0  0
  152.5636  143.0178  161.1420 C   0  0  0  0  0  0  0  0  0  0  0  0
  152.1804  144.4911  160.9622 C   0  0  0  0  0  0  0  0  0  0  0  0
  151.6737  144.5631  159.5325 C   0  0  0  0  0  0  0  0  0  0  0  0
  151.2556  145.6034  159.0264 O   0  0  0  0  0  0  0  0  0  0  0  0
  151.9846  138.0744  155.1349 H   0  0  0  0  0  0  0  0  0  0  0  0
  152.7988  139.1396  156.2715 H   0  0  0  0  0  0  0  0  0  0  0  0
  152.7629  139.5473  154.5612 H   0  0  0  0  0  0  0  0  0  0  0  0
  150.3783  139.4530  156.4773 H   0  0  0  0  0  0  0  0  0  0  0  0
  150.4048  140.1031  153.4912 H   0  0  0  0  0  0  0  0  0  0  0  0
  149.6067  138.7388  154.2037 H   0  0  0  0  0  0  0  0  0  0  0  0
  147.5910  139.5589  156.0873 H   0  0  0  0  0  0  0  0  0  0  0  0
  145.7774  141.5507  155.6495 H   0  0  0  0  0  0  0  0  0  0  0  0
  146.9702  143.0477  153.6441 H   0  0  0  0  0  0  0  0  0  0  0  0
  152.1240  141.4787  155.5355 H   0  0  0  0  0  0  0  0  0  0  0  0
  150.2578  141.2248  157.7896 H   0  0  0  0  0  0  0  0  0  0  0  0
  151.9968  141.0089  157.8084 H   0  0  0  0  0  0  0  0  0  0  0  0
  152.1491  143.4407  156.8854 H   0  0  0  0  0  0  0  0  0  0  0  0
  150.4613  143.6096  157.2870 H   0  0  0  0  0  0  0  0  0  0  0  0
  151.5549  141.5240  159.9089 H   0  0  0  0  0  0  0  0  0  0  0  0
  153.1932  141.9114  159.3703 H   0  0  0  0  0  0  0  0  0  0  0  0
  151.9772  142.5610  161.9401 H   0  0  0  0  0  0  0  0  0  0  0  0
  153.6153  142.9196  161.4137 H   0  0  0  0  0  0  0  0  0  0  0  0
  151.3988  144.7943  161.6594 H   0  0  0  0  0  0  0  0  0  0  0  0
  153.0400  145.1500  161.0904 H   0  0  0  0  0  0  0  0  0  0  0  0
  1  2  1  0  0  0  0
  1 18  1  0  0  0  0
  1 19  1  0  0  0  0
  1 20  1  0  0  0  0
  2  3  1  0  0  0  0
  2  9  1  0  0  0  0
  2 21  1  0  0  0  0
  3  4  1  0  0  0  0
  3 22  1  0  0  0  0
  3 23  1  0  0  0  0
  4  8  1  0  0  0  0
  4  5  1  0  0  0  0
  5  6  2  0  0  0  0
  5 24  1  0  0  0  0
  6  7  1  0  0  0  0
  6 25  1  0  0  0  0
  7  8  2  0  0  0  0
  7 26  1  0  0  0  0
  9 10  1  0  0  0  0
  9 27  1  0  0  0  0
 10 11  1  0  0  0  0
 10 28  1  0  0  0  0
 10 29  1  0  0  0  0
 11 12  1  0  0  0  0
 11 30  1  0  0  0  0
 11 31  1  0  0  0  0
 12 16  1  0  0  0  0
 12 13  1  0  0  0  0
 13 14  1  0  0  0  0
 13 32  1  0  0  0  0
 13 33  1  0  0  0  0
 14 15  1  0  0  0  0
 14 34  1  0  0  0  0
 14 35  1  0  0  0  0
 15 16  1  0  0  0  0
 15 36  1  0  0  0  0
 15 37  1  0  0  0  0
 16 17  2  0  0  0  0
M  END
> <s_m_source_file>
AV-unprocessed.smi

> <i_m_source_file_index>
3140

> <i_lp_mmshare_version>
43012

> <i_f3d_flags>
0

> <s_epik_input>
bjFbY0hdW2NIXVtjSF1uMVtDSDJdW0NAQEhdKFtDSDNdKVtOSF1bQ0gyXVtDSDJdTjJbQ0gyXVtDSDJdW0NIMl1DMj1P

> <s_epik_cmdline>
J2VwaWtfcHl0aG9uJywgJy1waCcsICc3LjAnLCAnLXRuJywgJzgnLCAnLW1hJywgJzIwMCcsICctbWV0YWxfYmluZGluZycsICctaW1hZScsICc8aW5maWxlLm1hZT4nLCAnLW9tYWUnLCAnPG91dGZpbGUubWFlPic=

> <r_lp_tautomer_probability>
1

> <r_epik_Ionization_Penalty>
2.53587

> <r_epik_Ionization_Penalty_Charging>
0

> <r_epik_Ionization_Penalty_Neutral>
2.53587

> <r_epik_State_Penalty>
2.70334

> <r_epik_Charging_Adjusted_Penalty>
2.70334

> <i_epik_Tot_Q>
0

> <i_epik_Tot_abs_Q>
0

> <r_epik_Metal_State_Penalty>
2.7033

> <b_epik_Metal_Only>
0

> <s_lp_Force_Field>
OPLS_2005

> <r_lp_Energy>
23.3858

> <b_lp_Chiralities_Consistent>
1

> <s_lp_Variant>
AV-unprocessed.smi:3140-3

> <Gold.Version>
5.8.1

> <Gold.Id.Protein>
6NUR|6NUR_protein|mol2

> <Gold.PLP.Fitness>
41.3511

> <Gold.PLP.PLP>
-41.4769

> <Gold.PLP.part.hbond>
-2.5400

> <Gold.PLP.part.metal>
0.0000

> <Gold.PLP.part.buried>
-3.5240

> <Gold.PLP.part.nonpolar>
-35.0444

> <Gold.PLP.part.repulsive>
0.3340

> <Gold.PLP.ligand.clash>
0.0000

> <Gold.PLP.ligand.torsion>
1.0085

> <Gold.PLP.Chemscore.Hbond>
0.6080

> <Gold.PLP.Chemscore.CHOScore>
0.0000

> <Gold.PLP.Chemscore.Metal>
0.0000

> <Gold.Chemscore.Hbonds>
donor molecule, donor type, donor heavy atom, donor atom, acceptor molecule, acceptor atom, score
      P1  H  8011  8017       L1     8  0.57

> <Gold.PLP.Chemscore.Internal.Correction>
0.0672

> <Gold.Rescore>
     Score         DG    S(hbond)    S(metal)    S(lipo)     H(rot)  DE(clash)    DE(int)     intcor
     11.49     -12.55       0.58        0.00      87.11       1.97       0.02       1.04       ----

> <Gold.Chemscore.Fitness>
11.4851

> <Gold.Chemscore.DG>
-12.5452

> <Gold.Chemscore.ZeroCoef>
-5.4800

> <Gold.Chemscore.Hbond>
0.5754

> <Gold.Chemscore.Metal>
0.0000

> <Gold.Chemscore.Lipo>
87.1112

> <Gold.Chemscore.Internal_Hbond>
0.0000

> <Gold.Chemscore.DEClash>
0.0164

> <Gold.Chemscore.DEInternal>
1.0438

> <Gold.Chemscore.Rot>
1.9722

> <Gold.Chemscore.Internal.Correction>
   9.000000E+99

> <Gold.Chemscore.Hbonds>
donor molecule, donor type, donor heavy atom, donor atom, acceptor molecule, acceptor atom, score
      P1  H  8011  8017       L1     8  0.54

> <Gold.Chemscore.Hbond.Weighted>
-1.9220

> <Gold.Chemscore.Metal.Weighted>
-0.0000

> <Gold.Chemscore.Lipo.Weighted>
-10.1920

> <Gold.Chemscore.Internal_Hbond.Weighted>
0.0000

> <Gold.Chemscore.DEClash.Weighted>
0.0164

> <Gold.Chemscore.DEInternal.Weighted>
1.0438

> <Gold.Chemscore.Rot.Weighted>
5.0487

> <Gold.Chemscore.Internal.Correction.Weighted>
   9.000000E+99

> <Gold.Protein.RotatedTorsions>
[ 6907 6896 6895 6894 ] final   34.68 input  -60.11 | X-H torsion
[ 7974 7965 7964 7962 ] final -147.50 input  175.53 | X-H torsion
[ 8008 7997 7996 7995 ] final   25.75 input   59.86 | X-H torsion
[ 10167 10162 10161 10158 ] final   24.48 input  -65.29 | X-H torsion
[ 10718 10713 10712 10709 ] final  130.47 input   66.30 | X-H torsion
[ 10763 10752 10751 10750 ] final  121.09 input  -60.55 | X-H torsion
[ 11005 11000 10999 10996 ] final  124.11 input  -57.11 | X-H torsion

> <Gold.Protein.ActiveResidues>
 VAL166  LYS551  ARG553  GLY616  TRP617  ASP618  TYR619  PRO620  LYS621  CYS622 
 ASP623  PHE694  ASN695  SER759  ASP760  ASP761  ALA762  ILE779  LEU786  VAL792 
 PHE793  MET794  SER795  GLU796  ALA797  LYS798  CYS799  TRP800  GLU811  SER814 

> <Gold.Protein.RotatedAtoms>
  152.1057  134.9310  160.0568 H   0  0  0  0  0  0  0  0  0  0  0  0  # atno 6907 bound_to 6896
  152.0507  133.4013  159.4384 H   0  0  0  0  0  0  0  0  0  0  0  0  # atno 6908 bound_to 6896
  150.6841  134.3232  159.4839 H   0  0  0  0  0  0  0  0  0  0  0  0  # atno 6909 bound_to 6896
  144.8089  140.5318  143.5656 H   0  0  0  0  0  0  0  0  0  0  0  0  # atno 7974 bound_to 7965
  155.0166  140.3143  155.4809 H   0  0  0  0  0  0  0  0  0  0  0  0  # atno 8008 bound_to 7997
  156.2900  140.2205  156.5224 H   0  0  0  0  0  0  0  0  0  0  0  0  # atno 8009 bound_to 7997
  154.7488  140.0468  157.0863 H   0  0  0  0  0  0  0  0  0  0  0  0  # atno 8010 bound_to 7997
  140.5185  144.0042  150.6405 H   0  0  0  0  0  0  0  0  0  0  0  0  # atno 10167 bound_to 10162
  157.5058  131.1095  150.9363 H   0  0  0  0  0  0  0  0  0  0  0  0  # atno 10718 bound_to 10713
  153.6087  135.3434  155.2971 H   0  0  0  0  0  0  0  0  0  0  0  0  # atno 10763 bound_to 10752
  154.8623  135.4245  154.2333 H   0  0  0  0  0  0  0  0  0  0  0  0  # atno 10764 bound_to 10752
  153.3179  135.7036  153.7129 H   0  0  0  0  0  0  0  0  0  0  0  0  # atno 10765 bound_to 10752
  139.9343  134.9640  156.8360 H   0  0  0  0  0  0  0  0  0  0  0  0  # atno 11005 bound_to 11000
  145.5371  139.1475  143.3467 LP  0  0  0  0  0  0  0  0  0  0  0  0  # atno 17320 bound_to 7965
  146.2385  140.5511  142.8944 LP  0  0  0  0  0  0  0  0  0  0  0  0  # atno 17321 bound_to 7965
  140.3385  143.3034  152.0613 LP  0  0  0  0  0  0  0  0  0  0  0  0  # atno 17342 bound_to 10162
  139.4916  144.6459  151.6778 LP  0  0  0  0  0  0  0  0  0  0  0  0  # atno 17343 bound_to 10162
  157.0019  130.5603  149.5312 LP  0  0  0  0  0  0  0  0  0  0  0  0  # atno 17370 bound_to 10713
  156.0257  130.5351  150.8401 LP  0  0  0  0  0  0  0  0  0  0  0  0  # atno 17371 bound_to 10713
  140.6116  134.0077  155.7579 LP  0  0  0  0  0  0  0  0  0  0  0  0  # atno 17394 bound_to 11000
  141.0949  133.9859  157.3176 LP  0  0  0  0  0  0  0  0  0  0  0  0  # atno 17395 bound_to 11000

$$$$
