AV-unprocessed.smi:1983|AV-procd|sdf|8035|dock9
  -GOLD-   2272010233D 1   1.00000     0.00000
 Structure written by MMmdl.
 50 51  0  0  0  0  0  0  0  0  2 V2000
  146.7232  134.6003  155.5826 C   0  0  0  0  0  0  0  0  0  0  0  0
  148.1681  134.8425  155.1185 C   0  0  1  0  0  0  0  0  0  0  0  0
  148.7926  133.6289  154.3985 C   0  0  0  0  0  0  0  0  0  0  0  0
  148.4028  133.5743  153.0410 O   0  0  0  0  0  0  0  0  0  0  0  0
  148.2416  136.0437  154.2899 N   0  0  0  0  0  0  0  0  0  0  0  0
  147.9575  137.2881  154.6983 C   0  0  0  0  0  0  0  0  0  0  0  0
  147.5913  137.5765  155.8380 O   0  0  0  0  0  0  0  0  0  0  0  0
  148.1292  138.1858  153.7178 N   0  0  0  0  0  0  0  0  0  0  0  0
  147.8926  139.6195  153.8543 C   0  0  0  0  0  0  0  0  0  0  0  0
  148.8279  140.3173  154.8319 C   0  0  0  0  0  0  0  0  0  0  0  0
  149.7135  139.5574  155.6266 C   0  0  0  0  0  0  0  0  0  0  0  0
  150.5784  140.2132  156.5264 C   0  0  0  0  0  0  0  0  0  0  0  0
  150.5416  141.6240  156.6194 C   0  0  0  0  0  0  0  0  0  0  0  0
  151.3614  142.3647  157.4807 N   0  0  0  0  0  0  0  0  0  0  0  0
  152.1624  141.5456  158.3811 C   0  0  0  0  0  0  0  0  0  0  0  0
  153.1148  142.4383  159.1980 C   0  0  2  0  0  0  0  0  0  0  0  0
  153.9156  141.6357  160.2287 C   0  0  0  0  0  0  0  0  0  0  0  0
  152.3450  143.4183  159.8912 O   0  0  0  0  0  0  0  0  0  0  0  0
  151.6162  144.2709  159.0105 C   0  0  2  0  0  0  0  0  0  0  0  0
  150.8895  145.3248  159.8523 C   0  0  0  0  0  0  0  0  0  0  0  0
  150.6384  143.4188  158.1787 C   0  0  0  0  0  0  0  0  0  0  0  0
  149.6701  142.3130  155.8506 N   0  3  0  0  0  0  0  0  0  0  0  0
  148.8266  141.7227  154.9762 C   0  0  0  0  0  0  0  0  0  0  0  0
  146.6604  133.7189  156.2212 H   0  0  0  0  0  0  0  0  0  0  0  0
  146.0476  134.4496  154.7398 H   0  0  0  0  0  0  0  0  0  0  0  0
  146.3500  135.4488  156.1570 H   0  0  0  0  0  0  0  0  0  0  0  0
  148.7593  135.0259  156.0177 H   0  0  0  0  0  0  0  0  0  0  0  0
  149.8811  133.6481  154.4613 H   0  0  0  0  0  0  0  0  0  0  0  0
  148.4675  132.7063  154.8802 H   0  0  0  0  0  0  0  0  0  0  0  0
  148.3143  134.4582  152.7186 H   0  0  0  0  0  0  0  0  0  0  0  0
  148.5397  135.9131  153.3342 H   0  0  0  0  0  0  0  0  0  0  0  0
  148.4306  137.8540  152.8131 H   0  0  0  0  0  0  0  0  0  0  0  0
  148.0169  140.0800  152.8741 H   0  0  0  0  0  0  0  0  0  0  0  0
  146.8543  139.7879  154.1457 H   0  0  0  0  0  0  0  0  0  0  0  0
  149.7354  138.4804  155.5459 H   0  0  0  0  0  0  0  0  0  0  0  0
  151.2573  139.6350  157.1362 H   0  0  0  0  0  0  0  0  0  0  0  0
  151.5112  140.9873  159.0549 H   0  0  0  0  0  0  0  0  0  0  0  0
  152.7325  140.8167  157.8032 H   0  0  0  0  0  0  0  0  0  0  0  0
  153.8153  142.9409  158.5285 H   0  0  0  0  0  0  0  0  0  0  0  0
  154.5302  140.8770  159.7438 H   0  0  0  0  0  0  0  0  0  0  0  0
  153.2567  141.1315  160.9363 H   0  0  0  0  0  0  0  0  0  0  0  0
  154.5796  142.2867  160.7978 H   0  0  0  0  0  0  0  0  0  0  0  0
  152.3170  144.7800  158.3462 H   0  0  0  0  0  0  0  0  0  0  0  0
  150.3211  146.0084  159.2212 H   0  0  0  0  0  0  0  0  0  0  0  0
  151.5989  145.9185  160.4295 H   0  0  0  0  0  0  0  0  0  0  0  0
  150.1953  144.8611  160.5539 H   0  0  0  0  0  0  0  0  0  0  0  0
  150.1153  144.0470  157.4563 H   0  0  0  0  0  0  0  0  0  0  0  0
  149.8821  142.9749  158.8281 H   0  0  0  0  0  0  0  0  0  0  0  0
  148.1844  142.3911  154.4212 H   0  0  0  0  0  0  0  0  0  0  0  0
  149.6506  143.3299  155.9309 H   0  0  0  0  0  0  0  0  0  0  0  0
  1  2  1  0  0  0  0
  1 24  1  0  0  0  0
  1 25  1  0  0  0  0
  1 26  1  0  0  0  0
  2  3  1  0  0  0  0
  2  5  1  0  0  0  0
  2 27  1  0  0  0  0
  3  4  1  0  0  0  0
  3 28  1  0  0  0  0
  3 29  1  0  0  0  0
  4 30  1  0  0  0  0
  5  6  1  0  0  0  0
  5 31  1  0  0  0  0
  6  7  2  0  0  0  0
  6  8  1  0  0  0  0
  8  9  1  0  0  0  0
  8 32  1  0  0  0  0
  9 10  1  0  0  0  0
  9 33  1  0  0  0  0
  9 34  1  0  0  0  0
 10 23  1  0  0  0  0
 10 11  2  0  0  0  0
 11 12  1  0  0  0  0
 11 35  1  0  0  0  0
 12 13  2  0  0  0  0
 12 36  1  0  0  0  0
 13 14  1  0  0  0  0
 13 22  1  0  0  0  0
 14 21  1  0  0  0  0
 14 15  1  0  0  0  0
 15 16  1  0  0  0  0
 15 37  1  0  0  0  0
 15 38  1  0  0  0  0
 16 17  1  0  0  0  0
 16 18  1  0  0  0  0
 16 39  1  0  0  0  0
 17 40  1  0  0  0  0
 17 41  1  0  0  0  0
 17 42  1  0  0  0  0
 18 19  1  0  0  0  0
 19 20  1  0  0  0  0
 19 21  1  0  0  0  0
 19 43  1  0  0  0  0
 20 44  1  0  0  0  0
 20 45  1  0  0  0  0
 20 46  1  0  0  0  0
 21 47  1  0  0  0  0
 21 48  1  0  0  0  0
 22 23  2  0  0  0  0
 22 50  1  0  0  0  0
 23 49  1  0  0  0  0
M  CHG  1  22   1
M  END
> <s_m_source_file>
AV-unprocessed.smi

> <i_m_source_file_index>
1983

> <i_lp_mmshare_version>
43012

> <i_f3d_flags>
0

> <s_epik_input>
W09IXVtDSDJdW0NAQEhdKFtDSDNdKVtOSF1DKD1PKVtOSF1bQ0gyXWMxW2NIXVtjSF1jKG5bY0hdMSlOMltDSDJdW0NAQEhdKFtDSDNdKU9bQ0BASF0oW0NIM10pW0NIMl0y

> <s_epik_cmdline>
J2VwaWtfcHl0aG9uJywgJy1waCcsICc3LjAnLCAnLXRuJywgJzgnLCAnLW1hJywgJzIwMCcsICctbWV0YWxfYmluZGluZycsICctaW1hZScsICc8aW5maWxlLm1hZT4nLCAnLW9tYWUnLCAnPG91dGZpbGUubWFlPic=

> <r_lp_tautomer_probability>
0.999994

> <r_epik_Ionization_Penalty>
2.55677

> <r_epik_Ionization_Penalty_Charging>
2.55673

> <r_epik_Ionization_Penalty_Neutral>
3.71772e-05

> <r_epik_State_Penalty>
2.72571

> <r_epik_Charging_Adjusted_Penalty>
5.28244

> <i_epik_Tot_Q>
1

> <i_epik_Tot_abs_Q>
1

> <r_epik_Metal_State_Penalty>
2.73364

> <b_epik_Metal_Only>
0

> <s_lp_Force_Field>
OPLS_2005

> <r_lp_Energy>
22.1941

> <b_lp_Chiralities_Consistent>
1

> <s_lp_Variant>
AV-unprocessed.smi:1983-8

> <Gold.Version>
5.8.1

> <Gold.Id.Protein>
6NUR|6NUR_protein|mol2

> <Gold.PLP.Fitness>
50.6750

> <Gold.PLP.PLP>
-37.0067

> <Gold.PLP.part.hbond>
-4.0000

> <Gold.PLP.part.metal>
0.0000

> <Gold.PLP.part.buried>
-4.2020

> <Gold.PLP.part.nonpolar>
-29.7959

> <Gold.PLP.part.repulsive>
0.2431

> <Gold.PLP.ligand.clash>
0.0000

> <Gold.PLP.ligand.torsion>
0.5394

> <Gold.PLP.Chemscore.Hbond>
4.8640

> <Gold.PLP.Chemscore.CHOScore>
0.0000

> <Gold.PLP.Chemscore.Metal>
0.0000

> <Gold.Chemscore.Hbonds>
donor molecule, donor type, donor heavy atom, donor atom, acceptor molecule, acceptor atom, score
      L1  H     4    30       P1  7948  1.00
      L1  H     5    31       P1  7948  1.00
      L1  H     8    32       P1  7948  0.86
      L1  H    22    50       P1  8028  1.95

> <Gold.PLP.Chemscore.Internal.Correction>
0.1551

> <Gold.Rescore>
     Score         DG    S(hbond)    S(metal)    S(lipo)     H(rot)  DE(clash)    DE(int)     intcor
     19.46     -20.05       3.05        0.00      95.80       2.66       0.03       0.56       ----

> <Gold.Chemscore.Fitness>
19.4567

> <Gold.Chemscore.DG>
-20.0456

> <Gold.Chemscore.ZeroCoef>
-5.4800

> <Gold.Chemscore.Hbond>
3.0466

> <Gold.Chemscore.Metal>
0.0000

> <Gold.Chemscore.Lipo>
95.8023

> <Gold.Chemscore.Internal_Hbond>
0.0000

> <Gold.Chemscore.DEClash>
0.0275

> <Gold.Chemscore.DEInternal>
0.5613

> <Gold.Chemscore.Rot>
2.6637

> <Gold.Chemscore.Internal.Correction>
   9.000000E+99

> <Gold.Chemscore.Hbonds>
donor molecule, donor type, donor heavy atom, donor atom, acceptor molecule, acceptor atom, score
      L1  H     4    30       P1  7948  0.23
      L1  H     5    31       P1  7948  0.95
      L1  H     8    32       P1  7948  0.84
      L1  H    22    50       P1  8028  0.92

> <Gold.Chemscore.Hbond.Weighted>
-10.1758

> <Gold.Chemscore.Metal.Weighted>
-0.0000

> <Gold.Chemscore.Lipo.Weighted>
-11.2089

> <Gold.Chemscore.Internal_Hbond.Weighted>
0.0000

> <Gold.Chemscore.DEClash.Weighted>
0.0275

> <Gold.Chemscore.DEInternal.Weighted>
0.5613

> <Gold.Chemscore.Rot.Weighted>
6.8191

> <Gold.Chemscore.Internal.Correction.Weighted>
   9.000000E+99

> <Gold.Protein.RotatedTorsions>
[ 6907 6896 6895 6894 ] final -162.08 input  -60.11 | X-H torsion
[ 7974 7965 7964 7962 ] final   67.31 input  175.53 | X-H torsion
[ 8008 7997 7996 7995 ] final  -45.89 input   59.86 | X-H torsion
[ 10167 10162 10161 10158 ] final   79.83 input  -65.29 | X-H torsion
[ 10718 10713 10712 10709 ] final  -75.62 input   66.30 | X-H torsion
[ 10763 10752 10751 10750 ] final -117.70 input  -60.55 | X-H torsion
[ 11005 11000 10999 10996 ] final -102.68 input  -57.11 | X-H torsion

> <Gold.Protein.ActiveResidues>
 VAL166  LYS551  ARG553  GLY616  TRP617  ASP618  TYR619  PRO620  LYS621  CYS622 
 ASP623  PHE694  ASN695  SER759  ASP760  ASP761  ALA762  ILE779  LEU786  VAL792 
 PHE793  MET794  SER795  GLU796  ALA797  LYS798  CYS799  TRP800  GLU811  SER814 

> <Gold.Protein.RotatedAtoms>
  151.3747  133.3842  159.2703 H   0  0  0  0  0  0  0  0  0  0  0  0  # atno 6907 bound_to 6896
  150.9623  134.9010  159.7749 H   0  0  0  0  0  0  0  0  0  0  0  0  # atno 6908 bound_to 6896
  152.5154  134.3707  159.9369 H   0  0  0  0  0  0  0  0  0  0  0  0  # atno 6909 bound_to 6896
  145.8162  139.3059  143.1070 H   0  0  0  0  0  0  0  0  0  0  0  0  # atno 7974 bound_to 7965
  154.4003  140.1385  156.3922 H   0  0  0  0  0  0  0  0  0  0  0  0  # atno 8008 bound_to 7997
  155.7903  140.3479  155.5325 H   0  0  0  0  0  0  0  0  0  0  0  0  # atno 8009 bound_to 7997
  155.8585  140.0953  157.1619 H   0  0  0  0  0  0  0  0  0  0  0  0  # atno 8010 bound_to 7997
  139.9562  144.5992  150.8115 H   0  0  0  0  0  0  0  0  0  0  0  0  # atno 10167 bound_to 10162
  156.0201  130.4445  150.3071 H   0  0  0  0  0  0  0  0  0  0  0  0  # atno 10718 bound_to 10713
  154.8563  135.4300  154.2022 H   0  0  0  0  0  0  0  0  0  0  0  0  # atno 10763 bound_to 10752
  153.3066  135.6973  153.7160 H   0  0  0  0  0  0  0  0  0  0  0  0  # atno 10764 bound_to 10752
  153.6269  135.3492  155.3003 H   0  0  0  0  0  0  0  0  0  0  0  0  # atno 10765 bound_to 10752
  141.1179  133.8578  157.1390 H   0  0  0  0  0  0  0  0  0  0  0  0  # atno 11005 bound_to 11000
  145.9725  140.8749  143.0155 LP  0  0  0  0  0  0  0  0  0  0  0  0  # atno 17320 bound_to 7965
  144.6752  140.1965  143.7391 LP  0  0  0  0  0  0  0  0  0  0  0  0  # atno 17321 bound_to 7965
  140.7567  143.3072  151.2932 LP  0  0  0  0  0  0  0  0  0  0  0  0  # atno 17342 bound_to 10162
  139.6590  144.0224  152.2679 LP  0  0  0  0  0  0  0  0  0  0  0  0  # atno 17343 bound_to 10162
  157.1173  131.0237  151.3023 LP  0  0  0  0  0  0  0  0  0  0  0  0  # atno 17370 bound_to 10713
  157.4656  130.7679  149.7276 LP  0  0  0  0  0  0  0  0  0  0  0  0  # atno 17371 bound_to 10713
  140.0114  134.9986  157.0402 LP  0  0  0  0  0  0  0  0  0  0  0  0  # atno 17394 bound_to 11000
  140.4593  134.1500  155.7189 LP  0  0  0  0  0  0  0  0  0  0  0  0  # atno 17395 bound_to 11000

$$$$
