AV-unprocessed.smi:1847|AV-procd|sdf|7517|dock3
  -GOLD-   22720 9223D 1   1.00000     0.00000
 Structure written by MMmdl.
 24 25  0  0  0  0  0  0  0  0  2 V2000
  152.3277  138.4403  158.9744 O   0  0  0  0  0  0  0  0  0  0  0  0
  152.6186  139.5369  158.4878 C   0  0  0  0  0  0  0  0  0  0  0  0
  152.8053  139.7546  157.1602 N   0  5  0  0  0  0  0  0  0  0  0  0
  151.7723  140.0738  156.3647 C   0  0  0  0  0  0  0  0  0  0  0  0
  150.9417  141.1821  156.6428 C   0  0  0  0  0  0  0  0  0  0  0  0
  149.8753  141.4831  155.7720 C   0  0  0  0  0  0  0  0  0  0  0  0
  149.5962  140.7656  154.6639 N   0  0  0  0  0  0  0  0  0  0  0  0
  150.3913  139.7104  154.3903 C   0  0  0  0  0  0  0  0  0  0  0  0
  151.4810  139.3303  155.1991 C   0  0  0  0  0  0  0  0  0  0  0  0
  152.7844  140.7068  159.3468 C   0  0  0  0  0  0  0  0  0  0  0  0
  153.6590  140.6725  160.3806 C   0  0  0  0  0  0  0  0  0  0  0  0
  153.8479  141.7128  161.2561 O   0  0  0  0  0  0  0  0  0  0  0  0
  152.8787  142.7497  161.1628 C   0  0  0  0  0  0  0  0  0  0  0  0
  152.5438  143.0361  159.6923 C   0  0  0  0  0  0  0  0  0  0  0  0
  152.0747  141.8521  159.0576 O   0  0  0  0  0  0  0  0  0  0  0  0
  151.1173  141.7946  157.5151 H   0  0  0  0  0  0  0  0  0  0  0  0
  149.2295  142.3252  155.9720 H   0  0  0  0  0  0  0  0  0  0  0  0
  150.1531  139.1507  153.4981 H   0  0  0  0  0  0  0  0  0  0  0  0
  152.0842  138.4760  154.9277 H   0  0  0  0  0  0  0  0  0  0  0  0
  154.2659  139.8192  160.6474 H   0  0  0  0  0  0  0  0  0  0  0  0
  151.9808  142.4525  161.7063 H   0  0  0  0  0  0  0  0  0  0  0  0
  153.2664  143.6456  161.6478 H   0  0  0  0  0  0  0  0  0  0  0  0
  151.7781  143.8081  159.6180 H   0  0  0  0  0  0  0  0  0  0  0  0
  153.4242  143.4036  159.1631 H   0  0  0  0  0  0  0  0  0  0  0  0
  1  2  2  0  0  0  0
  2  3  1  0  0  0  0
  2 10  1  0  0  0  0
  3  4  1  0  0  0  0
  4  9  1  0  0  0  0
  4  5  2  0  0  0  0
  5  6  1  0  0  0  0
  5 16  1  0  0  0  0
  6  7  2  0  0  0  0
  6 17  1  0  0  0  0
  7  8  1  0  0  0  0
  8  9  2  0  0  0  0
  8 18  1  0  0  0  0
  9 19  1  0  0  0  0
 10 15  1  0  0  0  0
 10 11  2  0  0  0  0
 11 12  1  0  0  0  0
 11 20  1  0  0  0  0
 12 13  1  0  0  0  0
 13 14  1  0  0  0  0
 13 21  1  0  0  0  0
 13 22  1  0  0  0  0
 14 15  1  0  0  0  0
 14 23  1  0  0  0  0
 14 24  1  0  0  0  0
M  CHG  1   3  -1
M  END
> <s_m_source_file>
AV-unprocessed.smi

> <i_m_source_file_index>
1847

> <i_lp_mmshare_version>
43012

> <i_f3d_flags>
0

> <s_epik_input>
TzFbQ0gyXVtDSDJdT1tDSF09QzFDKD1PKVtOSF1jMltjSF1bY0hdbltjSF1bY0hdMg==

> <s_epik_cmdline>
J2VwaWtfcHl0aG9uJywgJy1waCcsICc3LjAnLCAnLXRuJywgJzgnLCAnLW1hJywgJzIwMCcsICctbWV0YWxfYmluZGluZycsICctaW1hZScsICc8aW5maWxlLm1hZT4nLCAnLW9tYWUnLCAnPG91dGZpbGUubWFlPic=

> <r_epik_Ionization_Penalty>
6.68616

> <r_epik_Ionization_Penalty_Charging>
5.33655

> <r_epik_Ionization_Penalty_Neutral>
1.34962

> <r_epik_State_Penalty>
5.36971

> <r_epik_Charging_Adjusted_Penalty>
10.7063

> <i_epik_Tot_Q>
-1

> <i_epik_Tot_abs_Q>
1

> <r_epik_Metal_State_Penalty>
1.43726

> <b_epik_Metal_Only>
1

> <s_lp_Force_Field>
OPLS_2005

> <r_lp_Energy>
5.87976

> <b_lp_Chiralities_Consistent>
1

> <s_lp_Variant>
AV-unprocessed.smi:1847-3

> <Gold.Version>
5.8.1

> <Gold.Id.Protein>
6NUR|6NUR_protein|mol2

> <Gold.PLP.Fitness>
38.1648

> <Gold.PLP.PLP>
-30.2116

> <Gold.PLP.part.hbond>
-1.9091

> <Gold.PLP.part.metal>
0.0000

> <Gold.PLP.part.buried>
-2.1194

> <Gold.PLP.part.nonpolar>
-26.5342

> <Gold.PLP.part.repulsive>
0.1224

> <Gold.PLP.ligand.clash>
0.0000

> <Gold.PLP.ligand.torsion>
2.2335

> <Gold.PLP.Chemscore.Hbond>
2.0000

> <Gold.PLP.Chemscore.CHOScore>
1.9614

> <Gold.PLP.Chemscore.Metal>
0.0000

> <Gold.Chemscore.Hbonds>
donor molecule, donor type, donor heavy atom, donor atom, acceptor molecule, acceptor atom, score
      P1  H  7997  8008       L1     3  2.00
      L1  C     6    17       P1  8028  1.00
      L1  C     8    18       P1  7957  0.93

> <Gold.PLP.Chemscore.Internal.Correction>
0.5362

> <Gold.Rescore>
     Score         DG    S(hbond)    S(metal)    S(lipo)     H(rot)  DE(clash)    DE(int)     intcor
     15.50     -17.53       0.95        0.00      75.93       0.00       0.01       2.01       ----

> <Gold.Chemscore.Fitness>
15.5014

> <Gold.Chemscore.DG>
-17.5263

> <Gold.Chemscore.ZeroCoef>
-5.4800

> <Gold.Chemscore.Hbond>
0.9468

> <Gold.Chemscore.Metal>
0.0000

> <Gold.Chemscore.Lipo>
75.9327

> <Gold.Chemscore.Internal_Hbond>
0.0000

> <Gold.Chemscore.DEClash>
0.0126

> <Gold.Chemscore.DEInternal>
2.0123

> <Gold.Chemscore.Rot>
0.0000

> <Gold.Chemscore.Internal.Correction>
   9.000000E+99

> <Gold.Chemscore.Hbonds>
donor molecule, donor type, donor heavy atom, donor atom, acceptor molecule, acceptor atom, score
      P1  H  7997  8008       L1     3  0.85

> <Gold.Chemscore.Hbond.Weighted>
-3.1622

> <Gold.Chemscore.Metal.Weighted>
-0.0000

> <Gold.Chemscore.Lipo.Weighted>
-8.8841

> <Gold.Chemscore.Internal_Hbond.Weighted>
0.0000

> <Gold.Chemscore.DEClash.Weighted>
0.0126

> <Gold.Chemscore.DEInternal.Weighted>
2.0123

> <Gold.Chemscore.Rot.Weighted>
0.0000

> <Gold.Chemscore.Internal.Correction.Weighted>
   9.000000E+99

> <Gold.Protein.RotatedTorsions>
[ 6907 6896 6895 6894 ] final  -75.45 input  -60.11 | X-H torsion
[ 7974 7965 7964 7962 ] final  112.25 input  175.53 | X-H torsion
[ 8008 7997 7996 7995 ] final  -67.72 input   59.86 | X-H torsion
[ 10167 10162 10161 10158 ] final  170.04 input  -65.29 | X-H torsion
[ 10718 10713 10712 10709 ] final -178.07 input   66.30 | X-H torsion
[ 10763 10752 10751 10750 ] final   73.58 input  -60.55 | X-H torsion
[ 11005 11000 10999 10996 ] final -107.35 input  -57.11 | X-H torsion

> <Gold.Protein.ActiveResidues>
 VAL166  LYS551  ARG553  GLY616  TRP617  ASP618  TYR619  PRO620  LYS621  CYS622 
 ASP623  PHE694  ASN695  SER759  ASP760  ASP761  ALA762  ILE779  LEU786  VAL792 
 PHE793  MET794  SER795  GLU796  ALA797  LYS798  CYS799  TRP800  GLU811  SER814 

> <Gold.Protein.RotatedAtoms>
  150.7058  134.4719  159.5428 H   0  0  0  0  0  0  0  0  0  0  0  0  # atno 6907 bound_to 6896
  152.2373  134.8260  160.0474 H   0  0  0  0  0  0  0  0  0  0  0  0  # atno 6908 bound_to 6896
  151.9054  133.3513  159.3882 H   0  0  0  0  0  0  0  0  0  0  0  0  # atno 6909 bound_to 6896
  145.2319  139.2816  143.4164 H   0  0  0  0  0  0  0  0  0  0  0  0  # atno 7974 bound_to 7965
  154.4818  140.0887  156.7396 H   0  0  0  0  0  0  0  0  0  0  0  0  # atno 8008 bound_to 7997
  155.4450  140.3455  155.4276 H   0  0  0  0  0  0  0  0  0  0  0  0  # atno 8009 bound_to 7997
  156.1203  140.1472  156.9202 H   0  0  0  0  0  0  0  0  0  0  0  0  # atno 8010 bound_to 7997
  139.5008  144.3640  151.9795 H   0  0  0  0  0  0  0  0  0  0  0  0  # atno 10167 bound_to 10162
  156.8389  130.9679  151.3101 H   0  0  0  0  0  0  0  0  0  0  0  0  # atno 10718 bound_to 10713
  153.0531  135.5057  154.7915 H   0  0  0  0  0  0  0  0  0  0  0  0  # atno 10763 bound_to 10752
  154.6762  135.2961  154.9677 H   0  0  0  0  0  0  0  0  0  0  0  0  # atno 10764 bound_to 10752
  154.0479  135.6708  153.4850 H   0  0  0  0  0  0  0  0  0  0  0  0  # atno 10765 bound_to 10752
  141.0958  133.8973  157.1966 H   0  0  0  0  0  0  0  0  0  0  0  0  # atno 11005 bound_to 11000
  146.3351  140.2656  142.8603 LP  0  0  0  0  0  0  0  0  0  0  0  0  # atno 17320 bound_to 7965
  144.9669  140.8330  143.5479 LP  0  0  0  0  0  0  0  0  0  0  0  0  # atno 17321 bound_to 7965
  140.3076  144.3575  150.6043 LP  0  0  0  0  0  0  0  0  0  0  0  0  # atno 17342 bound_to 10162
  140.5824  143.2172  151.7403 LP  0  0  0  0  0  0  0  0  0  0  0  0  # atno 17343 bound_to 10162
  157.6366  130.8772  149.9371 LP  0  0  0  0  0  0  0  0  0  0  0  0  # atno 17370 bound_to 10713
  156.0892  130.3665  150.0428 LP  0  0  0  0  0  0  0  0  0  0  0  0  # atno 17371 bound_to 10713
  139.9795  135.0103  156.9714 LP  0  0  0  0  0  0  0  0  0  0  0  0  # atno 17394 bound_to 11000
  140.5143  134.0971  155.7277 LP  0  0  0  0  0  0  0  0  0  0  0  0  # atno 17395 bound_to 11000

$$$$
