AV-unprocessed.smi:178|AV-procd|sdf|1445|dock4
  -GOLD-   2262019233D 1   1.00000     0.00000
 Structure written by MMmdl.
 50 52  0  0  0  0  0  0  0  0  1 V2000
  157.0129  140.4420  160.1136 C   0  0  0  0  0  0  0  0  0  0  0  0
  155.8285  140.9378  160.7183 O   0  0  0  0  0  0  0  0  0  0  0  0
  154.7463  141.0987  159.8130 C   0  0  0  0  0  0  0  0  0  0  0  0
  153.4755  140.3905  160.3232 C   0  0  0  0  0  0  0  0  0  0  0  0
  153.3744  139.0051  159.8546 N   0  0  0  0  0  0  0  0  0  0  0  0
  154.5014  138.1117  160.1221 C   0  0  0  0  0  0  0  0  0  0  0  0
  154.1170  136.8954  160.9810 C   0  0  0  0  0  0  0  0  0  0  0  0
  154.2540  137.1031  162.4313 C   0  0  0  0  0  0  0  0  0  0  0  0
  154.3588  137.2679  163.5719 N   0  0  0  0  0  0  0  0  0  0  0  0
  152.2818  138.6067  159.1334 C   0  0  0  0  0  0  0  0  0  0  0  0
  151.4363  137.7093  159.7102 N   0  0  0  0  0  0  0  0  0  0  0  0
  150.3420  137.2822  159.0779 C   0  0  0  0  0  0  0  0  0  0  0  0
  149.8990  137.6156  157.8676 N   0  0  0  0  0  0  0  0  0  0  0  0
  150.7345  138.5086  157.2661 C   0  0  0  0  0  0  0  0  0  0  0  0
  151.9331  139.0532  157.8180 C   0  0  0  0  0  0  0  0  0  0  0  0
  152.4856  139.9418  156.9010 N   0  0  0  0  0  0  0  0  0  0  0  0
  151.6733  139.9221  155.8824 C   0  0  0  0  0  0  0  0  0  0  0  0
  150.5982  139.0747  156.0085 N   0  0  0  0  0  0  0  0  0  0  0  0
  149.5294  138.8469  155.0426 C   0  0  0  0  0  0  0  0  0  0  0  0
  148.8503  140.1422  154.5200 C   0  0  1  0  0  0  0  0  0  0  0  0
  149.7036  140.7309  153.5523 O   0  0  0  0  0  0  0  0  0  0  0  0
  147.4963  139.8941  153.8776 C   0  0  0  0  0  0  0  0  0  0  0  0
  146.8336  141.2698  153.9145 C   0  0  0  0  0  0  0  0  0  0  0  0
  147.4846  142.0040  154.9495 O   0  0  0  0  0  0  0  0  0  0  0  0
  148.5149  141.2298  155.5621 C   0  0  1  0  0  0  0  0  0  0  0  0
  147.9094  140.7271  156.8864 C   0  0  0  0  0  0  0  0  0  0  0  0
  157.7797  140.3066  160.8760 H   0  0  0  0  0  0  0  0  0  0  0  0
  157.4075  141.1303  159.3665 H   0  0  0  0  0  0  0  0  0  0  0  0
  156.8392  139.4749  159.6404 H   0  0  0  0  0  0  0  0  0  0  0  0
  154.5687  142.1564  159.6140 H   0  0  0  0  0  0  0  0  0  0  0  0
  155.0504  140.6587  158.8638 H   0  0  0  0  0  0  0  0  0  0  0  0
  153.4867  140.3946  161.4134 H   0  0  0  0  0  0  0  0  0  0  0  0
  152.5771  140.9400  160.0436 H   0  0  0  0  0  0  0  0  0  0  0  0
  154.8660  137.7477  159.1611 H   0  0  0  0  0  0  0  0  0  0  0  0
  155.3531  138.6375  160.5450 H   0  0  0  0  0  0  0  0  0  0  0  0
  153.0861  136.6016  160.7850 H   0  0  0  0  0  0  0  0  0  0  0  0
  154.7401  136.0427  160.7115 H   0  0  0  0  0  0  0  0  0  0  0  0
  149.7341  136.5732  159.6203 H   0  0  0  0  0  0  0  0  0  0  0  0
  151.8434  140.5418  155.0166 H   0  0  0  0  0  0  0  0  0  0  0  0
  149.9597  138.3025  154.2010 H   0  0  0  0  0  0  0  0  0  0  0  0
  148.7985  138.1687  155.4833 H   0  0  0  0  0  0  0  0  0  0  0  0
  149.6096  140.2540  152.7418 H   0  0  0  0  0  0  0  0  0  0  0  0
  147.5608  139.4795  152.8708 H   0  0  0  0  0  0  0  0  0  0  0  0
  146.9179  139.1950  154.4830 H   0  0  0  0  0  0  0  0  0  0  0  0
  146.9815  141.7953  152.9706 H   0  0  0  0  0  0  0  0  0  0  0  0
  145.7609  141.2002  154.0967 H   0  0  0  0  0  0  0  0  0  0  0  0
  149.3797  141.8573  155.7824 H   0  0  0  0  0  0  0  0  0  0  0  0
  148.6150  140.1383  157.4657 H   0  0  0  0  0  0  0  0  0  0  0  0
  147.0247  140.1127  156.7199 H   0  0  0  0  0  0  0  0  0  0  0  0
  147.6081  141.5680  157.5111 H   0  0  0  0  0  0  0  0  0  0  0  0
  1  2  1  0  0  0  0
  1 27  1  0  0  0  0
  1 28  1  0  0  0  0
  1 29  1  0  0  0  0
  2  3  1  0  0  0  0
  3  4  1  0  0  0  0
  3 30  1  0  0  0  0
  3 31  1  0  0  0  0
  4  5  1  0  0  0  0
  4 32  1  0  0  0  0
  4 33  1  0  0  0  0
  5  6  1  0  0  0  0
  5 10  1  0  0  0  0
  6  7  1  0  0  0  0
  6 34  1  0  0  0  0
  6 35  1  0  0  0  0
  7  8  1  0  0  0  0
  7 36  1  0  0  0  0
  7 37  1  0  0  0  0
  8  9  3  0  0  0  0
 10 15  1  0  0  0  0
 10 11  2  0  0  0  0
 11 12  1  0  0  0  0
 12 13  2  0  0  0  0
 12 38  1  0  0  0  0
 13 14  1  0  0  0  0
 14 18  1  0  0  0  0
 14 15  2  0  0  0  0
 15 16  1  0  0  0  0
 16 17  2  0  0  0  0
 17 18  1  0  0  0  0
 17 39  1  0  0  0  0
 18 19  1  0  0  0  0
 19 20  1  0  0  0  0
 19 40  1  0  0  0  0
 19 41  1  0  0  0  0
 20 25  1  0  0  0  0
 20 21  1  0  0  0  0
 20 22  1  0  0  0  0
 21 42  1  0  0  0  0
 22 23  1  0  0  0  0
 22 43  1  0  0  0  0
 22 44  1  0  0  0  0
 23 24  1  0  0  0  0
 23 45  1  0  0  0  0
 23 46  1  0  0  0  0
 24 25  1  0  0  0  0
 25 26  1  0  0  0  0
 25 47  1  0  0  0  0
 26 48  1  0  0  0  0
 26 49  1  0  0  0  0
 26 50  1  0  0  0  0
M  END
> <s_m_source_file>
AV-unprocessed.smi

> <i_m_source_file_index>
178

> <i_lp_mmshare_version>
43012

> <i_f3d_flags>
0

> <s_epik_input>
W0NIM11PW0NIMl1bQ0gyXU4oW0NIMl1bQ0gyXUMjTiljKG5bY0hdbjEpYyhjMTIpbltjSF1uMltDSDJdW0NAQF0zKFtPSF0pW0NIMl1bQ0gyXU9bQ0BIXTNbQ0gzXQ==

> <s_epik_cmdline>
J2VwaWtfcHl0aG9uJywgJy1waCcsICc3LjAnLCAnLXRuJywgJzgnLCAnLW1hJywgJzIwMCcsICctbWV0YWxfYmluZGluZycsICctaW1hZScsICc8aW5maWxlLm1hZT4nLCAnLW9tYWUnLCAnPG91dGZpbGUubWFlPic=

> <r_lp_tautomer_probability>
1

> <r_epik_Ionization_Penalty>
0.000885317

> <r_epik_Ionization_Penalty_Charging>
0

> <r_epik_Ionization_Penalty_Neutral>
0.000885317

> <r_epik_State_Penalty>
0.00047273

> <r_epik_Charging_Adjusted_Penalty>
0.00047273

> <i_epik_Tot_Q>
0

> <i_epik_Tot_abs_Q>
0

> <r_epik_Metal_State_Penalty>
-0

> <b_epik_Metal_Only>
0

> <s_lp_Force_Field>
OPLS_2005

> <r_lp_Energy>
33.9655

> <b_lp_Chiralities_Consistent>
1

> <s_lp_Variant>
AV-unprocessed.smi:178-1

> <Gold.Version>
5.8.1

> <Gold.Id.Protein>
6NUR|6NUR_protein|mol2

> <Gold.PLP.Fitness>
43.3666

> <Gold.PLP.PLP>
-39.6310

> <Gold.PLP.part.hbond>
-4.4924

> <Gold.PLP.part.metal>
0.0000

> <Gold.PLP.part.buried>
-6.8517

> <Gold.PLP.part.nonpolar>
-29.1997

> <Gold.PLP.part.repulsive>
1.1518

> <Gold.PLP.ligand.clash>
0.0000

> <Gold.PLP.ligand.torsion>
2.3459

> <Gold.PLP.Chemscore.Hbond>
2.6312

> <Gold.PLP.Chemscore.CHOScore>
0.0000

> <Gold.PLP.Chemscore.Metal>
0.0000

> <Gold.Chemscore.Hbonds>
donor molecule, donor type, donor heavy atom, donor atom, acceptor molecule, acceptor atom, score
      L1  H    21    42       P1  7957  1.00
      P1  H  7989  7998       L1    21  0.32
      P1  H  7997  8010       L1    16  1.00
      P1  H  8011  8017       L1    21  0.22

> <Gold.PLP.Chemscore.Internal.Correction>
0.5338

> <Gold.Rescore>
     Score         DG    S(hbond)    S(metal)    S(lipo)     H(rot)  DE(clash)    DE(int)     intcor
      8.68     -12.06       2.12        0.00      69.63       3.37       1.06       2.32       ----

> <Gold.Chemscore.Fitness>
8.6773

> <Gold.Chemscore.DG>
-12.0625

> <Gold.Chemscore.ZeroCoef>
-5.4800

> <Gold.Chemscore.Hbond>
2.1172

> <Gold.Chemscore.Metal>
0.0000

> <Gold.Chemscore.Lipo>
69.6275

> <Gold.Chemscore.Internal_Hbond>
0.0000

> <Gold.Chemscore.DEClash>
1.0648

> <Gold.Chemscore.DEInternal>
2.3204

> <Gold.Chemscore.Rot>
3.3732

> <Gold.Chemscore.Internal.Correction>
   9.000000E+99

> <Gold.Chemscore.Hbonds>
donor molecule, donor type, donor heavy atom, donor atom, acceptor molecule, acceptor atom, score
      L1  H    21    42       P1  7957  0.97
      P1  H  7989  7998       L1    21  0.05
      P1  H  7997  8010       L1    16  0.93

> <Gold.Chemscore.Hbond.Weighted>
-7.0715

> <Gold.Chemscore.Metal.Weighted>
-0.0000

> <Gold.Chemscore.Lipo.Weighted>
-8.1464

> <Gold.Chemscore.Internal_Hbond.Weighted>
0.0000

> <Gold.Chemscore.DEClash.Weighted>
1.0648

> <Gold.Chemscore.DEInternal.Weighted>
2.3204

> <Gold.Chemscore.Rot.Weighted>
8.6354

> <Gold.Chemscore.Internal.Correction.Weighted>
   9.000000E+99

> <Gold.Protein.RotatedTorsions>
[ 6907 6896 6895 6894 ] final -134.20 input  -60.11 | X-H torsion
[ 7974 7965 7964 7962 ] final  -67.99 input  175.53 | X-H torsion
[ 8008 7997 7996 7995 ] final   51.81 input   59.86 | X-H torsion
[ 10167 10162 10161 10158 ] final -101.40 input  -65.29 | X-H torsion
[ 10718 10713 10712 10709 ] final   -9.92 input   66.30 | X-H torsion
[ 10763 10752 10751 10750 ] final -124.72 input  -60.55 | X-H torsion
[ 11005 11000 10999 10996 ] final   99.55 input  -57.11 | X-H torsion

> <Gold.Protein.ActiveResidues>
 VAL166  LYS551  ARG553  GLY616  TRP617  ASP618  TYR619  PRO620  LYS621  CYS622 
 ASP623  PHE694  ASN695  SER759  ASP760  ASP761  ALA762  ILE779  LEU786  VAL792 
 PHE793  MET794  SER795  GLU796  ALA797  LYS798  CYS799  TRP800  GLU811  SER814 

> <Gold.Protein.RotatedAtoms>
  150.9830  133.6226  159.2719 H   0  0  0  0  0  0  0  0  0  0  0  0  # atno 6907 bound_to 6896
  151.3474  135.0876  159.9401 H   0  0  0  0  0  0  0  0  0  0  0  0  # atno 6908 bound_to 6896
  152.5222  133.9429  159.7689 H   0  0  0  0  0  0  0  0  0  0  0  0  # atno 6909 bound_to 6896
  145.7221  140.9034  143.0624 H   0  0  0  0  0  0  0  0  0  0  0  0  # atno 7974 bound_to 7965
  155.4414  140.3454  155.4290 H   0  0  0  0  0  0  0  0  0  0  0  0  # atno 8008 bound_to 7997
  156.1276  140.1505  156.9143 H   0  0  0  0  0  0  0  0  0  0  0  0  # atno 8009 bound_to 7997
  154.4870  140.0852  156.7488 H   0  0  0  0  0  0  0  0  0  0  0  0  # atno 8010 bound_to 7997
  140.2417  143.3534  152.0796 H   0  0  0  0  0  0  0  0  0  0  0  0  # atno 10167 bound_to 10162
  156.6810  130.5037  149.5971 H   0  0  0  0  0  0  0  0  0  0  0  0  # atno 10718 bound_to 10713
  154.8727  135.4054  154.3152 H   0  0  0  0  0  0  0  0  0  0  0  0  # atno 10763 bound_to 10752
  153.3989  135.7017  153.6446 H   0  0  0  0  0  0  0  0  0  0  0  0  # atno 10764 bound_to 10752
  153.5197  135.3690  155.2597 H   0  0  0  0  0  0  0  0  0  0  0  0  # atno 10765 bound_to 10752
  139.8771  134.9100  156.4622 H   0  0  0  0  0  0  0  0  0  0  0  0  # atno 11005 bound_to 11000
  144.6914  139.9217  143.7468 LP  0  0  0  0  0  0  0  0  0  0  0  0  # atno 17320 bound_to 7965
  146.0616  139.3609  143.0578 LP  0  0  0  0  0  0  0  0  0  0  0  0  # atno 17321 bound_to 7965
  139.5075  144.6833  151.5952 LP  0  0  0  0  0  0  0  0  0  0  0  0  # atno 17342 bound_to 10162
  140.6108  143.9439  150.6452 LP  0  0  0  0  0  0  0  0  0  0  0  0  # atno 17343 bound_to 10162
  156.1867  130.6534  151.1015 LP  0  0  0  0  0  0  0  0  0  0  0  0  # atno 17370 bound_to 10713
  157.7043  131.0763  150.6717 LP  0  0  0  0  0  0  0  0  0  0  0  0  # atno 17371 bound_to 10713
  140.8856  133.7886  155.9514 LP  0  0  0  0  0  0  0  0  0  0  0  0  # atno 17394 bound_to 11000
  140.8808  134.2613  157.5145 LP  0  0  0  0  0  0  0  0  0  0  0  0  # atno 17395 bound_to 11000

$$$$
