AV-unprocessed.smi:2124|AV-procd|sdf|8666|dock9
  -GOLD-   2272011413D 1   1.00000     0.00000
 Structure written by MMmdl.
 46 48  0  0  0  0  0  0  0  0  2 V2000
  154.3259  136.3909  157.3390 C   0  0  0  0  0  0  0  0  0  0  0  0
  153.1094  136.8741  156.5787 C   0  0  0  0  0  0  0  0  0  0  0  0
  152.3662  136.0220  155.9821 N   0  0  0  0  0  0  0  0  0  0  0  0
  151.2309  136.4646  155.2823 C   0  0  0  0  0  0  0  0  0  0  0  0
  150.4036  135.3809  154.6135 C   0  0  0  0  0  0  0  0  0  0  0  0
  150.9086  137.7888  155.2242 C   0  0  0  0  0  0  0  0  0  0  0  0
  149.6807  138.3197  154.4853 C   0  0  0  0  0  0  0  0  0  0  0  0
  148.3361  137.7736  154.9693 C   0  0  0  0  0  0  0  0  0  0  0  0
  147.8251  138.2151  155.9982 O   0  0  0  0  0  0  0  0  0  0  0  0
  147.7753  136.8126  154.2183 N   0  0  0  0  0  0  0  0  0  0  0  0
  146.4983  136.1559  154.4884 C   0  0  2  0  0  0  0  0  0  0  0  0
  146.6797  135.1157  155.6075 C   0  0  0  0  0  0  0  0  0  0  0  0
  145.9628  135.5268  153.1809 C   0  0  2  0  0  0  0  0  0  0  0  0
  145.5040  136.5448  152.1112 C   0  0  0  0  0  0  0  0  0  0  0  0
  144.1172  136.0158  151.7008 C   0  0  2  0  0  0  0  0  0  0  0  0
  143.1112  136.3261  152.8240 C   0  0  0  0  0  0  0  0  0  0  0  0
  143.5168  135.3288  153.9244 C   0  0  0  0  0  0  0  0  0  0  0  0
  144.7260  134.6014  153.2999 C   0  0  1  0  0  0  0  0  0  0  0  0
  144.2908  134.5080  151.8409 C   0  0  0  0  0  0  0  0  0  0  0  0
  151.7958  138.7392  155.9197 C   0  0  0  0  0  0  0  0  0  0  0  0
  151.5586  139.9462  155.8913 O   0  0  0  0  0  0  0  0  0  0  0  0
  152.8738  138.2303  156.5820 N   0  5  0  0  0  0  0  0  0  0  0  0
  154.5000  135.3276  157.1679 H   0  0  0  0  0  0  0  0  0  0  0  0
  154.1868  136.5473  158.4089 H   0  0  0  0  0  0  0  0  0  0  0  0
  155.2147  136.9370  157.0214 H   0  0  0  0  0  0  0  0  0  0  0  0
  149.3894  135.3699  155.0126 H   0  0  0  0  0  0  0  0  0  0  0  0
  150.8381  134.3945  154.7789 H   0  0  0  0  0  0  0  0  0  0  0  0
  150.3540  135.5466  153.5381 H   0  0  0  0  0  0  0  0  0  0  0  0
  149.6755  139.4076  154.5617 H   0  0  0  0  0  0  0  0  0  0  0  0
  149.7604  138.1262  153.4152 H   0  0  0  0  0  0  0  0  0  0  0  0
  148.2695  136.5181  153.3887 H   0  0  0  0  0  0  0  0  0  0  0  0
  145.7925  136.9141  154.8296 H   0  0  0  0  0  0  0  0  0  0  0  0
  145.7327  134.6435  155.8680 H   0  0  0  0  0  0  0  0  0  0  0  0
  147.0693  135.5767  156.5155 H   0  0  0  0  0  0  0  0  0  0  0  0
  147.3738  134.3291  155.3097 H   0  0  0  0  0  0  0  0  0  0  0  0
  146.7699  134.9308  152.7501 H   0  0  0  0  0  0  0  0  0  0  0  0
  145.4458  137.5657  152.4908 H   0  0  0  0  0  0  0  0  0  0  0  0
  146.1922  136.5464  151.2650 H   0  0  0  0  0  0  0  0  0  0  0  0
  143.7920  136.3557  150.7171 H   0  0  0  0  0  0  0  0  0  0  0  0
  143.1707  137.3622  153.1588 H   0  0  0  0  0  0  0  0  0  0  0  0
  142.0881  136.1392  152.4953 H   0  0  0  0  0  0  0  0  0  0  0  0
  143.7419  135.8132  154.8736 H   0  0  0  0  0  0  0  0  0  0  0  0
  142.7053  134.6235  154.1086 H   0  0  0  0  0  0  0  0  0  0  0  0
  144.9434  133.6394  153.7648 H   0  0  0  0  0  0  0  0  0  0  0  0
  143.3636  133.9499  151.6993 H   0  0  0  0  0  0  0  0  0  0  0  0
  145.0586  134.0978  151.1824 H   0  0  0  0  0  0  0  0  0  0  0  0
  1  2  1  0  0  0  0
  1 23  1  0  0  0  0
  1 24  1  0  0  0  0
  1 25  1  0  0  0  0
  2 22  1  0  0  0  0
  2  3  2  0  0  0  0
  3  4  1  0  0  0  0
  4  5  1  0  0  0  0
  4  6  2  0  0  0  0
  5 26  1  0  0  0  0
  5 27  1  0  0  0  0
  5 28  1  0  0  0  0
  6  7  1  0  0  0  0
  6 20  1  0  0  0  0
  7  8  1  0  0  0  0
  7 29  1  0  0  0  0
  7 30  1  0  0  0  0
  8  9  2  0  0  0  0
  8 10  1  0  0  0  0
 10 11  1  0  0  0  0
 10 31  1  0  0  0  0
 11 12  1  0  0  0  0
 11 13  1  0  0  0  0
 11 32  1  0  0  0  0
 12 33  1  0  0  0  0
 12 34  1  0  0  0  0
 12 35  1  0  0  0  0
 13 18  1  0  0  0  0
 13 14  1  0  0  0  0
 13 36  1  0  0  0  0
 14 15  1  0  0  0  0
 14 37  1  0  0  0  0
 14 38  1  0  0  0  0
 15 19  1  0  0  0  0
 15 16  1  0  0  0  0
 15 39  1  0  0  0  0
 16 17  1  0  0  0  0
 16 40  1  0  0  0  0
 16 41  1  0  0  0  0
 17 18  1  0  0  0  0
 17 42  1  0  0  0  0
 17 43  1  0  0  0  0
 18 19  1  0  0  0  0
 18 44  1  0  0  0  0
 19 45  1  0  0  0  0
 19 46  1  0  0  0  0
 20 21  2  0  0  0  0
 20 22  1  0  0  0  0
M  CHG  1  22  -1
M  END
> <s_m_source_file>
AV-unprocessed.smi

> <i_m_source_file_index>
2124

> <i_lp_mmshare_version>
43012

> <i_f3d_flags>
0

> <s_epik_input>
W0NIM11jMW5jKFtDSDNdKWMoYyg9TylbbkhdMSlbQ0gyXUMoPU8pW05IXVtDQEhdKFtDSDNdKVtDQEhdKFtDSDJdW0NASF0yMylbQ0BIXShbQ0gyXTMpW0NIMl1bQ0gyXTI=

> <s_epik_cmdline>
J2VwaWtfcHl0aG9uJywgJy1waCcsICc3LjAnLCAnLXRuJywgJzgnLCAnLW1hJywgJzIwMCcsICctbWV0YWxfYmluZGluZycsICctaW1hZScsICc8aW5maWxlLm1hZT4nLCAnLW9tYWUnLCAnPG91dGZpbGUubWFlPic=

> <r_lp_tautomer_probability>
0.839158

> <r_epik_Ionization_Penalty>
6.63797

> <r_epik_Ionization_Penalty_Charging>
7.48558e-08

> <r_epik_Ionization_Penalty_Neutral>
6.63797

> <r_epik_State_Penalty>
4.49496

> <r_epik_Charging_Adjusted_Penalty>
4.49496

> <i_epik_Tot_Q>
-1

> <i_epik_Tot_abs_Q>
1

> <r_epik_Metal_State_Penalty>
0.841241

> <b_epik_Metal_Only>
1

> <s_lp_Force_Field>
OPLS_2005

> <r_lp_Energy>
56.0848

> <b_lp_Chiralities_Consistent>
1

> <s_lp_Variant>
AV-unprocessed.smi:2124-17

> <Gold.Version>
5.8.1

> <Gold.Id.Protein>
6NUR|6NUR_protein|mol2

> <Gold.PLP.Fitness>
41.4083

> <Gold.PLP.PLP>
-28.0864

> <Gold.PLP.part.hbond>
-4.0000

> <Gold.PLP.part.metal>
0.0000

> <Gold.PLP.part.buried>
-2.4187

> <Gold.PLP.part.nonpolar>
-21.3363

> <Gold.PLP.part.repulsive>
0.0614

> <Gold.PLP.ligand.clash>
0.0000

> <Gold.PLP.ligand.torsion>
0.6183

> <Gold.PLP.Chemscore.Hbond>
4.8480

> <Gold.PLP.Chemscore.CHOScore>
0.0000

> <Gold.PLP.Chemscore.Metal>
0.0000

> <Gold.Chemscore.Hbonds>
donor molecule, donor type, donor heavy atom, donor atom, acceptor molecule, acceptor atom, score
      L1  H    10    31       P1  7948  1.00
      P1  H  7997  8010       L1    22  0.08
      P1  H 10752 10765       L1     3  0.49

> <Gold.PLP.Chemscore.Internal.Correction>
0.0146

> <Gold.Rescore>
     Score         DG    S(hbond)    S(metal)    S(lipo)     H(rot)  DE(clash)    DE(int)     intcor
     16.91     -18.85       3.22        0.00      57.56       1.61       0.20       1.74       ----

> <Gold.Chemscore.Fitness>
16.9065

> <Gold.Chemscore.DG>
-18.8476

> <Gold.Chemscore.ZeroCoef>
-5.4800

> <Gold.Chemscore.Hbond>
3.2161

> <Gold.Chemscore.Metal>
0.0000

> <Gold.Chemscore.Lipo>
57.5635

> <Gold.Chemscore.Internal_Hbond>
0.0000

> <Gold.Chemscore.DEClash>
0.1989

> <Gold.Chemscore.DEInternal>
1.7422

> <Gold.Chemscore.Rot>
1.6051

> <Gold.Chemscore.Internal.Correction>
   9.000000E+99

> <Gold.Chemscore.Hbonds>
donor molecule, donor type, donor heavy atom, donor atom, acceptor molecule, acceptor atom, score
      L1  H    10    31       P1  7948  1.00
      P1  H  7997  8010       L1    22  0.02
      P1  H 10752 10765       L1     3  0.12

> <Gold.Chemscore.Hbond.Weighted>
-10.7417

> <Gold.Chemscore.Metal.Weighted>
-0.0000

> <Gold.Chemscore.Lipo.Weighted>
-6.7349

> <Gold.Chemscore.Internal_Hbond.Weighted>
0.0000

> <Gold.Chemscore.DEClash.Weighted>
0.1989

> <Gold.Chemscore.DEInternal.Weighted>
1.7422

> <Gold.Chemscore.Rot.Weighted>
4.1090

> <Gold.Chemscore.Internal.Correction.Weighted>
   9.000000E+99

> <Gold.Protein.RotatedTorsions>
[ 6907 6896 6895 6894 ] final  101.35 input  -60.11 | X-H torsion
[ 7974 7965 7964 7962 ] final  -38.78 input  175.53 | X-H torsion
[ 8008 7997 7996 7995 ] final   81.38 input   59.86 | X-H torsion
[ 10167 10162 10161 10158 ] final  169.98 input  -65.29 | X-H torsion
[ 10718 10713 10712 10709 ] final  143.54 input   66.30 | X-H torsion
[ 10763 10752 10751 10750 ] final -148.78 input  -60.55 | X-H torsion
[ 11005 11000 10999 10996 ] final -141.66 input  -57.11 | X-H torsion

> <Gold.Protein.ActiveResidues>
 VAL166  LYS551  ARG553  GLY616  TRP617  ASP618  TYR619  PRO620  LYS621  CYS622 
 ASP623  PHE694  ASN695  SER759  ASP760  ASP761  ALA762  ILE779  LEU786  VAL792 
 PHE793  MET794  SER795  GLU796  ALA797  LYS798  CYS799  TRP800  GLU811  SER814 

> <Gold.Protein.RotatedAtoms>
  152.5351  134.0139  159.7950 H   0  0  0  0  0  0  0  0  0  0  0  0  # atno 6907 bound_to 6896
  151.0337  133.5760  159.2665 H   0  0  0  0  0  0  0  0  0  0  0  0  # atno 6908 bound_to 6896
  151.2755  135.0705  159.9203 H   0  0  0  0  0  0  0  0  0  0  0  0  # atno 6909 bound_to 6896
  146.0455  140.6551  142.9066 H   0  0  0  0  0  0  0  0  0  0  0  0  # atno 7974 bound_to 7965
  155.8963  140.3436  155.5993 H   0  0  0  0  0  0  0  0  0  0  0  0  # atno 8008 bound_to 7997
  155.7552  140.0825  157.2201 H   0  0  0  0  0  0  0  0  0  0  0  0  # atno 8009 bound_to 7997
  154.4038  140.1546  156.2756 H   0  0  0  0  0  0  0  0  0  0  0  0  # atno 8010 bound_to 7997
  139.5006  144.3646  151.9788 H   0  0  0  0  0  0  0  0  0  0  0  0  # atno 10167 bound_to 10162
  157.3677  131.0974  151.0857 H   0  0  0  0  0  0  0  0  0  0  0  0  # atno 10718 bound_to 10713
  154.8214  135.3326  154.7026 H   0  0  0  0  0  0  0  0  0  0  0  0  # atno 10763 bound_to 10752
  153.7659  135.6929  153.4920 H   0  0  0  0  0  0  0  0  0  0  0  0  # atno 10764 bound_to 10752
  153.2078  135.4493  155.0293 H   0  0  0  0  0  0  0  0  0  0  0  0  # atno 10765 bound_to 10752
  140.8302  134.2525  157.4860 H   0  0  0  0  0  0  0  0  0  0  0  0  # atno 11005 bound_to 11000
  144.7096  140.3987  143.7091 LP  0  0  0  0  0  0  0  0  0  0  0  0  # atno 17320 bound_to 7965
  145.6812  139.1619  143.2699 LP  0  0  0  0  0  0  0  0  0  0  0  0  # atno 17321 bound_to 7965
  140.3082  144.3568  150.6041 LP  0  0  0  0  0  0  0  0  0  0  0  0  # atno 17342 bound_to 10162
  140.5819  143.2172  151.7412 LP  0  0  0  0  0  0  0  0  0  0  0  0  # atno 17343 bound_to 10162
  157.1972  130.6378  149.5725 LP  0  0  0  0  0  0  0  0  0  0  0  0  # atno 17370 bound_to 10713
  155.9749  130.4702  150.6423 LP  0  0  0  0  0  0  0  0  0  0  0  0  # atno 17371 bound_to 10713
  139.8705  134.9582  156.4293 LP  0  0  0  0  0  0  0  0  0  0  0  0  # atno 17394 bound_to 11000
  140.9006  133.7782  155.9675 LP  0  0  0  0  0  0  0  0  0  0  0  0  # atno 17395 bound_to 11000

$$$$
