AV-unprocessed.smi:1085|AV-procd|sdf|4720|dock7
  -GOLD-   22720 3243D 1   1.00000     0.00000
 Structure written by MMmdl.
 33 34  0  0  0  0  0  0  0  0  1 V2000
  149.5768  136.1309  156.5670 O   0  0  0  0  0  0  0  0  0  0  0  0
  149.7701  136.0723  155.3532 C   0  0  0  0  0  0  0  0  0  0  0  0
  151.0245  136.6993  154.7448 C   0  0  0  0  0  0  0  0  0  0  0  0
  151.0043  138.1425  154.9003 N   0  0  0  0  0  0  0  0  0  0  0  0
  150.3310  139.0863  154.2391 C   0  0  0  0  0  0  0  0  0  0  0  0
  150.5787  140.2936  154.7238 N   0  0  0  0  0  0  0  0  0  0  0  0
  151.4700  140.0428  155.7540 N   0  0  0  0  0  0  0  0  0  0  0  0
  151.7263  138.7684  155.8636 N   0  0  0  0  0  0  0  0  0  0  0  0
  148.9380  135.4597  154.4970 N   0  0  0  0  0  0  0  0  0  0  0  0
  147.7434  134.7013  154.8590 C   0  0  2  0  0  0  0  0  0  0  0  0
  147.8932  133.2120  154.4831 C   0  0  0  0  0  0  0  0  0  0  0  0
  147.9067  133.0032  152.9597 C   0  0  0  0  0  0  0  0  0  0  0  0
  146.6556  133.6097  152.3051 C   0  0  0  0  0  0  0  0  0  0  0  0
  146.5003  135.1077  152.6438 C   0  0  1  0  0  0  0  0  0  0  0  0
  145.2495  135.7228  151.9830 C   0  0  0  0  0  0  0  0  0  0  0  0
  144.1391  135.1315  152.4251 F   0  0  0  0  0  0  0  0  0  0  0  0
  145.1828  137.0255  152.2583 F   0  0  0  0  0  0  0  0  0  0  0  0
  145.3155  135.5811  150.6592 F   0  0  0  0  0  0  0  0  0  0  0  0
  146.5031  135.3125  154.1773 C   0  0  0  0  0  0  0  0  0  0  0  0
  151.9163  136.2920  155.2238 H   0  0  0  0  0  0  0  0  0  0  0  0
  151.0877  136.4618  153.6820 H   0  0  0  0  0  0  0  0  0  0  0  0
  149.6591  138.8894  153.4166 H   0  0  0  0  0  0  0  0  0  0  0  0
  149.1827  135.4731  153.5171 H   0  0  0  0  0  0  0  0  0  0  0  0
  147.6075  134.7792  155.9392 H   0  0  0  0  0  0  0  0  0  0  0  0
  148.7976  132.7922  154.9251 H   0  0  0  0  0  0  0  0  0  0  0  0
  147.0619  132.6505  154.9117 H   0  0  0  0  0  0  0  0  0  0  0  0
  148.8027  133.4548  152.5310 H   0  0  0  0  0  0  0  0  0  0  0  0
  147.9632  131.9381  152.7334 H   0  0  0  0  0  0  0  0  0  0  0  0
  146.7124  133.4731  151.2249 H   0  0  0  0  0  0  0  0  0  0  0  0
  145.7725  133.0624  152.6377 H   0  0  0  0  0  0  0  0  0  0  0  0
  147.3669  135.6288  152.2337 H   0  0  0  0  0  0  0  0  0  0  0  0
  145.6077  134.8570  154.6023 H   0  0  0  0  0  0  0  0  0  0  0  0
  146.4405  136.3750  154.4157 H   0  0  0  0  0  0  0  0  0  0  0  0
  1  2  2  0  0  0  0
  2  3  1  0  0  0  0
  2  9  1  0  0  0  0
  3  4  1  0  0  0  0
  3 20  1  0  0  0  0
  3 21  1  0  0  0  0
  4  8  1  0  0  0  0
  4  5  1  0  0  0  0
  5  6  2  0  0  0  0
  5 22  1  0  0  0  0
  6  7  1  0  0  0  0
  7  8  2  0  0  0  0
  9 10  1  0  0  0  0
  9 23  1  0  0  0  0
 10 19  1  0  0  0  0
 10 11  1  0  0  0  0
 10 24  1  0  0  0  0
 11 12  1  0  0  0  0
 11 25  1  0  0  0  0
 11 26  1  0  0  0  0
 12 13  1  0  0  0  0
 12 27  1  0  0  0  0
 12 28  1  0  0  0  0
 13 14  1  0  0  0  0
 13 29  1  0  0  0  0
 13 30  1  0  0  0  0
 14 15  1  0  0  0  0
 14 19  1  0  0  0  0
 14 31  1  0  0  0  0
 15 16  1  0  0  0  0
 15 17  1  0  0  0  0
 15 18  1  0  0  0  0
 19 32  1  0  0  0  0
 19 33  1  0  0  0  0
M  END
> <s_m_source_file>
AV-unprocessed.smi

> <i_m_source_file_index>
1085

> <i_lp_mmshare_version>
43012

> <i_f3d_flags>
0

> <s_epik_input>
bjFubltjSF1uMVtDSDJdQyg9TylbTkhdW0NAQEhdMltDSDJdW0NIMl1bQ0gyXVtDQEBIXShDKEYpKEYpRilbQ0gyXTI=

> <s_epik_cmdline>
J2VwaWtfcHl0aG9uJywgJy1waCcsICc3LjAnLCAnLXRuJywgJzgnLCAnLW1hJywgJzIwMCcsICctbWV0YWxfYmluZGluZycsICctaW1hZScsICc8aW5maWxlLm1hZT4nLCAnLW9tYWUnLCAnPG91dGZpbGUubWFlPic=

> <r_lp_tautomer_probability>
1

> <r_epik_Ionization_Penalty>
8.41315e-07

> <r_epik_Ionization_Penalty_Charging>
0

> <r_epik_Ionization_Penalty_Neutral>
8.41315e-07

> <r_epik_State_Penalty>
-0

> <r_epik_Charging_Adjusted_Penalty>
0

> <i_epik_Tot_Q>
0

> <i_epik_Tot_abs_Q>
0

> <r_epik_Metal_State_Penalty>
-0

> <b_epik_Metal_Only>
0

> <s_lp_Force_Field>
OPLS_2005

> <r_lp_Energy>
11.1057

> <b_lp_Chiralities_Consistent>
1

> <s_lp_Variant>
AV-unprocessed.smi:1085-1

> <Gold.Version>
5.8.1

> <Gold.Id.Protein>
6NUR|6NUR_protein|mol2

> <Gold.PLP.Fitness>
34.1169

> <Gold.PLP.PLP>
-25.8845

> <Gold.PLP.part.hbond>
-2.1884

> <Gold.PLP.part.metal>
0.0000

> <Gold.PLP.part.buried>
-0.7817

> <Gold.PLP.part.nonpolar>
-23.0355

> <Gold.PLP.part.repulsive>
0.0989

> <Gold.PLP.ligand.clash>
0.0000

> <Gold.PLP.ligand.torsion>
0.2905

> <Gold.PLP.Chemscore.Hbond>
2.0000

> <Gold.PLP.Chemscore.CHOScore>
0.9276

> <Gold.PLP.Chemscore.Metal>
0.0000

> <Gold.Chemscore.Hbonds>
donor molecule, donor type, donor heavy atom, donor atom, acceptor molecule, acceptor atom, score
      L1  H     9    23       P1  7948  1.00
      P1  H  7989  7998       L1     6  0.95
      L1  C     5    22       P1  7957  0.95

> <Gold.PLP.Chemscore.Internal.Correction>
0.0306

> <Gold.Rescore>
     Score         DG    S(hbond)    S(metal)    S(lipo)     H(rot)  DE(clash)    DE(int)     intcor
      7.69      -7.80       0.94        0.00      37.73       2.05       0.00       0.10       ----

> <Gold.Chemscore.Fitness>
7.6938

> <Gold.Chemscore.DG>
-7.8021

> <Gold.Chemscore.ZeroCoef>
-5.4800

> <Gold.Chemscore.Hbond>
0.9414

> <Gold.Chemscore.Metal>
0.0000

> <Gold.Chemscore.Lipo>
37.7310

> <Gold.Chemscore.Internal_Hbond>
0.0000

> <Gold.Chemscore.DEClash>
0.0036

> <Gold.Chemscore.DEInternal>
0.1046

> <Gold.Chemscore.Rot>
2.0456

> <Gold.Chemscore.Internal.Correction>
   9.000000E+99

> <Gold.Chemscore.Hbonds>
donor molecule, donor type, donor heavy atom, donor atom, acceptor molecule, acceptor atom, score
      L1  H     9    23       P1  7948  0.47
      P1  H  7989  7998       L1     6  0.07

> <Gold.Chemscore.Hbond.Weighted>
-3.1443

> <Gold.Chemscore.Metal.Weighted>
-0.0000

> <Gold.Chemscore.Lipo.Weighted>
-4.4145

> <Gold.Chemscore.Internal_Hbond.Weighted>
0.0000

> <Gold.Chemscore.DEClash.Weighted>
0.0036

> <Gold.Chemscore.DEInternal.Weighted>
0.1046

> <Gold.Chemscore.Rot.Weighted>
5.2368

> <Gold.Chemscore.Internal.Correction.Weighted>
   9.000000E+99

> <Gold.Protein.RotatedTorsions>
[ 6907 6896 6895 6894 ] final   87.05 input  -60.11 | X-H torsion
[ 7974 7965 7964 7962 ] final -167.83 input  175.53 | X-H torsion
[ 8008 7997 7996 7995 ] final -150.41 input   59.86 | X-H torsion
[ 10167 10162 10161 10158 ] final -123.22 input  -65.29 | X-H torsion
[ 10718 10713 10712 10709 ] final  151.57 input   66.30 | X-H torsion
[ 10763 10752 10751 10750 ] final  -44.83 input  -60.55 | X-H torsion
[ 11005 11000 10999 10996 ] final  -72.00 input  -57.11 | X-H torsion

> <Gold.Protein.ActiveResidues>
 VAL166  LYS551  ARG553  GLY616  TRP617  ASP618  TYR619  PRO620  LYS621  CYS622 
 ASP623  PHE694  ASN695  SER759  ASP760  ASP761  ALA762  ILE779  LEU786  VAL792 
 PHE793  MET794  SER795  GLU796  ALA797  LYS798  CYS799  TRP800  GLU811  SER814 

> <Gold.Protein.RotatedAtoms>
  152.5405  134.2336  159.8834 H   0  0  0  0  0  0  0  0  0  0  0  0  # atno 6907 bound_to 6896
  151.2307  133.4445  159.2611 H   0  0  0  0  0  0  0  0  0  0  0  0  # atno 6908 bound_to 6896
  151.0718  134.9816  159.8368 H   0  0  0  0  0  0  0  0  0  0  0  0  # atno 6909 bound_to 6896
  144.7215  140.2460  143.6285 H   0  0  0  0  0  0  0  0  0  0  0  0  # atno 7974 bound_to 7965
  155.6231  140.0683  157.2672 H   0  0  0  0  0  0  0  0  0  0  0  0  # atno 8008 bound_to 7997
  154.4224  140.1781  156.1441 H   0  0  0  0  0  0  0  0  0  0  0  0  # atno 8009 bound_to 7997
  155.9994  140.3337  155.6833 H   0  0  0  0  0  0  0  0  0  0  0  0  # atno 8010 bound_to 7997
  140.0059  143.5492  152.2284 H   0  0  0  0  0  0  0  0  0  0  0  0  # atno 10167 bound_to 10162
  157.2690  131.0813  151.1613 H   0  0  0  0  0  0  0  0  0  0  0  0  # atno 10718 bound_to 10713
  154.0185  135.6672  153.4770 H   0  0  0  0  0  0  0  0  0  0  0  0  # atno 10763 bound_to 10752
  153.0590  135.5039  154.8045 H   0  0  0  0  0  0  0  0  0  0  0  0  # atno 10764 bound_to 10752
  154.6952  135.3068  154.9386 H   0  0  0  0  0  0  0  0  0  0  0  0  # atno 10765 bound_to 10752
  141.1601  133.6834  156.6992 H   0  0  0  0  0  0  0  0  0  0  0  0  # atno 11005 bound_to 11000
  145.8273  139.2070  143.1903 LP  0  0  0  0  0  0  0  0  0  0  0  0  # atno 17320 bound_to 7965
  146.0461  140.8116  142.9804 LP  0  0  0  0  0  0  0  0  0  0  0  0  # atno 17321 bound_to 7965
  139.6239  144.7634  151.2680 LP  0  0  0  0  0  0  0  0  0  0  0  0  # atno 17342 bound_to 10162
  140.7401  143.6599  150.8174 LP  0  0  0  0  0  0  0  0  0  0  0  0  # atno 17343 bound_to 10162
  157.3092  130.6881  149.6206 LP  0  0  0  0  0  0  0  0  0  0  0  0  # atno 17370 bound_to 10713
  155.9663  130.4369  150.5152 LP  0  0  0  0  0  0  0  0  0  0  0  0  # atno 17371 bound_to 10713
  140.2971  134.8193  157.4067 LP  0  0  0  0  0  0  0  0  0  0  0  0  # atno 17394 bound_to 11000
  140.1294  134.5114  155.8118 LP  0  0  0  0  0  0  0  0  0  0  0  0  # atno 17395 bound_to 11000

$$$$
