AV-unprocessed.smi:3234|AV-procd|sdf|12350|dock3
  -GOLD-   2272018213D 1   1.00000     0.00000
 Structure written by MMmdl.
 37 39  0  0  0  0  0  0  0  0  2 V2000
  146.2564  136.8252  152.8108 O   0  0  0  0  0  0  0  0  0  0  0  0
  145.5324  137.8203  152.7922 C   0  0  0  0  0  0  0  0  0  0  0  0
  145.9190  139.0737  153.0873 N   0  0  0  0  0  0  0  0  0  0  0  0
  147.1964  139.5337  153.5095 C   0  0  0  0  0  0  0  0  0  0  0  0
  147.3760  140.9243  153.6607 C   0  0  0  0  0  0  0  0  0  0  0  0
  148.6281  141.4049  154.0936 C   0  0  0  0  0  0  0  0  0  0  0  0
  149.6715  140.5995  154.3840 N   0  0  0  0  0  0  0  0  0  0  0  0
  149.4934  139.2679  154.2534 C   0  0  0  0  0  0  0  0  0  0  0  0
  148.2834  138.6840  153.8270 C   0  0  0  0  0  0  0  0  0  0  0  0
  144.2382  137.7792  152.4444 N   0  0  0  0  0  0  0  0  0  0  0  0
  143.5245  136.5684  152.0519 C   0  0  2  0  0  0  0  0  0  0  0  0
  143.3292  135.5551  153.1829 C   0  0  0  0  0  0  0  0  0  0  0  0
  143.3045  134.1881  152.4774 C   0  0  0  0  0  0  0  0  0  0  0  0
  143.6769  134.4279  151.0634 N   0  3  2  0  0  0  0  0  0  0  0  0
  144.4954  133.3558  150.4580 C   0  0  0  0  0  0  0  0  0  0  0  0
  143.8356  132.6873  149.2759 C   0  0  0  0  0  0  0  0  0  0  0  0
  143.8963  131.9780  150.6113 C   0  0  0  0  0  0  0  0  0  0  0  0
  144.2978  135.7631  151.0122 C   0  0  0  0  0  0  0  0  0  0  0  0
  145.2287  139.7961  152.9442 H   0  0  0  0  0  0  0  0  0  0  0  0
  146.5743  141.6153  153.4445 H   0  0  0  0  0  0  0  0  0  0  0  0
  148.7946  142.4654  154.2119 H   0  0  0  0  0  0  0  0  0  0  0  0
  150.3403  138.6462  154.5034 H   0  0  0  0  0  0  0  0  0  0  0  0
  148.2127  137.6092  153.7663 H   0  0  0  0  0  0  0  0  0  0  0  0
  143.7143  138.6425  152.4494 H   0  0  0  0  0  0  0  0  0  0  0  0
  142.5515  136.8337  151.6327 H   0  0  0  0  0  0  0  0  0  0  0  0
  144.1709  135.5918  153.8766 H   0  0  0  0  0  0  0  0  0  0  0  0
  142.4208  135.7460  153.7555 H   0  0  0  0  0  0  0  0  0  0  0  0
  144.0042  133.5043  152.9610 H   0  0  0  0  0  0  0  0  0  0  0  0
  142.3148  133.7325  152.5177 H   0  0  0  0  0  0  0  0  0  0  0  0
  145.5750  133.4950  150.4834 H   0  0  0  0  0  0  0  0  0  0  0  0
  142.8664  133.0590  148.9478 H   0  0  0  0  0  0  0  0  0  0  0  0
  144.4820  132.3140  148.4840 H   0  0  0  0  0  0  0  0  0  0  0  0
  144.5827  131.1379  150.6970 H   0  0  0  0  0  0  0  0  0  0  0  0
  142.9672  131.8779  151.1695 H   0  0  0  0  0  0  0  0  0  0  0  0
  144.2350  136.1966  150.0135 H   0  0  0  0  0  0  0  0  0  0  0  0
  145.3517  135.6904  151.2881 H   0  0  0  0  0  0  0  0  0  0  0  0
  142.8128  134.4919  150.5441 H   0  0  0  0  0  0  0  0  0  0  0  0
  1  2  2  0  0  0  0
  2  3  1  0  0  0  0
  2 10  1  0  0  0  0
  3  4  1  0  0  0  0
  3 19  1  0  0  0  0
  4  9  1  0  0  0  0
  4  5  2  0  0  0  0
  5  6  1  0  0  0  0
  5 20  1  0  0  0  0
  6  7  2  0  0  0  0
  6 21  1  0  0  0  0
  7  8  1  0  0  0  0
  8  9  2  0  0  0  0
  8 22  1  0  0  0  0
  9 23  1  0  0  0  0
 10 11  1  0  0  0  0
 10 24  1  0  0  0  0
 11 18  1  0  0  0  0
 11 12  1  0  0  0  0
 11 25  1  0  0  0  0
 12 13  1  0  0  0  0
 12 26  1  0  0  0  0
 12 27  1  0  0  0  0
 13 14  1  0  0  0  0
 13 28  1  0  0  0  0
 13 29  1  0  0  0  0
 14 15  1  0  0  0  0
 14 18  1  0  0  0  0
 14 37  1  0  0  0  0
 15 17  1  0  0  0  0
 15 16  1  0  0  0  0
 15 30  1  0  0  0  0
 16 17  1  0  0  0  0
 16 31  1  0  0  0  0
 16 32  1  0  0  0  0
 17 33  1  0  0  0  0
 17 34  1  0  0  0  0
 18 35  1  0  0  0  0
 18 36  1  0  0  0  0
M  CHG  1  14   1
M  END
> <s_m_source_file>
AV-unprocessed.smi

> <i_m_source_file_index>
3234

> <i_lp_mmshare_version>
43012

> <i_f3d_flags>
0

> <s_epik_input>
W2NIXTFbY0hdbltjSF1bY0hdYzFbTkhdQyg9TylbTkhdW0NAQEhdMltDSDJdW0NIMl1OKFtDSDJdMilbQ0hdM1tDSDJdW0NIMl0z

> <s_epik_cmdline>
J2VwaWtfcHl0aG9uJywgJy1waCcsICc3LjAnLCAnLXRuJywgJzgnLCAnLW1hJywgJzIwMCcsICctbWV0YWxfYmluZGluZycsICctaW1hZScsICc8aW5maWxlLm1hZT4nLCAnLW9tYWUnLCAnPG91dGZpbGUubWFlPic=

> <r_epik_Ionization_Penalty>
0.0934328

> <r_epik_Ionization_Penalty_Charging>
0.000606352

> <r_epik_Ionization_Penalty_Neutral>
0.0928265

> <r_epik_State_Penalty>
0.0830811

> <r_epik_Charging_Adjusted_Penalty>
0.0836875

> <i_epik_Tot_Q>
1

> <i_epik_Tot_abs_Q>
1

> <r_epik_Metal_State_Penalty>
0.0724491

> <b_epik_Metal_Only>
0

> <s_lp_Force_Field>
OPLS_2005

> <r_lp_Energy>
41.2347

> <b_lp_Chiralities_Consistent>
1

> <s_lp_Variant>
AV-unprocessed.smi:3234-3

> <Gold.Version>
5.8.1

> <Gold.Id.Protein>
6NUR|6NUR_protein|mol2

> <Gold.PLP.Fitness>
48.2448

> <Gold.PLP.PLP>
-33.1728

> <Gold.PLP.part.hbond>
-4.9588

> <Gold.PLP.part.metal>
0.0000

> <Gold.PLP.part.buried>
-0.9921

> <Gold.PLP.part.nonpolar>
-28.2518

> <Gold.PLP.part.repulsive>
1.7033

> <Gold.PLP.ligand.clash>
0.0000

> <Gold.PLP.ligand.torsion>
0.8691

> <Gold.PLP.Chemscore.Hbond>
4.4848

> <Gold.PLP.Chemscore.CHOScore>
0.6971

> <Gold.PLP.Chemscore.Metal>
0.0000

> <Gold.Chemscore.Hbonds>
donor molecule, donor type, donor heavy atom, donor atom, acceptor molecule, acceptor atom, score
      L1  H     3    19       P1 10175  1.00
      L1  H    10    24       P1 10175  1.00
      L1  H    14    37       P1 10186  1.89
      P1  H  7989  7998       L1     7  0.50
      L1  C     6    21       P1  8028  0.69

> <Gold.PLP.Chemscore.Internal.Correction>
1.2645

> <Gold.Rescore>
     Score         DG    S(hbond)    S(metal)    S(lipo)     H(rot)  DE(clash)    DE(int)     intcor
     17.59     -22.19       2.96        0.00      84.70       1.21       1.31       3.28       ----

> <Gold.Chemscore.Fitness>
17.5950

> <Gold.Chemscore.DG>
-22.1907

> <Gold.Chemscore.ZeroCoef>
-5.4800

> <Gold.Chemscore.Hbond>
2.9644

> <Gold.Chemscore.Metal>
0.0000

> <Gold.Chemscore.Lipo>
84.6951

> <Gold.Chemscore.Internal_Hbond>
0.0000

> <Gold.Chemscore.DEClash>
1.3127

> <Gold.Chemscore.DEInternal>
3.2831

> <Gold.Chemscore.Rot>
1.2108

> <Gold.Chemscore.Internal.Correction>
   9.000000E+99

> <Gold.Chemscore.Hbonds>
donor molecule, donor type, donor heavy atom, donor atom, acceptor molecule, acceptor atom, score
      L1  H     3    19       P1 10175  0.99
      L1  H    10    24       P1 10175  0.95
      L1  H    14    37       P1 10186  0.40
      P1  H  7989  7998       L1     7  0.17

> <Gold.Chemscore.Hbond.Weighted>
-9.9009

> <Gold.Chemscore.Metal.Weighted>
-0.0000

> <Gold.Chemscore.Lipo.Weighted>
-9.9093

> <Gold.Chemscore.Internal_Hbond.Weighted>
0.0000

> <Gold.Chemscore.DEClash.Weighted>
1.3127

> <Gold.Chemscore.DEInternal.Weighted>
3.2831

> <Gold.Chemscore.Rot.Weighted>
3.0996

> <Gold.Chemscore.Internal.Correction.Weighted>
   9.000000E+99

> <Gold.Protein.RotatedTorsions>
[ 6907 6896 6895 6894 ] final  -69.82 input  -60.11 | X-H torsion
[ 7974 7965 7964 7962 ] final   77.19 input  175.53 | X-H torsion
[ 8008 7997 7996 7995 ] final   10.67 input   59.86 | X-H torsion
[ 10167 10162 10161 10158 ] final  -12.07 input  -65.29 | X-H torsion
[ 10718 10713 10712 10709 ] final -171.84 input   66.30 | X-H torsion
[ 10763 10752 10751 10750 ] final -112.18 input  -60.55 | X-H torsion
[ 11005 11000 10999 10996 ] final   68.41 input  -57.11 | X-H torsion

> <Gold.Protein.ActiveResidues>
 VAL166  LYS551  ARG553  GLY616  TRP617  ASP618  TYR619  PRO620  LYS621  CYS622 
 ASP623  PHE694  ASN695  SER759  ASP760  ASP761  ALA762  ILE779  LEU786  VAL792 
 PHE793  MET794  SER795  GLU796  ALA797  LYS798  CYS799  TRP800  GLU811  SER814 

> <Gold.Protein.RotatedAtoms>
  150.7287  134.5542  159.5809 H   0  0  0  0  0  0  0  0  0  0  0  0  # atno 6907 bound_to 6896
  152.3022  134.7595  160.0364 H   0  0  0  0  0  0  0  0  0  0  0  0  # atno 6908 bound_to 6896
  151.8172  133.3354  159.3609 H   0  0  0  0  0  0  0  0  0  0  0  0  # atno 6909 bound_to 6896
  145.6932  139.2559  143.1747 H   0  0  0  0  0  0  0  0  0  0  0  0  # atno 7974 bound_to 7965
  154.7965  140.2844  155.5952 H   0  0  0  0  0  0  0  0  0  0  0  0  # atno 8008 bound_to 7997
  156.2971  140.2594  156.2753 H   0  0  0  0  0  0  0  0  0  0  0  0  # atno 8009 bound_to 7997
  154.9608  140.0377  157.2178 H   0  0  0  0  0  0  0  0  0  0  0  0  # atno 8010 bound_to 7997
  140.7153  143.5571  150.9236 H   0  0  0  0  0  0  0  0  0  0  0  0  # atno 10167 bound_to 10162
  156.7468  130.9363  151.3113 H   0  0  0  0  0  0  0  0  0  0  0  0  # atno 10718 bound_to 10713
  154.8337  135.4500  154.1153 H   0  0  0  0  0  0  0  0  0  0  0  0  # atno 10763 bound_to 10752
  153.2404  135.6915  153.7796 H   0  0  0  0  0  0  0  0  0  0  0  0  # atno 10764 bound_to 10752
  153.7145  135.3351  155.3229 H   0  0  0  0  0  0  0  0  0  0  0  0  # atno 10765 bound_to 10752
  139.9713  134.6895  156.0441 H   0  0  0  0  0  0  0  0  0  0  0  0  # atno 11005 bound_to 11000
  146.0863  140.7707  142.9617 LP  0  0  0  0  0  0  0  0  0  0  0  0  # atno 17320 bound_to 7965
  144.6990  140.3567  143.7171 LP  0  0  0  0  0  0  0  0  0  0  0  0  # atno 17321 bound_to 7965
  139.9296  143.6509  152.3079 LP  0  0  0  0  0  0  0  0  0  0  0  0  # atno 17342 bound_to 10162
  139.6955  144.7642  151.1364 LP  0  0  0  0  0  0  0  0  0  0  0  0  # atno 17343 bound_to 10162
  157.6795  130.9126  150.0231 LP  0  0  0  0  0  0  0  0  0  0  0  0  # atno 17370 bound_to 10713
  156.1428  130.3642  149.9556 LP  0  0  0  0  0  0  0  0  0  0  0  0  # atno 17371 bound_to 10713
  141.1392  133.6568  156.3682 LP  0  0  0  0  0  0  0  0  0  0  0  0  # atno 17394 bound_to 11000
  140.5287  134.6233  157.5343 LP  0  0  0  0  0  0  0  0  0  0  0  0  # atno 17395 bound_to 11000

$$$$
