AV-unprocessed.smi:218|AV-procd|sdf|1669|dock3
  -GOLD-   2262020 83D 1   1.00000     0.00000
 Structure written by MMmdl.
 54 57  0  0  0  0  0  0  0  0  1 V2000
  152.2568  143.1485  159.6387 C   0  0  0  0  0  0  0  0  0  0  0  0
  152.3670  141.6519  159.9538 C   0  0  0  0  0  0  0  0  0  0  0  0
  153.6063  141.3541  160.8153 C   0  0  0  0  0  0  0  0  0  0  0  0
  152.4551  140.9695  158.7011 O   0  0  0  0  0  0  0  0  0  0  0  0
  151.3162  140.7426  157.9524 C   0  0  0  0  0  0  0  0  0  0  0  0
  150.5108  139.6325  158.2800 C   0  0  0  0  0  0  0  0  0  0  0  0
  149.3497  139.3850  157.5197 C   0  0  0  0  0  0  0  0  0  0  0  0
  148.4557  138.2060  157.8405 C   0  0  0  0  0  0  0  0  0  0  0  0
  149.1979  136.9661  158.0190 N   0  0  0  0  0  0  0  0  0  0  0  0
  148.7469  135.8227  157.4608 C   0  0  0  0  0  0  0  0  0  0  0  0
  149.0511  134.6127  158.0000 N   0  0  0  0  0  0  0  0  0  0  0  0
  148.5920  133.4939  157.4309 C   0  0  0  0  0  0  0  0  0  0  0  0
  147.8294  133.3640  156.3434 N   0  0  0  0  0  0  0  0  0  0  0  0
  147.5238  134.5763  155.7973 C   0  0  0  0  0  0  0  0  0  0  0  0
  147.9395  135.8425  156.2941 C   0  0  0  0  0  0  0  0  0  0  0  0
  147.4360  136.8530  155.4852 N   0  0  0  0  0  0  0  0  0  0  0  0
  146.7621  136.2156  154.5654 C   0  0  0  0  0  0  0  0  0  0  0  0
  146.7578  134.8430  154.6810 N   0  0  0  0  0  0  0  0  0  0  0  0
  146.0891  133.8474  153.7834 C   0  0  1  0  0  0  0  0  0  0  0  0
  145.1923  134.5457  152.9772 O   0  0  0  0  0  0  0  0  0  0  0  0
  145.2280  133.9970  151.6704 C   0  0  1  0  0  0  0  0  0  0  0  0
  144.6373  134.9775  150.6406 C   0  0  0  0  0  0  0  0  0  0  0  0
  144.5066  134.3967  149.3596 O   0  0  0  0  0  0  0  0  0  0  0  0
  146.6821  133.5589  151.4664 C   0  0  2  0  0  0  0  0  0  0  0  0
  146.7505  132.4934  150.5402 O   0  0  0  0  0  0  0  0  0  0  0  0
  147.0775  133.0872  152.8622 C   0  0  1  0  0  0  0  0  0  0  0  0
  148.4456  133.3498  153.1184 O   0  0  0  0  0  0  0  0  0  0  0  0
  149.0357  140.2601  156.4610 C   0  0  0  0  0  0  0  0  0  0  0  0
  149.9013  141.3417  156.2086 C   0  0  0  0  0  0  0  0  0  0  0  0
  151.0161  141.5827  156.9305 N   0  0  0  0  0  0  0  0  0  0  0  0
  145.5515  133.1820  154.4603 H   0  0  0  0  0  0  0  0  0  0  0  0
  144.5899  133.1115  151.7050 H   0  0  0  0  0  0  0  0  0  0  0  0
  147.3104  134.3906  151.1459 H   0  0  0  0  0  0  0  0  0  0  0  0
  146.8837  132.0204  152.9844 H   0  0  0  0  0  0  0  0  0  0  0  0
  152.1778  143.7382  160.5525 H   0  0  0  0  0  0  0  0  0  0  0  0
  151.3731  143.3548  159.0344 H   0  0  0  0  0  0  0  0  0  0  0  0
  153.1278  143.5019  159.0861 H   0  0  0  0  0  0  0  0  0  0  0  0
  151.4612  141.3695  160.4925 H   0  0  0  0  0  0  0  0  0  0  0  0
  153.5662  141.9010  161.7576 H   0  0  0  0  0  0  0  0  0  0  0  0
  154.5222  141.6453  160.3005 H   0  0  0  0  0  0  0  0  0  0  0  0
  153.6865  140.2948  161.0575 H   0  0  0  0  0  0  0  0  0  0  0  0
  150.7814  138.9828  159.0995 H   0  0  0  0  0  0  0  0  0  0  0  0
  147.8851  138.4207  158.7451 H   0  0  0  0  0  0  0  0  0  0  0  0
  147.7379  138.0861  157.0279 H   0  0  0  0  0  0  0  0  0  0  0  0
  150.0255  137.0191  158.5955 H   0  0  0  0  0  0  0  0  0  0  0  0
  148.8750  132.5706  157.9145 H   0  0  0  0  0  0  0  0  0  0  0  0
  146.2441  136.7342  153.7719 H   0  0  0  0  0  0  0  0  0  0  0  0
  143.6451  135.2921  150.9641 H   0  0  0  0  0  0  0  0  0  0  0  0
  145.2499  135.8769  150.5730 H   0  0  0  0  0  0  0  0  0  0  0  0
  145.2300  134.6848  148.8241 H   0  0  0  0  0  0  0  0  0  0  0  0
  147.5893  132.0686  150.6380 H   0  0  0  0  0  0  0  0  0  0  0  0
  148.5996  134.2728  152.9828 H   0  0  0  0  0  0  0  0  0  0  0  0
  148.1538  140.1104  155.8556 H   0  0  0  0  0  0  0  0  0  0  0  0
  149.6928  142.0326  155.4053 H   0  0  0  0  0  0  0  0  0  0  0  0
  1  2  1  0  0  0  0
  1 35  1  0  0  0  0
  1 36  1  0  0  0  0
  1 37  1  0  0  0  0
  2  3  1  0  0  0  0
  2  4  1  0  0  0  0
  2 38  1  0  0  0  0
  3 39  1  0  0  0  0
  3 40  1  0  0  0  0
  3 41  1  0  0  0  0
  4  5  1  0  0  0  0
  5 30  1  0  0  0  0
  5  6  2  0  0  0  0
  6  7  1  0  0  0  0
  6 42  1  0  0  0  0
  7  8  1  0  0  0  0
  7 28  2  0  0  0  0
  8  9  1  0  0  0  0
  8 43  1  0  0  0  0
  8 44  1  0  0  0  0
  9 10  1  0  0  0  0
  9 45  1  0  0  0  0
 10 15  1  0  0  0  0
 10 11  2  0  0  0  0
 11 12  1  0  0  0  0
 12 13  2  0  0  0  0
 12 46  1  0  0  0  0
 13 14  1  0  0  0  0
 14 18  1  0  0  0  0
 14 15  2  0  0  0  0
 15 16  1  0  0  0  0
 16 17  2  0  0  0  0
 17 18  1  0  0  0  0
 17 47  1  0  0  0  0
 18 19  1  0  0  0  0
 19 31  1  0  0  0  0
 19 26  1  0  0  0  0
 19 20  1  0  0  0  0
 20 21  1  0  0  0  0
 21 32  1  0  0  0  0
 21 22  1  0  0  0  0
 21 24  1  0  0  0  0
 22 23  1  0  0  0  0
 22 48  1  0  0  0  0
 22 49  1  0  0  0  0
 23 50  1  0  0  0  0
 24 33  1  0  0  0  0
 24 25  1  0  0  0  0
 24 26  1  0  0  0  0
 25 51  1  0  0  0  0
 26 34  1  0  0  0  0
 26 27  1  0  0  0  0
 27 52  1  0  0  0  0
 28 29  1  0  0  0  0
 28 53  1  0  0  0  0
 29 30  2  0  0  0  0
 29 54  1  0  0  0  0
M  END
> <s_m_source_file>
AV-unprocessed.smi

> <i_m_source_file_index>
218

> <i_lp_mmshare_version>
43012

> <i_f3d_flags>
0

> <s_epik_input>
W0NIM11bQ0hdKFtDSDNdKU9jMVtjSF1jKFtjSF1bY0hdbjEpW0NIMl1bTkhdYyhuW2NIXW4yKWMoYzIzKW5bY0hdbjNbQ0BASF00T1tDQEhdKFtDSDJdW09IXSlbQ0BASF0oW09IXSlbQ0BIXTRbT0hd

> <s_epik_cmdline>
J2VwaWtfcHl0aG9uJywgJy1waCcsICc3LjAnLCAnLXRuJywgJzgnLCAnLW1hJywgJzIwMCcsICctbWV0YWxfYmluZGluZycsICctaW1hZScsICc8aW5maWxlLm1hZT4nLCAnLW9tYWUnLCAnPG91dGZpbGUubWFlPic=

> <r_lp_tautomer_probability>
1

> <r_epik_Ionization_Penalty>
0.00457014

> <r_epik_Ionization_Penalty_Charging>
0

> <r_epik_Ionization_Penalty_Neutral>
0.00457014

> <r_epik_State_Penalty>
-0

> <r_epik_Charging_Adjusted_Penalty>
0

> <i_epik_Tot_Q>
0

> <i_epik_Tot_abs_Q>
0

> <r_epik_Metal_State_Penalty>
-0

> <b_epik_Metal_Only>
0

> <s_epik_Chemistry_Notes>
This compound contains an acetal/aminal-like group ( X-CH(R)-Y where X, Y are N, S, or O) that may be acid/base labile, releasing an aldehyde.

> <s_lp_Force_Field>
OPLS_2005

> <r_lp_Energy>
42.4644

> <b_lp_Chiralities_Consistent>
1

> <s_lp_Variant>
AV-unprocessed.smi:218-8

> <Gold.Version>
5.8.1

> <Gold.Id.Protein>
6NUR|6NUR_protein|mol2

> <Gold.PLP.Fitness>
48.4882

> <Gold.PLP.PLP>
-36.1411

> <Gold.PLP.part.hbond>
-4.0000

> <Gold.PLP.part.metal>
0.0000

> <Gold.PLP.part.buried>
-6.8631

> <Gold.PLP.part.nonpolar>
-26.0273

> <Gold.PLP.part.repulsive>
0.2949

> <Gold.PLP.ligand.clash>
0.0000

> <Gold.PLP.ligand.torsion>
1.2454

> <Gold.PLP.Chemscore.Hbond>
3.8500

> <Gold.PLP.Chemscore.CHOScore>
0.9761

> <Gold.PLP.Chemscore.Metal>
0.0000

> <Gold.Chemscore.Hbonds>
donor molecule, donor type, donor heavy atom, donor atom, acceptor molecule, acceptor atom, score
      L1  H    23    50       P1  7921  0.93
      L1  H    25    51       P1 10747  1.00
      L1  H    27    52       P1  7948  0.37
      P1  H  6896  6909       L1    11  0.70
      L1  C    29    54       P1  8028  0.27

> <Gold.PLP.Chemscore.Internal.Correction>
0.3596

> <Gold.Rescore>
     Score         DG    S(hbond)    S(metal)    S(lipo)     H(rot)  DE(clash)    DE(int)     intcor
      8.17     -10.88       2.90        0.00      70.72       4.90       0.00       2.70       ----

> <Gold.Chemscore.Fitness>
8.1731

> <Gold.Chemscore.DG>
-10.8772

> <Gold.Chemscore.ZeroCoef>
-5.4800

> <Gold.Chemscore.Hbond>
2.8965

> <Gold.Chemscore.Metal>
0.0000

> <Gold.Chemscore.Lipo>
70.7209

> <Gold.Chemscore.Internal_Hbond>
0.0000

> <Gold.Chemscore.DEClash>
0.0029

> <Gold.Chemscore.DEInternal>
2.7011

> <Gold.Chemscore.Rot>
4.9029

> <Gold.Chemscore.Internal.Correction>
   9.000000E+99

> <Gold.Chemscore.Hbonds>
donor molecule, donor type, donor heavy atom, donor atom, acceptor molecule, acceptor atom, score
      L1  H    23    50       P1  7921  0.88
      L1  H    25    51       P1 10747  0.99
      L1  H    27    52       P1  7948  0.05
      P1  H  6896  6909       L1    11  0.60

> <Gold.Chemscore.Hbond.Weighted>
-9.6744

> <Gold.Chemscore.Metal.Weighted>
-0.0000

> <Gold.Chemscore.Lipo.Weighted>
-8.2743

> <Gold.Chemscore.Internal_Hbond.Weighted>
0.0000

> <Gold.Chemscore.DEClash.Weighted>
0.0029

> <Gold.Chemscore.DEInternal.Weighted>
2.7011

> <Gold.Chemscore.Rot.Weighted>
12.5515

> <Gold.Chemscore.Internal.Correction.Weighted>
   9.000000E+99

> <Gold.Protein.RotatedTorsions>
[ 6907 6896 6895 6894 ] final   30.17 input  -60.11 | X-H torsion
[ 7974 7965 7964 7962 ] final -138.16 input  175.53 | X-H torsion
[ 8008 7997 7996 7995 ] final   83.36 input   59.86 | X-H torsion
[ 10167 10162 10161 10158 ] final   73.27 input  -65.29 | X-H torsion
[ 10718 10713 10712 10709 ] final -147.55 input   66.30 | X-H torsion
[ 10763 10752 10751 10750 ] final   55.87 input  -60.55 | X-H torsion
[ 11005 11000 10999 10996 ] final -117.20 input  -57.11 | X-H torsion

> <Gold.Protein.ActiveResidues>
 VAL166  LYS551  ARG553  GLY616  TRP617  ASP618  TYR619  PRO620  LYS621  CYS622 
 ASP623  PHE694  ASN695  SER759  ASP760  ASP761  ALA762  ILE779  LEU786  VAL792 
 PHE793  MET794  SER795  GLU796  ALA797  LYS798  CYS799  TRP800  GLU811  SER814 

> <Gold.Protein.RotatedAtoms>
  152.0421  134.9705  160.0573 H   0  0  0  0  0  0  0  0  0  0  0  0  # atno 6907 bound_to 6896
  152.1139  133.4311  159.4652 H   0  0  0  0  0  0  0  0  0  0  0  0  # atno 6908 bound_to 6896
  150.6845  134.2534  159.4563 H   0  0  0  0  0  0  0  0  0  0  0  0  # atno 6909 bound_to 6896
  144.8781  140.6467  143.5223 H   0  0  0  0  0  0  0  0  0  0  0  0  # atno 7974 bound_to 7965
  155.9228  140.3420  155.6187 H   0  0  0  0  0  0  0  0  0  0  0  0  # atno 8008 bound_to 7997
  155.7252  140.0788  157.2332 H   0  0  0  0  0  0  0  0  0  0  0  0  # atno 8009 bound_to 7997
  154.4072  140.1598  156.2434 H   0  0  0  0  0  0  0  0  0  0  0  0  # atno 8010 bound_to 7997
  140.0263  144.5501  150.7542 H   0  0  0  0  0  0  0  0  0  0  0  0  # atno 10167 bound_to 10162
  156.4090  130.7972  151.2188 H   0  0  0  0  0  0  0  0  0  0  0  0  # atno 10718 bound_to 10713
  152.9823  135.5696  154.5136 H   0  0  0  0  0  0  0  0  0  0  0  0  # atno 10763 bound_to 10752
  154.4636  135.2782  155.1696 H   0  0  0  0  0  0  0  0  0  0  0  0  # atno 10764 bound_to 10752
  154.3274  135.6256  153.5589 H   0  0  0  0  0  0  0  0  0  0  0  0  # atno 10765 bound_to 10752
  141.0371  133.9893  157.3054 H   0  0  0  0  0  0  0  0  0  0  0  0  # atno 11005 bound_to 11000
  145.4004  139.1599  143.4180 LP  0  0  0  0  0  0  0  0  0  0  0  0  # atno 17320 bound_to 7965
  146.2976  140.4101  142.8716 LP  0  0  0  0  0  0  0  0  0  0  0  0  # atno 17321 bound_to 7965
  140.7321  143.2702  151.3913 LP  0  0  0  0  0  0  0  0  0  0  0  0  # atno 17342 bound_to 10162
  139.6106  144.1106  152.2295 LP  0  0  0  0  0  0  0  0  0  0  0  0  # atno 17343 bound_to 10162
  157.7506  131.0263  150.3958 LP  0  0  0  0  0  0  0  0  0  0  0  0  # atno 17370 bound_to 10713
  156.4253  130.3961  149.6797 LP  0  0  0  0  0  0  0  0  0  0  0  0  # atno 17371 bound_to 10713
  139.9248  135.0201  156.8196 LP  0  0  0  0  0  0  0  0  0  0  0  0  # atno 17394 bound_to 11000
  140.6302  133.9912  155.7658 LP  0  0  0  0  0  0  0  0  0  0  0  0  # atno 17395 bound_to 11000

$$$$
