AV-unprocessed.smi:2341|AV-procd|sdf|9352|dock3
  -GOLD-   2272012573D 1   1.00000     0.00000
 Structure written by MMmdl.
 52 54  0  0  0  0  0  0  0  0  2 V2000
  149.9984  129.5810  155.0580 C   0  0  0  0  0  0  0  0  0  0  0  0
  149.9302  131.0735  154.8123 C   0  0  0  0  0  0  0  0  0  0  0  0
  149.2264  131.6005  153.7127 C   0  0  0  0  0  0  0  0  0  0  0  0
  149.1967  132.9967  153.5323 C   0  0  0  0  0  0  0  0  0  0  0  0
  149.8701  133.8315  154.4523 C   0  0  0  0  0  0  0  0  0  0  0  0
  149.7785  135.2225  154.1797 N   0  0  0  0  0  0  0  0  0  0  0  0
  150.1257  136.2497  154.9748 C   0  0  0  0  0  0  0  0  0  0  0  0
  150.5983  136.1481  156.1073 O   0  0  0  0  0  0  0  0  0  0  0  0
  149.8939  137.4273  154.3762 N   0  0  0  0  0  0  0  0  0  0  0  0
  150.1513  138.7350  154.9721 C   0  0  2  0  0  0  0  0  0  0  0  0
  151.6081  138.8173  155.4456 C   0  0  0  0  0  0  0  0  0  0  0  0
  151.8980  140.1533  156.1516 C   0  0  0  0  0  0  0  0  0  0  0  0
  150.9729  140.3832  157.2998 N   0  3  1  0  0  0  0  0  0  0  0  0
  151.2509  141.6013  158.1302 C   0  0  0  0  0  0  0  0  0  0  0  0
  150.9986  142.9483  157.4002 C   0  0  0  0  0  0  0  0  0  0  0  0
  151.3316  144.1607  158.2848 C   0  0  0  0  0  0  0  0  0  0  0  0
  152.7796  144.1059  158.7858 C   0  0  0  0  0  0  0  0  0  0  0  0
  153.0454  142.7899  159.5266 C   0  0  0  0  0  0  0  0  0  0  0  0
  152.7121  141.5755  158.6454 C   0  0  0  0  0  0  0  0  0  0  0  0
  149.5532  140.3280  156.8469 C   0  0  0  0  0  0  0  0  0  0  0  0
  149.2206  138.9899  156.1685 C   0  0  0  0  0  0  0  0  0  0  0  0
  150.5463  133.3141  155.5081 N   0  0  0  0  0  0  0  0  0  0  0  0
  150.5741  131.9760  155.6805 C   0  0  0  0  0  0  0  0  0  0  0  0
  149.3096  129.0412  154.4077 H   0  0  0  0  0  0  0  0  0  0  0  0
  149.7379  129.3539  156.0920 H   0  0  0  0  0  0  0  0  0  0  0  0
  151.0072  129.2140  154.8688 H   0  0  0  0  0  0  0  0  0  0  0  0
  148.7170  130.9501  153.0168 H   0  0  0  0  0  0  0  0  0  0  0  0
  148.6609  133.4175  152.6939 H   0  0  0  0  0  0  0  0  0  0  0  0
  149.4032  135.4619  153.2740 H   0  0  0  0  0  0  0  0  0  0  0  0
  149.5037  137.4181  153.4448 H   0  0  0  0  0  0  0  0  0  0  0  0
  149.9901  139.5087  154.2187 H   0  0  0  0  0  0  0  0  0  0  0  0
  151.8226  137.9950  156.1302 H   0  0  0  0  0  0  0  0  0  0  0  0
  152.2841  138.6965  154.5980 H   0  0  0  0  0  0  0  0  0  0  0  0
  152.9330  140.1101  156.4882 H   0  0  0  0  0  0  0  0  0  0  0  0
  151.8191  140.9808  155.4447 H   0  0  0  0  0  0  0  0  0  0  0  0
  150.5767  141.5773  158.9884 H   0  0  0  0  0  0  0  0  0  0  0  0
  151.5952  142.9961  156.4880 H   0  0  0  0  0  0  0  0  0  0  0  0
  149.9535  143.0393  157.1035 H   0  0  0  0  0  0  0  0  0  0  0  0
  151.1679  145.0834  157.7269 H   0  0  0  0  0  0  0  0  0  0  0  0
  150.6505  144.1905  159.1362 H   0  0  0  0  0  0  0  0  0  0  0  0
  153.4652  144.1994  157.9426 H   0  0  0  0  0  0  0  0  0  0  0  0
  152.9796  144.9519  159.4441 H   0  0  0  0  0  0  0  0  0  0  0  0
  154.0891  142.7463  159.8391 H   0  0  0  0  0  0  0  0  0  0  0  0
  152.4485  142.7552  160.4390 H   0  0  0  0  0  0  0  0  0  0  0  0
  152.9129  140.6752  159.2238 H   0  0  0  0  0  0  0  0  0  0  0  0
  153.3972  141.5485  157.7966 H   0  0  0  0  0  0  0  0  0  0  0  0
  148.8704  140.4646  157.6837 H   0  0  0  0  0  0  0  0  0  0  0  0
  149.3616  141.1498  156.1550 H   0  0  0  0  0  0  0  0  0  0  0  0
  148.1802  138.9974  155.8414 H   0  0  0  0  0  0  0  0  0  0  0  0
  149.3110  138.1801  156.8942 H   0  0  0  0  0  0  0  0  0  0  0  0
  151.1270  131.6170  156.5361 H   0  0  0  0  0  0  0  0  0  0  0  0
  151.1121  139.5953  157.9163 H   0  0  0  0  0  0  0  0  0  0  0  0
  1  2  1  0  0  0  0
  1 24  1  0  0  0  0
  1 25  1  0  0  0  0
  1 26  1  0  0  0  0
  2 23  1  0  0  0  0
  2  3  2  0  0  0  0
  3  4  1  0  0  0  0
  3 27  1  0  0  0  0
  4  5  2  0  0  0  0
  4 28  1  0  0  0  0
  5  6  1  0  0  0  0
  5 22  1  0  0  0  0
  6  7  1  0  0  0  0
  6 29  1  0  0  0  0
  7  8  2  0  0  0  0
  7  9  1  0  0  0  0
  9 10  1  0  0  0  0
  9 30  1  0  0  0  0
 10 21  1  0  0  0  0
 10 11  1  0  0  0  0
 10 31  1  0  0  0  0
 11 12  1  0  0  0  0
 11 32  1  0  0  0  0
 11 33  1  0  0  0  0
 12 13  1  0  0  0  0
 12 34  1  0  0  0  0
 12 35  1  0  0  0  0
 13 14  1  0  0  0  0
 13 20  1  0  0  0  0
 13 52  1  0  0  0  0
 14 19  1  0  0  0  0
 14 15  1  0  0  0  0
 14 36  1  0  0  0  0
 15 16  1  0  0  0  0
 15 37  1  0  0  0  0
 15 38  1  0  0  0  0
 16 17  1  0  0  0  0
 16 39  1  0  0  0  0
 16 40  1  0  0  0  0
 17 18  1  0  0  0  0
 17 41  1  0  0  0  0
 17 42  1  0  0  0  0
 18 19  1  0  0  0  0
 18 43  1  0  0  0  0
 18 44  1  0  0  0  0
 19 45  1  0  0  0  0
 19 46  1  0  0  0  0
 20 21  1  0  0  0  0
 20 47  1  0  0  0  0
 20 48  1  0  0  0  0
 21 49  1  0  0  0  0
 21 50  1  0  0  0  0
 22 23  2  0  0  0  0
 23 51  1  0  0  0  0
M  CHG  1  13   1
M  END
> <s_m_source_file>
AV-unprocessed.smi

> <i_m_source_file_index>
2341

> <i_lp_mmshare_version>
43012

> <i_f3d_flags>
0

> <s_epik_input>
W0NIM11jMVtjSF1bY0hdYyhuW2NIXTEpW05IXUMoPU8pW05IXVtDSF0yW0NIMl1bQ0gyXU4oW0NIMl1bQ0gyXTIpW0NIXTNbQ0gyXVtDSDJdW0NIMl1bQ0gyXVtDSDJdMw==

> <s_epik_cmdline>
J2VwaWtfcHl0aG9uJywgJy1waCcsICc3LjAnLCAnLXRuJywgJzgnLCAnLW1hJywgJzIwMCcsICctbWV0YWxfYmluZGluZycsICctaW1hZScsICc8aW5maWxlLm1hZT4nLCAnLW9tYWUnLCAnPG91dGZpbGUubWFlPic=

> <r_epik_Ionization_Penalty>
0.00176486

> <r_epik_Ionization_Penalty_Charging>
0.00171891

> <r_epik_Ionization_Penalty_Neutral>
4.59494e-05

> <r_epik_State_Penalty>
0.00116222

> <r_epik_Charging_Adjusted_Penalty>
0.00288114

> <i_epik_Tot_Q>
1

> <i_epik_Tot_abs_Q>
1

> <r_epik_Metal_State_Penalty>
-0

> <b_epik_Metal_Only>
0

> <s_lp_Force_Field>
OPLS_2005

> <r_lp_Energy>
29.4095

> <b_lp_Chiralities_Consistent>
1

> <s_lp_Variant>
AV-unprocessed.smi:2341-1

> <Gold.Version>
5.8.1

> <Gold.Id.Protein>
6NUR|6NUR_protein|mol2

> <Gold.PLP.Fitness>
48.2486

> <Gold.PLP.PLP>
-43.0015

> <Gold.PLP.part.hbond>
-2.6147

> <Gold.PLP.part.metal>
0.0000

> <Gold.PLP.part.buried>
-4.2793

> <Gold.PLP.part.nonpolar>
-36.6420

> <Gold.PLP.part.repulsive>
0.1536

> <Gold.PLP.ligand.clash>
0.0000

> <Gold.PLP.ligand.torsion>
0.0917

> <Gold.PLP.Chemscore.Hbond>
1.7960

> <Gold.PLP.Chemscore.CHOScore>
0.0000

> <Gold.PLP.Chemscore.Metal>
0.0000

> <Gold.Chemscore.Hbonds>
donor molecule, donor type, donor heavy atom, donor atom, acceptor molecule, acceptor atom, score
      L1  H     6    29       P1  7948  0.80
      L1  H     9    30       P1  7948  0.90

> <Gold.PLP.Chemscore.Internal.Correction>
0.0426

> <Gold.Rescore>
     Score         DG    S(hbond)    S(metal)    S(lipo)     H(rot)  DE(clash)    DE(int)     intcor
     18.11     -20.70       1.65        0.00     109.03       1.19       0.00       2.60       ----

> <Gold.Chemscore.Fitness>
18.1061

> <Gold.Chemscore.DG>
-20.7022

> <Gold.Chemscore.ZeroCoef>
-5.4800

> <Gold.Chemscore.Hbond>
1.6518

> <Gold.Chemscore.Metal>
0.0000

> <Gold.Chemscore.Lipo>
109.0281

> <Gold.Chemscore.Internal_Hbond>
0.0000

> <Gold.Chemscore.DEClash>
0.0000

> <Gold.Chemscore.DEInternal>
2.5960

> <Gold.Chemscore.Rot>
1.1918

> <Gold.Chemscore.Internal.Correction>
   9.000000E+99

> <Gold.Chemscore.Hbonds>
donor molecule, donor type, donor heavy atom, donor atom, acceptor molecule, acceptor atom, score
      L1  H     6    29       P1  7948  0.12
      L1  H     9    30       P1  7948  0.75

> <Gold.Chemscore.Hbond.Weighted>
-5.5170

> <Gold.Chemscore.Metal.Weighted>
-0.0000

> <Gold.Chemscore.Lipo.Weighted>
-12.7563

> <Gold.Chemscore.Internal_Hbond.Weighted>
0.0000

> <Gold.Chemscore.DEClash.Weighted>
0.0000

> <Gold.Chemscore.DEInternal.Weighted>
2.5960

> <Gold.Chemscore.Rot.Weighted>
3.0511

> <Gold.Chemscore.Internal.Correction.Weighted>
   9.000000E+99

> <Gold.Protein.RotatedTorsions>
[ 6907 6896 6895 6894 ] final  -78.68 input  -60.11 | X-H torsion
[ 7974 7965 7964 7962 ] final  128.85 input  175.53 | X-H torsion
[ 8008 7997 7996 7995 ] final   45.92 input   59.86 | X-H torsion
[ 10167 10162 10161 10158 ] final  -68.41 input  -65.29 | X-H torsion
[ 10718 10713 10712 10709 ] final -163.64 input   66.30 | X-H torsion
[ 10763 10752 10751 10750 ] final  148.62 input  -60.55 | X-H torsion
[ 11005 11000 10999 10996 ] final  -49.57 input  -57.11 | X-H torsion

> <Gold.Protein.ActiveResidues>
 VAL166  LYS551  ARG553  GLY616  TRP617  ASP618  TYR619  PRO620  LYS621  CYS622 
 ASP623  PHE694  ASN695  SER759  ASP760  ASP761  ALA762  ILE779  LEU786  VAL792 
 PHE793  MET794  SER795  GLU796  ALA797  LYS798  CYS799  TRP800  GLU811  SER814 

> <Gold.Protein.RotatedAtoms>
  150.6967  134.4235  159.5215 H   0  0  0  0  0  0  0  0  0  0  0  0  # atno 6907 bound_to 6896
  152.1974  134.8616  160.0520 H   0  0  0  0  0  0  0  0  0  0  0  0  # atno 6908 bound_to 6896
  151.9548  133.3642  159.4050 H   0  0  0  0  0  0  0  0  0  0  0  0  # atno 6909 bound_to 6896
  145.0350  139.4012  143.5130 H   0  0  0  0  0  0  0  0  0  0  0  0  # atno 7974 bound_to 7965
  155.3439  140.3409  155.4239 H   0  0  0  0  0  0  0  0  0  0  0  0  # atno 8008 bound_to 7997
  156.1799  140.1660  156.8329 H   0  0  0  0  0  0  0  0  0  0  0  0  # atno 8009 bound_to 7997
  154.5322  140.0743  156.8348 H   0  0  0  0  0  0  0  0  0  0  0  0  # atno 8010 bound_to 7997
  140.5509  143.2312  151.6913 H   0  0  0  0  0  0  0  0  0  0  0  0  # atno 10167 bound_to 10162
  156.6276  130.8916  151.2971 H   0  0  0  0  0  0  0  0  0  0  0  0  # atno 10718 bound_to 10713
  154.0578  135.2876  155.3330 H   0  0  0  0  0  0  0  0  0  0  0  0  # atno 10763 bound_to 10752
  154.6828  135.5257  153.8289 H   0  0  0  0  0  0  0  0  0  0  0  0  # atno 10764 bound_to 10752
  153.0535  135.6586  154.0769 H   0  0  0  0  0  0  0  0  0  0  0  0  # atno 10765 bound_to 10752
  141.0767  133.6664  156.3605 H   0  0  0  0  0  0  0  0  0  0  0  0  # atno 11005 bound_to 11000
  146.3503  139.9921  142.8684 LP  0  0  0  0  0  0  0  0  0  0  0  0  # atno 17320 bound_to 7965
  145.1721  140.9726  143.4316 LP  0  0  0  0  0  0  0  0  0  0  0  0  # atno 17321 bound_to 7965
  139.5027  144.3819  152.0367 LP  0  0  0  0  0  0  0  0  0  0  0  0  # atno 17342 bound_to 10162
  140.2936  144.3726  150.6081 LP  0  0  0  0  0  0  0  0  0  0  0  0  # atno 17343 bound_to 10162
  157.7209  130.9558  150.1436 LP  0  0  0  0  0  0  0  0  0  0  0  0  # atno 17370 bound_to 10713
  156.2260  130.3678  149.8500 LP  0  0  0  0  0  0  0  0  0  0  0  0  # atno 17371 bound_to 10713
  140.5559  134.5982  157.5420 LP  0  0  0  0  0  0  0  0  0  0  0  0  # atno 17394 bound_to 11000
  139.9579  134.7503  156.0301 LP  0  0  0  0  0  0  0  0  0  0  0  0  # atno 17395 bound_to 11000

$$$$
