AV-unprocessed.smi:2321|AV-procd|sdf|9282|dock3
  -GOLD-   2272012503D 1   1.00000     0.00000
 Structure written by MMmdl.
 36 37  0  0  0  0  0  0  0  0  1 V2000
  149.8201  136.1799  158.2181 O   0  0  0  0  0  0  0  0  0  0  0  0
  148.9536  137.0252  158.4301 C   0  0  0  0  0  0  0  0  0  0  0  0
  148.6887  138.0739  157.6267 N   0  0  0  0  0  0  0  0  0  0  0  0
  149.3081  138.4446  156.4027 C   0  0  0  0  0  0  0  0  0  0  0  0
  149.7156  137.5254  155.4056 C   0  0  0  0  0  0  0  0  0  0  0  0
  150.3039  138.0265  154.2270 C   0  0  0  0  0  0  0  0  0  0  0  0
  150.4938  139.3421  153.9907 N   0  0  0  0  0  0  0  0  0  0  0  0
  150.0908  140.2160  154.9374 C   0  0  0  0  0  0  0  0  0  0  0  0
  149.4925  139.8207  156.1507 C   0  0  0  0  0  0  0  0  0  0  0  0
  149.1067  140.7502  157.0583 F   0  0  0  0  0  0  0  0  0  0  0  0
  148.1930  136.9751  159.5395 N   0  0  0  0  0  0  0  0  0  0  0  0
  148.2155  135.9823  160.6164 C   0  0  1  0  0  0  0  0  0  0  0  0
  147.4218  136.5180  161.8213 C   0  0  0  0  0  0  0  0  0  0  0  0
  147.3731  135.4879  162.9594 C   0  0  0  0  0  0  0  0  0  0  0  0
  146.7945  134.1494  162.4748 C   0  0  0  0  0  0  0  0  0  0  0  0
  147.5830  133.5912  161.2714 C   0  0  1  0  0  0  0  0  0  0  0  0
  147.0207  132.2381  160.7887 C   0  0  0  0  0  0  0  0  0  0  0  0
  145.7445  132.3580  160.4217 F   0  0  0  0  0  0  0  0  0  0  0  0
  147.7285  131.7941  159.7499 F   0  0  0  0  0  0  0  0  0  0  0  0
  147.1051  131.3344  161.7651 F   0  0  0  0  0  0  0  0  0  0  0  0
  147.6296  134.6369  160.1364 C   0  0  0  0  0  0  0  0  0  0  0  0
  148.0003  138.7267  157.9719 H   0  0  0  0  0  0  0  0  0  0  0  0
  149.5798  136.4604  155.5121 H   0  0  0  0  0  0  0  0  0  0  0  0
  150.6252  137.3504  153.4486 H   0  0  0  0  0  0  0  0  0  0  0  0
  150.2479  141.2623  154.7208 H   0  0  0  0  0  0  0  0  0  0  0  0
  147.5302  137.7279  159.6577 H   0  0  0  0  0  0  0  0  0  0  0  0
  149.2450  135.8269  160.9443 H   0  0  0  0  0  0  0  0  0  0  0  0
  147.8707  137.4434  162.1844 H   0  0  0  0  0  0  0  0  0  0  0  0
  146.4045  136.7670  161.5154 H   0  0  0  0  0  0  0  0  0  0  0  0
  148.3772  135.3313  163.3553 H   0  0  0  0  0  0  0  0  0  0  0  0
  146.7734  135.8748  163.7838 H   0  0  0  0  0  0  0  0  0  0  0  0
  146.8062  133.4328  163.2965 H   0  0  0  0  0  0  0  0  0  0  0  0
  145.7479  134.2859  162.2000 H   0  0  0  0  0  0  0  0  0  0  0  0
  148.6085  133.4165  161.6009 H   0  0  0  0  0  0  0  0  0  0  0  0
  146.6242  134.7955  159.7438 H   0  0  0  0  0  0  0  0  0  0  0  0
  148.2224  134.2488  159.3076 H   0  0  0  0  0  0  0  0  0  0  0  0
  1  2  2  0  0  0  0
  2  3  1  0  0  0  0
  2 11  1  0  0  0  0
  3  4  1  0  0  0  0
  3 22  1  0  0  0  0
  4  9  1  0  0  0  0
  4  5  2  0  0  0  0
  5  6  1  0  0  0  0
  5 23  1  0  0  0  0
  6  7  2  0  0  0  0
  6 24  1  0  0  0  0
  7  8  1  0  0  0  0
  8  9  2  0  0  0  0
  8 25  1  0  0  0  0
  9 10  1  0  0  0  0
 11 12  1  0  0  0  0
 11 26  1  0  0  0  0
 12 21  1  0  0  0  0
 12 13  1  0  0  0  0
 12 27  1  0  0  0  0
 13 14  1  0  0  0  0
 13 28  1  0  0  0  0
 13 29  1  0  0  0  0
 14 15  1  0  0  0  0
 14 30  1  0  0  0  0
 14 31  1  0  0  0  0
 15 16  1  0  0  0  0
 15 32  1  0  0  0  0
 15 33  1  0  0  0  0
 16 17  1  0  0  0  0
 16 21  1  0  0  0  0
 16 34  1  0  0  0  0
 17 18  1  0  0  0  0
 17 19  1  0  0  0  0
 17 20  1  0  0  0  0
 21 35  1  0  0  0  0
 21 36  1  0  0  0  0
M  END
> <s_m_source_file>
AV-unprocessed.smi

> <i_m_source_file_index>
2321

> <i_lp_mmshare_version>
43012

> <i_f3d_flags>
0

> <s_epik_input>
RkMoRikoRilbQ0BASF0oW0NIMl0xKVtDSDJdW0NIMl1bQ0gyXVtDQEhdMVtOSF1DKD1PKVtOSF1jMltjSF1bY0hdbltjSF1jMkY=

> <s_epik_cmdline>
J2VwaWtfcHl0aG9uJywgJy1waCcsICc3LjAnLCAnLXRuJywgJzgnLCAnLW1hJywgJzIwMCcsICctbWV0YWxfYmluZGluZycsICctaW1hZScsICc8aW5maWxlLm1hZT4nLCAnLW9tYWUnLCAnPG91dGZpbGUubWFlPic=

> <r_epik_Ionization_Penalty>
0.00319438

> <r_epik_Ionization_Penalty_Charging>
0

> <r_epik_Ionization_Penalty_Neutral>
0.00319438

> <r_epik_State_Penalty>
0.00222511

> <r_epik_Charging_Adjusted_Penalty>
0.00222511

> <i_epik_Tot_Q>
0

> <i_epik_Tot_abs_Q>
0

> <r_epik_Metal_State_Penalty>
-0

> <b_epik_Metal_Only>
0

> <s_lp_Force_Field>
OPLS_2005

> <r_lp_Energy>
26.7556

> <b_lp_Chiralities_Consistent>
1

> <s_lp_Variant>
AV-unprocessed.smi:2321-2

> <Gold.Version>
5.8.1

> <Gold.Id.Protein>
6NUR|6NUR_protein|mol2

> <Gold.PLP.Fitness>
39.5033

> <Gold.PLP.PLP>
-34.3763

> <Gold.PLP.part.hbond>
-2.0000

> <Gold.PLP.part.metal>
0.0000

> <Gold.PLP.part.buried>
-4.7980

> <Gold.PLP.part.nonpolar>
-28.8475

> <Gold.PLP.part.repulsive>
0.4343

> <Gold.PLP.ligand.clash>
0.0000

> <Gold.PLP.ligand.torsion>
0.4468

> <Gold.PLP.Chemscore.Hbond>
2.0000

> <Gold.PLP.Chemscore.CHOScore>
0.0000

> <Gold.PLP.Chemscore.Metal>
0.0000

> <Gold.Chemscore.Hbonds>
donor molecule, donor type, donor heavy atom, donor atom, acceptor molecule, acceptor atom, score
      P1  H  6896  6909       L1     1  0.54
      P1  H  7989  7998       L1     7  0.10
      L1  C     6    24       P1  7948  0.43
      L1  C     6    24       P1  7949  0.64

> <Gold.PLP.Chemscore.Internal.Correction>
0.0204

> <Gold.Rescore>
     Score         DG    S(hbond)    S(metal)    S(lipo)     H(rot)  DE(clash)    DE(int)     intcor
     17.35     -17.75       1.95        0.00      71.20       1.00       0.01       0.39       ----

> <Gold.Chemscore.Fitness>
17.3501

> <Gold.Chemscore.DG>
-17.7520

> <Gold.Chemscore.ZeroCoef>
-5.4800

> <Gold.Chemscore.Hbond>
1.9465

> <Gold.Chemscore.Metal>
0.0000

> <Gold.Chemscore.Lipo>
71.2027

> <Gold.Chemscore.Internal_Hbond>
0.0000

> <Gold.Chemscore.DEClash>
0.0149

> <Gold.Chemscore.DEInternal>
0.3870

> <Gold.Chemscore.Rot>
1.0000

> <Gold.Chemscore.Internal.Correction>
   9.000000E+99

> <Gold.Chemscore.Hbonds>
donor molecule, donor type, donor heavy atom, donor atom, acceptor molecule, acceptor atom, score
      P1  H  6896  6909       L1     1  0.52

> <Gold.Chemscore.Hbond.Weighted>
-6.5013

> <Gold.Chemscore.Metal.Weighted>
-0.0000

> <Gold.Chemscore.Lipo.Weighted>
-8.3307

> <Gold.Chemscore.Internal_Hbond.Weighted>
0.0000

> <Gold.Chemscore.DEClash.Weighted>
0.0149

> <Gold.Chemscore.DEInternal.Weighted>
0.3870

> <Gold.Chemscore.Rot.Weighted>
2.5600

> <Gold.Chemscore.Internal.Correction.Weighted>
   9.000000E+99

> <Gold.Protein.RotatedTorsions>
[ 6907 6896 6895 6894 ] final   68.48 input  -60.11 | X-H torsion
[ 7974 7965 7964 7962 ] final  116.16 input  175.53 | X-H torsion
[ 8008 7997 7996 7995 ] final  145.58 input   59.86 | X-H torsion
[ 10167 10162 10161 10158 ] final -116.49 input  -65.29 | X-H torsion
[ 10718 10713 10712 10709 ] final   33.38 input   66.30 | X-H torsion
[ 10763 10752 10751 10750 ] final -119.90 input  -60.55 | X-H torsion
[ 11005 11000 10999 10996 ] final   33.05 input  -57.11 | X-H torsion

> <Gold.Protein.ActiveResidues>
 VAL166  LYS551  ARG553  GLY616  TRP617  ASP618  TYR619  PRO620  LYS621  CYS622 
 ASP623  PHE694  ASN695  SER759  ASP760  ASP761  ALA762  ILE779  LEU786  VAL792 
 PHE793  MET794  SER795  GLU796  ALA797  LYS798  CYS799  TRP800  GLU811  SER814 

> <Gold.Protein.RotatedAtoms>
  152.4623  134.5156  159.9766 H   0  0  0  0  0  0  0  0  0  0  0  0  # atno 6907 bound_to 6896
  151.5202  133.3462  159.2908 H   0  0  0  0  0  0  0  0  0  0  0  0  # atno 6908 bound_to 6896
  150.8591  134.7968  159.7131 H   0  0  0  0  0  0  0  0  0  0  0  0  # atno 6909 bound_to 6896
  145.1830  139.3040  143.4408 H   0  0  0  0  0  0  0  0  0  0  0  0  # atno 7974 bound_to 7965
  156.2879  140.2205  156.5238 H   0  0  0  0  0  0  0  0  0  0  0  0  # atno 8008 bound_to 7997
  154.7506  140.0480  157.0912 H   0  0  0  0  0  0  0  0  0  0  0  0  # atno 8009 bound_to 7997
  155.0114  140.3113  155.4831 H   0  0  0  0  0  0  0  0  0  0  0  0  # atno 8010 bound_to 7997
  140.0786  143.4809  152.1938 H   0  0  0  0  0  0  0  0  0  0  0  0  # atno 10167 bound_to 10162
  157.2971  130.7332  149.6645 H   0  0  0  0  0  0  0  0  0  0  0  0  # atno 10718 bound_to 10713
  154.8630  135.4222  154.2373 H   0  0  0  0  0  0  0  0  0  0  0  0  # atno 10763 bound_to 10752
  153.3346  135.6990  153.6924 H   0  0  0  0  0  0  0  0  0  0  0  0  # atno 10764 bound_to 10752
  153.5928  135.3551  155.2890 H   0  0  0  0  0  0  0  0  0  0  0  0  # atno 10765 bound_to 10752
  140.2672  134.3124  155.7839 H   0  0  0  0  0  0  0  0  0  0  0  0  # atno 11005 bound_to 11000
  146.3450  140.2016  142.8589 LP  0  0  0  0  0  0  0  0  0  0  0  0  # atno 17320 bound_to 7965
  145.0117  140.8719  143.5220 LP  0  0  0  0  0  0  0  0  0  0  0  0  # atno 17321 bound_to 7965
  139.5793  144.7502  151.3683 LP  0  0  0  0  0  0  0  0  0  0  0  0  # atno 17342 bound_to 10162
  140.7089  143.7442  150.7531 LP  0  0  0  0  0  0  0  0  0  0  0  0  # atno 17343 bound_to 10162
  155.9669  130.4291  150.4818 LP  0  0  0  0  0  0  0  0  0  0  0  0  # atno 17370 bound_to 10713
  157.2792  131.0603  151.2209 LP  0  0  0  0  0  0  0  0  0  0  0  0  # atno 17371 bound_to 10713
  141.2182  133.7445  156.9278 LP  0  0  0  0  0  0  0  0  0  0  0  0  # atno 17394 bound_to 11000
  140.1408  134.9295  157.2464 LP  0  0  0  0  0  0  0  0  0  0  0  0  # atno 17395 bound_to 11000

$$$$
