AV-unprocessed.smi:158|AV-procd|sdf|1327|dock10
  -GOLD-   2262019 23D 1   1.00000     0.00000
 Structure written by MMmdl.
 31 33  0  0  0  0  0  0  0  0  1 V2000
  153.4752  141.1434  160.4035 N   0  0  0  0  0  0  0  0  0  0  0  0
  152.5734  141.1894  159.4125 C   0  0  0  0  0  0  0  0  0  0  0  0
  151.6319  142.1604  159.4441 N   0  0  0  0  0  0  0  0  0  0  0  0
  150.7166  142.2431  158.4717 C   0  0  0  0  0  0  0  0  0  0  0  0
  149.5607  143.5154  158.6078 Cl  0  0  0  0  0  0  0  0  0  0  0  0
  150.5956  141.4487  157.4043 N   0  0  0  0  0  0  0  0  0  0  0  0
  151.5369  140.4610  157.3676 C   0  0  0  0  0  0  0  0  0  0  0  0
  152.5612  140.2701  158.3349 C   0  0  0  0  0  0  0  0  0  0  0  0
  153.3488  139.1831  157.9855 N   0  0  0  0  0  0  0  0  0  0  0  0
  152.8147  138.7567  156.8733 C   0  0  0  0  0  0  0  0  0  0  0  0
  151.7142  139.4587  156.4296 N   0  0  0  0  0  0  0  0  0  0  0  0
  150.9180  139.1768  155.1854 C   0  0  2  0  0  0  0  0  0  0  0  0
  150.3132  140.3592  154.7465 O   0  0  0  0  0  0  0  0  0  0  0  0
  148.8909  140.2191  154.7262 C   0  0  2  0  0  0  0  0  0  0  0  0
  148.1794  141.5578  154.9946 C   0  0  0  0  0  0  0  0  0  0  0  0
  148.6102  142.5334  154.0691 O   0  0  0  0  0  0  0  0  0  0  0  0
  148.5757  139.0557  155.6787 C   0  0  2  0  0  0  0  0  0  0  0  0
  148.4715  139.4830  157.0247 O   0  0  0  0  0  0  0  0  0  0  0  0
  149.7875  138.1706  155.4530 C   0  0  2  0  0  0  0  0  0  0  0  0
  150.0523  137.3291  156.4554 F   0  0  0  0  0  0  0  0  0  0  0  0
  151.6598  138.8185  154.4708 H   0  0  0  0  0  0  0  0  0  0  0  0
  148.6461  139.8967  153.7124 H   0  0  0  0  0  0  0  0  0  0  0  0
  147.6482  138.5505  155.4074 H   0  0  0  0  0  0  0  0  0  0  0  0
  149.6482  137.5724  154.5517 H   0  0  0  0  0  0  0  0  0  0  0  0
  154.1879  140.4277  160.4010 H   0  0  0  0  0  0  0  0  0  0  0  0
  153.4394  141.8217  161.1505 H   0  0  0  0  0  0  0  0  0  0  0  0
  153.2083  137.9028  156.3412 H   0  0  0  0  0  0  0  0  0  0  0  0
  147.0951  141.4617  154.9475 H   0  0  0  0  0  0  0  0  0  0  0  0
  148.4216  141.9101  155.9975 H   0  0  0  0  0  0  0  0  0  0  0  0
  148.8267  143.3216  154.5437 H   0  0  0  0  0  0  0  0  0  0  0  0
  149.2879  139.2960  157.4623 H   0  0  0  0  0  0  0  0  0  0  0  0
  1  2  1  0  0  0  0
  1 25  1  0  0  0  0
  1 26  1  0  0  0  0
  2  8  1  0  0  0  0
  2  3  2  0  0  0  0
  3  4  1  0  0  0  0
  4  5  1  0  0  0  0
  4  6  2  0  0  0  0
  6  7  1  0  0  0  0
  7 11  1  0  0  0  0
  7  8  2  0  0  0  0
  8  9  1  0  0  0  0
  9 10  2  0  0  0  0
 10 11  1  0  0  0  0
 10 27  1  0  0  0  0
 11 12  1  0  0  0  0
 12 21  1  0  0  0  0
 12 19  1  0  0  0  0
 12 13  1  0  0  0  0
 13 14  1  0  0  0  0
 14 22  1  0  0  0  0
 14 15  1  0  0  0  0
 14 17  1  0  0  0  0
 15 16  1  0  0  0  0
 15 28  1  0  0  0  0
 15 29  1  0  0  0  0
 16 30  1  0  0  0  0
 17 23  1  0  0  0  0
 17 18  1  0  0  0  0
 17 19  1  0  0  0  0
 18 31  1  0  0  0  0
 19 24  1  0  0  0  0
 19 20  1  0  0  0  0
M  END
> <s_m_source_file>
AV-unprocessed.smi

> <i_m_source_file_index>
158

> <i_lp_mmshare_version>
43012

> <i_f3d_flags>
0

> <s_epik_input>
Q2xjKG4xKW5jKFtOSDJdKWMoYzEyKW5bY0hdbjJbQ0BASF0zT1tDQEhdKFtDSDJdW09IXSlbQ0BASF0oW09IXSlbQ0BASF0zRg==

> <s_epik_cmdline>
J2VwaWtfcHl0aG9uJywgJy1waCcsICc3LjAnLCAnLXRuJywgJzgnLCAnLW1hJywgJzIwMCcsICctbWV0YWxfYmluZGluZycsICctaW1hZScsICc8aW5maWxlLm1hZT4nLCAnLW9tYWUnLCAnPG91dGZpbGUubWFlPic=

> <r_lp_tautomer_probability>
1

> <r_epik_Ionization_Penalty>
6.51543e-05

> <r_epik_Ionization_Penalty_Charging>
0

> <r_epik_Ionization_Penalty_Neutral>
6.51543e-05

> <r_epik_State_Penalty>
-0

> <r_epik_Charging_Adjusted_Penalty>
0

> <i_epik_Tot_Q>
0

> <i_epik_Tot_abs_Q>
0

> <r_epik_Metal_State_Penalty>
-0

> <b_epik_Metal_Only>
0

> <s_epik_Chemistry_Notes>
This compound contains an acetal/aminal-like group ( X-CH(R)-Y where X, Y are N, S, or O) that may be acid/base labile, releasing an aldehyde.

> <s_lp_Force_Field>
OPLS_2005

> <r_lp_Energy>
41.2985

> <b_lp_Chiralities_Consistent>
1

> <s_lp_Variant>
AV-unprocessed.smi:158-5

> <Gold.Version>
5.8.1

> <Gold.Id.Protein>
6NUR|6NUR_protein|mol2

> <Gold.PLP.Fitness>
33.4682

> <Gold.PLP.PLP>
-25.2705

> <Gold.PLP.part.hbond>
-4.4170

> <Gold.PLP.part.metal>
0.0000

> <Gold.PLP.part.buried>
-3.5805

> <Gold.PLP.part.nonpolar>
-17.1849

> <Gold.PLP.part.repulsive>
0.1973

> <Gold.PLP.ligand.clash>
0.0000

> <Gold.PLP.ligand.torsion>
0.7358

> <Gold.PLP.Chemscore.Hbond>
2.9582

> <Gold.PLP.Chemscore.CHOScore>
0.0000

> <Gold.PLP.Chemscore.Metal>
0.0000

> <Gold.Chemscore.Hbonds>
donor molecule, donor type, donor heavy atom, donor atom, acceptor molecule, acceptor atom, score
      L1  H    16    30       P1  8028  1.00
      P1  H  7989  7998       L1    13  0.90
      P1  H  7997  8009       L1     9  0.85
      P1  H  8011  8017       L1    16  0.11

> <Gold.PLP.Chemscore.Internal.Correction>
0.7947

> <Gold.Rescore>
     Score         DG    S(hbond)    S(metal)    S(lipo)     H(rot)  DE(clash)    DE(int)     intcor
      4.94      -7.01       1.86        0.00      28.28       3.12       0.06       2.01       ----

> <Gold.Chemscore.Fitness>
4.9387

> <Gold.Chemscore.DG>
-7.0056

> <Gold.Chemscore.ZeroCoef>
-5.4800

> <Gold.Chemscore.Hbond>
1.8598

> <Gold.Chemscore.Metal>
0.0000

> <Gold.Chemscore.Lipo>
28.2796

> <Gold.Chemscore.Internal_Hbond>
0.0000

> <Gold.Chemscore.DEClash>
0.0578

> <Gold.Chemscore.DEInternal>
2.0092

> <Gold.Chemscore.Rot>
3.1230

> <Gold.Chemscore.Internal.Correction>
   9.000000E+99

> <Gold.Chemscore.Hbonds>
donor molecule, donor type, donor heavy atom, donor atom, acceptor molecule, acceptor atom, score
      L1  H    16    30       P1  8028  1.00
      P1  H  7989  7998       L1    13  0.17
      P1  H  7997  8009       L1     9  0.05
      P1  H  8011  8017       L1    16  0.07

> <Gold.Chemscore.Hbond.Weighted>
-6.2119

> <Gold.Chemscore.Metal.Weighted>
-0.0000

> <Gold.Chemscore.Lipo.Weighted>
-3.3087

> <Gold.Chemscore.Internal_Hbond.Weighted>
0.0000

> <Gold.Chemscore.DEClash.Weighted>
0.0578

> <Gold.Chemscore.DEInternal.Weighted>
2.0092

> <Gold.Chemscore.Rot.Weighted>
7.9950

> <Gold.Chemscore.Internal.Correction.Weighted>
   9.000000E+99

> <Gold.Protein.RotatedTorsions>
[ 6907 6896 6895 6894 ] final   56.74 input  -60.11 | X-H torsion
[ 7974 7965 7964 7962 ] final -166.64 input  175.53 | X-H torsion
[ 8008 7997 7996 7995 ] final  135.84 input   59.86 | X-H torsion
[ 10167 10162 10161 10158 ] final   77.60 input  -65.29 | X-H torsion
[ 10718 10713 10712 10709 ] final   52.69 input   66.30 | X-H torsion
[ 10763 10752 10751 10750 ] final -138.59 input  -60.55 | X-H torsion
[ 11005 11000 10999 10996 ] final  112.07 input  -57.11 | X-H torsion

> <Gold.Protein.ActiveResidues>
 VAL166  LYS551  ARG553  GLY616  TRP617  ASP618  TYR619  PRO620  LYS621  CYS622 
 ASP623  PHE694  ASN695  SER759  ASP760  ASP761  ALA762  ILE779  LEU786  VAL792 
 PHE793  MET794  SER795  GLU796  ALA797  LYS798  CYS799  TRP800  GLU811  SER814 

> <Gold.Protein.RotatedAtoms>
  152.3665  134.6796  160.0189 H   0  0  0  0  0  0  0  0  0  0  0  0  # atno 6907 bound_to 6896
  151.7103  133.3307  159.3297 H   0  0  0  0  0  0  0  0  0  0  0  0  # atno 6908 bound_to 6896
  150.7642  134.6473  159.6314 H   0  0  0  0  0  0  0  0  0  0  0  0  # atno 6909 bound_to 6896
  144.7241  140.2637  143.6261 H   0  0  0  0  0  0  0  0  0  0  0  0  # atno 7974 bound_to 7965
  156.3003  140.2460  156.3648 H   0  0  0  0  0  0  0  0  0  0  0  0  # atno 8008 bound_to 7997
  154.8844  140.0411  157.1821 H   0  0  0  0  0  0  0  0  0  0  0  0  # atno 8009 bound_to 7997
  154.8663  140.2928  155.5512 H   0  0  0  0  0  0  0  0  0  0  0  0  # atno 8010 bound_to 7997
  139.9798  144.5834  150.7910 H   0  0  0  0  0  0  0  0  0  0  0  0  # atno 10167 bound_to 10162
  157.5098  130.8493  149.8420 H   0  0  0  0  0  0  0  0  0  0  0  0  # atno 10718 bound_to 10713
  154.8633  135.3607  154.5409 H   0  0  0  0  0  0  0  0  0  0  0  0  # atno 10763 bound_to 10752
  153.6031  135.7012  153.5381 H   0  0  0  0  0  0  0  0  0  0  0  0  # atno 10764 bound_to 10752
  153.3274  135.4134  155.1428 H   0  0  0  0  0  0  0  0  0  0  0  0  # atno 10765 bound_to 10752
  139.8918  134.9522  156.6529 H   0  0  0  0  0  0  0  0  0  0  0  0  # atno 11005 bound_to 11000
  145.8111  139.2003  143.1992 LP  0  0  0  0  0  0  0  0  0  0  0  0  # atno 17320 bound_to 7965
  146.0595  140.7985  142.9742 LP  0  0  0  0  0  0  0  0  0  0  0  0  # atno 17321 bound_to 7965
  140.7493  143.2936  151.3264 LP  0  0  0  0  0  0  0  0  0  0  0  0  # atno 17342 bound_to 10162
  139.6418  144.0525  152.2560 LP  0  0  0  0  0  0  0  0  0  0  0  0  # atno 17343 bound_to 10162
  156.0281  130.3773  150.1764 LP  0  0  0  0  0  0  0  0  0  0  0  0  # atno 17370 bound_to 10713
  156.9953  130.9906  151.3404 LP  0  0  0  0  0  0  0  0  0  0  0  0  # atno 17371 bound_to 10713
  140.7507  133.8900  155.8344 LP  0  0  0  0  0  0  0  0  0  0  0  0  # atno 17394 bound_to 11000
  141.0003  134.1159  157.4323 LP  0  0  0  0  0  0  0  0  0  0  0  0  # atno 17395 bound_to 11000

$$$$
