AV-unprocessed.smi:55|AV-procd|sdf|562|dock8
  -GOLD-   2262016463D 1   1.00000     0.00000
 Structure written by MMmdl.
 31 32  0  0  0  0  0  0  0  0  1 V2000
  151.4652  137.4041  155.0391 C   0  0  0  0  0  0  0  0  0  0  0  0
  150.7112  138.7040  154.8131 C   0  0  0  0  0  0  0  0  0  0  0  0
  149.5176  138.7499  154.1681 C   0  0  0  0  0  0  0  0  0  0  0  0
  148.8049  139.9200  153.9462 N   0  0  0  0  0  0  0  0  0  0  0  0
  147.4806  139.9020  153.2170 C   0  0  1  0  0  0  0  0  0  0  0  0
  147.6403  139.3177  151.8127 C   0  0  0  0  0  0  0  0  0  0  0  0
  146.3646  138.5132  151.6788 C   0  0  1  0  0  0  0  0  0  0  0  0
  146.5209  137.4694  150.7395 O   0  0  0  0  0  0  0  0  0  0  0  0
  146.1640  137.9931  153.1044 C   0  0  2  0  0  0  0  0  0  0  0  0
  144.7051  137.6364  153.4267 C   0  0  0  0  0  0  0  0  0  0  0  0
  144.1207  136.9582  152.3354 O   0  0  0  0  0  0  0  0  0  0  0  0
  146.5850  139.0885  153.9174 O   0  0  0  0  0  0  0  0  0  0  0  0
  149.3374  141.1479  154.3921 C   0  0  0  0  0  0  0  0  0  0  0  0
  148.7781  142.2287  154.2112 O   0  0  0  0  0  0  0  0  0  0  0  0
  150.5615  141.1012  155.0573 N   0  0  0  0  0  0  0  0  0  0  0  0
  151.3068  139.9472  155.3105 C   0  0  0  0  0  0  0  0  0  0  0  0
  152.3776  140.0351  155.9090 O   0  0  0  0  0  0  0  0  0  0  0  0
  147.0737  140.9142  153.2220 H   0  0  0  0  0  0  0  0  0  0  0  0
  145.5403  139.1651  151.3852 H   0  0  0  0  0  0  0  0  0  0  0  0
  146.8240  137.1405  153.2763 H   0  0  0  0  0  0  0  0  0  0  0  0
  150.9445  141.9774  155.3811 H   0  0  0  0  0  0  0  0  0  0  0  0
  150.9202  136.5461  154.6445 H   0  0  0  0  0  0  0  0  0  0  0  0
  151.6250  137.2360  156.1047 H   0  0  0  0  0  0  0  0  0  0  0  0
  152.4381  137.4376  154.5473 H   0  0  0  0  0  0  0  0  0  0  0  0
  149.1044  137.8211  153.8052 H   0  0  0  0  0  0  0  0  0  0  0  0
  147.7516  140.1036  151.0650 H   0  0  0  0  0  0  0  0  0  0  0  0
  148.5163  138.6671  151.7805 H   0  0  0  0  0  0  0  0  0  0  0  0
  145.7041  137.3545  150.2781 H   0  0  0  0  0  0  0  0  0  0  0  0
  144.6344  137.0338  154.3328 H   0  0  0  0  0  0  0  0  0  0  0  0
  144.1249  138.5444  153.5948 H   0  0  0  0  0  0  0  0  0  0  0  0
  144.1548  137.5224  151.5780 H   0  0  0  0  0  0  0  0  0  0  0  0
  1  2  1  0  0  0  0
  1 22  1  0  0  0  0
  1 23  1  0  0  0  0
  1 24  1  0  0  0  0
  2 16  1  0  0  0  0
  2  3  2  0  0  0  0
  3  4  1  0  0  0  0
  3 25  1  0  0  0  0
  4  5  1  0  0  0  0
  4 13  1  0  0  0  0
  5 18  1  0  0  0  0
  5 12  1  0  0  0  0
  5  6  1  0  0  0  0
  6  7  1  0  0  0  0
  6 26  1  0  0  0  0
  6 27  1  0  0  0  0
  7 19  1  0  0  0  0
  7  8  1  0  0  0  0
  7  9  1  0  0  0  0
  8 28  1  0  0  0  0
  9 20  1  0  0  0  0
  9 10  1  0  0  0  0
  9 12  1  0  0  0  0
 10 11  1  0  0  0  0
 10 29  1  0  0  0  0
 10 30  1  0  0  0  0
 11 31  1  0  0  0  0
 13 14  2  0  0  0  0
 13 15  1  0  0  0  0
 15 21  1  0  0  0  0
 15 16  1  0  0  0  0
 16 17  2  0  0  0  0
M  END
> <s_m_source_file>
AV-unprocessed.smi

> <i_m_source_file_index>
55

> <i_lp_mmshare_version>
43012

> <i_f3d_flags>
0

> <s_epik_input>
Tz1jMVtuSF1jKD1PKW4oW2NIXWMxW0NIM10pW0NAQEhdMltDSDJdW0NAQEhdKFtPSF0pW0NAQEhdKE8yKVtDSDJdW09IXQ==

> <s_epik_cmdline>
J2VwaWtfcHl0aG9uJywgJy1waCcsICc3LjAnLCAnLXRuJywgJzgnLCAnLW1hJywgJzIwMCcsICctbWV0YWxfYmluZGluZycsICctaW1hZScsICc8aW5maWxlLm1hZT4nLCAnLW9tYWUnLCAnPG91dGZpbGUubWFlPic=

> <r_lp_tautomer_probability>
0.999537

> <r_epik_Ionization_Penalty>
0.00121888

> <r_epik_Ionization_Penalty_Charging>
0.00121876

> <r_epik_Ionization_Penalty_Neutral>
1.19946e-07

> <r_epik_State_Penalty>
0.000805124

> <r_epik_Charging_Adjusted_Penalty>
0.00202389

> <i_epik_Tot_Q>
0

> <i_epik_Tot_abs_Q>
0

> <r_epik_Metal_State_Penalty>
0.662472

> <b_epik_Metal_Only>
0

> <s_epik_Chemistry_Notes>
This compound contains an acetal/aminal-like group ( X-CH(R)-Y where X, Y are N, S, or O) that may be acid/base labile, releasing an aldehyde.

> <s_lp_Force_Field>
OPLS_2005

> <r_lp_Energy>
25.0544

> <b_lp_Chiralities_Consistent>
1

> <s_lp_Variant>
AV-unprocessed.smi:55-2

> <Gold.Version>
5.8.1

> <Gold.Id.Protein>
6NUR|6NUR_protein|mol2

> <Gold.PLP.Fitness>
40.0646

> <Gold.PLP.PLP>
-25.6409

> <Gold.PLP.part.hbond>
-4.3856

> <Gold.PLP.part.metal>
0.0000

> <Gold.PLP.part.buried>
5.1608

> <Gold.PLP.part.nonpolar>
-28.1837

> <Gold.PLP.part.repulsive>
2.3766

> <Gold.PLP.ligand.clash>
0.0000

> <Gold.PLP.ligand.torsion>
0.1969

> <Gold.PLP.Chemscore.Hbond>
3.9360

> <Gold.PLP.Chemscore.CHOScore>
1.0000

> <Gold.PLP.Chemscore.Metal>
0.0000

> <Gold.Chemscore.Hbonds>
donor molecule, donor type, donor heavy atom, donor atom, acceptor molecule, acceptor atom, score
      L1  H     8    28       P1 10171  0.34
      L1  H    11    31       P1 10171  0.88
      P1  H  7954  7966       L1     8  1.00
      P1  H  7997  8009       L1    17  1.00
      P1  H  8011  8017       L1    14  0.10
      L1  C     3    25       P1  7948  1.00

> <Gold.PLP.Chemscore.Internal.Correction>
0.0096

> <Gold.Rescore>
     Score         DG    S(hbond)    S(metal)    S(lipo)     H(rot)  DE(clash)    DE(int)     intcor
     13.94     -17.46       3.88        0.00      51.34       2.73       3.43       0.10       ----

> <Gold.Chemscore.Fitness>
13.9423

> <Gold.Chemscore.DG>
-17.4644

> <Gold.Chemscore.ZeroCoef>
-5.4800

> <Gold.Chemscore.Hbond>
3.8784

> <Gold.Chemscore.Metal>
0.0000

> <Gold.Chemscore.Lipo>
51.3440

> <Gold.Chemscore.Internal_Hbond>
0.0000

> <Gold.Chemscore.DEClash>
3.4260

> <Gold.Chemscore.DEInternal>
0.0961

> <Gold.Chemscore.Rot>
2.7253

> <Gold.Chemscore.Internal.Correction>
   9.000000E+99

> <Gold.Chemscore.Hbonds>
donor molecule, donor type, donor heavy atom, donor atom, acceptor molecule, acceptor atom, score
      L1  H     8    28       P1 10171  0.35
      L1  H    11    31       P1 10171  0.86
      P1  H  7954  7966       L1     8  0.43
      P1  H  7997  8009       L1    17  0.97

> <Gold.Chemscore.Hbond.Weighted>
-12.9540

> <Gold.Chemscore.Metal.Weighted>
-0.0000

> <Gold.Chemscore.Lipo.Weighted>
-6.0072

> <Gold.Chemscore.Internal_Hbond.Weighted>
0.0000

> <Gold.Chemscore.DEClash.Weighted>
3.4260

> <Gold.Chemscore.DEInternal.Weighted>
0.0961

> <Gold.Chemscore.Rot.Weighted>
6.9769

> <Gold.Chemscore.Internal.Correction.Weighted>
   9.000000E+99

> <Gold.Protein.RotatedTorsions>
[ 6907 6896 6895 6894 ] final  145.18 input  -60.11 | X-H torsion
[ 7974 7965 7964 7962 ] final   35.10 input  175.53 | X-H torsion
[ 8008 7997 7996 7995 ] final -158.31 input   59.86 | X-H torsion
[ 10167 10162 10161 10158 ] final  127.94 input  -65.29 | X-H torsion
[ 10718 10713 10712 10709 ] final  -86.10 input   66.30 | X-H torsion
[ 10763 10752 10751 10750 ] final   22.65 input  -60.55 | X-H torsion
[ 11005 11000 10999 10996 ] final -151.67 input  -57.11 | X-H torsion

> <Gold.Protein.ActiveResidues>
 VAL166  LYS551  ARG553  GLY616  TRP617  ASP618  TYR619  PRO620  LYS621  CYS622 
 ASP623  PHE694  ASN695  SER759  ASP760  ASP761  ALA762  ILE779  LEU786  VAL792 
 PHE793  MET794  SER795  GLU796  ALA797  LYS798  CYS799  TRP800  GLU811  SER814 

> <Gold.Protein.RotatedAtoms>
  152.1842  133.4728  159.4973 H   0  0  0  0  0  0  0  0  0  0  0  0  # atno 6907 bound_to 6896
  150.6939  134.1794  159.4252 H   0  0  0  0  0  0  0  0  0  0  0  0  # atno 6908 bound_to 6896
  151.9707  135.0078  160.0603 H   0  0  0  0  0  0  0  0  0  0  0  0  # atno 6909 bound_to 6896
  146.1307  139.6185  142.9229 H   0  0  0  0  0  0  0  0  0  0  0  0  # atno 7974 bound_to 7965
  155.7456  140.0820  157.2225 H   0  0  0  0  0  0  0  0  0  0  0  0  # atno 8008 bound_to 7997
  154.4017  140.1570  156.2721 H   0  0  0  0  0  0  0  0  0  0  0  0  # atno 8009 bound_to 7997
  155.8979  140.3411  155.6007 H   0  0  0  0  0  0  0  0  0  0  0  0  # atno 8010 bound_to 7997
  139.5552  144.6843  151.4204 H   0  0  0  0  0  0  0  0  0  0  0  0  # atno 10167 bound_to 10162
  155.9992  130.4753  150.4663 H   0  0  0  0  0  0  0  0  0  0  0  0  # atno 10718 bound_to 10713
  153.0899  135.6643  153.9875 H   0  0  0  0  0  0  0  0  0  0  0  0  # atno 10763 bound_to 10752
  153.9475  135.2987  155.3441 H   0  0  0  0  0  0  0  0  0  0  0  0  # atno 10764 bound_to 10752
  154.7312  135.5122  153.9040 H   0  0  0  0  0  0  0  0  0  0  0  0  # atno 10765 bound_to 10752
  140.7271  134.3662  157.5173 H   0  0  0  0  0  0  0  0  0  0  0  0  # atno 11005 bound_to 11000
  145.5267  141.0429  143.2405 LP  0  0  0  0  0  0  0  0  0  0  0  0  # atno 17320 bound_to 7965
  144.7687  139.6784  143.7204 LP  0  0  0  0  0  0  0  0  0  0  0  0  # atno 17321 bound_to 7965
  140.6823  143.8053  150.7139 LP  0  0  0  0  0  0  0  0  0  0  0  0  # atno 17342 bound_to 10162
  140.1510  143.4358  152.2131 LP  0  0  0  0  0  0  0  0  0  0  0  0  # atno 17343 bound_to 10162
  157.2682  131.0581  151.2276 LP  0  0  0  0  0  0  0  0  0  0  0  0  # atno 17370 bound_to 10713
  157.3366  130.7012  149.6356 LP  0  0  0  0  0  0  0  0  0  0  0  0  # atno 17371 bound_to 10713
  139.8834  134.8994  156.2765 LP  0  0  0  0  0  0  0  0  0  0  0  0  # atno 17394 bound_to 11000
  140.9953  133.7184  156.0876 LP  0  0  0  0  0  0  0  0  0  0  0  0  # atno 17395 bound_to 11000

$$$$
