AV-unprocessed.smi:1196|AV-procd|sdf|5003|dock7
  -GOLD-   22720 4 13D 1   1.00000     0.00000
 Structure written by MMmdl.
 36 37  0  0  0  0  0  0  0  0  2 V2000
  151.8815  139.4705  157.3647 C   0  0  0  0  0  0  0  0  0  0  0  0
  150.8906  139.8194  158.4867 C   0  0  1  0  0  0  0  0  0  0  0  0
  150.1921  141.1673  158.2233 C   0  0  0  0  0  0  0  0  0  0  0  0
  151.0548  142.3009  158.5072 N   0  0  0  0  0  0  0  0  0  0  0  0
  151.3811  143.3549  157.6803 C   0  0  0  0  0  0  0  0  0  0  0  0
  152.2250  144.1716  158.3771 C   0  0  0  0  0  0  0  0  0  0  0  0
  152.3597  143.5230  159.6366 C   0  0  0  0  0  0  0  0  0  0  0  0
  151.6559  142.4052  159.7127 N   0  0  0  0  0  0  0  0  0  0  0  0
  149.8969  138.7568  158.6237 N   0  0  0  0  0  0  0  0  0  0  0  0
  150.1497  137.4955  159.0042 C   0  0  0  0  0  0  0  0  0  0  0  0
  151.2809  137.0830  159.2632 O   0  0  0  0  0  0  0  0  0  0  0  0
  148.9317  136.5716  159.0992 C   0  0  0  0  0  0  0  0  0  0  0  0
  147.6094  137.2516  158.6938 C   0  0  0  0  0  0  0  0  0  0  0  0
  146.3673  136.5333  159.2618 C   0  0  1  0  0  0  0  0  0  0  0  0
  146.4190  135.1021  159.0167 N   0  5  0  0  0  0  0  0  0  0  0  0
  146.3649  134.4606  160.2076 C   0  0  0  0  0  0  0  0  0  0  0  0
  146.3726  133.2484  160.4098 O   0  0  0  0  0  0  0  0  0  0  0  0
  146.3003  135.3373  161.2152 N   0  0  0  0  0  0  0  0  0  0  0  0
  146.3095  136.5917  160.7763 C   0  0  0  0  0  0  0  0  0  0  0  0
  146.2749  137.6203  161.4505 O   0  0  0  0  0  0  0  0  0  0  0  0
  152.6381  140.2477  157.2549 H   0  0  0  0  0  0  0  0  0  0  0  0
  151.3738  139.3632  156.4056 H   0  0  0  0  0  0  0  0  0  0  0  0
  152.4018  138.5350  157.5732 H   0  0  0  0  0  0  0  0  0  0  0  0
  151.4524  139.9087  159.4186 H   0  0  0  0  0  0  0  0  0  0  0  0
  149.8921  141.2338  157.1768 H   0  0  0  0  0  0  0  0  0  0  0  0
  149.2781  141.2523  158.8138 H   0  0  0  0  0  0  0  0  0  0  0  0
  150.9913  143.4332  156.6761 H   0  0  0  0  0  0  0  0  0  0  0  0
  152.6786  145.0909  158.0380 H   0  0  0  0  0  0  0  0  0  0  0  0
  152.9429  143.8302  160.4922 H   0  0  0  0  0  0  0  0  0  0  0  0
  148.9363  139.0068  158.4370 H   0  0  0  0  0  0  0  0  0  0  0  0
  149.1015  135.7028  158.4616 H   0  0  0  0  0  0  0  0  0  0  0  0
  148.8632  136.2004  160.1222 H   0  0  0  0  0  0  0  0  0  0  0  0
  147.6137  138.2959  159.0126 H   0  0  0  0  0  0  0  0  0  0  0  0
  147.5438  137.2683  157.6044 H   0  0  0  0  0  0  0  0  0  0  0  0
  145.4586  136.9904  158.8678 H   0  0  0  0  0  0  0  0  0  0  0  0
  146.2591  135.0769  162.1891 H   0  0  0  0  0  0  0  0  0  0  0  0
  1  2  1  0  0  0  0
  1 21  1  0  0  0  0
  1 22  1  0  0  0  0
  1 23  1  0  0  0  0
  2  3  1  0  0  0  0
  2  9  1  0  0  0  0
  2 24  1  0  0  0  0
  3  4  1  0  0  0  0
  3 25  1  0  0  0  0
  3 26  1  0  0  0  0
  4  8  1  0  0  0  0
  4  5  1  0  0  0  0
  5  6  2  0  0  0  0
  5 27  1  0  0  0  0
  6  7  1  0  0  0  0
  6 28  1  0  0  0  0
  7  8  2  0  0  0  0
  7 29  1  0  0  0  0
  9 10  1  0  0  0  0
  9 30  1  0  0  0  0
 10 11  2  0  0  0  0
 10 12  1  0  0  0  0
 12 13  1  0  0  0  0
 12 31  1  0  0  0  0
 12 32  1  0  0  0  0
 13 14  1  0  0  0  0
 13 33  1  0  0  0  0
 13 34  1  0  0  0  0
 14 19  1  0  0  0  0
 14 15  1  0  0  0  0
 14 35  1  0  0  0  0
 15 16  1  0  0  0  0
 16 17  2  0  0  0  0
 16 18  1  0  0  0  0
 18 19  1  0  0  0  0
 18 36  1  0  0  0  0
 19 20  2  0  0  0  0
M  CHG  1  15  -1
M  END
> <s_m_source_file>
AV-unprocessed.smi

> <i_m_source_file_index>
1196

> <i_lp_mmshare_version>
43012

> <i_f3d_flags>
0

> <s_epik_input>
bjFbY0hdW2NIXVtjSF1uMVtDSDJdW0NAQEhdKFtDSDNdKVtOSF1DKD1PKVtDSDJdW0NIMl1bQ0BASF0yW05IXUMoPU8pW05IXUMyPU8=

> <s_epik_cmdline>
J2VwaWtfcHl0aG9uJywgJy1waCcsICc3LjAnLCAnLXRuJywgJzgnLCAnLW1hJywgJzIwMCcsICctbWV0YWxfYmluZGluZycsICctaW1hZScsICc8aW5maWxlLm1hZT4nLCAnLW9tYWUnLCAnPG91dGZpbGUubWFlPic=

> <r_lp_tautomer_probability>
1

> <r_epik_Ionization_Penalty>
5.79547

> <r_epik_Ionization_Penalty_Charging>
5.79516

> <r_epik_Ionization_Penalty_Neutral>
0.000313087

> <r_epik_State_Penalty>
5.80096

> <r_epik_Charging_Adjusted_Penalty>
11.5961

> <i_epik_Tot_Q>
-1

> <i_epik_Tot_abs_Q>
1

> <r_epik_Metal_State_Penalty>
2.14443

> <b_epik_Metal_Only>
1

> <s_lp_Force_Field>
OPLS_2005

> <r_lp_Energy>
12.8227

> <b_lp_Chiralities_Consistent>
1

> <s_lp_Variant>
AV-unprocessed.smi:1196-8

> <Gold.Version>
5.8.1

> <Gold.Id.Protein>
6NUR|6NUR_protein|mol2

> <Gold.PLP.Fitness>
40.7373

> <Gold.PLP.PLP>
-32.2203

> <Gold.PLP.part.hbond>
-3.0000

> <Gold.PLP.part.metal>
0.0000

> <Gold.PLP.part.buried>
-4.4779

> <Gold.PLP.part.nonpolar>
-25.5000

> <Gold.PLP.part.repulsive>
0.3036

> <Gold.PLP.ligand.clash>
0.3928

> <Gold.PLP.ligand.torsion>
0.3719

> <Gold.PLP.Chemscore.Hbond>
2.2065

> <Gold.PLP.Chemscore.CHOScore>
1.0000

> <Gold.PLP.Chemscore.Metal>
0.0000

> <Gold.Chemscore.Hbonds>
donor molecule, donor type, donor heavy atom, donor atom, acceptor molecule, acceptor atom, score
      P1  H  6896  6908       L1    11  0.91
      P1  H  6934  6947       L1    20  1.00
      L1  C     5    27       P1  8028  0.69

> <Gold.PLP.Chemscore.Internal.Correction>
0.0340

> <Gold.Rescore>
     Score         DG    S(hbond)    S(metal)    S(lipo)     H(rot)  DE(clash)    DE(int)     intcor
     12.48     -13.10       2.38        0.00      60.52       2.89       0.09       0.54       ----

> <Gold.Chemscore.Fitness>
12.4751

> <Gold.Chemscore.DG>
-13.1047

> <Gold.Chemscore.ZeroCoef>
-5.4800

> <Gold.Chemscore.Hbond>
2.3813

> <Gold.Chemscore.Metal>
0.0000

> <Gold.Chemscore.Lipo>
60.5241

> <Gold.Chemscore.Internal_Hbond>
0.0000

> <Gold.Chemscore.DEClash>
0.0939

> <Gold.Chemscore.DEInternal>
0.5357

> <Gold.Chemscore.Rot>
2.8946

> <Gold.Chemscore.Internal.Correction>
   9.000000E+99

> <Gold.Chemscore.Hbonds>
donor molecule, donor type, donor heavy atom, donor atom, acceptor molecule, acceptor atom, score
      P1  H  6896  6908       L1    11  0.84
      P1  H  6934  6947       L1    20  0.95

> <Gold.Chemscore.Hbond.Weighted>
-7.9535

> <Gold.Chemscore.Metal.Weighted>
-0.0000

> <Gold.Chemscore.Lipo.Weighted>
-7.0813

> <Gold.Chemscore.Internal_Hbond.Weighted>
0.0000

> <Gold.Chemscore.DEClash.Weighted>
0.0939

> <Gold.Chemscore.DEInternal.Weighted>
0.5357

> <Gold.Chemscore.Rot.Weighted>
7.4101

> <Gold.Chemscore.Internal.Correction.Weighted>
   9.000000E+99

> <Gold.Protein.RotatedTorsions>
[ 6907 6896 6895 6894 ] final -118.81 input  -60.11 | X-H torsion
[ 7974 7965 7964 7962 ] final  136.43 input  175.53 | X-H torsion
[ 8008 7997 7996 7995 ] final   69.06 input   59.86 | X-H torsion
[ 10167 10162 10161 10158 ] final -159.66 input  -65.29 | X-H torsion
[ 10718 10713 10712 10709 ] final  173.44 input   66.30 | X-H torsion
[ 10763 10752 10751 10750 ] final  -14.92 input  -60.55 | X-H torsion
[ 11005 11000 10999 10996 ] final -122.54 input  -57.11 | X-H torsion

> <Gold.Protein.ActiveResidues>
 VAL166  LYS551  ARG553  GLY616  TRP617  ASP618  TYR619  PRO620  LYS621  CYS622 
 ASP623  PHE694  ASN695  SER759  ASP760  ASP761  ALA762  ILE779  LEU786  VAL792 
 PHE793  MET794  SER795  GLU796  ALA797  LYS798  CYS799  TRP800  GLU811  SER814 

> <Gold.Protein.RotatedAtoms>
  150.8251  133.8185  159.3121 H   0  0  0  0  0  0  0  0  0  0  0  0  # atno 6907 bound_to 6896
  151.5932  135.1050  160.0053 H   0  0  0  0  0  0  0  0  0  0  0  0  # atno 6908 bound_to 6896
  152.4337  133.7282  159.6628 H   0  0  0  0  0  0  0  0  0  0  0  0  # atno 6909 bound_to 6896
  144.9566  139.4757  143.5500 H   0  0  0  0  0  0  0  0  0  0  0  0  # atno 7974 bound_to 7965
  155.7178  140.3493  155.5002 H   0  0  0  0  0  0  0  0  0  0  0  0  # atno 8008 bound_to 7997
  155.9297  140.1082  157.1163 H   0  0  0  0  0  0  0  0  0  0  0  0  # atno 8009 bound_to 7997
  154.4083  140.1233  156.4774 H   0  0  0  0  0  0  0  0  0  0  0  0  # atno 8010 bound_to 7997
  139.6598  143.9933  152.2218 H   0  0  0  0  0  0  0  0  0  0  0  0  # atno 10167 bound_to 10162
  156.9642  131.0070  151.2920 H   0  0  0  0  0  0  0  0  0  0  0  0  # atno 10718 bound_to 10713
  153.5355  135.7014  153.5662 H   0  0  0  0  0  0  0  0  0  0  0  0  # atno 10763 bound_to 10752
  153.3651  135.3959  155.1747 H   0  0  0  0  0  0  0  0  0  0  0  0  # atno 10764 bound_to 10752
  154.8680  135.3798  154.4855 H   0  0  0  0  0  0  0  0  0  0  0  0  # atno 10765 bound_to 10752
  140.9988  134.0433  157.3564 H   0  0  0  0  0  0  0  0  0  0  0  0  # atno 11005 bound_to 11000
  146.3339  139.8688  142.8843 LP  0  0  0  0  0  0  0  0  0  0  0  0  # atno 17320 bound_to 7965
  145.2763  141.0124  143.3743 LP  0  0  0  0  0  0  0  0  0  0  0  0  # atno 17321 bound_to 7965
  139.9669  144.6520  150.8026 LP  0  0  0  0  0  0  0  0  0  0  0  0  # atno 17342 bound_to 10162
  140.7575  143.3087  151.2897 LP  0  0  0  0  0  0  0  0  0  0  0  0  # atno 17343 bound_to 10162
  157.5637  130.8263  149.8299 LP  0  0  0  0  0  0  0  0  0  0  0  0  # atno 17370 bound_to 10713
  156.0309  130.3765  150.1689 LP  0  0  0  0  0  0  0  0  0  0  0  0  # atno 17371 bound_to 10713
  139.9028  135.0170  156.7348 LP  0  0  0  0  0  0  0  0  0  0  0  0  # atno 17394 bound_to 11000
  140.6923  133.9379  155.7974 LP  0  0  0  0  0  0  0  0  0  0  0  0  # atno 17395 bound_to 11000

$$$$
