AV-unprocessed.smi:94|AV-procd|sdf|852|dock7
  -GOLD-   2262017293D 1   1.00000     0.00000
 Structure written by MMmdl.
 53 55  0  0  0  0  0  0  0  0  1 V2000
  148.5419  141.4992  154.7371 C   0  0  0  0  0  0  0  0  0  0  0  0
  149.6725  140.6733  154.9746 O   0  0  0  0  0  0  0  0  0  0  0  0
  150.4820  140.9582  156.0559 C   0  0  0  0  0  0  0  0  0  0  0  0
  150.3723  142.1523  156.8136 C   0  0  0  0  0  0  0  0  0  0  0  0
  151.2336  142.3978  157.8980 C   0  0  0  0  0  0  0  0  0  0  0  0
  152.2224  141.4582  158.2411 C   0  0  0  0  0  0  0  0  0  0  0  0
  153.1555  141.7240  159.4044 C   0  0  0  0  0  0  0  0  0  0  0  0
  152.3376  140.2679  157.4989 C   0  0  0  0  0  0  0  0  0  0  0  0
  151.4693  140.0044  156.4132 C   0  0  0  0  0  0  0  0  0  0  0  0
  151.6137  138.7129  155.6061 C   0  0  1  0  0  0  0  0  0  0  0  0
  153.0548  138.5463  155.0951 C   0  0  0  0  0  0  0  0  0  0  0  0
  151.2061  137.5287  156.3623 N   0  0  0  0  0  0  0  0  0  0  0  0
  151.2308  136.2659  155.9097 C   0  0  0  0  0  0  0  0  0  0  0  0
  151.6033  135.9624  154.7754 O   0  0  0  0  0  0  0  0  0  0  0  0
  150.7504  135.1868  156.8913 C   0  0  0  0  0  0  0  0  0  0  0  0
  150.6819  133.8441  156.2746 N   0  0  0  0  0  0  0  0  0  0  0  0
  149.6526  133.5657  155.3415 C   0  0  0  0  0  0  0  0  0  0  0  0
  148.8082  134.4133  155.0489 O   0  0  0  0  0  0  0  0  0  0  0  0
  149.6736  132.2272  154.7621 C   0  0  0  0  0  0  0  0  0  0  0  0
  148.7240  131.8689  153.8813 F   0  0  0  0  0  0  0  0  0  0  0  0
  150.6326  131.3391  155.0964 C   0  0  0  0  0  0  0  0  0  0  0  0
  151.6451  131.6324  155.9927 N   0  0  0  0  0  0  0  0  0  0  0  0
  152.7207  130.6282  156.3526 C   0  0  2  0  0  0  0  0  0  0  0  0
  154.1136  131.1579  155.9565 C   0  0  0  0  0  0  0  0  0  0  0  0
  154.6803  130.0275  155.1204 C   0  0  0  0  0  0  0  0  0  0  0  0
  153.4214  129.4013  154.5405 C   0  0  0  0  0  0  0  0  0  0  0  0
  152.5217  129.4404  155.6399 O   0  0  0  0  0  0  0  0  0  0  0  0
  151.6787  132.8993  156.6146 C   0  0  0  0  0  0  0  0  0  0  0  0
  152.5628  133.1748  157.4292 O   0  0  0  0  0  0  0  0  0  0  0  0
  148.0127  141.1372  153.8559 H   0  0  0  0  0  0  0  0  0  0  0  0
  148.8357  142.5317  154.5437 H   0  0  0  0  0  0  0  0  0  0  0  0
  147.8438  141.4707  155.5748 H   0  0  0  0  0  0  0  0  0  0  0  0
  149.6334  142.9038  156.5815 H   0  0  0  0  0  0  0  0  0  0  0  0
  151.1346  143.3134  158.4626 H   0  0  0  0  0  0  0  0  0  0  0  0
  154.1345  141.2781  159.2266 H   0  0  0  0  0  0  0  0  0  0  0  0
  152.7444  141.2983  160.3198 H   0  0  0  0  0  0  0  0  0  0  0  0
  153.2954  142.7948  159.5553 H   0  0  0  0  0  0  0  0  0  0  0  0
  153.1069  139.5593  157.7682 H   0  0  0  0  0  0  0  0  0  0  0  0
  150.9493  138.7862  154.7438 H   0  0  0  0  0  0  0  0  0  0  0  0
  153.3540  139.3983  154.4838 H   0  0  0  0  0  0  0  0  0  0  0  0
  153.1598  137.6521  154.4798 H   0  0  0  0  0  0  0  0  0  0  0  0
  153.7616  138.4661  155.9218 H   0  0  0  0  0  0  0  0  0  0  0  0
  150.8795  137.6854  157.3047 H   0  0  0  0  0  0  0  0  0  0  0  0
  151.4048  135.1700  157.7650 H   0  0  0  0  0  0  0  0  0  0  0  0
  149.7844  135.4989  157.2903 H   0  0  0  0  0  0  0  0  0  0  0  0
  150.5877  130.3654  154.6333 H   0  0  0  0  0  0  0  0  0  0  0  0
  152.5993  130.4405  157.4209 H   0  0  0  0  0  0  0  0  0  0  0  0
  154.0190  132.0641  155.3558 H   0  0  0  0  0  0  0  0  0  0  0  0
  154.7131  131.3794  156.8398 H   0  0  0  0  0  0  0  0  0  0  0  0
  155.3789  130.3691  154.3562 H   0  0  0  0  0  0  0  0  0  0  0  0
  155.1947  129.3088  155.7595 H   0  0  0  0  0  0  0  0  0  0  0  0
  153.0345  129.9993  153.7141 H   0  0  0  0  0  0  0  0  0  0  0  0
  153.5803  128.3827  154.1863 H   0  0  0  0  0  0  0  0  0  0  0  0
  1  2  1  0  0  0  0
  1 30  1  0  0  0  0
  1 31  1  0  0  0  0
  1 32  1  0  0  0  0
  2  3  1  0  0  0  0
  3  9  1  0  0  0  0
  3  4  2  0  0  0  0
  4  5  1  0  0  0  0
  4 33  1  0  0  0  0
  5  6  2  0  0  0  0
  5 34  1  0  0  0  0
  6  7  1  0  0  0  0
  6  8  1  0  0  0  0
  7 35  1  0  0  0  0
  7 36  1  0  0  0  0
  7 37  1  0  0  0  0
  8  9  2  0  0  0  0
  8 38  1  0  0  0  0
  9 10  1  0  0  0  0
 10 11  1  0  0  0  0
 10 12  1  0  0  0  0
 10 39  1  0  0  0  0
 11 40  1  0  0  0  0
 11 41  1  0  0  0  0
 11 42  1  0  0  0  0
 12 13  1  0  0  0  0
 12 43  1  0  0  0  0
 13 14  2  0  0  0  0
 13 15  1  0  0  0  0
 15 16  1  0  0  0  0
 15 44  1  0  0  0  0
 15 45  1  0  0  0  0
 16 28  1  0  0  0  0
 16 17  1  0  0  0  0
 17 18  2  0  0  0  0
 17 19  1  0  0  0  0
 19 20  1  0  0  0  0
 19 21  2  0  0  0  0
 21 22  1  0  0  0  0
 21 46  1  0  0  0  0
 22 23  1  0  0  0  0
 22 28  1  0  0  0  0
 23 27  1  0  0  0  0
 23 24  1  0  0  0  0
 23 47  1  0  0  0  0
 24 25  1  0  0  0  0
 24 48  1  0  0  0  0
 24 49  1  0  0  0  0
 25 26  1  0  0  0  0
 25 50  1  0  0  0  0
 25 51  1  0  0  0  0
 26 27  1  0  0  0  0
 26 52  1  0  0  0  0
 26 53  1  0  0  0  0
 28 29  2  0  0  0  0
M  END
> <s_m_source_file>
AV-unprocessed.smi

> <i_m_source_file_index>
94

> <i_lp_mmshare_version>
43012

> <i_f3d_flags>
0

> <s_epik_input>
W0NIM11PYzFbY0hdW2NIXWMoW0NIM10pW2NIXWMxW0NASF0oW0NIM10pW05IXUMoPU8pW0NIMl1uMmMoPU8pYyhGKVtjSF1uKGMyPU8pW0NAQEhdM1tDSDJdW0NIMl1bQ0gyXU8z

> <s_epik_cmdline>
J2VwaWtfcHl0aG9uJywgJy1waCcsICc3LjAnLCAnLXRuJywgJzgnLCAnLW1hJywgJzIwMCcsICctbWV0YWxfYmluZGluZycsICctaW1hZScsICc8aW5maWxlLm1hZT4nLCAnLW9tYWUnLCAnPG91dGZpbGUubWFlPic=

> <r_lp_tautomer_probability>
1

> <r_epik_Ionization_Penalty>
3.37009e-08

> <r_epik_Ionization_Penalty_Charging>
3.59856e-09

> <r_epik_Ionization_Penalty_Neutral>
3.01024e-08

> <r_epik_State_Penalty>
-0

> <r_epik_Charging_Adjusted_Penalty>
3.59856e-09

> <i_epik_Tot_Q>
0

> <i_epik_Tot_abs_Q>
0

> <r_epik_Metal_State_Penalty>
-0

> <b_epik_Metal_Only>
0

> <s_epik_Chemistry_Notes>
This compound contains an acetal/aminal-like group ( X-CH(R)-Y where X, Y are N, S, or O) that may be acid/base labile, releasing an aldehyde.

> <s_lp_Force_Field>
OPLS_2005

> <r_lp_Energy>
32.1562

> <b_lp_Chiralities_Consistent>
1

> <s_lp_Variant>
AV-unprocessed.smi:94-2

> <Gold.Version>
5.8.1

> <Gold.Id.Protein>
6NUR|6NUR_protein|mol2

> <Gold.PLP.Fitness>
56.0205

> <Gold.PLP.PLP>
-49.3809

> <Gold.PLP.part.hbond>
-2.9764

> <Gold.PLP.part.metal>
0.0000

> <Gold.PLP.part.buried>
0.0007

> <Gold.PLP.part.nonpolar>
-47.4119

> <Gold.PLP.part.repulsive>
1.0221

> <Gold.PLP.ligand.clash>
0.0000

> <Gold.PLP.ligand.torsion>
0.4243

> <Gold.PLP.Chemscore.Hbond>
2.4620

> <Gold.PLP.Chemscore.CHOScore>
0.0000

> <Gold.PLP.Chemscore.Metal>
0.0000

> <Gold.Chemscore.Hbonds>
donor molecule, donor type, donor heavy atom, donor atom, acceptor molecule, acceptor atom, score
      P1  H  6896  6908       L1    29  0.45
      P1  H 10752 10765       L1    14  0.73

> <Gold.PLP.Chemscore.Internal.Correction>
0.1022

> <Gold.Rescore>
     Score         DG    S(hbond)    S(metal)    S(lipo)     H(rot)  DE(clash)    DE(int)     intcor
     16.12     -18.14       1.95        0.00     103.62       2.34       0.09       1.93       ----

> <Gold.Chemscore.Fitness>
16.1236

> <Gold.Chemscore.DG>
-18.1404

> <Gold.Chemscore.ZeroCoef>
-5.4800

> <Gold.Chemscore.Hbond>
1.9519

> <Gold.Chemscore.Metal>
0.0000

> <Gold.Chemscore.Lipo>
103.6214

> <Gold.Chemscore.Internal_Hbond>
0.0000

> <Gold.Chemscore.DEClash>
0.0868

> <Gold.Chemscore.DEInternal>
1.9299

> <Gold.Chemscore.Rot>
2.3370

> <Gold.Chemscore.Internal.Correction>
   9.000000E+99

> <Gold.Chemscore.Hbonds>
donor molecule, donor type, donor heavy atom, donor atom, acceptor molecule, acceptor atom, score
      P1  H  6896  6908       L1    29  0.18
      P1  H 10752 10765       L1    14  0.62

> <Gold.Chemscore.Hbond.Weighted>
-6.5193

> <Gold.Chemscore.Metal.Weighted>
-0.0000

> <Gold.Chemscore.Lipo.Weighted>
-12.1237

> <Gold.Chemscore.Internal_Hbond.Weighted>
0.0000

> <Gold.Chemscore.DEClash.Weighted>
0.0868

> <Gold.Chemscore.DEInternal.Weighted>
1.9299

> <Gold.Chemscore.Rot.Weighted>
5.9827

> <Gold.Chemscore.Internal.Correction.Weighted>
   9.000000E+99

> <Gold.Protein.RotatedTorsions>
[ 6907 6896 6895 6894 ] final   72.40 input  -60.11 | X-H torsion
[ 7974 7965 7964 7962 ] final  169.68 input  175.53 | X-H torsion
[ 8008 7997 7996 7995 ] final -111.83 input   59.86 | X-H torsion
[ 10167 10162 10161 10158 ] final  -28.27 input  -65.29 | X-H torsion
[ 10718 10713 10712 10709 ] final  -94.17 input   66.30 | X-H torsion
[ 10763 10752 10751 10750 ] final -170.66 input  -60.55 | X-H torsion
[ 11005 11000 10999 10996 ] final -147.01 input  -57.11 | X-H torsion

> <Gold.Protein.ActiveResidues>
 VAL166  LYS551  ARG553  GLY616  TRP617  ASP618  TYR619  PRO620  LYS621  CYS622 
 ASP623  PHE694  ASN695  SER759  ASP760  ASP761  ALA762  ILE779  LEU786  VAL792 
 PHE793  MET794  SER795  GLU796  ALA797  LYS798  CYS799  TRP800  GLU811  SER814 

> <Gold.Protein.RotatedAtoms>
  152.4866  134.4576  159.9594 H   0  0  0  0  0  0  0  0  0  0  0  0  # atno 6907 bound_to 6896
  151.4571  133.3596  159.2811 H   0  0  0  0  0  0  0  0  0  0  0  0  # atno 6908 bound_to 6896
  150.8981  134.8416  159.7401 H   0  0  0  0  0  0  0  0  0  0  0  0  # atno 6909 bound_to 6896
  144.7347  139.9091  143.6414 H   0  0  0  0  0  0  0  0  0  0  0  0  # atno 7974 bound_to 7965
  154.9958  140.0394  157.2339 H   0  0  0  0  0  0  0  0  0  0  0  0  # atno 8008 bound_to 7997
  154.7587  140.2780  155.6209 H   0  0  0  0  0  0  0  0  0  0  0  0  # atno 8009 bound_to 7997
  156.2900  140.2632  156.2360 H   0  0  0  0  0  0  0  0  0  0  0  0  # atno 8010 bound_to 7997
  140.7271  143.4024  151.1242 H   0  0  0  0  0  0  0  0  0  0  0  0  # atno 10167 bound_to 10162
  156.0023  130.5057  150.5886 H   0  0  0  0  0  0  0  0  0  0  0  0  # atno 10718 bound_to 10713
  154.6390  135.2896  155.0126 H   0  0  0  0  0  0  0  0  0  0  0  0  # atno 10763 bound_to 10752
  154.1259  135.6541  153.4916 H   0  0  0  0  0  0  0  0  0  0  0  0  # atno 10764 bound_to 10752
  153.0317  135.5299  154.7249 H   0  0  0  0  0  0  0  0  0  0  0  0  # atno 10765 bound_to 10752
  140.7761  134.3133  157.5060 H   0  0  0  0  0  0  0  0  0  0  0  0  # atno 11005 bound_to 11000
  146.1015  139.4011  143.0344 LP  0  0  0  0  0  0  0  0  0  0  0  0  # atno 17320 bound_to 7965
  145.7572  140.9949  143.1219 LP  0  0  0  0  0  0  0  0  0  0  0  0  # atno 17321 bound_to 7965
  139.7646  143.8585  152.3108 LP  0  0  0  0  0  0  0  0  0  0  0  0  # atno 17342 bound_to 10162
  139.8482  144.7177  150.9246 LP  0  0  0  0  0  0  0  0  0  0  0  0  # atno 17343 bound_to 10162
  157.3754  131.0772  151.1522 LP  0  0  0  0  0  0  0  0  0  0  0  0  # atno 17370 bound_to 10713
  157.2261  130.6504  149.5831 LP  0  0  0  0  0  0  0  0  0  0  0  0  # atno 17371 bound_to 10713
  139.8749  134.9290  156.3465 LP  0  0  0  0  0  0  0  0  0  0  0  0  # atno 17394 bound_to 11000
  140.9527  133.7440  156.0294 LP  0  0  0  0  0  0  0  0  0  0  0  0  # atno 17395 bound_to 11000

$$$$
