AV-unprocessed.smi:1916|AV-procd|sdf|7764|dock9
  -GOLD-   22720 9513D 1   1.00000     0.00000
 Structure written by MMmdl.
 45 47  0  0  0  0  0  0  0  0  1 V2000
  147.4222  138.4695  155.6751 O   0  0  0  0  0  0  0  0  0  0  0  0
  148.3167  139.0064  156.3296 C   0  0  0  0  0  0  0  0  0  0  0  0
  148.5240  138.7632  157.6335 N   0  0  0  0  0  0  0  0  0  0  0  0
  147.7936  137.7849  158.4368 C   0  0  0  0  0  0  0  0  0  0  0  0
  148.7369  136.8453  159.2163 C   0  0  0  0  0  0  0  0  0  0  0  0
  148.1285  136.2804  160.4900 C   0  0  0  0  0  0  0  0  0  0  0  0
  148.0056  134.8859  160.6754 C   0  0  0  0  0  0  0  0  0  0  0  0
  147.3973  134.4167  161.8556 C   0  0  0  0  0  0  0  0  0  0  0  0
  146.9398  135.3539  162.8015 C   0  0  0  0  0  0  0  0  0  0  0  0
  147.1179  136.7246  162.5269 C   0  0  0  0  0  0  0  0  0  0  0  0
  147.7018  137.1854  161.3994 N   0  0  0  0  0  0  0  0  0  0  0  0
  149.2967  139.9747  155.6490 C   0  0  2  0  0  0  0  0  0  0  0  0
  150.7533  139.4869  155.7445 C   0  0  0  0  0  0  0  0  0  0  0  0
  151.3930  140.4463  156.7349 C   0  0  0  0  0  0  0  0  0  0  0  0
  152.5246  140.2718  157.1849 O   0  0  0  0  0  0  0  0  0  0  0  0
  150.5663  141.4545  157.0470 N   0  0  0  0  0  0  0  0  0  0  0  0
  150.8533  142.4944  158.0496 C   0  0  0  0  0  0  0  0  0  0  0  0
  151.6064  143.7333  157.5231 C   0  0  0  0  0  0  0  0  0  0  0  0
  152.3705  144.2595  158.7340 C   0  0  0  0  0  0  0  0  0  0  0  0
  152.8303  142.9924  159.4500 C   0  0  0  0  0  0  0  0  0  0  0  0
  151.7098  141.9697  159.2245 C   0  0  0  0  0  0  0  0  0  0  0  0
  149.2972  141.3548  156.3364 C   0  0  0  0  0  0  0  0  0  0  0  0
  149.2794  139.2529  158.0909 H   0  0  0  0  0  0  0  0  0  0  0  0
  147.1598  138.3276  159.1382 H   0  0  0  0  0  0  0  0  0  0  0  0
  147.1174  137.2006  157.8101 H   0  0  0  0  0  0  0  0  0  0  0  0
  149.0410  136.0191  158.5725 H   0  0  0  0  0  0  0  0  0  0  0  0
  149.6533  137.3786  159.4721 H   0  0  0  0  0  0  0  0  0  0  0  0
  148.3537  134.1914  159.9251 H   0  0  0  0  0  0  0  0  0  0  0  0
  147.2771  133.3575  162.0287 H   0  0  0  0  0  0  0  0  0  0  0  0
  146.4644  135.0305  163.7158 H   0  0  0  0  0  0  0  0  0  0  0  0
  146.7812  137.4710  163.2310 H   0  0  0  0  0  0  0  0  0  0  0  0
  149.0147  140.0862  154.6006 H   0  0  0  0  0  0  0  0  0  0  0  0
  150.8522  138.4553  156.0859 H   0  0  0  0  0  0  0  0  0  0  0  0
  151.2594  139.5717  154.7823 H   0  0  0  0  0  0  0  0  0  0  0  0
  149.8999  142.8399  158.4541 H   0  0  0  0  0  0  0  0  0  0  0  0
  152.3418  143.4663  156.7641 H   0  0  0  0  0  0  0  0  0  0  0  0
  150.9375  144.4783  157.0910 H   0  0  0  0  0  0  0  0  0  0  0  0
  153.2004  144.9105  158.4574 H   0  0  0  0  0  0  0  0  0  0  0  0
  151.6979  144.8272  159.3783 H   0  0  0  0  0  0  0  0  0  0  0  0
  153.7512  142.6304  158.9905 H   0  0  0  0  0  0  0  0  0  0  0  0
  153.0348  143.1620  160.5075 H   0  0  0  0  0  0  0  0  0  0  0  0
  151.0928  141.8711  160.1184 H   0  0  0  0  0  0  0  0  0  0  0  0
  152.1384  140.9868  159.0230 H   0  0  0  0  0  0  0  0  0  0  0  0
  149.2356  142.1514  155.5937 H   0  0  0  0  0  0  0  0  0  0  0  0
  148.4562  141.4731  157.0208 H   0  0  0  0  0  0  0  0  0  0  0  0
  1  2  2  0  0  0  0
  2  3  1  0  0  0  0
  2 12  1  0  0  0  0
  3  4  1  0  0  0  0
  3 23  1  0  0  0  0
  4  5  1  0  0  0  0
  4 24  1  0  0  0  0
  4 25  1  0  0  0  0
  5  6  1  0  0  0  0
  5 26  1  0  0  0  0
  5 27  1  0  0  0  0
  6 11  1  0  0  0  0
  6  7  2  0  0  0  0
  7  8  1  0  0  0  0
  7 28  1  0  0  0  0
  8  9  2  0  0  0  0
  8 29  1  0  0  0  0
  9 10  1  0  0  0  0
  9 30  1  0  0  0  0
 10 11  2  0  0  0  0
 10 31  1  0  0  0  0
 12 22  1  0  0  0  0
 12 13  1  0  0  0  0
 12 32  1  0  0  0  0
 13 14  1  0  0  0  0
 13 33  1  0  0  0  0
 13 34  1  0  0  0  0
 14 15  2  0  0  0  0
 14 16  1  0  0  0  0
 16 17  1  0  0  0  0
 16 22  1  0  0  0  0
 17 21  1  0  0  0  0
 17 18  1  0  0  0  0
 17 35  1  0  0  0  0
 18 19  1  0  0  0  0
 18 36  1  0  0  0  0
 18 37  1  0  0  0  0
 19 20  1  0  0  0  0
 19 38  1  0  0  0  0
 19 39  1  0  0  0  0
 20 21  1  0  0  0  0
 20 40  1  0  0  0  0
 20 41  1  0  0  0  0
 21 42  1  0  0  0  0
 21 43  1  0  0  0  0
 22 44  1  0  0  0  0
 22 45  1  0  0  0  0
M  END
> <s_m_source_file>
AV-unprocessed.smi

> <i_m_source_file_index>
1916

> <i_lp_mmshare_version>
43012

> <i_f3d_flags>
0

> <s_epik_input>
W0NIMl0xW0NIMl1bQ0gyXVtDSDJdW0NIXTFOKFtDSDJdMilDKD1PKVtDSDJdW0NASF0yQyg9TylbTkhdW0NIMl1bQ0gyXWMzW2NIXVtjSF1bY0hdW2NIXW4z

> <s_epik_cmdline>
J2VwaWtfcHl0aG9uJywgJy1waCcsICc3LjAnLCAnLXRuJywgJzgnLCAnLW1hJywgJzIwMCcsICctbWV0YWxfYmluZGluZycsICctaW1hZScsICc8aW5maWxlLm1hZT4nLCAnLW9tYWUnLCAnPG91dGZpbGUubWFlPic=

> <r_epik_Ionization_Penalty>
0.0252359

> <r_epik_Ionization_Penalty_Charging>
0

> <r_epik_Ionization_Penalty_Neutral>
0.0252359

> <r_epik_State_Penalty>
0.020532

> <r_epik_Charging_Adjusted_Penalty>
0.020532

> <i_epik_Tot_Q>
0

> <i_epik_Tot_abs_Q>
0

> <r_epik_Metal_State_Penalty>
0.0196901

> <b_epik_Metal_Only>
0

> <s_lp_Force_Field>
OPLS_2005

> <r_lp_Energy>
33.617

> <b_lp_Chiralities_Consistent>
1

> <s_lp_Variant>
AV-unprocessed.smi:1916-1

> <Gold.Version>
5.8.1

> <Gold.Id.Protein>
6NUR|6NUR_protein|mol2

> <Gold.PLP.Fitness>
51.0221

> <Gold.PLP.PLP>
-44.4007

> <Gold.PLP.part.hbond>
-3.0000

> <Gold.PLP.part.metal>
0.0000

> <Gold.PLP.part.buried>
-3.4662

> <Gold.PLP.part.nonpolar>
-37.4485

> <Gold.PLP.part.repulsive>
0.1062

> <Gold.PLP.ligand.clash>
0.0000

> <Gold.PLP.ligand.torsion>
0.9111

> <Gold.PLP.Chemscore.Hbond>
2.7920

> <Gold.PLP.Chemscore.CHOScore>
0.0000

> <Gold.PLP.Chemscore.Metal>
0.0000

> <Gold.Chemscore.Hbonds>
donor molecule, donor type, donor heavy atom, donor atom, acceptor molecule, acceptor atom, score
      P1  H  6931  6943       L1    11  0.99
      P1  H  6934  6947       L1    11  0.80
      P1  H  7997  8010       L1    15  1.00

> <Gold.PLP.Chemscore.Internal.Correction>
0.0677

> <Gold.Rescore>
     Score         DG    S(hbond)    S(metal)    S(lipo)     H(rot)  DE(clash)    DE(int)     intcor
     20.06     -22.31       2.19        0.00     116.53       1.61       0.05       2.20       ----

> <Gold.Chemscore.Fitness>
20.0640

> <Gold.Chemscore.DG>
-22.3130

> <Gold.Chemscore.ZeroCoef>
-5.4800

> <Gold.Chemscore.Hbond>
2.1925

> <Gold.Chemscore.Metal>
0.0000

> <Gold.Chemscore.Lipo>
116.5331

> <Gold.Chemscore.Internal_Hbond>
0.0000

> <Gold.Chemscore.DEClash>
0.0531

> <Gold.Chemscore.DEInternal>
2.1960

> <Gold.Chemscore.Rot>
1.6110

> <Gold.Chemscore.Internal.Correction>
   9.000000E+99

> <Gold.Chemscore.Hbonds>
donor molecule, donor type, donor heavy atom, donor atom, acceptor molecule, acceptor atom, score
      P1  H  6931  6943       L1    11  0.45
      P1  H  6934  6947       L1    11  0.69
      P1  H  7997  8010       L1    15  0.94

> <Gold.Chemscore.Hbond.Weighted>
-7.3229

> <Gold.Chemscore.Metal.Weighted>
-0.0000

> <Gold.Chemscore.Lipo.Weighted>
-13.6344

> <Gold.Chemscore.Internal_Hbond.Weighted>
0.0000

> <Gold.Chemscore.DEClash.Weighted>
0.0531

> <Gold.Chemscore.DEInternal.Weighted>
2.1960

> <Gold.Chemscore.Rot.Weighted>
4.1243

> <Gold.Chemscore.Internal.Correction.Weighted>
   9.000000E+99

> <Gold.Protein.RotatedTorsions>
[ 6907 6896 6895 6894 ] final  135.26 input  -60.11 | X-H torsion
[ 7974 7965 7964 7962 ] final -169.04 input  175.53 | X-H torsion
[ 8008 7997 7996 7995 ] final   59.41 input   59.86 | X-H torsion
[ 10167 10162 10161 10158 ] final  -15.49 input  -65.29 | X-H torsion
[ 10718 10713 10712 10709 ] final  -31.69 input   66.30 | X-H torsion
[ 10763 10752 10751 10750 ] final -150.31 input  -60.55 | X-H torsion
[ 11005 11000 10999 10996 ] final  172.22 input  -57.11 | X-H torsion

> <Gold.Protein.ActiveResidues>
 VAL166  LYS551  ARG553  GLY616  TRP617  ASP618  TYR619  PRO620  LYS621  CYS622 
 ASP623  PHE694  ASN695  SER759  ASP760  ASP761  ALA762  ILE779  LEU786  VAL792 
 PHE793  MET794  SER795  GLU796  ALA797  LYS798  CYS799  TRP800  GLU811  SER814 

> <Gold.Protein.RotatedAtoms>
  152.3023  133.5668  159.5626 H   0  0  0  0  0  0  0  0  0  0  0  0  # atno 6907 bound_to 6896
  150.7283  134.0273  159.3730 H   0  0  0  0  0  0  0  0  0  0  0  0  # atno 6908 bound_to 6896
  151.8172  135.0663  160.0471 H   0  0  0  0  0  0  0  0  0  0  0  0  # atno 6909 bound_to 6896
  144.7192  140.2280  143.6308 H   0  0  0  0  0  0  0  0  0  0  0  0  # atno 7974 bound_to 7965
  155.5658  140.3489  155.4503 H   0  0  0  0  0  0  0  0  0  0  0  0  # atno 8008 bound_to 7997
  156.0481  140.1311  157.0107 H   0  0  0  0  0  0  0  0  0  0  0  0  # atno 8009 bound_to 7997
  154.4421  140.1010  156.6320 H   0  0  0  0  0  0  0  0  0  0  0  0  # atno 8010 bound_to 7997
  140.7219  143.5212  150.9631 H   0  0  0  0  0  0  0  0  0  0  0  0  # atno 10167 bound_to 10162
  156.3842  130.4361  149.7445 H   0  0  0  0  0  0  0  0  0  0  0  0  # atno 10718 bound_to 10713
  154.8126  135.3287  154.7264 H   0  0  0  0  0  0  0  0  0  0  0  0  # atno 10763 bound_to 10752
  153.7910  135.6911  153.4876 H   0  0  0  0  0  0  0  0  0  0  0  0  # atno 10764 bound_to 10752
  153.1917  135.4548  155.0103 H   0  0  0  0  0  0  0  0  0  0  0  0  # atno 10765 bound_to 10752
  140.3274  134.7386  157.4109 H   0  0  0  0  0  0  0  0  0  0  0  0  # atno 11005 bound_to 11000
  145.8438  139.2142  143.1812 LP  0  0  0  0  0  0  0  0  0  0  0  0  # atno 17320 bound_to 7965
  146.0323  140.8246  142.9870 LP  0  0  0  0  0  0  0  0  0  0  0  0  # atno 17321 bound_to 7965
  139.8930  143.6930  152.3142 LP  0  0  0  0  0  0  0  0  0  0  0  0  # atno 17342 bound_to 10162
  139.7252  144.7594  151.0890 LP  0  0  0  0  0  0  0  0  0  0  0  0  # atno 17343 bound_to 10162
  156.4524  130.7913  151.2934 LP  0  0  0  0  0  0  0  0  0  0  0  0  # atno 17370 bound_to 10713
  157.7494  131.0091  150.3255 LP  0  0  0  0  0  0  0  0  0  0  0  0  # atno 17371 bound_to 10713
  140.0890  134.5627  155.8463 LP  0  0  0  0  0  0  0  0  0  0  0  0  # atno 17394 bound_to 11000
  141.2072  133.6662  156.6289 LP  0  0  0  0  0  0  0  0  0  0  0  0  # atno 17395 bound_to 11000

$$$$
