AV-unprocessed.smi:1226|AV-procd|sdf|5145|dock3
  -GOLD-   22720 4213D 1   1.00000     0.00000
 Structure written by MMmdl.
 37 38  0  0  0  0  0  0  0  0  1 V2000
  145.3167  136.1501  153.0865 C   0  0  0  0  0  0  0  0  0  0  0  0
  145.9727  134.8575  152.7415 C   0  0  0  0  0  0  0  0  0  0  0  0
  146.9936  134.3404  153.4300 N   0  0  0  0  0  0  0  0  0  0  0  0
  147.4258  133.1149  152.9131 C   0  0  0  0  0  0  0  0  0  0  0  0
  148.5596  132.3843  153.5661 C   0  0  0  0  0  0  0  0  0  0  0  0
  149.1982  133.2014  154.7016 C   0  0  0  0  0  0  0  0  0  0  0  0
  149.5155  134.5595  154.2755 N   0  0  0  0  0  0  0  0  0  0  0  0
  150.2400  135.4345  154.9862 C   0  0  0  0  0  0  0  0  0  0  0  0
  150.7268  135.1892  156.0902 O   0  0  0  0  0  0  0  0  0  0  0  0
  150.3718  136.6059  154.3486 N   0  0  0  0  0  0  0  0  0  0  0  0
  151.1230  137.7508  154.8505 C   0  0  0  0  0  0  0  0  0  0  0  0
  150.4465  139.0776  154.4694 C   0  0  1  0  0  0  0  0  0  0  0  0
  149.0539  139.2489  155.0731 C   0  0  0  0  0  0  0  0  0  0  0  0
  148.8993  140.7521  155.0591 C   0  0  0  0  0  0  0  0  0  0  0  0
  150.3084  141.2144  155.4188 C   0  0  0  0  0  0  0  0  0  0  0  0
  151.1888  140.1932  154.9565 O   0  0  0  0  0  0  0  0  0  0  0  0
  146.7130  132.7107  151.8120 C   0  0  0  0  0  0  0  0  0  0  0  0
  145.4704  133.8547  151.3860 S   0  0  0  0  0  0  0  0  0  0  0  0
  145.9588  136.7447  153.7371 H   0  0  0  0  0  0  0  0  0  0  0  0
  144.3742  135.9620  153.6009 H   0  0  0  0  0  0  0  0  0  0  0  0
  145.1142  136.7209  152.1804 H   0  0  0  0  0  0  0  0  0  0  0  0
  148.2042  131.4297  153.9562 H   0  0  0  0  0  0  0  0  0  0  0  0
  149.3186  132.1379  152.8225 H   0  0  0  0  0  0  0  0  0  0  0  0
  148.5118  133.2645  155.5465 H   0  0  0  0  0  0  0  0  0  0  0  0
  150.0978  132.7051  155.0694 H   0  0  0  0  0  0  0  0  0  0  0  0
  149.1588  134.8516  153.3775 H   0  0  0  0  0  0  0  0  0  0  0  0
  149.9345  136.7087  153.4447 H   0  0  0  0  0  0  0  0  0  0  0  0
  151.1689  137.6638  155.9362 H   0  0  0  0  0  0  0  0  0  0  0  0
  152.1550  137.7276  154.4961 H   0  0  0  0  0  0  0  0  0  0  0  0
  150.3768  139.1689  153.3842 H   0  0  0  0  0  0  0  0  0  0  0  0
  148.2777  138.7330  154.5075 H   0  0  0  0  0  0  0  0  0  0  0  0
  149.0308  138.8823  156.1005 H   0  0  0  0  0  0  0  0  0  0  0  0
  148.6359  141.0908  154.0563 H   0  0  0  0  0  0  0  0  0  0  0  0
  148.1409  141.1139  155.7537 H   0  0  0  0  0  0  0  0  0  0  0  0
  150.5524  142.1802  154.9761 H   0  0  0  0  0  0  0  0  0  0  0  0
  150.4183  141.2993  156.5003 H   0  0  0  0  0  0  0  0  0  0  0  0
  146.8422  131.8106  151.2291 H   0  0  0  0  0  0  0  0  0  0  0  0
  1  2  1  0  0  0  0
  1 19  1  0  0  0  0
  1 20  1  0  0  0  0
  1 21  1  0  0  0  0
  2 18  1  0  0  0  0
  2  3  2  0  0  0  0
  3  4  1  0  0  0  0
  4  5  1  0  0  0  0
  4 17  2  0  0  0  0
  5  6  1  0  0  0  0
  5 22  1  0  0  0  0
  5 23  1  0  0  0  0
  6  7  1  0  0  0  0
  6 24  1  0  0  0  0
  6 25  1  0  0  0  0
  7  8  1  0  0  0  0
  7 26  1  0  0  0  0
  8  9  2  0  0  0  0
  8 10  1  0  0  0  0
 10 11  1  0  0  0  0
 10 27  1  0  0  0  0
 11 12  1  0  0  0  0
 11 28  1  0  0  0  0
 11 29  1  0  0  0  0
 12 16  1  0  0  0  0
 12 13  1  0  0  0  0
 12 30  1  0  0  0  0
 13 14  1  0  0  0  0
 13 31  1  0  0  0  0
 13 32  1  0  0  0  0
 14 15  1  0  0  0  0
 14 33  1  0  0  0  0
 14 34  1  0  0  0  0
 15 16  1  0  0  0  0
 15 35  1  0  0  0  0
 15 36  1  0  0  0  0
 17 18  1  0  0  0  0
 17 37  1  0  0  0  0
M  END
> <s_m_source_file>
AV-unprocessed.smi

> <i_m_source_file_index>
1226

> <i_lp_mmshare_version>
43012

> <i_f3d_flags>
0

> <s_epik_input>
W0NIM11jMW5jKFtjSF1zMSlbQ0gyXVtDSDJdW05IXUMoPU8pW05IXVtDSDJdW0NAQEhdMltDSDJdW0NIMl1bQ0gyXU8y

> <s_epik_cmdline>
J2VwaWtfcHl0aG9uJywgJy1waCcsICc3LjAnLCAnLXRuJywgJzgnLCAnLW1hJywgJzIwMCcsICctbWV0YWxfYmluZGluZycsICctaW1hZScsICc8aW5maWxlLm1hZT4nLCAnLW9tYWUnLCAnPG91dGZpbGUubWFlPic=

> <r_epik_Ionization_Penalty>
0.00199722

> <r_epik_Ionization_Penalty_Charging>
0

> <r_epik_Ionization_Penalty_Neutral>
0.00199722

> <r_epik_State_Penalty>
0.00132705

> <r_epik_Charging_Adjusted_Penalty>
0.00132705

> <i_epik_Tot_Q>
0

> <i_epik_Tot_abs_Q>
0

> <r_epik_Metal_State_Penalty>
-0

> <b_epik_Metal_Only>
0

> <s_lp_Force_Field>
OPLS_2005

> <r_lp_Energy>
8.90451

> <b_lp_Chiralities_Consistent>
1

> <s_lp_Variant>
AV-unprocessed.smi:1226-2

> <Gold.Version>
5.8.1

> <Gold.Id.Protein>
6NUR|6NUR_protein|mol2

> <Gold.PLP.Fitness>
40.7359

> <Gold.PLP.PLP>
-30.7828

> <Gold.PLP.part.hbond>
-4.0000

> <Gold.PLP.part.metal>
0.0000

> <Gold.PLP.part.buried>
-3.5288

> <Gold.PLP.part.nonpolar>
-24.7090

> <Gold.PLP.part.repulsive>
0.7233

> <Gold.PLP.ligand.clash>
0.0000

> <Gold.PLP.ligand.torsion>
0.2715

> <Gold.PLP.Chemscore.Hbond>
2.5000

> <Gold.PLP.Chemscore.CHOScore>
0.9848

> <Gold.PLP.Chemscore.Metal>
0.0000

> <Gold.Chemscore.Hbonds>
donor molecule, donor type, donor heavy atom, donor atom, acceptor molecule, acceptor atom, score
      L1  H     7    26       P1  7948  0.75
      L1  H    10    27       P1  7948  0.95
      P1  H  7989  7998       L1    16  0.95
      L1  C    17    37       P1 10747  0.97

> <Gold.PLP.Chemscore.Internal.Correction>
0.0415

> <Gold.Rescore>
     Score         DG    S(hbond)    S(metal)    S(lipo)     H(rot)  DE(clash)    DE(int)     intcor
     14.74     -15.13       2.14        0.00      59.73       1.75       0.13       0.26       ----

> <Gold.Chemscore.Fitness>
14.7436

> <Gold.Chemscore.DG>
-15.1256

> <Gold.Chemscore.ZeroCoef>
-5.4800

> <Gold.Chemscore.Hbond>
2.1360

> <Gold.Chemscore.Metal>
0.0000

> <Gold.Chemscore.Lipo>
59.7282

> <Gold.Chemscore.Internal_Hbond>
0.0000

> <Gold.Chemscore.DEClash>
0.1250

> <Gold.Chemscore.DEInternal>
0.2569

> <Gold.Chemscore.Rot>
1.7487

> <Gold.Chemscore.Internal.Correction>
   9.000000E+99

> <Gold.Chemscore.Hbonds>
donor molecule, donor type, donor heavy atom, donor atom, acceptor molecule, acceptor atom, score
      L1  H     7    26       P1  7948  0.09
      L1  H    10    27       P1  7948  0.21
      P1  H  7989  7998       L1    16  0.05

> <Gold.Chemscore.Hbond.Weighted>
-7.1342

> <Gold.Chemscore.Metal.Weighted>
-0.0000

> <Gold.Chemscore.Lipo.Weighted>
-6.9882

> <Gold.Chemscore.Internal_Hbond.Weighted>
0.0000

> <Gold.Chemscore.DEClash.Weighted>
0.1250

> <Gold.Chemscore.DEInternal.Weighted>
0.2569

> <Gold.Chemscore.Rot.Weighted>
4.4768

> <Gold.Chemscore.Internal.Correction.Weighted>
   9.000000E+99

> <Gold.Protein.RotatedTorsions>
[ 6907 6896 6895 6894 ] final  115.01 input  -60.11 | X-H torsion
[ 7974 7965 7964 7962 ] final -112.34 input  175.53 | X-H torsion
[ 8008 7997 7996 7995 ] final  108.17 input   59.86 | X-H torsion
[ 10167 10162 10161 10158 ] final   63.41 input  -65.29 | X-H torsion
[ 10718 10713 10712 10709 ] final  144.34 input   66.30 | X-H torsion
[ 10763 10752 10751 10750 ] final   54.20 input  -60.55 | X-H torsion
[ 11005 11000 10999 10996 ] final   49.74 input  -57.11 | X-H torsion

> <Gold.Protein.ActiveResidues>
 VAL166  LYS551  ARG553  GLY616  TRP617  ASP618  TYR619  PRO620  LYS621  CYS622 
 ASP623  PHE694  ASN695  SER759  ASP760  ASP761  ALA762  ILE779  LEU786  VAL792 
 PHE793  MET794  SER795  GLU796  ALA797  LYS798  CYS799  TRP800  GLU811  SER814 

> <Gold.Protein.RotatedAtoms>
  152.4768  133.8157  159.7026 H   0  0  0  0  0  0  0  0  0  0  0  0  # atno 6907 bound_to 6896
  150.8790  133.7389  159.2944 H   0  0  0  0  0  0  0  0  0  0  0  0  # atno 6908 bound_to 6896
  151.4900  135.1060  159.9853 H   0  0  0  0  0  0  0  0  0  0  0  0  # atno 6909 bound_to 6896
  145.1452  140.8799  143.3679 H   0  0  0  0  0  0  0  0  0  0  0  0  # atno 7974 bound_to 7965
  156.1882  140.3081  155.9280 H   0  0  0  0  0  0  0  0  0  0  0  0  # atno 8008 bound_to 7997
  155.3233  140.0457  157.3057 H   0  0  0  0  0  0  0  0  0  0  0  0  # atno 8009 bound_to 7997
  154.5420  140.2264  155.8634 H   0  0  0  0  0  0  0  0  0  0  0  0  # atno 8010 bound_to 7997
  140.1333  144.4623  150.6852 H   0  0  0  0  0  0  0  0  0  0  0  0  # atno 10167 bound_to 10162
  157.3583  131.0961  151.0938 H   0  0  0  0  0  0  0  0  0  0  0  0  # atno 10718 bound_to 10713
  152.9802  135.5753  154.4865 H   0  0  0  0  0  0  0  0  0  0  0  0  # atno 10763 bound_to 10752
  154.4406  135.2776  155.1852 H   0  0  0  0  0  0  0  0  0  0  0  0  # atno 10764 bound_to 10752
  154.3522  135.6207  153.5702 H   0  0  0  0  0  0  0  0  0  0  0  0  # atno 10765 bound_to 10752
  140.1077  134.4996  155.8705 H   0  0  0  0  0  0  0  0  0  0  0  0  # atno 11005 bound_to 11000
  145.0490  139.3197  143.5938 LP  0  0  0  0  0  0  0  0  0  0  0  0  # atno 17320 bound_to 7965
  146.3501  139.9891  142.8687 LP  0  0  0  0  0  0  0  0  0  0  0  0  # atno 17321 bound_to 7965
  140.6804  143.2324  151.5399 LP  0  0  0  0  0  0  0  0  0  0  0  0  # atno 17342 bound_to 10162
  139.5509  144.2399  152.1527 LP  0  0  0  0  0  0  0  0  0  0  0  0  # atno 17343 bound_to 10162
  157.2088  130.6428  149.5766 LP  0  0  0  0  0  0  0  0  0  0  0  0  # atno 17370 bound_to 10713
  155.9733  130.4667  150.6297 LP  0  0  0  0  0  0  0  0  0  0  0  0  # atno 17371 bound_to 10713
  141.2122  133.6717  156.6644 LP  0  0  0  0  0  0  0  0  0  0  0  0  # atno 17394 bound_to 11000
  140.3133  134.8068  157.4194 LP  0  0  0  0  0  0  0  0  0  0  0  0  # atno 17395 bound_to 11000

$$$$
