AV-unprocessed.smi:1059|AV-procd|sdf|4655|dock3
  -GOLD-   22720 3163D 1   1.00000     0.00000
 Structure written by MMmdl.
 54 55  0  0  0  0  0  0  0  0  1 V2000
  152.6913  138.0624  156.0068 C   0  0  0  0  0  0  0  0  0  0  0  0
  152.2795  138.8809  157.2405 C   0  0  0  0  0  0  0  0  0  0  0  0
  152.4420  138.0319  158.5155 C   0  0  0  0  0  0  0  0  0  0  0  0
  150.8435  139.4356  157.0700 C   0  0  0  0  0  0  0  0  0  0  0  0
  150.5871  140.2434  155.7820 C   0  0  0  0  0  0  0  0  0  0  0  0
  151.4475  140.2560  154.9002 O   0  0  0  0  0  0  0  0  0  0  0  0
  149.4160  140.9146  155.6506 N   0  0  0  0  0  0  0  0  0  0  0  0
  149.0792  141.6923  154.4517 C   0  0  0  0  0  0  0  0  0  0  0  0
  147.9818  140.9518  153.6668 C   0  0  0  0  0  0  0  0  0  0  0  0
  146.7421  140.6855  154.5469 C   0  0  0  0  0  0  0  0  0  0  0  0
  145.8069  139.8284  153.8243 N   0  0  0  0  0  0  0  0  0  0  0  0
  146.0691  138.5887  153.3857 C   0  0  0  0  0  0  0  0  0  0  0  0
  147.1559  138.0303  153.5346 O   0  0  0  0  0  0  0  0  0  0  0  0
  144.9916  138.0458  152.7939 N   0  0  0  0  0  0  0  0  0  0  0  0
  144.8723  136.7668  152.1870 C   0  0  0  0  0  0  0  0  0  0  0  0
  143.6611  136.0647  152.3491 C   0  0  0  0  0  0  0  0  0  0  0  0
  143.5112  134.8039  151.7412 C   0  0  0  0  0  0  0  0  0  0  0  0
  144.5780  134.2899  150.9760 C   0  0  0  0  0  0  0  0  0  0  0  0
  144.4396  133.0351  150.3665 N   0  0  0  0  0  0  0  0  0  0  0  0
  144.2776  133.1152  148.9225 C   0  0  0  0  0  0  0  0  0  0  0  0
  145.4102  132.0636  150.8475 C   0  0  0  0  0  0  0  0  0  0  0  0
  145.7400  134.9626  150.8008 N   0  0  0  0  0  0  0  0  0  0  0  0
  145.8792  136.1696  151.3901 C   0  0  0  0  0  0  0  0  0  0  0  0
  147.1401  140.0505  155.8996 C   0  0  0  0  0  0  0  0  0  0  0  0
  148.2767  140.8386  156.5751 C   0  0  0  0  0  0  0  0  0  0  0  0
  152.0408  137.1979  155.8692 H   0  0  0  0  0  0  0  0  0  0  0  0
  153.7147  137.6973  156.1007 H   0  0  0  0  0  0  0  0  0  0  0  0
  152.6418  138.6640  155.0988 H   0  0  0  0  0  0  0  0  0  0  0  0
  152.9724  139.7212  157.3061 H   0  0  0  0  0  0  0  0  0  0  0  0
  151.7724  137.1716  158.5046 H   0  0  0  0  0  0  0  0  0  0  0  0
  152.2311  138.6036  159.4187 H   0  0  0  0  0  0  0  0  0  0  0  0
  153.4610  137.6547  158.6059 H   0  0  0  0  0  0  0  0  0  0  0  0
  150.1372  138.6044  157.0726 H   0  0  0  0  0  0  0  0  0  0  0  0
  150.6089  140.0553  157.9363 H   0  0  0  0  0  0  0  0  0  0  0  0
  148.7262  142.6809  154.7493 H   0  0  0  0  0  0  0  0  0  0  0  0
  149.9402  141.8703  153.8061 H   0  0  0  0  0  0  0  0  0  0  0  0
  147.6993  141.5307  152.7868 H   0  0  0  0  0  0  0  0  0  0  0  0
  148.3852  140.0068  153.2989 H   0  0  0  0  0  0  0  0  0  0  0  0
  146.2631  141.6467  154.7442 H   0  0  0  0  0  0  0  0  0  0  0  0
  144.8853  140.2052  153.6570 H   0  0  0  0  0  0  0  0  0  0  0  0
  144.1415  138.5888  152.8316 H   0  0  0  0  0  0  0  0  0  0  0  0
  142.8560  136.4816  152.9364 H   0  0  0  0  0  0  0  0  0  0  0  0
  142.5945  134.2448  151.8594 H   0  0  0  0  0  0  0  0  0  0  0  0
  143.5146  133.8483  148.6580 H   0  0  0  0  0  0  0  0  0  0  0  0
  143.9679  132.1488  148.5242 H   0  0  0  0  0  0  0  0  0  0  0  0
  145.2130  133.3999  148.4392 H   0  0  0  0  0  0  0  0  0  0  0  0
  145.4521  132.0621  151.9374 H   0  0  0  0  0  0  0  0  0  0  0  0
  146.4067  132.2854  150.4640 H   0  0  0  0  0  0  0  0  0  0  0  0
  145.1338  131.0612  150.5202 H   0  0  0  0  0  0  0  0  0  0  0  0
  146.8165  136.6650  151.1899 H   0  0  0  0  0  0  0  0  0  0  0  0
  146.2769  140.0061  156.5648 H   0  0  0  0  0  0  0  0  0  0  0  0
  147.4637  139.0200  155.7443 H   0  0  0  0  0  0  0  0  0  0  0  0
  148.5141  140.3832  157.5345 H   0  0  0  0  0  0  0  0  0  0  0  0
  147.9395  141.8490  156.8107 H   0  0  0  0  0  0  0  0  0  0  0  0
  1  2  1  0  0  0  0
  1 26  1  0  0  0  0
  1 27  1  0  0  0  0
  1 28  1  0  0  0  0
  2  3  1  0  0  0  0
  2  4  1  0  0  0  0
  2 29  1  0  0  0  0
  3 30  1  0  0  0  0
  3 31  1  0  0  0  0
  3 32  1  0  0  0  0
  4  5  1  0  0  0  0
  4 33  1  0  0  0  0
  4 34  1  0  0  0  0
  5  6  2  0  0  0  0
  5  7  1  0  0  0  0
  7 25  1  0  0  0  0
  7  8  1  0  0  0  0
  8  9  1  0  0  0  0
  8 35  1  0  0  0  0
  8 36  1  0  0  0  0
  9 10  1  0  0  0  0
  9 37  1  0  0  0  0
  9 38  1  0  0  0  0
 10 11  1  0  0  0  0
 10 24  1  0  0  0  0
 10 39  1  0  0  0  0
 11 12  1  0  0  0  0
 11 40  1  0  0  0  0
 12 13  2  0  0  0  0
 12 14  1  0  0  0  0
 14 15  1  0  0  0  0
 14 41  1  0  0  0  0
 15 23  1  0  0  0  0
 15 16  2  0  0  0  0
 16 17  1  0  0  0  0
 16 42  1  0  0  0  0
 17 18  2  0  0  0  0
 17 43  1  0  0  0  0
 18 19  1  0  0  0  0
 18 22  1  0  0  0  0
 19 20  1  0  0  0  0
 19 21  1  0  0  0  0
 20 44  1  0  0  0  0
 20 45  1  0  0  0  0
 20 46  1  0  0  0  0
 21 47  1  0  0  0  0
 21 48  1  0  0  0  0
 21 49  1  0  0  0  0
 22 23  2  0  0  0  0
 23 50  1  0  0  0  0
 24 25  1  0  0  0  0
 24 51  1  0  0  0  0
 24 52  1  0  0  0  0
 25 53  1  0  0  0  0
 25 54  1  0  0  0  0
M  END
> <s_m_source_file>
AV-unprocessed.smi

> <i_m_source_file_index>
1059

> <i_lp_mmshare_version>
43012

> <i_f3d_flags>
0

> <s_epik_input>
W0NIM11bQ0hdKFtDSDNdKVtDSDJdQyg9TylOMVtDSDJdW0NIMl1bQ0hdKFtDSDJdW0NIMl0xKVtOSF1DKD1PKVtOSF1jMltjSF1bY0hdYyhOKFtDSDNdKVtDSDNdKW5bY0hdMg==

> <s_epik_cmdline>
J2VwaWtfcHl0aG9uJywgJy1waCcsICc3LjAnLCAnLXRuJywgJzgnLCAnLW1hJywgJzIwMCcsICctbWV0YWxfYmluZGluZycsICctaW1hZScsICc8aW5maWxlLm1hZT4nLCAnLW9tYWUnLCAnPG91dGZpbGUubWFlPic=

> <r_lp_tautomer_probability>
1

> <r_epik_Ionization_Penalty>
0.622059

> <r_epik_Ionization_Penalty_Charging>
0

> <r_epik_Ionization_Penalty_Neutral>
0.622059

> <r_epik_State_Penalty>
0.637048

> <r_epik_Charging_Adjusted_Penalty>
0.637048

> <i_epik_Tot_Q>
0

> <i_epik_Tot_abs_Q>
0

> <r_epik_Metal_State_Penalty>
0.306613

> <b_epik_Metal_Only>
0

> <s_lp_Force_Field>
OPLS_2005

> <r_lp_Energy>
31.4899

> <b_lp_Chiralities_Consistent>
1

> <s_lp_Variant>
AV-unprocessed.smi:1059-2

> <Gold.Version>
5.8.1

> <Gold.Id.Protein>
6NUR|6NUR_protein|mol2

> <Gold.PLP.Fitness>
45.5931

> <Gold.PLP.PLP>
-35.0697

> <Gold.PLP.part.hbond>
-3.0886

> <Gold.PLP.part.metal>
0.0000

> <Gold.PLP.part.buried>
-3.0258

> <Gold.PLP.part.nonpolar>
-29.3857

> <Gold.PLP.part.repulsive>
0.5571

> <Gold.PLP.ligand.clash>
0.0000

> <Gold.PLP.ligand.torsion>
0.5456

> <Gold.PLP.Chemscore.Hbond>
2.7840

> <Gold.PLP.Chemscore.CHOScore>
1.0000

> <Gold.PLP.Chemscore.Metal>
0.0000

> <Gold.Chemscore.Hbonds>
donor molecule, donor type, donor heavy atom, donor atom, acceptor molecule, acceptor atom, score
      L1  H    11    40       P1 10175  0.91
      L1  H    14    41       P1 10175  0.72
      P1  H  7989  7998       L1     6  1.00
      L1  C    23    50       P1  7948  1.00

> <Gold.PLP.Chemscore.Internal.Correction>
0.2625

> <Gold.Rescore>
     Score         DG    S(hbond)    S(metal)    S(lipo)     H(rot)  DE(clash)    DE(int)     intcor
     15.86     -19.46       2.57        0.00      79.47       1.52       0.05       3.55       ----

> <Gold.Chemscore.Fitness>
15.8640

> <Gold.Chemscore.DG>
-19.4612

> <Gold.Chemscore.ZeroCoef>
-5.4800

> <Gold.Chemscore.Hbond>
2.5700

> <Gold.Chemscore.Metal>
0.0000

> <Gold.Chemscore.Lipo>
79.4651

> <Gold.Chemscore.Internal_Hbond>
0.0000

> <Gold.Chemscore.DEClash>
0.0461

> <Gold.Chemscore.DEInternal>
3.5510

> <Gold.Chemscore.Rot>
1.5235

> <Gold.Chemscore.Internal.Correction>
   9.000000E+99

> <Gold.Chemscore.Hbonds>
donor molecule, donor type, donor heavy atom, donor atom, acceptor molecule, acceptor atom, score
      L1  H    11    40       P1 10175  0.88
      L1  H    14    41       P1 10175  0.71
      P1  H  7989  7998       L1     6  0.91

> <Gold.Chemscore.Hbond.Weighted>
-8.5839

> <Gold.Chemscore.Metal.Weighted>
-0.0000

> <Gold.Chemscore.Lipo.Weighted>
-9.2974

> <Gold.Chemscore.Internal_Hbond.Weighted>
0.0000

> <Gold.Chemscore.DEClash.Weighted>
0.0461

> <Gold.Chemscore.DEInternal.Weighted>
3.5510

> <Gold.Chemscore.Rot.Weighted>
3.9001

> <Gold.Chemscore.Internal.Correction.Weighted>
   9.000000E+99

> <Gold.Protein.RotatedTorsions>
[ 6907 6896 6895 6894 ] final  -12.83 input  -60.11 | X-H torsion
[ 7974 7965 7964 7962 ] final   57.22 input  175.53 | X-H torsion
[ 8008 7997 7996 7995 ] final -149.84 input   59.86 | X-H torsion
[ 10167 10162 10161 10158 ] final -132.13 input  -65.29 | X-H torsion
[ 10718 10713 10712 10709 ] final  -67.10 input   66.30 | X-H torsion
[ 10763 10752 10751 10750 ] final  -20.77 input  -60.55 | X-H torsion
[ 11005 11000 10999 10996 ] final   50.92 input  -57.11 | X-H torsion

> <Gold.Protein.ActiveResidues>
 VAL166  LYS551  ARG553  GLY616  TRP617  ASP618  TYR619  PRO620  LYS621  CYS622 
 ASP623  PHE694  ASN695  SER759  ASP760  ASP761  ALA762  ILE779  LEU786  VAL792 
 PHE793  MET794  SER795  GLU796  ALA797  LYS798  CYS799  TRP800  GLU811  SER814 

> <Gold.Protein.RotatedAtoms>
  151.3643  135.0910  159.9444 H   0  0  0  0  0  0  0  0  0  0  0  0  # atno 6907 bound_to 6896
  152.5153  133.9227  159.7552 H   0  0  0  0  0  0  0  0  0  0  0  0  # atno 6908 bound_to 6896
  150.9628  133.6372  159.2780 H   0  0  0  0  0  0  0  0  0  0  0  0  # atno 6909 bound_to 6896
  145.9314  139.3811  143.0418 H   0  0  0  0  0  0  0  0  0  0  0  0  # atno 7974 bound_to 7965
  155.6141  140.0674  157.2697 H   0  0  0  0  0  0  0  0  0  0  0  0  # atno 8008 bound_to 7997
  154.4246  140.1796  156.1351 H   0  0  0  0  0  0  0  0  0  0  0  0  # atno 8009 bound_to 7997
  156.0062  140.3331  155.6898 H   0  0  0  0  0  0  0  0  0  0  0  0  # atno 8010 bound_to 7997
  139.9117  143.6486  152.2574 H   0  0  0  0  0  0  0  0  0  0  0  0  # atno 10167 bound_to 10162
  156.0576  130.4272  150.1805 H   0  0  0  0  0  0  0  0  0  0  0  0  # atno 10718 bound_to 10713
  153.6256  135.6991  153.5294 H   0  0  0  0  0  0  0  0  0  0  0  0  # atno 10763 bound_to 10752
  153.2902  135.4159  155.1159 H   0  0  0  0  0  0  0  0  0  0  0  0  # atno 10764 bound_to 10752
  154.8533  135.3623  154.5797 H   0  0  0  0  0  0  0  0  0  0  0  0  # atno 10765 bound_to 10752
  140.0976  134.5124  155.8792 H   0  0  0  0  0  0  0  0  0  0  0  0  # atno 11005 bound_to 11000
  145.8421  140.9575  143.0794 LP  0  0  0  0  0  0  0  0  0  0  0  0  # atno 17320 bound_to 7965
  144.6765  140.0297  143.7483 LP  0  0  0  0  0  0  0  0  0  0  0  0  # atno 17321 bound_to 7965
  139.6937  144.7644  151.1394 LP  0  0  0  0  0  0  0  0  0  0  0  0  # atno 17342 bound_to 10162
  140.7684  143.5554  150.9158 LP  0  0  0  0  0  0  0  0  0  0  0  0  # atno 17343 bound_to 10162
  156.9879  130.9884  151.3422 LP  0  0  0  0  0  0  0  0  0  0  0  0  # atno 17370 bound_to 10713
  157.5559  130.8213  149.8203 LP  0  0  0  0  0  0  0  0  0  0  0  0  # atno 17371 bound_to 10713
  141.2096  133.6686  156.6454 LP  0  0  0  0  0  0  0  0  0  0  0  0  # atno 17394 bound_to 11000
  140.3264  134.7965  157.4292 LP  0  0  0  0  0  0  0  0  0  0  0  0  # atno 17395 bound_to 11000

$$$$
