AV-unprocessed.smi:2623|AV-procd|sdf|10230|dock4
  -GOLD-   2272014233D 1   1.00000     0.00000
 Structure written by MMmdl.
 40 42  0  0  0  0  0  0  0  0  1 V2000
  150.3657  138.5439  154.7898 O   0  0  0  0  0  0  0  0  0  0  0  0
  151.6665  139.0060  155.0945 C   0  0  0  0  0  0  0  0  0  0  0  0
  151.7104  140.0306  156.1932 C   0  0  0  0  0  0  0  0  0  0  0  0
  152.4453  139.8840  157.2984 N   0  0  0  0  0  0  0  0  0  0  0  0
  152.1881  141.0479  157.9951 C   0  0  0  0  0  0  0  0  0  0  0  0
  152.6703  141.4952  159.2463 C   0  0  0  0  0  0  0  0  0  0  0  0
  152.2628  142.7421  159.7642 C   0  0  0  0  0  0  0  0  0  0  0  0
  151.3693  143.5575  159.0401 C   0  0  0  0  0  0  0  0  0  0  0  0
  150.8772  143.1309  157.7915 C   0  0  0  0  0  0  0  0  0  0  0  0
  151.2871  141.8853  157.2788 C   0  0  0  0  0  0  0  0  0  0  0  0
  150.9996  141.1836  156.1114 N   0  0  0  0  0  0  0  0  0  0  0  0
  150.1190  141.6201  155.0354 C   0  0  0  0  0  0  0  0  0  0  0  0
  148.6241  141.4471  155.3755 C   0  0  1  0  0  0  0  0  0  0  0  0
  148.2915  142.2198  156.5120 O   0  0  0  0  0  0  0  0  0  0  0  0
  147.7059  141.8682  154.2191 C   0  0  0  0  0  0  0  0  0  0  0  0
  146.4073  142.1341  154.7325 O   0  0  0  0  0  0  0  0  0  0  0  0
  145.7546  143.2684  154.2998 C   0  0  0  0  0  0  0  0  0  0  0  0
  144.8354  143.8572  155.1928 C   0  0  0  0  0  0  0  0  0  0  0  0
  144.1264  145.0203  154.8354 C   0  0  0  0  0  0  0  0  0  0  0  0
  144.3314  145.6092  153.5742 C   0  0  0  0  0  0  0  0  0  0  0  0
  145.2443  145.0320  152.6723 C   0  0  0  0  0  0  0  0  0  0  0  0
  145.9529  143.8682  153.0299 C   0  0  0  0  0  0  0  0  0  0  0  0
  150.4394  137.7474  154.2872 H   0  0  0  0  0  0  0  0  0  0  0  0
  152.2783  138.1504  155.3810 H   0  0  0  0  0  0  0  0  0  0  0  0
  152.0986  139.4285  154.1880 H   0  0  0  0  0  0  0  0  0  0  0  0
  153.3548  140.8773  159.8083 H   0  0  0  0  0  0  0  0  0  0  0  0
  152.6372  143.0737  160.7217 H   0  0  0  0  0  0  0  0  0  0  0  0
  151.0613  144.5107  159.4443 H   0  0  0  0  0  0  0  0  0  0  0  0
  150.1920  143.7533  157.2358 H   0  0  0  0  0  0  0  0  0  0  0  0
  150.3368  142.6654  154.8130 H   0  0  0  0  0  0  0  0  0  0  0  0
  150.3702  141.0662  154.1307 H   0  0  0  0  0  0  0  0  0  0  0  0
  148.4201  140.4053  155.6232 H   0  0  0  0  0  0  0  0  0  0  0  0
  148.3880  143.1339  156.2933 H   0  0  0  0  0  0  0  0  0  0  0  0
  148.1017  142.7710  153.7501 H   0  0  0  0  0  0  0  0  0  0  0  0
  147.6686  141.0817  153.4631 H   0  0  0  0  0  0  0  0  0  0  0  0
  144.6720  143.4122  156.1634 H   0  0  0  0  0  0  0  0  0  0  0  0
  143.4261  145.4608  155.5297 H   0  0  0  0  0  0  0  0  0  0  0  0
  143.7897  146.5021  153.2990 H   0  0  0  0  0  0  0  0  0  0  0  0
  145.4029  145.4832  151.7039 H   0  0  0  0  0  0  0  0  0  0  0  0
  146.6449  143.4566  152.3113 H   0  0  0  0  0  0  0  0  0  0  0  0
  1  2  1  0  0  0  0
  1 23  1  0  0  0  0
  2  3  1  0  0  0  0
  2 24  1  0  0  0  0
  2 25  1  0  0  0  0
  3 11  1  0  0  0  0
  3  4  2  0  0  0  0
  4  5  1  0  0  0  0
  5 10  2  0  0  0  0
  5  6  1  0  0  0  0
  6  7  2  0  0  0  0
  6 26  1  0  0  0  0
  7  8  1  0  0  0  0
  7 27  1  0  0  0  0
  8  9  2  0  0  0  0
  8 28  1  0  0  0  0
  9 10  1  0  0  0  0
  9 29  1  0  0  0  0
 10 11  1  0  0  0  0
 11 12  1  0  0  0  0
 12 13  1  0  0  0  0
 12 30  1  0  0  0  0
 12 31  1  0  0  0  0
 13 14  1  0  0  0  0
 13 15  1  0  0  0  0
 13 32  1  0  0  0  0
 14 33  1  0  0  0  0
 15 16  1  0  0  0  0
 15 34  1  0  0  0  0
 15 35  1  0  0  0  0
 16 17  1  0  0  0  0
 17 22  1  0  0  0  0
 17 18  2  0  0  0  0
 18 19  1  0  0  0  0
 18 36  1  0  0  0  0
 19 20  2  0  0  0  0
 19 37  1  0  0  0  0
 20 21  1  0  0  0  0
 20 38  1  0  0  0  0
 21 22  2  0  0  0  0
 21 39  1  0  0  0  0
 22 40  1  0  0  0  0
M  END
> <s_m_source_file>
AV-unprocessed.smi

> <i_m_source_file_index>
2623

> <i_lp_mmshare_version>
43012

> <i_f3d_flags>
0

> <s_epik_input>
W2NIXTFbY0hdW2NIXVtjSF1jKGMxMiluKGMobjIpW0NIMl1bT0hdKVtDSDJdW0NASF0oW09IXSlbQ0gyXU9jM1tjSF1bY0hdW2NIXVtjSF1bY0hdMw==

> <s_epik_cmdline>
J2VwaWtfcHl0aG9uJywgJy1waCcsICc3LjAnLCAnLXRuJywgJzgnLCAnLW1hJywgJzIwMCcsICctbWV0YWxfYmluZGluZycsICctaW1hZScsICc8aW5maWxlLm1hZT4nLCAnLW9tYWUnLCAnPG91dGZpbGUubWFlPic=

> <r_lp_tautomer_probability>
1

> <r_epik_Ionization_Penalty>
0.0583159

> <r_epik_Ionization_Penalty_Charging>
0

> <r_epik_Ionization_Penalty_Neutral>
0.0583159

> <r_epik_State_Penalty>
0.0503525

> <r_epik_Charging_Adjusted_Penalty>
0.0503525

> <i_epik_Tot_Q>
0

> <i_epik_Tot_abs_Q>
0

> <r_epik_Metal_State_Penalty>
5.25517e-05

> <b_epik_Metal_Only>
0

> <s_lp_Force_Field>
OPLS_2005

> <r_lp_Energy>
15.201

> <b_lp_Chiralities_Consistent>
1

> <s_lp_Variant>
AV-unprocessed.smi:2623-2

> <Gold.Version>
5.8.1

> <Gold.Id.Protein>
6NUR|6NUR_protein|mol2

> <Gold.PLP.Fitness>
53.1000

> <Gold.PLP.PLP>
-49.2834

> <Gold.PLP.part.hbond>
-2.0000

> <Gold.PLP.part.metal>
0.0000

> <Gold.PLP.part.buried>
-5.0867

> <Gold.PLP.part.nonpolar>
-41.6678

> <Gold.PLP.part.repulsive>
0.1579

> <Gold.PLP.ligand.clash>
0.0000

> <Gold.PLP.ligand.torsion>
1.1523

> <Gold.PLP.Chemscore.Hbond>
2.0000

> <Gold.PLP.Chemscore.CHOScore>
0.0000

> <Gold.PLP.Chemscore.Metal>
0.0000

> <Gold.Chemscore.Hbonds>
donor molecule, donor type, donor heavy atom, donor atom, acceptor molecule, acceptor atom, score
      L1  H    14    33       P1  8028  1.00
      P1  H  7997  8008       L1     4  0.93

> <Gold.PLP.Chemscore.Internal.Correction>
0.1212

> <Gold.Rescore>
     Score         DG    S(hbond)    S(metal)    S(lipo)     H(rot)  DE(clash)    DE(int)     intcor
     14.77     -16.28       1.03        0.00     129.43       3.04       0.45       1.06       ----

> <Gold.Chemscore.Fitness>
14.7711

> <Gold.Chemscore.DG>
-16.2750

> <Gold.Chemscore.ZeroCoef>
-5.4800

> <Gold.Chemscore.Hbond>
1.0250

> <Gold.Chemscore.Metal>
0.0000

> <Gold.Chemscore.Lipo>
129.4283

> <Gold.Chemscore.Internal_Hbond>
0.0000

> <Gold.Chemscore.DEClash>
0.4455

> <Gold.Chemscore.DEInternal>
1.0584

> <Gold.Chemscore.Rot>
3.0358

> <Gold.Chemscore.Internal.Correction>
   9.000000E+99

> <Gold.Chemscore.Hbonds>
donor molecule, donor type, donor heavy atom, donor atom, acceptor molecule, acceptor atom, score
      L1  H    14    33       P1  8028  0.78
      P1  H  7997  8008       L1     4  0.13

> <Gold.Chemscore.Hbond.Weighted>
-3.4235

> <Gold.Chemscore.Metal.Weighted>
-0.0000

> <Gold.Chemscore.Lipo.Weighted>
-15.1431

> <Gold.Chemscore.Internal_Hbond.Weighted>
0.0000

> <Gold.Chemscore.DEClash.Weighted>
0.4455

> <Gold.Chemscore.DEInternal.Weighted>
1.0584

> <Gold.Chemscore.Rot.Weighted>
7.7716

> <Gold.Chemscore.Internal.Correction.Weighted>
   9.000000E+99

> <Gold.Protein.RotatedTorsions>
[ 6907 6896 6895 6894 ] final  176.03 input  -60.11 | X-H torsion
[ 7974 7965 7964 7962 ] final  -37.09 input  175.53 | X-H torsion
[ 8008 7997 7996 7995 ] final  -54.02 input   59.86 | X-H torsion
[ 10167 10162 10161 10158 ] final   49.72 input  -65.29 | X-H torsion
[ 10718 10713 10712 10709 ] final  -27.18 input   66.30 | X-H torsion
[ 10763 10752 10751 10750 ] final  -46.76 input  -60.55 | X-H torsion
[ 11005 11000 10999 10996 ] final -145.66 input  -57.11 | X-H torsion

> <Gold.Protein.ActiveResidues>
 VAL166  LYS551  ARG553  GLY616  TRP617  ASP618  TYR619  PRO620  LYS621  CYS622 
 ASP623  PHE694  ASN695  SER759  ASP760  ASP761  ALA762  ILE779  LEU786  VAL792 
 PHE793  MET794  SER795  GLU796  ALA797  LYS798  CYS799  TRP800  GLU811  SER814 

> <Gold.Protein.RotatedAtoms>
  151.7267  133.3316  159.3329 H   0  0  0  0  0  0  0  0  0  0  0  0  # atno 6907 bound_to 6896
  150.7630  134.6399  159.6241 H   0  0  0  0  0  0  0  0  0  0  0  0  # atno 6908 bound_to 6896
  152.3617  134.6864  160.0256 H   0  0  0  0  0  0  0  0  0  0  0  0  # atno 6909 bound_to 6896
  146.0605  140.6355  142.8999 H   0  0  0  0  0  0  0  0  0  0  0  0  # atno 7974 bound_to 7965
  154.4150  140.1186  156.5249 H   0  0  0  0  0  0  0  0  0  0  0  0  # atno 8008 bound_to 7997
  155.6665  140.3496  155.4783 H   0  0  0  0  0  0  0  0  0  0  0  0  # atno 8009 bound_to 7997
  155.9669  140.1134  157.0836 H   0  0  0  0  0  0  0  0  0  0  0  0  # atno 8010 bound_to 7997
  140.2799  144.3168  150.6267 H   0  0  0  0  0  0  0  0  0  0  0  0  # atno 10167 bound_to 10162
  156.4416  130.4465  149.7049 H   0  0  0  0  0  0  0  0  0  0  0  0  # atno 10718 bound_to 10713
  154.0503  135.6632  153.4799 H   0  0  0  0  0  0  0  0  0  0  0  0  # atno 10763 bound_to 10752
  153.0466  135.5110  154.7757 H   0  0  0  0  0  0  0  0  0  0  0  0  # atno 10764 bound_to 10752
  154.6761  135.3037  154.9643 H   0  0  0  0  0  0  0  0  0  0  0  0  # atno 10765 bound_to 10752
  140.7900  134.2979  157.5016 H   0  0  0  0  0  0  0  0  0  0  0  0  # atno 11005 bound_to 11000
  144.7172  140.4251  143.7035 LP  0  0  0  0  0  0  0  0  0  0  0  0  # atno 17320 bound_to 7965
  145.6568  139.1574  143.2831 LP  0  0  0  0  0  0  0  0  0  0  0  0  # atno 17321 bound_to 7965
  140.5820  143.2172  151.7411 LP  0  0  0  0  0  0  0  0  0  0  0  0  # atno 17342 bound_to 10162
  139.4965  144.4066  152.0125 LP  0  0  0  0  0  0  0  0  0  0  0  0  # atno 17343 bound_to 10162
  156.3912  130.7628  151.2629 LP  0  0  0  0  0  0  0  0  0  0  0  0  # atno 17370 bound_to 10713
  157.7506  131.0267  150.3975 LP  0  0  0  0  0  0  0  0  0  0  0  0  # atno 17371 bound_to 10713
  139.8732  134.9369  156.3672 LP  0  0  0  0  0  0  0  0  0  0  0  0  # atno 17394 bound_to 11000
  140.9399  133.7522  156.0133 LP  0  0  0  0  0  0  0  0  0  0  0  0  # atno 17395 bound_to 11000

$$$$
