AV-unprocessed.smi:1464|AV-procd|sdf|5936|dock7
  -GOLD-   22720 6 13D 1   1.00000     0.00000
 Structure written by MMmdl.
 40 41  0  0  0  0  0  0  0  0  2 V2000
  152.0184  145.1964  158.9714 C   0  0  0  0  0  0  0  0  0  0  0  0
  152.2970  143.7241  158.6250 C   0  0  1  0  0  0  0  0  0  0  0  0
  152.8166  142.9381  159.8459 C   0  0  0  0  0  0  0  0  0  0  0  0
  153.1889  141.4951  159.4704 C   0  0  0  0  0  0  0  0  0  0  0  0
  152.0181  140.7695  158.7908 C   0  0  0  0  0  0  0  0  0  0  0  0
  151.5078  141.5564  157.5683 C   0  0  1  0  0  0  0  0  0  0  0  0
  150.4204  140.8223  156.9252 N   0  0  0  0  0  0  0  0  0  0  0  0
  150.5022  140.1887  155.7451 C   0  0  0  0  0  0  0  0  0  0  0  0
  151.5386  140.1296  155.0819 O   0  0  0  0  0  0  0  0  0  0  0  0
  149.2135  139.5112  155.2542 C   0  0  0  0  0  0  0  0  0  0  0  0
  148.0605  140.4210  155.1882 N   0  0  0  0  0  0  0  0  0  0  0  0
  146.9527  140.0382  156.0595 N   0  5  0  0  0  0  0  0  0  0  0  0
  145.8191  140.7885  156.0585 C   0  0  0  0  0  0  0  0  0  0  0  0
  144.8387  140.5158  156.7474 O   0  0  0  0  0  0  0  0  0  0  0  0
  145.7783  141.9656  155.2067 C   0  0  0  0  0  0  0  0  0  0  0  0
  146.8290  142.3146  154.4384 C   0  0  0  0  0  0  0  0  0  0  0  0
  148.0613  141.5365  154.4030 C   0  0  0  0  0  0  0  0  0  0  0  0
  149.0300  141.8572  153.7133 O   0  0  0  0  0  0  0  0  0  0  0  0
  151.0976  143.0065  157.9497 C   0  0  1  0  0  0  0  0  0  0  0  0
  149.7908  143.0733  158.7747 C   0  0  0  0  0  0  0  0  0  0  0  0
  151.2919  145.2930  159.7780 H   0  0  0  0  0  0  0  0  0  0  0  0
  151.6361  145.7389  158.1063 H   0  0  0  0  0  0  0  0  0  0  0  0
  152.9305  145.6977  159.2960 H   0  0  0  0  0  0  0  0  0  0  0  0
  153.1046  143.7371  157.8911 H   0  0  0  0  0  0  0  0  0  0  0  0
  153.6915  143.4376  160.2634 H   0  0  0  0  0  0  0  0  0  0  0  0
  152.0656  142.9309  160.6362 H   0  0  0  0  0  0  0  0  0  0  0  0
  154.0478  141.5048  158.7982 H   0  0  0  0  0  0  0  0  0  0  0  0
  153.5005  140.9476  160.3603 H   0  0  0  0  0  0  0  0  0  0  0  0
  152.3395  139.7732  158.4847 H   0  0  0  0  0  0  0  0  0  0  0  0
  151.2115  140.6216  159.5097 H   0  0  0  0  0  0  0  0  0  0  0  0
  152.3343  141.6125  156.8566 H   0  0  0  0  0  0  0  0  0  0  0  0
  149.5311  140.8148  157.4030 H   0  0  0  0  0  0  0  0  0  0  0  0
  149.4174  139.0744  154.2750 H   0  0  0  0  0  0  0  0  0  0  0  0
  148.9679  138.6702  155.9055 H   0  0  0  0  0  0  0  0  0  0  0  0
  144.8874  142.5758  155.1923 H   0  0  0  0  0  0  0  0  0  0  0  0
  146.7560  143.1992  153.8234 H   0  0  0  0  0  0  0  0  0  0  0  0
  150.8951  143.5391  157.0191 H   0  0  0  0  0  0  0  0  0  0  0  0
  149.8916  142.5853  159.7433 H   0  0  0  0  0  0  0  0  0  0  0  0
  148.9623  142.5961  158.2515 H   0  0  0  0  0  0  0  0  0  0  0  0
  149.4835  144.1028  158.9542 H   0  0  0  0  0  0  0  0  0  0  0  0
  1  2  1  0  0  0  0
  1 21  1  0  0  0  0
  1 22  1  0  0  0  0
  1 23  1  0  0  0  0
  2 19  1  0  0  0  0
  2  3  1  0  0  0  0
  2 24  1  0  0  0  0
  3  4  1  0  0  0  0
  3 25  1  0  0  0  0
  3 26  1  0  0  0  0
  4  5  1  0  0  0  0
  4 27  1  0  0  0  0
  4 28  1  0  0  0  0
  5  6  1  0  0  0  0
  5 29  1  0  0  0  0
  5 30  1  0  0  0  0
  6  7  1  0  0  0  0
  6 19  1  0  0  0  0
  6 31  1  0  0  0  0
  7  8  1  0  0  0  0
  7 32  1  0  0  0  0
  8  9  2  0  0  0  0
  8 10  1  0  0  0  0
 10 33  1  0  0  0  0
 10 34  1  0  0  0  0
 10 11  1  0  0  0  0
 11 12  1  0  0  0  0
 11 17  1  0  0  0  0
 12 13  1  0  0  0  0
 13 14  2  0  0  0  0
 13 15  1  0  0  0  0
 15 35  1  0  0  0  0
 15 16  2  0  0  0  0
 16 36  1  0  0  0  0
 16 17  1  0  0  0  0
 17 18  2  0  0  0  0
 19 20  1  0  0  0  0
 19 37  1  0  0  0  0
 20 38  1  0  0  0  0
 20 39  1  0  0  0  0
 20 40  1  0  0  0  0
M  CHG  1  12  -1
M  END
> <s_m_source_file>
AV-unprocessed.smi

> <i_m_source_file_index>
1464

> <i_lp_mmshare_version>
43012

> <i_f3d_flags>
0

> <s_epik_input>
W0NIM11bQ0BASF0xW0NIMl1bQ0gyXVtDSDJdW0NASF0oW0NASF0xW0NIM10pW05IXUMoPU8pW0NIMl1uMltuSF1jKD1PKVtjSF1bY0hdYzI9Tw==

> <s_epik_cmdline>
J2VwaWtfcHl0aG9uJywgJy1waCcsICc3LjAnLCAnLXRuJywgJzgnLCAnLW1hJywgJzIwMCcsICctbWV0YWxfYmluZGluZycsICctaW1hZScsICc8aW5maWxlLm1hZT4nLCAnLW9tYWUnLCAnPG91dGZpbGUubWFlPic=

> <r_lp_tautomer_probability>
1

> <r_epik_Ionization_Penalty>
0.101366

> <r_epik_Ionization_Penalty_Charging>
0.101366

> <r_epik_Ionization_Penalty_Neutral>
1.90469e-08

> <r_epik_State_Penalty>
0.035861

> <r_epik_Charging_Adjusted_Penalty>
0.137227

> <i_epik_Tot_Q>
-1

> <i_epik_Tot_abs_Q>
1

> <r_epik_Metal_State_Penalty>
0.035861

> <b_epik_Metal_Only>
0

> <s_lp_Force_Field>
OPLS_2005

> <r_lp_Energy>
30.1614

> <b_lp_Chiralities_Consistent>
1

> <s_lp_Variant>
AV-unprocessed.smi:1464-2

> <Gold.Version>
5.8.1

> <Gold.Id.Protein>
6NUR|6NUR_protein|mol2

> <Gold.PLP.Fitness>
43.8125

> <Gold.PLP.PLP>
-38.9223

> <Gold.PLP.part.hbond>
-2.5163

> <Gold.PLP.part.metal>
0.0000

> <Gold.PLP.part.buried>
-4.7517

> <Gold.PLP.part.nonpolar>
-32.6044

> <Gold.PLP.part.repulsive>
1.3521

> <Gold.PLP.ligand.clash>
0.0000

> <Gold.PLP.ligand.torsion>
0.1184

> <Gold.PLP.Chemscore.Hbond>
1.7040

> <Gold.PLP.Chemscore.CHOScore>
0.0000

> <Gold.PLP.Chemscore.Metal>
0.0000

> <Gold.Chemscore.Hbonds>
donor molecule, donor type, donor heavy atom, donor atom, acceptor molecule, acceptor atom, score
      P1  H  7989  7998       L1     9  1.00
      P1  H  8011  8017       L1    18  0.56

> <Gold.PLP.Chemscore.Internal.Correction>
0.0151

> <Gold.Rescore>
     Score         DG    S(hbond)    S(metal)    S(lipo)     H(rot)  DE(clash)    DE(int)     intcor
     17.48     -17.71       1.67        0.00      92.84       1.64       0.03       0.20       ----

> <Gold.Chemscore.Fitness>
17.4752

> <Gold.Chemscore.DG>
-17.7106

> <Gold.Chemscore.ZeroCoef>
-5.4800

> <Gold.Chemscore.Hbond>
1.6694

> <Gold.Chemscore.Metal>
0.0000

> <Gold.Chemscore.Lipo>
92.8430

> <Gold.Chemscore.Internal_Hbond>
0.0000

> <Gold.Chemscore.DEClash>
0.0343

> <Gold.Chemscore.DEInternal>
0.2010

> <Gold.Chemscore.Rot>
1.6438

> <Gold.Chemscore.Internal.Correction>
   9.000000E+99

> <Gold.Chemscore.Hbonds>
donor molecule, donor type, donor heavy atom, donor atom, acceptor molecule, acceptor atom, score
      P1  H  7989  7998       L1     9  0.95
      P1  H  8011  8017       L1    18  0.56

> <Gold.Chemscore.Hbond.Weighted>
-5.5759

> <Gold.Chemscore.Metal.Weighted>
-0.0000

> <Gold.Chemscore.Lipo.Weighted>
-10.8626

> <Gold.Chemscore.Internal_Hbond.Weighted>
0.0000

> <Gold.Chemscore.DEClash.Weighted>
0.0343

> <Gold.Chemscore.DEInternal.Weighted>
0.2010

> <Gold.Chemscore.Rot.Weighted>
4.2080

> <Gold.Chemscore.Internal.Correction.Weighted>
   9.000000E+99

> <Gold.Protein.RotatedTorsions>
[ 6907 6896 6895 6894 ] final    0.26 input  -60.11 | X-H torsion
[ 7974 7965 7964 7962 ] final   62.37 input  175.53 | X-H torsion
[ 8008 7997 7996 7995 ] final  -13.06 input   59.86 | X-H torsion
[ 10167 10162 10161 10158 ] final  123.33 input  -65.29 | X-H torsion
[ 10718 10713 10712 10709 ] final -122.43 input   66.30 | X-H torsion
[ 10763 10752 10751 10750 ] final  -55.77 input  -60.55 | X-H torsion
[ 11005 11000 10999 10996 ] final   58.49 input  -57.11 | X-H torsion

> <Gold.Protein.ActiveResidues>
 VAL166  LYS551  ARG553  GLY616  TRP617  ASP618  TYR619  PRO620  LYS621  CYS622 
 ASP623  PHE694  ASN695  SER759  ASP760  ASP761  ALA762  ILE779  LEU786  VAL792 
 PHE793  MET794  SER795  GLU796  ALA797  LYS798  CYS799  TRP800  GLU811  SER814 

> <Gold.Protein.RotatedAtoms>
  151.5735  135.1061  160.0000 H   0  0  0  0  0  0  0  0  0  0  0  0  # atno 6907 bound_to 6896
  152.4389  133.7407  159.6650 H   0  0  0  0  0  0  0  0  0  0  0  0  # atno 6908 bound_to 6896
  150.8291  133.8052  159.3129 H   0  0  0  0  0  0  0  0  0  0  0  0  # atno 6909 bound_to 6896
  145.8741  139.3398  143.0745 H   0  0  0  0  0  0  0  0  0  0  0  0  # atno 7974 bound_to 7965
  154.5324  140.2259  155.8781 H   0  0  0  0  0  0  0  0  0  0  0  0  # atno 8008 bound_to 7997
  156.1777  140.3107  155.9054 H   0  0  0  0  0  0  0  0  0  0  0  0  # atno 8009 bound_to 7997
  155.3424  140.0451  157.3035 H   0  0  0  0  0  0  0  0  0  0  0  0  # atno 8010 bound_to 7997
  139.5806  144.6984  151.3539 H   0  0  0  0  0  0  0  0  0  0  0  0  # atno 10167 bound_to 10162
  156.1418  130.6471  150.9782 H   0  0  0  0  0  0  0  0  0  0  0  0  # atno 10718 bound_to 10713
  154.1960  135.6419  153.5073 H   0  0  0  0  0  0  0  0  0  0  0  0  # atno 10763 bound_to 10752
  153.0023  135.5440  154.6365 H   0  0  0  0  0  0  0  0  0  0  0  0  # atno 10764 bound_to 10752
  154.5766  135.2921  155.0748 H   0  0  0  0  0  0  0  0  0  0  0  0  # atno 10765 bound_to 10752
  140.0374  134.5924  155.9426 H   0  0  0  0  0  0  0  0  0  0  0  0  # atno 11005 bound_to 11000
  145.9101  140.9185  143.0458 LP  0  0  0  0  0  0  0  0  0  0  0  0  # atno 17320 bound_to 7965
  144.6726  140.1149  143.7453 LP  0  0  0  0  0  0  0  0  0  0  0  0  # atno 17321 bound_to 7965
  140.7084  143.7454  150.7523 LP  0  0  0  0  0  0  0  0  0  0  0  0  # atno 17342 bound_to 10162
  140.0985  143.4810  152.2439 LP  0  0  0  0  0  0  0  0  0  0  0  0  # atno 17343 bound_to 10162
  157.6582  131.0885  150.7898 LP  0  0  0  0  0  0  0  0  0  0  0  0  # atno 17370 bound_to 10713
  156.7973  130.4909  149.5375 LP  0  0  0  0  0  0  0  0  0  0  0  0  # atno 17371 bound_to 10713
  141.1864  133.6557  156.5240 LP  0  0  0  0  0  0  0  0  0  0  0  0  # atno 17394 bound_to 11000
  140.4125  134.7259  157.4844 LP  0  0  0  0  0  0  0  0  0  0  0  0  # atno 17395 bound_to 11000

$$$$
