AV-unprocessed.smi:951|AV-procd|sdf|4253|dock5
  -GOLD-   22720 2163D 1   1.00000     0.00000
 Structure written by MMmdl.
 52 54  0  0  0  0  0  0  0  0  2 V2000
  151.5618  139.4429  155.1717 O   0  0  0  0  0  0  0  0  0  0  0  0
  150.3502  139.4694  155.3937 C   0  0  0  0  0  0  0  0  0  0  0  0
  149.8115  140.0877  156.4553 N   0  0  0  0  0  0  0  0  0  0  0  0
  150.5648  140.8248  157.4621 C   0  0  0  0  0  0  0  0  0  0  0  0
  151.0113  142.2009  156.9408 C   0  0  0  0  0  0  0  0  0  0  0  0
  151.3060  143.1712  158.0677 C   0  0  0  0  0  0  0  0  0  0  0  0
  152.1022  142.8154  159.1779 C   0  0  0  0  0  0  0  0  0  0  0  0
  152.3304  143.7663  160.1946 C   0  0  0  0  0  0  0  0  0  0  0  0
  151.7578  145.0502  160.0802 C   0  0  0  0  0  0  0  0  0  0  0  0
  150.9689  145.3508  158.9509 C   0  0  0  0  0  0  0  0  0  0  0  0
  150.7738  144.4130  157.9981 N   0  3  0  0  0  0  0  0  0  0  0  0
  149.3647  138.7525  154.4499 C   0  0  2  0  0  0  0  0  0  0  0  0
  148.2750  139.7367  153.9963 C   0  0  0  0  0  0  0  0  0  0  0  0
  147.0553  138.8720  153.7502 C   0  0  0  0  0  0  0  0  0  0  0  0
  147.2078  137.7036  154.7219 C   0  0  0  0  0  0  0  0  0  0  0  0
  148.6346  137.6154  155.0490 N   0  0  0  0  0  0  0  0  0  0  0  0
  149.2043  136.5834  155.7251 C   0  0  0  0  0  0  0  0  0  0  0  0
  150.4256  136.4926  155.8552 O   0  0  0  0  0  0  0  0  0  0  0  0
  148.3043  135.4818  156.3391 C   0  0  0  0  0  0  0  0  0  0  0  0
  149.0842  134.4658  157.2131 C   0  0  0  0  0  0  0  0  0  0  0  0
  149.8644  133.4038  156.4114 C   0  0  0  0  0  0  0  0  0  0  0  0
  148.9711  132.7081  155.3740 C   0  0  0  0  0  0  0  0  0  0  0  0
  148.2951  133.7305  154.4495 C   0  0  0  0  0  0  0  0  0  0  0  0
  147.4733  134.7480  155.2606 C   0  0  0  0  0  0  0  0  0  0  0  0
  148.8080  140.0561  156.5645 H   0  0  0  0  0  0  0  0  0  0  0  0
  149.9655  140.9311  158.3680 H   0  0  0  0  0  0  0  0  0  0  0  0
  151.4369  140.2302  157.7353 H   0  0  0  0  0  0  0  0  0  0  0  0
  151.9012  142.0935  156.3189 H   0  0  0  0  0  0  0  0  0  0  0  0
  150.2406  142.6336  156.3014 H   0  0  0  0  0  0  0  0  0  0  0  0
  152.5320  141.8270  159.2525 H   0  0  0  0  0  0  0  0  0  0  0  0
  152.9366  143.5132  161.0522 H   0  0  0  0  0  0  0  0  0  0  0  0
  151.9208  145.7929  160.8475 H   0  0  0  0  0  0  0  0  0  0  0  0
  150.4919  146.3052  158.7823 H   0  0  0  0  0  0  0  0  0  0  0  0
  149.8982  138.3708  153.5772 H   0  0  0  0  0  0  0  0  0  0  0  0
  148.0387  140.4565  154.7824 H   0  0  0  0  0  0  0  0  0  0  0  0
  148.5662  140.3024  153.1106 H   0  0  0  0  0  0  0  0  0  0  0  0
  146.1167  139.4116  153.8789 H   0  0  0  0  0  0  0  0  0  0  0  0
  147.0840  138.4963  152.7265 H   0  0  0  0  0  0  0  0  0  0  0  0
  146.6466  137.9117  155.6340 H   0  0  0  0  0  0  0  0  0  0  0  0
  146.8226  136.7816  154.2845 H   0  0  0  0  0  0  0  0  0  0  0  0
  147.6039  135.9567  157.0238 H   0  0  0  0  0  0  0  0  0  0  0  0
  149.7651  134.9913  157.8841 H   0  0  0  0  0  0  0  0  0  0  0  0
  148.3729  133.9522  157.8614 H   0  0  0  0  0  0  0  0  0  0  0  0
  150.7213  133.8537  155.9115 H   0  0  0  0  0  0  0  0  0  0  0  0
  150.2775  132.6616  157.0951 H   0  0  0  0  0  0  0  0  0  0  0  0
  149.5626  132.0067  154.7849 H   0  0  0  0  0  0  0  0  0  0  0  0
  148.2090  132.1178  155.8846 H   0  0  0  0  0  0  0  0  0  0  0  0
  149.0487  134.2447  153.8523 H   0  0  0  0  0  0  0  0  0  0  0  0
  147.6459  133.2141  153.7418 H   0  0  0  0  0  0  0  0  0  0  0  0
  146.6466  134.2276  155.7458 H   0  0  0  0  0  0  0  0  0  0  0  0
  147.0122  135.4664  154.5818 H   0  0  0  0  0  0  0  0  0  0  0  0
  150.1991  144.6520  157.1893 H   0  0  0  0  0  0  0  0  0  0  0  0
  1  2  2  0  0  0  0
  2  3  1  0  0  0  0
  2 12  1  0  0  0  0
  3  4  1  0  0  0  0
  3 25  1  0  0  0  0
  4  5  1  0  0  0  0
  4 26  1  0  0  0  0
  4 27  1  0  0  0  0
  5  6  1  0  0  0  0
  5 28  1  0  0  0  0
  5 29  1  0  0  0  0
  6 11  1  0  0  0  0
  6  7  2  0  0  0  0
  7  8  1  0  0  0  0
  7 30  1  0  0  0  0
  8  9  2  0  0  0  0
  8 31  1  0  0  0  0
  9 10  1  0  0  0  0
  9 32  1  0  0  0  0
 10 11  2  0  0  0  0
 10 33  1  0  0  0  0
 11 52  1  0  0  0  0
 12 16  1  0  0  0  0
 12 13  1  0  0  0  0
 12 34  1  0  0  0  0
 13 14  1  0  0  0  0
 13 35  1  0  0  0  0
 13 36  1  0  0  0  0
 14 15  1  0  0  0  0
 14 37  1  0  0  0  0
 14 38  1  0  0  0  0
 15 16  1  0  0  0  0
 15 39  1  0  0  0  0
 15 40  1  0  0  0  0
 16 17  1  0  0  0  0
 17 18  2  0  0  0  0
 17 19  1  0  0  0  0
 19 24  1  0  0  0  0
 19 20  1  0  0  0  0
 19 41  1  0  0  0  0
 20 21  1  0  0  0  0
 20 42  1  0  0  0  0
 20 43  1  0  0  0  0
 21 22  1  0  0  0  0
 21 44  1  0  0  0  0
 21 45  1  0  0  0  0
 22 23  1  0  0  0  0
 22 46  1  0  0  0  0
 22 47  1  0  0  0  0
 23 24  1  0  0  0  0
 23 48  1  0  0  0  0
 23 49  1  0  0  0  0
 24 50  1  0  0  0  0
 24 51  1  0  0  0  0
M  CHG  1  11   1
M  END
> <s_m_source_file>
AV-unprocessed.smi

> <i_m_source_file_index>
951

> <i_lp_mmshare_version>
43012

> <i_f3d_flags>
0

> <s_epik_input>
bjFbY0hdW2NIXVtjSF1bY0hdYzFbQ0gyXVtDSDJdW05IXUMoPU8pW0NAQEhdMltDSDJdW0NIMl1bQ0gyXU4yQyg9TylbQ0hdM1tDSDJdW0NIMl1bQ0gyXVtDSDJdW0NIMl0z

> <s_epik_cmdline>
J2VwaWtfcHl0aG9uJywgJy1waCcsICc3LjAnLCAnLXRuJywgJzgnLCAnLW1hJywgJzIwMCcsICctbWV0YWxfYmluZGluZycsICctaW1hZScsICc8aW5maWxlLm1hZT4nLCAnLW9tYWUnLCAnPG91dGZpbGUubWFlPic=

> <r_epik_Ionization_Penalty>
1.85306

> <r_epik_Ionization_Penalty_Charging>
1.85306

> <r_epik_Ionization_Penalty_Neutral>
5.78903e-08

> <r_epik_State_Penalty>
1.97071

> <r_epik_Charging_Adjusted_Penalty>
3.82377

> <i_epik_Tot_Q>
1

> <i_epik_Tot_abs_Q>
1

> <r_epik_Metal_State_Penalty>
1.99634

> <b_epik_Metal_Only>
0

> <s_lp_Force_Field>
OPLS_2005

> <r_lp_Energy>
27.2114

> <b_lp_Chiralities_Consistent>
1

> <s_lp_Variant>
AV-unprocessed.smi:951-3

> <Gold.Version>
5.8.1

> <Gold.Id.Protein>
6NUR|6NUR_protein|mol2

> <Gold.PLP.Fitness>
51.3700

> <Gold.PLP.PLP>
-43.2218

> <Gold.PLP.part.hbond>
-2.1361

> <Gold.PLP.part.metal>
0.0000

> <Gold.PLP.part.buried>
-4.3107

> <Gold.PLP.part.nonpolar>
-36.7662

> <Gold.PLP.part.repulsive>
0.3004

> <Gold.PLP.ligand.clash>
0.0000

> <Gold.PLP.ligand.torsion>
0.4710

> <Gold.PLP.Chemscore.Hbond>
3.0000

> <Gold.PLP.Chemscore.CHOScore>
0.0000

> <Gold.PLP.Chemscore.Metal>
0.0000

> <Gold.Chemscore.Hbonds>
donor molecule, donor type, donor heavy atom, donor atom, acceptor molecule, acceptor atom, score
      L1  H    11    52       P1  8028  2.00
      P1  H  7989  7998       L1     1  0.60

> <Gold.PLP.Chemscore.Internal.Correction>
0.0904

> <Gold.Rescore>
     Score         DG    S(hbond)    S(metal)    S(lipo)     H(rot)  DE(clash)    DE(int)     intcor
     18.44     -20.48       1.91        0.00     109.96       1.65       0.04       2.00       ----

> <Gold.Chemscore.Fitness>
18.4433

> <Gold.Chemscore.DG>
-20.4839

> <Gold.Chemscore.ZeroCoef>
-5.4800

> <Gold.Chemscore.Hbond>
1.9085

> <Gold.Chemscore.Metal>
0.0000

> <Gold.Chemscore.Lipo>
109.9629

> <Gold.Chemscore.Internal_Hbond>
0.0000

> <Gold.Chemscore.DEClash>
0.0377

> <Gold.Chemscore.DEInternal>
2.0030

> <Gold.Chemscore.Rot>
1.6548

> <Gold.Chemscore.Internal.Correction>
   9.000000E+99

> <Gold.Chemscore.Hbonds>
donor molecule, donor type, donor heavy atom, donor atom, acceptor molecule, acceptor atom, score
      L1  H    11    52       P1  8028  0.39
      P1  H  7989  7998       L1     1  0.15

> <Gold.Chemscore.Hbond.Weighted>
-6.3744

> <Gold.Chemscore.Metal.Weighted>
-0.0000

> <Gold.Chemscore.Lipo.Weighted>
-12.8657

> <Gold.Chemscore.Internal_Hbond.Weighted>
0.0000

> <Gold.Chemscore.DEClash.Weighted>
0.0377

> <Gold.Chemscore.DEInternal.Weighted>
2.0030

> <Gold.Chemscore.Rot.Weighted>
4.2362

> <Gold.Chemscore.Internal.Correction.Weighted>
   9.000000E+99

> <Gold.Protein.RotatedTorsions>
[ 6907 6896 6895 6894 ] final  -79.89 input  -60.11 | X-H torsion
[ 7974 7965 7964 7962 ] final -109.19 input  175.53 | X-H torsion
[ 8008 7997 7996 7995 ] final   70.93 input   59.86 | X-H torsion
[ 10167 10162 10161 10158 ] final   86.21 input  -65.29 | X-H torsion
[ 10718 10713 10712 10709 ] final -162.86 input   66.30 | X-H torsion
[ 10763 10752 10751 10750 ] final -100.15 input  -60.55 | X-H torsion
[ 11005 11000 10999 10996 ] final -169.21 input  -57.11 | X-H torsion

> <Gold.Protein.ActiveResidues>
 VAL166  LYS551  ARG553  GLY616  TRP617  ASP618  TYR619  PRO620  LYS621  CYS622 
 ASP623  PHE694  ASN695  SER759  ASP760  ASP761  ALA762  ILE779  LEU786  VAL792 
 PHE793  MET794  SER795  GLU796  ALA797  LYS798  CYS799  TRP800  GLU811  SER814 

> <Gold.Protein.RotatedAtoms>
  150.6940  134.4053  159.5136 H   0  0  0  0  0  0  0  0  0  0  0  0  # atno 6907 bound_to 6896
  152.1820  134.8743  160.0534 H   0  0  0  0  0  0  0  0  0  0  0  0  # atno 6908 bound_to 6896
  151.9730  133.3697  159.4115 H   0  0  0  0  0  0  0  0  0  0  0  0  # atno 6909 bound_to 6896
  145.1836  140.8982  143.3465 H   0  0  0  0  0  0  0  0  0  0  0  0  # atno 7974 bound_to 7965
  155.7462  140.3489  155.5128 H   0  0  0  0  0  0  0  0  0  0  0  0  # atno 8008 bound_to 7997
  155.9047  140.1040  157.1345 H   0  0  0  0  0  0  0  0  0  0  0  0  # atno 8009 bound_to 7997
  154.4048  140.1279  156.4468 H   0  0  0  0  0  0  0  0  0  0  0  0  # atno 8010 bound_to 7997
  139.8899  144.6392  150.8750 H   0  0  0  0  0  0  0  0  0  0  0  0  # atno 10167 bound_to 10162
  156.6165  130.8872  151.2948 H   0  0  0  0  0  0  0  0  0  0  0  0  # atno 10718 bound_to 10713
  154.7555  135.4946  153.9368 H   0  0  0  0  0  0  0  0  0  0  0  0  # atno 10763 bound_to 10752
  153.1191  135.6727  153.9374 H   0  0  0  0  0  0  0  0  0  0  0  0  # atno 10764 bound_to 10752
  153.9111  135.3099  155.3427 H   0  0  0  0  0  0  0  0  0  0  0  0  # atno 10765 bound_to 10752
  140.5334  134.5594  157.5081 H   0  0  0  0  0  0  0  0  0  0  0  0  # atno 11005 bound_to 11000
  145.0111  139.3509  143.6119 LP  0  0  0  0  0  0  0  0  0  0  0  0  # atno 17320 bound_to 7965
  146.3449  139.9374  142.8745 LP  0  0  0  0  0  0  0  0  0  0  0  0  # atno 17321 bound_to 7965
  140.7728  143.3518  151.1998 LP  0  0  0  0  0  0  0  0  0  0  0  0  # atno 17342 bound_to 10162
  139.7119  143.9362  152.2951 LP  0  0  0  0  0  0  0  0  0  0  0  0  # atno 17343 bound_to 10162
  157.7240  130.9596  150.1554 LP  0  0  0  0  0  0  0  0  0  0  0  0  # atno 17370 bound_to 10713
  156.2347  130.3685  149.8405 LP  0  0  0  0  0  0  0  0  0  0  0  0  # atno 17371 bound_to 10713
  139.9542  134.7563  156.0379 LP  0  0  0  0  0  0  0  0  0  0  0  0  # atno 17394 bound_to 11000
  141.1269  133.6597  156.3359 LP  0  0  0  0  0  0  0  0  0  0  0  0  # atno 17395 bound_to 11000

$$$$
