AV-unprocessed.smi:552|AV-procd|sdf|2902|dock7
  -GOLD-   2262023393D 1   1.00000     0.00000
 Structure written by MMmdl.
 42 43  0  0  0  0  0  0  0  0  1 V2000
  149.6148  131.2548  155.3644 C   0  0  0  0  0  0  0  0  0  0  0  0
  149.8555  132.7584  155.1663 C   0  0  0  0  0  0  0  0  0  0  0  0
  148.6866  133.4867  154.4764 C   0  0  2  0  0  0  0  0  0  0  0  0
  148.2932  132.8024  153.1577 C   0  0  0  0  0  0  0  0  0  0  0  0
  149.0379  134.8834  154.2270 N   0  0  0  0  0  0  0  0  0  0  0  0
  149.4856  135.7495  155.1474 C   0  0  0  0  0  0  0  0  0  0  0  0
  149.6489  135.4600  156.3325 O   0  0  0  0  0  0  0  0  0  0  0  0
  149.7043  136.9608  154.6076 N   0  0  0  0  0  0  0  0  0  0  0  0
  150.1873  138.1339  155.2469 C   0  0  0  0  0  0  0  0  0  0  0  0
  150.1277  139.4282  154.6813 C   0  0  0  0  0  0  0  0  0  0  0  0
  150.6229  140.5191  155.4208 C   0  0  0  0  0  0  0  0  0  0  0  0
  151.1630  140.2962  156.7098 C   0  0  0  0  0  0  0  0  0  0  0  0
  151.6719  141.3753  157.4660 N   0  0  0  0  0  0  0  0  0  0  0  0
  151.0449  142.6858  157.2991 C   0  0  0  0  0  0  0  0  0  0  0  0
  151.8979  143.7791  157.9644 C   0  0  0  0  0  0  0  0  0  0  0  0
  152.1217  143.4477  159.3305 O   0  0  0  0  0  0  0  0  0  0  0  0
  152.8343  142.2230  159.4668 C   0  0  0  0  0  0  0  0  0  0  0  0
  152.0179  141.0724  158.8531 C   0  0  0  0  0  0  0  0  0  0  0  0
  151.1972  139.0557  157.2563 N   0  0  0  0  0  0  0  0  0  0  0  0
  150.7202  138.0130  156.5451 C   0  0  0  0  0  0  0  0  0  0  0  0
  150.4864  130.7805  155.8158 H   0  0  0  0  0  0  0  0  0  0  0  0
  149.4244  130.7594  154.4119 H   0  0  0  0  0  0  0  0  0  0  0  0
  148.7623  131.0659  156.0172 H   0  0  0  0  0  0  0  0  0  0  0  0
  150.0620  133.2214  156.1321 H   0  0  0  0  0  0  0  0  0  0  0  0
  150.7594  132.8881  154.5700 H   0  0  0  0  0  0  0  0  0  0  0  0
  147.8277  133.4466  155.1490 H   0  0  0  0  0  0  0  0  0  0  0  0
  148.0094  131.7629  153.3250 H   0  0  0  0  0  0  0  0  0  0  0  0
  149.1174  132.8114  152.4439 H   0  0  0  0  0  0  0  0  0  0  0  0
  147.4431  133.3014  152.6912 H   0  0  0  0  0  0  0  0  0  0  0  0
  148.9315  135.2132  153.2789 H   0  0  0  0  0  0  0  0  0  0  0  0
  149.4361  137.0727  153.6408 H   0  0  0  0  0  0  0  0  0  0  0  0
  149.6984  139.6079  153.7078 H   0  0  0  0  0  0  0  0  0  0  0  0
  150.5647  141.5107  154.9980 H   0  0  0  0  0  0  0  0  0  0  0  0
  150.9267  142.9173  156.2398 H   0  0  0  0  0  0  0  0  0  0  0  0
  150.0485  142.6679  157.7430 H   0  0  0  0  0  0  0  0  0  0  0  0
  152.8510  143.8984  157.4465 H   0  0  0  0  0  0  0  0  0  0  0  0
  151.3846  144.7394  157.9113 H   0  0  0  0  0  0  0  0  0  0  0  0
  153.8123  142.3035  158.9892 H   0  0  0  0  0  0  0  0  0  0  0  0
  153.0126  142.0330  160.5254 H   0  0  0  0  0  0  0  0  0  0  0  0
  151.0975  140.9251  159.4197 H   0  0  0  0  0  0  0  0  0  0  0  0
  152.5916  140.1509  158.9370 H   0  0  0  0  0  0  0  0  0  0  0  0
  150.7725  137.0487  157.0293 H   0  0  0  0  0  0  0  0  0  0  0  0
  1  2  1  0  0  0  0
  1 21  1  0  0  0  0
  1 22  1  0  0  0  0
  1 23  1  0  0  0  0
  2  3  1  0  0  0  0
  2 24  1  0  0  0  0
  2 25  1  0  0  0  0
  3  4  1  0  0  0  0
  3  5  1  0  0  0  0
  3 26  1  0  0  0  0
  4 27  1  0  0  0  0
  4 28  1  0  0  0  0
  4 29  1  0  0  0  0
  5  6  1  0  0  0  0
  5 30  1  0  0  0  0
  6  7  2  0  0  0  0
  6  8  1  0  0  0  0
  8  9  1  0  0  0  0
  8 31  1  0  0  0  0
  9 20  1  0  0  0  0
  9 10  2  0  0  0  0
 10 11  1  0  0  0  0
 10 32  1  0  0  0  0
 11 12  2  0  0  0  0
 11 33  1  0  0  0  0
 12 13  1  0  0  0  0
 12 19  1  0  0  0  0
 13 18  1  0  0  0  0
 13 14  1  0  0  0  0
 14 15  1  0  0  0  0
 14 34  1  0  0  0  0
 14 35  1  0  0  0  0
 15 16  1  0  0  0  0
 15 36  1  0  0  0  0
 15 37  1  0  0  0  0
 16 17  1  0  0  0  0
 17 18  1  0  0  0  0
 17 38  1  0  0  0  0
 17 39  1  0  0  0  0
 18 40  1  0  0  0  0
 18 41  1  0  0  0  0
 19 20  2  0  0  0  0
 20 42  1  0  0  0  0
M  END
> <s_m_source_file>
AV-unprocessed.smi

> <i_m_source_file_index>
552

> <i_lp_mmshare_version>
43012

> <i_f3d_flags>
0

> <s_epik_input>
W0NIM11bQ0gyXVtDQEhdKFtDSDNdKVtOSF1DKD1PKVtOSF1jMVtjSF1bY0hdYyhuW2NIXTEpTjJbQ0gyXVtDSDJdT1tDSDJdW0NIMl0y

> <s_epik_cmdline>
J2VwaWtfcHl0aG9uJywgJy1waCcsICc3LjAnLCAnLXRuJywgJzgnLCAnLW1hJywgJzIwMCcsICctbWV0YWxfYmluZGluZycsICctaW1hZScsICc8aW5maWxlLm1hZT4nLCAnLW9tYWUnLCAnPG91dGZpbGUubWFlPic=

> <r_lp_tautomer_probability>
1

> <r_epik_Ionization_Penalty>
0.00215965

> <r_epik_Ionization_Penalty_Charging>
0

> <r_epik_Ionization_Penalty_Neutral>
0.00215965

> <r_epik_State_Penalty>
0.00145276

> <r_epik_Charging_Adjusted_Penalty>
0.00145276

> <i_epik_Tot_Q>
0

> <i_epik_Tot_abs_Q>
0

> <r_epik_Metal_State_Penalty>
-0

> <b_epik_Metal_Only>
0

> <s_lp_Force_Field>
OPLS_2005

> <r_lp_Energy>
20.9108

> <b_lp_Chiralities_Consistent>
1

> <s_lp_Variant>
AV-unprocessed.smi:552-1

> <Gold.Version>
5.8.1

> <Gold.Id.Protein>
6NUR|6NUR_protein|mol2

> <Gold.PLP.Fitness>
40.0815

> <Gold.PLP.PLP>
-34.8023

> <Gold.PLP.part.hbond>
-2.0000

> <Gold.PLP.part.metal>
0.0000

> <Gold.PLP.part.buried>
-3.6194

> <Gold.PLP.part.nonpolar>
-29.8231

> <Gold.PLP.part.repulsive>
0.0806

> <Gold.PLP.ligand.clash>
0.0000

> <Gold.PLP.ligand.torsion>
0.5235

> <Gold.PLP.Chemscore.Hbond>
1.9920

> <Gold.PLP.Chemscore.CHOScore>
0.0000

> <Gold.PLP.Chemscore.Metal>
0.0000

> <Gold.Chemscore.Hbonds>
donor molecule, donor type, donor heavy atom, donor atom, acceptor molecule, acceptor atom, score
      L1  H     5    30       P1  7948  1.00
      L1  H     8    31       P1  7948  0.98

> <Gold.PLP.Chemscore.Internal.Correction>
0.3502

> <Gold.Rescore>
     Score         DG    S(hbond)    S(metal)    S(lipo)     H(rot)  DE(clash)    DE(int)     intcor
     14.62     -17.33       1.59        0.00      85.40       1.35       0.06       2.64       ----

> <Gold.Chemscore.Fitness>
14.6235

> <Gold.Chemscore.DG>
-17.3310

> <Gold.Chemscore.ZeroCoef>
-5.4800

> <Gold.Chemscore.Hbond>
1.5936

> <Gold.Chemscore.Metal>
0.0000

> <Gold.Chemscore.Lipo>
85.4032

> <Gold.Chemscore.Internal_Hbond>
0.0000

> <Gold.Chemscore.DEClash>
0.0624

> <Gold.Chemscore.DEInternal>
2.6450

> <Gold.Chemscore.Rot>
1.3530

> <Gold.Chemscore.Internal.Correction>
   9.000000E+99

> <Gold.Chemscore.Hbonds>
donor molecule, donor type, donor heavy atom, donor atom, acceptor molecule, acceptor atom, score
      L1  H     5    30       P1  7948  0.50
      L1  H     8    31       P1  7948  0.83

> <Gold.Chemscore.Hbond.Weighted>
-5.3226

> <Gold.Chemscore.Metal.Weighted>
-0.0000

> <Gold.Chemscore.Lipo.Weighted>
-9.9922

> <Gold.Chemscore.Internal_Hbond.Weighted>
0.0000

> <Gold.Chemscore.DEClash.Weighted>
0.0624

> <Gold.Chemscore.DEInternal.Weighted>
2.6450

> <Gold.Chemscore.Rot.Weighted>
3.4638

> <Gold.Chemscore.Internal.Correction.Weighted>
   9.000000E+99

> <Gold.Protein.RotatedTorsions>
[ 6907 6896 6895 6894 ] final  102.78 input  -60.11 | X-H torsion
[ 7974 7965 7964 7962 ] final   19.47 input  175.53 | X-H torsion
[ 8008 7997 7996 7995 ] final   63.79 input   59.86 | X-H torsion
[ 10167 10162 10161 10158 ] final   34.71 input  -65.29 | X-H torsion
[ 10718 10713 10712 10709 ] final -108.49 input   66.30 | X-H torsion
[ 10763 10752 10751 10750 ] final  -66.93 input  -60.55 | X-H torsion
[ 11005 11000 10999 10996 ] final  -90.17 input  -57.11 | X-H torsion

> <Gold.Protein.ActiveResidues>
 VAL166  LYS551  ARG553  GLY616  TRP617  ASP618  TYR619  PRO620  LYS621  CYS622 
 ASP623  PHE694  ASN695  SER759  ASP760  ASP761  ALA762  ILE779  LEU786  VAL792 
 PHE793  MET794  SER795  GLU796  ALA797  LYS798  CYS799  TRP800  GLU811  SER814 

> <Gold.Protein.RotatedAtoms>
  152.5314  133.9924  159.7856 H   0  0  0  0  0  0  0  0  0  0  0  0  # atno 6907 bound_to 6896
  151.0158  133.5915  159.2684 H   0  0  0  0  0  0  0  0  0  0  0  0  # atno 6908 bound_to 6896
  151.2973  135.0765  159.9279 H   0  0  0  0  0  0  0  0  0  0  0  0  # atno 6909 bound_to 6896
  146.2148  139.8308  142.8660 H   0  0  0  0  0  0  0  0  0  0  0  0  # atno 7974 bound_to 7965
  155.6358  140.3496  155.4698 H   0  0  0  0  0  0  0  0  0  0  0  0  # atno 8008 bound_to 7997
  155.9966  140.1204  157.0611 H   0  0  0  0  0  0  0  0  0  0  0  0  # atno 8009 bound_to 7997
  154.4235  140.1109  156.5625 H   0  0  0  0  0  0  0  0  0  0  0  0  # atno 8010 bound_to 7997
  140.4290  144.1352  150.6157 H   0  0  0  0  0  0  0  0  0  0  0  0  # atno 10167 bound_to 10162
  156.0488  130.5715  150.7968 H   0  0  0  0  0  0  0  0  0  0  0  0  # atno 10718 bound_to 10713
  154.3671  135.6103  153.5720 H   0  0  0  0  0  0  0  0  0  0  0  0  # atno 10763 bound_to 10752
  152.9791  135.5829  154.4565 H   0  0  0  0  0  0  0  0  0  0  0  0  # atno 10764 bound_to 10752
  154.4313  135.2848  155.1888 H   0  0  0  0  0  0  0  0  0  0  0  0  # atno 10765 bound_to 10752
  141.1571  133.7675  156.9700 H   0  0  0  0  0  0  0  0  0  0  0  0  # atno 11005 bound_to 11000
  145.2999  141.0191  143.3614 LP  0  0  0  0  0  0  0  0  0  0  0  0  # atno 17320 bound_to 7965
  144.9014  139.4645  143.6631 LP  0  0  0  0  0  0  0  0  0  0  0  0  # atno 17321 bound_to 7965
  140.4449  143.2511  151.9425 LP  0  0  0  0  0  0  0  0  0  0  0  0  # atno 17342 bound_to 10162
  139.4784  144.5619  151.8226 LP  0  0  0  0  0  0  0  0  0  0  0  0  # atno 17343 bound_to 10162
  157.5393  131.0940  150.9850 LP  0  0  0  0  0  0  0  0  0  0  0  0  # atno 17370 bound_to 10713
  157.0137  130.5646  149.5323 LP  0  0  0  0  0  0  0  0  0  0  0  0  # atno 17371 bound_to 10713
  140.1136  134.9461  157.2101 LP  0  0  0  0  0  0  0  0  0  0  0  0  # atno 17394 bound_to 11000
  140.3162  134.2968  155.7256 LP  0  0  0  0  0  0  0  0  0  0  0  0  # atno 17395 bound_to 11000

$$$$
