AV-unprocessed.smi:1103|AV-procd|sdf|4774|dock6
  -GOLD-   22720 3313D 1   1.00000     0.00000
 Structure written by MMmdl.
 44 45  0  0  0  0  0  0  0  0  2 V2000
  145.6917  135.7703  152.6636 C   0  0  0  0  0  0  0  0  0  0  0  0
  146.1447  134.3936  153.1712 C   0  0  0  0  0  0  0  0  0  0  0  0
  147.5670  134.3771  153.5985 N   0  3  2  0  0  0  0  0  0  0  0  0
  148.0479  132.9998  153.8764 C   0  0  0  0  0  0  0  0  0  0  0  0
  149.5539  132.9913  154.1766 C   0  0  0  0  0  0  0  0  0  0  0  0
  149.8819  133.9238  155.3488 C   0  0  0  0  0  0  0  0  0  0  0  0
  149.3599  135.3443  155.0711 C   0  0  2  0  0  0  0  0  0  0  0  0
  149.6866  136.2836  156.2526 C   0  0  0  0  0  0  0  0  0  0  0  0
  150.0598  137.6208  155.8020 N   0  0  0  0  0  0  0  0  0  0  0  0
  151.1660  137.9271  155.1064 C   0  0  0  0  0  0  0  0  0  0  0  0
  151.9707  137.0885  154.7014 O   0  0  0  0  0  0  0  0  0  0  0  0
  151.4310  139.4139  154.8756 C   0  0  0  0  0  0  0  0  0  0  0  0
  151.3656  140.1364  156.1329 N   0  0  0  0  0  0  0  0  0  0  0  0
  150.5470  141.1930  156.4707 C   0  0  0  0  0  0  0  0  0  0  0  0
  150.8594  141.5629  157.7480 C   0  0  0  0  0  0  0  0  0  0  0  0
  150.2657  142.6661  158.5747 C   0  0  0  0  0  0  0  0  0  0  0  0
  151.8940  140.6553  158.1124 C   0  0  0  0  0  0  0  0  0  0  0  0
  152.1994  139.8081  157.1435 N   0  0  0  0  0  0  0  0  0  0  0  0
  147.8505  135.2952  154.7343 C   0  0  0  0  0  0  0  0  0  0  0  0
  144.6812  135.7153  152.2583 H   0  0  0  0  0  0  0  0  0  0  0  0
  146.3451  136.1363  151.8712 H   0  0  0  0  0  0  0  0  0  0  0  0
  145.6757  136.5135  153.4591 H   0  0  0  0  0  0  0  0  0  0  0  0
  145.5049  134.0560  153.9875 H   0  0  0  0  0  0  0  0  0  0  0  0
  146.0085  133.6800  152.3574 H   0  0  0  0  0  0  0  0  0  0  0  0
  147.4922  132.5818  154.7176 H   0  0  0  0  0  0  0  0  0  0  0  0
  147.8525  132.3582  153.0163 H   0  0  0  0  0  0  0  0  0  0  0  0
  149.8823  131.9769  154.4055 H   0  0  0  0  0  0  0  0  0  0  0  0
  150.1077  133.3039  153.2904 H   0  0  0  0  0  0  0  0  0  0  0  0
  149.4322  133.5338  156.2632 H   0  0  0  0  0  0  0  0  0  0  0  0
  150.9598  133.9419  155.5150 H   0  0  0  0  0  0  0  0  0  0  0  0
  149.8842  135.7253  154.1929 H   0  0  0  0  0  0  0  0  0  0  0  0
  148.8481  136.3231  156.9501 H   0  0  0  0  0  0  0  0  0  0  0  0
  150.5293  135.8834  156.8169 H   0  0  0  0  0  0  0  0  0  0  0  0
  149.4593  138.3813  156.0877 H   0  0  0  0  0  0  0  0  0  0  0  0
  152.4207  139.5533  154.4388 H   0  0  0  0  0  0  0  0  0  0  0  0
  150.7062  139.8315  154.1747 H   0  0  0  0  0  0  0  0  0  0  0  0
  149.8221  141.5942  155.7776 H   0  0  0  0  0  0  0  0  0  0  0  0
  150.7782  142.7774  159.5304 H   0  0  0  0  0  0  0  0  0  0  0  0
  149.2133  142.4833  158.7926 H   0  0  0  0  0  0  0  0  0  0  0  0
  150.3275  143.6272  158.0638 H   0  0  0  0  0  0  0  0  0  0  0  0
  152.4342  140.5921  159.0454 H   0  0  0  0  0  0  0  0  0  0  0  0
  147.5084  136.2951  154.4737 H   0  0  0  0  0  0  0  0  0  0  0  0
  147.2784  134.9833  155.6098 H   0  0  0  0  0  0  0  0  0  0  0  0
  148.1055  134.7097  152.8114 H   0  0  0  0  0  0  0  0  0  0  0  0
  1  2  1  0  0  0  0
  1 20  1  0  0  0  0
  1 21  1  0  0  0  0
  1 22  1  0  0  0  0
  2  3  1  0  0  0  0
  2 23  1  0  0  0  0
  2 24  1  0  0  0  0
  3 19  1  0  0  0  0
  3  4  1  0  0  0  0
  3 44  1  0  0  0  0
  4  5  1  0  0  0  0
  4 25  1  0  0  0  0
  4 26  1  0  0  0  0
  5  6  1  0  0  0  0
  5 27  1  0  0  0  0
  5 28  1  0  0  0  0
  6  7  1  0  0  0  0
  6 29  1  0  0  0  0
  6 30  1  0  0  0  0
  7  8  1  0  0  0  0
  7 19  1  0  0  0  0
  7 31  1  0  0  0  0
  8  9  1  0  0  0  0
  8 32  1  0  0  0  0
  8 33  1  0  0  0  0
  9 10  1  0  0  0  0
  9 34  1  0  0  0  0
 10 11  2  0  0  0  0
 10 12  1  0  0  0  0
 12 13  1  0  0  0  0
 12 35  1  0  0  0  0
 12 36  1  0  0  0  0
 13 18  1  0  0  0  0
 13 14  1  0  0  0  0
 14 15  2  0  0  0  0
 14 37  1  0  0  0  0
 15 16  1  0  0  0  0
 15 17  1  0  0  0  0
 16 38  1  0  0  0  0
 16 39  1  0  0  0  0
 16 40  1  0  0  0  0
 17 18  2  0  0  0  0
 17 41  1  0  0  0  0
 19 42  1  0  0  0  0
 19 43  1  0  0  0  0
M  CHG  1   3   1
M  END
> <s_m_source_file>
AV-unprocessed.smi

> <i_m_source_file_index>
1103

> <i_lp_mmshare_version>
43012

> <i_f3d_flags>
0

> <s_epik_input>
W0NIM11bQ0gyXU4xW0NIMl1bQ0gyXVtDSDJdW0NASF0oW0NIMl0xKVtDSDJdW05IXUMoPU8pW0NIMl1uMltjSF1jKFtDSDNdKVtjSF1uMg==

> <s_epik_cmdline>
J2VwaWtfcHl0aG9uJywgJy1waCcsICc3LjAnLCAnLXRuJywgJzgnLCAnLW1hJywgJzIwMCcsICctbWV0YWxfYmluZGluZycsICctaW1hZScsICc8aW5maWxlLm1hZT4nLCAnLW9tYWUnLCAnPG91dGZpbGUubWFlPic=

> <r_lp_tautomer_probability>
1

> <r_epik_Ionization_Penalty>
0.000672456

> <r_epik_Ionization_Penalty_Charging>
0.000647327

> <r_epik_Ionization_Penalty_Neutral>
2.51297e-05

> <r_epik_State_Penalty>
0.000409793

> <r_epik_Charging_Adjusted_Penalty>
0.00105712

> <i_epik_Tot_Q>
1

> <i_epik_Tot_abs_Q>
1

> <r_epik_Metal_State_Penalty>
-0

> <b_epik_Metal_Only>
0

> <s_lp_Force_Field>
OPLS_2005

> <r_lp_Energy>
16.1771

> <b_lp_Chiralities_Consistent>
1

> <s_lp_Variant>
AV-unprocessed.smi:1103-4

> <Gold.Version>
5.8.1

> <Gold.Id.Protein>
6NUR|6NUR_protein|mol2

> <Gold.PLP.Fitness>
41.5816

> <Gold.PLP.PLP>
-30.8642

> <Gold.PLP.part.hbond>
-2.9378

> <Gold.PLP.part.metal>
0.0000

> <Gold.PLP.part.buried>
-1.7779

> <Gold.PLP.part.nonpolar>
-26.5785

> <Gold.PLP.part.repulsive>
0.1607

> <Gold.PLP.ligand.clash>
0.0000

> <Gold.PLP.ligand.torsion>
0.5975

> <Gold.PLP.Chemscore.Hbond>
3.9600

> <Gold.PLP.Chemscore.CHOScore>
0.0000

> <Gold.PLP.Chemscore.Metal>
0.0000

> <Gold.Chemscore.Hbonds>
donor molecule, donor type, donor heavy atom, donor atom, acceptor molecule, acceptor atom, score
      L1  H     3    44       P1  7948  2.00
      P1  H  7997  8010       L1    18  0.46
      P1  H 10752 10763       L1    11  0.96

> <Gold.PLP.Chemscore.Internal.Correction>
0.0324

> <Gold.Rescore>
     Score         DG    S(hbond)    S(metal)    S(lipo)     H(rot)  DE(clash)    DE(int)     intcor
     15.82     -17.80       2.66        0.00      66.16       1.68       1.34       0.63       ----

> <Gold.Chemscore.Fitness>
15.8217

> <Gold.Chemscore.DG>
-17.8013

> <Gold.Chemscore.ZeroCoef>
-5.4800

> <Gold.Chemscore.Hbond>
2.6608

> <Gold.Chemscore.Metal>
0.0000

> <Gold.Chemscore.Lipo>
66.1596

> <Gold.Chemscore.Internal_Hbond>
0.0000

> <Gold.Chemscore.DEClash>
1.3446

> <Gold.Chemscore.DEInternal>
0.6350

> <Gold.Chemscore.Rot>
1.6823

> <Gold.Chemscore.Internal.Correction>
   9.000000E+99

> <Gold.Chemscore.Hbonds>
donor molecule, donor type, donor heavy atom, donor atom, acceptor molecule, acceptor atom, score
      L1  H     3    44       P1  7948  0.65
      P1  H  7997  8010       L1    18  0.26
      P1  H 10752 10763       L1    11  0.92

> <Gold.Chemscore.Hbond.Weighted>
-8.8872

> <Gold.Chemscore.Metal.Weighted>
-0.0000

> <Gold.Chemscore.Lipo.Weighted>
-7.7407

> <Gold.Chemscore.Internal_Hbond.Weighted>
0.0000

> <Gold.Chemscore.DEClash.Weighted>
1.3446

> <Gold.Chemscore.DEInternal.Weighted>
0.6350

> <Gold.Chemscore.Rot.Weighted>
4.3066

> <Gold.Chemscore.Internal.Correction.Weighted>
   9.000000E+99

> <Gold.Protein.RotatedTorsions>
[ 6907 6896 6895 6894 ] final    0.17 input  -60.11 | X-H torsion
[ 7974 7965 7964 7962 ] final  163.44 input  175.53 | X-H torsion
[ 8008 7997 7996 7995 ] final   63.53 input   59.86 | X-H torsion
[ 10167 10162 10161 10158 ] final -144.09 input  -65.29 | X-H torsion
[ 10718 10713 10712 10709 ] final    5.91 input   66.30 | X-H torsion
[ 10763 10752 10751 10750 ] final   45.79 input  -60.55 | X-H torsion
[ 11005 11000 10999 10996 ] final  -51.33 input  -57.11 | X-H torsion

> <Gold.Protein.ActiveResidues>
 VAL166  LYS551  ARG553  GLY616  TRP617  ASP618  TYR619  PRO620  LYS621  CYS622 
 ASP623  PHE694  ASN695  SER759  ASP760  ASP761  ALA762  ILE779  LEU786  VAL792 
 PHE793  MET794  SER795  GLU796  ALA797  LYS798  CYS799  TRP800  GLU811  SER814 

> <Gold.Protein.RotatedAtoms>
  151.5721  135.1062  159.9997 H   0  0  0  0  0  0  0  0  0  0  0  0  # atno 6907 bound_to 6896
  152.4396  133.7419  159.6656 H   0  0  0  0  0  0  0  0  0  0  0  0  # atno 6908 bound_to 6896
  150.8299  133.8040  159.3126 H   0  0  0  0  0  0  0  0  0  0  0  0  # atno 6909 bound_to 6896
  144.7590  139.8183  143.6339 H   0  0  0  0  0  0  0  0  0  0  0  0  # atno 7974 bound_to 7965
  155.6317  140.3496  155.4685 H   0  0  0  0  0  0  0  0  0  0  0  0  # atno 8008 bound_to 7997
  155.9998  140.1211  157.0582 H   0  0  0  0  0  0  0  0  0  0  0  0  # atno 8009 bound_to 7997
  154.4245  140.1103  156.5667 H   0  0  0  0  0  0  0  0  0  0  0  0  # atno 8010 bound_to 7997
  139.7932  143.7937  152.2652 H   0  0  0  0  0  0  0  0  0  0  0  0  # atno 10167 bound_to 10162
  156.9144  130.5768  149.5647 H   0  0  0  0  0  0  0  0  0  0  0  0  # atno 10718 bound_to 10713
  152.9819  135.6028  154.3494 H   0  0  0  0  0  0  0  0  0  0  0  0  # atno 10763 bound_to 10752
  154.3185  135.2770  155.2533 H   0  0  0  0  0  0  0  0  0  0  0  0  # atno 10764 bound_to 10752
  154.4710  135.5941  153.6378 H   0  0  0  0  0  0  0  0  0  0  0  0  # atno 10765 bound_to 10752
  141.0865  133.6641  156.3862 H   0  0  0  0  0  0  0  0  0  0  0  0  # atno 11005 bound_to 11000
  146.1632  139.4753  142.9975 LP  0  0  0  0  0  0  0  0  0  0  0  0  # atno 17320 bound_to 7965
  145.6683  141.0223  143.1671 LP  0  0  0  0  0  0  0  0  0  0  0  0  # atno 17321 bound_to 7965
  139.8034  144.7365  150.9793 LP  0  0  0  0  0  0  0  0  0  0  0  0  # atno 17342 bound_to 10162
  140.7820  143.4322  151.0678 LP  0  0  0  0  0  0  0  0  0  0  0  0  # atno 17343 bound_to 10162
  156.0520  130.5588  150.9010 LP  0  0  0  0  0  0  0  0  0  0  0  0  # atno 17370 bound_to 10713
  157.5947  131.0943  150.9061 LP  0  0  0  0  0  0  0  0  0  0  0  0  # atno 17371 bound_to 10713
  140.5350  134.6175  157.5362 LP  0  0  0  0  0  0  0  0  0  0  0  0  # atno 17394 bound_to 11000
  139.9684  134.7334  156.0091 LP  0  0  0  0  0  0  0  0  0  0  0  0  # atno 17395 bound_to 11000

$$$$
