AV-unprocessed.smi:2532|AV-procd|sdf|9969|dock1
  -GOLD-   2272014 13D 1   1.00000     0.00000
 Structure written by MMmdl.
 36 38  0  0  0  0  0  0  0  0  1 V2000
  152.6186  136.4384  159.0117 O   0  0  0  0  0  0  0  0  0  0  0  0
  152.0936  137.5692  158.3433 C   0  0  1  0  0  0  0  0  0  0  0  0
  150.6310  137.2804  157.9690 C   0  0  0  0  0  0  0  0  0  0  0  0
  150.0698  136.4004  158.9287 O   0  0  0  0  0  0  0  0  0  0  0  0
  148.6576  136.5071  159.0094 C   0  0  0  0  0  0  0  0  0  0  0  0
  148.1863  135.5547  160.0614 C   0  0  0  0  0  0  0  0  0  0  0  0
  147.6370  135.8748  161.2771 C   0  0  0  0  0  0  0  0  0  0  0  0
  147.2689  134.7333  162.0481 C   0  0  0  0  0  0  0  0  0  0  0  0
  147.5343  133.5522  161.4079 C   0  0  0  0  0  0  0  0  0  0  0  0
  148.2428  133.8209  159.8388 S   0  0  0  0  0  0  0  0  0  0  0  0
  152.2174  138.7975  159.2657 C   0  0  0  0  0  0  0  0  0  0  0  0
  151.8608  140.0369  158.5972 N   0  0  0  0  0  0  0  0  0  0  0  0
  151.4152  140.1745  157.3336 C   0  0  0  0  0  0  0  0  0  0  0  0
  151.1407  141.4066  156.9147 N   0  0  0  0  0  0  0  0  0  0  0  0
  151.4417  142.1574  158.0383 C   0  0  0  0  0  0  0  0  0  0  0  0
  151.3652  143.5515  158.2573 C   0  0  0  0  0  0  0  0  0  0  0  0
  151.7309  144.0999  159.5042 C   0  0  0  0  0  0  0  0  0  0  0  0
  152.1792  143.2655  160.5486 C   0  0  0  0  0  0  0  0  0  0  0  0
  152.2643  141.8734  160.3540 C   0  0  0  0  0  0  0  0  0  0  0  0
  151.8962  141.3297  159.1093 C   0  0  0  0  0  0  0  0  0  0  0  0
  152.0188  135.7173  158.8964 H   0  0  0  0  0  0  0  0  0  0  0  0
  152.6749  137.7465  157.4372 H   0  0  0  0  0  0  0  0  0  0  0  0
  150.0549  138.2039  157.8865 H   0  0  0  0  0  0  0  0  0  0  0  0
  150.5913  136.7883  156.9958 H   0  0  0  0  0  0  0  0  0  0  0  0
  148.3685  137.5278  159.2648 H   0  0  0  0  0  0  0  0  0  0  0  0
  148.1995  136.2578  158.0514 H   0  0  0  0  0  0  0  0  0  0  0  0
  147.4890  136.8821  161.6378 H   0  0  0  0  0  0  0  0  0  0  0  0
  146.8269  134.8175  163.0301 H   0  0  0  0  0  0  0  0  0  0  0  0
  147.3559  132.5464  161.7582 H   0  0  0  0  0  0  0  0  0  0  0  0
  151.5664  138.6829  160.1334 H   0  0  0  0  0  0  0  0  0  0  0  0
  153.2342  138.8854  159.6509 H   0  0  0  0  0  0  0  0  0  0  0  0
  151.2867  139.3209  156.6841 H   0  0  0  0  0  0  0  0  0  0  0  0
  151.0247  144.2003  157.4640 H   0  0  0  0  0  0  0  0  0  0  0  0
  151.6674  145.1669  159.6599 H   0  0  0  0  0  0  0  0  0  0  0  0
  152.4582  143.6949  161.4998 H   0  0  0  0  0  0  0  0  0  0  0  0
  152.6096  141.2317  161.1513 H   0  0  0  0  0  0  0  0  0  0  0  0
  1  2  1  0  0  0  0
  1 21  1  0  0  0  0
  2  3  1  0  0  0  0
  2 11  1  0  0  0  0
  2 22  1  0  0  0  0
  3  4  1  0  0  0  0
  3 23  1  0  0  0  0
  3 24  1  0  0  0  0
  4  5  1  0  0  0  0
  5  6  1  0  0  0  0
  5 25  1  0  0  0  0
  5 26  1  0  0  0  0
  6 10  1  0  0  0  0
  6  7  2  0  0  0  0
  7  8  1  0  0  0  0
  7 27  1  0  0  0  0
  8  9  2  0  0  0  0
  8 28  1  0  0  0  0
  9 10  1  0  0  0  0
  9 29  1  0  0  0  0
 11 12  1  0  0  0  0
 11 30  1  0  0  0  0
 11 31  1  0  0  0  0
 12 20  1  0  0  0  0
 12 13  1  0  0  0  0
 13 14  2  0  0  0  0
 13 32  1  0  0  0  0
 14 15  1  0  0  0  0
 15 20  2  0  0  0  0
 15 16  1  0  0  0  0
 16 17  2  0  0  0  0
 16 33  1  0  0  0  0
 17 18  1  0  0  0  0
 17 34  1  0  0  0  0
 18 19  2  0  0  0  0
 18 35  1  0  0  0  0
 19 20  1  0  0  0  0
 19 36  1  0  0  0  0
M  END
> <s_m_source_file>
AV-unprocessed.smi

> <i_m_source_file_index>
2532

> <i_lp_mmshare_version>
43012

> <i_f3d_flags>
0

> <s_epik_input>
W2NIXTFbY0hdW2NIXVtjSF1jKGMxMiluKFtjSF1uMilbQ0gyXVtDQEhdKFtPSF0pW0NIMl1PW0NIMl1jM1tjSF1bY0hdW2NIXXMz

> <s_epik_cmdline>
J2VwaWtfcHl0aG9uJywgJy1waCcsICc3LjAnLCAnLXRuJywgJzgnLCAnLW1hJywgJzIwMCcsICctbWV0YWxfYmluZGluZycsICctaW1hZScsICc8aW5maWxlLm1hZT4nLCAnLW9tYWUnLCAnPG91dGZpbGUubWFlPic=

> <r_epik_Ionization_Penalty>
0.0678455

> <r_epik_Ionization_Penalty_Charging>
0

> <r_epik_Ionization_Penalty_Neutral>
0.0678455

> <r_epik_State_Penalty>
0.0593261

> <r_epik_Charging_Adjusted_Penalty>
0.0593261

> <i_epik_Tot_Q>
0

> <i_epik_Tot_abs_Q>
0

> <r_epik_Metal_State_Penalty>
6.23947e-05

> <b_epik_Metal_Only>
0

> <s_lp_Force_Field>
OPLS_2005

> <r_lp_Energy>
10.0551

> <b_lp_Chiralities_Consistent>
1

> <s_lp_Variant>
AV-unprocessed.smi:2532-2

> <Gold.Version>
5.8.1

> <Gold.Id.Protein>
6NUR|6NUR_protein|mol2

> <Gold.PLP.Fitness>
48.9580

> <Gold.PLP.PLP>
-47.1251

> <Gold.PLP.part.hbond>
-1.9130

> <Gold.PLP.part.metal>
0.0000

> <Gold.PLP.part.buried>
-5.8788

> <Gold.PLP.part.nonpolar>
-40.5121

> <Gold.PLP.part.repulsive>
0.0412

> <Gold.PLP.ligand.clash>
0.0000

> <Gold.PLP.ligand.torsion>
0.6217

> <Gold.PLP.Chemscore.Hbond>
1.0000

> <Gold.PLP.Chemscore.CHOScore>
0.0000

> <Gold.PLP.Chemscore.Metal>
0.0000

> <Gold.Chemscore.Hbonds>
donor molecule, donor type, donor heavy atom, donor atom, acceptor molecule, acceptor atom, score
      P1  H  6896  6909       L1     4  1.00

> <Gold.PLP.Chemscore.Internal.Correction>
0.0763

> <Gold.Rescore>
     Score         DG    S(hbond)    S(metal)    S(lipo)     H(rot)  DE(clash)    DE(int)     intcor
     16.52     -17.20       0.97        0.00     124.12       2.36       0.00       0.69       ----

> <Gold.Chemscore.Fitness>
16.5152

> <Gold.Chemscore.DG>
-17.2032

> <Gold.Chemscore.ZeroCoef>
-5.4800

> <Gold.Chemscore.Hbond>
0.9723

> <Gold.Chemscore.Metal>
0.0000

> <Gold.Chemscore.Lipo>
124.1247

> <Gold.Chemscore.Internal_Hbond>
0.0000

> <Gold.Chemscore.DEClash>
0.0000

> <Gold.Chemscore.DEInternal>
0.6880

> <Gold.Chemscore.Rot>
2.3620

> <Gold.Chemscore.Internal.Correction>
   9.000000E+99

> <Gold.Chemscore.Hbonds>
donor molecule, donor type, donor heavy atom, donor atom, acceptor molecule, acceptor atom, score
      P1  H  6896  6909       L1     4  0.96

> <Gold.Chemscore.Hbond.Weighted>
-3.2474

> <Gold.Chemscore.Metal.Weighted>
-0.0000

> <Gold.Chemscore.Lipo.Weighted>
-14.5226

> <Gold.Chemscore.Internal_Hbond.Weighted>
0.0000

> <Gold.Chemscore.DEClash.Weighted>
0.0000

> <Gold.Chemscore.DEInternal.Weighted>
0.6880

> <Gold.Chemscore.Rot.Weighted>
6.0468

> <Gold.Chemscore.Internal.Correction.Weighted>
   9.000000E+99

> <Gold.Protein.RotatedTorsions>
[ 6907 6896 6895 6894 ] final   73.71 input  -60.11 | X-H torsion
[ 7974 7965 7964 7962 ] final   37.47 input  175.53 | X-H torsion
[ 8008 7997 7996 7995 ] final  -26.42 input   59.86 | X-H torsion
[ 10167 10162 10161 10158 ] final   79.97 input  -65.29 | X-H torsion
[ 10718 10713 10712 10709 ] final  153.52 input   66.30 | X-H torsion
[ 10763 10752 10751 10750 ] final   76.66 input  -60.55 | X-H torsion
[ 11005 11000 10999 10996 ] final   10.74 input  -57.11 | X-H torsion

> <Gold.Protein.ActiveResidues>
 VAL166  LYS551  ARG553  GLY616  TRP617  ASP618  TYR619  PRO620  LYS621  CYS622 
 ASP623  PHE694  ASN695  SER759  ASP760  ASP761  ALA762  ILE779  LEU786  VAL792 
 PHE793  MET794  SER795  GLU796  ALA797  LYS798  CYS799  TRP800  GLU811  SER814 

> <Gold.Protein.RotatedAtoms>
  152.4937  134.4381  159.9534 H   0  0  0  0  0  0  0  0  0  0  0  0  # atno 6907 bound_to 6896
  151.4363  133.3650  159.2783 H   0  0  0  0  0  0  0  0  0  0  0  0  # atno 6908 bound_to 6896
  150.9119  134.8559  159.7490 H   0  0  0  0  0  0  0  0  0  0  0  0  # atno 6909 bound_to 6896
  146.1135  139.5890  142.9337 H   0  0  0  0  0  0  0  0  0  0  0  0  # atno 7974 bound_to 7965
  154.4426  140.1900  156.0773 H   0  0  0  0  0  0  0  0  0  0  0  0  # atno 8008 bound_to 7997
  156.0465  140.3313  155.7276 H   0  0  0  0  0  0  0  0  0  0  0  0  # atno 8009 bound_to 7997
  155.5621  140.0604  157.2817 H   0  0  0  0  0  0  0  0  0  0  0  0  # atno 8010 bound_to 7997
  139.9547  144.6002  150.8128 H   0  0  0  0  0  0  0  0  0  0  0  0  # atno 10167 bound_to 10162
  157.2437  131.0764  151.1775 H   0  0  0  0  0  0  0  0  0  0  0  0  # atno 10718 bound_to 10713
  153.0741  135.4943  154.8367 H   0  0  0  0  0  0  0  0  0  0  0  0  # atno 10763 bound_to 10752
  154.7063  135.3011  154.9267 H   0  0  0  0  0  0  0  0  0  0  0  0  # atno 10764 bound_to 10752
  153.9975  135.6770  153.4810 H   0  0  0  0  0  0  0  0  0  0  0  0  # atno 10765 bound_to 10752
  140.5111  134.0651  155.7818 H   0  0  0  0  0  0  0  0  0  0  0  0  # atno 11005 bound_to 11000
  145.5615  141.0404  143.2223 LP  0  0  0  0  0  0  0  0  0  0  0  0  # atno 17320 bound_to 7965
  144.7532  139.7140  143.7264 LP  0  0  0  0  0  0  0  0  0  0  0  0  # atno 17321 bound_to 7965
  140.7572  143.3081  151.2911 LP  0  0  0  0  0  0  0  0  0  0  0  0  # atno 17342 bound_to 10162
  139.6601  144.0205  152.2686 LP  0  0  0  0  0  0  0  0  0  0  0  0  # atno 17343 bound_to 10162
  157.3352  130.7005  149.6348 LP  0  0  0  0  0  0  0  0  0  0  0  0  # atno 17370 bound_to 10713
  155.9669  130.4296  150.4839 LP  0  0  0  0  0  0  0  0  0  0  0  0  # atno 17371 bound_to 10713
  141.1385  133.9180  157.2380 LP  0  0  0  0  0  0  0  0  0  0  0  0  # atno 17394 bound_to 11000
  139.9658  135.0142  156.9384 LP  0  0  0  0  0  0  0  0  0  0  0  0  # atno 17395 bound_to 11000

$$$$
