AV-unprocessed.smi:240|AV-procd|sdf|1829|dock6
  -GOLD-   2262020433D 1   1.00000     0.00000
 Structure written by MMmdl.
 55 59  0  0  0  0  0  0  0  0  1 V2000
  147.1361  141.9308  156.3853 O   0  0  0  0  0  0  0  0  0  0  0  0
  146.1170  141.4759  155.5124 C   0  0  1  0  0  0  0  0  0  0  0  0
  145.0923  142.5974  155.3334 C   0  0  0  0  0  0  0  0  0  0  0  0
  145.6497  143.4835  154.2154 C   0  0  0  0  0  0  0  0  0  0  0  0
  146.7474  142.6629  153.5230 C   0  0  0  0  0  0  0  0  0  0  0  0
  146.6607  141.2299  154.0891 C   0  0  1  0  0  0  0  0  0  0  0  0
  147.9506  140.3463  153.9991 C   0  0  1  0  0  0  0  0  0  0  0  0
  149.2053  141.1941  154.3416 C   0  0  0  0  0  0  0  0  0  0  0  0
  150.3893  140.4077  154.3105 O   0  0  0  0  0  0  0  0  0  0  0  0
  150.3537  139.3706  155.2775 C   0  0  0  0  0  0  0  0  0  0  0  0
  149.1895  138.4361  154.9377 C   0  0  0  0  0  0  0  0  0  0  0  0
  147.9319  139.1773  154.8972 N   0  0  0  0  0  0  0  0  0  0  0  0
  146.9069  138.3064  154.7740 C   0  0  0  0  0  0  0  0  0  0  0  0
  146.3387  137.8592  155.9208 N   0  0  0  0  0  0  0  0  0  0  0  0
  145.3250  136.9899  155.8677 C   0  0  0  0  0  0  0  0  0  0  0  0
  144.7459  136.4464  154.7948 N   0  0  0  0  0  0  0  0  0  0  0  0
  145.3268  136.8838  153.6406 C   0  0  0  0  0  0  0  0  0  0  0  0
  146.4058  137.8058  153.5387 C   0  0  0  0  0  0  0  0  0  0  0  0
  146.7293  138.0123  152.2032 N   0  0  0  0  0  0  0  0  0  0  0  0
  145.8869  137.2571  151.5524 C   0  0  0  0  0  0  0  0  0  0  0  0
  145.0143  136.5376  152.3378 N   0  0  0  0  0  0  0  0  0  0  0  0
  143.9846  135.6176  151.8791 C   0  0  0  0  0  0  0  0  0  0  0  0
  144.2691  134.1443  152.2528 C   0  0  1  0  0  0  0  0  0  0  0  0
  144.0673  133.9778  153.6459 O   0  0  0  0  0  0  0  0  0  0  0  0
  143.4001  133.1311  151.5132 C   0  0  0  0  0  0  0  0  0  0  0  0
  144.3138  131.9191  151.4009 C   0  0  0  0  0  0  0  0  0  0  0  0
  145.5743  132.5070  151.1283 O   0  0  0  0  0  0  0  0  0  0  0  0
  145.7024  133.6899  151.9114 C   0  0  0  0  0  0  0  0  0  0  0  0
  146.8164  142.6860  156.8547 H   0  0  0  0  0  0  0  0  0  0  0  0
  145.6525  140.5866  155.9395 H   0  0  0  0  0  0  0  0  0  0  0  0
  144.1448  142.1668  155.0070 H   0  0  0  0  0  0  0  0  0  0  0  0
  144.8952  143.1501  156.2529 H   0  0  0  0  0  0  0  0  0  0  0  0
  144.8607  143.7651  153.5174 H   0  0  0  0  0  0  0  0  0  0  0  0
  146.0697  144.4038  154.6226 H   0  0  0  0  0  0  0  0  0  0  0  0
  146.6219  142.6936  152.4415 H   0  0  0  0  0  0  0  0  0  0  0  0
  147.7194  143.0992  153.7553 H   0  0  0  0  0  0  0  0  0  0  0  0
  145.8710  140.7130  153.5409 H   0  0  0  0  0  0  0  0  0  0  0  0
  148.0624  139.9888  152.9751 H   0  0  0  0  0  0  0  0  0  0  0  0
  149.3453  141.9979  153.6202 H   0  0  0  0  0  0  0  0  0  0  0  0
  149.1012  141.6647  155.3208 H   0  0  0  0  0  0  0  0  0  0  0  0
  151.2965  138.8243  155.2514 H   0  0  0  0  0  0  0  0  0  0  0  0
  150.2482  139.7850  156.2815 H   0  0  0  0  0  0  0  0  0  0  0  0
  149.3722  137.9622  153.9722 H   0  0  0  0  0  0  0  0  0  0  0  0
  149.1321  137.6394  155.6812 H   0  0  0  0  0  0  0  0  0  0  0  0
  144.9205  136.6855  156.8218 H   0  0  0  0  0  0  0  0  0  0  0  0
  145.8834  137.1975  150.4737 H   0  0  0  0  0  0  0  0  0  0  0  0
  143.0317  135.9337  152.3054 H   0  0  0  0  0  0  0  0  0  0  0  0
  143.8847  135.7234  150.7980 H   0  0  0  0  0  0  0  0  0  0  0  0
  143.5802  133.1798  153.7839 H   0  0  0  0  0  0  0  0  0  0  0  0
  142.4529  132.9148  152.0095 H   0  0  0  0  0  0  0  0  0  0  0  0
  143.1747  133.4902  150.5086 H   0  0  0  0  0  0  0  0  0  0  0  0
  144.3574  131.3698  152.3426 H   0  0  0  0  0  0  0  0  0  0  0  0
  144.0100  131.2320  150.6110 H   0  0  0  0  0  0  0  0  0  0  0  0
  146.2487  134.4373  151.3355 H   0  0  0  0  0  0  0  0  0  0  0  0
  146.2905  133.4749  152.8052 H   0  0  0  0  0  0  0  0  0  0  0  0
  1  2  1  0  0  0  0
  1 29  1  0  0  0  0
  2  6  1  0  0  0  0
  2  3  1  0  0  0  0
  2 30  1  0  0  0  0
  3  4  1  0  0  0  0
  3 31  1  0  0  0  0
  3 32  1  0  0  0  0
  4  5  1  0  0  0  0
  4 33  1  0  0  0  0
  4 34  1  0  0  0  0
  5  6  1  0  0  0  0
  5 35  1  0  0  0  0
  5 36  1  0  0  0  0
  6  7  1  0  0  0  0
  6 37  1  0  0  0  0
  7 12  1  0  0  0  0
  7  8  1  0  0  0  0
  7 38  1  0  0  0  0
  8  9  1  0  0  0  0
  8 39  1  0  0  0  0
  8 40  1  0  0  0  0
  9 10  1  0  0  0  0
 10 11  1  0  0  0  0
 10 41  1  0  0  0  0
 10 42  1  0  0  0  0
 11 12  1  0  0  0  0
 11 43  1  0  0  0  0
 11 44  1  0  0  0  0
 12 13  1  0  0  0  0
 13 18  1  0  0  0  0
 13 14  2  0  0  0  0
 14 15  1  0  0  0  0
 15 16  2  0  0  0  0
 15 45  1  0  0  0  0
 16 17  1  0  0  0  0
 17 21  1  0  0  0  0
 17 18  2  0  0  0  0
 18 19  1  0  0  0  0
 19 20  2  0  0  0  0
 20 21  1  0  0  0  0
 20 46  1  0  0  0  0
 21 22  1  0  0  0  0
 22 23  1  0  0  0  0
 22 47  1  0  0  0  0
 22 48  1  0  0  0  0
 23 28  1  0  0  0  0
 23 24  1  0  0  0  0
 23 25  1  0  0  0  0
 24 49  1  0  0  0  0
 25 26  1  0  0  0  0
 25 50  1  0  0  0  0
 25 51  1  0  0  0  0
 26 27  1  0  0  0  0
 26 52  1  0  0  0  0
 26 53  1  0  0  0  0
 27 28  1  0  0  0  0
 28 54  1  0  0  0  0
 28 55  1  0  0  0  0
M  END
> <s_m_source_file>
AV-unprocessed.smi

> <i_m_source_file_index>
240

> <i_lp_mmshare_version>
43012

> <i_f3d_flags>
0

> <s_epik_input>
W09IXVtDQEBIXTFbQ0gyXVtDSDJdW0NIMl1bQ0BIXTFbQ0BASF0yW0NIMl1PW0NIMl1bQ0gyXU4yYyhuW2NIXW4zKWMoYzM0KW5bY0hdbjRbQ0gyXVtDQEBdNShbT0hdKVtDSDJdW0NIMl1PW0NIMl01

> <s_epik_cmdline>
J2VwaWtfcHl0aG9uJywgJy1waCcsICc3LjAnLCAnLXRuJywgJzgnLCAnLW1hJywgJzIwMCcsICctbWV0YWxfYmluZGluZycsICctaW1hZScsICc8aW5maWxlLm1hZT4nLCAnLW9tYWUnLCAnPG91dGZpbGUubWFlPic=

> <r_lp_tautomer_probability>
1

> <r_epik_Ionization_Penalty>
0.000130618

> <r_epik_Ionization_Penalty_Charging>
0

> <r_epik_Ionization_Penalty_Neutral>
0.000130618

> <r_epik_State_Penalty>
-0

> <r_epik_Charging_Adjusted_Penalty>
0

> <i_epik_Tot_Q>
0

> <i_epik_Tot_abs_Q>
0

> <r_epik_Metal_State_Penalty>
-0

> <b_epik_Metal_Only>
0

> <s_lp_Force_Field>
OPLS_2005

> <r_lp_Energy>
62.2831

> <b_lp_Chiralities_Consistent>
1

> <s_lp_Variant>
AV-unprocessed.smi:240-6

> <Gold.Version>
5.8.1

> <Gold.Id.Protein>
6NUR|6NUR_protein|mol2

> <Gold.PLP.Fitness>
42.3693

> <Gold.PLP.PLP>
-36.7123

> <Gold.PLP.part.hbond>
-1.6844

> <Gold.PLP.part.metal>
0.0000

> <Gold.PLP.part.buried>
-6.0259

> <Gold.PLP.part.nonpolar>
-30.8425

> <Gold.PLP.part.repulsive>
1.6478

> <Gold.PLP.ligand.clash>
0.0000

> <Gold.PLP.ligand.torsion>
1.0655

> <Gold.PLP.Chemscore.Hbond>
1.9033

> <Gold.PLP.Chemscore.CHOScore>
0.6047

> <Gold.PLP.Chemscore.Metal>
0.0000

> <Gold.Chemscore.Hbonds>
donor molecule, donor type, donor heavy atom, donor atom, acceptor molecule, acceptor atom, score
      L1  H    24    49       P1 10957  1.00
      P1  H  7989  7998       L1     9  0.99
      L1  C    20    46       P1 10171  0.49

> <Gold.PLP.Chemscore.Internal.Correction>
0.2640

> <Gold.Rescore>
     Score         DG    S(hbond)    S(metal)    S(lipo)     H(rot)  DE(clash)    DE(int)     intcor
     10.65     -13.44       1.89        0.00      79.64       3.00       1.64       1.14       ----

> <Gold.Chemscore.Fitness>
10.6540

> <Gold.Chemscore.DG>
-13.4355

> <Gold.Chemscore.ZeroCoef>
-5.4800

> <Gold.Chemscore.Hbond>
1.8944

> <Gold.Chemscore.Metal>
0.0000

> <Gold.Chemscore.Lipo>
79.6416

> <Gold.Chemscore.Internal_Hbond>
0.0000

> <Gold.Chemscore.DEClash>
1.6378

> <Gold.Chemscore.DEInternal>
1.1437

> <Gold.Chemscore.Rot>
3.0039

> <Gold.Chemscore.Internal.Correction>
   9.000000E+99

> <Gold.Chemscore.Hbonds>
donor molecule, donor type, donor heavy atom, donor atom, acceptor molecule, acceptor atom, score
      L1  H    24    49       P1 10957  0.97
      P1  H  7989  7998       L1     9  0.87

> <Gold.Chemscore.Hbond.Weighted>
-6.3273

> <Gold.Chemscore.Metal.Weighted>
-0.0000

> <Gold.Chemscore.Lipo.Weighted>
-9.3181

> <Gold.Chemscore.Internal_Hbond.Weighted>
0.0000

> <Gold.Chemscore.DEClash.Weighted>
1.6378

> <Gold.Chemscore.DEInternal.Weighted>
1.1437

> <Gold.Chemscore.Rot.Weighted>
7.6899

> <Gold.Chemscore.Internal.Correction.Weighted>
   9.000000E+99

> <Gold.Protein.RotatedTorsions>
[ 6907 6896 6895 6894 ] final   16.01 input  -60.11 | X-H torsion
[ 7974 7965 7964 7962 ] final  138.20 input  175.53 | X-H torsion
[ 8008 7997 7996 7995 ] final   75.68 input   59.86 | X-H torsion
[ 10167 10162 10161 10158 ] final   78.62 input  -65.29 | X-H torsion
[ 10718 10713 10712 10709 ] final -144.69 input   66.30 | X-H torsion
[ 10763 10752 10751 10750 ] final  -79.13 input  -60.55 | X-H torsion
[ 11005 11000 10999 10996 ] final -104.08 input  -57.11 | X-H torsion

> <Gold.Protein.ActiveResidues>
 VAL166  LYS551  ARG553  GLY616  TRP617  ASP618  TYR619  PRO620  LYS621  CYS622 
 ASP623  PHE694  ASN695  SER759  ASP760  ASP761  ALA762  ILE779  LEU786  VAL792 
 PHE793  MET794  SER795  GLU796  ALA797  LYS798  CYS799  TRP800  GLU811  SER814 

> <Gold.Protein.RotatedAtoms>
  151.8272  135.0633  160.0432 H   0  0  0  0  0  0  0  0  0  0  0  0  # atno 6907 bound_to 6896
  152.2908  133.5554  159.5564 H   0  0  0  0  0  0  0  0  0  0  0  0  # atno 6908 bound_to 6896
  150.7229  134.0348  159.3788 H   0  0  0  0  0  0  0  0  0  0  0  0  # atno 6909 bound_to 6896
  144.9395  139.4949  143.5579 H   0  0  0  0  0  0  0  0  0  0  0  0  # atno 7974 bound_to 7965
  155.8165  140.3471  155.5488 H   0  0  0  0  0  0  0  0  0  0  0  0  # atno 8008 bound_to 7997
  155.8387  140.0938  157.1768 H   0  0  0  0  0  0  0  0  0  0  0  0  # atno 8009 bound_to 7997
  154.4005  140.1398  156.3689 H   0  0  0  0  0  0  0  0  0  0  0  0  # atno 8010 bound_to 7997
  139.9689  144.5908  150.8003 H   0  0  0  0  0  0  0  0  0  0  0  0  # atno 10167 bound_to 10162
  156.3732  130.7799  151.1982 H   0  0  0  0  0  0  0  0  0  0  0  0  # atno 10718 bound_to 10713
  154.5347  135.5706  153.6788 H   0  0  0  0  0  0  0  0  0  0  0  0  # atno 10763 bound_to 10752
  152.9948  135.6213  154.2582 H   0  0  0  0  0  0  0  0  0  0  0  0  # atno 10764 bound_to 10752
  154.2510  135.2859  155.2796 H   0  0  0  0  0  0  0  0  0  0  0  0  # atno 10765 bound_to 10752
  141.1117  133.8693  157.1566 H   0  0  0  0  0  0  0  0  0  0  0  0  # atno 11005 bound_to 11000
  146.3280  139.8403  142.8891 LP  0  0  0  0  0  0  0  0  0  0  0  0  # atno 17320 bound_to 7965
  145.3014  141.0195  143.3606 LP  0  0  0  0  0  0  0  0  0  0  0  0  # atno 17321 bound_to 7965
  140.7528  143.2997  151.3111 LP  0  0  0  0  0  0  0  0  0  0  0  0  # atno 17342 bound_to 10162
  139.6496  144.0387  152.2616 LP  0  0  0  0  0  0  0  0  0  0  0  0  # atno 17343 bound_to 10162
  157.7486  131.0366  150.4416 LP  0  0  0  0  0  0  0  0  0  0  0  0  # atno 17370 bound_to 10713
  156.4647  130.4039  149.6554 LP  0  0  0  0  0  0  0  0  0  0  0  0  # atno 17371 bound_to 10713
  140.0014  135.0026  157.0199 LP  0  0  0  0  0  0  0  0  0  0  0  0  # atno 17394 bound_to 11000
  140.4757  134.1340  155.7209 LP  0  0  0  0  0  0  0  0  0  0  0  0  # atno 17395 bound_to 11000

$$$$
