AV-unprocessed.smi:2884|AV-procd|sdf|11083|dock3
  -GOLD-   2272015553D 1   1.00000     0.00000
 Structure written by MMmdl.
 42 43  0  0  0  0  0  0  0  0  1 V2000
  152.4370  143.9845  159.3301 C   0  0  0  0  0  0  0  0  0  0  0  0
  151.8900  142.5523  159.3901 C   0  0  0  0  0  0  0  0  0  0  0  0
  152.3098  141.7056  158.1826 C   0  0  0  0  0  0  0  0  0  0  0  0
  151.3381  140.6833  157.9940 O   0  0  0  0  0  0  0  0  0  0  0  0
  151.1353  140.1352  156.6857 C   0  0  0  0  0  0  0  0  0  0  0  0
  150.6523  141.3657  155.8782 C   0  0  0  0  0  0  0  0  0  0  0  0
  149.2532  141.6810  156.1404 N   0  0  0  0  0  0  0  0  0  0  0  0
  148.1328  141.5137  155.3360 C   0  0  0  0  0  0  0  0  0  0  0  0
  148.1886  140.9469  153.9925 C   0  0  0  0  0  0  0  0  0  0  0  0
  147.1440  140.8019  153.2510 N   0  0  0  0  0  0  0  0  0  0  0  0
  145.9269  141.1947  153.7510 N   0  0  0  0  0  0  0  0  0  0  0  0
  145.6913  141.7286  154.9724 C   0  0  0  0  0  0  0  0  0  0  0  0
  144.5571  142.0433  155.3275 O   0  0  0  0  0  0  0  0  0  0  0  0
  146.9026  141.8832  155.7896 C   0  0  0  0  0  0  0  0  0  0  0  0
  146.7193  142.5725  157.3686 Cl  0  0  0  0  0  0  0  0  0  0  0  0
  152.4180  139.5026  156.0725 C   0  0  0  0  0  0  0  0  0  0  0  0
  152.1536  138.8387  154.7094 C   0  0  0  0  0  0  0  0  0  0  0  0
  151.0389  137.7864  154.8133 C   0  0  0  0  0  0  0  0  0  0  0  0
  149.7520  138.3874  155.3996 C   0  0  0  0  0  0  0  0  0  0  0  0
  150.0150  139.0660  156.7571 C   0  0  0  0  0  0  0  0  0  0  0  0
  145.1536  141.0535  153.1172 H   0  0  0  0  0  0  0  0  0  0  0  0
  152.1340  144.5529  160.2095 H   0  0  0  0  0  0  0  0  0  0  0  0
  152.0683  144.5137  158.4506 H   0  0  0  0  0  0  0  0  0  0  0  0
  153.5268  143.9887  159.2904 H   0  0  0  0  0  0  0  0  0  0  0  0
  152.2470  142.0747  160.3031 H   0  0  0  0  0  0  0  0  0  0  0  0
  150.8019  142.5760  159.4615 H   0  0  0  0  0  0  0  0  0  0  0  0
  152.3788  142.3478  157.3044 H   0  0  0  0  0  0  0  0  0  0  0  0
  153.2963  141.2809  158.3636 H   0  0  0  0  0  0  0  0  0  0  0  0
  151.2885  142.2284  156.0578 H   0  0  0  0  0  0  0  0  0  0  0  0
  150.7391  141.1547  154.8119 H   0  0  0  0  0  0  0  0  0  0  0  0
  149.1160  142.2421  156.9697 H   0  0  0  0  0  0  0  0  0  0  0  0
  149.1703  140.6427  153.6346 H   0  0  0  0  0  0  0  0  0  0  0  0
  153.2125  140.2435  155.9812 H   0  0  0  0  0  0  0  0  0  0  0  0
  152.8064  138.7246  156.7292 H   0  0  0  0  0  0  0  0  0  0  0  0
  151.8847  139.5888  153.9670 H   0  0  0  0  0  0  0  0  0  0  0  0
  153.0683  138.3694  154.3464 H   0  0  0  0  0  0  0  0  0  0  0  0
  150.8368  137.3597  153.8306 H   0  0  0  0  0  0  0  0  0  0  0  0
  151.3748  136.9623  155.4439 H   0  0  0  0  0  0  0  0  0  0  0  0
  149.3267  139.1034  154.6962 H   0  0  0  0  0  0  0  0  0  0  0  0
  149.0033  137.6037  155.5203 H   0  0  0  0  0  0  0  0  0  0  0  0
  150.2826  138.2875  157.4704 H   0  0  0  0  0  0  0  0  0  0  0  0
  149.0931  139.5116  157.1321 H   0  0  0  0  0  0  0  0  0  0  0  0
  1  2  1  0  0  0  0
  1 22  1  0  0  0  0
  1 23  1  0  0  0  0
  1 24  1  0  0  0  0
  2  3  1  0  0  0  0
  2 25  1  0  0  0  0
  2 26  1  0  0  0  0
  3  4  1  0  0  0  0
  3 27  1  0  0  0  0
  3 28  1  0  0  0  0
  4  5  1  0  0  0  0
  5 20  1  0  0  0  0
  5  6  1  0  0  0  0
  5 16  1  0  0  0  0
  6  7  1  0  0  0  0
  6 29  1  0  0  0  0
  6 30  1  0  0  0  0
  7  8  1  0  0  0  0
  7 31  1  0  0  0  0
  8 14  2  0  0  0  0
  8  9  1  0  0  0  0
  9 10  2  0  0  0  0
  9 32  1  0  0  0  0
 10 11  1  0  0  0  0
 11 21  1  0  0  0  0
 11 12  1  0  0  0  0
 12 13  2  0  0  0  0
 12 14  1  0  0  0  0
 14 15  1  0  0  0  0
 16 17  1  0  0  0  0
 16 33  1  0  0  0  0
 16 34  1  0  0  0  0
 17 18  1  0  0  0  0
 17 35  1  0  0  0  0
 17 36  1  0  0  0  0
 18 19  1  0  0  0  0
 18 37  1  0  0  0  0
 18 38  1  0  0  0  0
 19 20  1  0  0  0  0
 19 39  1  0  0  0  0
 19 40  1  0  0  0  0
 20 41  1  0  0  0  0
 20 42  1  0  0  0  0
M  END
> <s_m_source_file>
AV-unprocessed.smi

> <i_m_source_file_index>
2884

> <i_lp_mmshare_version>
43012

> <i_f3d_flags>
0

> <s_epik_input>
W0NIMl0xW0NIMl1bQ0gyXVtDSDJdW0NIMl1DMShPW0NIMl1bQ0gyXVtDSDNdKVtDSDJdW05IXWMyW2NIXW5bbkhdYyg9TyljMkNs

> <s_epik_cmdline>
J2VwaWtfcHl0aG9uJywgJy1waCcsICc3LjAnLCAnLXRuJywgJzgnLCAnLW1hJywgJzIwMCcsICctbWV0YWxfYmluZGluZycsICctaW1hZScsICc8aW5maWxlLm1hZT4nLCAnLW9tYWUnLCAnPG91dGZpbGUubWFlPic=

> <r_lp_tautomer_probability>
0.986175

> <r_epik_Ionization_Penalty>
0.00111508

> <r_epik_Ionization_Penalty_Charging>
0.00108742

> <r_epik_Ionization_Penalty_Neutral>
2.7657e-05

> <r_epik_State_Penalty>
0.00620319

> <r_epik_Charging_Adjusted_Penalty>
0.00729061

> <i_epik_Tot_Q>
0

> <i_epik_Tot_abs_Q>
0

> <r_epik_Metal_State_Penalty>
0.300009

> <b_epik_Metal_Only>
0

> <s_lp_Force_Field>
OPLS_2005

> <r_lp_Energy>
35.8934

> <b_lp_Chiralities_Consistent>
1

> <s_lp_Variant>
AV-unprocessed.smi:2884-1

> <Gold.Version>
5.8.1

> <Gold.Id.Protein>
6NUR|6NUR_protein|mol2

> <Gold.PLP.Fitness>
34.9692

> <Gold.PLP.PLP>
-31.1559

> <Gold.PLP.part.hbond>
-1.8093

> <Gold.PLP.part.metal>
0.0000

> <Gold.PLP.part.buried>
-3.4683

> <Gold.PLP.part.nonpolar>
-26.7311

> <Gold.PLP.part.repulsive>
0.3887

> <Gold.PLP.ligand.clash>
0.0000

> <Gold.PLP.ligand.torsion>
0.6508

> <Gold.PLP.Chemscore.Hbond>
1.0000

> <Gold.PLP.Chemscore.CHOScore>
0.6937

> <Gold.PLP.Chemscore.Metal>
0.0000

> <Gold.Chemscore.Hbonds>
donor molecule, donor type, donor heavy atom, donor atom, acceptor molecule, acceptor atom, score
      L1  H    11    21       P1 10175  1.00
      L1  C     9    32       P1  7957  0.73

> <Gold.PLP.Chemscore.Internal.Correction>
0.0339

> <Gold.Rescore>
     Score         DG    S(hbond)    S(metal)    S(lipo)     H(rot)  DE(clash)    DE(int)     intcor
     13.60     -14.92       0.99        0.00      91.15       1.77       0.65       0.67       ----

> <Gold.Chemscore.Fitness>
13.6029

> <Gold.Chemscore.DG>
-14.9225

> <Gold.Chemscore.ZeroCoef>
-5.4800

> <Gold.Chemscore.Hbond>
0.9880

> <Gold.Chemscore.Metal>
0.0000

> <Gold.Chemscore.Lipo>
91.1468

> <Gold.Chemscore.Internal_Hbond>
0.0000

> <Gold.Chemscore.DEClash>
0.6496

> <Gold.Chemscore.DEInternal>
0.6700

> <Gold.Chemscore.Rot>
1.7663

> <Gold.Chemscore.Internal.Correction>
   9.000000E+99

> <Gold.Chemscore.Hbonds>
donor molecule, donor type, donor heavy atom, donor atom, acceptor molecule, acceptor atom, score
      L1  H    11    21       P1 10175  0.30

> <Gold.Chemscore.Hbond.Weighted>
-3.3000

> <Gold.Chemscore.Metal.Weighted>
-0.0000

> <Gold.Chemscore.Lipo.Weighted>
-10.6642

> <Gold.Chemscore.Internal_Hbond.Weighted>
0.0000

> <Gold.Chemscore.DEClash.Weighted>
0.6496

> <Gold.Chemscore.DEInternal.Weighted>
0.6700

> <Gold.Chemscore.Rot.Weighted>
4.5216

> <Gold.Chemscore.Internal.Correction.Weighted>
   9.000000E+99

> <Gold.Protein.RotatedTorsions>
[ 6907 6896 6895 6894 ] final  -15.06 input  -60.11 | X-H torsion
[ 7974 7965 7964 7962 ] final  158.76 input  175.53 | X-H torsion
[ 8008 7997 7996 7995 ] final  -60.09 input   59.86 | X-H torsion
[ 10167 10162 10161 10158 ] final  -11.99 input  -65.29 | X-H torsion
[ 10718 10713 10712 10709 ] final   45.94 input   66.30 | X-H torsion
[ 10763 10752 10751 10750 ] final   56.03 input  -60.55 | X-H torsion
[ 11005 11000 10999 10996 ] final  -84.84 input  -57.11 | X-H torsion

> <Gold.Protein.ActiveResidues>
 VAL166  LYS551  ARG553  GLY616  TRP617  ASP618  TYR619  PRO620  LYS621  CYS622 
 ASP623  PHE694  ASN695  SER759  ASP760  ASP761  ALA762  ILE779  LEU786  VAL792 
 PHE793  MET794  SER795  GLU796  ALA797  LYS798  CYS799  TRP800  GLU811  SER814 

> <Gold.Protein.RotatedAtoms>
  151.3298  135.0839  159.9334 H   0  0  0  0  0  0  0  0  0  0  0  0  # atno 6907 bound_to 6896
  152.5237  133.9554  159.7702 H   0  0  0  0  0  0  0  0  0  0  0  0  # atno 6908 bound_to 6896
  150.9890  133.6115  159.2741 H   0  0  0  0  0  0  0  0  0  0  0  0  # atno 6909 bound_to 6896
  144.7827  139.7523  143.6253 H   0  0  0  0  0  0  0  0  0  0  0  0  # atno 7974 bound_to 7965
  154.4382  140.1047  156.6219 H   0  0  0  0  0  0  0  0  0  0  0  0  # atno 8008 bound_to 7997
  155.5698  140.3489  155.4494 H   0  0  0  0  0  0  0  0  0  0  0  0  # atno 8009 bound_to 7997
  156.0398  140.1279  157.0157 H   0  0  0  0  0  0  0  0  0  0  0  0  # atno 8010 bound_to 7997
  140.7151  143.5580  150.9227 H   0  0  0  0  0  0  0  0  0  0  0  0  # atno 10167 bound_to 10162
  157.4428  130.8091  149.7711 H   0  0  0  0  0  0  0  0  0  0  0  0  # atno 10718 bound_to 10713
  152.9825  135.5690  154.5163 H   0  0  0  0  0  0  0  0  0  0  0  0  # atno 10763 bound_to 10752
  154.4658  135.2783  155.1681 H   0  0  0  0  0  0  0  0  0  0  0  0  # atno 10764 bound_to 10752
  154.3250  135.6261  153.5578 H   0  0  0  0  0  0  0  0  0  0  0  0  # atno 10765 bound_to 10752
  141.1647  133.7367  156.8927 H   0  0  0  0  0  0  0  0  0  0  0  0  # atno 11005 bound_to 11000
  146.2044  139.5359  142.9722 LP  0  0  0  0  0  0  0  0  0  0  0  0  # atno 17320 bound_to 7965
  145.6005  141.0356  143.2021 LP  0  0  0  0  0  0  0  0  0  0  0  0  # atno 17321 bound_to 7965
  139.9305  143.6499  152.3077 LP  0  0  0  0  0  0  0  0  0  0  0  0  # atno 17342 bound_to 10162
  139.6948  144.7642  151.1376 LP  0  0  0  0  0  0  0  0  0  0  0  0  # atno 17343 bound_to 10162
  155.9955  130.3911  150.2814 LP  0  0  0  0  0  0  0  0  0  0  0  0  # atno 17370 bound_to 10713
  157.0980  131.0188  151.3096 LP  0  0  0  0  0  0  0  0  0  0  0  0  # atno 17371 bound_to 10713
  140.1638  134.9147  157.2748 LP  0  0  0  0  0  0  0  0  0  0  0  0  # atno 17394 bound_to 11000
  140.2581  134.3604  155.7417 LP  0  0  0  0  0  0  0  0  0  0  0  0  # atno 17395 bound_to 11000

$$$$
