AV-unprocessed.smi:1254|AV-procd|sdf|5271|dock4
  -GOLD-   22720 4383D 1   1.00000     0.00000
 Structure written by MMmdl.
 46 47  0  0  0  0  0  0  0  0  2 V2000
  151.8833  139.3184  158.2465 C   0  0  0  0  0  0  0  0  0  0  0  0
  151.4857  139.3601  156.8111 C   0  0  0  0  0  0  0  0  0  0  0  0
  150.3147  139.0870  156.1614 C   0  0  0  0  0  0  0  0  0  0  0  0
  150.6404  139.3301  154.8004 C   0  0  0  0  0  0  0  0  0  0  0  0
  149.6750  139.1518  153.7769 N   0  0  0  0  0  0  0  0  0  0  0  0
  148.3896  138.7874  153.9199 C   0  0  0  0  0  0  0  0  0  0  0  0
  147.8393  138.5260  154.9902 O   0  0  0  0  0  0  0  0  0  0  0  0
  147.7585  138.7467  152.7378 N   0  0  0  0  0  0  0  0  0  0  0  0
  146.3529  138.4012  152.5544 C   0  0  0  0  0  0  0  0  0  0  0  0
  146.1351  136.8775  152.5279 C   0  0  2  0  0  0  0  0  0  0  0  0
  144.8757  136.4893  151.7264 C   0  0  0  0  0  0  0  0  0  0  0  0
  144.6460  135.0240  151.7623 N   0  3  1  0  0  0  0  0  0  0  0  0
  145.5444  134.2579  150.8566 C   0  0  0  0  0  0  0  0  0  0  0  0
  144.8429  133.0575  150.1853 C   0  0  0  0  0  0  0  0  0  0  0  0
  143.9146  132.3499  151.1838 C   0  0  0  0  0  0  0  0  0  0  0  0
  145.8530  132.0601  149.5937 C   0  0  0  0  0  0  0  0  0  0  0  0
  144.6171  134.5390  153.1660 C   0  0  0  0  0  0  0  0  0  0  0  0
  145.8558  135.0090  153.9531 C   0  0  0  0  0  0  0  0  0  0  0  0
  145.9718  136.4239  153.8683 O   0  0  0  0  0  0  0  0  0  0  0  0
  151.8957  139.7173  154.6343 N   0  0  0  0  0  0  0  0  0  0  0  0
  152.4436  139.7391  155.9222 O   0  0  0  0  0  0  0  0  0  0  0  0
  151.0513  138.9953  158.8725 H   0  0  0  0  0  0  0  0  0  0  0  0
  152.2009  140.3035  158.5883 H   0  0  0  0  0  0  0  0  0  0  0  0
  152.7098  138.6239  158.3985 H   0  0  0  0  0  0  0  0  0  0  0  0
  149.3793  138.7638  156.5935 H   0  0  0  0  0  0  0  0  0  0  0  0
  149.9952  139.3324  152.8371 H   0  0  0  0  0  0  0  0  0  0  0  0
  148.2834  138.9771  151.9066 H   0  0  0  0  0  0  0  0  0  0  0  0
  145.7791  138.8490  153.3662 H   0  0  0  0  0  0  0  0  0  0  0  0
  145.9863  138.8526  151.6309 H   0  0  0  0  0  0  0  0  0  0  0  0
  147.0099  136.3988  152.0851 H   0  0  0  0  0  0  0  0  0  0  0  0
  144.0034  136.9838  152.1560 H   0  0  0  0  0  0  0  0  0  0  0  0
  144.9462  136.8384  150.6954 H   0  0  0  0  0  0  0  0  0  0  0  0
  145.9131  134.9166  150.0689 H   0  0  0  0  0  0  0  0  0  0  0  0
  146.4270  133.9248  151.4028 H   0  0  0  0  0  0  0  0  0  0  0  0
  144.2132  133.4180  149.3725 H   0  0  0  0  0  0  0  0  0  0  0  0
  144.4732  131.9494  152.0306 H   0  0  0  0  0  0  0  0  0  0  0  0
  143.3865  131.5209  150.7119 H   0  0  0  0  0  0  0  0  0  0  0  0
  143.1626  133.0351  151.5764 H   0  0  0  0  0  0  0  0  0  0  0  0
  146.5135  131.6600  150.3638 H   0  0  0  0  0  0  0  0  0  0  0  0
  146.4757  132.5263  148.8299 H   0  0  0  0  0  0  0  0  0  0  0  0
  145.3428  131.2180  149.1251 H   0  0  0  0  0  0  0  0  0  0  0  0
  143.7208  134.9391  153.6421 H   0  0  0  0  0  0  0  0  0  0  0  0
  144.5233  133.4548  153.2100 H   0  0  0  0  0  0  0  0  0  0  0  0
  145.7576  134.7293  155.0020 H   0  0  0  0  0  0  0  0  0  0  0  0
  146.7675  134.5347  153.5883 H   0  0  0  0  0  0  0  0  0  0  0  0
  143.7183  134.8830  151.3881 H   0  0  0  0  0  0  0  0  0  0  0  0
  1  2  1  0  0  0  0
  1 22  1  0  0  0  0
  1 23  1  0  0  0  0
  1 24  1  0  0  0  0
  2 21  1  0  0  0  0
  2  3  2  0  0  0  0
  3  4  1  0  0  0  0
  3 25  1  0  0  0  0
  4  5  1  0  0  0  0
  4 20  2  0  0  0  0
  5  6  1  0  0  0  0
  5 26  1  0  0  0  0
  6  7  2  0  0  0  0
  6  8  1  0  0  0  0
  8  9  1  0  0  0  0
  8 27  1  0  0  0  0
  9 10  1  0  0  0  0
  9 28  1  0  0  0  0
  9 29  1  0  0  0  0
 10 19  1  0  0  0  0
 10 11  1  0  0  0  0
 10 30  1  0  0  0  0
 11 12  1  0  0  0  0
 11 31  1  0  0  0  0
 11 32  1  0  0  0  0
 12 13  1  0  0  0  0
 12 17  1  0  0  0  0
 12 46  1  0  0  0  0
 13 14  1  0  0  0  0
 13 33  1  0  0  0  0
 13 34  1  0  0  0  0
 14 15  1  0  0  0  0
 14 16  1  0  0  0  0
 14 35  1  0  0  0  0
 15 36  1  0  0  0  0
 15 37  1  0  0  0  0
 15 38  1  0  0  0  0
 16 39  1  0  0  0  0
 16 40  1  0  0  0  0
 16 41  1  0  0  0  0
 17 18  1  0  0  0  0
 17 42  1  0  0  0  0
 17 43  1  0  0  0  0
 18 19  1  0  0  0  0
 18 44  1  0  0  0  0
 18 45  1  0  0  0  0
 20 21  1  0  0  0  0
M  CHG  1  12   1
M  END
> <s_m_source_file>
AV-unprocessed.smi

> <i_m_source_file_index>
1254

> <i_lp_mmshare_version>
43012

> <i_f3d_flags>
0

> <s_epik_input>
W0NIM11jMVtjSF1jKG5vMSlbTkhdQyg9TylbTkhdW0NIMl1bQ0BASF0yW0NIMl1OKFtDSDJdW0NIMl1PMilbQ0gyXVtDSF0oW0NIM10pW0NIM10=

> <s_epik_cmdline>
J2VwaWtfcHl0aG9uJywgJy1waCcsICc3LjAnLCAnLXRuJywgJzgnLCAnLW1hJywgJzIwMCcsICctbWV0YWxfYmluZGluZycsICctaW1hZScsICc8aW5maWxlLm1hZT4nLCAnLW9tYWUnLCAnPG91dGZpbGUubWFlPic=

> <r_epik_Ionization_Penalty>
0.0986825

> <r_epik_Ionization_Penalty_Charging>
0.0986478

> <r_epik_Ionization_Penalty_Neutral>
3.46838e-05

> <r_epik_State_Penalty>
0.0887259

> <r_epik_Charging_Adjusted_Penalty>
0.187374

> <i_epik_Tot_Q>
1

> <i_epik_Tot_abs_Q>
1

> <r_epik_Metal_State_Penalty>
0.103424

> <b_epik_Metal_Only>
0

> <s_lp_Force_Field>
OPLS_2005

> <r_lp_Energy>
16.7856

> <b_lp_Chiralities_Consistent>
1

> <s_lp_Variant>
AV-unprocessed.smi:1254-3

> <Gold.Version>
5.8.1

> <Gold.Id.Protein>
6NUR|6NUR_protein|mol2

> <Gold.PLP.Fitness>
40.4095

> <Gold.PLP.PLP>
-30.5151

> <Gold.PLP.part.hbond>
-5.0000

> <Gold.PLP.part.metal>
0.0000

> <Gold.PLP.part.buried>
-3.5393

> <Gold.PLP.part.nonpolar>
-23.4099

> <Gold.PLP.part.repulsive>
0.3693

> <Gold.PLP.ligand.clash>
0.0000

> <Gold.PLP.ligand.torsion>
1.0589

> <Gold.PLP.Chemscore.Hbond>
3.9760

> <Gold.PLP.Chemscore.CHOScore>
0.0000

> <Gold.PLP.Chemscore.Metal>
0.0000

> <Gold.Chemscore.Hbonds>
donor molecule, donor type, donor heavy atom, donor atom, acceptor molecule, acceptor atom, score
      L1  H     5    26       P1  7957  0.96
      L1  H     8    27       P1  7957  0.96
      P1  H  7989  7998       L1    20  0.91
      P1  H  7997  8010       L1    21  1.00

> <Gold.PLP.Chemscore.Internal.Correction>
0.0842

> <Gold.Rescore>
     Score         DG    S(hbond)    S(metal)    S(lipo)     H(rot)  DE(clash)    DE(int)     intcor
     17.50     -20.25       3.36        0.00      68.29       1.73       0.16       2.59       ----

> <Gold.Chemscore.Fitness>
17.5026

> <Gold.Chemscore.DG>
-20.2504

> <Gold.Chemscore.ZeroCoef>
-5.4800

> <Gold.Chemscore.Hbond>
3.3555

> <Gold.Chemscore.Metal>
0.0000

> <Gold.Chemscore.Lipo>
68.2878

> <Gold.Chemscore.Internal_Hbond>
0.0000

> <Gold.Chemscore.DEClash>
0.1592

> <Gold.Chemscore.DEInternal>
2.5886

> <Gold.Chemscore.Rot>
1.7291

> <Gold.Chemscore.Internal.Correction>
   9.000000E+99

> <Gold.Chemscore.Hbonds>
donor molecule, donor type, donor heavy atom, donor atom, acceptor molecule, acceptor atom, score
      L1  H     5    26       P1  7957  0.88
      L1  H     8    27       P1  7957  0.88
      P1  H  7989  7998       L1    20  0.20
      P1  H  7997  8010       L1    21  0.97

> <Gold.Chemscore.Hbond.Weighted>
-11.2072

> <Gold.Chemscore.Metal.Weighted>
-0.0000

> <Gold.Chemscore.Lipo.Weighted>
-7.9897

> <Gold.Chemscore.Internal_Hbond.Weighted>
0.0000

> <Gold.Chemscore.DEClash.Weighted>
0.1592

> <Gold.Chemscore.DEInternal.Weighted>
2.5886

> <Gold.Chemscore.Rot.Weighted>
4.4265

> <Gold.Chemscore.Internal.Correction.Weighted>
   9.000000E+99

> <Gold.Protein.RotatedTorsions>
[ 6907 6896 6895 6894 ] final  114.55 input  -60.11 | X-H torsion
[ 7974 7965 7964 7962 ] final  121.69 input  175.53 | X-H torsion
[ 8008 7997 7996 7995 ] final   82.96 input   59.86 | X-H torsion
[ 10167 10162 10161 10158 ] final   13.33 input  -65.29 | X-H torsion
[ 10718 10713 10712 10709 ] final  -63.28 input   66.30 | X-H torsion
[ 10763 10752 10751 10750 ] final  -26.44 input  -60.55 | X-H torsion
[ 11005 11000 10999 10996 ] final  119.41 input  -57.11 | X-H torsion

> <Gold.Protein.ActiveResidues>
 VAL166  LYS551  ARG553  GLY616  TRP617  ASP618  TYR619  PRO620  LYS621  CYS622 
 ASP623  PHE694  ASN695  SER759  ASP760  ASP761  ALA762  ILE779  LEU786  VAL792 
 PHE793  MET794  SER795  GLU796  ALA797  LYS798  CYS799  TRP800  GLU811  SER814 

> <Gold.Protein.RotatedAtoms>
  152.4796  133.8221  159.7058 H   0  0  0  0  0  0  0  0  0  0  0  0  # atno 6907 bound_to 6896
  150.8836  133.7329  159.2931 H   0  0  0  0  0  0  0  0  0  0  0  0  # atno 6908 bound_to 6896
  151.4825  135.1056  159.9833 H   0  0  0  0  0  0  0  0  0  0  0  0  # atno 6909 bound_to 6896
  145.1164  139.3418  143.4737 H   0  0  0  0  0  0  0  0  0  0  0  0  # atno 7974 bound_to 7965
  155.9176  140.3423  155.6147 H   0  0  0  0  0  0  0  0  0  0  0  0  # atno 8008 bound_to 7997
  155.7312  140.0796  157.2306 H   0  0  0  0  0  0  0  0  0  0  0  0  # atno 8009 bound_to 7997
  154.4065  140.1587  156.2498 H   0  0  0  0  0  0  0  0  0  0  0  0  # atno 8010 bound_to 7997
  140.6009  143.8606  150.6964 H   0  0  0  0  0  0  0  0  0  0  0  0  # atno 10167 bound_to 10162
  156.0801  130.4219  150.1255 H   0  0  0  0  0  0  0  0  0  0  0  0  # atno 10718 bound_to 10713
  153.7160  135.6948  153.5025 H   0  0  0  0  0  0  0  0  0  0  0  0  # atno 10763 bound_to 10752
  153.2238  135.4361  155.0518 H   0  0  0  0  0  0  0  0  0  0  0  0  # atno 10764 bound_to 10752
  154.8299  135.3467  154.6695 H   0  0  0  0  0  0  0  0  0  0  0  0  # atno 10765 bound_to 10752
  139.9145  134.9628  156.7651 H   0  0  0  0  0  0  0  0  0  0  0  0  # atno 11005 bound_to 11000
  146.3523  140.1104  142.8604 LP  0  0  0  0  0  0  0  0  0  0  0  0  # atno 17320 bound_to 7965
  145.0789  140.9207  143.4837 LP  0  0  0  0  0  0  0  0  0  0  0  0  # atno 17321 bound_to 7965
  140.2152  143.3852  152.1687 LP  0  0  0  0  0  0  0  0  0  0  0  0  # atno 17342 bound_to 10162
  139.5290  144.7137  151.5122 LP  0  0  0  0  0  0  0  0  0  0  0  0  # atno 17343 bound_to 10162
  156.9288  130.9707  151.3536 LP  0  0  0  0  0  0  0  0  0  0  0  0  # atno 17370 bound_to 10713
  157.5914  130.8446  149.8664 LP  0  0  0  0  0  0  0  0  0  0  0  0  # atno 17371 bound_to 10713
  140.6666  133.9597  155.7833 LP  0  0  0  0  0  0  0  0  0  0  0  0  # atno 17394 bound_to 11000
  141.0606  134.0351  157.3663 LP  0  0  0  0  0  0  0  0  0  0  0  0  # atno 17395 bound_to 11000

$$$$
