AV-unprocessed.smi:1033|AV-procd|sdf|4510|dock2
  -GOLD-   22720 2513D 1   1.00000     0.00000
 Structure written by MMmdl.
 57 59  0  0  0  0  0  0  0  0  3 V2000
  153.0216  142.4746  160.4522 C   0  0  0  0  0  0  0  0  0  0  0  0
  152.2680  142.0341  159.2096 C   0  0  0  0  0  0  0  0  0  0  0  0
  152.3682  140.6898  158.7853 C   0  0  0  0  0  0  0  0  0  0  0  0
  151.6826  140.2401  157.6357 C   0  0  0  0  0  0  0  0  0  0  0  0
  151.6365  138.9879  157.0467 N   0  0  0  0  0  0  0  0  0  0  0  0
  150.8293  139.2063  156.0125 C   0  0  0  0  0  0  0  0  0  0  0  0
  150.3393  140.4528  155.8667 N   0  0  0  0  0  0  0  0  0  0  0  0
  149.4378  140.9310  154.8344 C   0  0  0  0  0  0  0  0  0  0  0  0
  148.4912  139.8232  154.3350 C   0  0  2  0  0  0  0  0  0  0  0  0
  149.2022  138.9579  153.4707 O   0  0  0  0  0  0  0  0  0  0  0  0
  147.2797  140.3978  153.5750 C   0  0  0  0  0  0  0  0  0  0  0  0
  146.1509  139.4352  153.4857 N   0  3  2  0  0  0  0  0  0  0  0  0
  145.7192  138.9451  154.8185 C   0  0  0  0  0  0  0  0  0  0  0  0
  144.4917  138.0168  154.7089 C   0  0  0  0  0  0  0  0  0  0  0  0
  144.7122  136.8983  153.7544 N   0  3  2  0  0  0  0  0  0  0  0  0
  145.5490  135.7849  154.2794 C   0  0  0  0  0  0  0  0  0  0  0  0
  145.2324  134.4403  153.5953 C   0  0  2  0  0  0  0  0  0  0  0  0
  145.6173  134.4416  152.1103 C   0  0  0  0  0  0  0  0  0  0  0  0
  143.8453  134.1874  153.6909 O   0  0  0  0  0  0  0  0  0  0  0  0
  145.1583  137.4052  152.4324 C   0  0  0  0  0  0  0  0  0  0  0  0
  146.4026  138.3047  152.5545 C   0  0  0  0  0  0  0  0  0  0  0  0
  150.8859  141.1793  156.9185 C   0  0  0  0  0  0  0  0  0  0  0  0
  150.7805  142.5203  157.3283 C   0  0  0  0  0  0  0  0  0  0  0  0
  151.4734  142.9532  158.4779 C   0  0  0  0  0  0  0  0  0  0  0  0
  151.3557  144.4037  158.9116 C   0  0  0  0  0  0  0  0  0  0  0  0
  153.5709  141.6457  160.8996 H   0  0  0  0  0  0  0  0  0  0  0  0
  152.3309  142.8607  161.2022 H   0  0  0  0  0  0  0  0  0  0  0  0
  153.7393  143.2575  160.2061 H   0  0  0  0  0  0  0  0  0  0  0  0
  152.9749  139.9904  159.3414 H   0  0  0  0  0  0  0  0  0  0  0  0
  150.5731  138.4124  155.3259 H   0  0  0  0  0  0  0  0  0  0  0  0
  148.8635  141.7607  155.2487 H   0  0  0  0  0  0  0  0  0  0  0  0
  150.0264  141.3383  154.0107 H   0  0  0  0  0  0  0  0  0  0  0  0
  148.1581  139.2439  155.1951 H   0  0  0  0  0  0  0  0  0  0  0  0
  149.4009  139.4258  152.6728 H   0  0  0  0  0  0  0  0  0  0  0  0
  146.9318  141.3175  154.0477 H   0  0  0  0  0  0  0  0  0  0  0  0
  147.6046  140.6761  152.5709 H   0  0  0  0  0  0  0  0  0  0  0  0
  146.5496  138.4301  155.3035 H   0  0  0  0  0  0  0  0  0  0  0  0
  145.4660  139.7941  155.4548 H   0  0  0  0  0  0  0  0  0  0  0  0
  144.2102  137.6435  155.6927 H   0  0  0  0  0  0  0  0  0  0  0  0
  143.6381  138.5962  154.3545 H   0  0  0  0  0  0  0  0  0  0  0  0
  146.6046  136.0105  154.1192 H   0  0  0  0  0  0  0  0  0  0  0  0
  145.4226  135.7006  155.3590 H   0  0  0  0  0  0  0  0  0  0  0  0
  145.7621  133.6241  154.0856 H   0  0  0  0  0  0  0  0  0  0  0  0
  146.6864  134.6153  151.9834 H   0  0  0  0  0  0  0  0  0  0  0  0
  145.0866  135.2195  151.5601 H   0  0  0  0  0  0  0  0  0  0  0  0
  145.3836  133.4843  151.6428 H   0  0  0  0  0  0  0  0  0  0  0  0
  143.7144  133.2710  153.8832 H   0  0  0  0  0  0  0  0  0  0  0  0
  145.3467  136.5763  151.7489 H   0  0  0  0  0  0  0  0  0  0  0  0
  144.3409  137.9781  151.9920 H   0  0  0  0  0  0  0  0  0  0  0  0
  146.6621  138.6760  151.5641 H   0  0  0  0  0  0  0  0  0  0  0  0
  147.2575  137.7241  152.9047 H   0  0  0  0  0  0  0  0  0  0  0  0
  150.1724  143.2100  156.7620 H   0  0  0  0  0  0  0  0  0  0  0  0
  150.7027  144.9672  158.2445 H   0  0  0  0  0  0  0  0  0  0  0  0
  152.3344  144.8841  158.9060 H   0  0  0  0  0  0  0  0  0  0  0  0
  150.9424  144.4705  159.9181 H   0  0  0  0  0  0  0  0  0  0  0  0
  143.8069  136.4784  153.5929 H   0  0  0  0  0  0  0  0  0  0  0  0
  145.3716  139.9591  153.1117 H   0  0  0  0  0  0  0  0  0  0  0  0
  1  2  1  0  0  0  0
  1 26  1  0  0  0  0
  1 27  1  0  0  0  0
  1 28  1  0  0  0  0
  2 24  1  0  0  0  0
  2  3  2  0  0  0  0
  3  4  1  0  0  0  0
  3 29  1  0  0  0  0
  4 22  2  0  0  0  0
  4  5  1  0  0  0  0
  5  6  2  0  0  0  0
  6  7  1  0  0  0  0
  6 30  1  0  0  0  0
  7  8  1  0  0  0  0
  7 22  1  0  0  0  0
  8  9  1  0  0  0  0
  8 31  1  0  0  0  0
  8 32  1  0  0  0  0
  9 10  1  0  0  0  0
  9 11  1  0  0  0  0
  9 33  1  0  0  0  0
 10 34  1  0  0  0  0
 11 12  1  0  0  0  0
 11 35  1  0  0  0  0
 11 36  1  0  0  0  0
 12 21  1  0  0  0  0
 12 13  1  0  0  0  0
 12 57  1  0  0  0  0
 13 14  1  0  0  0  0
 13 37  1  0  0  0  0
 13 38  1  0  0  0  0
 14 15  1  0  0  0  0
 14 39  1  0  0  0  0
 14 40  1  0  0  0  0
 15 16  1  0  0  0  0
 15 20  1  0  0  0  0
 15 56  1  0  0  0  0
 16 17  1  0  0  0  0
 16 41  1  0  0  0  0
 16 42  1  0  0  0  0
 17 18  1  0  0  0  0
 17 19  1  0  0  0  0
 17 43  1  0  0  0  0
 18 44  1  0  0  0  0
 18 45  1  0  0  0  0
 18 46  1  0  0  0  0
 19 47  1  0  0  0  0
 20 21  1  0  0  0  0
 20 48  1  0  0  0  0
 20 49  1  0  0  0  0
 21 50  1  0  0  0  0
 21 51  1  0  0  0  0
 22 23  1  0  0  0  0
 23 24  2  0  0  0  0
 23 52  1  0  0  0  0
 24 25  1  0  0  0  0
 25 53  1  0  0  0  0
 25 54  1  0  0  0  0
 25 55  1  0  0  0  0
M  CHG  1  12   1
M  CHG  1  15   1
M  END
> <s_m_source_file>
AV-unprocessed.smi

> <i_m_source_file_index>
1033

> <i_lp_mmshare_version>
43012

> <i_f3d_flags>
0

> <s_epik_input>
W0NIM11jKFtjSF0xKWMoW0NIM10pW2NIXWMoYzEyKW4oW2NIXW4yKVtDSDJdW0NASF0oW09IXSlbQ0gyXU4zW0NIMl1bQ0gyXU4oW0NIMl1bQ0gyXTMpW0NIMl1bQ0BIXShbQ0gzXSlbT0hd

> <s_epik_cmdline>
J2VwaWtfcHl0aG9uJywgJy1waCcsICc3LjAnLCAnLXRuJywgJzgnLCAnLW1hJywgJzIwMCcsICctbWV0YWxfYmluZGluZycsICctaW1hZScsICc8aW5maWxlLm1hZT4nLCAnLW9tYWUnLCAnPG91dGZpbGUubWFlPic=

> <r_epik_Ionization_Penalty>
3.16016

> <r_epik_Ionization_Penalty_Charging>
3.07679

> <r_epik_Ionization_Penalty_Neutral>
0.083365

> <r_epik_State_Penalty>
2.09701

> <r_epik_Charging_Adjusted_Penalty>
5.1738

> <i_epik_Tot_Q>
2

> <i_epik_Tot_abs_Q>
2

> <r_epik_Metal_State_Penalty>
2.02534

> <b_epik_Metal_Only>
0

> <s_lp_Force_Field>
OPLS_2005

> <r_lp_Energy>
28.3009

> <b_lp_Chiralities_Consistent>
1

> <s_lp_Variant>
AV-unprocessed.smi:1033-21

> <Gold.Version>
5.8.1

> <Gold.Id.Protein>
6NUR|6NUR_protein|mol2

> <Gold.PLP.Fitness>
54.6876

> <Gold.PLP.PLP>
-44.2702

> <Gold.PLP.part.hbond>
-3.5734

> <Gold.PLP.part.metal>
0.0000

> <Gold.PLP.part.buried>
-4.0151

> <Gold.PLP.part.nonpolar>
-38.0796

> <Gold.PLP.part.repulsive>
0.0000

> <Gold.PLP.ligand.clash>
0.0000

> <Gold.PLP.ligand.torsion>
0.9686

> <Gold.PLP.Chemscore.Hbond>
3.9913

> <Gold.PLP.Chemscore.CHOScore>
0.0000

> <Gold.PLP.Chemscore.Metal>
0.0000

> <Gold.Chemscore.Hbonds>
donor molecule, donor type, donor heavy atom, donor atom, acceptor molecule, acceptor atom, score
      L1  H    10    34       P1  7957  1.00
      L1  H    12    57       P1 10175  2.00
      L1  H    19    47       P1 10957  0.98

> <Gold.PLP.Chemscore.Internal.Correction>
0.3808

> <Gold.Rescore>
     Score         DG    S(hbond)    S(metal)    S(lipo)     H(rot)  DE(clash)    DE(int)     intcor
     18.56     -20.89       2.97        0.00     115.66       3.14       0.52       1.81       ----

> <Gold.Chemscore.Fitness>
18.5609

> <Gold.Chemscore.DG>
-20.8915

> <Gold.Chemscore.ZeroCoef>
-5.4800

> <Gold.Chemscore.Hbond>
2.9679

> <Gold.Chemscore.Metal>
0.0000

> <Gold.Chemscore.Lipo>
115.6567

> <Gold.Chemscore.Internal_Hbond>
0.0000

> <Gold.Chemscore.DEClash>
0.5220

> <Gold.Chemscore.DEInternal>
1.8085

> <Gold.Chemscore.Rot>
3.1380

> <Gold.Chemscore.Internal.Correction>
   9.000000E+99

> <Gold.Chemscore.Hbonds>
donor molecule, donor type, donor heavy atom, donor atom, acceptor molecule, acceptor atom, score
      L1  H    10    34       P1  7957  1.00
      L1  H    12    57       P1 10175  1.00
      L1  H    19    47       P1 10957  0.87

> <Gold.Chemscore.Hbond.Weighted>
-9.9129

> <Gold.Chemscore.Metal.Weighted>
-0.0000

> <Gold.Chemscore.Lipo.Weighted>
-13.5318

> <Gold.Chemscore.Internal_Hbond.Weighted>
0.0000

> <Gold.Chemscore.DEClash.Weighted>
0.5220

> <Gold.Chemscore.DEInternal.Weighted>
1.8085

> <Gold.Chemscore.Rot.Weighted>
8.0332

> <Gold.Chemscore.Internal.Correction.Weighted>
   9.000000E+99

> <Gold.Protein.RotatedTorsions>
[ 6907 6896 6895 6894 ] final  -10.36 input  -60.11 | X-H torsion
[ 7974 7965 7964 7962 ] final -102.22 input  175.53 | X-H torsion
[ 8008 7997 7996 7995 ] final  156.63 input   59.86 | X-H torsion
[ 10167 10162 10161 10158 ] final -114.15 input  -65.29 | X-H torsion
[ 10718 10713 10712 10709 ] final   56.87 input   66.30 | X-H torsion
[ 10763 10752 10751 10750 ] final  -53.67 input  -60.55 | X-H torsion
[ 11005 11000 10999 10996 ] final -148.40 input  -57.11 | X-H torsion

> <Gold.Protein.ActiveResidues>
 VAL166  LYS551  ARG553  GLY616  TRP617  ASP618  TYR619  PRO620  LYS621  CYS622 
 ASP623  PHE694  ASN695  SER759  ASP760  ASP761  ALA762  ILE779  LEU786  VAL792 
 PHE793  MET794  SER795  GLU796  ALA797  LYS798  CYS799  TRP800  GLU811  SER814 

> <Gold.Protein.RotatedAtoms>
  151.4032  135.0974  159.9561 H   0  0  0  0  0  0  0  0  0  0  0  0  # atno 6907 bound_to 6896
  152.5044  133.8868  159.7384 H   0  0  0  0  0  0  0  0  0  0  0  0  # atno 6908 bound_to 6896
  150.9347  133.6669  159.2831 H   0  0  0  0  0  0  0  0  0  0  0  0  # atno 6909 bound_to 6896
  145.2716  140.9300  143.2983 H   0  0  0  0  0  0  0  0  0  0  0  0  # atno 7974 bound_to 7965
  156.2411  140.1907  156.6984 H   0  0  0  0  0  0  0  0  0  0  0  0  # atno 8008 bound_to 7997
  154.6200  140.0610  156.9629 H   0  0  0  0  0  0  0  0  0  0  0  0  # atno 8009 bound_to 7997
  155.1878  140.3282  155.4366 H   0  0  0  0  0  0  0  0  0  0  0  0  # atno 8010 bound_to 7997
  140.1041  143.4586  152.1794 H   0  0  0  0  0  0  0  0  0  0  0  0  # atno 10167 bound_to 10162
  157.5467  130.8736  149.8902 H   0  0  0  0  0  0  0  0  0  0  0  0  # atno 10718 bound_to 10713
  154.1626  135.6472  153.4989 H   0  0  0  0  0  0  0  0  0  0  0  0  # atno 10763 bound_to 10752
  153.0106  135.5364  154.6695 H   0  0  0  0  0  0  0  0  0  0  0  0  # atno 10764 bound_to 10752
  154.6013  135.2944  155.0504 H   0  0  0  0  0  0  0  0  0  0  0  0  # atno 10765 bound_to 10752
  140.7617  134.3291  157.5100 H   0  0  0  0  0  0  0  0  0  0  0  0  # atno 11005 bound_to 11000
  144.9330  139.4276  143.6486 LP  0  0  0  0  0  0  0  0  0  0  0  0  # atno 17320 bound_to 7965
  146.3245  139.8251  142.8919 LP  0  0  0  0  0  0  0  0  0  0  0  0  # atno 17321 bound_to 7965
  139.5655  144.7432  151.4035 LP  0  0  0  0  0  0  0  0  0  0  0  0  # atno 17342 bound_to 10162
  140.6962  143.7744  150.7330 LP  0  0  0  0  0  0  0  0  0  0  0  0  # atno 17343 bound_to 10162
  156.0542  130.3711  150.1130 LP  0  0  0  0  0  0  0  0  0  0  0  0  # atno 17370 bound_to 10713
  156.9306  130.9712  151.3533 LP  0  0  0  0  0  0  0  0  0  0  0  0  # atno 17371 bound_to 10713
  139.8770  134.9206  156.3254 LP  0  0  0  0  0  0  0  0  0  0  0  0  # atno 17394 bound_to 11000
  140.9657  133.7359  156.0464 LP  0  0  0  0  0  0  0  0  0  0  0  0  # atno 17395 bound_to 11000

$$$$
