AV-unprocessed.smi:2973|AV-procd|sdf|11352|dock10
  -GOLD-   2272016273D 1   1.00000     0.00000
 Structure written by MMmdl.
 49 51  0  0  0  0  0  0  0  0  3 V2000
  150.2574  140.5152  155.4480 C   0  0  0  0  0  0  0  0  0  0  0  0
  151.1226  141.0161  156.6256 C   0  0  1  0  0  0  0  0  0  0  0  0
  150.2384  141.7674  157.6465 C   0  0  0  0  0  0  0  0  0  0  0  0
  151.0645  142.3538  158.8005 C   0  0  0  0  0  0  0  0  0  0  0  0
  151.8798  141.2651  159.5091 C   0  0  0  0  0  0  0  0  0  0  0  0
  152.7779  140.5127  158.5119 C   0  0  0  0  0  0  0  0  0  0  0  0
  152.0002  139.9136  157.3088 C   0  0  2  0  0  0  0  0  0  0  0  0
  152.9627  139.3748  156.3628 N   0  5  0  0  0  0  0  0  0  0  0  0
  152.7781  138.0389  156.2543 C   0  0  0  0  0  0  0  0  0  0  0  0
  153.4272  137.2607  155.5558 O   0  0  0  0  0  0  0  0  0  0  0  0
  151.7592  137.6267  157.0314 N   0  0  0  0  0  0  0  0  0  0  0  0
  151.3107  136.2337  157.1562 C   0  0  0  0  0  0  0  0  0  0  0  0
  149.9637  135.9745  156.4677 C   0  0  0  0  0  0  0  0  0  0  0  0
  148.9640  136.6318  156.7618 O   0  0  0  0  0  0  0  0  0  0  0  0
  149.9577  135.0135  155.5320 N   0  0  0  0  0  0  0  0  0  0  0  0
  148.7882  134.6004  154.7662 C   0  0  0  0  0  0  0  0  0  0  0  0
  149.1037  133.4026  153.8543 C   0  0  0  0  0  0  0  0  0  0  0  0
  147.9067  132.9824  153.0244 C   0  0  0  0  0  0  0  0  0  0  0  0
  147.3319  131.6974  153.1327 C   0  0  0  0  0  0  0  0  0  0  0  0
  146.2141  131.3727  152.3356 C   0  0  0  0  0  0  0  0  0  0  0  0
  145.6944  132.3393  151.4496 C   0  0  0  0  0  0  0  0  0  0  0  0
  146.3061  133.6078  151.3833 C   0  0  0  0  0  0  0  0  0  0  0  0
  147.3756  133.8804  152.1630 N   0  3  0  0  0  0  0  0  0  0  0  0
  151.2310  138.6544  157.7049 C   0  0  0  0  0  0  0  0  0  0  0  0
  150.2946  138.6158  158.5043 O   0  0  0  0  0  0  0  0  0  0  0  0
  149.4949  139.8084  155.7758 H   0  0  0  0  0  0  0  0  0  0  0  0
  150.8611  140.0245  154.6846 H   0  0  0  0  0  0  0  0  0  0  0  0
  149.7435  141.3459  154.9640 H   0  0  0  0  0  0  0  0  0  0  0  0
  151.8093  141.7543  156.2068 H   0  0  0  0  0  0  0  0  0  0  0  0
  149.7033  142.5751  157.1463 H   0  0  0  0  0  0  0  0  0  0  0  0
  149.4725  141.1027  158.0467 H   0  0  0  0  0  0  0  0  0  0  0  0
  151.7369  143.1213  158.4148 H   0  0  0  0  0  0  0  0  0  0  0  0
  150.4063  142.8490  159.5148 H   0  0  0  0  0  0  0  0  0  0  0  0
  152.4948  141.7148  160.2889 H   0  0  0  0  0  0  0  0  0  0  0  0
  151.2092  140.5711  160.0153 H   0  0  0  0  0  0  0  0  0  0  0  0
  153.5385  141.2033  158.1435 H   0  0  0  0  0  0  0  0  0  0  0  0
  153.3223  139.7296  159.0426 H   0  0  0  0  0  0  0  0  0  0  0  0
  152.0508  135.5548  156.7300 H   0  0  0  0  0  0  0  0  0  0  0  0
  151.2403  135.9670  158.2124 H   0  0  0  0  0  0  0  0  0  0  0  0
  150.8238  134.5281  155.3475 H   0  0  0  0  0  0  0  0  0  0  0  0
  147.9664  134.3605  155.4431 H   0  0  0  0  0  0  0  0  0  0  0  0
  148.4603  135.4507  154.1678 H   0  0  0  0  0  0  0  0  0  0  0  0
  149.9298  133.6483  153.1855 H   0  0  0  0  0  0  0  0  0  0  0  0
  149.4355  132.5505  154.4495 H   0  0  0  0  0  0  0  0  0  0  0  0
  147.7409  130.9690  153.8183 H   0  0  0  0  0  0  0  0  0  0  0  0
  145.7605  130.3946  152.4040 H   0  0  0  0  0  0  0  0  0  0  0  0
  144.8394  132.1110  150.8303 H   0  0  0  0  0  0  0  0  0  0  0  0
  145.9757  134.4063  150.7352 H   0  0  0  0  0  0  0  0  0  0  0  0
  147.8019  134.8050  152.0980 H   0  0  0  0  0  0  0  0  0  0  0  0
  1  2  1  0  0  0  0
  1 26  1  0  0  0  0
  1 27  1  0  0  0  0
  1 28  1  0  0  0  0
  2  7  1  0  0  0  0
  2  3  1  0  0  0  0
  2 29  1  0  0  0  0
  3  4  1  0  0  0  0
  3 30  1  0  0  0  0
  3 31  1  0  0  0  0
  4  5  1  0  0  0  0
  4 32  1  0  0  0  0
  4 33  1  0  0  0  0
  5  6  1  0  0  0  0
  5 34  1  0  0  0  0
  5 35  1  0  0  0  0
  6  7  1  0  0  0  0
  6 36  1  0  0  0  0
  6 37  1  0  0  0  0
  7 24  1  0  0  0  0
  7  8  1  0  0  0  0
  8  9  1  0  0  0  0
  9 10  2  0  0  0  0
  9 11  1  0  0  0  0
 11 12  1  0  0  0  0
 11 24  1  0  0  0  0
 12 13  1  0  0  0  0
 12 38  1  0  0  0  0
 12 39  1  0  0  0  0
 13 14  2  0  0  0  0
 13 15  1  0  0  0  0
 15 16  1  0  0  0  0
 15 40  1  0  0  0  0
 16 17  1  0  0  0  0
 16 41  1  0  0  0  0
 16 42  1  0  0  0  0
 17 18  1  0  0  0  0
 17 43  1  0  0  0  0
 17 44  1  0  0  0  0
 18 23  1  0  0  0  0
 18 19  2  0  0  0  0
 19 20  1  0  0  0  0
 19 45  1  0  0  0  0
 20 21  2  0  0  0  0
 20 46  1  0  0  0  0
 21 22  1  0  0  0  0
 21 47  1  0  0  0  0
 22 23  2  0  0  0  0
 22 48  1  0  0  0  0
 23 49  1  0  0  0  0
 24 25  2  0  0  0  0
M  CHG  1   8  -1
M  CHG  1  23   1
M  END
> <s_m_source_file>
AV-unprocessed.smi

> <i_m_source_file_index>
2973

> <i_lp_mmshare_version>
43012

> <i_f3d_flags>
0

> <s_epik_input>
W0NIMl0xW0NIMl1bQ0gyXVtDSDJdW0NAQEhdKFtDSDNdKVtDQF0xMltOSF1DKD1PKU4oQzI9TylbQ0gyXUMoPU8pW05IXVtDSDJdW0NIMl1jM1tjSF1bY0hdW2NIXVtjSF1uMw==

> <s_epik_cmdline>
J2VwaWtfcHl0aG9uJywgJy1waCcsICc3LjAnLCAnLXRuJywgJzgnLCAnLW1hJywgJzIwMCcsICctbWV0YWxfYmluZGluZycsICctaW1hZScsICc8aW5maWxlLm1hZT4nLCAnLW9tYWUnLCAnPG91dGZpbGUubWFlPic=

> <r_lp_tautomer_probability>
1

> <r_epik_Ionization_Penalty>
7.89073

> <r_epik_Ionization_Penalty_Charging>
7.89073

> <r_epik_Ionization_Penalty_Neutral>
1.56557e-07

> <r_epik_State_Penalty>
8.01193

> <r_epik_Charging_Adjusted_Penalty>
15.9027

> <i_epik_Tot_Q>
0

> <i_epik_Tot_abs_Q>
2

> <r_epik_Metal_State_Penalty>
3.98737

> <b_epik_Metal_Only>
1

> <s_lp_Force_Field>
OPLS_2005

> <r_lp_Energy>
17.432

> <b_lp_Chiralities_Consistent>
1

> <s_lp_Variant>
AV-unprocessed.smi:2973-16

> <Gold.Version>
5.8.1

> <Gold.Id.Protein>
6NUR|6NUR_protein|mol2

> <Gold.PLP.Fitness>
48.3838

> <Gold.PLP.PLP>
-36.1193

> <Gold.PLP.part.hbond>
-2.5727

> <Gold.PLP.part.metal>
0.0000

> <Gold.PLP.part.buried>
-4.2429

> <Gold.PLP.part.nonpolar>
-29.3755

> <Gold.PLP.part.repulsive>
0.1067

> <Gold.PLP.ligand.clash>
0.0000

> <Gold.PLP.ligand.torsion>
0.1669

> <Gold.PLP.Chemscore.Hbond>
4.1920

> <Gold.PLP.Chemscore.CHOScore>
0.0000

> <Gold.PLP.Chemscore.Metal>
0.0000

> <Gold.Chemscore.Hbonds>
donor molecule, donor type, donor heavy atom, donor atom, acceptor molecule, acceptor atom, score
      L1  H    23    49       P1  7948  2.00
      P1  H  7997  8010       L1     8  2.00
      P1  H 10752 10763       L1    10  0.21

> <Gold.PLP.Chemscore.Internal.Correction>
0.0223

> <Gold.Rescore>
     Score         DG    S(hbond)    S(metal)    S(lipo)     H(rot)  DE(clash)    DE(int)     intcor
     16.49     -17.83       2.07        0.00      88.38       1.92       0.00       1.35       ----

> <Gold.Chemscore.Fitness>
16.4873

> <Gold.Chemscore.DG>
-17.8331

> <Gold.Chemscore.ZeroCoef>
-5.4800

> <Gold.Chemscore.Hbond>
2.0723

> <Gold.Chemscore.Metal>
0.0000

> <Gold.Chemscore.Lipo>
88.3803

> <Gold.Chemscore.Internal_Hbond>
0.0000

> <Gold.Chemscore.DEClash>
0.0000

> <Gold.Chemscore.DEInternal>
1.3458

> <Gold.Chemscore.Rot>
1.9175

> <Gold.Chemscore.Internal.Correction>
   9.000000E+99

> <Gold.Chemscore.Hbonds>
donor molecule, donor type, donor heavy atom, donor atom, acceptor molecule, acceptor atom, score
      L1  H    23    49       P1  7948  0.60
      P1  H  7997  8010       L1     8  0.87
      P1  H 10752 10763       L1    10  0.22

> <Gold.Chemscore.Hbond.Weighted>
-6.9214

> <Gold.Chemscore.Metal.Weighted>
-0.0000

> <Gold.Chemscore.Lipo.Weighted>
-10.3405

> <Gold.Chemscore.Internal_Hbond.Weighted>
0.0000

> <Gold.Chemscore.DEClash.Weighted>
0.0000

> <Gold.Chemscore.DEInternal.Weighted>
1.3458

> <Gold.Chemscore.Rot.Weighted>
4.9087

> <Gold.Chemscore.Internal.Correction.Weighted>
   9.000000E+99

> <Gold.Protein.RotatedTorsions>
[ 6907 6896 6895 6894 ] final   97.13 input  -60.11 | X-H torsion
[ 7974 7965 7964 7962 ] final   31.94 input  175.53 | X-H torsion
[ 8008 7997 7996 7995 ] final   78.61 input   59.86 | X-H torsion
[ 10167 10162 10161 10158 ] final -161.67 input  -65.29 | X-H torsion
[ 10718 10713 10712 10709 ] final  179.17 input   66.30 | X-H torsion
[ 10763 10752 10751 10750 ] final   82.96 input  -60.55 | X-H torsion
[ 11005 11000 10999 10996 ] final -108.69 input  -57.11 | X-H torsion

> <Gold.Protein.ActiveResidues>
 VAL166  LYS551  ARG553  GLY616  TRP617  ASP618  TYR619  PRO620  LYS621  CYS622 
 ASP623  PHE694  ASN695  SER759  ASP760  ASP761  ALA762  ILE779  LEU786  VAL792 
 PHE793  MET794  SER795  GLU796  ALA797  LYS798  CYS799  TRP800  GLU811  SER814 

> <Gold.Protein.RotatedAtoms>
  152.5427  134.0780  159.8222 H   0  0  0  0  0  0  0  0  0  0  0  0  # atno 6907 bound_to 6896
  151.0886  133.5326  159.2623 H   0  0  0  0  0  0  0  0  0  0  0  0  # atno 6908 bound_to 6896
  151.2126  135.0496  159.8972 H   0  0  0  0  0  0  0  0  0  0  0  0  # atno 6909 bound_to 6896
  146.1518  139.6590  142.9093 H   0  0  0  0  0  0  0  0  0  0  0  0  # atno 7974 bound_to 7965
  155.8582  140.3455  155.5738 H   0  0  0  0  0  0  0  0  0  0  0  0  # atno 8008 bound_to 7997
  155.7963  140.0879  157.2001 H   0  0  0  0  0  0  0  0  0  0  0  0  # atno 8009 bound_to 7997
  154.4010  140.1474  156.3209 H   0  0  0  0  0  0  0  0  0  0  0  0  # atno 8010 bound_to 7997
  139.6448  144.0193  152.2119 H   0  0  0  0  0  0  0  0  0  0  0  0  # atno 10167 bound_to 10162
  156.8798  130.9812  151.3063 H   0  0  0  0  0  0  0  0  0  0  0  0  # atno 10718 bound_to 10713
  153.1248  135.4709  154.9255 H   0  0  0  0  0  0  0  0  0  0  0  0  # atno 10763 bound_to 10752
  154.7610  135.3131  154.8381 H   0  0  0  0  0  0  0  0  0  0  0  0  # atno 10764 bound_to 10752
  153.8936  135.6882  153.4813 H   0  0  0  0  0  0  0  0  0  0  0  0  # atno 10765 bound_to 10752
  141.0888  133.9091  157.2124 H   0  0  0  0  0  0  0  0  0  0  0  0  # atno 11005 bound_to 11000
  145.4805  141.0438  143.2648 LP  0  0  0  0  0  0  0  0  0  0  0  0  # atno 17320 bound_to 7965
  144.7913  139.6322  143.7112 LP  0  0  0  0  0  0  0  0  0  0  0  0  # atno 17321 bound_to 7965
  139.9892  144.6374  150.7830 LP  0  0  0  0  0  0  0  0  0  0  0  0  # atno 17342 bound_to 10162
  140.7509  143.2963  151.3196 LP  0  0  0  0  0  0  0  0  0  0  0  0  # atno 17343 bound_to 10162
  157.6147  130.8609  149.9009 LP  0  0  0  0  0  0  0  0  0  0  0  0  # atno 17370 bound_to 10713
  156.0683  130.3689  150.0830 LP  0  0  0  0  0  0  0  0  0  0  0  0  # atno 17371 bound_to 10713
  139.9710  135.0128  156.9512 LP  0  0  0  0  0  0  0  0  0  0  0  0  # atno 17394 bound_to 11000
  140.5300  134.0822  155.7313 LP  0  0  0  0  0  0  0  0  0  0  0  0  # atno 17395 bound_to 11000

$$$$
