AV-unprocessed.smi:2475|AV-procd|sdf|9756|dock3
  -GOLD-   2272013393D 1   1.00000     0.00000
 Structure written by MMmdl.
 37 38  0  0  0  0  0  0  0  0  1 V2000
  151.4809  145.2782  159.1578 C   0  0  0  0  0  0  0  0  0  0  0  0
  151.6882  143.7792  159.1221 C   0  0  0  0  0  0  0  0  0  0  0  0
  151.4574  143.0296  157.9495 C   0  0  0  0  0  0  0  0  0  0  0  0
  151.6820  141.6366  158.0204 C   0  0  0  0  0  0  0  0  0  0  0  0
  151.4387  140.9097  156.8266 N   0  0  0  0  0  0  0  0  0  0  0  0
  151.8222  139.6555  156.5194 C   0  0  0  0  0  0  0  0  0  0  0  0
  152.5033  138.9398  157.2547 O   0  0  0  0  0  0  0  0  0  0  0  0
  151.3927  139.1283  155.1375 C   0  0  1  0  0  0  0  0  0  0  0  0
  150.4110  137.9391  155.2040 C   0  0  0  0  0  0  0  0  0  0  0  0
  149.1729  138.4295  154.4719 C   0  0  0  0  0  0  0  0  0  0  0  0
  149.2997  139.9422  154.5681 C   0  0  0  0  0  0  0  0  0  0  0  0
  150.6955  140.1438  154.4121 O   0  0  0  0  0  0  0  0  0  0  0  0
  152.1024  141.0776  159.1816 N   0  0  0  0  0  0  0  0  0  0  0  0
  152.2908  141.8764  160.2372 C   0  0  0  0  0  0  0  0  0  0  0  0
  152.7689  141.2184  161.5251 C   0  0  0  0  0  0  0  0  0  0  0  0
  152.8094  142.2124  162.6961 C   0  0  0  0  0  0  0  0  0  0  0  0
  154.0944  140.4658  161.3299 C   0  0  0  0  0  0  0  0  0  0  0  0
  152.1060  143.1991  160.2668 N   0  0  0  0  0  0  0  0  0  0  0  0
  151.0735  145.6423  158.2143 H   0  0  0  0  0  0  0  0  0  0  0  0
  152.4280  145.7868  159.3395 H   0  0  0  0  0  0  0  0  0  0  0  0
  150.7868  145.5473  159.9544 H   0  0  0  0  0  0  0  0  0  0  0  0
  151.1226  143.5027  157.0377 H   0  0  0  0  0  0  0  0  0  0  0  0
  150.8952  141.3906  156.1247 H   0  0  0  0  0  0  0  0  0  0  0  0
  152.2899  138.8582  154.5796 H   0  0  0  0  0  0  0  0  0  0  0  0
  150.8224  137.0457  154.7335 H   0  0  0  0  0  0  0  0  0  0  0  0
  150.1493  137.6746  156.2297 H   0  0  0  0  0  0  0  0  0  0  0  0
  149.2145  138.1221  153.4261 H   0  0  0  0  0  0  0  0  0  0  0  0
  148.2441  138.0518  154.9004 H   0  0  0  0  0  0  0  0  0  0  0  0
  148.7281  140.4646  153.8009 H   0  0  0  0  0  0  0  0  0  0  0  0
  148.9786  140.3023  155.5468 H   0  0  0  0  0  0  0  0  0  0  0  0
  152.0286  140.4627  161.7934 H   0  0  0  0  0  0  0  0  0  0  0  0
  151.8326  142.6703  162.8543 H   0  0  0  0  0  0  0  0  0  0  0  0
  153.5276  143.0127  162.5147 H   0  0  0  0  0  0  0  0  0  0  0  0
  153.0952  141.7145  163.6228 H   0  0  0  0  0  0  0  0  0  0  0  0
  154.0072  139.7184  160.5409 H   0  0  0  0  0  0  0  0  0  0  0  0
  154.3903  139.9491  162.2432 H   0  0  0  0  0  0  0  0  0  0  0  0
  154.9027  141.1455  161.0580 H   0  0  0  0  0  0  0  0  0  0  0  0
  1  2  1  0  0  0  0
  1 19  1  0  0  0  0
  1 20  1  0  0  0  0
  1 21  1  0  0  0  0
  2 18  1  0  0  0  0
  2  3  2  0  0  0  0
  3  4  1  0  0  0  0
  3 22  1  0  0  0  0
  4  5  1  0  0  0  0
  4 13  2  0  0  0  0
  5  6  1  0  0  0  0
  5 23  1  0  0  0  0
  6  7  2  0  0  0  0
  6  8  1  0  0  0  0
  8 12  1  0  0  0  0
  8  9  1  0  0  0  0
  8 24  1  0  0  0  0
  9 10  1  0  0  0  0
  9 25  1  0  0  0  0
  9 26  1  0  0  0  0
 10 11  1  0  0  0  0
 10 27  1  0  0  0  0
 10 28  1  0  0  0  0
 11 12  1  0  0  0  0
 11 29  1  0  0  0  0
 11 30  1  0  0  0  0
 13 14  1  0  0  0  0
 14 15  1  0  0  0  0
 14 18  2  0  0  0  0
 15 16  1  0  0  0  0
 15 17  1  0  0  0  0
 15 31  1  0  0  0  0
 16 32  1  0  0  0  0
 16 33  1  0  0  0  0
 16 34  1  0  0  0  0
 17 35  1  0  0  0  0
 17 36  1  0  0  0  0
 17 37  1  0  0  0  0
M  END
> <s_m_source_file>
AV-unprocessed.smi

> <i_m_source_file_index>
2475

> <i_lp_mmshare_version>
43012

> <i_f3d_flags>
0

> <s_epik_input>
W0NIM11bQ0hdKFtDSDNdKWMobjEpbmMoW2NIXWMxW0NIM10pW05IXUMoPU8pW0NAQEhdMltDSDJdW0NIMl1bQ0gyXU8y

> <s_epik_cmdline>
J2VwaWtfcHl0aG9uJywgJy1waCcsICc3LjAnLCAnLXRuJywgJzgnLCAnLW1hJywgJzIwMCcsICctbWV0YWxfYmluZGluZycsICctaW1hZScsICc8aW5maWxlLm1hZT4nLCAnLW9tYWUnLCAnPG91dGZpbGUubWFlPic=

> <r_lp_tautomer_probability>
1

> <r_epik_Ionization_Penalty>
1.42804e-05

> <r_epik_Ionization_Penalty_Charging>
0

> <r_epik_Ionization_Penalty_Neutral>
1.42804e-05

> <r_epik_State_Penalty>
-0

> <r_epik_Charging_Adjusted_Penalty>
0

> <i_epik_Tot_Q>
0

> <i_epik_Tot_abs_Q>
0

> <r_epik_Metal_State_Penalty>
-0

> <b_epik_Metal_Only>
0

> <s_lp_Force_Field>
OPLS_2005

> <r_lp_Energy>
11.5588

> <b_lp_Chiralities_Consistent>
1

> <s_lp_Variant>
AV-unprocessed.smi:2475-2

> <Gold.Version>
5.8.1

> <Gold.Id.Protein>
6NUR|6NUR_protein|mol2

> <Gold.PLP.Fitness>
45.8466

> <Gold.PLP.PLP>
-40.0644

> <Gold.PLP.part.hbond>
-1.9123

> <Gold.PLP.part.metal>
0.0000

> <Gold.PLP.part.buried>
-5.1537

> <Gold.PLP.part.nonpolar>
-33.6573

> <Gold.PLP.part.repulsive>
0.2360

> <Gold.PLP.ligand.clash>
0.0000

> <Gold.PLP.ligand.torsion>
0.1350

> <Gold.PLP.Chemscore.Hbond>
1.9913

> <Gold.PLP.Chemscore.CHOScore>
0.0000

> <Gold.PLP.Chemscore.Metal>
0.0000

> <Gold.Chemscore.Hbonds>
donor molecule, donor type, donor heavy atom, donor atom, acceptor molecule, acceptor atom, score
      P1  H  7989  7998       L1    12  0.91
      P1  H  7997  8009       L1     7  0.23

> <Gold.PLP.Chemscore.Internal.Correction>
0.0785

> <Gold.Rescore>
     Score         DG    S(hbond)    S(metal)    S(lipo)     H(rot)  DE(clash)    DE(int)     intcor
     14.75     -16.25       0.99        0.00      89.74       1.18       0.09       1.41       ----

> <Gold.Chemscore.Fitness>
14.7547

> <Gold.Chemscore.DG>
-16.2548

> <Gold.Chemscore.ZeroCoef>
-5.4800

> <Gold.Chemscore.Hbond>
0.9901

> <Gold.Chemscore.Metal>
0.0000

> <Gold.Chemscore.Lipo>
89.7386

> <Gold.Chemscore.Internal_Hbond>
0.0000

> <Gold.Chemscore.DEClash>
0.0945

> <Gold.Chemscore.DEInternal>
1.4056

> <Gold.Chemscore.Rot>
1.1842

> <Gold.Chemscore.Internal.Correction>
   9.000000E+99

> <Gold.Chemscore.Hbonds>
donor molecule, donor type, donor heavy atom, donor atom, acceptor molecule, acceptor atom, score
      P1  H  7989  7998       L1    12  0.68
      P1  H  7997  8009       L1     7  0.02

> <Gold.Chemscore.Hbond.Weighted>
-3.3069

> <Gold.Chemscore.Metal.Weighted>
-0.0000

> <Gold.Chemscore.Lipo.Weighted>
-10.4994

> <Gold.Chemscore.Internal_Hbond.Weighted>
0.0000

> <Gold.Chemscore.DEClash.Weighted>
0.0945

> <Gold.Chemscore.DEInternal.Weighted>
1.4056

> <Gold.Chemscore.Rot.Weighted>
3.0315

> <Gold.Chemscore.Internal.Correction.Weighted>
   9.000000E+99

> <Gold.Protein.RotatedTorsions>
[ 6907 6896 6895 6894 ] final   62.30 input  -60.11 | X-H torsion
[ 7974 7965 7964 7962 ] final -167.47 input  175.53 | X-H torsion
[ 8008 7997 7996 7995 ] final  175.45 input   59.86 | X-H torsion
[ 10167 10162 10161 10158 ] final  178.33 input  -65.29 | X-H torsion
[ 10718 10713 10712 10709 ] final   13.99 input   66.30 | X-H torsion
[ 10763 10752 10751 10750 ] final  -89.37 input  -60.55 | X-H torsion
[ 11005 11000 10999 10996 ] final   33.92 input  -57.11 | X-H torsion

> <Gold.Protein.ActiveResidues>
 VAL166  LYS551  ARG553  GLY616  TRP617  ASP618  TYR619  PRO620  LYS621  CYS622 
 ASP623  PHE694  ASN695  SER759  ASP760  ASP761  ALA762  ILE779  LEU786  VAL792 
 PHE793  MET794  SER795  GLU796  ALA797  LYS798  CYS799  TRP800  GLU811  SER814 

> <Gold.Protein.RotatedAtoms>
  152.4161  134.6039  160.0007 H   0  0  0  0  0  0  0  0  0  0  0  0  # atno 6907 bound_to 6896
  151.6202  133.3334  159.3094 H   0  0  0  0  0  0  0  0  0  0  0  0  # atno 6908 bound_to 6896
  150.8049  134.7207  159.6701 H   0  0  0  0  0  0  0  0  0  0  0  0  # atno 6909 bound_to 6896
  144.7222  140.2513  143.6278 H   0  0  0  0  0  0  0  0  0  0  0  0  # atno 7974 bound_to 7965
  156.0869  140.1408  156.9642 H   0  0  0  0  0  0  0  0  0  0  0  0  # atno 8008 bound_to 7997
  154.4618  140.0940  156.6961 H   0  0  0  0  0  0  0  0  0  0  0  0  # atno 8009 bound_to 7997
  155.4984  140.3450  155.4369 H   0  0  0  0  0  0  0  0  0  0  0  0  # atno 8010 bound_to 7997
  139.5290  144.2692  152.0642 H   0  0  0  0  0  0  0  0  0  0  0  0  # atno 10167 bound_to 10162
  157.0327  130.6199  149.5738 H   0  0  0  0  0  0  0  0  0  0  0  0  # atno 10718 bound_to 10713
  154.6545  135.5343  153.7942 H   0  0  0  0  0  0  0  0  0  0  0  0  # atno 10763 bound_to 10752
  153.0405  135.6490  154.0966 H   0  0  0  0  0  0  0  0  0  0  0  0  # atno 10764 bound_to 10752
  154.0880  135.2942  155.3257 H   0  0  0  0  0  0  0  0  0  0  0  0  # atno 10765 bound_to 10752
  140.2581  134.3224  155.7867 H   0  0  0  0  0  0  0  0  0  0  0  0  # atno 11005 bound_to 11000
  145.8225  139.2050  143.1929 LP  0  0  0  0  0  0  0  0  0  0  0  0  # atno 17320 bound_to 7965
  146.0501  140.8077  142.9785 LP  0  0  0  0  0  0  0  0  0  0  0  0  # atno 17321 bound_to 7965
  140.2153  144.4521  150.6367 LP  0  0  0  0  0  0  0  0  0  0  0  0  # atno 17342 bound_to 10162
  140.6454  143.2212  151.6198 LP  0  0  0  0  0  0  0  0  0  0  0  0  # atno 17343 bound_to 10162
  156.0064  130.5151  150.7844 LP  0  0  0  0  0  0  0  0  0  0  0  0  # atno 17370 bound_to 10713
  157.5165  131.0929  151.0133 LP  0  0  0  0  0  0  0  0  0  0  0  0  # atno 17371 bound_to 10713
  141.2193  133.7393  156.9143 LP  0  0  0  0  0  0  0  0  0  0  0  0  # atno 17394 bound_to 11000
  140.1491  134.9242  157.2569 LP  0  0  0  0  0  0  0  0  0  0  0  0  # atno 17395 bound_to 11000

$$$$
