AV-unprocessed.smi:2563|AV-procd|sdf|10060|dock9
  -GOLD-   2272014103D 1   1.00000     0.00000
 Structure written by MMmdl.
 34 35  0  0  0  0  0  0  0  0  1 V2000
  152.1718  145.1030  158.7044 C   0  0  0  0  0  0  0  0  0  0  0  0
  151.1059  144.0005  158.7547 C   0  0  0  0  0  0  0  0  0  0  0  0
  151.6764  142.6962  159.0916 N   0  0  0  0  0  0  0  0  0  0  0  0
  151.5333  141.6011  158.1337 C   0  0  0  0  0  0  0  0  0  0  0  0
  150.5462  141.9360  157.0015 C   0  0  2  0  0  0  0  0  0  0  0  0
  149.0933  141.9851  157.5150 C   0  0  0  0  0  0  0  0  0  0  0  0
  148.1688  142.2378  156.4106 N   0  0  0  0  0  0  0  0  0  0  0  0
  148.3324  141.2500  155.3460 C   0  0  0  0  0  0  0  0  0  0  0  0
  149.8002  141.1981  154.8885 C   0  0  0  0  0  0  0  0  0  0  0  0
  150.6336  140.9175  156.0076 O   0  0  0  0  0  0  0  0  0  0  0  0
  152.4225  142.5229  160.2829 C   0  0  0  0  0  0  0  0  0  0  0  0
  153.4086  141.5132  160.4080 C   0  0  0  0  0  0  0  0  0  0  0  0
  154.1033  141.4099  161.6250 C   0  0  0  0  0  0  0  0  0  0  0  0
  153.7689  142.3222  162.6396 C   0  0  0  0  0  0  0  0  0  0  0  0
  152.8211  143.2698  162.4782 N   0  0  0  0  0  0  0  0  0  0  0  0
  152.1620  143.3637  161.3185 N   0  0  0  0  0  0  0  0  0  0  0  0
  151.7243  146.0596  158.4342 H   0  0  0  0  0  0  0  0  0  0  0  0
  152.9418  144.8770  157.9664 H   0  0  0  0  0  0  0  0  0  0  0  0
  152.6601  145.2275  159.6714 H   0  0  0  0  0  0  0  0  0  0  0  0
  150.3107  144.2701  159.4502 H   0  0  0  0  0  0  0  0  0  0  0  0
  150.6248  143.9278  157.7790 H   0  0  0  0  0  0  0  0  0  0  0  0
  152.5090  141.3673  157.7059 H   0  0  0  0  0  0  0  0  0  0  0  0
  151.2276  140.6943  158.6555 H   0  0  0  0  0  0  0  0  0  0  0  0
  150.8065  142.9014  156.5634 H   0  0  0  0  0  0  0  0  0  0  0  0
  148.8407  141.0418  158.0014 H   0  0  0  0  0  0  0  0  0  0  0  0
  148.9894  142.7645  158.2705 H   0  0  0  0  0  0  0  0  0  0  0  0
  147.2137  142.2139  156.7530 H   0  0  0  0  0  0  0  0  0  0  0  0
  148.0255  140.2662  155.7030 H   0  0  0  0  0  0  0  0  0  0  0  0
  147.6848  141.4943  154.5038 H   0  0  0  0  0  0  0  0  0  0  0  0
  149.9335  140.4133  154.1439 H   0  0  0  0  0  0  0  0  0  0  0  0
  150.0993  142.1365  154.4188 H   0  0  0  0  0  0  0  0  0  0  0  0
  153.6378  140.8210  159.6125 H   0  0  0  0  0  0  0  0  0  0  0  0
  154.8630  140.6575  161.7752 H   0  0  0  0  0  0  0  0  0  0  0  0
  154.2677  142.2915  163.5970 H   0  0  0  0  0  0  0  0  0  0  0  0
  1  2  1  0  0  0  0
  1 17  1  0  0  0  0
  1 18  1  0  0  0  0
  1 19  1  0  0  0  0
  2  3  1  0  0  0  0
  2 20  1  0  0  0  0
  2 21  1  0  0  0  0
  3  4  1  0  0  0  0
  3 11  1  0  0  0  0
  4  5  1  0  0  0  0
  4 22  1  0  0  0  0
  4 23  1  0  0  0  0
  5 10  1  0  0  0  0
  5  6  1  0  0  0  0
  5 24  1  0  0  0  0
  6  7  1  0  0  0  0
  6 25  1  0  0  0  0
  6 26  1  0  0  0  0
  7  8  1  0  0  0  0
  7 27  1  0  0  0  0
  8  9  1  0  0  0  0
  8 28  1  0  0  0  0
  8 29  1  0  0  0  0
  9 10  1  0  0  0  0
  9 30  1  0  0  0  0
  9 31  1  0  0  0  0
 11 16  1  0  0  0  0
 11 12  2  0  0  0  0
 12 13  1  0  0  0  0
 12 32  1  0  0  0  0
 13 14  2  0  0  0  0
 13 33  1  0  0  0  0
 14 15  1  0  0  0  0
 14 34  1  0  0  0  0
 15 16  2  0  0  0  0
M  END
> <s_m_source_file>
AV-unprocessed.smi

> <i_m_source_file_index>
2563

> <i_lp_mmshare_version>
43012

> <i_f3d_flags>
0

> <s_epik_input>
bjFuW2NIXVtjSF1bY0hdYzFOKFtDSDJdW0NIM10pW0NIMl1bQ0BASF0yW0NIMl1bTkhdW0NIMl1bQ0gyXU8y

> <s_epik_cmdline>
J2VwaWtfcHl0aG9uJywgJy1waCcsICc3LjAnLCAnLXRuJywgJzgnLCAnLW1hJywgJzIwMCcsICctbWV0YWxfYmluZGluZycsICctaW1hZScsICc8aW5maWxlLm1hZT4nLCAnLW9tYWUnLCAnPG91dGZpbGUubWFlPic=

> <r_lp_tautomer_probability>
1

> <r_epik_Ionization_Penalty>
2.34719

> <r_epik_Ionization_Penalty_Charging>
0

> <r_epik_Ionization_Penalty_Neutral>
2.34719

> <r_epik_State_Penalty>
2.60452

> <r_epik_Charging_Adjusted_Penalty>
2.60452

> <i_epik_Tot_Q>
0

> <i_epik_Tot_abs_Q>
0

> <r_epik_Metal_State_Penalty>
2.56937

> <b_epik_Metal_Only>
0

> <s_lp_Force_Field>
OPLS_2005

> <r_lp_Energy>
25.5001

> <b_lp_Chiralities_Consistent>
1

> <s_lp_Variant>
AV-unprocessed.smi:2563-5

> <Gold.Version>
5.8.1

> <Gold.Id.Protein>
6NUR|6NUR_protein|mol2

> <Gold.PLP.Fitness>
36.9587

> <Gold.PLP.PLP>
-37.6811

> <Gold.PLP.part.hbond>
-1.0000

> <Gold.PLP.part.metal>
0.0000

> <Gold.PLP.part.buried>
-3.7368

> <Gold.PLP.part.nonpolar>
-31.9003

> <Gold.PLP.part.repulsive>
0.3070

> <Gold.PLP.ligand.clash>
0.0000

> <Gold.PLP.ligand.torsion>
0.3801

> <Gold.PLP.Chemscore.Hbond>
0.0000

> <Gold.PLP.Chemscore.CHOScore>
0.0000

> <Gold.PLP.Chemscore.Metal>
0.0000

> <Gold.PLP.Chemscore.Internal.Correction>
0.0377

> <Gold.Rescore>
     Score         DG    S(hbond)    S(metal)    S(lipo)     H(rot)  DE(clash)    DE(int)     intcor
     11.52     -12.17       0.00        0.00      86.98       1.36       0.11       0.55       ----

> <Gold.Chemscore.Fitness>
11.5151

> <Gold.Chemscore.DG>
-12.1700

> <Gold.Chemscore.ZeroCoef>
-5.4800

> <Gold.Chemscore.Hbond>
0.0000

> <Gold.Chemscore.Metal>
0.0000

> <Gold.Chemscore.Lipo>
86.9751

> <Gold.Chemscore.Internal_Hbond>
0.0000

> <Gold.Chemscore.DEClash>
0.1067

> <Gold.Chemscore.DEInternal>
0.5482

> <Gold.Chemscore.Rot>
1.3618

> <Gold.Chemscore.Internal.Correction>
   9.000000E+99

> <Gold.Chemscore.Hbond.Weighted>
-0.0000

> <Gold.Chemscore.Metal.Weighted>
-0.0000

> <Gold.Chemscore.Lipo.Weighted>
-10.1761

> <Gold.Chemscore.Internal_Hbond.Weighted>
0.0000

> <Gold.Chemscore.DEClash.Weighted>
0.1067

> <Gold.Chemscore.DEInternal.Weighted>
0.5482

> <Gold.Chemscore.Rot.Weighted>
3.4861

> <Gold.Chemscore.Internal.Correction.Weighted>
   9.000000E+99

> <Gold.Protein.RotatedTorsions>
[ 6907 6896 6895 6894 ] final  120.23 input  -60.11 | X-H torsion
[ 7974 7965 7964 7962 ] final  -89.83 input  175.53 | X-H torsion
[ 8008 7997 7996 7995 ] final   12.55 input   59.86 | X-H torsion
[ 10167 10162 10161 10158 ] final -101.55 input  -65.29 | X-H torsion
[ 10718 10713 10712 10709 ] final -113.37 input   66.30 | X-H torsion
[ 10763 10752 10751 10750 ] final   -0.03 input  -60.55 | X-H torsion
[ 11005 11000 10999 10996 ] final   -6.96 input  -57.11 | X-H torsion

> <Gold.Protein.ActiveResidues>
 VAL166  LYS551  ARG553  GLY616  TRP617  ASP618  TYR619  PRO620  LYS621  CYS622 
 ASP623  PHE694  ASN695  SER759  ASP760  ASP761  ALA762  ILE779  LEU786  VAL792 
 PHE793  MET794  SER795  GLU796  ALA797  LYS798  CYS799  TRP800  GLU811  SER814 

> <Gold.Protein.RotatedAtoms>
  152.4413  133.7454  159.6663 H   0  0  0  0  0  0  0  0  0  0  0  0  # atno 6907 bound_to 6896
  150.8305  133.8089  159.3107 H   0  0  0  0  0  0  0  0  0  0  0  0  # atno 6908 bound_to 6896
  151.5745  135.1063  160.0054 H   0  0  0  0  0  0  0  0  0  0  0  0  # atno 6909 bound_to 6896
  145.4346  140.9557  143.2109 H   0  0  0  0  0  0  0  0  0  0  0  0  # atno 7974 bound_to 7965
  154.8222  140.2885  155.5779 H   0  0  0  0  0  0  0  0  0  0  0  0  # atno 8008 bound_to 7997
  156.2998  140.2548  156.3061 H   0  0  0  0  0  0  0  0  0  0  0  0  # atno 8009 bound_to 7997
  154.9326  140.0383  157.2045 H   0  0  0  0  0  0  0  0  0  0  0  0  # atno 8010 bound_to 7997
  140.2401  143.3545  152.0810 H   0  0  0  0  0  0  0  0  0  0  0  0  # atno 10167 bound_to 10162
  156.0762  130.5969  150.8633 H   0  0  0  0  0  0  0  0  0  0  0  0  # atno 10718 bound_to 10713
  153.3266  135.6972  153.6984 H   0  0  0  0  0  0  0  0  0  0  0  0  # atno 10763 bound_to 10752
  153.5803  135.3499  155.2873 H   0  0  0  0  0  0  0  0  0  0  0  0  # atno 10764 bound_to 10752
  154.8609  135.4293  154.2444 H   0  0  0  0  0  0  0  0  0  0  0  0  # atno 10765 bound_to 10752
  140.7076  133.8936  155.8728 H   0  0  0  0  0  0  0  0  0  0  0  0  # atno 11005 bound_to 11000
  144.8160  139.5875  143.7008 LP  0  0  0  0  0  0  0  0  0  0  0  0  # atno 17320 bound_to 7965
  146.2589  139.6364  142.9376 LP  0  0  0  0  0  0  0  0  0  0  0  0  # atno 17321 bound_to 7965
  139.5080  144.6843  151.5929 LP  0  0  0  0  0  0  0  0  0  0  0  0  # atno 17342 bound_to 10162
  140.6120  143.9418  150.6460 LP  0  0  0  0  0  0  0  0  0  0  0  0  # atno 17343 bound_to 10162
  157.5859  131.0945  150.9197 LP  0  0  0  0  0  0  0  0  0  0  0  0  # atno 17370 bound_to 10713
  156.9383  130.5375  149.5280 LP  0  0  0  0  0  0  0  0  0  0  0  0  # atno 17371 bound_to 10713
  141.0111  134.1019  157.4220 LP  0  0  0  0  0  0  0  0  0  0  0  0  # atno 17394 bound_to 11000
  139.8880  135.0094  156.6594 LP  0  0  0  0  0  0  0  0  0  0  0  0  # atno 17395 bound_to 11000

$$$$
