AV-unprocessed.smi:1027|AV-procd|sdf|4470|dock9
  -GOLD-   22720 2443D 1   1.00000     0.00000
 Structure written by MMmdl.
 35 36  0  0  0  0  0  0  0  0  1 V2000
  145.8774  142.9929  153.8852 C   0  0  0  0  0  0  0  0  0  0  0  0
  146.7403  142.0745  154.7729 C   0  0  0  0  0  0  0  0  0  0  0  0
  147.9053  141.5080  153.9413 C   0  0  0  0  0  0  0  0  0  0  0  0
  145.9046  140.9584  155.4546 C   0  0  1  0  0  0  0  0  0  0  0  0
  144.6966  141.4984  156.2439 C   0  0  0  0  0  0  0  0  0  0  0  0
  145.4259  140.0029  154.4557 N   0  0  0  0  0  0  0  0  0  0  0  0
  145.8047  138.7197  154.3596 C   0  0  0  0  0  0  0  0  0  0  0  0
  146.6014  138.1862  155.1320 O   0  0  0  0  0  0  0  0  0  0  0  0
  145.2029  138.1123  153.3218 N   0  0  0  0  0  0  0  0  0  0  0  0
  145.3434  136.7676  152.8880 C   0  0  0  0  0  0  0  0  0  0  0  0
  145.2954  135.7107  153.7103 N   0  0  0  0  0  0  0  0  0  0  0  0
  145.4590  134.5145  153.0264 N   0  0  0  0  0  0  0  0  0  0  0  0
  145.6273  134.6998  151.7118 C   0  0  0  0  0  0  0  0  0  0  0  0
  145.8240  133.5615  150.7669 C   0  0  0  0  0  0  0  0  0  0  0  0
  144.6905  132.6109  150.4572 C   0  0  0  0  0  0  0  0  0  0  0  0
  145.8774  132.1289  151.2512 C   0  0  0  0  0  0  0  0  0  0  0  0
  145.5976  136.3827  151.1948 S   0  0  0  0  0  0  0  0  0  0  0  0
  145.3701  142.4247  153.1050 H   0  0  0  0  0  0  0  0  0  0  0  0
  146.4878  143.7528  153.3963 H   0  0  0  0  0  0  0  0  0  0  0  0
  145.1170  143.5209  154.4607 H   0  0  0  0  0  0  0  0  0  0  0  0
  147.1738  142.6982  155.5561 H   0  0  0  0  0  0  0  0  0  0  0  0
  147.5472  140.8192  153.1755 H   0  0  0  0  0  0  0  0  0  0  0  0
  148.6266  140.9762  154.5607 H   0  0  0  0  0  0  0  0  0  0  0  0
  148.4519  142.3059  153.4379 H   0  0  0  0  0  0  0  0  0  0  0  0
  146.5595  140.4342  156.1533 H   0  0  0  0  0  0  0  0  0  0  0  0
  145.0068  142.1215  157.0820 H   0  0  0  0  0  0  0  0  0  0  0  0
  144.1030  140.6845  156.6618 H   0  0  0  0  0  0  0  0  0  0  0  0
  144.0405  142.0930  155.6077 H   0  0  0  0  0  0  0  0  0  0  0  0
  144.7641  140.3529  153.7786 H   0  0  0  0  0  0  0  0  0  0  0  0
  144.5694  138.6783  152.7771 H   0  0  0  0  0  0  0  0  0  0  0  0
  146.4865  133.8486  149.9526 H   0  0  0  0  0  0  0  0  0  0  0  0
  143.7528  132.7503  150.9920 H   0  0  0  0  0  0  0  0  0  0  0  0
  144.5951  132.2616  149.4312 H   0  0  0  0  0  0  0  0  0  0  0  0
  146.5744  131.4570  150.7544 H   0  0  0  0  0  0  0  0  0  0  0  0
  145.7196  131.9359  152.3103 H   0  0  0  0  0  0  0  0  0  0  0  0
  1  2  1  0  0  0  0
  1 18  1  0  0  0  0
  1 19  1  0  0  0  0
  1 20  1  0  0  0  0
  2  3  1  0  0  0  0
  2  4  1  0  0  0  0
  2 21  1  0  0  0  0
  3 22  1  0  0  0  0
  3 23  1  0  0  0  0
  3 24  1  0  0  0  0
  4  5  1  0  0  0  0
  4  6  1  0  0  0  0
  4 25  1  0  0  0  0
  5 26  1  0  0  0  0
  5 27  1  0  0  0  0
  5 28  1  0  0  0  0
  6  7  1  0  0  0  0
  6 29  1  0  0  0  0
  7  8  2  0  0  0  0
  7  9  1  0  0  0  0
  9 10  1  0  0  0  0
  9 30  1  0  0  0  0
 10 17  1  0  0  0  0
 10 11  2  0  0  0  0
 11 12  1  0  0  0  0
 12 13  2  0  0  0  0
 13 14  1  0  0  0  0
 13 17  1  0  0  0  0
 14 16  1  0  0  0  0
 14 15  1  0  0  0  0
 14 31  1  0  0  0  0
 15 16  1  0  0  0  0
 15 32  1  0  0  0  0
 15 33  1  0  0  0  0
 16 34  1  0  0  0  0
 16 35  1  0  0  0  0
M  END
> <s_m_source_file>
AV-unprocessed.smi

> <i_m_source_file_index>
1027

> <i_lp_mmshare_version>
43012

> <i_f3d_flags>
0

> <s_epik_input>
W0NIM11bQ0hdKFtDSDNdKVtDQEhdKFtDSDNdKVtOSF1DKD1PKVtOSF1jMW5uYyhzMSlbQ0hdMltDSDJdW0NIMl0y

> <s_epik_cmdline>
J2VwaWtfcHl0aG9uJywgJy1waCcsICc3LjAnLCAnLXRuJywgJzgnLCAnLW1hJywgJzIwMCcsICctbWV0YWxfYmluZGluZycsICctaW1hZScsICc8aW5maWxlLm1hZT4nLCAnLW9tYWUnLCAnPG91dGZpbGUubWFlPic=

> <r_lp_tautomer_probability>
1

> <r_epik_Ionization_Penalty>
0.000943246

> <r_epik_Ionization_Penalty_Charging>
0

> <r_epik_Ionization_Penalty_Neutral>
0.000943246

> <r_epik_State_Penalty>
-0

> <r_epik_Charging_Adjusted_Penalty>
0

> <i_epik_Tot_Q>
0

> <i_epik_Tot_abs_Q>
0

> <r_epik_Metal_State_Penalty>
0.281646

> <b_epik_Metal_Only>
0

> <s_lp_Force_Field>
OPLS_2005

> <r_lp_Energy>
3.72906

> <b_lp_Chiralities_Consistent>
1

> <s_lp_Variant>
AV-unprocessed.smi:1027-2

> <Gold.Version>
5.8.1

> <Gold.Id.Protein>
6NUR|6NUR_protein|mol2

> <Gold.PLP.Fitness>
31.6127

> <Gold.PLP.PLP>
-26.5844

> <Gold.PLP.part.hbond>
-2.0000

> <Gold.PLP.part.metal>
0.0000

> <Gold.PLP.part.buried>
-3.7870

> <Gold.PLP.part.nonpolar>
-21.3283

> <Gold.PLP.part.repulsive>
0.1851

> <Gold.PLP.ligand.clash>
0.0000

> <Gold.PLP.ligand.torsion>
0.5490

> <Gold.PLP.Chemscore.Hbond>
1.9920

> <Gold.PLP.Chemscore.CHOScore>
0.0000

> <Gold.PLP.Chemscore.Metal>
0.0000

> <Gold.Chemscore.Hbonds>
donor molecule, donor type, donor heavy atom, donor atom, acceptor molecule, acceptor atom, score
      L1  H     6    29       P1 10175  1.00
      L1  H     9    30       P1 10175  0.99

> <Gold.PLP.Chemscore.Internal.Correction>
0.1502

> <Gold.Rescore>
     Score         DG    S(hbond)    S(metal)    S(lipo)     H(rot)  DE(clash)    DE(int)     intcor
     14.86     -15.57       1.96        0.00      60.75       1.39       0.14       0.57       ----

> <Gold.Chemscore.Fitness>
14.8593

> <Gold.Chemscore.DG>
-15.5746

> <Gold.Chemscore.ZeroCoef>
-5.4800

> <Gold.Chemscore.Hbond>
1.9589

> <Gold.Chemscore.Metal>
0.0000

> <Gold.Chemscore.Lipo>
60.7502

> <Gold.Chemscore.Internal_Hbond>
0.0000

> <Gold.Chemscore.DEClash>
0.1417

> <Gold.Chemscore.DEInternal>
0.5736

> <Gold.Chemscore.Rot>
1.3890

> <Gold.Chemscore.Internal.Correction>
   9.000000E+99

> <Gold.Chemscore.Hbonds>
donor molecule, donor type, donor heavy atom, donor atom, acceptor molecule, acceptor atom, score
      L1  H     6    29       P1 10175  1.00
      L1  H     9    30       P1 10175  0.90

> <Gold.Chemscore.Hbond.Weighted>
-6.5427

> <Gold.Chemscore.Metal.Weighted>
-0.0000

> <Gold.Chemscore.Lipo.Weighted>
-7.1078

> <Gold.Chemscore.Internal_Hbond.Weighted>
0.0000

> <Gold.Chemscore.DEClash.Weighted>
0.1417

> <Gold.Chemscore.DEInternal.Weighted>
0.5736

> <Gold.Chemscore.Rot.Weighted>
3.5559

> <Gold.Chemscore.Internal.Correction.Weighted>
   9.000000E+99

> <Gold.Protein.RotatedTorsions>
[ 6907 6896 6895 6894 ] final  -95.23 input  -60.11 | X-H torsion
[ 7974 7965 7964 7962 ] final  -78.78 input  175.53 | X-H torsion
[ 8008 7997 7996 7995 ] final -107.26 input   59.86 | X-H torsion
[ 10167 10162 10161 10158 ] final  -34.13 input  -65.29 | X-H torsion
[ 10718 10713 10712 10709 ] final  -60.05 input   66.30 | X-H torsion
[ 10763 10752 10751 10750 ] final   17.01 input  -60.55 | X-H torsion
[ 11005 11000 10999 10996 ] final  -42.83 input  -57.11 | X-H torsion

> <Gold.Protein.ActiveResidues>
 VAL166  LYS551  ARG553  GLY616  TRP617  ASP618  TYR619  PRO620  LYS621  CYS622 
 ASP623  PHE694  ASN695  SER759  ASP760  ASP761  ALA762  ILE779  LEU786  VAL792 
 PHE793  MET794  SER795  GLU796  ALA797  LYS798  CYS799  TRP800  GLU811  SER814 

> <Gold.Protein.RotatedAtoms>
  150.6959  134.1690  159.4204 H   0  0  0  0  0  0  0  0  0  0  0  0  # atno 6907 bound_to 6896
  151.9668  135.0094  160.0560 H   0  0  0  0  0  0  0  0  0  0  0  0  # atno 6908 bound_to 6896
  152.1877  133.4716  159.5028 H   0  0  0  0  0  0  0  0  0  0  0  0  # atno 6909 bound_to 6896
  145.5819  140.9447  143.1339 H   0  0  0  0  0  0  0  0  0  0  0  0  # atno 7974 bound_to 7965
  154.9268  140.0406  157.2027 H   0  0  0  0  0  0  0  0  0  0  0  0  # atno 8008 bound_to 7997
  154.8200  140.2882  155.5772 H   0  0  0  0  0  0  0  0  0  0  0  0  # atno 8009 bound_to 7997
  156.2979  140.2520  156.3105 H   0  0  0  0  0  0  0  0  0  0  0  0  # atno 8010 bound_to 7997
  140.7191  143.3570  151.2040 H   0  0  0  0  0  0  0  0  0  0  0  0  # atno 10167 bound_to 10162
  156.1018  130.4185  150.0800 H   0  0  0  0  0  0  0  0  0  0  0  0  # atno 10718 bound_to 10713
  153.1378  135.6753  153.9075 H   0  0  0  0  0  0  0  0  0  0  0  0  # atno 10763 bound_to 10752
  153.8541  135.3089  155.3435 H   0  0  0  0  0  0  0  0  0  0  0  0  # atno 10764 bound_to 10752
  154.7762  135.4913  153.9832 H   0  0  0  0  0  0  0  0  0  0  0  0  # atno 10765 bound_to 10752
  141.0342  133.6807  156.2648 H   0  0  0  0  0  0  0  0  0  0  0  0  # atno 11005 bound_to 11000
  144.7390  139.7502  143.7318 LP  0  0  0  0  0  0  0  0  0  0  0  0  # atno 17320 bound_to 7965
  146.1710  139.4861  142.9927 LP  0  0  0  0  0  0  0  0  0  0  0  0  # atno 17321 bound_to 7965
  139.7113  143.9372  152.2948 LP  0  0  0  0  0  0  0  0  0  0  0  0  # atno 17342 bound_to 10162
  139.9098  144.6863  150.8575 LP  0  0  0  0  0  0  0  0  0  0  0  0  # atno 17343 bound_to 10162
  156.8785  130.9548  151.3602 LP  0  0  0  0  0  0  0  0  0  0  0  0  # atno 17370 bound_to 10713
  157.6189  130.8640  149.9075 LP  0  0  0  0  0  0  0  0  0  0  0  0  # atno 17371 bound_to 10713
  140.6352  134.5223  157.5564 LP  0  0  0  0  0  0  0  0  0  0  0  0  # atno 17394 bound_to 11000
  139.9229  134.8113  156.1156 LP  0  0  0  0  0  0  0  0  0  0  0  0  # atno 17395 bound_to 11000

$$$$
