AV-unprocessed.smi:3307|AV-procd|sdf|12707|dock10
  -GOLD-   2272019 43D 1   1.00000     0.00000
 Structure written by MMmdl.
 31 32  0  0  0  0  0  0  0  0  2 V2000
  153.9697  140.4707  160.8246 C   0  0  0  0  0  0  0  0  0  0  0  0
  153.2462  141.7072  160.3794 C   0  0  0  0  0  0  0  0  0  0  0  0
  153.0986  142.9407  161.0731 C   0  0  0  0  0  0  0  0  0  0  0  0
  152.3580  143.7174  160.2273 C   0  0  0  0  0  0  0  0  0  0  0  0
  151.8710  145.1200  160.3876 C   0  0  0  0  0  0  0  0  0  0  0  0
  152.1014  142.9534  159.1029 N   0  0  0  0  0  0  0  0  0  0  0  0
  151.3628  143.3074  157.9016 C   0  0  0  0  0  0  0  0  0  0  0  0
  151.1340  142.0990  156.9745 C   0  0  1  0  0  0  0  0  0  0  0  0
  150.4309  140.9016  157.6225 C   0  0  0  0  0  0  0  0  0  0  0  0
  149.8316  140.1742  156.4253 C   0  0  0  0  0  0  0  0  0  0  0  0
  149.4202  141.3139  155.4905 C   0  0  0  0  0  0  0  0  0  0  0  0
  150.3074  142.4528  155.8033 N   0  3  0  0  0  0  0  0  0  0  0  0
  152.6461  141.7216  159.2007 N   0  0  0  0  0  0  0  0  0  0  0  0
  154.3905  140.5978  161.8221 H   0  0  0  0  0  0  0  0  0  0  0  0
  154.7895  140.2299  160.1475 H   0  0  0  0  0  0  0  0  0  0  0  0
  153.2983  139.6123  160.8556 H   0  0  0  0  0  0  0  0  0  0  0  0
  153.4790  143.2136  162.0464 H   0  0  0  0  0  0  0  0  0  0  0  0
  152.1844  145.5326  161.3468 H   0  0  0  0  0  0  0  0  0  0  0  0
  150.7824  145.1611  160.3472 H   0  0  0  0  0  0  0  0  0  0  0  0
  152.2667  145.7630  159.6021 H   0  0  0  0  0  0  0  0  0  0  0  0
  150.4066  143.7433  158.1963 H   0  0  0  0  0  0  0  0  0  0  0  0
  151.9078  144.0917  157.3755 H   0  0  0  0  0  0  0  0  0  0  0  0
  152.0943  141.7563  156.5868 H   0  0  0  0  0  0  0  0  0  0  0  0
  151.1086  140.2751  158.2037 H   0  0  0  0  0  0  0  0  0  0  0  0
  149.6330  141.2409  158.2850 H   0  0  0  0  0  0  0  0  0  0  0  0
  150.5958  139.5599  155.9473 H   0  0  0  0  0  0  0  0  0  0  0  0
  148.9982  139.5250  156.6954 H   0  0  0  0  0  0  0  0  0  0  0  0
  149.4900  141.0318  154.4397 H   0  0  0  0  0  0  0  0  0  0  0  0
  148.3916  141.6152  155.6910 H   0  0  0  0  0  0  0  0  0  0  0  0
  149.7340  143.2537  156.0264 H   0  0  0  0  0  0  0  0  0  0  0  0
  150.9015  142.6699  155.0159 H   0  0  0  0  0  0  0  0  0  0  0  0
  1  2  1  0  0  0  0
  1 14  1  0  0  0  0
  1 15  1  0  0  0  0
  1 16  1  0  0  0  0
  2 13  2  0  0  0  0
  2  3  1  0  0  0  0
  3  4  2  0  0  0  0
  3 17  1  0  0  0  0
  4  5  1  0  0  0  0
  4  6  1  0  0  0  0
  5 18  1  0  0  0  0
  5 19  1  0  0  0  0
  5 20  1  0  0  0  0
  6  7  1  0  0  0  0
  6 13  1  0  0  0  0
  7  8  1  0  0  0  0
  7 21  1  0  0  0  0
  7 22  1  0  0  0  0
  8 12  1  0  0  0  0
  8  9  1  0  0  0  0
  8 23  1  0  0  0  0
  9 10  1  0  0  0  0
  9 24  1  0  0  0  0
  9 25  1  0  0  0  0
 10 11  1  0  0  0  0
 10 26  1  0  0  0  0
 10 27  1  0  0  0  0
 11 12  1  0  0  0  0
 11 28  1  0  0  0  0
 11 29  1  0  0  0  0
 12 30  1  0  0  0  0
 12 31  1  0  0  0  0
M  CHG  1  12   1
M  END
> <s_m_source_file>
AV-unprocessed.smi

> <i_m_source_file_index>
3307

> <i_lp_mmshare_version>
43012

> <i_f3d_flags>
0

> <s_epik_input>
W0NIM11jMVtjSF1jKFtDSDNdKW4objEpW0NIMl1bQ0BASF0yW0NIMl1bQ0gyXVtDSDJdW05IXTI=

> <s_epik_cmdline>
J2VwaWtfcHl0aG9uJywgJy1waCcsICc3LjAnLCAnLXRuJywgJzgnLCAnLW1hJywgJzIwMCcsICctbWV0YWxfYmluZGluZycsICctaW1hZScsICc8aW5maWxlLm1hZT4nLCAnLW9tYWUnLCAnPG91dGZpbGUubWFlPic=

> <r_lp_tautomer_probability>
1

> <r_epik_Ionization_Penalty>
0.000974324

> <r_epik_Ionization_Penalty_Charging>
0.000863359

> <r_epik_Ionization_Penalty_Neutral>
0.000110964

> <r_epik_State_Penalty>
-0

> <r_epik_Charging_Adjusted_Penalty>
0.000863359

> <i_epik_Tot_Q>
1

> <i_epik_Tot_abs_Q>
1

> <r_epik_Metal_State_Penalty>
-0

> <b_epik_Metal_Only>
0

> <s_lp_Force_Field>
OPLS_2005

> <r_lp_Energy>
22.7328

> <b_lp_Chiralities_Consistent>
1

> <s_lp_Variant>
AV-unprocessed.smi:3307-2

> <Gold.Version>
5.8.1

> <Gold.Id.Protein>
6NUR|6NUR_protein|mol2

> <Gold.PLP.Fitness>
37.9819

> <Gold.PLP.PLP>
-32.1409

> <Gold.PLP.part.hbond>
-1.0000

> <Gold.PLP.part.metal>
0.0000

> <Gold.PLP.part.buried>
-4.1403

> <Gold.PLP.part.nonpolar>
-26.9124

> <Gold.PLP.part.repulsive>
0.1579

> <Gold.PLP.ligand.clash>
0.0000

> <Gold.PLP.ligand.torsion>
0.0796

> <Gold.PLP.Chemscore.Hbond>
2.0000

> <Gold.PLP.Chemscore.CHOScore>
0.0000

> <Gold.PLP.Chemscore.Metal>
0.0000

> <Gold.Chemscore.Hbonds>
donor molecule, donor type, donor heavy atom, donor atom, acceptor molecule, acceptor atom, score
      L1  H    12    30       P1  8028  2.00

> <Gold.PLP.Chemscore.Internal.Correction>
0.0001

> <Gold.Rescore>
     Score         DG    S(hbond)    S(metal)    S(lipo)     H(rot)  DE(clash)    DE(int)     intcor
     14.89     -16.27       0.98        0.00      89.83       1.16       0.06       1.32       ----

> <Gold.Chemscore.Fitness>
14.8928

> <Gold.Chemscore.DG>
-16.2711

> <Gold.Chemscore.ZeroCoef>
-5.4800

> <Gold.Chemscore.Hbond>
0.9755

> <Gold.Chemscore.Metal>
0.0000

> <Gold.Chemscore.Lipo>
89.8274

> <Gold.Chemscore.Internal_Hbond>
0.0000

> <Gold.Chemscore.DEClash>
0.0592

> <Gold.Chemscore.DEInternal>
1.3190

> <Gold.Chemscore.Rot>
1.1628

> <Gold.Chemscore.Internal.Correction>
   9.000000E+99

> <Gold.Chemscore.Hbonds>
donor molecule, donor type, donor heavy atom, donor atom, acceptor molecule, acceptor atom, score
      L1  H    12    30       P1  8028  0.98

> <Gold.Chemscore.Hbond.Weighted>
-3.2581

> <Gold.Chemscore.Metal.Weighted>
-0.0000

> <Gold.Chemscore.Lipo.Weighted>
-10.5098

> <Gold.Chemscore.Internal_Hbond.Weighted>
0.0000

> <Gold.Chemscore.DEClash.Weighted>
0.0592

> <Gold.Chemscore.DEInternal.Weighted>
1.3190

> <Gold.Chemscore.Rot.Weighted>
2.9768

> <Gold.Chemscore.Internal.Correction.Weighted>
   9.000000E+99

> <Gold.Protein.RotatedTorsions>
[ 6907 6896 6895 6894 ] final  158.87 input  -60.11 | X-H torsion
[ 7974 7965 7964 7962 ] final   87.31 input  175.53 | X-H torsion
[ 8008 7997 7996 7995 ] final  -62.96 input   59.86 | X-H torsion
[ 10167 10162 10161 10158 ] final   51.63 input  -65.29 | X-H torsion
[ 10718 10713 10712 10709 ] final   32.62 input   66.30 | X-H torsion
[ 10763 10752 10751 10750 ] final  -29.95 input  -60.55 | X-H torsion
[ 11005 11000 10999 10996 ] final   63.34 input  -57.11 | X-H torsion

> <Gold.Protein.ActiveResidues>
 VAL166  LYS551  ARG553  GLY616  TRP617  ASP618  TYR619  PRO620  LYS621  CYS622 
 ASP623  PHE694  ASN695  SER759  ASP760  ASP761  ALA762  ILE779  LEU786  VAL792 
 PHE793  MET794  SER795  GLU796  ALA797  LYS798  CYS799  TRP800  GLU811  SER814 

> <Gold.Protein.RotatedAtoms>
  151.9941  133.3801  159.4155 H   0  0  0  0  0  0  0  0  0  0  0  0  # atno 6907 bound_to 6896
  150.6918  134.3905  159.5083 H   0  0  0  0  0  0  0  0  0  0  0  0  # atno 6908 bound_to 6896
  152.1643  134.8886  160.0590 H   0  0  0  0  0  0  0  0  0  0  0  0  # atno 6909 bound_to 6896
  145.5607  139.2303  143.2461 H   0  0  0  0  0  0  0  0  0  0  0  0  # atno 7974 bound_to 7965
  154.4528  140.0985  156.6668 H   0  0  0  0  0  0  0  0  0  0  0  0  # atno 8008 bound_to 7997
  155.5232  140.3479  155.4392 H   0  0  0  0  0  0  0  0  0  0  0  0  # atno 8009 bound_to 7997
  156.0716  140.1351  156.9811 H   0  0  0  0  0  0  0  0  0  0  0  0  # atno 8010 bound_to 7997
  140.2599  144.3385  150.6321 H   0  0  0  0  0  0  0  0  0  0  0  0  # atno 10167 bound_to 10162
  157.2875  130.7286  149.6592 H   0  0  0  0  0  0  0  0  0  0  0  0  # atno 10718 bound_to 10713
  153.7731  135.6911  153.4902 H   0  0  0  0  0  0  0  0  0  0  0  0  # atno 10763 bound_to 10752
  153.1861  135.4488  155.0089 H   0  0  0  0  0  0  0  0  0  0  0  0  # atno 10764 bound_to 10752
  154.8110  135.3377  154.7239 H   0  0  0  0  0  0  0  0  0  0  0  0  # atno 10765 bound_to 10752
  140.0031  134.6411  155.9898 H   0  0  0  0  0  0  0  0  0  0  0  0  # atno 11005 bound_to 11000
  146.1853  140.6432  142.9170 LP  0  0  0  0  0  0  0  0  0  0  0  0  # atno 17320 bound_to 7965
  144.7484  140.5128  143.6819 LP  0  0  0  0  0  0  0  0  0  0  0  0  # atno 17321 bound_to 7965
  140.5974  143.2167  151.7137 LP  0  0  0  0  0  0  0  0  0  0  0  0  # atno 17342 bound_to 10162
  139.5020  144.3846  152.0342 LP  0  0  0  0  0  0  0  0  0  0  0  0  # atno 17343 bound_to 10162
  155.9666  130.4319  150.4940 LP  0  0  0  0  0  0  0  0  0  0  0  0  # atno 17370 bound_to 10713
  157.2896  131.0623  151.2143 LP  0  0  0  0  0  0  0  0  0  0  0  0  # atno 17371 bound_to 10713
  141.1657  133.6537  156.4471 LP  0  0  0  0  0  0  0  0  0  0  0  0  # atno 17394 bound_to 11000
  140.4691  134.6770  157.5121 LP  0  0  0  0  0  0  0  0  0  0  0  0  # atno 17395 bound_to 11000

$$$$
