AV-unprocessed.smi:754|AV-procd|sdf|3607|dock3
  -GOLD-   22720 1 03D 1   1.00000     0.00000
 Structure written by MMmdl.
 37 38  0  0  0  0  0  0  0  0  1 V2000
  152.9299  142.7695  162.2554 C   0  0  0  0  0  0  0  0  0  0  0  0
  152.8506  141.8524  161.0329 C   0  0  0  0  0  0  0  0  0  0  0  0
  151.6412  142.1131  160.3406 O   0  0  0  0  0  0  0  0  0  0  0  0
  151.4674  141.2835  159.2023 C   0  0  2  0  0  0  0  0  0  0  0  0
  152.7517  141.0050  158.4162 C   0  0  0  0  0  0  0  0  0  0  0  0
  151.9333  141.2155  157.1381 C   0  0  1  0  0  0  0  0  0  0  0  0
  151.4146  139.9435  156.6342 N   0  0  0  0  0  0  0  0  0  0  0  0
  151.8810  139.3069  155.5491 C   0  0  0  0  0  0  0  0  0  0  0  0
  152.7898  139.7450  154.8448 O   0  0  0  0  0  0  0  0  0  0  0  0
  151.2183  137.9740  155.2010 C   0  0  0  0  0  0  0  0  0  0  0  0
  151.2646  137.0599  156.3265 N   0  0  0  0  0  0  0  0  0  0  0  0
  150.7359  137.1463  157.5490 C   0  0  0  0  0  0  0  0  0  0  0  0
  151.0282  136.0847  158.2846 N   0  0  0  0  0  0  0  0  0  0  0  0
  151.7913  135.3090  157.4277 N   0  0  0  0  0  0  0  0  0  0  0  0
  151.9355  135.8829  156.2646 N   0  0  0  0  0  0  0  0  0  0  0  0
  150.9083  142.0375  157.9717 C   0  0  0  0  0  0  0  0  0  0  0  0
  149.4145  141.8383  157.6893 C   0  0  0  0  0  0  0  0  0  0  0  0
  151.1580  143.5517  157.9442 C   0  0  0  0  0  0  0  0  0  0  0  0
  153.8498  142.5958  162.8139 H   0  0  0  0  0  0  0  0  0  0  0  0
  152.0909  142.5960  162.9297 H   0  0  0  0  0  0  0  0  0  0  0  0
  152.9118  143.8185  161.9591 H   0  0  0  0  0  0  0  0  0  0  0  0
  153.7075  142.0297  160.3817 H   0  0  0  0  0  0  0  0  0  0  0  0
  152.8848  140.8084  161.3476 H   0  0  0  0  0  0  0  0  0  0  0  0
  150.9029  140.3736  159.4184 H   0  0  0  0  0  0  0  0  0  0  0  0
  153.5146  141.7716  158.5607 H   0  0  0  0  0  0  0  0  0  0  0  0
  153.1611  140.0034  158.5528 H   0  0  0  0  0  0  0  0  0  0  0  0
  152.4686  141.8044  156.3909 H   0  0  0  0  0  0  0  0  0  0  0  0
  150.6602  139.5179  157.1531 H   0  0  0  0  0  0  0  0  0  0  0  0
  150.1772  138.1346  154.9175 H   0  0  0  0  0  0  0  0  0  0  0  0
  151.7189  137.5183  154.3453 H   0  0  0  0  0  0  0  0  0  0  0  0
  150.1462  137.9812  157.8975 H   0  0  0  0  0  0  0  0  0  0  0  0
  149.1530  142.1602  156.6808 H   0  0  0  0  0  0  0  0  0  0  0  0
  148.7967  142.4048  158.3867 H   0  0  0  0  0  0  0  0  0  0  0  0
  149.1160  140.7941  157.7845 H   0  0  0  0  0  0  0  0  0  0  0  0
  150.9078  143.9781  156.9722 H   0  0  0  0  0  0  0  0  0  0  0  0
  152.2022  143.7962  158.1407 H   0  0  0  0  0  0  0  0  0  0  0  0
  150.5613  144.0720  158.6939 H   0  0  0  0  0  0  0  0  0  0  0  0
  1  2  1  0  0  0  0
  1 19  1  0  0  0  0
  1 20  1  0  0  0  0
  1 21  1  0  0  0  0
  2  3  1  0  0  0  0
  2 22  1  0  0  0  0
  2 23  1  0  0  0  0
  3  4  1  0  0  0  0
  4 16  1  0  0  0  0
  4  5  1  0  0  0  0
  4 24  1  0  0  0  0
  5  6  1  0  0  0  0
  5 25  1  0  0  0  0
  5 26  1  0  0  0  0
  6  7  1  0  0  0  0
  6 16  1  0  0  0  0
  6 27  1  0  0  0  0
  7  8  1  0  0  0  0
  7 28  1  0  0  0  0
  8  9  2  0  0  0  0
  8 10  1  0  0  0  0
 10 11  1  0  0  0  0
 10 29  1  0  0  0  0
 10 30  1  0  0  0  0
 11 15  1  0  0  0  0
 11 12  1  0  0  0  0
 12 13  2  0  0  0  0
 12 31  1  0  0  0  0
 13 14  1  0  0  0  0
 14 15  2  0  0  0  0
 16 17  1  0  0  0  0
 16 18  1  0  0  0  0
 17 32  1  0  0  0  0
 17 33  1  0  0  0  0
 17 34  1  0  0  0  0
 18 35  1  0  0  0  0
 18 36  1  0  0  0  0
 18 37  1  0  0  0  0
M  END
> <s_m_source_file>
AV-unprocessed.smi

> <i_m_source_file_index>
754

> <i_lp_mmshare_version>
43012

> <i_f3d_flags>
0

> <s_epik_input>
W0NIM11bQ0gyXU9bQ0BASF0oQzEoW0NIM10pW0NIM10pW0NIMl1bQ0BIXTFbTkhdQyg9TylbQ0gyXW4yW2NIXW5ubjI=

> <s_epik_cmdline>
J2VwaWtfcHl0aG9uJywgJy1waCcsICc3LjAnLCAnLXRuJywgJzgnLCAnLW1hJywgJzIwMCcsICctbWV0YWxfYmluZGluZycsICctaW1hZScsICc8aW5maWxlLm1hZT4nLCAnLW9tYWUnLCAnPG91dGZpbGUubWFlPic=

> <r_lp_tautomer_probability>
1

> <r_epik_Ionization_Penalty>
8.28422e-07

> <r_epik_Ionization_Penalty_Charging>
0

> <r_epik_Ionization_Penalty_Neutral>
8.28422e-07

> <r_epik_State_Penalty>
-0

> <r_epik_Charging_Adjusted_Penalty>
0

> <i_epik_Tot_Q>
0

> <i_epik_Tot_abs_Q>
0

> <r_epik_Metal_State_Penalty>
-0

> <b_epik_Metal_Only>
0

> <s_lp_Force_Field>
OPLS_2005

> <r_lp_Energy>
23.2797

> <b_lp_Chiralities_Consistent>
1

> <s_lp_Variant>
AV-unprocessed.smi:754-1

> <Gold.Version>
5.8.1

> <Gold.Id.Protein>
6NUR|6NUR_protein|mol2

> <Gold.PLP.Fitness>
37.3704

> <Gold.PLP.PLP>
-29.4059

> <Gold.PLP.part.hbond>
-6.0000

> <Gold.PLP.part.metal>
0.0000

> <Gold.PLP.part.buried>
-5.3295

> <Gold.PLP.part.nonpolar>
-18.4962

> <Gold.PLP.part.repulsive>
0.1612

> <Gold.PLP.ligand.clash>
0.0000

> <Gold.PLP.ligand.torsion>
0.6888

> <Gold.PLP.Chemscore.Hbond>
2.9956

> <Gold.PLP.Chemscore.CHOScore>
0.0000

> <Gold.PLP.Chemscore.Metal>
0.0000

> <Gold.Chemscore.Hbonds>
donor molecule, donor type, donor heavy atom, donor atom, acceptor molecule, acceptor atom, score
      P1  H  6896  6909       L1    13  0.55
      P1  H  7989  7998       L1     9  0.44
      P1  H  7997  8008       L1     9  0.96
      P1  H 10752 10763       L1    15  1.00

> <Gold.PLP.Chemscore.Internal.Correction>
0.3553

> <Gold.Rescore>
     Score         DG    S(hbond)    S(metal)    S(lipo)     H(rot)  DE(clash)    DE(int)     intcor
     15.27     -15.85       2.58        0.00      68.75       2.46       0.00       0.58       ----

> <Gold.Chemscore.Fitness>
15.2655

> <Gold.Chemscore.DG>
-15.8510

> <Gold.Chemscore.ZeroCoef>
-5.4800

> <Gold.Chemscore.Hbond>
2.5835

> <Gold.Chemscore.Metal>
0.0000

> <Gold.Chemscore.Lipo>
68.7509

> <Gold.Chemscore.Internal_Hbond>
0.0000

> <Gold.Chemscore.DEClash>
0.0048

> <Gold.Chemscore.DEInternal>
0.5807

> <Gold.Chemscore.Rot>
2.4616

> <Gold.Chemscore.Internal.Correction>
   9.000000E+99

> <Gold.Chemscore.Hbonds>
donor molecule, donor type, donor heavy atom, donor atom, acceptor molecule, acceptor atom, score
      P1  H  6896  6909       L1    13  0.12
      P1  H  7989  7998       L1     9  0.11
      P1  H  7997  8008       L1     9  0.59
      P1  H 10752 10763       L1    15  0.99

> <Gold.Chemscore.Hbond.Weighted>
-8.6288

> <Gold.Chemscore.Metal.Weighted>
-0.0000

> <Gold.Chemscore.Lipo.Weighted>
-8.0439

> <Gold.Chemscore.Internal_Hbond.Weighted>
0.0000

> <Gold.Chemscore.DEClash.Weighted>
0.0048

> <Gold.Chemscore.DEInternal.Weighted>
0.5807

> <Gold.Chemscore.Rot.Weighted>
6.3016

> <Gold.Chemscore.Internal.Correction.Weighted>
   9.000000E+99

> <Gold.Protein.RotatedTorsions>
[ 6907 6896 6895 6894 ] final   81.11 input  -60.11 | X-H torsion
[ 7974 7965 7964 7962 ] final  133.34 input  175.53 | X-H torsion
[ 8008 7997 7996 7995 ] final  -28.25 input   59.86 | X-H torsion
[ 10167 10162 10161 10158 ] final  -65.33 input  -65.29 | X-H torsion
[ 10718 10713 10712 10709 ] final  -51.57 input   66.30 | X-H torsion
[ 10763 10752 10751 10750 ] final   80.48 input  -60.55 | X-H torsion
[ 11005 11000 10999 10996 ] final  -70.67 input  -57.11 | X-H torsion

> <Gold.Protein.ActiveResidues>
 VAL166  LYS551  ARG553  GLY616  TRP617  ASP618  TYR619  PRO620  LYS621  CYS622 
 ASP623  PHE694  ASN695  SER759  ASP760  ASP761  ALA762  ILE779  LEU786  VAL792 
 PHE793  MET794  SER795  GLU796  ALA797  LYS798  CYS799  TRP800  GLU811  SER814 

> <Gold.Protein.RotatedAtoms>
  152.5257  134.3255  159.9163 H   0  0  0  0  0  0  0  0  0  0  0  0  # atno 6907 bound_to 6896
  151.3204  133.4036  159.2661 H   0  0  0  0  0  0  0  0  0  0  0  0  # atno 6908 bound_to 6896
  150.9964  134.9304  159.7986 H   0  0  0  0  0  0  0  0  0  0  0  0  # atno 6909 bound_to 6896
  144.9875  139.4440  143.5356 H   0  0  0  0  0  0  0  0  0  0  0  0  # atno 7974 bound_to 7965
  154.4340  140.1850  156.1060 H   0  0  0  0  0  0  0  0  0  0  0  0  # atno 8008 bound_to 7997
  156.0255  140.3336  155.7058 H   0  0  0  0  0  0  0  0  0  0  0  0  # atno 8009 bound_to 7997
  155.5915  140.0631  157.2748 H   0  0  0  0  0  0  0  0  0  0  0  0  # atno 8010 bound_to 7997
  140.5737  143.2320  151.6486 H   0  0  0  0  0  0  0  0  0  0  0  0  # atno 10167 bound_to 10162
  156.1698  130.4149  149.9665 H   0  0  0  0  0  0  0  0  0  0  0  0  # atno 10718 bound_to 10713
  153.1037  135.4801  154.8912 H   0  0  0  0  0  0  0  0  0  0  0  0  # atno 10763 bound_to 10752
  154.7406  135.3081  154.8737 H   0  0  0  0  0  0  0  0  0  0  0  0  # atno 10764 bound_to 10752
  153.9346  135.6841  153.4798 H   0  0  0  0  0  0  0  0  0  0  0  0  # atno 10765 bound_to 10752
  141.1578  133.6796  156.6788 H   0  0  0  0  0  0  0  0  0  0  0  0  # atno 11005 bound_to 11000
  146.3423  139.9186  142.8770 LP  0  0  0  0  0  0  0  0  0  0  0  0  # atno 17320 bound_to 7965
  145.2333  140.9981  143.3978 LP  0  0  0  0  0  0  0  0  0  0  0  0  # atno 17321 bound_to 7965
  139.5131  144.3454  152.0702 LP  0  0  0  0  0  0  0  0  0  0  0  0  # atno 17342 bound_to 10162
  140.2595  144.4083  150.6191 LP  0  0  0  0  0  0  0  0  0  0  0  0  # atno 17343 bound_to 10162
  156.7468  130.9100  151.3635 LP  0  0  0  0  0  0  0  0  0  0  0  0  # atno 17370 bound_to 10713
  157.6794  130.9125  150.0230 LP  0  0  0  0  0  0  0  0  0  0  0  0  # atno 17371 bound_to 10713
  140.3118  134.8079  157.4183 LP  0  0  0  0  0  0  0  0  0  0  0  0  # atno 17394 bound_to 11000
  140.1172  134.5268  155.8215 LP  0  0  0  0  0  0  0  0  0  0  0  0  # atno 17395 bound_to 11000

$$$$
