AV-unprocessed.smi:614|AV-procd|sdf|3068|dock5
  -GOLD-   2262023593D 1   1.00000     0.00000
 Structure written by MMmdl.
 44 45  0  0  0  0  0  0  0  0  1 V2000
  150.9213  141.0058  156.0102 C   0  0  0  0  0  0  0  0  0  0  0  0
  149.7925  140.5876  155.2069 N   0  0  0  0  0  0  0  0  0  0  0  0
  148.8164  141.3680  154.6208 C   0  0  0  0  0  0  0  0  0  0  0  0
  147.9648  140.5294  153.9588 C   0  0  0  0  0  0  0  0  0  0  0  0
  148.5162  139.2416  154.2051 C   0  0  0  0  0  0  0  0  0  0  0  0
  147.9077  138.0786  153.6673 N   0  0  0  0  0  0  0  0  0  0  0  0
  146.6347  137.6746  153.8182 C   0  0  0  0  0  0  0  0  0  0  0  0
  145.7665  138.2945  154.4326 O   0  0  0  0  0  0  0  0  0  0  0  0
  146.4297  136.4966  153.2049 N   0  0  0  0  0  0  0  0  0  0  0  0
  145.1993  135.6932  153.1315 C   0  0  1  0  0  0  0  0  0  0  0  0
  145.1137  134.7487  154.3581 C   0  0  0  0  0  0  0  0  0  0  0  0
  143.9651  136.6424  153.1512 C   0  0  0  0  0  0  0  0  0  0  0  0
  144.0264  137.6236  152.1355 O   0  0  0  0  0  0  0  0  0  0  0  0
  145.2664  134.8551  151.8054 C   0  0  0  0  0  0  0  0  0  0  0  0
  143.9686  134.0528  151.5128 C   0  0  0  0  0  0  0  0  0  0  0  0
  144.0429  133.2895  150.1808 C   0  0  0  0  0  0  0  0  0  0  0  0
  145.2531  132.3486  150.1448 C   0  0  0  0  0  0  0  0  0  0  0  0
  146.5490  133.1238  150.4117 C   0  0  0  0  0  0  0  0  0  0  0  0
  146.4799  133.8884  151.7435 C   0  0  0  0  0  0  0  0  0  0  0  0
  149.6110  139.2748  154.9526 N   0  0  0  0  0  0  0  0  0  0  0  0
  150.8327  142.0638  156.2587 H   0  0  0  0  0  0  0  0  0  0  0  0
  151.8458  140.8471  155.4545 H   0  0  0  0  0  0  0  0  0  0  0  0
  150.9546  140.4273  156.9341 H   0  0  0  0  0  0  0  0  0  0  0  0
  148.8094  142.4434  154.7214 H   0  0  0  0  0  0  0  0  0  0  0  0
  147.0881  140.7976  153.3878 H   0  0  0  0  0  0  0  0  0  0  0  0
  148.5118  137.4802  153.1239 H   0  0  0  0  0  0  0  0  0  0  0  0
  147.2261  136.0946  152.7330 H   0  0  0  0  0  0  0  0  0  0  0  0
  144.3323  133.9998  154.2261 H   0  0  0  0  0  0  0  0  0  0  0  0
  144.8795  135.2906  155.2745 H   0  0  0  0  0  0  0  0  0  0  0  0
  146.0502  134.2216  154.5382 H   0  0  0  0  0  0  0  0  0  0  0  0
  143.0386  136.0859  153.0106 H   0  0  0  0  0  0  0  0  0  0  0  0
  143.8661  137.1452  154.1133 H   0  0  0  0  0  0  0  0  0  0  0  0
  143.7748  138.4553  152.5071 H   0  0  0  0  0  0  0  0  0  0  0  0
  145.3820  135.5592  150.9799 H   0  0  0  0  0  0  0  0  0  0  0  0
  143.7718  133.3433  152.3173 H   0  0  0  0  0  0  0  0  0  0  0  0
  143.1051  134.7148  151.4693 H   0  0  0  0  0  0  0  0  0  0  0  0
  143.1262  132.7192  150.0284 H   0  0  0  0  0  0  0  0  0  0  0  0
  144.1054  133.9999  149.3555 H   0  0  0  0  0  0  0  0  0  0  0  0
  145.1324  131.5649  150.8937 H   0  0  0  0  0  0  0  0  0  0  0  0
  145.3091  131.8486  149.1776 H   0  0  0  0  0  0  0  0  0  0  0  0
  147.3958  132.4370  150.4216 H   0  0  0  0  0  0  0  0  0  0  0  0
  146.7304  133.8258  149.5967 H   0  0  0  0  0  0  0  0  0  0  0  0
  147.4153  134.4334  151.8627 H   0  0  0  0  0  0  0  0  0  0  0  0
  146.4342  133.1718  152.5641 H   0  0  0  0  0  0  0  0  0  0  0  0
  1  2  1  0  0  0  0
  1 21  1  0  0  0  0
  1 22  1  0  0  0  0
  1 23  1  0  0  0  0
  2 20  1  0  0  0  0
  2  3  1  0  0  0  0
  3  4  2  0  0  0  0
  3 24  1  0  0  0  0
  4  5  1  0  0  0  0
  4 25  1  0  0  0  0
  5  6  1  0  0  0  0
  5 20  2  0  0  0  0
  6  7  1  0  0  0  0
  6 26  1  0  0  0  0
  7  8  2  0  0  0  0
  7  9  1  0  0  0  0
  9 10  1  0  0  0  0
  9 27  1  0  0  0  0
 10 11  1  0  0  0  0
 10 12  1  0  0  0  0
 10 14  1  0  0  0  0
 11 28  1  0  0  0  0
 11 29  1  0  0  0  0
 11 30  1  0  0  0  0
 12 13  1  0  0  0  0
 12 31  1  0  0  0  0
 12 32  1  0  0  0  0
 13 33  1  0  0  0  0
 14 19  1  0  0  0  0
 14 15  1  0  0  0  0
 14 34  1  0  0  0  0
 15 16  1  0  0  0  0
 15 35  1  0  0  0  0
 15 36  1  0  0  0  0
 16 17  1  0  0  0  0
 16 37  1  0  0  0  0
 16 38  1  0  0  0  0
 17 18  1  0  0  0  0
 17 39  1  0  0  0  0
 17 40  1  0  0  0  0
 18 19  1  0  0  0  0
 18 41  1  0  0  0  0
 18 42  1  0  0  0  0
 19 43  1  0  0  0  0
 19 44  1  0  0  0  0
M  END
> <s_m_source_file>
AV-unprocessed.smi

> <i_m_source_file_index>
614

> <i_lp_mmshare_version>
43012

> <i_f3d_flags>
0

> <s_epik_input>
W0NIM11uMVtjSF1bY0hdYyhuMSlbTkhdQyg9TylbTkhdW0NAQF0oW0NIM10pKFtDSDJdW09IXSlbQ0hdMltDSDJdW0NIMl1bQ0gyXVtDSDJdW0NIMl0y

> <s_epik_cmdline>
J2VwaWtfcHl0aG9uJywgJy1waCcsICc3LjAnLCAnLXRuJywgJzgnLCAnLW1hJywgJzIwMCcsICctbWV0YWxfYmluZGluZycsICctaW1hZScsICc8aW5maWxlLm1hZT4nLCAnLW9tYWUnLCAnPG91dGZpbGUubWFlPic=

> <r_lp_tautomer_probability>
1

> <r_epik_Ionization_Penalty>
3.66621e-05

> <r_epik_Ionization_Penalty_Charging>
0

> <r_epik_Ionization_Penalty_Neutral>
3.66621e-05

> <r_epik_State_Penalty>
-0

> <r_epik_Charging_Adjusted_Penalty>
0

> <i_epik_Tot_Q>
0

> <i_epik_Tot_abs_Q>
0

> <r_epik_Metal_State_Penalty>
-0

> <b_epik_Metal_Only>
0

> <s_lp_Force_Field>
OPLS_2005

> <r_lp_Energy>
18.5246

> <b_lp_Chiralities_Consistent>
1

> <s_lp_Variant>
AV-unprocessed.smi:614-1

> <Gold.Version>
5.8.1

> <Gold.Id.Protein>
6NUR|6NUR_protein|mol2

> <Gold.PLP.Fitness>
44.9296

> <Gold.PLP.PLP>
-35.1012

> <Gold.PLP.part.hbond>
-3.5328

> <Gold.PLP.part.metal>
0.0000

> <Gold.PLP.part.buried>
-3.7635

> <Gold.PLP.part.nonpolar>
-27.3709

> <Gold.PLP.part.repulsive>
0.2216

> <Gold.PLP.ligand.clash>
0.0000

> <Gold.PLP.ligand.torsion>
1.1033

> <Gold.PLP.Chemscore.Hbond>
3.0000

> <Gold.PLP.Chemscore.CHOScore>
1.0000

> <Gold.PLP.Chemscore.Metal>
0.0000

> <Gold.Chemscore.Hbonds>
donor molecule, donor type, donor heavy atom, donor atom, acceptor molecule, acceptor atom, score
      L1  H     6    26       P1  7948  1.00
      L1  H     9    27       P1  7948  1.00
      L1  H    13    33       P1 10175  1.00
      L1  C     3    24       P1  8028  1.00

> <Gold.PLP.Chemscore.Internal.Correction>
0.0350

> <Gold.Rescore>
     Score         DG    S(hbond)    S(metal)    S(lipo)     H(rot)  DE(clash)    DE(int)     intcor
     16.15     -18.57       2.98        0.00      72.11       2.07       0.01       2.40       ----

> <Gold.Chemscore.Fitness>
16.1547

> <Gold.Chemscore.DG>
-18.5691

> <Gold.Chemscore.ZeroCoef>
-5.4800

> <Gold.Chemscore.Hbond>
2.9804

> <Gold.Chemscore.Metal>
0.0000

> <Gold.Chemscore.Lipo>
72.1053

> <Gold.Chemscore.Internal_Hbond>
0.0000

> <Gold.Chemscore.DEClash>
0.0136

> <Gold.Chemscore.DEInternal>
2.4008

> <Gold.Chemscore.Rot>
2.0710

> <Gold.Chemscore.Internal.Correction>
   9.000000E+99

> <Gold.Chemscore.Hbonds>
donor molecule, donor type, donor heavy atom, donor atom, acceptor molecule, acceptor atom, score
      L1  H     6    26       P1  7948  0.99
      L1  H     9    27       P1  7948  0.96
      L1  H    13    33       P1 10175  0.94

> <Gold.Chemscore.Hbond.Weighted>
-9.9544

> <Gold.Chemscore.Metal.Weighted>
-0.0000

> <Gold.Chemscore.Lipo.Weighted>
-8.4363

> <Gold.Chemscore.Internal_Hbond.Weighted>
0.0000

> <Gold.Chemscore.DEClash.Weighted>
0.0136

> <Gold.Chemscore.DEInternal.Weighted>
2.4008

> <Gold.Chemscore.Rot.Weighted>
5.3017

> <Gold.Chemscore.Internal.Correction.Weighted>
   9.000000E+99

> <Gold.Protein.RotatedTorsions>
[ 6907 6896 6895 6894 ] final   86.07 input  -60.11 | X-H torsion
[ 7974 7965 7964 7962 ] final   76.11 input  175.53 | X-H torsion
[ 8008 7997 7996 7995 ] final -137.33 input   59.86 | X-H torsion
[ 10167 10162 10161 10158 ] final   99.33 input  -65.29 | X-H torsion
[ 10718 10713 10712 10709 ] final   20.08 input   66.30 | X-H torsion
[ 10763 10752 10751 10750 ] final -175.25 input  -60.55 | X-H torsion
[ 11005 11000 10999 10996 ] final  -46.24 input  -57.11 | X-H torsion

> <Gold.Protein.ActiveResidues>
 VAL166  LYS551  ARG553  GLY616  TRP617  ASP618  TYR619  PRO620  LYS621  CYS622 
 ASP623  PHE694  ASN695  SER759  ASP760  ASP761  ALA762  ILE779  LEU786  VAL792 
 PHE793  MET794  SER795  GLU796  ALA797  LYS798  CYS799  TRP800  GLU811  SER814 

> <Gold.Protein.RotatedAtoms>
  152.5387  134.2488  159.8890 H   0  0  0  0  0  0  0  0  0  0  0  0  # atno 6907 bound_to 6896
  151.2453  133.4371  159.2616 H   0  0  0  0  0  0  0  0  0  0  0  0  # atno 6908 bound_to 6896
  151.0589  134.9737  159.8306 H   0  0  0  0  0  0  0  0  0  0  0  0  # atno 6909 bound_to 6896
  145.7070  139.2602  143.1672 H   0  0  0  0  0  0  0  0  0  0  0  0  # atno 7974 bound_to 7965
  155.4100  140.0511  157.3032 H   0  0  0  0  0  0  0  0  0  0  0  0  # atno 8008 bound_to 7997
  154.4951  140.2135  155.9425 H   0  0  0  0  0  0  0  0  0  0  0  0  # atno 8009 bound_to 7997
  156.1394  140.3157  155.8477 H   0  0  0  0  0  0  0  0  0  0  0  0  # atno 8010 bound_to 7997
  139.7627  144.6949  151.0269 H   0  0  0  0  0  0  0  0  0  0  0  0  # atno 10167 bound_to 10162
  157.1195  130.6543  149.5920 H   0  0  0  0  0  0  0  0  0  0  0  0  # atno 10718 bound_to 10713
  154.5867  135.2841  155.0678 H   0  0  0  0  0  0  0  0  0  0  0  0  # atno 10763 bound_to 10752
  154.1994  135.6427  153.5086 H   0  0  0  0  0  0  0  0  0  0  0  0  # atno 10764 bound_to 10752
  153.0107  135.5465  154.6538 H   0  0  0  0  0  0  0  0  0  0  0  0  # atno 10765 bound_to 10752
  141.0567  133.6723  156.3127 H   0  0  0  0  0  0  0  0  0  0  0  0  # atno 11005 bound_to 11000
  146.0747  140.7831  142.9671 LP  0  0  0  0  0  0  0  0  0  0  0  0  # atno 17320 bound_to 7965
  144.6952  140.3395  143.7201 LP  0  0  0  0  0  0  0  0  0  0  0  0  # atno 17321 bound_to 7965
  140.7808  143.4678  151.0188 LP  0  0  0  0  0  0  0  0  0  0  0  0  # atno 17342 bound_to 10162
  139.8364  143.7622  152.3180 LP  0  0  0  0  0  0  0  0  0  0  0  0  # atno 17343 bound_to 10162
  155.9832  130.4849  150.6919 LP  0  0  0  0  0  0  0  0  0  0  0  0  # atno 17370 bound_to 10713
  157.4489  131.0870  151.0867 LP  0  0  0  0  0  0  0  0  0  0  0  0  # atno 17371 bound_to 10713
  140.5951  134.5612  157.5507 LP  0  0  0  0  0  0  0  0  0  0  0  0  # atno 17394 bound_to 11000
  139.9396  134.7812  156.0713 LP  0  0  0  0  0  0  0  0  0  0  0  0  # atno 17395 bound_to 11000

$$$$
