AV-unprocessed.smi:21|AV-procd|sdf|133|dock6
  -GOLD-   2262015323D 1   1.00000     0.00000
 Structure written by MMmdl.
 62 65  0  0  0  0  0  0  0  0  2 V2000
  145.9116  131.9713  151.8299 C   0  0  0  0  0  0  0  0  0  0  0  0
  147.1979  131.9691  152.4274 O   0  0  0  0  0  0  0  0  0  0  0  0
  147.2996  132.8335  153.5487 C   0  0  1  0  0  0  0  0  0  0  0  0
  148.7462  132.9440  154.0106 C   0  0  0  0  0  0  0  0  0  0  0  0
  148.7511  134.2612  154.7894 C   0  0  1  0  0  0  0  0  0  0  0  0
  150.1536  134.8971  154.9179 C   0  0  0  0  0  0  0  0  0  0  0  0
  150.7130  134.8201  156.2671 N   0  0  0  0  0  0  0  0  0  0  0  0
  151.3484  133.5669  156.6469 C   0  0  0  0  0  0  0  0  0  0  0  0
  151.3774  135.8982  156.7453 C   0  0  0  0  0  0  0  0  0  0  0  0
  152.6894  135.7285  157.0438 N   0  0  0  0  0  0  0  0  0  0  0  0
  153.3970  136.7386  157.5579 C   0  0  0  0  0  0  0  0  0  0  0  0
  152.9928  137.9766  157.8500 N   0  0  0  0  0  0  0  0  0  0  0  0
  151.6786  138.1564  157.5346 C   0  0  0  0  0  0  0  0  0  0  0  0
  150.8040  137.1824  156.9754 C   0  0  0  0  0  0  0  0  0  0  0  0
  149.5411  137.7347  156.7899 N   0  0  0  0  0  0  0  0  0  0  0  0
  149.6581  138.9584  157.2277 C   0  0  0  0  0  0  0  0  0  0  0  0
  150.9032  139.2888  157.7106 N   0  0  0  0  0  0  0  0  0  0  0  0
  151.2973  140.5633  158.2829 C   0  0  0  0  0  0  0  0  0  0  0  0
  151.8610  141.5674  157.2416 C   0  0  1  0  0  0  0  0  0  0  0  0
  151.1435  141.4683  155.8699 C   0  0  0  0  0  0  0  0  0  0  0  0
  151.6319  140.3947  155.0911 O   0  0  0  0  0  0  0  0  0  0  0  0
  151.7968  143.0141  157.7975 C   0  0  1  0  0  0  0  0  0  0  0  0
  152.5577  143.2376  159.0943 C   0  0  0  0  0  0  0  0  0  0  0  0
  152.7128  144.7523  159.1186 C   0  0  0  0  0  0  0  0  0  0  0  0
  152.8946  145.1268  157.7600 O   0  0  0  0  0  0  0  0  0  0  0  0
  152.4464  144.0803  156.9027 C   0  0  0  0  0  0  0  0  0  0  0  0
  147.8146  135.1444  154.0566 N   0  3  2  0  0  0  0  0  0  0  0  0
  147.0868  136.1001  154.9202 C   0  0  0  0  0  0  0  0  0  0  0  0
  146.9298  134.2888  153.2300 C   0  0  0  0  0  0  0  0  0  0  0  0
  146.6957  132.4651  154.3808 H   0  0  0  0  0  0  0  0  0  0  0  0
  148.3179  134.0683  155.7720 H   0  0  0  0  0  0  0  0  0  0  0  0
  145.9008  131.2808  150.9867 H   0  0  0  0  0  0  0  0  0  0  0  0
  145.6442  132.9602  151.4556 H   0  0  0  0  0  0  0  0  0  0  0  0
  145.1477  131.6465  152.5377 H   0  0  0  0  0  0  0  0  0  0  0  0
  149.0636  132.0926  154.6135 H   0  0  0  0  0  0  0  0  0  0  0  0
  149.4101  133.0120  153.1471 H   0  0  0  0  0  0  0  0  0  0  0  0
  150.8374  134.3932  154.2338 H   0  0  0  0  0  0  0  0  0  0  0  0
  150.1328  135.9385  154.5980 H   0  0  0  0  0  0  0  0  0  0  0  0
  151.4786  133.5036  157.7281 H   0  0  0  0  0  0  0  0  0  0  0  0
  152.3278  133.4745  156.1759 H   0  0  0  0  0  0  0  0  0  0  0  0
  150.7389  132.7181  156.3355 H   0  0  0  0  0  0  0  0  0  0  0  0
  154.4332  136.5214  157.7730 H   0  0  0  0  0  0  0  0  0  0  0  0
  148.8311  139.6538  157.2259 H   0  0  0  0  0  0  0  0  0  0  0  0
  150.4373  140.9973  158.7942 H   0  0  0  0  0  0  0  0  0  0  0  0
  152.0374  140.3517  159.0544 H   0  0  0  0  0  0  0  0  0  0  0  0
  152.9148  141.3319  157.0839 H   0  0  0  0  0  0  0  0  0  0  0  0
  150.0662  141.3637  156.0027 H   0  0  0  0  0  0  0  0  0  0  0  0
  151.2982  142.3683  155.2764 H   0  0  0  0  0  0  0  0  0  0  0  0
  151.6285  139.6163  155.6269 H   0  0  0  0  0  0  0  0  0  0  0  0
  150.7541  143.2910  157.9636 H   0  0  0  0  0  0  0  0  0  0  0  0
  152.0324  142.8637  159.9735 H   0  0  0  0  0  0  0  0  0  0  0  0
  153.5388  142.7617  159.0506 H   0  0  0  0  0  0  0  0  0  0  0  0
  151.8027  145.2222  159.4937 H   0  0  0  0  0  0  0  0  0  0  0  0
  153.5464  145.0801  159.7403 H   0  0  0  0  0  0  0  0  0  0  0  0
  153.3143  143.6763  156.3797 H   0  0  0  0  0  0  0  0  0  0  0  0
  151.7550  144.4688  156.1544 H   0  0  0  0  0  0  0  0  0  0  0  0
  146.4485  135.5787  155.6349 H   0  0  0  0  0  0  0  0  0  0  0  0
  146.4599  136.7571  154.3167 H   0  0  0  0  0  0  0  0  0  0  0  0
  147.7857  136.7238  155.4780 H   0  0  0  0  0  0  0  0  0  0  0  0
  147.1374  134.5139  152.1833 H   0  0  0  0  0  0  0  0  0  0  0  0
  145.8694  134.4799  153.4022 H   0  0  0  0  0  0  0  0  0  0  0  0
  148.3691  135.6854  153.4082 H   0  0  0  0  0  0  0  0  0  0  0  0
  1  2  1  0  0  0  0
  1 32  1  0  0  0  0
  1 33  1  0  0  0  0
  1 34  1  0  0  0  0
  2  3  1  0  0  0  0
  3 30  1  0  0  0  0
  3 29  1  0  0  0  0
  3  4  1  0  0  0  0
  4  5  1  0  0  0  0
  4 35  1  0  0  0  0
  4 36  1  0  0  0  0
  5 31  1  0  0  0  0
  5  6  1  0  0  0  0
  5 27  1  0  0  0  0
  6  7  1  0  0  0  0
  6 37  1  0  0  0  0
  6 38  1  0  0  0  0
  7  8  1  0  0  0  0
  7  9  1  0  0  0  0
  8 39  1  0  0  0  0
  8 40  1  0  0  0  0
  8 41  1  0  0  0  0
  9 14  1  0  0  0  0
  9 10  2  0  0  0  0
 10 11  1  0  0  0  0
 11 12  2  0  0  0  0
 11 42  1  0  0  0  0
 12 13  1  0  0  0  0
 13 17  1  0  0  0  0
 13 14  2  0  0  0  0
 14 15  1  0  0  0  0
 15 16  2  0  0  0  0
 16 17  1  0  0  0  0
 16 43  1  0  0  0  0
 17 18  1  0  0  0  0
 18 19  1  0  0  0  0
 18 44  1  0  0  0  0
 18 45  1  0  0  0  0
 19 20  1  0  0  0  0
 19 22  1  0  0  0  0
 19 46  1  0  0  0  0
 20 21  1  0  0  0  0
 20 47  1  0  0  0  0
 20 48  1  0  0  0  0
 21 49  1  0  0  0  0
 22 26  1  0  0  0  0
 22 23  1  0  0  0  0
 22 50  1  0  0  0  0
 23 24  1  0  0  0  0
 23 51  1  0  0  0  0
 23 52  1  0  0  0  0
 24 25  1  0  0  0  0
 24 53  1  0  0  0  0
 24 54  1  0  0  0  0
 25 26  1  0  0  0  0
 26 55  1  0  0  0  0
 26 56  1  0  0  0  0
 27 28  1  0  0  0  0
 27 29  1  0  0  0  0
 27 62  1  0  0  0  0
 28 57  1  0  0  0  0
 28 58  1  0  0  0  0
 28 59  1  0  0  0  0
 29 60  1  0  0  0  0
 29 61  1  0  0  0  0
M  CHG  1  27   1
M  END
> <s_m_source_file>
AV-unprocessed.smi

> <i_m_source_file_index>
21

> <i_lp_mmshare_version>
43012

> <i_f3d_flags>
0

> <s_epik_input>
W0NIM11PW0NASF0xW0NIMl1bQ0BIXShOKFtDSDNdKVtDSDJdMSlbQ0gyXU4oW0NIM10pYyhuW2NIXW4yKWMoYzIzKW5bY0hdbjNbQ0gyXVtDQEhdKFtDSDJdW09IXSlbQ0BASF00W0NIMl1bQ0gyXU9bQ0gyXTQ=

> <s_epik_cmdline>
J2VwaWtfcHl0aG9uJywgJy1waCcsICc3LjAnLCAnLXRuJywgJzgnLCAnLW1hJywgJzIwMCcsICctbWV0YWxfYmluZGluZycsICctaW1hZScsICc8aW5maWxlLm1hZT4nLCAnLW9tYWUnLCAnPG91dGZpbGUubWFlPic=

> <r_lp_tautomer_probability>
1

> <r_epik_Ionization_Penalty>
0.0157465

> <r_epik_Ionization_Penalty_Charging>
0.015354

> <r_epik_Ionization_Penalty_Neutral>
0.000392529

> <r_epik_State_Penalty>
0.0120612

> <r_epik_Charging_Adjusted_Penalty>
0.0274152

> <i_epik_Tot_Q>
1

> <i_epik_Tot_abs_Q>
1

> <r_epik_Metal_State_Penalty>
0.0121253

> <b_epik_Metal_Only>
0

> <s_lp_Force_Field>
OPLS_2005

> <r_lp_Energy>
58.1484

> <b_lp_Chiralities_Consistent>
1

> <s_lp_Variant>
AV-unprocessed.smi:21-13

> <Gold.Version>
5.8.1

> <Gold.Id.Protein>
6NUR|6NUR_protein|mol2

> <Gold.PLP.Fitness>
49.8761

> <Gold.PLP.PLP>
-41.8484

> <Gold.PLP.part.hbond>
-3.0000

> <Gold.PLP.part.metal>
0.0000

> <Gold.PLP.part.buried>
-7.5220

> <Gold.PLP.part.nonpolar>
-32.5465

> <Gold.PLP.part.repulsive>
1.5103

> <Gold.PLP.ligand.clash>
0.0000

> <Gold.PLP.ligand.torsion>
2.2743

> <Gold.PLP.Chemscore.Hbond>
3.9600

> <Gold.PLP.Chemscore.CHOScore>
0.0000

> <Gold.PLP.Chemscore.Metal>
0.0000

> <Gold.Chemscore.Hbonds>
donor molecule, donor type, donor heavy atom, donor atom, acceptor molecule, acceptor atom, score
      L1  H    27    62       P1  7948  2.00
      P1  H  7989  7998       L1    21  0.88
      P1  H 10752 10765       L1    10  0.85

> <Gold.PLP.Chemscore.Internal.Correction>
0.6962

> <Gold.Rescore>
     Score         DG    S(hbond)    S(metal)    S(lipo)     H(rot)  DE(clash)    DE(int)     intcor
     12.67     -16.07       2.07        0.00     104.52       3.35       0.37       3.04       ----

> <Gold.Chemscore.Fitness>
12.6676

> <Gold.Chemscore.DG>
-16.0741

> <Gold.Chemscore.ZeroCoef>
-5.4800

> <Gold.Chemscore.Hbond>
2.0747

> <Gold.Chemscore.Metal>
0.0000

> <Gold.Chemscore.Lipo>
104.5156

> <Gold.Chemscore.Internal_Hbond>
0.0000

> <Gold.Chemscore.DEClash>
0.3697

> <Gold.Chemscore.DEInternal>
3.0368

> <Gold.Chemscore.Rot>
3.3452

> <Gold.Chemscore.Internal.Correction>
   9.000000E+99

> <Gold.Chemscore.Hbonds>
donor molecule, donor type, donor heavy atom, donor atom, acceptor molecule, acceptor atom, score
      L1  H    27    62       P1  7948  0.99
      P1  H  7989  7998       L1    21  0.56
      P1  H 10752 10765       L1    10  0.09

> <Gold.Chemscore.Hbond.Weighted>
-6.9295

> <Gold.Chemscore.Metal.Weighted>
-0.0000

> <Gold.Chemscore.Lipo.Weighted>
-12.2283

> <Gold.Chemscore.Internal_Hbond.Weighted>
0.0000

> <Gold.Chemscore.DEClash.Weighted>
0.3697

> <Gold.Chemscore.DEInternal.Weighted>
3.0368

> <Gold.Chemscore.Rot.Weighted>
8.5636

> <Gold.Chemscore.Internal.Correction.Weighted>
   9.000000E+99

> <Gold.Protein.RotatedTorsions>
[ 6907 6896 6895 6894 ] final   46.31 input  -60.11 | X-H torsion
[ 7974 7965 7964 7962 ] final  153.41 input  175.53 | X-H torsion
[ 8008 7997 7996 7995 ] final -176.18 input   59.86 | X-H torsion
[ 10167 10162 10161 10158 ] final -165.76 input  -65.29 | X-H torsion
[ 10718 10713 10712 10709 ] final  115.43 input   66.30 | X-H torsion
[ 10763 10752 10751 10750 ] final -138.40 input  -60.55 | X-H torsion
[ 11005 11000 10999 10996 ] final   48.05 input  -57.11 | X-H torsion

> <Gold.Protein.ActiveResidues>
 VAL166  LYS551  ARG553  GLY616  TRP617  ASP618  TYR619  PRO620  LYS621  CYS622 
 ASP623  PHE694  ASN695  SER759  ASP760  ASP761  ALA762  ILE779  LEU786  VAL792 
 PHE793  MET794  SER795  GLU796  ALA797  LYS798  CYS799  TRP800  GLU811  SER814 

> <Gold.Protein.RotatedAtoms>
  152.2548  134.8095  160.0439 H   0  0  0  0  0  0  0  0  0  0  0  0  # atno 6907 bound_to 6896
  151.8762  133.3480  159.3759 H   0  0  0  0  0  0  0  0  0  0  0  0  # atno 6908 bound_to 6896
  150.7096  134.4990  159.5596 H   0  0  0  0  0  0  0  0  0  0  0  0  # atno 6909 bound_to 6896
  144.8156  139.6797  143.6122 H   0  0  0  0  0  0  0  0  0  0  0  0  # atno 7974 bound_to 7965
  155.9917  140.1202  157.0632 H   0  0  0  0  0  0  0  0  0  0  0  0  # atno 8008 bound_to 7997
  154.4213  140.1124  156.5643 H   0  0  0  0  0  0  0  0  0  0  0  0  # atno 8009 bound_to 7997
  155.6333  140.3473  155.4692 H   0  0  0  0  0  0  0  0  0  0  0  0  # atno 8010 bound_to 7997
  139.6160  144.0719  152.1888 H   0  0  0  0  0  0  0  0  0  0  0  0  # atno 10167 bound_to 10162
  157.6222  131.1012  150.7328 H   0  0  0  0  0  0  0  0  0  0  0  0  # atno 10718 bound_to 10713
  154.8638  135.3613  154.5379 H   0  0  0  0  0  0  0  0  0  0  0  0  # atno 10763 bound_to 10752
  153.6002  135.7013  153.5392 H   0  0  0  0  0  0  0  0  0  0  0  0  # atno 10764 bound_to 10752
  153.3298  135.4127  155.1447 H   0  0  0  0  0  0  0  0  0  0  0  0  # atno 10765 bound_to 10752
  140.1224  134.4812  155.8586 H   0  0  0  0  0  0  0  0  0  0  0  0  # atno 11005 bound_to 11000
  146.2459  139.6097  142.9460 LP  0  0  0  0  0  0  0  0  0  0  0  0  # atno 17320 bound_to 7965
  145.5222  141.0431  143.2429 LP  0  0  0  0  0  0  0  0  0  0  0  0  # atno 17321 bound_to 7965
  140.0349  144.6052  150.7458 LP  0  0  0  0  0  0  0  0  0  0  0  0  # atno 17342 bound_to 10162
  140.7351  143.2737  151.3808 LP  0  0  0  0  0  0  0  0  0  0  0  0  # atno 17343 bound_to 10162
  156.7684  130.4821  149.5423 LP  0  0  0  0  0  0  0  0  0  0  0  0  # atno 17370 bound_to 10713
  156.1374  130.6221  151.0419 LP  0  0  0  0  0  0  0  0  0  0  0  0  # atno 17371 bound_to 10713
  141.2154  133.6765  156.6914 LP  0  0  0  0  0  0  0  0  0  0  0  0  # atno 17394 bound_to 11000
  140.2947  134.8212  157.4047 LP  0  0  0  0  0  0  0  0  0  0  0  0  # atno 17395 bound_to 11000

$$$$
