AV-unprocessed.smi:263|AV-procd|sdf|2005|dock3
  -GOLD-   2262021203D 1   1.00000     0.00000
 Structure written by MMmdl.
 57 61  0  0  0  0  0  0  0  0  1 V2000
  150.1426  135.1140  153.7694 O   0  0  0  0  0  0  0  0  0  0  0  0
  149.5808  134.4085  154.8625 C   0  0  0  0  0  0  0  0  0  0  0  0
  150.4507  134.6941  156.1124 C   0  0  0  0  0  0  0  0  0  0  0  0
  150.5222  136.1006  156.4774 N   0  0  0  0  0  0  0  0  0  0  0  0
  150.0267  136.6804  157.6234 C   0  0  0  0  0  0  0  0  0  0  0  0
  150.2137  137.9681  157.7215 N   0  0  0  0  0  0  0  0  0  0  0  0
  150.9038  138.3007  156.5615 C   0  0  0  0  0  0  0  0  0  0  0  0
  151.4180  139.5163  156.0282 C   0  0  0  0  0  0  0  0  0  0  0  0
  151.3131  140.7034  156.6774 N   0  0  0  0  0  0  0  0  0  0  0  0
  150.7415  141.7847  155.8777 C   0  0  0  0  0  0  0  0  0  0  0  0
  151.0445  143.1553  156.5075 C   0  0  0  0  0  0  0  0  0  0  0  0
  150.6170  143.2227  157.9931 C   0  0  2  0  0  0  0  0  0  0  0  0
  149.2022  143.1603  158.0304 O   0  0  0  0  0  0  0  0  0  0  0  0
  150.9994  144.5648  158.6607 C   0  0  0  0  0  0  0  0  0  0  0  0
  152.5070  144.6929  158.9337 C   0  0  0  0  0  0  0  0  0  0  0  0
  153.0223  143.5044  159.7566 C   0  0  0  0  0  0  0  0  0  0  0  0
  152.7013  142.1717  159.0652 C   0  0  0  0  0  0  0  0  0  0  0  0
  151.1893  142.0158  158.7879 C   0  0  2  0  0  0  0  0  0  0  0  0
  150.8875  140.6779  158.0782 C   0  0  0  0  0  0  0  0  0  0  0  0
  152.0384  139.4550  154.8192 N   0  0  0  0  0  0  0  0  0  0  0  0
  152.1601  138.2875  154.1807 C   0  0  0  0  0  0  0  0  0  0  0  0
  151.7394  137.0800  154.5617 N   0  0  0  0  0  0  0  0  0  0  0  0
  151.1047  137.1361  155.7675 C   0  0  0  0  0  0  0  0  0  0  0  0
  148.1183  134.8728  155.0363 C   0  0  0  0  0  0  0  0  0  0  0  0
  147.2194  134.3981  153.8808 C   0  0  0  0  0  0  0  0  0  0  0  0
  147.3038  132.9850  153.7428 O   0  0  0  0  0  0  0  0  0  0  0  0
  148.6130  132.5456  153.4022 C   0  0  0  0  0  0  0  0  0  0  0  0
  149.5971  132.9027  154.5304 C   0  0  0  0  0  0  0  0  0  0  0  0
  149.4410  135.4902  153.2602 H   0  0  0  0  0  0  0  0  0  0  0  0
  150.0577  134.1471  156.9707 H   0  0  0  0  0  0  0  0  0  0  0  0
  151.4669  134.3270  155.9611 H   0  0  0  0  0  0  0  0  0  0  0  0
  149.5115  136.1153  158.3865 H   0  0  0  0  0  0  0  0  0  0  0  0
  151.1203  141.7701  154.8565 H   0  0  0  0  0  0  0  0  0  0  0  0
  149.6634  141.6343  155.8085 H   0  0  0  0  0  0  0  0  0  0  0  0
  152.1139  143.3436  156.4159 H   0  0  0  0  0  0  0  0  0  0  0  0
  150.5522  143.9414  155.9337 H   0  0  0  0  0  0  0  0  0  0  0  0
  148.8612  143.6326  157.2865 H   0  0  0  0  0  0  0  0  0  0  0  0
  150.6622  145.4021  158.0481 H   0  0  0  0  0  0  0  0  0  0  0  0
  150.4742  144.6585  159.6129 H   0  0  0  0  0  0  0  0  0  0  0  0
  153.0562  144.7584  157.9944 H   0  0  0  0  0  0  0  0  0  0  0  0
  152.7056  145.6231  159.4668 H   0  0  0  0  0  0  0  0  0  0  0  0
  154.0986  143.5951  159.9056 H   0  0  0  0  0  0  0  0  0  0  0  0
  152.5702  143.5214  160.7491 H   0  0  0  0  0  0  0  0  0  0  0  0
  153.2657  142.1048  158.1346 H   0  0  0  0  0  0  0  0  0  0  0  0
  153.0492  141.3479  159.6891 H   0  0  0  0  0  0  0  0  0  0  0  0
  150.6981  141.9862  159.7618 H   0  0  0  0  0  0  0  0  0  0  0  0
  149.8165  140.4735  158.1161 H   0  0  0  0  0  0  0  0  0  0  0  0
  151.3829  139.8636  158.6089 H   0  0  0  0  0  0  0  0  0  0  0  0
  152.6674  138.3269  153.2281 H   0  0  0  0  0  0  0  0  0  0  0  0
  147.7227  134.4739  155.9712 H   0  0  0  0  0  0  0  0  0  0  0  0
  148.0621  135.9590  155.1171 H   0  0  0  0  0  0  0  0  0  0  0  0
  146.1827  134.6690  154.0816 H   0  0  0  0  0  0  0  0  0  0  0  0
  147.4955  134.8842  152.9438 H   0  0  0  0  0  0  0  0  0  0  0  0
  148.5925  131.4656  153.2554 H   0  0  0  0  0  0  0  0  0  0  0  0
  148.9235  132.9859  152.4534 H   0  0  0  0  0  0  0  0  0  0  0  0
  150.6042  132.5787  154.2651 H   0  0  0  0  0  0  0  0  0  0  0  0
  149.3192  132.3346  155.4192 H   0  0  0  0  0  0  0  0  0  0  0  0
  1  2  1  0  0  0  0
  1 29  1  0  0  0  0
  2 28  1  0  0  0  0
  2  3  1  0  0  0  0
  2 24  1  0  0  0  0
  3  4  1  0  0  0  0
  3 30  1  0  0  0  0
  3 31  1  0  0  0  0
  4 23  1  0  0  0  0
  4  5  1  0  0  0  0
  5  6  2  0  0  0  0
  5 32  1  0  0  0  0
  6  7  1  0  0  0  0
  7 23  2  0  0  0  0
  7  8  1  0  0  0  0
  8  9  1  0  0  0  0
  8 20  2  0  0  0  0
  9 19  1  0  0  0  0
  9 10  1  0  0  0  0
 10 11  1  0  0  0  0
 10 33  1  0  0  0  0
 10 34  1  0  0  0  0
 11 12  1  0  0  0  0
 11 35  1  0  0  0  0
 11 36  1  0  0  0  0
 12 18  1  0  0  0  0
 12 13  1  0  0  0  0
 12 14  1  0  0  0  0
 13 37  1  0  0  0  0
 14 15  1  0  0  0  0
 14 38  1  0  0  0  0
 14 39  1  0  0  0  0
 15 16  1  0  0  0  0
 15 40  1  0  0  0  0
 15 41  1  0  0  0  0
 16 17  1  0  0  0  0
 16 42  1  0  0  0  0
 16 43  1  0  0  0  0
 17 18  1  0  0  0  0
 17 44  1  0  0  0  0
 17 45  1  0  0  0  0
 18 19  1  0  0  0  0
 18 46  1  0  0  0  0
 19 47  1  0  0  0  0
 19 48  1  0  0  0  0
 20 21  1  0  0  0  0
 21 22  2  0  0  0  0
 21 49  1  0  0  0  0
 22 23  1  0  0  0  0
 24 25  1  0  0  0  0
 24 50  1  0  0  0  0
 24 51  1  0  0  0  0
 25 26  1  0  0  0  0
 25 52  1  0  0  0  0
 25 53  1  0  0  0  0
 26 27  1  0  0  0  0
 27 28  1  0  0  0  0
 27 54  1  0  0  0  0
 27 55  1  0  0  0  0
 28 56  1  0  0  0  0
 28 57  1  0  0  0  0
M  END
> <s_m_source_file>
AV-unprocessed.smi

> <i_m_source_file_index>
263

> <i_lp_mmshare_version>
43012

> <i_f3d_flags>
0

> <s_epik_input>
W0NIMl0xW0NIMl1PW0NIMl1bQ0gyXUMxKFtPSF0pW0NIMl1uKFtjSF1uMiljKGMyMyluW2NIXW5jM04oW0NIMl1bQ0gyXTQpW0NIMl1bQ0BASF0oW0NAXTQ1W09IXSlbQ0gyXVtDSDJdW0NIMl1bQ0gyXTU=

> <s_epik_cmdline>
J2VwaWtfcHl0aG9uJywgJy1waCcsICc3LjAnLCAnLXRuJywgJzgnLCAnLW1hJywgJzIwMCcsICctbWV0YWxfYmluZGluZycsICctaW1hZScsICc8aW5maWxlLm1hZT4nLCAnLW9tYWUnLCAnPG91dGZpbGUubWFlPic=

> <r_lp_tautomer_probability>
1

> <r_epik_Ionization_Penalty>
0.00747493

> <r_epik_Ionization_Penalty_Charging>
0

> <r_epik_Ionization_Penalty_Neutral>
0.00747493

> <r_epik_State_Penalty>
0.00549307

> <r_epik_Charging_Adjusted_Penalty>
0.00549307

> <i_epik_Tot_Q>
0

> <i_epik_Tot_abs_Q>
0

> <r_epik_Metal_State_Penalty>
-0

> <b_epik_Metal_Only>
0

> <s_lp_Force_Field>
OPLS_2005

> <r_lp_Energy>
40.0447

> <b_lp_Chiralities_Consistent>
1

> <s_lp_Variant>
AV-unprocessed.smi:263-3

> <Gold.Version>
5.8.1

> <Gold.Id.Protein>
6NUR|6NUR_protein|mol2

> <Gold.PLP.Fitness>
55.8844

> <Gold.PLP.PLP>
-45.1600

> <Gold.PLP.part.hbond>
-5.5002

> <Gold.PLP.part.metal>
0.0000

> <Gold.PLP.part.buried>
-1.8805

> <Gold.PLP.part.nonpolar>
-37.1246

> <Gold.PLP.part.repulsive>
0.2446

> <Gold.PLP.ligand.clash>
0.0000

> <Gold.PLP.ligand.torsion>
0.2245

> <Gold.PLP.Chemscore.Hbond>
3.5989

> <Gold.PLP.Chemscore.CHOScore>
0.0000

> <Gold.PLP.Chemscore.Metal>
0.0000

> <Gold.Chemscore.Hbonds>
donor molecule, donor type, donor heavy atom, donor atom, acceptor molecule, acceptor atom, score
      L1  H     1    29       P1  7948  0.70
      L1  H    13    37       P1  8028  0.90
      P1  H  7989  7998       L1    20  0.91
      P1  H 10752 10765       L1    22  1.00

> <Gold.PLP.Chemscore.Internal.Correction>
0.3765

> <Gold.Rescore>
     Score         DG    S(hbond)    S(metal)    S(lipo)     H(rot)  DE(clash)    DE(int)     intcor
     13.65     -18.95       1.95        0.00     116.91       2.62       2.24       3.05       ----

> <Gold.Chemscore.Fitness>
13.6540

> <Gold.Chemscore.DG>
-18.9457

> <Gold.Chemscore.ZeroCoef>
-5.4800

> <Gold.Chemscore.Hbond>
1.9470

> <Gold.Chemscore.Metal>
0.0000

> <Gold.Chemscore.Lipo>
116.9073

> <Gold.Chemscore.Internal_Hbond>
0.0000

> <Gold.Chemscore.DEClash>
2.2396

> <Gold.Chemscore.DEInternal>
3.0521

> <Gold.Chemscore.Rot>
2.6232

> <Gold.Chemscore.Internal.Correction>
   9.000000E+99

> <Gold.Chemscore.Hbonds>
donor molecule, donor type, donor heavy atom, donor atom, acceptor molecule, acceptor atom, score
      L1  H     1    29       P1  7948  0.08
      L1  H    13    37       P1  8028  0.18
      P1  H  7989  7998       L1    20  0.59
      P1  H 10752 10765       L1    22  0.83

> <Gold.Chemscore.Hbond.Weighted>
-6.5031

> <Gold.Chemscore.Metal.Weighted>
-0.0000

> <Gold.Chemscore.Lipo.Weighted>
-13.6782

> <Gold.Chemscore.Internal_Hbond.Weighted>
0.0000

> <Gold.Chemscore.DEClash.Weighted>
2.2396

> <Gold.Chemscore.DEInternal.Weighted>
3.0521

> <Gold.Chemscore.Rot.Weighted>
6.7155

> <Gold.Chemscore.Internal.Correction.Weighted>
   9.000000E+99

> <Gold.Protein.RotatedTorsions>
[ 6907 6896 6895 6894 ] final   14.08 input  -60.11 | X-H torsion
[ 7974 7965 7964 7962 ] final  114.39 input  175.53 | X-H torsion
[ 8008 7997 7996 7995 ] final  128.29 input   59.86 | X-H torsion
[ 10167 10162 10161 10158 ] final  -25.15 input  -65.29 | X-H torsion
[ 10718 10713 10712 10709 ] final  -69.96 input   66.30 | X-H torsion
[ 10763 10752 10751 10750 ] final  156.69 input  -60.55 | X-H torsion
[ 11005 11000 10999 10996 ] final  -85.11 input  -57.11 | X-H torsion

> <Gold.Protein.ActiveResidues>
 VAL166  LYS551  ARG553  GLY616  TRP617  ASP618  TYR619  PRO620  LYS621  CYS622 
 ASP623  PHE694  ASN695  SER759  ASP760  ASP761  ALA762  ILE779  LEU786  VAL792 
 PHE793  MET794  SER795  GLU796  ALA797  LYS798  CYS799  TRP800  GLU811  SER814 

> <Gold.Protein.RotatedAtoms>
  151.7965  135.0721  160.0394 H   0  0  0  0  0  0  0  0  0  0  0  0  # atno 6907 bound_to 6896
  152.3119  133.5757  159.5695 H   0  0  0  0  0  0  0  0  0  0  0  0  # atno 6908 bound_to 6896
  150.7324  134.0056  159.3694 H   0  0  0  0  0  0  0  0  0  0  0  0  # atno 6909 bound_to 6896
  145.2050  139.2933  143.4298 H   0  0  0  0  0  0  0  0  0  0  0  0  # atno 7974 bound_to 7965
  156.2911  140.2648  156.2411 H   0  0  0  0  0  0  0  0  0  0  0  0  # atno 8008 bound_to 7997
  154.9976  140.0388  157.2364 H   0  0  0  0  0  0  0  0  0  0  0  0  # atno 8009 bound_to 7997
  154.7630  140.2764  155.6203 H   0  0  0  0  0  0  0  0  0  0  0  0  # atno 8010 bound_to 7997
  140.7287  143.4290  151.0831 H   0  0  0  0  0  0  0  0  0  0  0  0  # atno 10167 bound_to 10162
  156.0430  130.4322  150.2225 H   0  0  0  0  0  0  0  0  0  0  0  0  # atno 10718 bound_to 10713
  154.1883  135.2796  155.3030 H   0  0  0  0  0  0  0  0  0  0  0  0  # atno 10763 bound_to 10752
  154.5949  135.5548  153.7319 H   0  0  0  0  0  0  0  0  0  0  0  0  # atno 10764 bound_to 10752
  153.0119  135.6377  154.2021 H   0  0  0  0  0  0  0  0  0  0  0  0  # atno 10765 bound_to 10752
  141.1644  133.7382  156.8967 H   0  0  0  0  0  0  0  0  0  0  0  0  # atno 11005 bound_to 11000
  146.3409  140.2308  142.8593 LP  0  0  0  0  0  0  0  0  0  0  0  0  # atno 17320 bound_to 7965
  144.9910  140.8547  143.5339 LP  0  0  0  0  0  0  0  0  0  0  0  0  # atno 17321 bound_to 7965
  139.7945  143.8172  152.3156 LP  0  0  0  0  0  0  0  0  0  0  0  0  # atno 17342 bound_to 10162
  139.8167  144.7313  150.9626 LP  0  0  0  0  0  0  0  0  0  0  0  0  # atno 17343 bound_to 10162
  157.0317  131.0009  151.3310 LP  0  0  0  0  0  0  0  0  0  0  0  0  # atno 17370 bound_to 10713
  157.5272  130.8035  149.7876 LP  0  0  0  0  0  0  0  0  0  0  0  0  # atno 17371 bound_to 10713
  140.1611  134.9165  157.2715 LP  0  0  0  0  0  0  0  0  0  0  0  0  # atno 17394 bound_to 11000
  140.2611  134.3570  155.7406 LP  0  0  0  0  0  0  0  0  0  0  0  0  # atno 17395 bound_to 11000

$$$$
