AV-unprocessed.smi:1381|AV-procd|sdf|5605|dock1
  -GOLD-   22720 5213D 1   1.00000     0.00000
 Structure written by MMmdl.
 43 44  0  0  0  0  0  0  0  0  2 V2000
  153.5911  142.1366  160.4709 C   0  0  0  0  0  0  0  0  0  0  0  0
  152.7082  142.6381  159.3800 C   0  0  0  0  0  0  0  0  0  0  0  0
  151.8417  142.0175  158.5247 C   0  0  0  0  0  0  0  0  0  0  0  0
  151.3372  143.0922  157.7454 C   0  0  0  0  0  0  0  0  0  0  0  0
  150.3862  142.8631  156.7184 N   0  0  0  0  0  0  0  0  0  0  0  0
  150.1943  141.7314  156.0195 C   0  0  0  0  0  0  0  0  0  0  0  0
  150.8298  140.6872  156.1689 O   0  0  0  0  0  0  0  0  0  0  0  0
  149.2107  141.8718  155.1189 N   0  0  0  0  0  0  0  0  0  0  0  0
  148.7569  140.8215  154.2147 C   0  0  0  0  0  0  0  0  0  0  0  0
  147.4368  141.2053  153.5188 C   0  0  0  0  0  0  0  0  0  0  0  0
  146.4854  140.0687  153.4430 N   0  3  1  0  0  0  0  0  0  0  0  0
  146.8688  139.0801  152.4074 C   0  0  0  0  0  0  0  0  0  0  0  0
  145.8244  137.9511  152.3230 C   0  0  1  0  0  0  0  0  0  0  0  0
  146.2237  136.8683  151.3144 C   0  0  0  0  0  0  0  0  0  0  0  0
  145.6960  137.3415  153.6027 O   0  0  0  0  0  0  0  0  0  0  0  0
  145.2438  138.2513  154.5995 C   0  0  1  0  0  0  0  0  0  0  0  0
  145.0555  137.4733  155.9064 C   0  0  0  0  0  0  0  0  0  0  0  0
  146.2696  139.3913  154.7455 C   0  0  0  0  0  0  0  0  0  0  0  0
  151.8476  144.2630  158.0945 N   0  0  0  0  0  0  0  0  0  0  0  0
  152.7298  143.9778  159.1434 O   0  0  0  0  0  0  0  0  0  0  0  0
  153.3955  141.0844  160.6773 H   0  0  0  0  0  0  0  0  0  0  0  0
  153.4264  142.6978  161.3908 H   0  0  0  0  0  0  0  0  0  0  0  0
  154.6407  142.2376  160.1949 H   0  0  0  0  0  0  0  0  0  0  0  0
  151.6098  140.9644  158.4679 H   0  0  0  0  0  0  0  0  0  0  0  0
  149.7881  143.6444  156.4944 H   0  0  0  0  0  0  0  0  0  0  0  0
  148.7378  142.7621  155.0615 H   0  0  0  0  0  0  0  0  0  0  0  0
  149.5451  140.6111  153.4914 H   0  0  0  0  0  0  0  0  0  0  0  0
  148.6183  139.9099  154.7964 H   0  0  0  0  0  0  0  0  0  0  0  0
  146.9802  142.0173  154.0868 H   0  0  0  0  0  0  0  0  0  0  0  0
  147.6171  141.5959  152.5162 H   0  0  0  0  0  0  0  0  0  0  0  0
  146.9515  139.5750  151.4388 H   0  0  0  0  0  0  0  0  0  0  0  0
  147.8522  138.6694  152.6430 H   0  0  0  0  0  0  0  0  0  0  0  0
  144.8593  138.3640  152.0239 H   0  0  0  0  0  0  0  0  0  0  0  0
  146.3269  137.2839  150.3116 H   0  0  0  0  0  0  0  0  0  0  0  0
  145.4716  136.0801  151.2705 H   0  0  0  0  0  0  0  0  0  0  0  0
  147.1739  136.4064  151.5847 H   0  0  0  0  0  0  0  0  0  0  0  0
  144.2782  138.6621  154.2989 H   0  0  0  0  0  0  0  0  0  0  0  0
  144.6960  138.1250  156.7030 H   0  0  0  0  0  0  0  0  0  0  0  0
  145.9926  137.0249  156.2380 H   0  0  0  0  0  0  0  0  0  0  0  0
  144.3286  136.6704  155.7808 H   0  0  0  0  0  0  0  0  0  0  0  0
  147.2191  138.9974  155.1123 H   0  0  0  0  0  0  0  0  0  0  0  0
  145.9122  140.1026  155.4889 H   0  0  0  0  0  0  0  0  0  0  0  0
  145.5963  140.4517  153.1549 H   0  0  0  0  0  0  0  0  0  0  0  0
  1  2  1  0  0  0  0
  1 21  1  0  0  0  0
  1 22  1  0  0  0  0
  1 23  1  0  0  0  0
  2 20  1  0  0  0  0
  2  3  2  0  0  0  0
  3  4  1  0  0  0  0
  3 24  1  0  0  0  0
  4  5  1  0  0  0  0
  4 19  2  0  0  0  0
  5  6  1  0  0  0  0
  5 25  1  0  0  0  0
  6  7  2  0  0  0  0
  6  8  1  0  0  0  0
  8  9  1  0  0  0  0
  8 26  1  0  0  0  0
  9 10  1  0  0  0  0
  9 27  1  0  0  0  0
  9 28  1  0  0  0  0
 10 11  1  0  0  0  0
 10 29  1  0  0  0  0
 10 30  1  0  0  0  0
 11 18  1  0  0  0  0
 11 12  1  0  0  0  0
 11 43  1  0  0  0  0
 12 13  1  0  0  0  0
 12 31  1  0  0  0  0
 12 32  1  0  0  0  0
 13 14  1  0  0  0  0
 13 15  1  0  0  0  0
 13 33  1  0  0  0  0
 14 34  1  0  0  0  0
 14 35  1  0  0  0  0
 14 36  1  0  0  0  0
 15 16  1  0  0  0  0
 16 17  1  0  0  0  0
 16 18  1  0  0  0  0
 16 37  1  0  0  0  0
 17 38  1  0  0  0  0
 17 39  1  0  0  0  0
 17 40  1  0  0  0  0
 18 41  1  0  0  0  0
 18 42  1  0  0  0  0
 19 20  1  0  0  0  0
M  CHG  1  11   1
M  END
> <s_m_source_file>
AV-unprocessed.smi

> <i_m_source_file_index>
1381

> <i_lp_mmshare_version>
43012

> <i_f3d_flags>
0

> <s_epik_input>
W0NIM11jMVtjSF1jKG5vMSlbTkhdQyg9TylbTkhdW0NIMl1bQ0gyXU4yW0NIMl1bQ0BASF0oW0NIM10pT1tDQEBIXShbQ0gzXSlbQ0gyXTI=

> <s_epik_cmdline>
J2VwaWtfcHl0aG9uJywgJy1waCcsICc3LjAnLCAnLXRuJywgJzgnLCAnLW1hJywgJzIwMCcsICctbWV0YWxfYmluZGluZycsICctaW1hZScsICc8aW5maWxlLm1hZT4nLCAnLW9tYWUnLCAnPG91dGZpbGUubWFlPic=

> <r_epik_Ionization_Penalty>
0.707076

> <r_epik_Ionization_Penalty_Charging>
0.707039

> <r_epik_Ionization_Penalty_Neutral>
3.6548e-05

> <r_epik_State_Penalty>
0.730276

> <r_epik_Charging_Adjusted_Penalty>
1.43732

> <i_epik_Tot_Q>
1

> <i_epik_Tot_abs_Q>
1

> <r_epik_Metal_State_Penalty>
0.743132

> <b_epik_Metal_Only>
0

> <s_lp_Force_Field>
OPLS_2005

> <r_lp_Energy>
11.2606

> <b_lp_Chiralities_Consistent>
1

> <s_lp_Variant>
AV-unprocessed.smi:1381-4

> <Gold.Version>
5.8.1

> <Gold.Id.Protein>
6NUR|6NUR_protein|mol2

> <Gold.PLP.Fitness>
43.9806

> <Gold.PLP.PLP>
-33.4942

> <Gold.PLP.part.hbond>
-3.0000

> <Gold.PLP.part.metal>
0.0000

> <Gold.PLP.part.buried>
-2.8391

> <Gold.PLP.part.nonpolar>
-28.2976

> <Gold.PLP.part.repulsive>
0.5065

> <Gold.PLP.ligand.clash>
0.0000

> <Gold.PLP.ligand.torsion>
0.5776

> <Gold.PLP.Chemscore.Hbond>
3.8580

> <Gold.PLP.Chemscore.CHOScore>
0.0000

> <Gold.PLP.Chemscore.Metal>
0.0000

> <Gold.Chemscore.Hbonds>
donor molecule, donor type, donor heavy atom, donor atom, acceptor molecule, acceptor atom, score
      L1  H     5    25       P1  8028  1.00
      L1  H     8    26       P1  8028  0.84
      L1  H    11    43       P1 10175  2.00

> <Gold.PLP.Chemscore.Internal.Correction>
0.0675

> <Gold.Rescore>
     Score         DG    S(hbond)    S(metal)    S(lipo)     H(rot)  DE(clash)    DE(int)     intcor
     16.78     -19.18       2.74        0.00      74.22       1.61       0.61       1.80       ----

> <Gold.Chemscore.Fitness>
16.7759

> <Gold.Chemscore.DG>
-19.1850

> <Gold.Chemscore.ZeroCoef>
-5.4800

> <Gold.Chemscore.Hbond>
2.7361

> <Gold.Chemscore.Metal>
0.0000

> <Gold.Chemscore.Lipo>
74.2155

> <Gold.Chemscore.Internal_Hbond>
0.0000

> <Gold.Chemscore.DEClash>
0.6051

> <Gold.Chemscore.DEInternal>
1.8039

> <Gold.Chemscore.Rot>
1.6081

> <Gold.Chemscore.Internal.Correction>
   9.000000E+99

> <Gold.Chemscore.Hbonds>
donor molecule, donor type, donor heavy atom, donor atom, acceptor molecule, acceptor atom, score
      L1  H     5    25       P1  8028  0.99
      L1  H     8    26       P1  8028  0.78
      L1  H    11    43       P1 10175  0.86

> <Gold.Chemscore.Hbond.Weighted>
-9.1384

> <Gold.Chemscore.Metal.Weighted>
-0.0000

> <Gold.Chemscore.Lipo.Weighted>
-8.6832

> <Gold.Chemscore.Internal_Hbond.Weighted>
0.0000

> <Gold.Chemscore.DEClash.Weighted>
0.6051

> <Gold.Chemscore.DEInternal.Weighted>
1.8039

> <Gold.Chemscore.Rot.Weighted>
4.1167

> <Gold.Chemscore.Internal.Correction.Weighted>
   9.000000E+99

> <Gold.Protein.RotatedTorsions>
[ 6907 6896 6895 6894 ] final   63.92 input  -60.11 | X-H torsion
[ 7974 7965 7964 7962 ] final  140.58 input  175.53 | X-H torsion
[ 8008 7997 7996 7995 ] final  114.43 input   59.86 | X-H torsion
[ 10167 10162 10161 10158 ] final   45.30 input  -65.29 | X-H torsion
[ 10718 10713 10712 10709 ] final  168.93 input   66.30 | X-H torsion
[ 10763 10752 10751 10750 ] final  -35.96 input  -60.55 | X-H torsion
[ 11005 11000 10999 10996 ] final  -97.42 input  -57.11 | X-H torsion

> <Gold.Protein.ActiveResidues>
 VAL166  LYS551  ARG553  GLY616  TRP617  ASP618  TYR619  PRO620  LYS621  CYS622 
 ASP623  PHE694  ASN695  SER759  ASP760  ASP761  ALA762  ILE779  LEU786  VAL792 
 PHE793  MET794  SER795  GLU796  ALA797  LYS798  CYS799  TRP800  GLU811  SER814 

> <Gold.Protein.RotatedAtoms>
  152.4291  134.5812  159.9948 H   0  0  0  0  0  0  0  0  0  0  0  0  # atno 6907 bound_to 6896
  151.5940  133.3357  159.3041 H   0  0  0  0  0  0  0  0  0  0  0  0  # atno 6908 bound_to 6896
  150.8182  134.7412  159.6814 H   0  0  0  0  0  0  0  0  0  0  0  0  # atno 6909 bound_to 6896
  144.9174  139.5213  143.5680 H   0  0  0  0  0  0  0  0  0  0  0  0  # atno 7974 bound_to 7965
  156.2320  140.2959  156.0214 H   0  0  0  0  0  0  0  0  0  0  0  0  # atno 8008 bound_to 7997
  155.2197  140.0415  157.2963 H   0  0  0  0  0  0  0  0  0  0  0  0  # atno 8009 bound_to 7997
  154.6013  140.2427  155.7797 H   0  0  0  0  0  0  0  0  0  0  0  0  # atno 8010 bound_to 7997
  140.3256  144.2652  150.6176 H   0  0  0  0  0  0  0  0  0  0  0  0  # atno 10167 bound_to 10162
  157.0300  131.0256  151.2747 H   0  0  0  0  0  0  0  0  0  0  0  0  # atno 10718 bound_to 10713
  153.8719  135.6830  153.4773 H   0  0  0  0  0  0  0  0  0  0  0  0  # atno 10763 bound_to 10752
  153.1282  135.4709  154.9304 H   0  0  0  0  0  0  0  0  0  0  0  0  # atno 10764 bound_to 10752
  154.7710  135.3238  154.8140 H   0  0  0  0  0  0  0  0  0  0  0  0  # atno 10765 bound_to 10752
  141.1380  133.8169  157.0703 H   0  0  0  0  0  0  0  0  0  0  0  0  # atno 11005 bound_to 11000
  146.3188  139.8026  142.8962 LP  0  0  0  0  0  0  0  0  0  0  0  0  # atno 17320 bound_to 7965
  145.3353  141.0276  143.3423 LP  0  0  0  0  0  0  0  0  0  0  0  0  # atno 17321 bound_to 7965
  140.5444  143.2217  151.8031 LP  0  0  0  0  0  0  0  0  0  0  0  0  # atno 17342 bound_to 10162
  139.4866  144.4558  151.9600 LP  0  0  0  0  0  0  0  0  0  0  0  0  # atno 17343 bound_to 10162
  157.5185  130.7983  149.7782 LP  0  0  0  0  0  0  0  0  0  0  0  0  # atno 17370 bound_to 10713
  156.0073  130.3849  150.2387 LP  0  0  0  0  0  0  0  0  0  0  0  0  # atno 17371 bound_to 10713
  140.0515  134.9803  157.1145 LP  0  0  0  0  0  0  0  0  0  0  0  0  # atno 17394 bound_to 11000
  140.3982  134.2111  155.7164 LP  0  0  0  0  0  0  0  0  0  0  0  0  # atno 17395 bound_to 11000

$$$$
