AV-unprocessed.smi:2234|AV-procd|sdf|9043|dock2
  -GOLD-   2272012253D 1   1.00000     0.00000
 Structure written by MMmdl.
 21 22  0  0  0  0  0  0  0  0  2 V2000
  152.7599  139.6024  154.8835 O   0  0  0  0  0  0  0  0  0  0  0  0
  151.9735  138.6589  155.1213 C   0  0  0  0  0  0  0  0  0  0  0  0
  152.1416  137.4751  154.7540 O   0  5  0  0  0  0  0  0  0  0  0  0
  150.7182  138.9781  155.9576 C   0  0  1  0  0  0  0  0  0  0  0  0
  151.0411  139.5833  157.3169 C   0  0  0  0  0  0  0  0  0  0  0  0
  150.9097  141.0440  157.0322 C   0  0  0  0  0  0  0  0  0  0  0  0
  151.4573  142.1204  157.8940 C   0  0  0  0  0  0  0  0  0  0  0  0
  152.1311  141.8145  159.0975 C   0  0  0  0  0  0  0  0  0  0  0  0
  152.6301  142.8688  159.8869 C   0  0  0  0  0  0  0  0  0  0  0  0
  152.4343  144.1909  159.4426 C   0  0  0  0  0  0  0  0  0  0  0  0
  151.7909  144.4997  158.2971 N   0  0  0  0  0  0  0  0  0  0  0  0
  151.3157  143.4838  157.5437 C   0  0  0  0  0  0  0  0  0  0  0  0
  150.2908  141.2477  155.9464 N   0  0  0  0  0  0  0  0  0  0  0  0
  149.9387  140.0084  155.3516 O   0  0  0  0  0  0  0  0  0  0  0  0
  150.1274  138.0669  156.0546 H   0  0  0  0  0  0  0  0  0  0  0  0
  150.3068  139.2893  158.0673 H   0  0  0  0  0  0  0  0  0  0  0  0
  152.0362  139.3351  157.6877 H   0  0  0  0  0  0  0  0  0  0  0  0
  152.2680  140.7943  159.4245 H   0  0  0  0  0  0  0  0  0  0  0  0
  153.1503  142.6680  160.8115 H   0  0  0  0  0  0  0  0  0  0  0  0
  152.8030  145.0229  160.0243 H   0  0  0  0  0  0  0  0  0  0  0  0
  150.8088  143.7802  156.6368 H   0  0  0  0  0  0  0  0  0  0  0  0
  1  2  2  0  0  0  0
  2  3  1  0  0  0  0
  2  4  1  0  0  0  0
  4 14  1  0  0  0  0
  4  5  1  0  0  0  0
  4 15  1  0  0  0  0
  5  6  1  0  0  0  0
  5 16  1  0  0  0  0
  5 17  1  0  0  0  0
  6  7  1  0  0  0  0
  6 13  2  0  0  0  0
  7 12  1  0  0  0  0
  7  8  2  0  0  0  0
  8  9  1  0  0  0  0
  8 18  1  0  0  0  0
  9 10  2  0  0  0  0
  9 19  1  0  0  0  0
 10 11  1  0  0  0  0
 10 20  1  0  0  0  0
 11 12  2  0  0  0  0
 12 21  1  0  0  0  0
 13 14  1  0  0  0  0
M  CHG  1   3  -1
M  END
> <s_m_source_file>
AV-unprocessed.smi

> <i_m_source_file_index>
2234

> <i_lp_mmshare_version>
43012

> <i_f3d_flags>
0

> <s_epik_input>
Tz1DKFtPSF0pW0NAQEhdMVtDSDJdQyg9Tk8xKWMyW2NIXVtjSF1bY0hdbltjSF0y

> <s_epik_cmdline>
J2VwaWtfcHl0aG9uJywgJy1waCcsICc3LjAnLCAnLXRuJywgJzgnLCAnLW1hJywgJzIwMCcsICctbWV0YWxfYmluZGluZycsICctaW1hZScsICc8aW5maWxlLm1hZT4nLCAnLW9tYWUnLCAnPG91dGZpbGUubWFlPic=

> <r_lp_tautomer_probability>
1

> <r_epik_Ionization_Penalty>
0.000239258

> <r_epik_Ionization_Penalty_Charging>
3.09051e-05

> <r_epik_Ionization_Penalty_Neutral>
0.000208353

> <r_epik_State_Penalty>
-0

> <r_epik_Charging_Adjusted_Penalty>
3.09051e-05

> <i_epik_Tot_Q>
-1

> <i_epik_Tot_abs_Q>
1

> <r_epik_Metal_State_Penalty>
-0

> <b_epik_Metal_Only>
0

> <s_epik_Chemistry_Notes>
This compound has an imine and may undergo hydrolysis.

> <s_lp_Force_Field>
OPLS_2005

> <r_lp_Energy>
18.3525

> <b_lp_Chiralities_Consistent>
1

> <s_lp_Variant>
AV-unprocessed.smi:2234-2

> <Gold.Version>
5.8.1

> <Gold.Id.Protein>
6NUR|6NUR_protein|mol2

> <Gold.PLP.Fitness>
42.6806

> <Gold.PLP.PLP>
-28.3391

> <Gold.PLP.part.hbond>
-3.0000

> <Gold.PLP.part.metal>
0.0000

> <Gold.PLP.part.buried>
-6.5607

> <Gold.PLP.part.nonpolar>
-20.9721

> <Gold.PLP.part.repulsive>
0.3353

> <Gold.PLP.ligand.clash>
0.0000

> <Gold.PLP.ligand.torsion>
0.0190

> <Gold.PLP.Chemscore.Hbond>
3.7811

> <Gold.PLP.Chemscore.CHOScore>
1.0000

> <Gold.PLP.Chemscore.Metal>
0.0000

> <Gold.Chemscore.Hbonds>
donor molecule, donor type, donor heavy atom, donor atom, acceptor molecule, acceptor atom, score
      P1  H  7989  7998       L1     1  0.36
      P1  H  7997  8008       L1     1  1.62
      P1  H 10752 10763       L1     3  1.54
      L1  C    12    21       P1  8028  1.00

> <Gold.PLP.Chemscore.Internal.Correction>
0.0362

> <Gold.Rescore>
     Score         DG    S(hbond)    S(metal)    S(lipo)     H(rot)  DE(clash)    DE(int)     intcor
     17.25     -17.28       1.84        0.00      70.25       1.00       0.00       0.03       ----

> <Gold.Chemscore.Fitness>
17.2522

> <Gold.Chemscore.DG>
-17.2823

> <Gold.Chemscore.ZeroCoef>
-5.4800

> <Gold.Chemscore.Hbond>
1.8392

> <Gold.Chemscore.Metal>
0.0000

> <Gold.Chemscore.Lipo>
70.2506

> <Gold.Chemscore.Internal_Hbond>
0.0000

> <Gold.Chemscore.DEClash>
0.0000

> <Gold.Chemscore.DEInternal>
0.0301

> <Gold.Chemscore.Rot>
1.0000

> <Gold.Chemscore.Internal.Correction>
   9.000000E+99

> <Gold.Chemscore.Hbonds>
donor molecule, donor type, donor heavy atom, donor atom, acceptor molecule, acceptor atom, score
      P1  H  7989  7998       L1     1  0.18
      P1  H  7997  8008       L1     1  0.80
      P1  H 10752 10763       L1     3  0.73

> <Gold.Chemscore.Hbond.Weighted>
-6.1430

> <Gold.Chemscore.Metal.Weighted>
-0.0000

> <Gold.Chemscore.Lipo.Weighted>
-8.2193

> <Gold.Chemscore.Internal_Hbond.Weighted>
0.0000

> <Gold.Chemscore.DEClash.Weighted>
0.0000

> <Gold.Chemscore.DEInternal.Weighted>
0.0301

> <Gold.Chemscore.Rot.Weighted>
2.5600

> <Gold.Chemscore.Internal.Correction.Weighted>
   9.000000E+99

> <Gold.Protein.RotatedTorsions>
[ 6907 6896 6895 6894 ] final   67.67 input  -60.11 | X-H torsion
[ 7974 7965 7964 7962 ] final -144.82 input  175.53 | X-H torsion
[ 8008 7997 7996 7995 ] final   -0.18 input   59.86 | X-H torsion
[ 10167 10162 10161 10158 ] final  -57.27 input  -65.29 | X-H torsion
[ 10718 10713 10712 10709 ] final  145.72 input   66.30 | X-H torsion
[ 10763 10752 10751 10750 ] final   53.16 input  -60.55 | X-H torsion
[ 11005 11000 10999 10996 ] final   55.10 input  -57.11 | X-H torsion

> <Gold.Protein.ActiveResidues>
 VAL166  LYS551  ARG553  GLY616  TRP617  ASP618  TYR619  PRO620  LYS621  CYS622 
 ASP623  PHE694  ASN695  SER759  ASP760  ASP761  ALA762  ILE779  LEU786  VAL792 
 PHE793  MET794  SER795  GLU796  ALA797  LYS798  CYS799  TRP800  GLU811  SER814 

> <Gold.Protein.RotatedAtoms>
  152.4568  134.5274  159.9800 H   0  0  0  0  0  0  0  0  0  0  0  0  # atno 6907 bound_to 6896
  151.5333  133.3439  159.2930 H   0  0  0  0  0  0  0  0  0  0  0  0  # atno 6908 bound_to 6896
  150.8515  134.7872  159.7075 H   0  0  0  0  0  0  0  0  0  0  0  0  # atno 6909 bound_to 6896
  144.8270  140.5661  143.5540 H   0  0  0  0  0  0  0  0  0  0  0  0  # atno 7974 bound_to 7965
  154.6610  140.2590  155.7109 H   0  0  0  0  0  0  0  0  0  0  0  0  # atno 8008 bound_to 7997
  156.2618  140.2848  156.1004 H   0  0  0  0  0  0  0  0  0  0  0  0  # atno 8009 bound_to 7997
  155.1308  140.0378  157.2764 H   0  0  0  0  0  0  0  0  0  0  0  0  # atno 8010 bound_to 7997
  140.6268  143.2442  151.5343 H   0  0  0  0  0  0  0  0  0  0  0  0  # atno 10167 bound_to 10162
  157.3418  131.0937  151.1075 H   0  0  0  0  0  0  0  0  0  0  0  0  # atno 10718 bound_to 10713
  152.9793  135.5788  154.4695 H   0  0  0  0  0  0  0  0  0  0  0  0  # atno 10763 bound_to 10752
  154.4260  135.2772  155.1946 H   0  0  0  0  0  0  0  0  0  0  0  0  # atno 10764 bound_to 10752
  154.3675  135.6175  153.5776 H   0  0  0  0  0  0  0  0  0  0  0  0  # atno 10765 bound_to 10752
  140.0633  134.5571  155.9127 H   0  0  0  0  0  0  0  0  0  0  0  0  # atno 11005 bound_to 11000
  145.4978  139.1485  143.3674 LP  0  0  0  0  0  0  0  0  0  0  0  0  # atno 17320 bound_to 7965
  146.2575  140.5117  142.8867 LP  0  0  0  0  0  0  0  0  0  0  0  0  # atno 17321 bound_to 7965
  139.5487  144.2452  152.1491 LP  0  0  0  0  0  0  0  0  0  0  0  0  # atno 17342 bound_to 10162
  140.1686  144.4958  150.6592 LP  0  0  0  0  0  0  0  0  0  0  0  0  # atno 17343 bound_to 10162
  157.2284  130.6514  149.5839 LP  0  0  0  0  0  0  0  0  0  0  0  0  # atno 17370 bound_to 10713
  155.9709  130.4606  150.6080 LP  0  0  0  0  0  0  0  0  0  0  0  0  # atno 17371 bound_to 10713
  141.1982  133.6600  156.5782 LP  0  0  0  0  0  0  0  0  0  0  0  0  # atno 17394 bound_to 11000
  140.3736  134.7584  157.4615 LP  0  0  0  0  0  0  0  0  0  0  0  0  # atno 17395 bound_to 11000

$$$$
