AV-unprocessed.smi:2273|AV-procd|sdf|9164|dock8
  -GOLD-   2272012373D 1   1.00000     0.00000
 Structure written by MMmdl.
 53 54  0  0  0  0  0  0  0  0  1 V2000
  150.6219  141.6622  156.0750 C   0  0  0  0  0  0  0  0  0  0  0  0
  149.1854  141.3947  155.6099 C   0  0  0  0  0  0  0  0  0  0  0  0
  149.0304  140.6082  154.2799 C   0  0  0  0  0  0  0  0  0  0  0  0
  147.5395  140.5858  153.8475 C   0  0  0  0  0  0  0  0  0  0  0  0
  146.8686  141.9644  153.7408 C   0  0  0  0  0  0  0  0  0  0  0  0
  149.6297  139.1719  154.3790 C   0  0  2  0  0  0  0  0  0  0  0  0
  149.0763  138.3602  155.5777 C   0  0  0  0  0  0  0  0  0  0  0  0
  149.6762  136.9426  155.6321 C   0  0  1  0  0  0  0  0  0  0  0  0
  149.1861  136.1114  154.5274 N   0  0  0  0  0  0  0  0  0  0  0  0
  148.5720  134.9159  154.5849 C   0  0  0  0  0  0  0  0  0  0  0  0
  148.3549  134.3606  155.6606 O   0  0  0  0  0  0  0  0  0  0  0  0
  148.2398  134.4009  153.3834 N   0  0  0  0  0  0  0  0  0  0  0  0
  147.6075  133.1704  153.1424 C   0  0  0  0  0  0  0  0  0  0  0  0
  148.1920  132.0330  153.6026 C   0  0  0  0  0  0  0  0  0  0  0  0
  149.4828  132.0627  154.4050 C   0  0  0  0  0  0  0  0  0  0  0  0
  147.5533  130.7586  153.3473 C   0  0  0  0  0  0  0  0  0  0  0  0
  146.4061  130.7230  152.6568 C   0  0  0  0  0  0  0  0  0  0  0  0
  145.8126  131.8897  152.1549 N   0  0  0  0  0  0  0  0  0  0  0  0
  144.5669  131.7443  151.3975 C   0  0  0  0  0  0  0  0  0  0  0  0
  146.3737  133.1224  152.3191 C   0  0  0  0  0  0  0  0  0  0  0  0
  145.8748  134.1168  151.7872 O   0  0  0  0  0  0  0  0  0  0  0  0
  151.2081  137.0375  155.5888 C   0  0  0  0  0  0  0  0  0  0  0  0
  151.6798  137.9449  154.4416 C   0  0  0  0  0  0  0  0  0  0  0  0
  151.0483  139.2170  154.5415 O   0  0  0  0  0  0  0  0  0  0  0  0
  150.6263  142.3250  156.9406 H   0  0  0  0  0  0  0  0  0  0  0  0
  151.2080  142.1418  155.2910 H   0  0  0  0  0  0  0  0  0  0  0  0
  151.1249  140.7438  156.3768 H   0  0  0  0  0  0  0  0  0  0  0  0
  148.6476  140.8775  156.4053 H   0  0  0  0  0  0  0  0  0  0  0  0
  148.7088  142.3688  155.5119 H   0  0  0  0  0  0  0  0  0  0  0  0
  149.5710  141.1458  153.4994 H   0  0  0  0  0  0  0  0  0  0  0  0
  147.4530  140.1305  152.8609 H   0  0  0  0  0  0  0  0  0  0  0  0
  146.9651  139.9536  154.5256 H   0  0  0  0  0  0  0  0  0  0  0  0
  145.8790  141.8731  153.2928 H   0  0  0  0  0  0  0  0  0  0  0  0
  147.4521  142.6411  153.1161 H   0  0  0  0  0  0  0  0  0  0  0  0
  146.7325  142.4309  154.7160 H   0  0  0  0  0  0  0  0  0  0  0  0
  149.4212  138.6522  153.4421 H   0  0  0  0  0  0  0  0  0  0  0  0
  149.3258  138.8830  156.5021 H   0  0  0  0  0  0  0  0  0  0  0  0
  147.9910  138.2997  155.5629 H   0  0  0  0  0  0  0  0  0  0  0  0
  149.4034  136.4722  156.5780 H   0  0  0  0  0  0  0  0  0  0  0  0
  149.2879  136.5128  153.6064 H   0  0  0  0  0  0  0  0  0  0  0  0
  148.5751  134.8892  152.5661 H   0  0  0  0  0  0  0  0  0  0  0  0
  149.8350  131.0545  154.6246 H   0  0  0  0  0  0  0  0  0  0  0  0
  149.3232  132.5762  155.3523 H   0  0  0  0  0  0  0  0  0  0  0  0
  150.2707  132.5797  153.8562 H   0  0  0  0  0  0  0  0  0  0  0  0
  147.9884  129.8414  153.7165 H   0  0  0  0  0  0  0  0  0  0  0  0
  145.8823  129.8039  152.4381 H   0  0  0  0  0  0  0  0  0  0  0  0
  143.7928  132.4020  151.7963 H   0  0  0  0  0  0  0  0  0  0  0  0
  144.1712  130.7285  151.4293 H   0  0  0  0  0  0  0  0  0  0  0  0
  144.7263  132.0028  150.3498 H   0  0  0  0  0  0  0  0  0  0  0  0
  151.5653  137.4522  156.5324 H   0  0  0  0  0  0  0  0  0  0  0  0
  151.6547  136.0463  155.5011 H   0  0  0  0  0  0  0  0  0  0  0  0
  152.7594  138.0838  154.4970 H   0  0  0  0  0  0  0  0  0  0  0  0
  151.4699  137.4941  153.4705 H   0  0  0  0  0  0  0  0  0  0  0  0
  1  2  1  0  0  0  0
  1 25  1  0  0  0  0
  1 26  1  0  0  0  0
  1 27  1  0  0  0  0
  2  3  1  0  0  0  0
  2 28  1  0  0  0  0
  2 29  1  0  0  0  0
  3  4  1  0  0  0  0
  3  6  1  0  0  0  0
  3 30  1  0  0  0  0
  4  5  1  0  0  0  0
  4 31  1  0  0  0  0
  4 32  1  0  0  0  0
  5 33  1  0  0  0  0
  5 34  1  0  0  0  0
  5 35  1  0  0  0  0
  6 24  1  0  0  0  0
  6  7  1  0  0  0  0
  6 36  1  0  0  0  0
  7  8  1  0  0  0  0
  7 37  1  0  0  0  0
  7 38  1  0  0  0  0
  8  9  1  0  0  0  0
  8 22  1  0  0  0  0
  8 39  1  0  0  0  0
  9 10  1  0  0  0  0
  9 40  1  0  0  0  0
 10 11  2  0  0  0  0
 10 12  1  0  0  0  0
 12 13  1  0  0  0  0
 12 41  1  0  0  0  0
 13 20  1  0  0  0  0
 13 14  2  0  0  0  0
 14 15  1  0  0  0  0
 14 16  1  0  0  0  0
 15 42  1  0  0  0  0
 15 43  1  0  0  0  0
 15 44  1  0  0  0  0
 16 17  2  0  0  0  0
 16 45  1  0  0  0  0
 17 18  1  0  0  0  0
 17 46  1  0  0  0  0
 18 19  1  0  0  0  0
 18 20  1  0  0  0  0
 19 47  1  0  0  0  0
 19 48  1  0  0  0  0
 19 49  1  0  0  0  0
 20 21  2  0  0  0  0
 22 23  1  0  0  0  0
 22 50  1  0  0  0  0
 22 51  1  0  0  0  0
 23 24  1  0  0  0  0
 23 52  1  0  0  0  0
 23 53  1  0  0  0  0
M  END
> <s_m_source_file>
AV-unprocessed.smi

> <i_m_source_file_index>
2273

> <i_lp_mmshare_version>
43012

> <i_f3d_flags>
0

> <s_epik_input>
W0NIM11bQ0gyXVtDSF0oW0NIMl1bQ0gzXSlbQ0BASF0xW0NIMl1bQ0BIXShbQ0gyXVtDSDJdTzEpW05IXUMoPU8pW05IXWMyYyhbQ0gzXSlbY0hdW2NIXW4oW0NIM10pYzI9Tw==

> <s_epik_cmdline>
J2VwaWtfcHl0aG9uJywgJy1waCcsICc3LjAnLCAnLXRuJywgJzgnLCAnLW1hJywgJzIwMCcsICctbWV0YWxfYmluZGluZycsICctaW1hZScsICc8aW5maWxlLm1hZT4nLCAnLW9tYWUnLCAnPG91dGZpbGUubWFlPic=

> <r_lp_tautomer_probability>
1

> <r_epik_Ionization_Penalty>
2.66245e-05

> <r_epik_Ionization_Penalty_Charging>
6.91055e-06

> <r_epik_Ionization_Penalty_Neutral>
1.97139e-05

> <r_epik_State_Penalty>
-0

> <r_epik_Charging_Adjusted_Penalty>
6.91055e-06

> <i_epik_Tot_Q>
0

> <i_epik_Tot_abs_Q>
0

> <r_epik_Metal_State_Penalty>
-0

> <b_epik_Metal_Only>
0

> <s_lp_Force_Field>
OPLS_2005

> <r_lp_Energy>
42.8548

> <b_lp_Chiralities_Consistent>
1

> <s_lp_Variant>
AV-unprocessed.smi:2273-1

> <Gold.Version>
5.8.1

> <Gold.Id.Protein>
6NUR|6NUR_protein|mol2

> <Gold.PLP.Fitness>
48.6757

> <Gold.PLP.PLP>
-40.8805

> <Gold.PLP.part.hbond>
-2.7397

> <Gold.PLP.part.metal>
0.0000

> <Gold.PLP.part.buried>
-4.6346

> <Gold.PLP.part.nonpolar>
-35.0187

> <Gold.PLP.part.repulsive>
0.2776

> <Gold.PLP.ligand.clash>
0.0000

> <Gold.PLP.ligand.torsion>
0.6417

> <Gold.PLP.Chemscore.Hbond>
2.8388

> <Gold.PLP.Chemscore.CHOScore>
0.0000

> <Gold.PLP.Chemscore.Metal>
0.0000

> <Gold.Chemscore.Hbonds>
donor molecule, donor type, donor heavy atom, donor atom, acceptor molecule, acceptor atom, score
      L1  H     9    40       P1  7948  0.88
      L1  H    12    41       P1  7948  0.91
      P1  H  7989  7998       L1    24  0.99

> <Gold.PLP.Chemscore.Internal.Correction>
0.5623

> <Gold.Rescore>
     Score         DG    S(hbond)    S(metal)    S(lipo)     H(rot)  DE(clash)    DE(int)     intcor
     16.68     -20.08       2.05        0.00      97.51       1.42       0.34       3.06       ----

> <Gold.Chemscore.Fitness>
16.6782

> <Gold.Chemscore.DG>
-20.0848

> <Gold.Chemscore.ZeroCoef>
-5.4800

> <Gold.Chemscore.Hbond>
2.0479

> <Gold.Chemscore.Metal>
0.0000

> <Gold.Chemscore.Lipo>
97.5144

> <Gold.Chemscore.Internal_Hbond>
0.0000

> <Gold.Chemscore.DEClash>
0.3417

> <Gold.Chemscore.DEInternal>
3.0649

> <Gold.Chemscore.Rot>
1.4236

> <Gold.Chemscore.Internal.Correction>
   9.000000E+99

> <Gold.Chemscore.Hbonds>
donor molecule, donor type, donor heavy atom, donor atom, acceptor molecule, acceptor atom, score
      L1  H     9    40       P1  7948  0.80
      L1  H    12    41       P1  7948  0.19
      P1  H  7989  7998       L1    24  0.46

> <Gold.Chemscore.Hbond.Weighted>
-6.8401

> <Gold.Chemscore.Metal.Weighted>
-0.0000

> <Gold.Chemscore.Lipo.Weighted>
-11.4092

> <Gold.Chemscore.Internal_Hbond.Weighted>
0.0000

> <Gold.Chemscore.DEClash.Weighted>
0.3417

> <Gold.Chemscore.DEInternal.Weighted>
3.0649

> <Gold.Chemscore.Rot.Weighted>
3.6445

> <Gold.Chemscore.Internal.Correction.Weighted>
   9.000000E+99

> <Gold.Protein.RotatedTorsions>
[ 6907 6896 6895 6894 ] final -161.42 input  -60.11 | X-H torsion
[ 7974 7965 7964 7962 ] final   74.31 input  175.53 | X-H torsion
[ 8008 7997 7996 7995 ] final   90.48 input   59.86 | X-H torsion
[ 10167 10162 10161 10158 ] final  -18.72 input  -65.29 | X-H torsion
[ 10718 10713 10712 10709 ] final -147.82 input   66.30 | X-H torsion
[ 10763 10752 10751 10750 ] final  122.07 input  -60.55 | X-H torsion
[ 11005 11000 10999 10996 ] final  153.34 input  -57.11 | X-H torsion

> <Gold.Protein.ActiveResidues>
 VAL166  LYS551  ARG553  GLY616  TRP617  ASP618  TYR619  PRO620  LYS621  CYS622 
 ASP623  PHE694  ASN695  SER759  ASP760  ASP761  ALA762  ILE779  LEU786  VAL792 
 PHE793  MET794  SER795  GLU796  ALA797  LYS798  CYS799  TRP800  GLU811  SER814 

> <Gold.Protein.RotatedAtoms>
  151.3644  133.3877  159.2692 H   0  0  0  0  0  0  0  0  0  0  0  0  # atno 6907 bound_to 6896
  150.9700  134.9075  159.7793 H   0  0  0  0  0  0  0  0  0  0  0  0  # atno 6908 bound_to 6896
  152.5181  134.3606  159.9335 H   0  0  0  0  0  0  0  0  0  0  0  0  # atno 6909 bound_to 6896
  145.7298  139.2679  143.1547 H   0  0  0  0  0  0  0  0  0  0  0  0  # atno 7974 bound_to 7965
  156.0124  140.3349  155.6954 H   0  0  0  0  0  0  0  0  0  0  0  0  # atno 8008 bound_to 7997
  155.6139  140.0668  157.2716 H   0  0  0  0  0  0  0  0  0  0  0  0  # atno 8009 bound_to 7997
  154.4286  140.1788  156.1288 H   0  0  0  0  0  0  0  0  0  0  0  0  # atno 8010 bound_to 7997
  140.7261  143.4888  151.0019 H   0  0  0  0  0  0  0  0  0  0  0  0  # atno 10167 bound_to 10162
  156.4123  130.7988  151.2206 H   0  0  0  0  0  0  0  0  0  0  0  0  # atno 10718 bound_to 10713
  153.6241  135.3408  155.3020 H   0  0  0  0  0  0  0  0  0  0  0  0  # atno 10763 bound_to 10752
  154.8594  135.4280  154.2176 H   0  0  0  0  0  0  0  0  0  0  0  0  # atno 10764 bound_to 10752
  153.3056  135.7028  153.7235 H   0  0  0  0  0  0  0  0  0  0  0  0  # atno 10765 bound_to 10752
  140.1389  134.8752  157.2304 H   0  0  0  0  0  0  0  0  0  0  0  0  # atno 11005 bound_to 11000
  146.0548  140.8032  142.9764 LP  0  0  0  0  0  0  0  0  0  0  0  0  # atno 17320 bound_to 7965
  144.6895  140.3107  143.7248 LP  0  0  0  0  0  0  0  0  0  0  0  0  # atno 17321 bound_to 7965
  139.8591  143.7337  152.3174 LP  0  0  0  0  0  0  0  0  0  0  0  0  # atno 17342 bound_to 10162
  139.7546  144.7524  151.0454 LP  0  0  0  0  0  0  0  0  0  0  0  0  # atno 17343 bound_to 10162
  157.7507  131.0253  150.3916 LP  0  0  0  0  0  0  0  0  0  0  0  0  # atno 17370 bound_to 10713
  156.4216  130.3954  149.6821 LP  0  0  0  0  0  0  0  0  0  0  0  0  # atno 17371 bound_to 10713
  140.2748  134.3419  155.7362 LP  0  0  0  0  0  0  0  0  0  0  0  0  # atno 17394 bound_to 11000
  141.2183  133.7444  156.9276 LP  0  0  0  0  0  0  0  0  0  0  0  0  # atno 17395 bound_to 11000

$$$$
