AV-unprocessed.smi:2252|AV-procd|sdf|9108|dock3
  -GOLD-   2272012313D 1   1.00000     0.00000
 Structure written by MMmdl.
 45 47  0  0  0  0  0  0  0  0  2 V2000
  152.5039  141.9660  160.2644 C   0  0  0  0  0  0  0  0  0  0  0  0
  152.0442  142.9903  159.3238 N   0  0  0  0  0  0  0  0  0  0  0  0
  152.3609  144.3244  159.3482 C   0  0  0  0  0  0  0  0  0  0  0  0
  151.7141  144.9013  158.2867 C   0  0  0  0  0  0  0  0  0  0  0  0
  151.0295  143.8965  157.6586 N   0  3  0  0  0  0  0  0  0  0  0  0
  151.2252  142.7332  158.2905 C   0  0  0  0  0  0  0  0  0  0  0  0
  150.6474  141.4138  157.8859 C   0  0  0  0  0  0  0  0  0  0  0  0
  151.1700  140.9292  156.5235 C   0  0  0  0  0  0  0  0  0  0  0  0
  150.2816  141.3325  155.4414 N   0  0  0  0  0  0  0  0  0  0  0  0
  149.0244  140.8907  155.2797 C   0  0  0  0  0  0  0  0  0  0  0  0
  148.4933  140.0823  156.0423 O   0  0  0  0  0  0  0  0  0  0  0  0
  148.2345  141.4750  154.0947 C   0  0  1  0  0  0  0  0  0  0  0  0
  147.6391  140.3303  153.2454 C   0  0  0  0  0  0  0  0  0  0  0  0
  146.7654  139.2674  153.8821 C   0  0  0  0  0  0  0  0  0  0  0  0
  148.1422  138.9097  153.3922 C   0  0  0  0  0  0  0  0  0  0  0  0
  147.1727  142.4181  154.5262 N   0  0  0  0  0  0  0  0  0  0  0  0
  146.3743  142.9987  153.4472 C   0  0  0  0  0  0  0  0  0  0  0  0
  145.1748  143.6171  154.1664 C   0  0  0  0  0  0  0  0  0  0  0  0
  145.0626  142.8402  155.4746 C   0  0  0  0  0  0  0  0  0  0  0  0
  146.1840  141.8038  155.4075 C   0  0  0  0  0  0  0  0  0  0  0  0
  153.2168  142.4048  160.9629 H   0  0  0  0  0  0  0  0  0  0  0  0
  152.9889  141.1584  159.7160 H   0  0  0  0  0  0  0  0  0  0  0  0
  151.6499  141.5759  160.8184 H   0  0  0  0  0  0  0  0  0  0  0  0
  153.0076  144.7542  160.0996 H   0  0  0  0  0  0  0  0  0  0  0  0
  151.6911  145.9242  157.9401 H   0  0  0  0  0  0  0  0  0  0  0  0
  150.8765  140.7021  158.6795 H   0  0  0  0  0  0  0  0  0  0  0  0
  149.5632  141.5315  157.8643 H   0  0  0  0  0  0  0  0  0  0  0  0
  152.1577  141.3489  156.3317 H   0  0  0  0  0  0  0  0  0  0  0  0
  151.2875  139.8443  156.5173 H   0  0  0  0  0  0  0  0  0  0  0  0
  150.6409  141.9993  154.7735 H   0  0  0  0  0  0  0  0  0  0  0  0
  148.9483  142.0237  153.4766 H   0  0  0  0  0  0  0  0  0  0  0  0
  147.3369  140.6348  152.2444 H   0  0  0  0  0  0  0  0  0  0  0  0
  146.6148  139.3062  154.9592 H   0  0  0  0  0  0  0  0  0  0  0  0
  145.9163  138.9054  153.3059 H   0  0  0  0  0  0  0  0  0  0  0  0
  148.2156  138.3098  152.4874 H   0  0  0  0  0  0  0  0  0  0  0  0
  148.9068  138.7161  154.1419 H   0  0  0  0  0  0  0  0  0  0  0  0
  146.9249  143.7408  152.8678 H   0  0  0  0  0  0  0  0  0  0  0  0
  146.0377  142.2137  152.7672 H   0  0  0  0  0  0  0  0  0  0  0  0
  145.3541  144.6731  154.3726 H   0  0  0  0  0  0  0  0  0  0  0  0
  144.2683  143.5453  153.5647 H   0  0  0  0  0  0  0  0  0  0  0  0
  145.2150  143.5113  156.3209 H   0  0  0  0  0  0  0  0  0  0  0  0
  144.0865  142.3697  155.5950 H   0  0  0  0  0  0  0  0  0  0  0  0
  145.8094  140.8765  154.9696 H   0  0  0  0  0  0  0  0  0  0  0  0
  146.5894  141.5755  156.3936 H   0  0  0  0  0  0  0  0  0  0  0  0
  150.4544  144.0137  156.8339 H   0  0  0  0  0  0  0  0  0  0  0  0
  1  2  1  0  0  0  0
  1 21  1  0  0  0  0
  1 22  1  0  0  0  0
  1 23  1  0  0  0  0
  2  6  1  0  0  0  0
  2  3  1  0  0  0  0
  3  4  2  0  0  0  0
  3 24  1  0  0  0  0
  4  5  1  0  0  0  0
  4 25  1  0  0  0  0
  5  6  2  0  0  0  0
  5 45  1  0  0  0  0
  6  7  1  0  0  0  0
  7  8  1  0  0  0  0
  7 26  1  0  0  0  0
  7 27  1  0  0  0  0
  8  9  1  0  0  0  0
  8 28  1  0  0  0  0
  8 29  1  0  0  0  0
  9 10  1  0  0  0  0
  9 30  1  0  0  0  0
 10 11  2  0  0  0  0
 10 12  1  0  0  0  0
 12 13  1  0  0  0  0
 12 16  1  0  0  0  0
 12 31  1  0  0  0  0
 13 15  1  0  0  0  0
 13 14  1  0  0  0  0
 13 32  1  0  0  0  0
 14 15  1  0  0  0  0
 14 33  1  0  0  0  0
 14 34  1  0  0  0  0
 15 35  1  0  0  0  0
 15 36  1  0  0  0  0
 16 20  1  0  0  0  0
 16 17  1  0  0  0  0
 17 18  1  0  0  0  0
 17 37  1  0  0  0  0
 17 38  1  0  0  0  0
 18 19  1  0  0  0  0
 18 39  1  0  0  0  0
 18 40  1  0  0  0  0
 19 20  1  0  0  0  0
 19 41  1  0  0  0  0
 19 42  1  0  0  0  0
 20 43  1  0  0  0  0
 20 44  1  0  0  0  0
M  CHG  1   5   1
M  END
> <s_m_source_file>
AV-unprocessed.smi

> <i_m_source_file_index>
2252

> <i_lp_mmshare_version>
43012

> <i_f3d_flags>
0

> <s_epik_input>
W0NIM11uMVtjSF1bY0hdbmMxW0NIMl1bQ0gyXVtOSF1DKD1PKVtDQEhdKFtDSF0yW0NIMl1bQ0gyXTIpTjNbQ0gyXVtDSDJdW0NIMl1bQ0gyXTM=

> <s_epik_cmdline>
J2VwaWtfcHl0aG9uJywgJy1waCcsICc3LjAnLCAnLXRuJywgJzgnLCAnLW1hJywgJzIwMCcsICctbWV0YWxfYmluZGluZycsICctaW1hZScsICc8aW5maWxlLm1hZT4nLCAnLW9tYWUnLCAnPG91dGZpbGUubWFlPic=

> <r_epik_Ionization_Penalty>
2.52117

> <r_epik_Ionization_Penalty_Charging>
0

> <r_epik_Ionization_Penalty_Neutral>
2.52117

> <r_epik_State_Penalty>
2.63608

> <r_epik_Charging_Adjusted_Penalty>
2.63608

> <i_epik_Tot_Q>
1

> <i_epik_Tot_abs_Q>
1

> <r_epik_Metal_State_Penalty>
2.94973

> <b_epik_Metal_Only>
0

> <s_lp_Force_Field>
OPLS_2005

> <r_lp_Energy>
33.653

> <b_lp_Chiralities_Consistent>
1

> <s_lp_Variant>
AV-unprocessed.smi:2252-6

> <Gold.Version>
5.8.1

> <Gold.Id.Protein>
6NUR|6NUR_protein|mol2

> <Gold.PLP.Fitness>
48.0364

> <Gold.PLP.PLP>
-42.9345

> <Gold.PLP.part.hbond>
-1.0000

> <Gold.PLP.part.metal>
0.0000

> <Gold.PLP.part.buried>
-5.9046

> <Gold.PLP.part.nonpolar>
-37.1093

> <Gold.PLP.part.repulsive>
1.1459

> <Gold.PLP.ligand.clash>
0.0000

> <Gold.PLP.ligand.torsion>
1.0619

> <Gold.PLP.Chemscore.Hbond>
2.0000

> <Gold.PLP.Chemscore.CHOScore>
0.0000

> <Gold.PLP.Chemscore.Metal>
0.0000

> <Gold.Chemscore.Hbonds>
donor molecule, donor type, donor heavy atom, donor atom, acceptor molecule, acceptor atom, score
      L1  H     5    45       P1  8028  1.85

> <Gold.PLP.Chemscore.Internal.Correction>
1.2257

> <Gold.Rescore>
     Score         DG    S(hbond)    S(metal)    S(lipo)     H(rot)  DE(clash)    DE(int)     intcor
      9.32     -14.47       0.98        0.00      91.89       1.96       1.72       3.42       ----

> <Gold.Chemscore.Fitness>
9.3245

> <Gold.Chemscore.DG>
-14.4737

> <Gold.Chemscore.ZeroCoef>
-5.4800

> <Gold.Chemscore.Hbond>
0.9758

> <Gold.Chemscore.Metal>
0.0000

> <Gold.Chemscore.Lipo>
91.8876

> <Gold.Chemscore.Internal_Hbond>
0.0000

> <Gold.Chemscore.DEClash>
1.7242

> <Gold.Chemscore.DEInternal>
3.4250

> <Gold.Chemscore.Rot>
1.9595

> <Gold.Chemscore.Internal.Correction>
   9.000000E+99

> <Gold.Chemscore.Hbonds>
donor molecule, donor type, donor heavy atom, donor atom, acceptor molecule, acceptor atom, score
      L1  H     5    45       P1  8028  0.87

> <Gold.Chemscore.Hbond.Weighted>
-3.2593

> <Gold.Chemscore.Metal.Weighted>
-0.0000

> <Gold.Chemscore.Lipo.Weighted>
-10.7509

> <Gold.Chemscore.Internal_Hbond.Weighted>
0.0000

> <Gold.Chemscore.DEClash.Weighted>
1.7242

> <Gold.Chemscore.DEInternal.Weighted>
3.4250

> <Gold.Chemscore.Rot.Weighted>
5.0164

> <Gold.Chemscore.Internal.Correction.Weighted>
   9.000000E+99

> <Gold.Protein.RotatedTorsions>
[ 6907 6896 6895 6894 ] final   42.69 input  -60.11 | X-H torsion
[ 7974 7965 7964 7962 ] final   91.69 input  175.53 | X-H torsion
[ 8008 7997 7996 7995 ] final   72.81 input   59.86 | X-H torsion
[ 10167 10162 10161 10158 ] final   68.29 input  -65.29 | X-H torsion
[ 10718 10713 10712 10709 ] final   77.77 input   66.30 | X-H torsion
[ 10763 10752 10751 10750 ] final   98.59 input  -60.55 | X-H torsion
[ 11005 11000 10999 10996 ] final  112.14 input  -57.11 | X-H torsion

> <Gold.Protein.ActiveResidues>
 VAL166  LYS551  ARG553  GLY616  TRP617  ASP618  TYR619  PRO620  LYS621  CYS622 
 ASP623  PHE694  ASN695  SER759  ASP760  ASP761  ALA762  ILE779  LEU786  VAL792 
 PHE793  MET794  SER795  GLU796  ALA797  LYS798  CYS799  TRP800  GLU811  SER814 

> <Gold.Protein.RotatedAtoms>
  152.2110  134.8501  160.0497 H   0  0  0  0  0  0  0  0  0  0  0  0  # atno 6907 bound_to 6896
  151.9319  133.3608  159.3942 H   0  0  0  0  0  0  0  0  0  0  0  0  # atno 6908 bound_to 6896
  150.6976  134.4453  159.5355 H   0  0  0  0  0  0  0  0  0  0  0  0  # atno 6909 bound_to 6896
  145.5022  139.2276  143.2771 H   0  0  0  0  0  0  0  0  0  0  0  0  # atno 7974 bound_to 7965
  155.7743  140.3483  155.5263 H   0  0  0  0  0  0  0  0  0  0  0  0  # atno 8008 bound_to 7997
  155.8791  140.0999  157.1518 H   0  0  0  0  0  0  0  0  0  0  0  0  # atno 8009 bound_to 7997
  154.4023  140.1326  156.4161 H   0  0  0  0  0  0  0  0  0  0  0  0  # atno 8010 bound_to 7997
  140.0803  144.5077  150.7167 H   0  0  0  0  0  0  0  0  0  0  0  0  # atno 10167 bound_to 10162
  157.6722  130.9837  150.1690 H   0  0  0  0  0  0  0  0  0  0  0  0  # atno 10718 bound_to 10713
  153.2910  135.4143  155.1166 H   0  0  0  0  0  0  0  0  0  0  0  0  # atno 10763 bound_to 10752
  154.8520  135.3518  154.5982 H   0  0  0  0  0  0  0  0  0  0  0  0  # atno 10764 bound_to 10752
  153.6404  135.7057  153.5301 H   0  0  0  0  0  0  0  0  0  0  0  0  # atno 10765 bound_to 10752
  139.8920  134.9523  156.6540 H   0  0  0  0  0  0  0  0  0  0  0  0  # atno 11005 bound_to 11000
  146.2219  140.5824  142.9013 LP  0  0  0  0  0  0  0  0  0  0  0  0  # atno 17320 bound_to 7965
  144.7773  140.5767  143.6629 LP  0  0  0  0  0  0  0  0  0  0  0  0  # atno 17321 bound_to 7965
  140.7081  143.2483  151.4664 LP  0  0  0  0  0  0  0  0  0  0  0  0  # atno 17342 bound_to 10162
  139.5784  144.1767  152.1934 LP  0  0  0  0  0  0  0  0  0  0  0  0  # atno 17343 bound_to 10162
  156.2449  130.3694  149.8296 LP  0  0  0  0  0  0  0  0  0  0  0  0  # atno 17370 bound_to 10713
  156.6086  130.8577  151.3449 LP  0  0  0  0  0  0  0  0  0  0  0  0  # atno 17371 bound_to 10713
  140.7498  133.8907  155.8338 LP  0  0  0  0  0  0  0  0  0  0  0  0  # atno 17394 bound_to 11000
  141.0010  134.1150  157.4317 LP  0  0  0  0  0  0  0  0  0  0  0  0  # atno 17395 bound_to 11000

$$$$
