AV-unprocessed.smi:2021|AV-procd|sdf|8177|dock9
  -GOLD-   2272010423D 1   1.00000     0.00000
 Structure written by MMmdl.
 42 43  0  0  0  0  0  0  0  0  2 V2000
  143.8310  132.4744  149.5923 C   0  0  0  0  0  0  0  0  0  0  0  0
  145.2391  132.9867  149.9385 C   0  0  0  0  0  0  0  0  0  0  0  0
  146.2927  131.9170  149.6143 C   0  0  0  0  0  0  0  0  0  0  0  0
  145.3489  133.4241  151.4159 C   0  0  0  0  0  0  0  0  0  0  0  0
  144.3962  134.5085  151.7810 N   0  3  1  0  0  0  0  0  0  0  0  0
  144.1852  134.6428  153.2428 C   0  0  0  0  0  0  0  0  0  0  0  0
  145.3607  135.3816  153.9069 C   0  0  0  0  0  0  0  0  0  0  0  0
  145.5284  136.6504  153.2882 O   0  0  0  0  0  0  0  0  0  0  0  0
  145.8519  136.5516  151.9043 C   0  0  2  0  0  0  0  0  0  0  0  0
  146.0787  137.9676  151.3449 C   0  0  0  0  0  0  0  0  0  0  0  0
  147.2894  138.5782  151.8840 N   0  0  0  0  0  0  0  0  0  0  0  0
  147.4443  139.0054  153.1454 C   0  0  0  0  0  0  0  0  0  0  0  0
  146.5659  138.9184  154.0037 O   0  0  0  0  0  0  0  0  0  0  0  0
  148.6680  139.5297  153.3335 N   0  0  0  0  0  0  0  0  0  0  0  0
  149.2113  140.0964  154.5166 C   0  0  0  0  0  0  0  0  0  0  0  0
  150.5193  140.3405  154.6931 N   0  0  0  0  0  0  0  0  0  0  0  0
  150.7804  140.8947  155.9397 N   0  0  0  0  0  0  0  0  0  0  0  0
  149.6607  141.0470  156.6525 C   0  0  0  0  0  0  0  0  0  0  0  0
  148.1772  140.5300  155.8702 S   0  0  0  0  0  0  0  0  0  0  0  0
  144.6909  135.8349  151.1790 C   0  0  0  0  0  0  0  0  0  0  0  0
  143.5617  131.6107  150.2010 H   0  0  0  0  0  0  0  0  0  0  0  0
  143.7707  132.1733  148.5460 H   0  0  0  0  0  0  0  0  0  0  0  0
  143.0748  133.2434  149.7508 H   0  0  0  0  0  0  0  0  0  0  0  0
  145.4531  133.8381  149.2935 H   0  0  0  0  0  0  0  0  0  0  0  0
  146.1437  131.0177  150.2129 H   0  0  0  0  0  0  0  0  0  0  0  0
  147.3002  132.2847  149.8104 H   0  0  0  0  0  0  0  0  0  0  0  0
  146.2495  131.6275  148.5638 H   0  0  0  0  0  0  0  0  0  0  0  0
  145.1544  132.5510  152.0405 H   0  0  0  0  0  0  0  0  0  0  0  0
  146.3693  133.7308  151.6453 H   0  0  0  0  0  0  0  0  0  0  0  0
  143.2670  135.2087  153.4063 H   0  0  0  0  0  0  0  0  0  0  0  0
  144.0279  133.6669  153.7034 H   0  0  0  0  0  0  0  0  0  0  0  0
  145.1564  135.5331  154.9669 H   0  0  0  0  0  0  0  0  0  0  0  0
  146.2830  134.8028  153.8415 H   0  0  0  0  0  0  0  0  0  0  0  0
  146.7747  135.9817  151.7868 H   0  0  0  0  0  0  0  0  0  0  0  0
  146.1994  137.9181  150.2625 H   0  0  0  0  0  0  0  0  0  0  0  0
  145.2084  138.6006  151.5271 H   0  0  0  0  0  0  0  0  0  0  0  0
  148.0636  138.6916  151.2462 H   0  0  0  0  0  0  0  0  0  0  0  0
  149.2821  139.5334  152.5325 H   0  0  0  0  0  0  0  0  0  0  0  0
  149.7084  141.4668  157.6463 H   0  0  0  0  0  0  0  0  0  0  0  0
  144.8996  135.7462  150.1139 H   0  0  0  0  0  0  0  0  0  0  0  0
  143.7895  136.4442  151.2575 H   0  0  0  0  0  0  0  0  0  0  0  0
  143.5078  134.2116  151.4024 H   0  0  0  0  0  0  0  0  0  0  0  0
  1  2  1  0  0  0  0
  1 21  1  0  0  0  0
  1 22  1  0  0  0  0
  1 23  1  0  0  0  0
  2  3  1  0  0  0  0
  2  4  1  0  0  0  0
  2 24  1  0  0  0  0
  3 25  1  0  0  0  0
  3 26  1  0  0  0  0
  3 27  1  0  0  0  0
  4  5  1  0  0  0  0
  4 28  1  0  0  0  0
  4 29  1  0  0  0  0
  5 20  1  0  0  0  0
  5  6  1  0  0  0  0
  5 42  1  0  0  0  0
  6  7  1  0  0  0  0
  6 30  1  0  0  0  0
  6 31  1  0  0  0  0
  7  8  1  0  0  0  0
  7 32  1  0  0  0  0
  7 33  1  0  0  0  0
  8  9  1  0  0  0  0
  9 10  1  0  0  0  0
  9 20  1  0  0  0  0
  9 34  1  0  0  0  0
 10 11  1  0  0  0  0
 10 35  1  0  0  0  0
 10 36  1  0  0  0  0
 11 12  1  0  0  0  0
 11 37  1  0  0  0  0
 12 13  2  0  0  0  0
 12 14  1  0  0  0  0
 14 15  1  0  0  0  0
 14 38  1  0  0  0  0
 15 19  1  0  0  0  0
 15 16  2  0  0  0  0
 16 17  1  0  0  0  0
 17 18  2  0  0  0  0
 18 19  1  0  0  0  0
 18 39  1  0  0  0  0
 20 40  1  0  0  0  0
 20 41  1  0  0  0  0
M  CHG  1   5   1
M  END
> <s_m_source_file>
AV-unprocessed.smi

> <i_m_source_file_index>
2021

> <i_lp_mmshare_version>
43012

> <i_f3d_flags>
0

> <s_epik_input>
W0NIM11bQ0hdKFtDSDNdKVtDSDJdTjFbQ0gyXVtDSDJdT1tDQEhdKFtDSDJdMSlbQ0gyXVtOSF1DKD1PKVtOSF1jMm5uW2NIXXMy

> <s_epik_cmdline>
J2VwaWtfcHl0aG9uJywgJy1waCcsICc3LjAnLCAnLXRuJywgJzgnLCAnLW1hJywgJzIwMCcsICctbWV0YWxfYmluZGluZycsICctaW1hZScsICc8aW5maWxlLm1hZT4nLCAnLW9tYWUnLCAnPG91dGZpbGUubWFlPic=

> <r_lp_tautomer_probability>
1

> <r_epik_Ionization_Penalty>
0.102019

> <r_epik_Ionization_Penalty_Charging>
0.098413

> <r_epik_Ionization_Penalty_Neutral>
0.00360555

> <r_epik_State_Penalty>
0.0884988

> <r_epik_Charging_Adjusted_Penalty>
0.186912

> <i_epik_Tot_Q>
1

> <i_epik_Tot_abs_Q>
1

> <r_epik_Metal_State_Penalty>
0.454709

> <b_epik_Metal_Only>
0

> <s_lp_Force_Field>
OPLS_2005

> <r_lp_Energy>
19.4379

> <b_lp_Chiralities_Consistent>
1

> <s_lp_Variant>
AV-unprocessed.smi:2021-3

> <Gold.Version>
5.8.1

> <Gold.Id.Protein>
6NUR|6NUR_protein|mol2

> <Gold.PLP.Fitness>
36.9471

> <Gold.PLP.PLP>
-29.2510

> <Gold.PLP.part.hbond>
-3.7551

> <Gold.PLP.part.metal>
0.0000

> <Gold.PLP.part.buried>
0.9010

> <Gold.PLP.part.nonpolar>
-26.7618

> <Gold.PLP.part.repulsive>
0.6103

> <Gold.PLP.ligand.clash>
0.0000

> <Gold.PLP.ligand.torsion>
0.2421

> <Gold.PLP.Chemscore.Hbond>
2.6978

> <Gold.PLP.Chemscore.CHOScore>
0.0000

> <Gold.PLP.Chemscore.Metal>
0.0000

> <Gold.Chemscore.Hbonds>
donor molecule, donor type, donor heavy atom, donor atom, acceptor molecule, acceptor atom, score
      L1  H    11    37       P1  7957  0.69
      L1  H    14    38       P1  7957  0.90
      P1  H  7989  7998       L1    16  1.00

> <Gold.PLP.Chemscore.Internal.Correction>
0.0868

> <Gold.Rescore>
     Score         DG    S(hbond)    S(metal)    S(lipo)     H(rot)  DE(clash)    DE(int)     intcor
     13.01     -16.99       2.73        0.00      61.51       1.88       0.05       3.93       ----

> <Gold.Chemscore.Fitness>
13.0131

> <Gold.Chemscore.DG>
-16.9915

> <Gold.Chemscore.ZeroCoef>
-5.4800

> <Gold.Chemscore.Hbond>
2.7336

> <Gold.Chemscore.Metal>
0.0000

> <Gold.Chemscore.Lipo>
61.5140

> <Gold.Chemscore.Internal_Hbond>
0.0000

> <Gold.Chemscore.DEClash>
0.0518

> <Gold.Chemscore.DEInternal>
3.9266

> <Gold.Chemscore.Rot>
1.8812

> <Gold.Chemscore.Internal.Correction>
   9.000000E+99

> <Gold.Chemscore.Hbonds>
donor molecule, donor type, donor heavy atom, donor atom, acceptor molecule, acceptor atom, score
      L1  H    11    37       P1  7957  0.17
      L1  H    14    38       P1  7957  0.82
      P1  H  7989  7998       L1    16  0.81

> <Gold.Chemscore.Hbond.Weighted>
-9.1302

> <Gold.Chemscore.Metal.Weighted>
-0.0000

> <Gold.Chemscore.Lipo.Weighted>
-7.1971

> <Gold.Chemscore.Internal_Hbond.Weighted>
0.0000

> <Gold.Chemscore.DEClash.Weighted>
0.0518

> <Gold.Chemscore.DEInternal.Weighted>
3.9266

> <Gold.Chemscore.Rot.Weighted>
4.8159

> <Gold.Chemscore.Internal.Correction.Weighted>
   9.000000E+99

> <Gold.Protein.RotatedTorsions>
[ 6907 6896 6895 6894 ] final   67.96 input  -60.11 | X-H torsion
[ 7974 7965 7964 7962 ] final -127.22 input  175.53 | X-H torsion
[ 8008 7997 7996 7995 ] final  113.93 input   59.86 | X-H torsion
[ 10167 10162 10161 10158 ] final   -6.44 input  -65.29 | X-H torsion
[ 10718 10713 10712 10709 ] final  -57.13 input   66.30 | X-H torsion
[ 10763 10752 10751 10750 ] final  -19.09 input  -60.55 | X-H torsion
[ 11005 11000 10999 10996 ] final  -84.54 input  -57.11 | X-H torsion

> <Gold.Protein.ActiveResidues>
 VAL166  LYS551  ARG553  GLY616  TRP617  ASP618  TYR619  PRO620  LYS621  CYS622 
 ASP623  PHE694  ASN695  SER759  ASP760  ASP761  ALA762  ILE779  LEU786  VAL792 
 PHE793  MET794  SER795  GLU796  ALA797  LYS798  CYS799  TRP800  GLU811  SER814 

> <Gold.Protein.RotatedAtoms>
  152.4588  134.5231  159.9788 H   0  0  0  0  0  0  0  0  0  0  0  0  # atno 6907 bound_to 6896
  151.5285  133.3447  159.2922 H   0  0  0  0  0  0  0  0  0  0  0  0  # atno 6908 bound_to 6896
  150.8542  134.7906  159.7095 H   0  0  0  0  0  0  0  0  0  0  0  0  # atno 6909 bound_to 6896
  144.9793  140.7624  143.4622 H   0  0  0  0  0  0  0  0  0  0  0  0  # atno 7974 bound_to 7965
  156.2289  140.2969  156.0137 H   0  0  0  0  0  0  0  0  0  0  0  0  # atno 8008 bound_to 7997
  155.2280  140.0418  157.2975 H   0  0  0  0  0  0  0  0  0  0  0  0  # atno 8009 bound_to 7997
  154.5962  140.2415  155.7861 H   0  0  0  0  0  0  0  0  0  0  0  0  # atno 8010 bound_to 7997
  140.6997  143.6194  150.8627 H   0  0  0  0  0  0  0  0  0  0  0  0  # atno 10167 bound_to 10162
  156.1234  130.4164  150.0399 H   0  0  0  0  0  0  0  0  0  0  0  0  # atno 10718 bound_to 10713
  153.5994  135.7000  153.5390 H   0  0  0  0  0  0  0  0  0  0  0  0  # atno 10763 bound_to 10752
  153.3110  135.4101  155.1335 H   0  0  0  0  0  0  0  0  0  0  0  0  # atno 10764 bound_to 10752
  154.8585  135.3672  154.5529 H   0  0  0  0  0  0  0  0  0  0  0  0  # atno 10765 bound_to 10752
  141.1649  133.7351  156.8882 H   0  0  0  0  0  0  0  0  0  0  0  0  # atno 11005 bound_to 11000
  145.2444  139.2058  143.4975 LP  0  0  0  0  0  0  0  0  0  0  0  0  # atno 17320 bound_to 7965
  146.3404  140.2346  142.8594 LP  0  0  0  0  0  0  0  0  0  0  0  0  # atno 17321 bound_to 7965
  139.9915  143.5842  152.2908 LP  0  0  0  0  0  0  0  0  0  0  0  0  # atno 17342 bound_to 10162
  139.6499  144.7660  151.2169 LP  0  0  0  0  0  0  0  0  0  0  0  0  # atno 17343 bound_to 10162
  156.8331  130.9399  151.3636 LP  0  0  0  0  0  0  0  0  0  0  0  0  # atno 17370 bound_to 10713
  157.6417  130.8811  149.9460 LP  0  0  0  0  0  0  0  0  0  0  0  0  # atno 17371 bound_to 10713
  140.1667  134.9128  157.2782 LP  0  0  0  0  0  0  0  0  0  0  0  0  # atno 17394 bound_to 11000
  140.2549  134.3639  155.7428 LP  0  0  0  0  0  0  0  0  0  0  0  0  # atno 17395 bound_to 11000

$$$$
