AV-unprocessed.smi:86|AV-procd|sdf|818|dock3
  -GOLD-   2262017223D 1   1.00000     0.00000
 Structure written by MMmdl.
 51 55  0  0  0  0  0  0  0  0  1 V2000
  145.0702  138.0685  152.1344 O   0  0  0  0  0  0  0  0  0  0  0  0
  145.5275  137.2739  153.2099 C   0  0  0  0  0  0  0  0  0  0  0  0
  146.4606  138.0701  154.1384 C   0  0  0  0  0  0  0  0  0  0  0  0
  147.4578  138.9051  153.3090 C   0  0  0  0  0  0  0  0  0  0  0  0
  148.5542  139.4535  154.0933 N   0  0  0  0  0  0  0  0  0  0  0  0
  149.8879  139.1302  153.9832 C   0  0  0  0  0  0  0  0  0  0  0  0
  150.6840  139.7633  154.8001 N   0  0  0  0  0  0  0  0  0  0  0  0
  149.8357  140.5789  155.5387 C   0  0  0  0  0  0  0  0  0  0  0  0
  150.0222  141.5230  156.5880 C   0  0  0  0  0  0  0  0  0  0  0  0
  151.2098  141.8528  157.1367 N   0  0  0  0  0  0  0  0  0  0  0  0
  151.3252  141.7327  158.5821 C   0  0  0  0  0  0  0  0  0  0  0  0
  152.5552  142.5697  158.9214 C   0  0  2  0  0  0  0  0  0  0  0  0
  152.7488  142.9321  160.4072 C   0  0  0  0  0  0  0  0  0  0  0  0
  151.8164  144.0552  160.8814 C   0  0  0  0  0  0  0  0  0  0  0  0
  151.9407  145.2815  159.9659 C   0  0  2  0  0  0  0  0  0  0  0  0
  151.0832  146.3024  160.4312 O   0  0  0  0  0  0  0  0  0  0  0  0
  151.5559  144.9104  158.5272 C   0  0  0  0  0  0  0  0  0  0  0  0
  152.4246  143.7649  157.9618 C   0  0  2  0  0  0  0  0  0  0  0  0
  151.7715  143.1340  156.7171 C   0  0  0  0  0  0  0  0  0  0  0  0
  148.9255  142.1373  157.0938 N   0  0  0  0  0  0  0  0  0  0  0  0
  147.7156  141.8562  156.6016 C   0  0  0  0  0  0  0  0  0  0  0  0
  147.3882  141.0082  155.6242 N   0  0  0  0  0  0  0  0  0  0  0  0
  148.4903  140.3859  155.1156 C   0  0  0  0  0  0  0  0  0  0  0  0
  145.7579  138.8028  155.2896 C   0  0  0  0  0  0  0  0  0  0  0  0
  146.1200  137.7773  156.2388 O   0  0  0  0  0  0  0  0  0  0  0  0
  147.0637  137.2460  155.2854 C   0  0  0  0  0  0  0  0  0  0  0  0
  144.6394  138.8325  152.4863 H   0  0  0  0  0  0  0  0  0  0  0  0
  144.6525  136.9203  153.7563 H   0  0  0  0  0  0  0  0  0  0  0  0
  146.0159  136.3834  152.8148 H   0  0  0  0  0  0  0  0  0  0  0  0
  147.8752  138.3178  152.4906 H   0  0  0  0  0  0  0  0  0  0  0  0
  146.9463  139.7422  152.8319 H   0  0  0  0  0  0  0  0  0  0  0  0
  150.2572  138.4052  153.2728 H   0  0  0  0  0  0  0  0  0  0  0  0
  150.4391  142.1186  159.0854 H   0  0  0  0  0  0  0  0  0  0  0  0
  151.4555  140.6912  158.8772 H   0  0  0  0  0  0  0  0  0  0  0  0
  153.4252  141.9875  158.6116 H   0  0  0  0  0  0  0  0  0  0  0  0
  152.6193  142.0462  161.0294 H   0  0  0  0  0  0  0  0  0  0  0  0
  153.7799  143.2560  160.5535 H   0  0  0  0  0  0  0  0  0  0  0  0
  150.7853  143.6989  160.8939 H   0  0  0  0  0  0  0  0  0  0  0  0
  152.0632  144.3259  161.9087 H   0  0  0  0  0  0  0  0  0  0  0  0
  152.9631  145.6605  159.9901 H   0  0  0  0  0  0  0  0  0  0  0  0
  151.0965  146.2977  161.3761 H   0  0  0  0  0  0  0  0  0  0  0  0
  150.5064  144.6186  158.5124 H   0  0  0  0  0  0  0  0  0  0  0  0
  151.6362  145.7835  157.8785 H   0  0  0  0  0  0  0  0  0  0  0  0
  153.4123  144.1612  157.7228 H   0  0  0  0  0  0  0  0  0  0  0  0
  152.5262  142.9376  155.9551 H   0  0  0  0  0  0  0  0  0  0  0  0
  151.0236  143.7916  156.2706 H   0  0  0  0  0  0  0  0  0  0  0  0
  146.8918  142.3873  157.0554 H   0  0  0  0  0  0  0  0  0  0  0  0
  146.2058  139.7648  155.5432 H   0  0  0  0  0  0  0  0  0  0  0  0
  144.6785  138.8978  155.1664 H   0  0  0  0  0  0  0  0  0  0  0  0
  146.9708  136.1669  155.1561 H   0  0  0  0  0  0  0  0  0  0  0  0
  148.0870  137.5202  155.5446 H   0  0  0  0  0  0  0  0  0  0  0  0
  1  2  1  0  0  0  0
  1 27  1  0  0  0  0
  2  3  1  0  0  0  0
  2 28  1  0  0  0  0
  2 29  1  0  0  0  0
  3 26  1  0  0  0  0
  3  4  1  0  0  0  0
  3 24  1  0  0  0  0
  4  5  1  0  0  0  0
  4 30  1  0  0  0  0
  4 31  1  0  0  0  0
  5 23  1  0  0  0  0
  5  6  1  0  0  0  0
  6  7  2  0  0  0  0
  6 32  1  0  0  0  0
  7  8  1  0  0  0  0
  8 23  2  0  0  0  0
  8  9  1  0  0  0  0
  9 10  1  0  0  0  0
  9 20  2  0  0  0  0
 10 19  1  0  0  0  0
 10 11  1  0  0  0  0
 11 12  1  0  0  0  0
 11 33  1  0  0  0  0
 11 34  1  0  0  0  0
 12 18  1  0  0  0  0
 12 13  1  0  0  0  0
 12 35  1  0  0  0  0
 13 14  1  0  0  0  0
 13 36  1  0  0  0  0
 13 37  1  0  0  0  0
 14 15  1  0  0  0  0
 14 38  1  0  0  0  0
 14 39  1  0  0  0  0
 15 16  1  0  0  0  0
 15 17  1  0  0  0  0
 15 40  1  0  0  0  0
 16 41  1  0  0  0  0
 17 18  1  0  0  0  0
 17 42  1  0  0  0  0
 17 43  1  0  0  0  0
 18 19  1  0  0  0  0
 18 44  1  0  0  0  0
 19 45  1  0  0  0  0
 19 46  1  0  0  0  0
 20 21  1  0  0  0  0
 21 22  2  0  0  0  0
 21 47  1  0  0  0  0
 22 23  1  0  0  0  0
 24 25  1  0  0  0  0
 24 48  1  0  0  0  0
 24 49  1  0  0  0  0
 25 26  1  0  0  0  0
 26 50  1  0  0  0  0
 26 51  1  0  0  0  0
M  END
> <s_m_source_file>
AV-unprocessed.smi

> <i_m_source_file_index>
86

> <i_lp_mmshare_version>
43012

> <i_f3d_flags>
0

> <s_epik_input>
W0NIMl0xT1tDSDJdQzEoW0NIMl1bT0hdKVtDSDJdbihbY0hdbjIpYyhjMjMpbltjSF1uYzNOKFtDSDJdNClbQ0gyXVtDQEBIXShbQ0BIXTQ1KVtDSDJdW0NASF0oW09IXSlbQ0gyXVtDSDJdNQ==

> <s_epik_cmdline>
J2VwaWtfcHl0aG9uJywgJy1waCcsICc3LjAnLCAnLXRuJywgJzgnLCAnLW1hJywgJzIwMCcsICctbWV0YWxfYmluZGluZycsICctaW1hZScsICc8aW5maWxlLm1hZT4nLCAnLW9tYWUnLCAnPG91dGZpbGUubWFlPic=

> <r_lp_tautomer_probability>
1

> <r_epik_Ionization_Penalty>
0.00425795

> <r_epik_Ionization_Penalty_Charging>
0

> <r_epik_Ionization_Penalty_Neutral>
0.00425795

> <r_epik_State_Penalty>
0.00299946

> <r_epik_Charging_Adjusted_Penalty>
0.00299946

> <i_epik_Tot_Q>
0

> <i_epik_Tot_abs_Q>
0

> <r_epik_Metal_State_Penalty>
-0

> <b_epik_Metal_Only>
0

> <s_lp_Force_Field>
OPLS_2005

> <r_lp_Energy>
56.4675

> <b_lp_Chiralities_Consistent>
1

> <s_lp_Variant>
AV-unprocessed.smi:86-7

> <Gold.Version>
5.8.1

> <Gold.Id.Protein>
6NUR|6NUR_protein|mol2

> <Gold.PLP.Fitness>
49.0720

> <Gold.PLP.PLP>
-42.6629

> <Gold.PLP.part.hbond>
-5.0448

> <Gold.PLP.part.metal>
0.0000

> <Gold.PLP.part.buried>
-4.8221

> <Gold.PLP.part.nonpolar>
-33.9486

> <Gold.PLP.part.repulsive>
0.4987

> <Gold.PLP.ligand.clash>
0.0000

> <Gold.PLP.ligand.torsion>
0.7262

> <Gold.PLP.Chemscore.Hbond>
1.9920

> <Gold.PLP.Chemscore.CHOScore>
0.4748

> <Gold.PLP.Chemscore.Metal>
0.0000

> <Gold.Chemscore.Hbonds>
donor molecule, donor type, donor heavy atom, donor atom, acceptor molecule, acceptor atom, score
      L1  H     1    27       P1 10175  1.00
      P1  H  7989  7998       L1     7  0.95
      L1  C     6    32       P1  7948  0.20
      L1  C     6    32       P1  7957  0.13

> <Gold.PLP.Chemscore.Internal.Correction>
0.4611

> <Gold.Rescore>
     Score         DG    S(hbond)    S(metal)    S(lipo)     H(rot)  DE(clash)    DE(int)     intcor
      8.99     -15.14       1.56        0.00     105.74       3.09       4.02       2.13       ----

> <Gold.Chemscore.Fitness>
8.9901

> <Gold.Chemscore.DG>
-15.1398

> <Gold.Chemscore.ZeroCoef>
-5.4800

> <Gold.Chemscore.Hbond>
1.5560

> <Gold.Chemscore.Metal>
0.0000

> <Gold.Chemscore.Lipo>
105.7352

> <Gold.Chemscore.Internal_Hbond>
0.0000

> <Gold.Chemscore.DEClash>
4.0173

> <Gold.Chemscore.DEInternal>
2.1324

> <Gold.Chemscore.Rot>
3.0892

> <Gold.Chemscore.Internal.Correction>
   9.000000E+99

> <Gold.Chemscore.Hbonds>
donor molecule, donor type, donor heavy atom, donor atom, acceptor molecule, acceptor atom, score
      L1  H     1    27       P1 10175  0.99
      P1  H  7989  7998       L1     7  0.15

> <Gold.Chemscore.Hbond.Weighted>
-5.1971

> <Gold.Chemscore.Metal.Weighted>
-0.0000

> <Gold.Chemscore.Lipo.Weighted>
-12.3710

> <Gold.Chemscore.Internal_Hbond.Weighted>
0.0000

> <Gold.Chemscore.DEClash.Weighted>
4.0173

> <Gold.Chemscore.DEInternal.Weighted>
2.1324

> <Gold.Chemscore.Rot.Weighted>
7.9083

> <Gold.Chemscore.Internal.Correction.Weighted>
   9.000000E+99

> <Gold.Protein.RotatedTorsions>
[ 6907 6896 6895 6894 ] final  -51.18 input  -60.11 | X-H torsion
[ 7974 7965 7964 7962 ] final   36.76 input  175.53 | X-H torsion
[ 8008 7997 7996 7995 ] final   38.41 input   59.86 | X-H torsion
[ 10167 10162 10161 10158 ] final  121.46 input  -65.29 | X-H torsion
[ 10718 10713 10712 10709 ] final -116.59 input   66.30 | X-H torsion
[ 10763 10752 10751 10750 ] final  138.85 input  -60.55 | X-H torsion
[ 11005 11000 10999 10996 ] final  -34.52 input  -57.11 | X-H torsion

> <Gold.Protein.ActiveResidues>
 VAL166  LYS551  ARG553  GLY616  TRP617  ASP618  TYR619  PRO620  LYS621  CYS622 
 ASP623  PHE694  ASN695  SER759  ASP760  ASP761  ALA762  ILE779  LEU786  VAL792 
 PHE793  MET794  SER795  GLU796  ALA797  LYS798  CYS799  TRP800  GLU811  SER814 

> <Gold.Protein.RotatedAtoms>
  150.8636  134.7994  159.7101 H   0  0  0  0  0  0  0  0  0  0  0  0  # atno 6907 bound_to 6896
  152.4665  134.5060  159.9749 H   0  0  0  0  0  0  0  0  0  0  0  0  # atno 6908 bound_to 6896
  151.5160  133.3437  159.2928 H   0  0  0  0  0  0  0  0  0  0  0  0  # atno 6909 bound_to 6896
  146.1187  139.5977  142.9304 H   0  0  0  0  0  0  0  0  0  0  0  0  # atno 7974 bound_to 7965
  155.2197  140.3330  155.4317 H   0  0  0  0  0  0  0  0  0  0  0  0  # atno 8008 bound_to 7997
  156.2338  140.1863  156.7220 H   0  0  0  0  0  0  0  0  0  0  0  0  # atno 8009 bound_to 7997
  154.6024  140.0621  156.9371 H   0  0  0  0  0  0  0  0  0  0  0  0  # atno 8010 bound_to 7997
  139.5918  144.7028  151.3271 H   0  0  0  0  0  0  0  0  0  0  0  0  # atno 10167 bound_to 10162
  156.0974  130.6143  150.9055 H   0  0  0  0  0  0  0  0  0  0  0  0  # atno 10718 bound_to 10713
  153.8964  135.3027  155.3448 H   0  0  0  0  0  0  0  0  0  0  0  0  # atno 10763 bound_to 10752
  154.7691  135.4895  153.9617 H   0  0  0  0  0  0  0  0  0  0  0  0  # atno 10764 bound_to 10752
  153.1269  135.6795  153.9342 H   0  0  0  0  0  0  0  0  0  0  0  0  # atno 10765 bound_to 10752
  140.9722  133.7103  156.1543 H   0  0  0  0  0  0  0  0  0  0  0  0  # atno 11005 bound_to 11000
  145.5511  141.0413  143.2278 LP  0  0  0  0  0  0  0  0  0  0  0  0  # atno 17320 bound_to 7965
  144.7577  139.7033  143.7247 LP  0  0  0  0  0  0  0  0  0  0  0  0  # atno 17321 bound_to 7965
  140.7179  143.7215  150.7692 LP  0  0  0  0  0  0  0  0  0  0  0  0  # atno 17342 bound_to 10162
  140.0773  143.5003  152.2549 LP  0  0  0  0  0  0  0  0  0  0  0  0  # atno 17343 bound_to 10162
  157.6137  131.0934  150.8748 LP  0  0  0  0  0  0  0  0  0  0  0  0  # atno 17370 bound_to 10713
  156.8883  130.5204  149.5287 LP  0  0  0  0  0  0  0  0  0  0  0  0  # atno 17371 bound_to 10713
  140.7311  134.4253  157.5565 LP  0  0  0  0  0  0  0  0  0  0  0  0  # atno 17394 bound_to 11000
  139.8917  134.8774  156.2308 LP  0  0  0  0  0  0  0  0  0  0  0  0  # atno 17395 bound_to 11000

$$$$
