AV-unprocessed.smi:1705|AV-procd|sdf|6882|dock7
  -GOLD-   22720 8 83D 1   1.00000     0.00000
 Structure written by MMmdl.
 38 39  0  0  0  0  0  0  0  0  1 V2000
  148.1931  139.9071  157.2122 C   0  0  0  0  0  0  0  0  0  0  0  0
  149.2862  140.4160  156.2598 C   0  0  2  0  0  0  0  0  0  0  0  0
  150.0319  141.4913  156.8967 N   0  0  0  0  0  0  0  0  0  0  0  0
  151.0854  141.3518  157.7948 C   0  0  0  0  0  0  0  0  0  0  0  0
  151.5413  140.1281  158.1850 C   0  0  0  0  0  0  0  0  0  0  0  0
  150.9647  138.8938  157.7537 C   0  0  0  0  0  0  0  0  0  0  0  0
  150.4856  137.8890  157.4338 N   0  0  0  0  0  0  0  0  0  0  0  0
  152.6549  139.9782  159.1194 C   0  0  0  0  0  0  0  0  0  0  0  0
  153.0984  138.8888  159.4906 O   0  0  0  0  0  0  0  0  0  0  0  0
  153.2098  141.1899  159.5779 N   0  0  0  0  0  0  0  0  0  0  0  0
  154.3272  141.0785  160.4950 C   0  0  0  0  0  0  0  0  0  0  0  0
  152.7605  142.4687  159.1880 C   0  0  0  0  0  0  0  0  0  0  0  0
  153.2970  143.5002  159.6036 O   0  0  0  0  0  0  0  0  0  0  0  0
  151.6656  142.5235  158.2906 N   0  0  0  0  0  0  0  0  0  0  0  0
  151.2558  143.8640  157.9220 C   0  0  0  0  0  0  0  0  0  0  0  0
  148.7087  140.9152  154.9226 C   0  0  2  0  0  0  0  0  0  0  0  0
  147.5872  141.9451  155.0505 C   0  0  0  0  0  0  0  0  0  0  0  0
  146.8376  141.8075  153.7363 C   0  0  0  0  0  0  0  0  0  0  0  0
  147.2348  140.4186  153.2276 C   0  0  0  0  0  0  0  0  0  0  0  0
  148.0432  139.8552  154.2520 O   0  0  0  0  0  0  0  0  0  0  0  0
  147.6724  139.0450  156.7954 H   0  0  0  0  0  0  0  0  0  0  0  0
  147.4511  140.6810  157.4115 H   0  0  0  0  0  0  0  0  0  0  0  0
  148.6126  139.5997  158.1700 H   0  0  0  0  0  0  0  0  0  0  0  0
  149.9649  139.5927  156.0393 H   0  0  0  0  0  0  0  0  0  0  0  0
  150.1155  142.2963  156.2927 H   0  0  0  0  0  0  0  0  0  0  0  0
  154.6310  142.0522  160.8771 H   0  0  0  0  0  0  0  0  0  0  0  0
  155.1484  140.6173  159.9438 H   0  0  0  0  0  0  0  0  0  0  0  0
  154.0066  140.4523  161.3296 H   0  0  0  0  0  0  0  0  0  0  0  0
  152.0728  144.3047  157.3482 H   0  0  0  0  0  0  0  0  0  0  0  0
  151.0575  144.4191  158.8410 H   0  0  0  0  0  0  0  0  0  0  0  0
  150.3489  143.8390  157.3223 H   0  0  0  0  0  0  0  0  0  0  0  0
  149.5009  141.3038  154.2793 H   0  0  0  0  0  0  0  0  0  0  0  0
  146.9273  141.6805  155.8780 H   0  0  0  0  0  0  0  0  0  0  0  0
  147.9564  142.9565  155.2219 H   0  0  0  0  0  0  0  0  0  0  0  0
  145.7608  141.9022  153.8792 H   0  0  0  0  0  0  0  0  0  0  0  0
  147.1515  142.5739  153.0266 H   0  0  0  0  0  0  0  0  0  0  0  0
  146.3702  139.7848  153.0295 H   0  0  0  0  0  0  0  0  0  0  0  0
  147.8171  140.4974  152.3085 H   0  0  0  0  0  0  0  0  0  0  0  0
  1  2  1  0  0  0  0
  1 21  1  0  0  0  0
  1 22  1  0  0  0  0
  1 23  1  0  0  0  0
  2  3  1  0  0  0  0
  2 16  1  0  0  0  0
  2 24  1  0  0  0  0
  3  4  1  0  0  0  0
  3 25  1  0  0  0  0
  4 14  1  0  0  0  0
  4  5  2  0  0  0  0
  5  6  1  0  0  0  0
  5  8  1  0  0  0  0
  6  7  3  0  0  0  0
  8  9  2  0  0  0  0
  8 10  1  0  0  0  0
 10 11  1  0  0  0  0
 10 12  1  0  0  0  0
 11 26  1  0  0  0  0
 11 27  1  0  0  0  0
 11 28  1  0  0  0  0
 12 13  2  0  0  0  0
 12 14  1  0  0  0  0
 14 15  1  0  0  0  0
 15 29  1  0  0  0  0
 15 30  1  0  0  0  0
 15 31  1  0  0  0  0
 16 20  1  0  0  0  0
 16 17  1  0  0  0  0
 16 32  1  0  0  0  0
 17 18  1  0  0  0  0
 17 33  1  0  0  0  0
 17 34  1  0  0  0  0
 18 19  1  0  0  0  0
 18 35  1  0  0  0  0
 18 36  1  0  0  0  0
 19 20  1  0  0  0  0
 19 37  1  0  0  0  0
 19 38  1  0  0  0  0
M  END
> <s_m_source_file>
AV-unprocessed.smi

> <i_m_source_file_index>
1705

> <i_lp_mmshare_version>
43012

> <i_f3d_flags>
0

> <s_epik_input>
TzFbQ0gyXVtDSDJdW0NIMl1bQ0BIXTFbQ0BIXShbQ0gzXSlbTkhdYzJjKEMjTiljKD1PKW4oW0NIM10pYyg9TyluMltDSDNd

> <s_epik_cmdline>
J2VwaWtfcHl0aG9uJywgJy1waCcsICc3LjAnLCAnLXRuJywgJzgnLCAnLW1hJywgJzIwMCcsICctbWV0YWxfYmluZGluZycsICctaW1hZScsICc8aW5maWxlLm1hZT4nLCAnLW9tYWUnLCAnPG91dGZpbGUubWFlPic=

> <r_epik_Ionization_Penalty>
0.000446268

> <r_epik_Ionization_Penalty_Charging>
9.41922e-10

> <r_epik_Ionization_Penalty_Neutral>
0.000446267

> <r_epik_State_Penalty>
0.000275531

> <r_epik_Charging_Adjusted_Penalty>
0.000275532

> <i_epik_Tot_Q>
0

> <i_epik_Tot_abs_Q>
0

> <r_epik_Metal_State_Penalty>
-0

> <b_epik_Metal_Only>
0

> <s_lp_Force_Field>
OPLS_2005

> <r_lp_Energy>
37.8394

> <b_lp_Chiralities_Consistent>
1

> <s_lp_Variant>
AV-unprocessed.smi:1705-1

> <Gold.Version>
5.8.1

> <Gold.Id.Protein>
6NUR|6NUR_protein|mol2

> <Gold.PLP.Fitness>
32.4326

> <Gold.PLP.PLP>
-33.1681

> <Gold.PLP.part.hbond>
0.0000

> <Gold.PLP.part.metal>
0.0000

> <Gold.PLP.part.buried>
-4.2652

> <Gold.PLP.part.nonpolar>
-29.6128

> <Gold.PLP.part.repulsive>
0.1367

> <Gold.PLP.ligand.clash>
9.0766

> <Gold.PLP.ligand.torsion>
0.3824

> <Gold.PLP.Chemscore.Hbond>
0.0000

> <Gold.PLP.Chemscore.CHOScore>
0.0000

> <Gold.PLP.Chemscore.Metal>
0.0000

> <Gold.PLP.Chemscore.Internal.Correction>
9.1059

> <Gold.Rescore>
     Score         DG    S(hbond)    S(metal)    S(lipo)     H(rot)  DE(clash)    DE(int)     intcor
      6.20      -9.07       0.00        0.00      58.69       1.28       0.08       2.80       ----

> <Gold.Chemscore.Fitness>
6.1987

> <Gold.Chemscore.DG>
-9.0747

> <Gold.Chemscore.ZeroCoef>
-5.4800

> <Gold.Chemscore.Hbond>
0.0000

> <Gold.Chemscore.Metal>
0.0000

> <Gold.Chemscore.Lipo>
58.6872

> <Gold.Chemscore.Internal_Hbond>
0.0000

> <Gold.Chemscore.DEClash>
0.0804

> <Gold.Chemscore.DEInternal>
2.7957

> <Gold.Chemscore.Rot>
1.2780

> <Gold.Chemscore.Internal.Correction>
   9.000000E+99

> <Gold.Chemscore.Hbond.Weighted>
-0.0000

> <Gold.Chemscore.Metal.Weighted>
-0.0000

> <Gold.Chemscore.Lipo.Weighted>
-6.8664

> <Gold.Chemscore.Internal_Hbond.Weighted>
0.0000

> <Gold.Chemscore.DEClash.Weighted>
0.0804

> <Gold.Chemscore.DEInternal.Weighted>
2.7957

> <Gold.Chemscore.Rot.Weighted>
3.2717

> <Gold.Chemscore.Internal.Correction.Weighted>
   9.000000E+99

> <Gold.Protein.RotatedTorsions>
[ 6907 6896 6895 6894 ] final -108.96 input  -60.11 | X-H torsion
[ 7974 7965 7964 7962 ] final -134.12 input  175.53 | X-H torsion
[ 8008 7997 7996 7995 ] final  -12.06 input   59.86 | X-H torsion
[ 10167 10162 10161 10158 ] final  107.60 input  -65.29 | X-H torsion
[ 10718 10713 10712 10709 ] final  101.73 input   66.30 | X-H torsion
[ 10763 10752 10751 10750 ] final  -58.49 input  -60.55 | X-H torsion
[ 11005 11000 10999 10996 ] final  152.12 input  -57.11 | X-H torsion

> <Gold.Protein.ActiveResidues>
 VAL166  LYS551  ARG553  GLY616  TRP617  ASP618  TYR619  PRO620  LYS621  CYS622 
 ASP623  PHE694  ASN695  SER759  ASP760  ASP761  ALA762  ILE779  LEU786  VAL792 
 PHE793  MET794  SER795  GLU796  ALA797  LYS798  CYS799  TRP800  GLU811  SER814 

> <Gold.Protein.RotatedAtoms>
  150.7533  133.9600  159.3512 H   0  0  0  0  0  0  0  0  0  0  0  0  # atno 6907 bound_to 6896
  151.7525  135.0827  160.0342 H   0  0  0  0  0  0  0  0  0  0  0  0  # atno 6908 bound_to 6896
  152.3457  133.6082  159.5944 H   0  0  0  0  0  0  0  0  0  0  0  0  # atno 6909 bound_to 6896
  144.9131  140.6920  143.5012 H   0  0  0  0  0  0  0  0  0  0  0  0  # atno 7974 bound_to 7965
  154.5410  140.2286  155.8641 H   0  0  0  0  0  0  0  0  0  0  0  0  # atno 8008 bound_to 7997
  156.1858  140.3089  155.9198 H   0  0  0  0  0  0  0  0  0  0  0  0  # atno 8009 bound_to 7997
  155.3258  140.0443  157.3031 H   0  0  0  0  0  0  0  0  0  0  0  0  # atno 8010 bound_to 7997
  139.6914  144.7107  151.1342 H   0  0  0  0  0  0  0  0  0  0  0  0  # atno 10167 bound_to 10162
  157.6821  131.0734  150.5296 H   0  0  0  0  0  0  0  0  0  0  0  0  # atno 10718 bound_to 10713
  154.2389  135.6347  153.5200 H   0  0  0  0  0  0  0  0  0  0  0  0  # atno 10763 bound_to 10752
  152.9934  135.5537  154.5932 H   0  0  0  0  0  0  0  0  0  0  0  0  # atno 10764 bound_to 10752
  154.5433  135.2896  155.1050 H   0  0  0  0  0  0  0  0  0  0  0  0  # atno 10765 bound_to 10752
  140.1280  134.8821  157.2164 H   0  0  0  0  0  0  0  0  0  0  0  0  # atno 11005 bound_to 11000
  145.3421  139.1729  143.4480 LP  0  0  0  0  0  0  0  0  0  0  0  0  # atno 17320 bound_to 7965
  146.3168  140.3463  142.8652 LP  0  0  0  0  0  0  0  0  0  0  0  0  # atno 17321 bound_to 7965
  140.7683  143.5554  150.9157 LP  0  0  0  0  0  0  0  0  0  0  0  0  # atno 17342 bound_to 10162
  139.9232  143.6581  152.3092 LP  0  0  0  0  0  0  0  0  0  0  0  0  # atno 17343 bound_to 10162
  156.5607  130.4255  149.6064 LP  0  0  0  0  0  0  0  0  0  0  0  0  # atno 17370 bound_to 10713
  156.2824  130.7078  151.1906 LP  0  0  0  0  0  0  0  0  0  0  0  0  # atno 17371 bound_to 10713
  140.2879  134.3274  155.7323 LP  0  0  0  0  0  0  0  0  0  0  0  0  # atno 17394 bound_to 11000
  141.2165  133.7517  156.9460 LP  0  0  0  0  0  0  0  0  0  0  0  0  # atno 17395 bound_to 11000

$$$$
