AV-unprocessed.smi:3298|AV-procd|sdf|12640|dock7
  -GOLD-   2272018573D 1   1.00000     0.00000
 Structure written by MMmdl.
 35 36  0  0  0  0  0  0  0  0  1 V2000
  152.1695  139.4580  155.7427 C   0  0  0  0  0  0  0  0  0  0  0  0
  150.8039  139.7916  155.1793 C   0  0  0  0  0  0  0  0  0  0  0  0
  150.0552  138.8211  154.4812 C   0  0  0  0  0  0  0  0  0  0  0  0
  148.7903  139.1762  153.9685 C   0  0  0  0  0  0  0  0  0  0  0  0
  148.0531  138.1745  153.2805 N   0  0  0  0  0  0  0  0  0  0  0  0
  146.7208  138.0116  153.2027 C   0  0  0  0  0  0  0  0  0  0  0  0
  145.8787  138.7404  153.7270 O   0  0  0  0  0  0  0  0  0  0  0  0
  146.4071  136.9476  152.4499 N   0  0  0  0  0  0  0  0  0  0  0  0
  145.0482  136.5125  152.1476 C   0  0  2  0  0  0  0  0  0  0  0  0
  144.5630  135.5397  153.1871 C   0  0  0  0  0  0  0  0  0  0  0  0
  144.1602  134.3849  152.6623 C   0  0  0  0  0  0  0  0  0  0  0  0
  144.2993  134.3436  151.1617 C   0  0  2  0  0  0  0  0  0  0  0  0
  145.1207  133.1393  150.6695 C   0  0  0  0  0  0  0  0  0  0  0  0
  145.0312  133.0168  149.2654 O   0  0  0  0  0  0  0  0  0  0  0  0
  144.9550  135.7071  150.8245 C   0  0  0  0  0  0  0  0  0  0  0  0
  148.3215  140.4913  154.2031 C   0  0  0  0  0  0  0  0  0  0  0  0
  149.1474  141.3839  154.9150 C   0  0  0  0  0  0  0  0  0  0  0  0
  150.3643  141.0502  155.3942 N   0  0  0  0  0  0  0  0  0  0  0  0
  144.3701  137.3675  152.1334 H   0  0  0  0  0  0  0  0  0  0  0  0
  143.2970  134.3058  150.7326 H   0  0  0  0  0  0  0  0  0  0  0  0
  152.5924  138.5818  155.2506 H   0  0  0  0  0  0  0  0  0  0  0  0
  152.0953  139.2495  156.8101 H   0  0  0  0  0  0  0  0  0  0  0  0
  152.8602  140.2900  155.6014 H   0  0  0  0  0  0  0  0  0  0  0  0
  150.4474  137.8247  154.3380 H   0  0  0  0  0  0  0  0  0  0  0  0
  148.6079  137.5339  152.7320 H   0  0  0  0  0  0  0  0  0  0  0  0
  147.1589  136.4045  152.0513 H   0  0  0  0  0  0  0  0  0  0  0  0
  144.5395  135.7845  154.2389 H   0  0  0  0  0  0  0  0  0  0  0  0
  143.7626  133.5534  153.2254 H   0  0  0  0  0  0  0  0  0  0  0  0
  146.1701  133.2623  150.9389 H   0  0  0  0  0  0  0  0  0  0  0  0
  144.7735  132.2153  151.1334 H   0  0  0  0  0  0  0  0  0  0  0  0
  145.5537  133.6978  148.8698 H   0  0  0  0  0  0  0  0  0  0  0  0
  144.3669  136.2488  150.0827 H   0  0  0  0  0  0  0  0  0  0  0  0
  145.9438  135.5584  150.3871 H   0  0  0  0  0  0  0  0  0  0  0  0
  147.3531  140.8283  153.8680 H   0  0  0  0  0  0  0  0  0  0  0  0
  148.8176  142.3934  155.1102 H   0  0  0  0  0  0  0  0  0  0  0  0
  1  2  1  0  0  0  0
  1 21  1  0  0  0  0
  1 22  1  0  0  0  0
  1 23  1  0  0  0  0
  2 18  1  0  0  0  0
  2  3  2  0  0  0  0
  3  4  1  0  0  0  0
  3 24  1  0  0  0  0
  4  5  1  0  0  0  0
  4 16  2  0  0  0  0
  5  6  1  0  0  0  0
  5 25  1  0  0  0  0
  6  7  2  0  0  0  0
  6  8  1  0  0  0  0
  8  9  1  0  0  0  0
  8 26  1  0  0  0  0
  9 19  1  0  0  0  0
  9 15  1  0  0  0  0
  9 10  1  0  0  0  0
 10 11  2  0  0  0  0
 10 27  1  0  0  0  0
 11 12  1  0  0  0  0
 11 28  1  0  0  0  0
 12 20  1  0  0  0  0
 12 13  1  0  0  0  0
 12 15  1  0  0  0  0
 13 14  1  0  0  0  0
 13 29  1  0  0  0  0
 13 30  1  0  0  0  0
 14 31  1  0  0  0  0
 15 32  1  0  0  0  0
 15 33  1  0  0  0  0
 16 17  1  0  0  0  0
 16 34  1  0  0  0  0
 17 18  2  0  0  0  0
 17 35  1  0  0  0  0
M  END
> <s_m_source_file>
AV-unprocessed.smi

> <i_m_source_file_index>
3298

> <i_lp_mmshare_version>
43012

> <i_f3d_flags>
0

> <s_epik_input>
W0NIM11jMVtjSF1jKFtjSF1bY0hdbjEpW05IXUMoPU8pW05IXVtDQEBIXTJbQ0hdPVtDSF1bQ0BASF0oW0NIMl0yKVtDSDJdW09IXQ==

> <s_epik_cmdline>
J2VwaWtfcHl0aG9uJywgJy1waCcsICc3LjAnLCAnLXRuJywgJzgnLCAnLW1hJywgJzIwMCcsICctbWV0YWxfYmluZGluZycsICctaW1hZScsICc8aW5maWxlLm1hZT4nLCAnLW9tYWUnLCAnPG91dGZpbGUubWFlPic=

> <r_epik_Ionization_Penalty>
0.379275

> <r_epik_Ionization_Penalty_Charging>
0

> <r_epik_Ionization_Penalty_Neutral>
0.379275

> <r_epik_State_Penalty>
0.377195

> <r_epik_Charging_Adjusted_Penalty>
0.377195

> <i_epik_Tot_Q>
0

> <i_epik_Tot_abs_Q>
0

> <r_epik_Metal_State_Penalty>
0.22815

> <b_epik_Metal_Only>
0

> <s_lp_Force_Field>
OPLS_2005

> <r_lp_Energy>
20.8901

> <b_lp_Chiralities_Consistent>
1

> <s_lp_Variant>
AV-unprocessed.smi:3298-1

> <Gold.Version>
5.8.1

> <Gold.Id.Protein>
6NUR|6NUR_protein|mol2

> <Gold.PLP.Fitness>
42.6157

> <Gold.PLP.PLP>
-32.0197

> <Gold.PLP.part.hbond>
-4.5896

> <Gold.PLP.part.metal>
0.0000

> <Gold.PLP.part.buried>
-0.0720

> <Gold.PLP.part.nonpolar>
-27.3520

> <Gold.PLP.part.repulsive>
0.9456

> <Gold.PLP.ligand.clash>
0.0000

> <Gold.PLP.ligand.torsion>
0.6251

> <Gold.PLP.Chemscore.Hbond>
2.9440

> <Gold.PLP.Chemscore.CHOScore>
1.0000

> <Gold.PLP.Chemscore.Metal>
0.0000

> <Gold.Chemscore.Hbonds>
donor molecule, donor type, donor heavy atom, donor atom, acceptor molecule, acceptor atom, score
      L1  H     5    25       P1  7948  1.00
      L1  H     8    26       P1  7948  0.94
      L1  H    14    31       P1  7921  1.00
      L1  C    17    35       P1  8028  1.00

> <Gold.PLP.Chemscore.Internal.Correction>
0.0142

> <Gold.Rescore>
     Score         DG    S(hbond)    S(metal)    S(lipo)     H(rot)  DE(clash)    DE(int)     intcor
     16.94     -18.64       2.84        0.00      70.34       1.78       0.05       1.65       ----

> <Gold.Chemscore.Fitness>
16.9447

> <Gold.Chemscore.DG>
-18.6420

> <Gold.Chemscore.ZeroCoef>
-5.4800

> <Gold.Chemscore.Hbond>
2.8406

> <Gold.Chemscore.Metal>
0.0000

> <Gold.Chemscore.Lipo>
70.3429

> <Gold.Chemscore.Internal_Hbond>
0.0000

> <Gold.Chemscore.DEClash>
0.0513

> <Gold.Chemscore.DEInternal>
1.6461

> <Gold.Chemscore.Rot>
1.7796

> <Gold.Chemscore.Internal.Correction>
   9.000000E+99

> <Gold.Chemscore.Hbonds>
donor molecule, donor type, donor heavy atom, donor atom, acceptor molecule, acceptor atom, score
      L1  H     5    25       P1  7948  0.97
      L1  H     8    26       P1  7948  0.91
      L1  H    14    31       P1  7921  0.39

> <Gold.Chemscore.Hbond.Weighted>
-9.4878

> <Gold.Chemscore.Metal.Weighted>
-0.0000

> <Gold.Chemscore.Lipo.Weighted>
-8.2301

> <Gold.Chemscore.Internal_Hbond.Weighted>
0.0000

> <Gold.Chemscore.DEClash.Weighted>
0.0513

> <Gold.Chemscore.DEInternal.Weighted>
1.6461

> <Gold.Chemscore.Rot.Weighted>
4.5558

> <Gold.Chemscore.Internal.Correction.Weighted>
   9.000000E+99

> <Gold.Protein.RotatedTorsions>
[ 6907 6896 6895 6894 ] final   -5.99 input  -60.11 | X-H torsion
[ 7974 7965 7964 7962 ] final  120.70 input  175.53 | X-H torsion
[ 8008 7997 7996 7995 ] final   90.63 input   59.86 | X-H torsion
[ 10167 10162 10161 10158 ] final  -95.50 input  -65.29 | X-H torsion
[ 10718 10713 10712 10709 ] final   69.89 input   66.30 | X-H torsion
[ 10763 10752 10751 10750 ] final  142.69 input  -60.55 | X-H torsion
[ 11005 11000 10999 10996 ] final  -95.33 input  -57.11 | X-H torsion

> <Gold.Protein.ActiveResidues>
 VAL166  LYS551  ARG553  GLY616  TRP617  ASP618  TYR619  PRO620  LYS621  CYS622 
 ASP623  PHE694  ASN695  SER759  ASP760  ASP761  ALA762  ILE779  LEU786  VAL792 
 PHE793  MET794  SER795  GLU796  ALA797  LYS798  CYS799  TRP800  GLU811  SER814 

> <Gold.Protein.RotatedAtoms>
  151.4727  135.1047  159.9755 H   0  0  0  0  0  0  0  0  0  0  0  0  # atno 6907 bound_to 6896
  152.4810  133.8251  159.7084 H   0  0  0  0  0  0  0  0  0  0  0  0  # atno 6908 bound_to 6896
  150.8882  133.7218  159.2939 H   0  0  0  0  0  0  0  0  0  0  0  0  # atno 6909 bound_to 6896
  145.1280  139.3345  143.4679 H   0  0  0  0  0  0  0  0  0  0  0  0  # atno 7974 bound_to 7965
  156.0142  140.3347  155.6972 H   0  0  0  0  0  0  0  0  0  0  0  0  # atno 8008 bound_to 7997
  155.6114  140.0665  157.2723 H   0  0  0  0  0  0  0  0  0  0  0  0  # atno 8009 bound_to 7997
  154.4292  140.1793  156.1264 H   0  0  0  0  0  0  0  0  0  0  0  0  # atno 8010 bound_to 7997
  140.3035  143.3148  152.0223 H   0  0  0  0  0  0  0  0  0  0  0  0  # atno 10167 bound_to 10162
  157.6370  130.9449  150.0576 H   0  0  0  0  0  0  0  0  0  0  0  0  # atno 10718 bound_to 10713
  153.9600  135.2961  155.3434 H   0  0  0  0  0  0  0  0  0  0  0  0  # atno 10763 bound_to 10752
  154.7380  135.5038  153.9077 H   0  0  0  0  0  0  0  0  0  0  0  0  # atno 10764 bound_to 10752
  153.0951  135.6719  153.9889 H   0  0  0  0  0  0  0  0  0  0  0  0  # atno 10765 bound_to 10752
  141.1445  133.8018  157.0420 H   0  0  0  0  0  0  0  0  0  0  0  0  # atno 11005 bound_to 11000
  146.3516  140.1268  142.8598 LP  0  0  0  0  0  0  0  0  0  0  0  0  # atno 17320 bound_to 7965
  145.0666  140.9126  143.4907 LP  0  0  0  0  0  0  0  0  0  0  0  0  # atno 17321 bound_to 7965
  139.4909  144.6438  151.6822 LP  0  0  0  0  0  0  0  0  0  0  0  0  # atno 17342 bound_to 10162
  140.5630  144.0236  150.6179 LP  0  0  0  0  0  0  0  0  0  0  0  0  # atno 17343 bound_to 10162
  156.1618  130.3644  149.9288 LP  0  0  0  0  0  0  0  0  0  0  0  0  # atno 17370 bound_to 10713
  156.7284  130.9034  151.3624 LP  0  0  0  0  0  0  0  0  0  0  0  0  # atno 17371 bound_to 10713
  140.0686  134.9715  157.1429 LP  0  0  0  0  0  0  0  0  0  0  0  0  # atno 17394 bound_to 11000
  140.3743  134.2356  155.7175 LP  0  0  0  0  0  0  0  0  0  0  0  0  # atno 17395 bound_to 11000

$$$$
