AV-unprocessed.smi:1179|AV-procd|sdf|4958|dock9
  -GOLD-   22720 3553D 1   1.00000     0.00000
 Structure written by MMmdl.
 47 48  0  0  0  0  0  0  0  0  2 V2000
  153.4947  141.6375  161.8209 C   0  0  0  0  0  0  0  0  0  0  0  0
  152.8076  142.6271  160.9268 C   0  0  0  0  0  0  0  0  0  0  0  0
  152.3359  143.9292  161.2525 C   0  0  0  0  0  0  0  0  0  0  0  0
  151.7988  144.3960  160.0860 C   0  0  0  0  0  0  0  0  0  0  0  0
  151.1467  145.7046  159.7820 C   0  0  0  0  0  0  0  0  0  0  0  0
  151.9603  143.3971  159.1420 N   0  0  0  0  0  0  0  0  0  0  0  0
  151.5708  143.3865  157.7402 C   0  0  0  0  0  0  0  0  0  0  0  0
  150.6864  142.1805  157.4193 C   0  0  0  0  0  0  0  0  0  0  0  0
  151.0672  141.0440  157.6992 O   0  0  0  0  0  0  0  0  0  0  0  0
  149.5069  142.4401  156.8337 N   0  0  0  0  0  0  0  0  0  0  0  0
  148.5179  141.4352  156.4654 C   0  0  0  0  0  0  0  0  0  0  0  0
  147.1043  141.8456  156.9216 C   0  0  0  0  0  0  0  0  0  0  0  0
  146.5043  142.8826  156.0452 N   0  3  2  0  0  0  0  0  0  0  0  0
  145.2751  143.4721  156.6363 C   0  0  0  0  0  0  0  0  0  0  0  0
  144.7472  144.6353  155.7799 C   0  0  0  0  0  0  0  0  0  0  0  0
  144.4802  144.1874  154.3333 C   0  0  1  0  0  0  0  0  0  0  0  0
  143.9829  145.3483  153.4606 C   0  0  0  0  0  0  0  0  0  0  0  0
  145.7558  143.5489  153.7590 C   0  0  0  0  0  0  0  0  0  0  0  0
  146.2639  142.4076  154.6562 C   0  0  0  0  0  0  0  0  0  0  0  0
  152.5820  142.3153  159.6611 N   0  0  0  0  0  0  0  0  0  0  0  0
  153.5227  141.9913  162.8516 H   0  0  0  0  0  0  0  0  0  0  0  0
  154.5227  141.4671  161.5005 H   0  0  0  0  0  0  0  0  0  0  0  0
  152.9790  140.6768  161.8151 H   0  0  0  0  0  0  0  0  0  0  0  0
  152.3844  144.4435  162.2009 H   0  0  0  0  0  0  0  0  0  0  0  0
  151.1381  146.3482  160.6619 H   0  0  0  0  0  0  0  0  0  0  0  0
  150.1146  145.5603  159.4627 H   0  0  0  0  0  0  0  0  0  0  0  0
  151.6784  146.2298  158.9887 H   0  0  0  0  0  0  0  0  0  0  0  0
  151.0387  144.3091  157.5020 H   0  0  0  0  0  0  0  0  0  0  0  0
  152.4682  143.3705  157.1207 H   0  0  0  0  0  0  0  0  0  0  0  0
  149.2767  143.4051  156.6428 H   0  0  0  0  0  0  0  0  0  0  0  0
  148.5396  141.3208  155.3815 H   0  0  0  0  0  0  0  0  0  0  0  0
  148.8141  140.4736  156.8853 H   0  0  0  0  0  0  0  0  0  0  0  0
  146.4391  140.9822  156.9723 H   0  0  0  0  0  0  0  0  0  0  0  0
  147.1807  142.2328  157.9388 H   0  0  0  0  0  0  0  0  0  0  0  0
  144.5108  142.6992  156.7355 H   0  0  0  0  0  0  0  0  0  0  0  0
  145.4875  143.8393  157.6411 H   0  0  0  0  0  0  0  0  0  0  0  0
  143.8326  145.0304  156.2237 H   0  0  0  0  0  0  0  0  0  0  0  0
  145.4714  145.4513  155.7878 H   0  0  0  0  0  0  0  0  0  0  0  0
  143.6972  143.4276  154.3515 H   0  0  0  0  0  0  0  0  0  0  0  0
  144.7253  146.1445  153.3962 H   0  0  0  0  0  0  0  0  0  0  0  0
  143.0670  145.7799  153.8655 H   0  0  0  0  0  0  0  0  0  0  0  0
  143.7673  145.0116  152.4463 H   0  0  0  0  0  0  0  0  0  0  0  0
  145.5627  143.1670  152.7559 H   0  0  0  0  0  0  0  0  0  0  0  0
  146.5354  144.3052  153.6562 H   0  0  0  0  0  0  0  0  0  0  0  0
  147.1805  142.0061  154.2263 H   0  0  0  0  0  0  0  0  0  0  0  0
  145.5398  141.5916  154.6694 H   0  0  0  0  0  0  0  0  0  0  0  0
  147.1768  143.6340  155.9887 H   0  0  0  0  0  0  0  0  0  0  0  0
  1  2  1  0  0  0  0
  1 21  1  0  0  0  0
  1 22  1  0  0  0  0
  1 23  1  0  0  0  0
  2 20  2  0  0  0  0
  2  3  1  0  0  0  0
  3  4  2  0  0  0  0
  3 24  1  0  0  0  0
  4  5  1  0  0  0  0
  4  6  1  0  0  0  0
  5 25  1  0  0  0  0
  5 26  1  0  0  0  0
  5 27  1  0  0  0  0
  6  7  1  0  0  0  0
  6 20  1  0  0  0  0
  7  8  1  0  0  0  0
  7 28  1  0  0  0  0
  7 29  1  0  0  0  0
  8  9  2  0  0  0  0
  8 10  1  0  0  0  0
 10 11  1  0  0  0  0
 10 30  1  0  0  0  0
 11 12  1  0  0  0  0
 11 31  1  0  0  0  0
 11 32  1  0  0  0  0
 12 13  1  0  0  0  0
 12 33  1  0  0  0  0
 12 34  1  0  0  0  0
 13 19  1  0  0  0  0
 13 14  1  0  0  0  0
 13 47  1  0  0  0  0
 14 15  1  0  0  0  0
 14 35  1  0  0  0  0
 14 36  1  0  0  0  0
 15 16  1  0  0  0  0
 15 37  1  0  0  0  0
 15 38  1  0  0  0  0
 16 17  1  0  0  0  0
 16 18  1  0  0  0  0
 16 39  1  0  0  0  0
 17 40  1  0  0  0  0
 17 41  1  0  0  0  0
 17 42  1  0  0  0  0
 18 19  1  0  0  0  0
 18 43  1  0  0  0  0
 18 44  1  0  0  0  0
 19 45  1  0  0  0  0
 19 46  1  0  0  0  0
M  CHG  1  13   1
M  END
> <s_m_source_file>
AV-unprocessed.smi

> <i_m_source_file_index>
1179

> <i_lp_mmshare_version>
43012

> <i_f3d_flags>
0

> <s_epik_input>
W0NIM11jMVtjSF1jKFtDSDNdKW4objEpW0NIMl1DKD1PKVtOSF1bQ0gyXVtDSDJdTjJbQ0gyXVtDSDJdW0NIXShbQ0gzXSlbQ0gyXVtDSDJdMg==

> <s_epik_cmdline>
J2VwaWtfcHl0aG9uJywgJy1waCcsICc3LjAnLCAnLXRuJywgJzgnLCAnLW1hJywgJzIwMCcsICctbWV0YWxfYmluZGluZycsICctaW1hZScsICc8aW5maWxlLm1hZT4nLCAnLW9tYWUnLCAnPG91dGZpbGUubWFlPic=

> <r_lp_tautomer_probability>
1

> <r_epik_Ionization_Penalty>
0.00206343

> <r_epik_Ionization_Penalty_Charging>
0.00187095

> <r_epik_Ionization_Penalty_Neutral>
0.000192474

> <r_epik_State_Penalty>
-0

> <r_epik_Charging_Adjusted_Penalty>
0.00187095

> <i_epik_Tot_Q>
1

> <i_epik_Tot_abs_Q>
1

> <r_epik_Metal_State_Penalty>
-0

> <b_epik_Metal_Only>
0

> <s_lp_Force_Field>
OPLS_2005

> <r_lp_Energy>
13.8345

> <b_lp_Chiralities_Consistent>
1

> <s_lp_Variant>
AV-unprocessed.smi:1179-1

> <Gold.Version>
5.8.1

> <Gold.Id.Protein>
6NUR|6NUR_protein|mol2

> <Gold.PLP.Fitness>
48.1607

> <Gold.PLP.PLP>
-45.6280

> <Gold.PLP.part.hbond>
-2.0000

> <Gold.PLP.part.metal>
0.0000

> <Gold.PLP.part.buried>
-5.9300

> <Gold.PLP.part.nonpolar>
-36.5840

> <Gold.PLP.part.repulsive>
0.0481

> <Gold.PLP.ligand.clash>
0.0000

> <Gold.PLP.ligand.torsion>
0.2431

> <Gold.PLP.Chemscore.Hbond>
1.0000

> <Gold.PLP.Chemscore.CHOScore>
0.0000

> <Gold.PLP.Chemscore.Metal>
0.0000

> <Gold.Chemscore.Hbonds>
donor molecule, donor type, donor heavy atom, donor atom, acceptor molecule, acceptor atom, score
      L1  H    10    30       P1  8028  1.00

> <Gold.PLP.Chemscore.Internal.Correction>
0.0188

> <Gold.Rescore>
     Score         DG    S(hbond)    S(metal)    S(lipo)     H(rot)  DE(clash)    DE(int)     intcor
     15.47     -16.98       0.99        0.00     106.51       1.67       0.01       1.50       ----

> <Gold.Chemscore.Fitness>
15.4748

> <Gold.Chemscore.DG>
-16.9806

> <Gold.Chemscore.ZeroCoef>
-5.4800

> <Gold.Chemscore.Hbond>
0.9889

> <Gold.Chemscore.Metal>
0.0000

> <Gold.Chemscore.Lipo>
106.5104

> <Gold.Chemscore.Internal_Hbond>
0.0000

> <Gold.Chemscore.DEClash>
0.0097

> <Gold.Chemscore.DEInternal>
1.4961

> <Gold.Chemscore.Rot>
1.6657

> <Gold.Chemscore.Internal.Correction>
   9.000000E+99

> <Gold.Chemscore.Hbonds>
donor molecule, donor type, donor heavy atom, donor atom, acceptor molecule, acceptor atom, score
      L1  H    10    30       P1  8028  0.97

> <Gold.Chemscore.Hbond.Weighted>
-3.3029

> <Gold.Chemscore.Metal.Weighted>
-0.0000

> <Gold.Chemscore.Lipo.Weighted>
-12.4617

> <Gold.Chemscore.Internal_Hbond.Weighted>
0.0000

> <Gold.Chemscore.DEClash.Weighted>
0.0097

> <Gold.Chemscore.DEInternal.Weighted>
1.4961

> <Gold.Chemscore.Rot.Weighted>
4.2641

> <Gold.Chemscore.Internal.Correction.Weighted>
   9.000000E+99

> <Gold.Protein.RotatedTorsions>
[ 6907 6896 6895 6894 ] final   16.51 input  -60.11 | X-H torsion
[ 7974 7965 7964 7962 ] final  -98.53 input  175.53 | X-H torsion
[ 8008 7997 7996 7995 ] final   55.50 input   59.86 | X-H torsion
[ 10167 10162 10161 10158 ] final   88.74 input  -65.29 | X-H torsion
[ 10718 10713 10712 10709 ] final  -24.37 input   66.30 | X-H torsion
[ 10763 10752 10751 10750 ] final  142.10 input  -60.55 | X-H torsion
[ 11005 11000 10999 10996 ] final  125.08 input  -57.11 | X-H torsion

> <Gold.Protein.ActiveResidues>
 VAL166  LYS551  ARG553  GLY616  TRP617  ASP618  TYR619  PRO620  LYS621  CYS622 
 ASP623  PHE694  ASN695  SER759  ASP760  ASP761  ALA762  ILE779  LEU786  VAL792 
 PHE793  MET794  SER795  GLU796  ALA797  LYS798  CYS799  TRP800  GLU811  SER814 

> <Gold.Protein.RotatedAtoms>
  151.8351  135.0609  160.0441 H   0  0  0  0  0  0  0  0  0  0  0  0  # atno 6907 bound_to 6896
  152.2851  133.5503  159.5530 H   0  0  0  0  0  0  0  0  0  0  0  0  # atno 6908 bound_to 6896
  150.7206  134.0424  159.3812 H   0  0  0  0  0  0  0  0  0  0  0  0  # atno 6909 bound_to 6896
  145.3194  140.9418  143.2724 H   0  0  0  0  0  0  0  0  0  0  0  0  # atno 7974 bound_to 7965
  155.5021  140.3474  155.4373 H   0  0  0  0  0  0  0  0  0  0  0  0  # atno 8008 bound_to 7997
  156.0906  140.1410  156.9624 H   0  0  0  0  0  0  0  0  0  0  0  0  # atno 8009 bound_to 7997
  154.4633  140.0927  156.6929 H   0  0  0  0  0  0  0  0  0  0  0  0  # atno 8010 bound_to 7997
  139.8642  144.6528  150.9023 H   0  0  0  0  0  0  0  0  0  0  0  0  # atno 10167 bound_to 10162
  156.4785  130.4540  149.6826 H   0  0  0  0  0  0  0  0  0  0  0  0  # atno 10718 bound_to 10713
  153.9503  135.2970  155.3439 H   0  0  0  0  0  0  0  0  0  0  0  0  # atno 10763 bound_to 10752
  154.7430  135.5016  153.9158 H   0  0  0  0  0  0  0  0  0  0  0  0  # atno 10764 bound_to 10752
  153.0997  135.6731  153.9803 H   0  0  0  0  0  0  0  0  0  0  0  0  # atno 10765 bound_to 10752
  139.9389  134.9637  156.8505 H   0  0  0  0  0  0  0  0  0  0  0  0  # atno 11005 bound_to 11000
  144.8952  139.4722  143.6659 LP  0  0  0  0  0  0  0  0  0  0  0  0  # atno 17320 bound_to 7965
  146.3088  139.7673  142.9035 LP  0  0  0  0  0  0  0  0  0  0  0  0  # atno 17321 bound_to 7965
  140.7770  143.3718  151.1635 LP  0  0  0  0  0  0  0  0  0  0  0  0  # atno 17342 bound_to 10162
  139.7345  143.9021  152.3030 LP  0  0  0  0  0  0  0  0  0  0  0  0  # atno 17343 bound_to 10162
  156.3545  130.7449  151.2413 LP  0  0  0  0  0  0  0  0  0  0  0  0  # atno 17370 bound_to 10713
  157.7485  131.0367  150.4424 LP  0  0  0  0  0  0  0  0  0  0  0  0  # atno 17371 bound_to 10713
  140.6002  134.0179  155.7534 LP  0  0  0  0  0  0  0  0  0  0  0  0  # atno 17394 bound_to 11000
  141.1015  133.9760  157.3070 LP  0  0  0  0  0  0  0  0  0  0  0  0  # atno 17395 bound_to 11000

$$$$
