AV-unprocessed.smi:27|AV-procd|sdf|187|dock8
  -GOLD-   2262015453D 1   1.00000     0.00000
 Structure written by MMmdl.
 53 56  0  0  0  0  0  0  0  0  1 V2000
  149.0200  138.2158  157.5931 O   0  0  0  0  0  0  0  0  0  0  0  0
  149.6805  137.2451  157.9597 C   0  0  0  0  0  0  0  0  0  0  0  0
  151.2061  137.2391  157.7451 C   0  0  0  0  0  0  0  0  0  0  0  0
  151.9242  138.3271  158.4522 N   0  0  0  0  0  0  0  0  0  0  0  0
  152.7885  137.9876  159.5218 C   0  0  0  0  0  0  0  0  0  0  0  0
  152.9716  136.8141  159.8481 O   0  0  0  0  0  0  0  0  0  0  0  0
  153.4168  139.1127  160.2034 C   0  0  0  0  0  0  0  0  0  0  0  0
  154.2703  138.8833  161.2157 F   0  0  0  0  0  0  0  0  0  0  0  0
  153.1518  140.3846  159.8395 C   0  0  0  0  0  0  0  0  0  0  0  0
  152.2879  140.7058  158.8059 N   0  0  0  0  0  0  0  0  0  0  0  0
  151.9175  142.1307  158.4454 C   0  0  2  0  0  0  0  0  0  0  0  0
  152.7438  143.2267  159.1237 C   0  0  0  0  0  0  0  0  0  0  0  0
  151.7933  144.3920  158.9758 C   0  0  0  0  0  0  0  0  0  0  0  0
  150.4454  143.7219  159.2420 C   0  0  0  0  0  0  0  0  0  0  0  0
  150.6012  142.3573  158.8539 O   0  0  0  0  0  0  0  0  0  0  0  0
  151.6638  139.6677  158.0790 C   0  0  0  0  0  0  0  0  0  0  0  0
  150.8924  139.9249  157.1521 O   0  0  0  0  0  0  0  0  0  0  0  0
  149.1362  136.1674  158.5467 N   0  0  0  0  0  0  0  0  0  0  0  0
  147.7299  135.9529  158.8710 C   0  0  0  0  0  0  0  0  0  0  0  0
  147.5517  135.5797  160.3395 C   0  0  0  0  0  0  0  0  0  0  0  0
  147.0874  134.2985  160.7227 C   0  0  0  0  0  0  0  0  0  0  0  0
  146.9318  133.9755  162.0843 C   0  0  0  0  0  0  0  0  0  0  0  0
  147.2332  134.9297  163.0742 C   0  0  0  0  0  0  0  0  0  0  0  0
  147.6867  136.2090  162.7011 C   0  0  0  0  0  0  0  0  0  0  0  0
  147.8437  136.5326  161.3394 C   0  0  0  0  0  0  0  0  0  0  0  0
  147.0780  134.9150  157.9636 C   0  0  0  0  0  0  0  0  0  0  0  0
  145.6961  134.6298  158.0562 C   0  0  0  0  0  0  0  0  0  0  0  0
  145.1095  133.6717  157.2070 C   0  0  0  0  0  0  0  0  0  0  0  0
  145.8975  132.9954  156.2563 C   0  0  0  0  0  0  0  0  0  0  0  0
  147.2724  133.2800  156.1532 C   0  0  0  0  0  0  0  0  0  0  0  0
  147.8598  134.2372  157.0031 C   0  0  0  0  0  0  0  0  0  0  0  0
  151.5874  136.2590  158.0356 H   0  0  0  0  0  0  0  0  0  0  0  0
  151.3980  137.2867  156.6721 H   0  0  0  0  0  0  0  0  0  0  0  0
  153.6637  141.1568  160.3894 H   0  0  0  0  0  0  0  0  0  0  0  0
  151.9928  142.1867  157.3572 H   0  0  0  0  0  0  0  0  0  0  0  0
  152.8743  143.0264  160.1868 H   0  0  0  0  0  0  0  0  0  0  0  0
  153.7109  143.3659  158.6401 H   0  0  0  0  0  0  0  0  0  0  0  0
  152.0052  145.2114  159.6632 H   0  0  0  0  0  0  0  0  0  0  0  0
  151.8297  144.7803  157.9570 H   0  0  0  0  0  0  0  0  0  0  0  0
  150.2026  143.7548  160.3043 H   0  0  0  0  0  0  0  0  0  0  0  0
  149.6331  144.1997  158.6938 H   0  0  0  0  0  0  0  0  0  0  0  0
  149.7662  135.4247  158.8119 H   0  0  0  0  0  0  0  0  0  0  0  0
  147.2104  136.9016  158.7217 H   0  0  0  0  0  0  0  0  0  0  0  0
  146.8441  133.5529  159.9799 H   0  0  0  0  0  0  0  0  0  0  0  0
  146.5789  132.9954  162.3686 H   0  0  0  0  0  0  0  0  0  0  0  0
  147.1136  134.6818  164.1185 H   0  0  0  0  0  0  0  0  0  0  0  0
  147.9140  136.9433  163.4599 H   0  0  0  0  0  0  0  0  0  0  0  0
  148.1916  137.5175  161.0637 H   0  0  0  0  0  0  0  0  0  0  0  0
  145.0769  135.1452  158.7760 H   0  0  0  0  0  0  0  0  0  0  0  0
  144.0540  133.4566  157.2844 H   0  0  0  0  0  0  0  0  0  0  0  0
  145.4473  132.2608  155.6051 H   0  0  0  0  0  0  0  0  0  0  0  0
  147.8768  132.7644  155.4215 H   0  0  0  0  0  0  0  0  0  0  0  0
  148.9156  134.4491  156.9157 H   0  0  0  0  0  0  0  0  0  0  0  0
  1  2  2  0  0  0  0
  2  3  1  0  0  0  0
  2 18  1  0  0  0  0
  3  4  1  0  0  0  0
  3 32  1  0  0  0  0
  3 33  1  0  0  0  0
  4 16  1  0  0  0  0
  4  5  1  0  0  0  0
  5  6  2  0  0  0  0
  5  7  1  0  0  0  0
  7  8  1  0  0  0  0
  7  9  2  0  0  0  0
  9 10  1  0  0  0  0
  9 34  1  0  0  0  0
 10 11  1  0  0  0  0
 10 16  1  0  0  0  0
 11 15  1  0  0  0  0
 11 12  1  0  0  0  0
 11 35  1  0  0  0  0
 12 13  1  0  0  0  0
 12 36  1  0  0  0  0
 12 37  1  0  0  0  0
 13 14  1  0  0  0  0
 13 38  1  0  0  0  0
 13 39  1  0  0  0  0
 14 15  1  0  0  0  0
 14 40  1  0  0  0  0
 14 41  1  0  0  0  0
 16 17  2  0  0  0  0
 18 19  1  0  0  0  0
 18 42  1  0  0  0  0
 19 20  1  0  0  0  0
 19 26  1  0  0  0  0
 19 43  1  0  0  0  0
 20 25  1  0  0  0  0
 20 21  2  0  0  0  0
 21 22  1  0  0  0  0
 21 44  1  0  0  0  0
 22 23  2  0  0  0  0
 22 45  1  0  0  0  0
 23 24  1  0  0  0  0
 23 46  1  0  0  0  0
 24 25  2  0  0  0  0
 24 47  1  0  0  0  0
 25 48  1  0  0  0  0
 26 31  1  0  0  0  0
 26 27  2  0  0  0  0
 27 28  1  0  0  0  0
 27 49  1  0  0  0  0
 28 29  2  0  0  0  0
 28 50  1  0  0  0  0
 29 30  1  0  0  0  0
 29 51  1  0  0  0  0
 30 31  2  0  0  0  0
 30 52  1  0  0  0  0
 31 53  1  0  0  0  0
M  END
> <s_m_source_file>
AV-unprocessed.smi

> <i_m_source_file_index>
27

> <i_lp_mmshare_version>
43012

> <i_f3d_flags>
0

> <s_epik_input>
W2NIXTFbY0hdW2NIXVtjSF1bY0hdYzFbQ0hdKGMyW2NIXVtjSF1bY0hdW2NIXVtjSF0yKVtOSF1DKD1PKVtDSDJdbjNjKD1PKWMoRilbY0hdbihjMz1PKVtDQEBIXTRbQ0gyXVtDSDJdW0NIMl1PNA==

> <s_epik_cmdline>
J2VwaWtfcHl0aG9uJywgJy1waCcsICc3LjAnLCAnLXRuJywgJzgnLCAnLW1hJywgJzIwMCcsICctbWV0YWxfYmluZGluZycsICctaW1hZScsICc8aW5maWxlLm1hZT4nLCAnLW9tYWUnLCAnPG91dGZpbGUubWFlPic=

> <r_lp_tautomer_probability>
1

> <r_epik_Ionization_Penalty>
5.29953e-08

> <r_epik_Ionization_Penalty_Charging>
3.6115e-09

> <r_epik_Ionization_Penalty_Neutral>
4.93838e-08

> <r_epik_State_Penalty>
-0

> <r_epik_Charging_Adjusted_Penalty>
3.6115e-09

> <i_epik_Tot_Q>
0

> <i_epik_Tot_abs_Q>
0

> <r_epik_Metal_State_Penalty>
-0

> <b_epik_Metal_Only>
0

> <s_epik_Chemistry_Notes>
This compound contains an acetal/aminal-like group ( X-CH(R)-Y where X, Y are N, S, or O) that may be acid/base labile, releasing an aldehyde.

> <s_lp_Force_Field>
OPLS_2005

> <r_lp_Energy>
32.38

> <b_lp_Chiralities_Consistent>
1

> <s_lp_Variant>
AV-unprocessed.smi:27-1

> <Gold.Version>
5.8.1

> <Gold.Id.Protein>
6NUR|6NUR_protein|mol2

> <Gold.PLP.Fitness>
49.7587

> <Gold.PLP.PLP>
-47.5601

> <Gold.PLP.part.hbond>
-1.0000

> <Gold.PLP.part.metal>
0.0000

> <Gold.PLP.part.buried>
-6.3116

> <Gold.PLP.part.nonpolar>
-40.3603

> <Gold.PLP.part.repulsive>
0.1578

> <Gold.PLP.ligand.clash>
0.0000

> <Gold.PLP.ligand.torsion>
0.5190

> <Gold.PLP.Chemscore.Hbond>
0.9913

> <Gold.PLP.Chemscore.CHOScore>
0.0000

> <Gold.PLP.Chemscore.Metal>
0.0000

> <Gold.Chemscore.Hbonds>
donor molecule, donor type, donor heavy atom, donor atom, acceptor molecule, acceptor atom, score
      P1  H  6896  6907       L1     6  1.00

> <Gold.PLP.Chemscore.Internal.Correction>
0.2629

> <Gold.Rescore>
     Score         DG    S(hbond)    S(metal)    S(lipo)     H(rot)  DE(clash)    DE(int)     intcor
     13.33     -16.69       1.00        0.00     114.64       2.16       0.11       3.24       ----

> <Gold.Chemscore.Fitness>
13.3297

> <Gold.Chemscore.DG>
-16.6852

> <Gold.Chemscore.ZeroCoef>
-5.4800

> <Gold.Chemscore.Hbond>
0.9977

> <Gold.Chemscore.Metal>
0.0000

> <Gold.Chemscore.Lipo>
114.6428

> <Gold.Chemscore.Internal_Hbond>
0.0000

> <Gold.Chemscore.DEClash>
0.1110

> <Gold.Chemscore.DEInternal>
3.2445

> <Gold.Chemscore.Rot>
2.1642

> <Gold.Chemscore.Internal.Correction>
   9.000000E+99

> <Gold.Chemscore.Hbonds>
donor molecule, donor type, donor heavy atom, donor atom, acceptor molecule, acceptor atom, score
      P1  H  6896  6907       L1     6  0.95

> <Gold.Chemscore.Hbond.Weighted>
-3.3324

> <Gold.Chemscore.Metal.Weighted>
-0.0000

> <Gold.Chemscore.Lipo.Weighted>
-13.4132

> <Gold.Chemscore.Internal_Hbond.Weighted>
0.0000

> <Gold.Chemscore.DEClash.Weighted>
0.1110

> <Gold.Chemscore.DEInternal.Weighted>
3.2445

> <Gold.Chemscore.Rot.Weighted>
5.5404

> <Gold.Chemscore.Internal.Correction.Weighted>
   9.000000E+99

> <Gold.Protein.RotatedTorsions>
[ 6907 6896 6895 6894 ] final   22.80 input  -60.11 | X-H torsion
[ 7974 7965 7964 7962 ] final  141.13 input  175.53 | X-H torsion
[ 8008 7997 7996 7995 ] final -172.76 input   59.86 | X-H torsion
[ 10167 10162 10161 10158 ] final  103.72 input  -65.29 | X-H torsion
[ 10718 10713 10712 10709 ] final  -97.39 input   66.30 | X-H torsion
[ 10763 10752 10751 10750 ] final  157.98 input  -60.55 | X-H torsion
[ 11005 11000 10999 10996 ] final -160.97 input  -57.11 | X-H torsion

> <Gold.Protein.ActiveResidues>
 VAL166  LYS551  ARG553  GLY616  TRP617  ASP618  TYR619  PRO620  LYS621  CYS622 
 ASP623  PHE694  ASN695  SER759  ASP760  ASP761  ALA762  ILE779  LEU786  VAL792 
 PHE793  MET794  SER795  GLU796  ALA797  LYS798  CYS799  TRP800  GLU811  SER814 

> <Gold.Protein.RotatedAtoms>
  151.9327  135.0249  160.0530 H   0  0  0  0  0  0  0  0  0  0  0  0  # atno 6907 bound_to 6896
  152.2104  133.4902  159.5115 H   0  0  0  0  0  0  0  0  0  0  0  0  # atno 6908 bound_to 6896
  150.6975  134.1391  159.4141 H   0  0  0  0  0  0  0  0  0  0  0  0  # atno 6909 bound_to 6896
  144.9123  139.5276  143.5702 H   0  0  0  0  0  0  0  0  0  0  0  0  # atno 7974 bound_to 7965
  155.9488  140.1122  157.0994 H   0  0  0  0  0  0  0  0  0  0  0  0  # atno 8008 bound_to 7997
  154.4105  140.1204  156.5091 H   0  0  0  0  0  0  0  0  0  0  0  0  # atno 8009 bound_to 7997
  155.6869  140.3473  155.4880 H   0  0  0  0  0  0  0  0  0  0  0  0  # atno 8010 bound_to 7997
  139.7238  144.7052  151.0829 H   0  0  0  0  0  0  0  0  0  0  0  0  # atno 10167 bound_to 10162
  156.0082  130.5192  150.6367 H   0  0  0  0  0  0  0  0  0  0  0  0  # atno 10718 bound_to 10713
  154.2088  135.2787  155.2965 H   0  0  0  0  0  0  0  0  0  0  0  0  # atno 10763 bound_to 10752
  154.5795  135.5594  153.7175 H   0  0  0  0  0  0  0  0  0  0  0  0  # atno 10764 bound_to 10752
  153.0069  135.6341  154.2227 H   0  0  0  0  0  0  0  0  0  0  0  0  # atno 10765 bound_to 10752
  140.6255  134.4705  157.5226 H   0  0  0  0  0  0  0  0  0  0  0  0  # atno 11005 bound_to 11000
  146.3165  139.7939  142.8979 LP  0  0  0  0  0  0  0  0  0  0  0  0  # atno 17320 bound_to 7965
  145.3433  141.0292  143.3380 LP  0  0  0  0  0  0  0  0  0  0  0  0  # atno 17321 bound_to 7965
  140.7759  143.5131  150.9628 LP  0  0  0  0  0  0  0  0  0  0  0  0  # atno 17342 bound_to 10162
  139.8818  143.7062  152.3156 LP  0  0  0  0  0  0  0  0  0  0  0  0  # atno 17343 bound_to 10162
  157.4155  131.0829  151.1181 LP  0  0  0  0  0  0  0  0  0  0  0  0  # atno 17370 bound_to 10713
  157.1799  130.6305  149.5668 LP  0  0  0  0  0  0  0  0  0  0  0  0  # atno 17371 bound_to 10713
  139.9136  134.8292  156.1442 LP  0  0  0  0  0  0  0  0  0  0  0  0  # atno 17394 bound_to 11000
  141.0712  133.6796  156.2144 LP  0  0  0  0  0  0  0  0  0  0  0  0  # atno 17395 bound_to 11000

$$$$
