AV-unprocessed.smi:560|AV-procd|sdf|2928|dock2
  -GOLD-   2262023423D 1   1.00000     0.00000
 Structure written by MMmdl.
 42 43  0  0  0  0  0  0  0  0  2 V2000
  151.8923  144.6828  158.0630 C   0  0  0  0  0  0  0  0  0  0  0  0
  152.1216  143.1577  158.0822 C   0  0  2  0  0  0  0  0  0  0  0  0
  150.8825  142.3552  157.6471 C   0  0  0  0  0  0  0  0  0  0  0  0
  149.8048  142.4899  158.2282 O   0  0  0  0  0  0  0  0  0  0  0  0
  151.0507  141.5174  156.6107 N   0  0  0  0  0  0  0  0  0  0  0  0
  150.0204  140.6449  156.0576 C   0  0  2  0  0  0  0  0  0  0  0  0
  150.6200  139.6789  155.0182 C   0  0  0  0  0  0  0  0  0  0  0  0
  149.5239  138.8327  154.3513 C   0  0  0  0  0  0  0  0  0  0  0  0
  148.4915  139.6972  153.7197 N   0  3  1  0  0  0  0  0  0  0  0  0
  147.4853  138.9268  152.9423 C   0  0  0  0  0  0  0  0  0  0  0  0
  146.7356  137.8526  153.7456 C   0  0  0  0  0  0  0  0  0  0  0  0
  146.9201  136.5628  153.4415 N   0  0  0  0  0  0  0  0  0  0  0  0
  145.9821  138.1958  154.6525 O   0  0  0  0  0  0  0  0  0  0  0  0
  147.8654  140.6053  154.7146 C   0  0  0  0  0  0  0  0  0  0  0  0
  148.9206  141.4921  155.3972 C   0  0  0  0  0  0  0  0  0  0  0  0
  152.6040  142.7030  159.3822 N   0  0  0  0  0  0  0  0  0  0  0  0
  152.5958  143.3901  160.5792 C   0  0  0  0  0  0  0  0  0  0  0  0
  153.1667  142.5824  161.5205 C   0  0  0  0  0  0  0  0  0  0  0  0
  153.5039  141.4056  160.7962 C   0  0  0  0  0  0  0  0  0  0  0  0
  153.1736  141.4826  159.5176 N   0  0  0  0  0  0  0  0  0  0  0  0
  151.6004  145.0256  157.0697 H   0  0  0  0  0  0  0  0  0  0  0  0
  152.8036  145.2157  158.3354 H   0  0  0  0  0  0  0  0  0  0  0  0
  151.1114  144.9867  158.7614 H   0  0  0  0  0  0  0  0  0  0  0  0
  152.9050  142.9398  157.3545 H   0  0  0  0  0  0  0  0  0  0  0  0
  151.9664  141.4704  156.1875 H   0  0  0  0  0  0  0  0  0  0  0  0
  149.5705  140.0668  156.8672 H   0  0  0  0  0  0  0  0  0  0  0  0
  151.1595  140.2416  154.2546 H   0  0  0  0  0  0  0  0  0  0  0  0
  151.3512  139.0211  155.4897 H   0  0  0  0  0  0  0  0  0  0  0  0
  149.9792  138.1803  153.6059 H   0  0  0  0  0  0  0  0  0  0  0  0
  149.0529  138.1821  155.0902 H   0  0  0  0  0  0  0  0  0  0  0  0
  146.7706  139.6079  152.4774 H   0  0  0  0  0  0  0  0  0  0  0  0
  147.9822  138.4010  152.1260 H   0  0  0  0  0  0  0  0  0  0  0  0
  146.4436  135.8359  153.9534 H   0  0  0  0  0  0  0  0  0  0  0  0
  147.5491  136.3182  152.6892 H   0  0  0  0  0  0  0  0  0  0  0  0
  147.1304  141.2428  154.2216 H   0  0  0  0  0  0  0  0  0  0  0  0
  147.3269  140.0164  155.4591 H   0  0  0  0  0  0  0  0  0  0  0  0
  148.4402  142.1279  156.1421 H   0  0  0  0  0  0  0  0  0  0  0  0
  149.3616  142.1619  154.6571 H   0  0  0  0  0  0  0  0  0  0  0  0
  152.1876  144.3867  160.6616 H   0  0  0  0  0  0  0  0  0  0  0  0
  153.3202  142.7990  162.5672 H   0  0  0  0  0  0  0  0  0  0  0  0
  153.9780  140.5051  161.1581 H   0  0  0  0  0  0  0  0  0  0  0  0
  148.9653  140.2934  153.0567 H   0  0  0  0  0  0  0  0  0  0  0  0
  1  2  1  0  0  0  0
  1 21  1  0  0  0  0
  1 22  1  0  0  0  0
  1 23  1  0  0  0  0
  2  3  1  0  0  0  0
  2 16  1  0  0  0  0
  2 24  1  0  0  0  0
  3  4  2  0  0  0  0
  3  5  1  0  0  0  0
  5  6  1  0  0  0  0
  5 25  1  0  0  0  0
  6 15  1  0  0  0  0
  6  7  1  0  0  0  0
  6 26  1  0  0  0  0
  7  8  1  0  0  0  0
  7 27  1  0  0  0  0
  7 28  1  0  0  0  0
  8  9  1  0  0  0  0
  8 29  1  0  0  0  0
  8 30  1  0  0  0  0
  9 10  1  0  0  0  0
  9 14  1  0  0  0  0
  9 42  1  0  0  0  0
 10 11  1  0  0  0  0
 10 31  1  0  0  0  0
 10 32  1  0  0  0  0
 11 12  1  0  0  0  0
 11 13  2  0  0  0  0
 12 33  1  0  0  0  0
 12 34  1  0  0  0  0
 14 15  1  0  0  0  0
 14 35  1  0  0  0  0
 14 36  1  0  0  0  0
 15 37  1  0  0  0  0
 15 38  1  0  0  0  0
 16 20  1  0  0  0  0
 16 17  1  0  0  0  0
 17 18  2  0  0  0  0
 17 39  1  0  0  0  0
 18 19  1  0  0  0  0
 18 40  1  0  0  0  0
 19 20  2  0  0  0  0
 19 41  1  0  0  0  0
M  CHG  1   9   1
M  END
> <s_m_source_file>
AV-unprocessed.smi

> <i_m_source_file_index>
560

> <i_lp_mmshare_version>
43012

> <i_f3d_flags>
0

> <s_epik_input>
bjFbY0hdW2NIXVtjSF1uMVtDQEhdKFtDSDNdKUMoPU8pW05IXVtDSF0yW0NIMl1bQ0gyXU4oW0NIMl1bQ0gyXTIpW0NIMl1DKD1PKVtOSDJd

> <s_epik_cmdline>
J2VwaWtfcHl0aG9uJywgJy1waCcsICc3LjAnLCAnLXRuJywgJzgnLCAnLW1hJywgJzIwMCcsICctbWV0YWxfYmluZGluZycsICctaW1hZScsICc8aW5maWxlLm1hZT4nLCAnLW9tYWUnLCAnPG91dGZpbGUubWFlPic=

> <r_lp_tautomer_probability>
1

> <r_epik_Ionization_Penalty>
1.02943

> <r_epik_Ionization_Penalty_Charging>
1.02936

> <r_epik_Ionization_Penalty_Neutral>
7.4537e-05

> <r_epik_State_Penalty>
1.08036

> <r_epik_Charging_Adjusted_Penalty>
2.10972

> <i_epik_Tot_Q>
1

> <i_epik_Tot_abs_Q>
1

> <r_epik_Metal_State_Penalty>
1.09347

> <b_epik_Metal_Only>
0

> <s_lp_Force_Field>
OPLS_2005

> <r_lp_Energy>
17.0208

> <b_lp_Chiralities_Consistent>
1

> <s_lp_Variant>
AV-unprocessed.smi:560-3

> <Gold.Version>
5.8.1

> <Gold.Id.Protein>
6NUR|6NUR_protein|mol2

> <Gold.PLP.Fitness>
43.4803

> <Gold.PLP.PLP>
-39.2564

> <Gold.PLP.part.hbond>
-2.0000

> <Gold.PLP.part.metal>
0.0000

> <Gold.PLP.part.buried>
-3.7822

> <Gold.PLP.part.nonpolar>
-34.1655

> <Gold.PLP.part.repulsive>
0.3990

> <Gold.PLP.ligand.clash>
0.0000

> <Gold.PLP.ligand.torsion>
0.4849

> <Gold.PLP.Chemscore.Hbond>
1.6880

> <Gold.PLP.Chemscore.CHOScore>
0.0000

> <Gold.PLP.Chemscore.Metal>
0.0000

> <Gold.Chemscore.Hbonds>
donor molecule, donor type, donor heavy atom, donor atom, acceptor molecule, acceptor atom, score
      L1  H     9    42       P1  7957  0.67
      L1  H    12    34       P1  7948  1.00

> <Gold.PLP.Chemscore.Internal.Correction>
0.1298

> <Gold.Rescore>
     Score         DG    S(hbond)    S(metal)    S(lipo)     H(rot)  DE(clash)    DE(int)     intcor
     15.89     -16.65       1.84        0.00      98.30       2.52       0.48       0.28       ----

> <Gold.Chemscore.Fitness>
15.8885

> <Gold.Chemscore.DG>
-16.6494

> <Gold.Chemscore.ZeroCoef>
-5.4800

> <Gold.Chemscore.Hbond>
1.8353

> <Gold.Chemscore.Metal>
0.0000

> <Gold.Chemscore.Lipo>
98.3041

> <Gold.Chemscore.Internal_Hbond>
0.0000

> <Gold.Chemscore.DEClash>
0.4780

> <Gold.Chemscore.DEInternal>
0.2829

> <Gold.Chemscore.Rot>
2.5243

> <Gold.Chemscore.Internal.Correction>
   9.000000E+99

> <Gold.Chemscore.Hbonds>
donor molecule, donor type, donor heavy atom, donor atom, acceptor molecule, acceptor atom, score
      L1  H     9    42       P1  7957  0.64
      L1  H    12    34       P1  7948  0.99

> <Gold.Chemscore.Hbond.Weighted>
-6.1300

> <Gold.Chemscore.Metal.Weighted>
-0.0000

> <Gold.Chemscore.Lipo.Weighted>
-11.5016

> <Gold.Chemscore.Internal_Hbond.Weighted>
0.0000

> <Gold.Chemscore.DEClash.Weighted>
0.4780

> <Gold.Chemscore.DEInternal.Weighted>
0.2829

> <Gold.Chemscore.Rot.Weighted>
6.4622

> <Gold.Chemscore.Internal.Correction.Weighted>
   9.000000E+99

> <Gold.Protein.RotatedTorsions>
[ 6907 6896 6895 6894 ] final   54.10 input  -60.11 | X-H torsion
[ 7974 7965 7964 7962 ] final  -42.37 input  175.53 | X-H torsion
[ 8008 7997 7996 7995 ] final -131.53 input   59.86 | X-H torsion
[ 10167 10162 10161 10158 ] final  113.94 input  -65.29 | X-H torsion
[ 10718 10713 10712 10709 ] final  164.56 input   66.30 | X-H torsion
[ 10763 10752 10751 10750 ] final  125.28 input  -60.55 | X-H torsion
[ 11005 11000 10999 10996 ] final   14.04 input  -57.11 | X-H torsion

> <Gold.Protein.ActiveResidues>
 VAL166  LYS551  ARG553  GLY616  TRP617  ASP618  TYR619  PRO620  LYS621  CYS622 
 ASP623  PHE694  ASN695  SER759  ASP760  ASP761  ALA762  ILE779  LEU786  VAL792 
 PHE793  MET794  SER795  GLU796  ALA797  LYS798  CYS799  TRP800  GLU811  SER814 

> <Gold.Protein.RotatedAtoms>
  152.3405  134.7141  160.0264 H   0  0  0  0  0  0  0  0  0  0  0  0  # atno 6907 bound_to 6896
  151.7528  133.3323  159.3404 H   0  0  0  0  0  0  0  0  0  0  0  0  # atno 6908 bound_to 6896
  150.7476  134.6109  159.6130 H   0  0  0  0  0  0  0  0  0  0  0  0  # atno 6909 bound_to 6896
  146.0122  140.6950  142.9218 H   0  0  0  0  0  0  0  0  0  0  0  0  # atno 7974 bound_to 7965
  155.3138  140.0458  157.3036 H   0  0  0  0  0  0  0  0  0  0  0  0  # atno 8008 bound_to 7997
  154.5418  140.2290  155.8595 H   0  0  0  0  0  0  0  0  0  0  0  0  # atno 8009 bound_to 7997
  156.1887  140.3056  155.9297 H   0  0  0  0  0  0  0  0  0  0  0  0  # atno 8010 bound_to 7997
  139.6425  144.7124  151.2209 H   0  0  0  0  0  0  0  0  0  0  0  0  # atno 10167 bound_to 10162
  157.0927  131.0422  151.2530 H   0  0  0  0  0  0  0  0  0  0  0  0  # atno 10718 bound_to 10713
  153.6747  135.3324  155.3163 H   0  0  0  0  0  0  0  0  0  0  0  0  # atno 10763 bound_to 10752
  154.8481  135.4395  154.1668 H   0  0  0  0  0  0  0  0  0  0  0  0  # atno 10764 bound_to 10752
  153.2669  135.6996  153.7597 H   0  0  0  0  0  0  0  0  0  0  0  0  # atno 10765 bound_to 10752
  140.4740  134.1002  155.7738 H   0  0  0  0  0  0  0  0  0  0  0  0  # atno 11005 bound_to 11000
  144.6957  140.3419  143.7197 LP  0  0  0  0  0  0  0  0  0  0  0  0  # atno 17320 bound_to 7965
  145.7323  139.1740  143.2423 LP  0  0  0  0  0  0  0  0  0  0  0  0  # atno 17321 bound_to 7965
  140.7498  143.6288  150.8443 LP  0  0  0  0  0  0  0  0  0  0  0  0  # atno 17342 bound_to 10162
  139.9927  143.5829  152.2904 LP  0  0  0  0  0  0  0  0  0  0  0  0  # atno 17343 bound_to 10162
  157.4708  130.7707  149.7321 LP  0  0  0  0  0  0  0  0  0  0  0  0  # atno 17370 bound_to 10713
  155.9894  130.3952  150.3075 LP  0  0  0  0  0  0  0  0  0  0  0  0  # atno 17371 bound_to 10713
  141.1563  133.8876  157.1967 LP  0  0  0  0  0  0  0  0  0  0  0  0  # atno 17394 bound_to 11000
  139.9868  135.0079  156.9880 LP  0  0  0  0  0  0  0  0  0  0  0  0  # atno 17395 bound_to 11000

$$$$
