AV-unprocessed.smi:1087|AV-procd|sdf|4725|dock6
  -GOLD-   22720 3253D 1   1.00000     0.00000
 Structure written by MMmdl.
 47 48  0  0  0  0  0  0  0  0  2 V2000
  143.8063  132.5049  149.2014 C   0  0  0  0  0  0  0  0  0  0  0  0
  144.7325  131.7977  150.0075 O   0  0  0  0  0  0  0  0  0  0  0  0
  145.0635  132.4973  151.1954 C   0  0  0  0  0  0  0  0  0  0  0  0
  145.7084  133.8407  150.8198 C   0  0  0  0  0  0  0  0  0  0  0  0
  146.7254  134.2829  151.8080 N   0  3  2  0  0  0  0  0  0  0  0  0
  147.5449  133.1508  152.3123 C   0  0  0  0  0  0  0  0  0  0  0  0
  148.6784  133.6455  153.2260 C   0  0  0  0  0  0  0  0  0  0  0  0
  148.1297  134.4669  154.4042 C   0  0  1  0  0  0  0  0  0  0  0  0
  149.2684  134.9631  155.3225 C   0  0  0  0  0  0  0  0  0  0  0  0
  150.0411  136.0419  154.7167 N   0  0  0  0  0  0  0  0  0  0  0  0
  150.8832  136.8512  155.3760 C   0  0  0  0  0  0  0  0  0  0  0  0
  151.1439  136.7245  156.5730 O   0  0  0  0  0  0  0  0  0  0  0  0
  151.5294  137.9724  154.5517 C   0  0  0  0  0  0  0  0  0  0  0  0
  151.0732  139.3105  154.9609 N   0  0  0  0  0  0  0  0  0  0  0  0
  149.9643  139.8540  154.2909 C   0  0  0  0  0  0  0  0  0  0  0  0
  149.4980  141.0708  154.6065 C   0  0  0  0  0  0  0  0  0  0  0  0
  150.2073  141.7847  155.6760 C   0  0  0  0  0  0  0  0  0  0  0  0
  151.2202  141.2936  156.2868 N   0  0  0  0  0  0  0  0  0  0  0  0
  151.7090  140.0166  155.9525 C   0  0  0  0  0  0  0  0  0  0  0  0
  152.6858  139.5405  156.5323 O   0  0  0  0  0  0  0  0  0  0  0  0
  147.2605  135.6135  153.8511 C   0  0  0  0  0  0  0  0  0  0  0  0
  146.1544  135.0806  152.9256 C   0  0  0  0  0  0  0  0  0  0  0  0
  143.5854  131.9272  148.3039 H   0  0  0  0  0  0  0  0  0  0  0  0
  144.2103  133.4690  148.8895 H   0  0  0  0  0  0  0  0  0  0  0  0
  142.8685  132.6736  149.7323 H   0  0  0  0  0  0  0  0  0  0  0  0
  144.1816  132.6351  151.8209 H   0  0  0  0  0  0  0  0  0  0  0  0
  145.7746  131.9080  151.7759 H   0  0  0  0  0  0  0  0  0  0  0  0
  146.1627  133.7815  149.8298 H   0  0  0  0  0  0  0  0  0  0  0  0
  144.9147  134.5857  150.7482 H   0  0  0  0  0  0  0  0  0  0  0  0
  146.9059  132.4483  152.8503 H   0  0  0  0  0  0  0  0  0  0  0  0
  147.9783  132.6065  151.4724 H   0  0  0  0  0  0  0  0  0  0  0  0
  149.2450  132.7913  153.5989 H   0  0  0  0  0  0  0  0  0  0  0  0
  149.3772  134.2498  152.6458 H   0  0  0  0  0  0  0  0  0  0  0  0
  147.4846  133.8098  154.9898 H   0  0  0  0  0  0  0  0  0  0  0  0
  148.8666  135.2974  156.2805 H   0  0  0  0  0  0  0  0  0  0  0  0
  149.9526  134.1437  155.5453 H   0  0  0  0  0  0  0  0  0  0  0  0
  149.8980  136.2086  153.7310 H   0  0  0  0  0  0  0  0  0  0  0  0
  152.6122  137.8845  154.6498 H   0  0  0  0  0  0  0  0  0  0  0  0
  151.3226  137.8222  153.4903 H   0  0  0  0  0  0  0  0  0  0  0  0
  149.5336  139.2334  153.5188 H   0  0  0  0  0  0  0  0  0  0  0  0
  148.6542  141.5473  154.1300 H   0  0  0  0  0  0  0  0  0  0  0  0
  149.8114  142.7739  155.9200 H   0  0  0  0  0  0  0  0  0  0  0  0
  146.8008  136.1720  154.6670 H   0  0  0  0  0  0  0  0  0  0  0  0
  147.8850  136.3222  153.3054 H   0  0  0  0  0  0  0  0  0  0  0  0
  145.5855  135.9255  152.5395 H   0  0  0  0  0  0  0  0  0  0  0  0
  145.4563  134.4650  153.4956 H   0  0  0  0  0  0  0  0  0  0  0  0
  147.3613  134.8878  151.3078 H   0  0  0  0  0  0  0  0  0  0  0  0
  1  2  1  0  0  0  0
  1 23  1  0  0  0  0
  1 24  1  0  0  0  0
  1 25  1  0  0  0  0
  2  3  1  0  0  0  0
  3  4  1  0  0  0  0
  3 26  1  0  0  0  0
  3 27  1  0  0  0  0
  4  5  1  0  0  0  0
  4 28  1  0  0  0  0
  4 29  1  0  0  0  0
  5 22  1  0  0  0  0
  5  6  1  0  0  0  0
  5 47  1  0  0  0  0
  6  7  1  0  0  0  0
  6 30  1  0  0  0  0
  6 31  1  0  0  0  0
  7  8  1  0  0  0  0
  7 32  1  0  0  0  0
  7 33  1  0  0  0  0
  8  9  1  0  0  0  0
  8 21  1  0  0  0  0
  8 34  1  0  0  0  0
  9 10  1  0  0  0  0
  9 35  1  0  0  0  0
  9 36  1  0  0  0  0
 10 11  1  0  0  0  0
 10 37  1  0  0  0  0
 11 12  2  0  0  0  0
 11 13  1  0  0  0  0
 13 14  1  0  0  0  0
 13 38  1  0  0  0  0
 13 39  1  0  0  0  0
 14 19  1  0  0  0  0
 14 15  1  0  0  0  0
 15 16  2  0  0  0  0
 15 40  1  0  0  0  0
 16 17  1  0  0  0  0
 16 41  1  0  0  0  0
 17 18  2  0  0  0  0
 17 42  1  0  0  0  0
 18 19  1  0  0  0  0
 19 20  2  0  0  0  0
 21 22  1  0  0  0  0
 21 43  1  0  0  0  0
 21 44  1  0  0  0  0
 22 45  1  0  0  0  0
 22 46  1  0  0  0  0
M  CHG  1   5   1
M  END
> <s_m_source_file>
AV-unprocessed.smi

> <i_m_source_file_index>
1087

> <i_lp_mmshare_version>
43012

> <i_f3d_flags>
0

> <s_epik_input>
W0NIM11PW0NIMl1bQ0gyXU4xW0NIMl1bQ0gyXVtDSF0oW0NIMl1bQ0gyXTEpW0NIMl1bTkhdQyg9TylbQ0gyXW4yW2NIXVtjSF1bY0hdbmMyPU8=

> <s_epik_cmdline>
J2VwaWtfcHl0aG9uJywgJy1waCcsICc3LjAnLCAnLXRuJywgJzgnLCAnLW1hJywgJzIwMCcsICctbWV0YWxfYmluZGluZycsICctaW1hZScsICc8aW5maWxlLm1hZT4nLCAnLW9tYWUnLCAnPG91dGZpbGUubWFlPic=

> <r_lp_tautomer_probability>
1

> <r_epik_Ionization_Penalty>
0.00982698

> <r_epik_Ionization_Penalty_Charging>
0.00982062

> <r_epik_Ionization_Penalty_Neutral>
6.35787e-06

> <r_epik_State_Penalty>
0.00747828

> <r_epik_Charging_Adjusted_Penalty>
0.0172989

> <i_epik_Tot_Q>
1

> <i_epik_Tot_abs_Q>
1

> <r_epik_Metal_State_Penalty>
0.00747829

> <b_epik_Metal_Only>
0

> <s_lp_Force_Field>
OPLS_2005

> <r_lp_Energy>
21.8948

> <b_lp_Chiralities_Consistent>
1

> <s_lp_Variant>
AV-unprocessed.smi:1087-1

> <Gold.Version>
5.8.1

> <Gold.Id.Protein>
6NUR|6NUR_protein|mol2

> <Gold.PLP.Fitness>
49.1148

> <Gold.PLP.PLP>
-36.7201

> <Gold.PLP.part.hbond>
-3.2682

> <Gold.PLP.part.metal>
0.0000

> <Gold.PLP.part.buried>
3.9086

> <Gold.PLP.part.nonpolar>
-34.9497

> <Gold.PLP.part.repulsive>
0.2779

> <Gold.PLP.ligand.clash>
0.0000

> <Gold.PLP.ligand.torsion>
1.0658

> <Gold.PLP.Chemscore.Hbond>
3.0899

> <Gold.PLP.Chemscore.CHOScore>
1.7209

> <Gold.PLP.Chemscore.Metal>
0.0000

> <Gold.Chemscore.Hbonds>
donor molecule, donor type, donor heavy atom, donor atom, acceptor molecule, acceptor atom, score
      L1  H     5    47       P1  7948  1.24
      L1  H    10    37       P1  7948  0.85
      P1  H  7997  8009       L1    20  1.00
      L1  C    15    40       P1  7957  0.78
      L1  C    17    42       P1  8028  1.00

> <Gold.PLP.Chemscore.Internal.Correction>
0.0940

> <Gold.Rescore>
     Score         DG    S(hbond)    S(metal)    S(lipo)     H(rot)  DE(clash)    DE(int)     intcor
     12.64     -13.81       1.77        0.00      74.15       2.45       0.13       1.04       ----

> <Gold.Chemscore.Fitness>
12.6387

> <Gold.Chemscore.DG>
-13.8140

> <Gold.Chemscore.ZeroCoef>
-5.4800

> <Gold.Chemscore.Hbond>
1.7721

> <Gold.Chemscore.Metal>
0.0000

> <Gold.Chemscore.Lipo>
74.1507

> <Gold.Chemscore.Internal_Hbond>
0.0000

> <Gold.Chemscore.DEClash>
0.1326

> <Gold.Chemscore.DEInternal>
1.0427

> <Gold.Chemscore.Rot>
2.4454

> <Gold.Chemscore.Internal.Correction>
   9.000000E+99

> <Gold.Chemscore.Hbonds>
donor molecule, donor type, donor heavy atom, donor atom, acceptor molecule, acceptor atom, score
      L1  H     5    47       P1  7948  0.27
      L1  H    10    37       P1  7948  0.16
      P1  H  7997  8009       L1    20  1.00

> <Gold.Chemscore.Hbond.Weighted>
-5.9187

> <Gold.Chemscore.Metal.Weighted>
-0.0000

> <Gold.Chemscore.Lipo.Weighted>
-8.6756

> <Gold.Chemscore.Internal_Hbond.Weighted>
0.0000

> <Gold.Chemscore.DEClash.Weighted>
0.1326

> <Gold.Chemscore.DEInternal.Weighted>
1.0427

> <Gold.Chemscore.Rot.Weighted>
6.2603

> <Gold.Chemscore.Internal.Correction.Weighted>
   9.000000E+99

> <Gold.Protein.RotatedTorsions>
[ 6907 6896 6895 6894 ] final -104.30 input  -60.11 | X-H torsion
[ 7974 7965 7964 7962 ] final  106.24 input  175.53 | X-H torsion
[ 8008 7997 7996 7995 ] final -166.47 input   59.86 | X-H torsion
[ 10167 10162 10161 10158 ] final  130.15 input  -65.29 | X-H torsion
[ 10718 10713 10712 10709 ] final  144.37 input   66.30 | X-H torsion
[ 10763 10752 10751 10750 ] final   82.19 input  -60.55 | X-H torsion
[ 11005 11000 10999 10996 ] final  153.77 input  -57.11 | X-H torsion

> <Gold.Protein.ActiveResidues>
 VAL166  LYS551  ARG553  GLY616  TRP617  ASP618  TYR619  PRO620  LYS621  CYS622 
 ASP623  PHE694  ASN695  SER759  ASP760  ASP761  ALA762  ILE779  LEU786  VAL792 
 PHE793  MET794  SER795  GLU796  ALA797  LYS798  CYS799  TRP800  GLU811  SER814 

> <Gold.Protein.RotatedAtoms>
  150.7281  134.0298  159.3729 H   0  0  0  0  0  0  0  0  0  0  0  0  # atno 6907 bound_to 6896
  151.8267  135.0632  160.0441 H   0  0  0  0  0  0  0  0  0  0  0  0  # atno 6908 bound_to 6896
  152.2963  133.5575  159.5626 H   0  0  0  0  0  0  0  0  0  0  0  0  # atno 6909 bound_to 6896
  145.3092  139.2545  143.3772 H   0  0  0  0  0  0  0  0  0  0  0  0  # atno 7974 bound_to 7965
  155.8643  140.0983  157.1592 H   0  0  0  0  0  0  0  0  0  0  0  0  # atno 8008 bound_to 7997
  154.3992  140.1359  156.4062 H   0  0  0  0  0  0  0  0  0  0  0  0  # atno 8009 bound_to 7997
  155.7821  140.3458  155.5305 H   0  0  0  0  0  0  0  0  0  0  0  0  # atno 8010 bound_to 7997
  139.5444  144.6760  151.4522 H   0  0  0  0  0  0  0  0  0  0  0  0  # atno 10167 bound_to 10162
  157.3580  131.0961  151.0941 H   0  0  0  0  0  0  0  0  0  0  0  0  # atno 10718 bound_to 10713
  153.1182  135.4737  154.9150 H   0  0  0  0  0  0  0  0  0  0  0  0  # atno 10763 bound_to 10752
  154.7549  135.3116  154.8491 H   0  0  0  0  0  0  0  0  0  0  0  0  # atno 10764 bound_to 10752
  153.9062  135.6870  153.4806 H   0  0  0  0  0  0  0  0  0  0  0  0  # atno 10765 bound_to 10752
  140.1428  134.8728  157.2353 H   0  0  0  0  0  0  0  0  0  0  0  0  # atno 11005 bound_to 11000
  146.3124  140.3624  142.8666 LP  0  0  0  0  0  0  0  0  0  0  0  0  # atno 17320 bound_to 7965
  144.9029  140.7665  143.5855 LP  0  0  0  0  0  0  0  0  0  0  0  0  # atno 17321 bound_to 7965
  140.6686  143.8343  150.6972 LP  0  0  0  0  0  0  0  0  0  0  0  0  # atno 17342 bound_to 10162
  140.1760  143.4154  152.1967 LP  0  0  0  0  0  0  0  0  0  0  0  0  # atno 17343 bound_to 10162
  157.2092  130.6430  149.5767 LP  0  0  0  0  0  0  0  0  0  0  0  0  # atno 17370 bound_to 10713
  155.9732  130.4665  150.6293 LP  0  0  0  0  0  0  0  0  0  0  0  0  # atno 17371 bound_to 10713
  140.2701  134.3470  155.7376 LP  0  0  0  0  0  0  0  0  0  0  0  0  # atno 17394 bound_to 11000
  141.2188  133.7418  156.9210 LP  0  0  0  0  0  0  0  0  0  0  0  0  # atno 17395 bound_to 11000

$$$$
