AV-unprocessed.smi:95|AV-procd|sdf|858|dock7
  -GOLD-   2262017303D 1   1.00000     0.00000
 Structure written by MMmdl.
 42 45  0  0  0  0  0  0  0  0  2 V2000
  154.0100  137.3852  161.4037 O   0  0  0  0  0  0  0  0  0  0  0  0
  154.3671  137.9238  162.4533 C   0  0  0  0  0  0  0  0  0  0  0  0
  154.3967  137.2399  163.7404 C   0  0  0  0  0  0  0  0  0  0  0  0
  154.0412  135.9462  163.8132 F   0  0  0  0  0  0  0  0  0  0  0  0
  154.7978  137.8791  164.8606 C   0  0  0  0  0  0  0  0  0  0  0  0
  155.1818  139.2111  164.8807 N   0  0  0  0  0  0  0  0  0  0  0  0
  155.7299  139.8652  166.1333 C   0  0  1  0  0  0  0  0  0  0  0  0
  155.0119  141.1654  166.5358 C   0  0  0  0  0  0  0  0  0  0  0  0
  154.1620  140.7158  167.7083 C   0  0  0  0  0  0  0  0  0  0  0  0
  155.0256  139.6127  168.3074 C   0  0  0  0  0  0  0  0  0  0  0  0
  155.5831  138.9509  167.1790 O   0  0  0  0  0  0  0  0  0  0  0  0
  155.2524  139.9276  163.6639 C   0  0  0  0  0  0  0  0  0  0  0  0
  155.6951  141.0781  163.6315 O   0  0  0  0  0  0  0  0  0  0  0  0
  154.8086  139.2677  162.4927 N   0  0  0  0  0  0  0  0  0  0  0  0
  154.8585  139.9832  161.2281 C   0  0  0  0  0  0  0  0  0  0  0  0
  153.9659  141.2138  161.1592 C   0  0  0  0  0  0  0  0  0  0  0  0
  153.2956  141.7392  162.2864 C   0  0  0  0  0  0  0  0  0  0  0  0
  152.4959  142.8908  162.1398 C   0  0  0  0  0  0  0  0  0  0  0  0
  152.3807  143.4932  160.8690 C   0  0  0  0  0  0  0  0  0  0  0  0
  151.5908  144.6457  160.6802 C   0  0  0  0  0  0  0  0  0  0  0  0
  151.4912  145.2275  159.4004 C   0  0  0  0  0  0  0  0  0  0  0  0
  152.1787  144.6614  158.3080 C   0  0  0  0  0  0  0  0  0  0  0  0
  152.9705  143.5101  158.4897 C   0  0  0  0  0  0  0  0  0  0  0  0
  153.0717  142.9269  159.7683 C   0  0  0  0  0  0  0  0  0  0  0  0
  153.8273  141.8230  159.9599 N   0  3  0  0  0  0  0  0  0  0  0  0
  154.8212  137.3008  165.7703 H   0  0  0  0  0  0  0  0  0  0  0  0
  156.7841  140.0639  165.9336 H   0  0  0  0  0  0  0  0  0  0  0  0
  155.7657  141.8749  166.8798 H   0  0  0  0  0  0  0  0  0  0  0  0
  154.4638  141.6329  165.7180 H   0  0  0  0  0  0  0  0  0  0  0  0
  153.9489  141.5194  168.4137 H   0  0  0  0  0  0  0  0  0  0  0  0
  153.2130  140.3041  167.3645 H   0  0  0  0  0  0  0  0  0  0  0  0
  155.8320  140.0394  168.9058 H   0  0  0  0  0  0  0  0  0  0  0  0
  154.4586  138.9260  168.9362 H   0  0  0  0  0  0  0  0  0  0  0  0
  155.9055  140.2432  161.0582 H   0  0  0  0  0  0  0  0  0  0  0  0
  154.6105  139.2953  160.4195 H   0  0  0  0  0  0  0  0  0  0  0  0
  153.3900  141.2696  163.2546 H   0  0  0  0  0  0  0  0  0  0  0  0
  151.9795  143.3027  162.9947 H   0  0  0  0  0  0  0  0  0  0  0  0
  151.0598  145.0870  161.5114 H   0  0  0  0  0  0  0  0  0  0  0  0
  150.8855  146.1103  159.2559 H   0  0  0  0  0  0  0  0  0  0  0  0
  152.0982  145.1114  157.3293 H   0  0  0  0  0  0  0  0  0  0  0  0
  153.4950  143.0820  157.6477 H   0  0  0  0  0  0  0  0  0  0  0  0
  154.3216  141.4303  159.1588 H   0  0  0  0  0  0  0  0  0  0  0  0
  1  2  2  0  0  0  0
  2 14  1  0  0  0  0
  2  3  1  0  0  0  0
  3  4  1  0  0  0  0
  3  5  2  0  0  0  0
  5  6  1  0  0  0  0
  5 26  1  0  0  0  0
  6  7  1  0  0  0  0
  6 12  1  0  0  0  0
  7 11  1  0  0  0  0
  7  8  1  0  0  0  0
  7 27  1  0  0  0  0
  8  9  1  0  0  0  0
  8 28  1  0  0  0  0
  8 29  1  0  0  0  0
  9 10  1  0  0  0  0
  9 30  1  0  0  0  0
  9 31  1  0  0  0  0
 10 11  1  0  0  0  0
 10 32  1  0  0  0  0
 10 33  1  0  0  0  0
 12 13  2  0  0  0  0
 12 14  1  0  0  0  0
 14 15  1  0  0  0  0
 15 16  1  0  0  0  0
 15 34  1  0  0  0  0
 15 35  1  0  0  0  0
 16 25  1  0  0  0  0
 16 17  2  0  0  0  0
 17 18  1  0  0  0  0
 17 36  1  0  0  0  0
 18 19  2  0  0  0  0
 18 37  1  0  0  0  0
 19 24  1  0  0  0  0
 19 20  1  0  0  0  0
 20 21  2  0  0  0  0
 20 38  1  0  0  0  0
 21 22  1  0  0  0  0
 21 39  1  0  0  0  0
 22 23  2  0  0  0  0
 22 40  1  0  0  0  0
 23 24  1  0  0  0  0
 23 41  1  0  0  0  0
 24 25  2  0  0  0  0
 25 42  1  0  0  0  0
M  CHG  1  25   1
M  END
> <s_m_source_file>
AV-unprocessed.smi

> <i_m_source_file_index>
95

> <i_lp_mmshare_version>
43012

> <i_f3d_flags>
0

> <s_epik_input>
TzFbQ0gyXVtDSDJdW0NIMl1bQ0BIXTFuKFtjSF1jKEYpYzI9TyljKD1PKW4yW0NIMl1jKFtjSF1bY0hdMyluYyhjMzQpW2NIXVtjSF1bY0hdW2NIXTQ=

> <s_epik_cmdline>
J2VwaWtfcHl0aG9uJywgJy1waCcsICc3LjAnLCAnLXRuJywgJzgnLCAnLW1hJywgJzIwMCcsICctbWV0YWxfYmluZGluZycsICctaW1hZScsICc8aW5maWxlLm1hZT4nLCAnLW9tYWUnLCAnPG91dGZpbGUubWFlPic=

> <r_lp_tautomer_probability>
1

> <r_epik_Ionization_Penalty>
1.83445

> <r_epik_Ionization_Penalty_Charging>
1.83445

> <r_epik_Ionization_Penalty_Neutral>
6.33322e-12

> <r_epik_State_Penalty>
1.95069

> <r_epik_Charging_Adjusted_Penalty>
3.78513

> <i_epik_Tot_Q>
1

> <i_epik_Tot_abs_Q>
1

> <r_epik_Metal_State_Penalty>
6.02102

> <b_epik_Metal_Only>
0

> <s_epik_Chemistry_Notes>
This compound contains an acetal/aminal-like group ( X-CH(R)-Y where X, Y are N, S, or O) that may be acid/base labile, releasing an aldehyde.

> <s_lp_Force_Field>
OPLS_2005

> <r_lp_Energy>
36.6829

> <b_lp_Chiralities_Consistent>
1

> <s_lp_Variant>
AV-unprocessed.smi:95-4

> <Gold.Version>
5.8.1

> <Gold.Id.Protein>
6NUR|6NUR_protein|mol2

> <Gold.PLP.Fitness>
63.2287

> <Gold.PLP.PLP>
-63.4122

> <Gold.PLP.part.hbond>
-0.6796

> <Gold.PLP.part.metal>
0.0000

> <Gold.PLP.part.buried>
-8.1936

> <Gold.PLP.part.nonpolar>
-54.8706

> <Gold.PLP.part.repulsive>
0.1205

> <Gold.PLP.ligand.clash>
0.0000

> <Gold.PLP.ligand.torsion>
0.1383

> <Gold.PLP.Chemscore.Hbond>
0.0000

> <Gold.PLP.Chemscore.CHOScore>
0.0000

> <Gold.PLP.Chemscore.Metal>
0.0000

> <Gold.PLP.Chemscore.Internal.Correction>
0.0930

> <Gold.Rescore>
     Score         DG    S(hbond)    S(metal)    S(lipo)     H(rot)  DE(clash)    DE(int)     intcor
     15.48     -17.55       0.00        0.00     136.84       1.54       1.92       0.14       ----

> <Gold.Chemscore.Fitness>
15.4803

> <Gold.Chemscore.DG>
-17.5460

> <Gold.Chemscore.ZeroCoef>
-5.4800

> <Gold.Chemscore.Hbond>
0.0000

> <Gold.Chemscore.Metal>
0.0000

> <Gold.Chemscore.Lipo>
136.8396

> <Gold.Chemscore.Internal_Hbond>
0.0000

> <Gold.Chemscore.DEClash>
1.9210

> <Gold.Chemscore.DEInternal>
0.1446

> <Gold.Chemscore.Rot>
1.5407

> <Gold.Chemscore.Internal.Correction>
   9.000000E+99

> <Gold.Chemscore.Hbond.Weighted>
-0.0000

> <Gold.Chemscore.Metal.Weighted>
-0.0000

> <Gold.Chemscore.Lipo.Weighted>
-16.0102

> <Gold.Chemscore.Internal_Hbond.Weighted>
0.0000

> <Gold.Chemscore.DEClash.Weighted>
1.9210

> <Gold.Chemscore.DEInternal.Weighted>
0.1446

> <Gold.Chemscore.Rot.Weighted>
3.9443

> <Gold.Chemscore.Internal.Correction.Weighted>
   9.000000E+99

> <Gold.Protein.RotatedTorsions>
[ 6907 6896 6895 6894 ] final  -80.06 input  -60.11 | X-H torsion
[ 7974 7965 7964 7962 ] final  100.99 input  175.53 | X-H torsion
[ 8008 7997 7996 7995 ] final   60.10 input   59.86 | X-H torsion
[ 10167 10162 10161 10158 ] final  -24.65 input  -65.29 | X-H torsion
[ 10718 10713 10712 10709 ] final -167.68 input   66.30 | X-H torsion
[ 10763 10752 10751 10750 ] final -134.32 input  -60.55 | X-H torsion
[ 11005 11000 10999 10996 ] final  -53.11 input  -57.11 | X-H torsion

> <Gold.Protein.ActiveResidues>
 VAL166  LYS551  ARG553  GLY616  TRP617  ASP618  TYR619  PRO620  LYS621  CYS622 
 ASP623  PHE694  ASN695  SER759  ASP760  ASP761  ALA762  ILE779  LEU786  VAL792 
 PHE793  MET794  SER795  GLU796  ALA797  LYS798  CYS799  TRP800  GLU811  SER814 

> <Gold.Protein.RotatedAtoms>
  150.6937  134.4026  159.5125 H   0  0  0  0  0  0  0  0  0  0  0  0  # atno 6907 bound_to 6896
  152.1797  134.8761  160.0536 H   0  0  0  0  0  0  0  0  0  0  0  0  # atno 6908 bound_to 6896
  151.9757  133.3706  159.4125 H   0  0  0  0  0  0  0  0  0  0  0  0  # atno 6909 bound_to 6896
  145.3782  139.2385  143.3418 H   0  0  0  0  0  0  0  0  0  0  0  0  # atno 7974 bound_to 7965
  155.5769  140.3491  155.4530 H   0  0  0  0  0  0  0  0  0  0  0  0  # atno 8008 bound_to 7997
  156.0402  140.1294  157.0189 H   0  0  0  0  0  0  0  0  0  0  0  0  # atno 8009 bound_to 7997
  154.4388  140.1025  156.6211 H   0  0  0  0  0  0  0  0  0  0  0  0  # atno 8010 bound_to 7997
  140.7288  143.4334  151.0766 H   0  0  0  0  0  0  0  0  0  0  0  0  # atno 10167 bound_to 10162
  156.6859  130.9140  151.3063 H   0  0  0  0  0  0  0  0  0  0  0  0  # atno 10718 bound_to 10713
  154.8721  135.3738  154.4717 H   0  0  0  0  0  0  0  0  0  0  0  0  # atno 10763 bound_to 10752
  153.5377  135.7027  153.5657 H   0  0  0  0  0  0  0  0  0  0  0  0  # atno 10764 bound_to 10752
  153.3833  135.3991  155.1837 H   0  0  0  0  0  0  0  0  0  0  0  0  # atno 10765 bound_to 10752
  141.0959  133.6625  156.4124 H   0  0  0  0  0  0  0  0  0  0  0  0  # atno 11005 bound_to 11000
  146.2854  140.4445  142.8760 LP  0  0  0  0  0  0  0  0  0  0  0  0  # atno 17320 bound_to 7965
  144.8527  140.7025  143.6158 LP  0  0  0  0  0  0  0  0  0  0  0  0  # atno 17321 bound_to 7965
  139.7994  143.8106  152.3161 LP  0  0  0  0  0  0  0  0  0  0  0  0  # atno 17342 bound_to 10162
  139.8117  144.7333  150.9688 LP  0  0  0  0  0  0  0  0  0  0  0  0  # atno 17343 bound_to 10162
  157.7027  130.9350  150.0833 LP  0  0  0  0  0  0  0  0  0  0  0  0  # atno 17370 bound_to 10713
  156.1833  130.3651  149.9006 LP  0  0  0  0  0  0  0  0  0  0  0  0  # atno 17371 bound_to 10713
  140.5141  134.6367  157.5295 LP  0  0  0  0  0  0  0  0  0  0  0  0  # atno 17394 bound_to 11000
  139.9796  134.7159  155.9885 LP  0  0  0  0  0  0  0  0  0  0  0  0  # atno 17395 bound_to 11000

$$$$
