AV-unprocessed.smi:1762|AV-procd|sdf|7122|dock8
  -GOLD-   22720 8353D 1   1.00000     0.00000
 Structure written by MMmdl.
 52 53  0  0  0  0  0  0  0  0  3 V2000
  149.5857  141.3889  154.9667 C   0  0  0  0  0  0  0  0  0  0  0  0
  150.0309  139.9365  155.1688 C   0  0  1  0  0  0  0  0  0  0  0  0
  149.2592  138.9633  154.2515 C   0  0  0  0  0  0  0  0  0  0  0  0
  149.7594  137.5653  154.3962 N   0  3  2  0  0  0  0  0  0  0  0  0
  149.3209  136.8615  155.6524 C   0  0  1  0  0  0  0  0  0  0  0  0
  147.7766  136.8402  155.7609 C   0  0  0  0  0  0  0  0  0  0  0  0
  147.1358  136.1950  154.9238 O   0  0  0  0  0  0  0  0  0  0  0  0
  147.3428  137.6019  156.8029 N   0  5  0  0  0  0  0  0  0  0  0  0
  146.8940  137.0444  158.0755 C   0  0  0  0  0  0  0  0  0  0  0  0
  147.9544  137.3042  159.1674 C   0  0  0  0  0  0  0  0  0  0  0  0
  147.7426  136.5000  160.4464 C   0  0  0  0  0  0  0  0  0  0  0  0
  147.7276  135.0867  160.4133 C   0  0  0  0  0  0  0  0  0  0  0  0
  147.5237  134.3850  161.6169 C   0  0  0  0  0  0  0  0  0  0  0  0
  147.3388  135.1160  162.8059 C   0  0  0  0  0  0  0  0  0  0  0  0
  147.3625  136.5230  162.7372 C   0  0  0  0  0  0  0  0  0  0  0  0
  147.5551  137.2060  161.5886 N   0  0  0  0  0  0  0  0  0  0  0  0
  149.9222  135.4261  155.8313 C   0  0  0  0  0  0  0  0  0  0  0  0
  149.5982  134.4469  154.6838 C   0  0  0  0  0  0  0  0  0  0  0  0
  149.5685  134.7884  157.1895 C   0  0  0  0  0  0  0  0  0  0  0  0
  151.2220  137.5704  154.1201 C   0  0  0  0  0  0  0  0  0  0  0  0
  151.9625  138.5516  155.0520 C   0  0  1  0  0  0  0  0  0  0  0  0
  153.4621  138.6152  154.7438 C   0  0  0  0  0  0  0  0  0  0  0  0
  151.4214  139.8566  154.8696 O   0  0  0  0  0  0  0  0  0  0  0  0
  148.5251  141.5072  155.1903 H   0  0  0  0  0  0  0  0  0  0  0  0
  149.7505  141.7140  153.9391 H   0  0  0  0  0  0  0  0  0  0  0  0
  150.1398  142.0611  155.6223 H   0  0  0  0  0  0  0  0  0  0  0  0
  149.8729  139.6791  156.2167 H   0  0  0  0  0  0  0  0  0  0  0  0
  148.1870  139.0409  154.4282 H   0  0  0  0  0  0  0  0  0  0  0  0
  149.3983  139.2647  153.2123 H   0  0  0  0  0  0  0  0  0  0  0  0
  149.7187  137.4428  156.4855 H   0  0  0  0  0  0  0  0  0  0  0  0
  145.9467  137.4844  158.3894 H   0  0  0  0  0  0  0  0  0  0  0  0
  146.7165  135.9706  158.0025 H   0  0  0  0  0  0  0  0  0  0  0  0
  148.9480  137.0778  158.7771 H   0  0  0  0  0  0  0  0  0  0  0  0
  147.9671  138.3644  159.4238 H   0  0  0  0  0  0  0  0  0  0  0  0
  147.8748  134.5526  159.4860 H   0  0  0  0  0  0  0  0  0  0  0  0
  147.5102  133.3052  161.6279 H   0  0  0  0  0  0  0  0  0  0  0  0
  147.1824  134.6109  163.7474 H   0  0  0  0  0  0  0  0  0  0  0  0
  147.2229  137.1159  163.6290 H   0  0  0  0  0  0  0  0  0  0  0  0
  151.0058  135.5295  155.8674 H   0  0  0  0  0  0  0  0  0  0  0  0
  148.5419  134.1794  154.6645 H   0  0  0  0  0  0  0  0  0  0  0  0
  150.1603  133.5199  154.7988 H   0  0  0  0  0  0  0  0  0  0  0  0
  149.8534  134.8596  153.7085 H   0  0  0  0  0  0  0  0  0  0  0  0
  148.5087  134.5423  157.2629 H   0  0  0  0  0  0  0  0  0  0  0  0
  149.8130  135.4586  158.0142 H   0  0  0  0  0  0  0  0  0  0  0  0
  150.1267  133.8644  157.3434 H   0  0  0  0  0  0  0  0  0  0  0  0
  151.6594  136.5755  154.1626 H   0  0  0  0  0  0  0  0  0  0  0  0
  151.3643  137.8887  153.0863 H   0  0  0  0  0  0  0  0  0  0  0  0
  151.8405  138.2505  156.0935 H   0  0  0  0  0  0  0  0  0  0  0  0
  153.9303  137.6387  154.8702 H   0  0  0  0  0  0  0  0  0  0  0  0
  153.9673  139.3148  155.4101 H   0  0  0  0  0  0  0  0  0  0  0  0
  153.6419  138.9427  153.7193 H   0  0  0  0  0  0  0  0  0  0  0  0
  149.3316  137.0357  153.6499 H   0  0  0  0  0  0  0  0  0  0  0  0
  1  2  1  0  0  0  0
  1 24  1  0  0  0  0
  1 25  1  0  0  0  0
  1 26  1  0  0  0  0
  2 23  1  0  0  0  0
  2  3  1  0  0  0  0
  2 27  1  0  0  0  0
  3  4  1  0  0  0  0
  3 28  1  0  0  0  0
  3 29  1  0  0  0  0
  4  5  1  0  0  0  0
  4 20  1  0  0  0  0
  4 52  1  0  0  0  0
  5  6  1  0  0  0  0
  5 17  1  0  0  0  0
  5 30  1  0  0  0  0
  6  7  2  0  0  0  0
  6  8  1  0  0  0  0
  8  9  1  0  0  0  0
  9 10  1  0  0  0  0
  9 31  1  0  0  0  0
  9 32  1  0  0  0  0
 10 11  1  0  0  0  0
 10 33  1  0  0  0  0
 10 34  1  0  0  0  0
 11 16  1  0  0  0  0
 11 12  2  0  0  0  0
 12 13  1  0  0  0  0
 12 35  1  0  0  0  0
 13 14  2  0  0  0  0
 13 36  1  0  0  0  0
 14 15  1  0  0  0  0
 14 37  1  0  0  0  0
 15 16  2  0  0  0  0
 15 38  1  0  0  0  0
 17 18  1  0  0  0  0
 17 19  1  0  0  0  0
 17 39  1  0  0  0  0
 18 40  1  0  0  0  0
 18 41  1  0  0  0  0
 18 42  1  0  0  0  0
 19 43  1  0  0  0  0
 19 44  1  0  0  0  0
 19 45  1  0  0  0  0
 20 21  1  0  0  0  0
 20 46  1  0  0  0  0
 20 47  1  0  0  0  0
 21 22  1  0  0  0  0
 21 23  1  0  0  0  0
 21 48  1  0  0  0  0
 22 49  1  0  0  0  0
 22 50  1  0  0  0  0
 22 51  1  0  0  0  0
M  CHG  1   4   1
M  CHG  1   8  -1
M  END
> <s_m_source_file>
AV-unprocessed.smi

> <i_m_source_file_index>
1762

> <i_lp_mmshare_version>
43012

> <i_f3d_flags>
0

> <s_epik_input>
W0NIM11bQ0BASF0xW0NIMl1OKFtDSDJdW0NASF0oTzEpW0NIM10pW0NAQEhdKFtDSF0oW0NIM10pW0NIM10pQyg9TylbTkhdW0NIMl1bQ0gyXWMyW2NIXVtjSF1bY0hdW2NIXW4y

> <s_epik_cmdline>
J2VwaWtfcHl0aG9uJywgJy1waCcsICc3LjAnLCAnLXRuJywgJzgnLCAnLW1hJywgJzIwMCcsICctbWV0YWxfYmluZGluZycsICctaW1hZScsICc8aW5maWxlLm1hZT4nLCAnLW9tYWUnLCAnPG91dGZpbGUubWFlPic=

> <r_epik_Ionization_Penalty>
7.82966

> <r_epik_Ionization_Penalty_Charging>
7.7461

> <r_epik_Ionization_Penalty_Neutral>
0.0835571

> <r_epik_State_Penalty>
8.52273

> <r_epik_Charging_Adjusted_Penalty>
16.2688

> <i_epik_Tot_Q>
0

> <i_epik_Tot_abs_Q>
2

> <r_epik_Metal_State_Penalty>
4.47451

> <b_epik_Metal_Only>
1

> <s_lp_Force_Field>
OPLS_2005

> <r_lp_Energy>
22.3574

> <b_lp_Chiralities_Consistent>
1

> <s_lp_Variant>
AV-unprocessed.smi:1762-24

> <Gold.Version>
5.8.1

> <Gold.Id.Protein>
6NUR|6NUR_protein|mol2

> <Gold.PLP.Fitness>
55.0574

> <Gold.PLP.PLP>
-42.1736

> <Gold.PLP.part.hbond>
-4.0000

> <Gold.PLP.part.metal>
0.0000

> <Gold.PLP.part.buried>
-3.3256

> <Gold.PLP.part.nonpolar>
-35.9849

> <Gold.PLP.part.repulsive>
0.1540

> <Gold.PLP.ligand.clash>
0.0000

> <Gold.PLP.ligand.torsion>
0.9457

> <Gold.PLP.Chemscore.Hbond>
4.8080

> <Gold.PLP.Chemscore.CHOScore>
0.0000

> <Gold.PLP.Chemscore.Metal>
0.0000

> <Gold.Chemscore.Hbonds>
donor molecule, donor type, donor heavy atom, donor atom, acceptor molecule, acceptor atom, score
      L1  H     4    52       P1  7948  2.00
      P1  H  6931  6943       L1    16  0.96
      P1  H  6934  6947       L1    16  0.80
      P1  H  7989  7998       L1    23  1.00

> <Gold.PLP.Chemscore.Internal.Correction>
0.3512

> <Gold.Rescore>
     Score         DG    S(hbond)    S(metal)    S(lipo)     H(rot)  DE(clash)    DE(int)     intcor
     20.51     -22.66       2.72        0.00     104.21       1.60       0.18       1.98       ----

> <Gold.Chemscore.Fitness>
20.5104

> <Gold.Chemscore.DG>
-22.6623

> <Gold.Chemscore.ZeroCoef>
-5.4800

> <Gold.Chemscore.Hbond>
2.7213

> <Gold.Chemscore.Metal>
0.0000

> <Gold.Chemscore.Lipo>
104.2074

> <Gold.Chemscore.Internal_Hbond>
0.0000

> <Gold.Chemscore.DEClash>
0.1754

> <Gold.Chemscore.DEInternal>
1.9766

> <Gold.Chemscore.Rot>
1.6012

> <Gold.Chemscore.Internal.Correction>
   9.000000E+99

> <Gold.Chemscore.Hbonds>
donor molecule, donor type, donor heavy atom, donor atom, acceptor molecule, acceptor atom, score
      L1  H     4    52       P1  7948  0.94
      P1  H  6931  6943       L1    16  0.34
      P1  H  6934  6947       L1    16  0.35
      P1  H  7989  7998       L1    23  0.55

> <Gold.Chemscore.Hbond.Weighted>
-9.0890

> <Gold.Chemscore.Metal.Weighted>
-0.0000

> <Gold.Chemscore.Lipo.Weighted>
-12.1923

> <Gold.Chemscore.Internal_Hbond.Weighted>
0.0000

> <Gold.Chemscore.DEClash.Weighted>
0.1754

> <Gold.Chemscore.DEInternal.Weighted>
1.9766

> <Gold.Chemscore.Rot.Weighted>
4.0990

> <Gold.Chemscore.Internal.Correction.Weighted>
   9.000000E+99

> <Gold.Protein.RotatedTorsions>
[ 6907 6896 6895 6894 ] final -137.42 input  -60.11 | X-H torsion
[ 7974 7965 7964 7962 ] final   12.70 input  175.53 | X-H torsion
[ 8008 7997 7996 7995 ] final -136.81 input   59.86 | X-H torsion
[ 10167 10162 10161 10158 ] final   69.48 input  -65.29 | X-H torsion
[ 10718 10713 10712 10709 ] final   -2.89 input   66.30 | X-H torsion
[ 10763 10752 10751 10750 ] final   14.97 input  -60.55 | X-H torsion
[ 11005 11000 10999 10996 ] final  -16.66 input  -57.11 | X-H torsion

> <Gold.Protein.ActiveResidues>
 VAL166  LYS551  ARG553  GLY616  TRP617  ASP618  TYR619  PRO620  LYS621  CYS622 
 ASP623  PHE694  ASN695  SER759  ASP760  ASP761  ALA762  ILE779  LEU786  VAL792 
 PHE793  MET794  SER795  GLU796  ALA797  LYS798  CYS799  TRP800  GLU811  SER814 

> <Gold.Protein.RotatedAtoms>
  151.0223  133.5866  159.2669 H   0  0  0  0  0  0  0  0  0  0  0  0  # atno 6907 bound_to 6896
  151.2978  135.0759  159.9237 H   0  0  0  0  0  0  0  0  0  0  0  0  # atno 6908 bound_to 6896
  152.5326  133.9910  159.7905 H   0  0  0  0  0  0  0  0  0  0  0  0  # atno 6909 bound_to 6896
  146.2345  139.9297  142.8498 H   0  0  0  0  0  0  0  0  0  0  0  0  # atno 7974 bound_to 7965
  155.4014  140.0506  157.3036 H   0  0  0  0  0  0  0  0  0  0  0  0  # atno 8008 bound_to 7997
  154.4989  140.2149  155.9349 H   0  0  0  0  0  0  0  0  0  0  0  0  # atno 8009 bound_to 7997
  156.1441  140.3148  155.8548 H   0  0  0  0  0  0  0  0  0  0  0  0  # atno 8010 bound_to 7997
  140.0674  144.5182  150.7251 H   0  0  0  0  0  0  0  0  0  0  0  0  # atno 10167 bound_to 10162
  156.7842  130.5340  149.5746 H   0  0  0  0  0  0  0  0  0  0  0  0  # atno 10718 bound_to 10713
  153.1570  135.6789  153.8798 H   0  0  0  0  0  0  0  0  0  0  0  0  # atno 10763 bound_to 10752
  153.8206  135.3130  155.3411 H   0  0  0  0  0  0  0  0  0  0  0  0  # atno 10764 bound_to 10752
  154.7904  135.4838  154.0129 H   0  0  0  0  0  0  0  0  0  0  0  0  # atno 10765 bound_to 10752
  140.8090  133.8155  155.9544 H   0  0  0  0  0  0  0  0  0  0  0  0  # atno 11005 bound_to 11000
  145.2056  140.9873  143.4130 LP  0  0  0  0  0  0  0  0  0  0  0  0  # atno 17320 bound_to 7965
  144.9736  139.3855  143.6297 LP  0  0  0  0  0  0  0  0  0  0  0  0  # atno 17321 bound_to 7965
  140.7142  143.2530  151.4485 LP  0  0  0  0  0  0  0  0  0  0  0  0  # atno 17342 bound_to 10162
  139.5857  144.1610  152.2025 LP  0  0  0  0  0  0  0  0  0  0  0  0  # atno 17343 bound_to 10162
  156.1199  130.6102  151.0178 LP  0  0  0  0  0  0  0  0  0  0  0  0  # atno 17370 bound_to 10713
  157.6632  131.0877  150.7790 LP  0  0  0  0  0  0  0  0  0  0  0  0  # atno 17371 bound_to 10713
  140.9217  134.2133  157.4922 LP  0  0  0  0  0  0  0  0  0  0  0  0  # atno 17394 bound_to 11000
  139.8715  134.9795  156.5039 LP  0  0  0  0  0  0  0  0  0  0  0  0  # atno 17395 bound_to 11000

$$$$
