AV-unprocessed.smi:15|AV-procd|sdf|79|dock9
  -GOLD-   2262015213D 1   1.00000     0.00000
 Structure written by MMmdl.
 53 56  0  0  0  0  0  0  0  0  1 V2000
  153.4941  137.2984  159.4186 C   0  0  0  0  0  0  0  0  0  0  0  0
  152.0829  137.8903  159.5624 C   0  0  0  0  0  0  0  0  0  0  0  0
  151.6533  138.6594  158.3943 N   0  0  0  0  0  0  0  0  0  0  0  0
  152.2991  139.9527  158.1845 C   0  0  0  0  0  0  0  0  0  0  0  0
  151.6999  141.0518  159.0753 C   0  0  2  0  0  0  0  0  0  0  0  0
  151.0086  142.1761  158.3028 C   0  0  0  0  0  0  0  0  0  0  0  0
  151.1608  143.3889  159.2094 C   0  0  0  0  0  0  0  0  0  0  0  0
  152.1599  142.9370  160.2776 C   0  0  0  0  0  0  0  0  0  0  0  0
  152.7303  141.7431  159.7618 O   0  0  0  0  0  0  0  0  0  0  0  0
  151.5659  137.9450  157.2514 C   0  0  0  0  0  0  0  0  0  0  0  0
  152.0845  138.5002  156.1290 N   0  0  0  0  0  0  0  0  0  0  0  0
  152.0299  137.8351  154.9708 C   0  0  0  0  0  0  0  0  0  0  0  0
  151.5185  136.6265  154.7249 N   0  0  0  0  0  0  0  0  0  0  0  0
  151.0036  136.0647  155.8563 C   0  0  0  0  0  0  0  0  0  0  0  0
  150.9828  136.6512  157.1523 C   0  0  0  0  0  0  0  0  0  0  0  0
  150.3780  135.7871  158.0563 N   0  0  0  0  0  0  0  0  0  0  0  0
  150.0584  134.7475  157.3349 C   0  0  0  0  0  0  0  0  0  0  0  0
  150.4078  134.8243  156.0048 N   0  0  0  0  0  0  0  0  0  0  0  0
  150.1841  133.8105  154.9849 C   0  0  0  0  0  0  0  0  0  0  0  0
  148.7465  133.8316  154.4019 C   0  0  1  0  0  0  0  0  0  0  0  0
  148.4027  135.1801  154.1317 O   0  0  0  0  0  0  0  0  0  0  0  0
  148.6052  133.0436  153.1009 C   0  0  0  0  0  0  0  0  0  0  0  0
  147.1589  132.5746  153.1364 C   0  0  0  0  0  0  0  0  0  0  0  0
  146.9850  132.2397  154.5014 O   0  0  0  0  0  0  0  0  0  0  0  0
  147.6260  133.2316  155.2987 C   0  0  1  0  0  0  0  0  0  0  0  0
  148.0664  132.5679  156.6129 C   0  0  0  0  0  0  0  0  0  0  0  0
  153.7430  136.6858  160.2851 H   0  0  0  0  0  0  0  0  0  0  0  0
  154.2544  138.0760  159.3397 H   0  0  0  0  0  0  0  0  0  0  0  0
  153.5656  136.6658  158.5335 H   0  0  0  0  0  0  0  0  0  0  0  0
  151.3784  137.0754  159.7272 H   0  0  0  0  0  0  0  0  0  0  0  0
  152.0341  138.5168  160.4534 H   0  0  0  0  0  0  0  0  0  0  0  0
  153.3634  139.8506  158.3999 H   0  0  0  0  0  0  0  0  0  0  0  0
  152.2261  140.2578  157.1387 H   0  0  0  0  0  0  0  0  0  0  0  0
  151.0198  140.6294  159.8166 H   0  0  0  0  0  0  0  0  0  0  0  0
  151.5246  142.3607  157.3594 H   0  0  0  0  0  0  0  0  0  0  0  0
  149.9684  141.9436  158.0733 H   0  0  0  0  0  0  0  0  0  0  0  0
  151.5404  144.2419  158.6461 H   0  0  0  0  0  0  0  0  0  0  0  0
  150.2123  143.6808  159.6618 H   0  0  0  0  0  0  0  0  0  0  0  0
  152.9249  143.6864  160.4816 H   0  0  0  0  0  0  0  0  0  0  0  0
  151.6454  142.7125  161.2130 H   0  0  0  0  0  0  0  0  0  0  0  0
  152.4585  138.3435  154.1198 H   0  0  0  0  0  0  0  0  0  0  0  0
  149.5627  133.8863  157.7587 H   0  0  0  0  0  0  0  0  0  0  0  0
  150.9180  133.9747  154.1954 H   0  0  0  0  0  0  0  0  0  0  0  0
  150.4078  132.8343  155.4173 H   0  0  0  0  0  0  0  0  0  0  0  0
  148.9032  135.4740  153.3859 H   0  0  0  0  0  0  0  0  0  0  0  0
  148.8500  133.6172  152.2057 H   0  0  0  0  0  0  0  0  0  0  0  0
  149.2545  132.1674  153.1209 H   0  0  0  0  0  0  0  0  0  0  0  0
  146.4752  133.3789  152.8605 H   0  0  0  0  0  0  0  0  0  0  0  0
  146.9749  131.7205  152.4846 H   0  0  0  0  0  0  0  0  0  0  0  0
  146.8798  133.9933  155.5334 H   0  0  0  0  0  0  0  0  0  0  0  0
  148.5601  133.2806  157.2732 H   0  0  0  0  0  0  0  0  0  0  0  0
  148.7482  131.7363  156.4339 H   0  0  0  0  0  0  0  0  0  0  0  0
  147.2040  132.1710  157.1490 H   0  0  0  0  0  0  0  0  0  0  0  0
  1  2  1  0  0  0  0
  1 27  1  0  0  0  0
  1 28  1  0  0  0  0
  1 29  1  0  0  0  0
  2  3  1  0  0  0  0
  2 30  1  0  0  0  0
  2 31  1  0  0  0  0
  3  4  1  0  0  0  0
  3 10  1  0  0  0  0
  4  5  1  0  0  0  0
  4 32  1  0  0  0  0
  4 33  1  0  0  0  0
  5  9  1  0  0  0  0
  5  6  1  0  0  0  0
  5 34  1  0  0  0  0
  6  7  1  0  0  0  0
  6 35  1  0  0  0  0
  6 36  1  0  0  0  0
  7  8  1  0  0  0  0
  7 37  1  0  0  0  0
  7 38  1  0  0  0  0
  8  9  1  0  0  0  0
  8 39  1  0  0  0  0
  8 40  1  0  0  0  0
 10 15  1  0  0  0  0
 10 11  2  0  0  0  0
 11 12  1  0  0  0  0
 12 13  2  0  0  0  0
 12 41  1  0  0  0  0
 13 14  1  0  0  0  0
 14 18  1  0  0  0  0
 14 15  2  0  0  0  0
 15 16  1  0  0  0  0
 16 17  2  0  0  0  0
 17 18  1  0  0  0  0
 17 42  1  0  0  0  0
 18 19  1  0  0  0  0
 19 20  1  0  0  0  0
 19 43  1  0  0  0  0
 19 44  1  0  0  0  0
 20 25  1  0  0  0  0
 20 21  1  0  0  0  0
 20 22  1  0  0  0  0
 21 45  1  0  0  0  0
 22 23  1  0  0  0  0
 22 46  1  0  0  0  0
 22 47  1  0  0  0  0
 23 24  1  0  0  0  0
 23 48  1  0  0  0  0
 23 49  1  0  0  0  0
 24 25  1  0  0  0  0
 25 26  1  0  0  0  0
 25 50  1  0  0  0  0
 26 51  1  0  0  0  0
 26 52  1  0  0  0  0
 26 53  1  0  0  0  0
M  END
> <s_m_source_file>
AV-unprocessed.smi

> <i_m_source_file_index>
15

> <i_lp_mmshare_version>
43012

> <i_f3d_flags>
0

> <s_epik_input>
TzFbQ0gyXVtDSDJdW0NIMl1bQ0BIXTFbQ0gyXU4oW0NIMl1bQ0gzXSljKG5bY0hdbjIpYyhjMjMpbltjSF1uM1tDSDJdW0NAQF00KFtPSF0pW0NIMl1bQ0gyXU9bQ0BIXTRbQ0gzXQ==

> <s_epik_cmdline>
J2VwaWtfcHl0aG9uJywgJy1waCcsICc3LjAnLCAnLXRuJywgJzgnLCAnLW1hJywgJzIwMCcsICctbWV0YWxfYmluZGluZycsICctaW1hZScsICc8aW5maWxlLm1hZT4nLCAnLW9tYWUnLCAnPG91dGZpbGUubWFlPic=

> <r_lp_tautomer_probability>
1

> <r_epik_Ionization_Penalty>
0.00360814

> <r_epik_Ionization_Penalty_Charging>
0

> <r_epik_Ionization_Penalty_Neutral>
0.00360814

> <r_epik_State_Penalty>
0.00237482

> <r_epik_Charging_Adjusted_Penalty>
0.00237482

> <i_epik_Tot_Q>
0

> <i_epik_Tot_abs_Q>
0

> <r_epik_Metal_State_Penalty>
-0

> <b_epik_Metal_Only>
0

> <s_lp_Force_Field>
OPLS_2005

> <r_lp_Energy>
46.4206

> <b_lp_Chiralities_Consistent>
1

> <s_lp_Variant>
AV-unprocessed.smi:15-1

> <Gold.Version>
5.8.1

> <Gold.Id.Protein>
6NUR|6NUR_protein|mol2

> <Gold.PLP.Fitness>
38.9463

> <Gold.PLP.PLP>
-33.7692

> <Gold.PLP.part.hbond>
-2.8097

> <Gold.PLP.part.metal>
0.0000

> <Gold.PLP.part.buried>
-4.9259

> <Gold.PLP.part.nonpolar>
-27.1935

> <Gold.PLP.part.repulsive>
0.2272

> <Gold.PLP.ligand.clash>
0.0000

> <Gold.PLP.ligand.torsion>
1.7674

> <Gold.PLP.Chemscore.Hbond>
2.7520

> <Gold.PLP.Chemscore.CHOScore>
0.0000

> <Gold.PLP.Chemscore.Metal>
0.0000

> <Gold.Chemscore.Hbonds>
donor molecule, donor type, donor heavy atom, donor atom, acceptor molecule, acceptor atom, score
      L1  H    21    45       P1  7948  1.00
      P1  H  6896  6909       L1    16  0.65
      P1  H 10752 10764       L1    13  0.90

> <Gold.PLP.Chemscore.Internal.Correction>
0.4559

> <Gold.Rescore>
     Score         DG    S(hbond)    S(metal)    S(lipo)     H(rot)  DE(clash)    DE(int)     intcor
     10.46     -12.34       1.61        0.00      72.04       2.71       0.06       1.82       ----

> <Gold.Chemscore.Fitness>
10.4617

> <Gold.Chemscore.DG>
-12.3389

> <Gold.Chemscore.ZeroCoef>
-5.4800

> <Gold.Chemscore.Hbond>
1.6051

> <Gold.Chemscore.Metal>
0.0000

> <Gold.Chemscore.Lipo>
72.0395

> <Gold.Chemscore.Internal_Hbond>
0.0000

> <Gold.Chemscore.DEClash>
0.0557

> <Gold.Chemscore.DEInternal>
1.8214

> <Gold.Chemscore.Rot>
2.7074

> <Gold.Chemscore.Internal.Correction>
   9.000000E+99

> <Gold.Chemscore.Hbonds>
donor molecule, donor type, donor heavy atom, donor atom, acceptor molecule, acceptor atom, score
      L1  H    21    45       P1  7948  0.75
      P1  H  6896  6909       L1    16  0.15
      P1  H 10752 10764       L1    13  0.08

> <Gold.Chemscore.Hbond.Weighted>
-5.3611

> <Gold.Chemscore.Metal.Weighted>
-0.0000

> <Gold.Chemscore.Lipo.Weighted>
-8.4286

> <Gold.Chemscore.Internal_Hbond.Weighted>
0.0000

> <Gold.Chemscore.DEClash.Weighted>
0.0557

> <Gold.Chemscore.DEInternal.Weighted>
1.8214

> <Gold.Chemscore.Rot.Weighted>
6.9308

> <Gold.Chemscore.Internal.Correction.Weighted>
   9.000000E+99

> <Gold.Protein.RotatedTorsions>
[ 6907 6896 6895 6894 ] final   73.68 input  -60.11 | X-H torsion
[ 7974 7965 7964 7962 ] final  125.62 input  175.53 | X-H torsion
[ 8008 7997 7996 7995 ] final  143.28 input   59.86 | X-H torsion
[ 10167 10162 10161 10158 ] final -129.53 input  -65.29 | X-H torsion
[ 10718 10713 10712 10709 ] final  167.66 input   66.30 | X-H torsion
[ 10763 10752 10751 10750 ] final  -59.63 input  -60.55 | X-H torsion
[ 11005 11000 10999 10996 ] final   40.30 input  -57.11 | X-H torsion

> <Gold.Protein.ActiveResidues>
 VAL166  LYS551  ARG553  GLY616  TRP617  ASP618  TYR619  PRO620  LYS621  CYS622 
 ASP623  PHE694  ASN695  SER759  ASP760  ASP761  ALA762  ILE779  LEU786  VAL792 
 PHE793  MET794  SER795  GLU796  ALA797  LYS798  CYS799  TRP800  GLU811  SER814 

> <Gold.Protein.RotatedAtoms>
  152.4936  134.4386  159.9535 H   0  0  0  0  0  0  0  0  0  0  0  0  # atno 6907 bound_to 6896
  151.4368  133.3648  159.2784 H   0  0  0  0  0  0  0  0  0  0  0  0  # atno 6908 bound_to 6896
  150.9115  134.8556  159.7488 H   0  0  0  0  0  0  0  0  0  0  0  0  # atno 6909 bound_to 6896
  145.0710  139.3730  143.4957 H   0  0  0  0  0  0  0  0  0  0  0  0  # atno 7974 bound_to 7965
  156.2933  140.2266  156.4866 H   0  0  0  0  0  0  0  0  0  0  0  0  # atno 8008 bound_to 7997
  154.7807  140.0460  157.1146 H   0  0  0  0  0  0  0  0  0  0  0  0  # atno 8009 bound_to 7997
  154.9762  140.3072  155.4969 H   0  0  0  0  0  0  0  0  0  0  0  0  # atno 8010 bound_to 7997
  139.9388  143.6187  152.2509 H   0  0  0  0  0  0  0  0  0  0  0  0  # atno 10167 bound_to 10162
  157.0483  131.0306  151.2689 H   0  0  0  0  0  0  0  0  0  0  0  0  # atno 10718 bound_to 10713
  154.2567  135.6316  153.5260 H   0  0  0  0  0  0  0  0  0  0  0  0  # atno 10763 bound_to 10752
  152.9903  135.5578  154.5749 H   0  0  0  0  0  0  0  0  0  0  0  0  # atno 10764 bound_to 10752
  154.5288  135.2887  155.1173 H   0  0  0  0  0  0  0  0  0  0  0  0  # atno 10765 bound_to 10752
  140.1944  134.3947  155.8129 H   0  0  0  0  0  0  0  0  0  0  0  0  # atno 11005 bound_to 11000
  146.3528  140.0455  142.8640 LP  0  0  0  0  0  0  0  0  0  0  0  0  # atno 17320 bound_to 7965
  145.1293  140.9508  143.4554 LP  0  0  0  0  0  0  0  0  0  0  0  0  # atno 17321 bound_to 7965
  139.6721  144.7660  151.1763 LP  0  0  0  0  0  0  0  0  0  0  0  0  # atno 17342 bound_to 10162
  140.7617  143.5849  150.8856 LP  0  0  0  0  0  0  0  0  0  0  0  0  # atno 17343 bound_to 10162
  157.5050  130.7903  149.7645 LP  0  0  0  0  0  0  0  0  0  0  0  0  # atno 17370 bound_to 10713
  156.0016  130.3877  150.2586 LP  0  0  0  0  0  0  0  0  0  0  0  0  # atno 17371 bound_to 10713
  141.2227  133.7062  156.8151 LP  0  0  0  0  0  0  0  0  0  0  0  0  # atno 17394 bound_to 11000
  140.2124  134.8818  157.3288 LP  0  0  0  0  0  0  0  0  0  0  0  0  # atno 17395 bound_to 11000

$$$$
