AV-unprocessed.smi:1693|AV-procd|sdf|6786|dock2
  -GOLD-   22720 7543D 1   1.00000     0.00000
 Structure written by MMmdl.
 35 36  0  0  0  0  0  0  0  0  2 V2000
  150.4484  134.9819  155.6265 C   0  0  0  0  0  0  0  0  0  0  0  0
  150.1281  133.5570  155.3295 C   0  0  0  0  0  0  0  0  0  0  0  0
  150.7384  132.5384  155.9399 N   0  0  0  0  0  0  0  0  0  0  0  0
  150.2696  131.3089  155.4999 N   0  0  0  0  0  0  0  0  0  0  0  0
  149.3083  131.4139  154.5713 C   0  0  0  0  0  0  0  0  0  0  0  0
  148.7244  130.3397  154.0149 N   0  5  0  0  0  0  0  0  0  0  0  0
  147.4412  130.4096  153.5930 C   0  0  0  0  0  0  0  0  0  0  0  0
  146.4435  130.5170  154.3098 O   0  0  0  0  0  0  0  0  0  0  0  0
  147.3091  130.3604  152.2591 N   0  0  0  0  0  0  0  0  0  0  0  0
  146.0575  130.4164  151.5036 C   0  0  0  0  0  0  0  0  0  0  0  0
  145.8449  131.7614  150.7628 C   0  0  0  0  0  0  0  0  0  0  0  0
  146.6952  131.7416  149.6296 O   0  0  0  0  0  0  0  0  0  0  0  0
  144.3884  131.8387  150.2434 C   0  0  0  0  0  0  0  0  0  0  0  0
  144.0580  133.1748  149.5542 C   0  0  0  0  0  0  0  0  0  0  0  0
  144.3675  134.3650  150.4720 C   0  0  0  0  0  0  0  0  0  0  0  0
  145.8311  134.3336  150.9320 C   0  0  0  0  0  0  0  0  0  0  0  0
  146.1751  133.0048  151.6287 C   0  0  0  0  0  0  0  0  0  0  0  0
  148.9178  133.0815  154.1500 S   0  0  0  0  0  0  0  0  0  0  0  0
  150.0147  135.2687  156.5844 H   0  0  0  0  0  0  0  0  0  0  0  0
  150.0443  135.6314  154.8500 H   0  0  0  0  0  0  0  0  0  0  0  0
  151.5284  135.1241  155.6719 H   0  0  0  0  0  0  0  0  0  0  0  0
  148.1569  130.2820  151.7170 H   0  0  0  0  0  0  0  0  0  0  0  0
  146.0531  129.5891  150.7927 H   0  0  0  0  0  0  0  0  0  0  0  0
  145.2155  130.2266  152.1709 H   0  0  0  0  0  0  0  0  0  0  0  0
  147.5699  131.5311  149.9179 H   0  0  0  0  0  0  0  0  0  0  0  0
  144.1866  131.0137  149.5587 H   0  0  0  0  0  0  0  0  0  0  0  0
  143.7025  131.7070  151.0816 H   0  0  0  0  0  0  0  0  0  0  0  0
  144.6273  133.2664  148.6286 H   0  0  0  0  0  0  0  0  0  0  0  0
  143.0060  133.1918  149.2683 H   0  0  0  0  0  0  0  0  0  0  0  0
  144.1599  135.3005  149.9523 H   0  0  0  0  0  0  0  0  0  0  0  0
  143.7094  134.3398  151.3415 H   0  0  0  0  0  0  0  0  0  0  0  0
  146.4878  134.4814  150.0739 H   0  0  0  0  0  0  0  0  0  0  0  0
  146.0237  135.1652  151.6101 H   0  0  0  0  0  0  0  0  0  0  0  0
  145.6184  132.9453  152.5649 H   0  0  0  0  0  0  0  0  0  0  0  0
  147.2305  133.0144  151.9036 H   0  0  0  0  0  0  0  0  0  0  0  0
  1  2  1  0  0  0  0
  1 19  1  0  0  0  0
  1 20  1  0  0  0  0
  1 21  1  0  0  0  0
  2 18  1  0  0  0  0
  2  3  2  0  0  0  0
  3  4  1  0  0  0  0
  4  5  2  0  0  0  0
  5  6  1  0  0  0  0
  5 18  1  0  0  0  0
  6  7  1  0  0  0  0
  7  8  2  0  0  0  0
  7  9  1  0  0  0  0
  9 10  1  0  0  0  0
  9 22  1  0  0  0  0
 10 11  1  0  0  0  0
 10 23  1  0  0  0  0
 10 24  1  0  0  0  0
 11 17  1  0  0  0  0
 11 12  1  0  0  0  0
 11 13  1  0  0  0  0
 12 25  1  0  0  0  0
 13 14  1  0  0  0  0
 13 26  1  0  0  0  0
 13 27  1  0  0  0  0
 14 15  1  0  0  0  0
 14 28  1  0  0  0  0
 14 29  1  0  0  0  0
 15 16  1  0  0  0  0
 15 30  1  0  0  0  0
 15 31  1  0  0  0  0
 16 17  1  0  0  0  0
 16 32  1  0  0  0  0
 16 33  1  0  0  0  0
 17 34  1  0  0  0  0
 17 35  1  0  0  0  0
M  CHG  1   6  -1
M  END
> <s_m_source_file>
AV-unprocessed.smi

> <i_m_source_file_index>
1693

> <i_lp_mmshare_version>
43012

> <i_f3d_flags>
0

> <s_epik_input>
W0NIM11jMW5uYyhzMSlbTkhdQyg9TylbTkhdW0NIMl1DMihbT0hdKVtDSDJdW0NIMl1bQ0gyXVtDSDJdW0NIMl0y

> <s_epik_cmdline>
J2VwaWtfcHl0aG9uJywgJy1waCcsICc3LjAnLCAnLXRuJywgJzgnLCAnLW1hJywgJzIwMCcsICctbWV0YWxfYmluZGluZycsICctaW1hZScsICc8aW5maWxlLm1hZT4nLCAnLW9tYWUnLCAnPG91dGZpbGUubWFlPic=

> <r_lp_tautomer_probability>
1

> <r_epik_Ionization_Penalty>
4.37877

> <r_epik_Ionization_Penalty_Charging>
4.24206

> <r_epik_Ionization_Penalty_Neutral>
0.136706

> <r_epik_State_Penalty>
4.2416

> <r_epik_Charging_Adjusted_Penalty>
8.48367

> <i_epik_Tot_Q>
-1

> <i_epik_Tot_abs_Q>
1

> <r_epik_Metal_State_Penalty>
0.704476

> <b_epik_Metal_Only>
1

> <s_lp_Force_Field>
OPLS_2005

> <r_lp_Energy>
12.2595

> <b_lp_Chiralities_Consistent>
1

> <s_lp_Variant>
AV-unprocessed.smi:1693-2

> <Gold.Version>
5.8.1

> <Gold.Id.Protein>
6NUR|6NUR_protein|mol2

> <Gold.PLP.Fitness>
37.0297

> <Gold.PLP.PLP>
-33.4064

> <Gold.PLP.part.hbond>
-2.0000

> <Gold.PLP.part.metal>
0.0000

> <Gold.PLP.part.buried>
-5.8906

> <Gold.PLP.part.nonpolar>
-26.1482

> <Gold.PLP.part.repulsive>
0.2480

> <Gold.PLP.ligand.clash>
0.0000

> <Gold.PLP.ligand.torsion>
1.0673

> <Gold.PLP.Chemscore.Hbond>
1.9120

> <Gold.PLP.Chemscore.CHOScore>
0.0000

> <Gold.PLP.Chemscore.Metal>
0.0000

> <Gold.Chemscore.Hbonds>
donor molecule, donor type, donor heavy atom, donor atom, acceptor molecule, acceptor atom, score
      L1  H     9    22       P1 10747  0.91
      L1  H    12    25       P1 10747  1.00

> <Gold.PLP.Chemscore.Internal.Correction>
0.0219

> <Gold.Rescore>
     Score         DG    S(hbond)    S(metal)    S(lipo)     H(rot)  DE(clash)    DE(int)     intcor
     15.33     -16.35       1.93        0.00      77.91       1.83       0.01       1.02       ----

> <Gold.Chemscore.Fitness>
15.3262

> <Gold.Chemscore.DG>
-16.3526

> <Gold.Chemscore.ZeroCoef>
-5.4800

> <Gold.Chemscore.Hbond>
1.9289

> <Gold.Chemscore.Metal>
0.0000

> <Gold.Chemscore.Lipo>
77.9104

> <Gold.Chemscore.Internal_Hbond>
0.0000

> <Gold.Chemscore.DEClash>
0.0086

> <Gold.Chemscore.DEInternal>
1.0179

> <Gold.Chemscore.Rot>
1.8303

> <Gold.Chemscore.Internal.Correction>
   9.000000E+99

> <Gold.Chemscore.Hbonds>
donor molecule, donor type, donor heavy atom, donor atom, acceptor molecule, acceptor atom, score
      L1  H     9    22       P1 10747  0.88
      L1  H    12    25       P1 10747  0.98

> <Gold.Chemscore.Hbond.Weighted>
-6.4426

> <Gold.Chemscore.Metal.Weighted>
-0.0000

> <Gold.Chemscore.Lipo.Weighted>
-9.1155

> <Gold.Chemscore.Internal_Hbond.Weighted>
0.0000

> <Gold.Chemscore.DEClash.Weighted>
0.0086

> <Gold.Chemscore.DEInternal.Weighted>
1.0179

> <Gold.Chemscore.Rot.Weighted>
4.6855

> <Gold.Chemscore.Internal.Correction.Weighted>
   9.000000E+99

> <Gold.Protein.RotatedTorsions>
[ 6907 6896 6895 6894 ] final    9.76 input  -60.11 | X-H torsion
[ 7974 7965 7964 7962 ] final  170.35 input  175.53 | X-H torsion
[ 8008 7997 7996 7995 ] final -163.63 input   59.86 | X-H torsion
[ 10167 10162 10161 10158 ] final    5.38 input  -65.29 | X-H torsion
[ 10718 10713 10712 10709 ] final   14.26 input   66.30 | X-H torsion
[ 10763 10752 10751 10750 ] final  -25.26 input  -60.55 | X-H torsion
[ 11005 11000 10999 10996 ] final   23.40 input  -57.11 | X-H torsion

> <Gold.Protein.ActiveResidues>
 VAL166  LYS551  ARG553  GLY616  TRP617  ASP618  TYR619  PRO620  LYS621  CYS622 
 ASP623  PHE694  ASN695  SER759  ASP760  ASP761  ALA762  ILE779  LEU786  VAL792 
 PHE793  MET794  SER795  GLU796  ALA797  LYS798  CYS799  TRP800  GLU811  SER814 

> <Gold.Protein.RotatedAtoms>
  151.7273  135.0882  160.0294 H   0  0  0  0  0  0  0  0  0  0  0  0  # atno 6907 bound_to 6896
  152.3563  133.6237  159.5990 H   0  0  0  0  0  0  0  0  0  0  0  0  # atno 6908 bound_to 6896
  150.7574  133.9410  159.3498 H   0  0  0  0  0  0  0  0  0  0  0  0  # atno 6909 bound_to 6896
  144.7326  139.9189  143.6419 H   0  0  0  0  0  0  0  0  0  0  0  0  # atno 7974 bound_to 7965
  155.8240  140.0924  157.1832 H   0  0  0  0  0  0  0  0  0  0  0  0  # atno 8008 bound_to 7997
  154.3979  140.1431  156.3594 H   0  0  0  0  0  0  0  0  0  0  0  0  # atno 8009 bound_to 7997
  155.8236  140.3445  155.5531 H   0  0  0  0  0  0  0  0  0  0  0  0  # atno 8010 bound_to 7997
  140.6485  143.7603  150.7537 H   0  0  0  0  0  0  0  0  0  0  0  0  # atno 10167 bound_to 10162
  157.0365  130.6214  149.5744 H   0  0  0  0  0  0  0  0  0  0  0  0  # atno 10718 bound_to 10713
  153.6969  135.6958  153.5074 H   0  0  0  0  0  0  0  0  0  0  0  0  # atno 10763 bound_to 10752
  153.2371  135.4318  155.0657 H   0  0  0  0  0  0  0  0  0  0  0  0  # atno 10764 bound_to 10752
  154.8356  135.3498  154.6510 H   0  0  0  0  0  0  0  0  0  0  0  0  # atno 10765 bound_to 10752
  140.3701  134.2032  155.7667 H   0  0  0  0  0  0  0  0  0  0  0  0  # atno 11005 bound_to 11000
  146.0944  139.3936  143.0385 LP  0  0  0  0  0  0  0  0  0  0  0  0  # atno 17320 bound_to 7965
  145.7666  140.9914  143.1172 LP  0  0  0  0  0  0  0  0  0  0  0  0  # atno 17321 bound_to 7965
  140.1249  143.4578  152.2290 LP  0  0  0  0  0  0  0  0  0  0  0  0  # atno 17342 bound_to 10162
  139.5697  144.7456  151.3923 LP  0  0  0  0  0  0  0  0  0  0  0  0  # atno 17343 bound_to 10162
  156.0052  130.5137  150.7804 LP  0  0  0  0  0  0  0  0  0  0  0  0  # atno 17370 bound_to 10713
  157.5137  131.0927  151.0166 LP  0  0  0  0  0  0  0  0  0  0  0  0  # atno 17371 bound_to 10713
  141.1957  133.8099  157.0702 LP  0  0  0  0  0  0  0  0  0  0  0  0  # atno 17394 bound_to 11000
  140.0559  134.9781  157.1219 LP  0  0  0  0  0  0  0  0  0  0  0  0  # atno 17395 bound_to 11000

$$$$
