AV-unprocessed.smi:646|AV-procd|sdf|3167|dock2
  -GOLD-   22720 0 93D 1   1.00000     0.00000
 Structure written by MMmdl.
 44 45  0  0  0  0  0  0  0  0  1 V2000
  151.3626  141.7145  157.6946 C   0  0  0  0  0  0  0  0  0  0  0  0
  151.4853  140.4233  158.2786 O   0  0  0  0  0  0  0  0  0  0  0  0
  151.2283  139.2910  157.4364 C   0  0  1  0  0  0  0  0  0  0  0  0
  151.9191  139.4644  156.0781 C   0  0  0  0  0  0  0  0  0  0  0  0
  151.4281  137.9813  158.2234 C   0  0  0  0  0  0  0  0  0  0  0  0
  150.0073  138.1685  158.7509 C   0  0  2  0  0  0  0  0  0  0  0  0
  149.2775  136.9114  158.8597 N   0  0  0  0  0  0  0  0  0  0  0  0
  148.5536  136.5454  159.9276 C   0  0  0  0  0  0  0  0  0  0  0  0
  148.4997  137.1992  160.9688 O   0  0  0  0  0  0  0  0  0  0  0  0
  147.7397  135.2599  159.7867 C   0  0  0  0  0  0  0  0  0  0  0  0
  147.0393  134.9662  161.0896 C   0  0  0  0  0  0  0  0  0  0  0  0
  146.0830  135.7716  161.7728 C   0  0  0  0  0  0  0  0  0  0  0  0
  145.5310  137.1094  161.3719 C   0  0  0  0  0  0  0  0  0  0  0  0
  145.6575  135.1967  162.8851 N   0  0  0  0  0  0  0  0  0  0  0  0
  146.3331  133.9755  162.9680 O   0  0  0  0  0  0  0  0  0  0  0  0
  147.1459  133.8601  161.8873 C   0  0  0  0  0  0  0  0  0  0  0  0
  147.9489  132.6081  161.7839 C   0  0  0  0  0  0  0  0  0  0  0  0
  149.6943  138.9885  157.4720 C   0  0  0  0  0  0  0  0  0  0  0  0
  148.7610  140.1896  157.6589 C   0  0  0  0  0  0  0  0  0  0  0  0
  149.1318  138.2075  156.2679 C   0  0  0  0  0  0  0  0  0  0  0  0
  151.7194  142.4599  158.4053 H   0  0  0  0  0  0  0  0  0  0  0  0
  150.3247  141.9583  157.4688 H   0  0  0  0  0  0  0  0  0  0  0  0
  151.9527  141.8179  156.7848 H   0  0  0  0  0  0  0  0  0  0  0  0
  151.6502  138.6706  155.3821 H   0  0  0  0  0  0  0  0  0  0  0  0
  153.0048  139.4330  156.1656 H   0  0  0  0  0  0  0  0  0  0  0  0
  151.6466  140.4123  155.6136 H   0  0  0  0  0  0  0  0  0  0  0  0
  151.5426  137.1107  157.5747 H   0  0  0  0  0  0  0  0  0  0  0  0
  152.1968  137.9956  158.9952 H   0  0  0  0  0  0  0  0  0  0  0  0
  149.9907  138.7728  159.6611 H   0  0  0  0  0  0  0  0  0  0  0  0
  149.2676  136.3130  158.0467 H   0  0  0  0  0  0  0  0  0  0  0  0
  147.0321  135.3771  158.9651 H   0  0  0  0  0  0  0  0  0  0  0  0
  148.4033  134.4427  159.5020 H   0  0  0  0  0  0  0  0  0  0  0  0
  146.3001  137.7289  160.9102 H   0  0  0  0  0  0  0  0  0  0  0  0
  145.1384  137.6565  162.2296 H   0  0  0  0  0  0  0  0  0  0  0  0
  144.7220  136.9942  160.6501 H   0  0  0  0  0  0  0  0  0  0  0  0
  147.9890  132.2585  160.7521 H   0  0  0  0  0  0  0  0  0  0  0  0
  147.5161  131.8126  162.3912 H   0  0  0  0  0  0  0  0  0  0  0  0
  148.9704  132.7770  162.1244 H   0  0  0  0  0  0  0  0  0  0  0  0
  147.7187  139.8793  157.7425 H   0  0  0  0  0  0  0  0  0  0  0  0
  148.8333  140.8836  156.8211 H   0  0  0  0  0  0  0  0  0  0  0  0
  148.9922  140.7492  158.5654 H   0  0  0  0  0  0  0  0  0  0  0  0
  148.1023  137.8909  156.4376 H   0  0  0  0  0  0  0  0  0  0  0  0
  149.7081  137.3074  156.0534 H   0  0  0  0  0  0  0  0  0  0  0  0
  149.1339  138.8143  155.3619 H   0  0  0  0  0  0  0  0  0  0  0  0
  1  2  1  0  0  0  0
  1 21  1  0  0  0  0
  1 22  1  0  0  0  0
  1 23  1  0  0  0  0
  2  3  1  0  0  0  0
  3 18  1  0  0  0  0
  3  4  1  0  0  0  0
  3  5  1  0  0  0  0
  4 24  1  0  0  0  0
  4 25  1  0  0  0  0
  4 26  1  0  0  0  0
  5  6  1  0  0  0  0
  5 27  1  0  0  0  0
  5 28  1  0  0  0  0
  6  7  1  0  0  0  0
  6 18  1  0  0  0  0
  6 29  1  0  0  0  0
  7  8  1  0  0  0  0
  7 30  1  0  0  0  0
  8  9  2  0  0  0  0
  8 10  1  0  0  0  0
 10 11  1  0  0  0  0
 10 31  1  0  0  0  0
 10 32  1  0  0  0  0
 11 16  2  0  0  0  0
 11 12  1  0  0  0  0
 12 13  1  0  0  0  0
 12 14  2  0  0  0  0
 13 33  1  0  0  0  0
 13 34  1  0  0  0  0
 13 35  1  0  0  0  0
 14 15  1  0  0  0  0
 15 16  1  0  0  0  0
 16 17  1  0  0  0  0
 17 36  1  0  0  0  0
 17 37  1  0  0  0  0
 17 38  1  0  0  0  0
 18 19  1  0  0  0  0
 18 20  1  0  0  0  0
 19 39  1  0  0  0  0
 19 40  1  0  0  0  0
 19 41  1  0  0  0  0
 20 42  1  0  0  0  0
 20 43  1  0  0  0  0
 20 44  1  0  0  0  0
M  END
> <s_m_source_file>
AV-unprocessed.smi

> <i_m_source_file_index>
646

> <i_lp_mmshare_version>
43012

> <i_f3d_flags>
0

> <s_epik_input>
W0NIM11PW0NAQF0xKFtDSDNdKVtDSDJdW0NASF0oQzEoW0NIM10pW0NIM10pW05IXUMoPU8pW0NIMl1jMmMoW0NIM10pbm9jMltDSDNd

> <s_epik_cmdline>
J2VwaWtfcHl0aG9uJywgJy1waCcsICc3LjAnLCAnLXRuJywgJzgnLCAnLW1hJywgJzIwMCcsICctbWV0YWxfYmluZGluZycsICctaW1hZScsICc8aW5maWxlLm1hZT4nLCAnLW9tYWUnLCAnPG91dGZpbGUubWFlPic=

> <r_lp_tautomer_probability>
1

> <r_epik_Ionization_Penalty>
2.13169e-08

> <r_epik_Ionization_Penalty_Charging>
0

> <r_epik_Ionization_Penalty_Neutral>
2.13169e-08

> <r_epik_State_Penalty>
-0

> <r_epik_Charging_Adjusted_Penalty>
0

> <i_epik_Tot_Q>
0

> <i_epik_Tot_abs_Q>
0

> <r_epik_Metal_State_Penalty>
-0

> <b_epik_Metal_Only>
0

> <s_lp_Force_Field>
OPLS_2005

> <r_lp_Energy>
15.7725

> <b_lp_Chiralities_Consistent>
1

> <s_lp_Variant>
AV-unprocessed.smi:646-3

> <Gold.Version>
5.8.1

> <Gold.Id.Protein>
6NUR|6NUR_protein|mol2

> <Gold.PLP.Fitness>
29.9276

> <Gold.PLP.PLP>
-26.3386

> <Gold.PLP.part.hbond>
-2.7721

> <Gold.PLP.part.metal>
0.0000

> <Gold.PLP.part.buried>
-5.1764

> <Gold.PLP.part.nonpolar>
-19.2093

> <Gold.PLP.part.repulsive>
0.1935

> <Gold.PLP.ligand.clash>
0.0000

> <Gold.PLP.ligand.torsion>
0.3320

> <Gold.PLP.Chemscore.Hbond>
1.2898

> <Gold.PLP.Chemscore.CHOScore>
0.0000

> <Gold.PLP.Chemscore.Metal>
0.0000

> <Gold.Chemscore.Hbonds>
donor molecule, donor type, donor heavy atom, donor atom, acceptor molecule, acceptor atom, score
      P1  H  6931  6943       L1     9  0.87
      P1  H  6934  6947       L1     9  0.25

> <Gold.PLP.Chemscore.Internal.Correction>
0.3835

> <Gold.Rescore>
     Score         DG    S(hbond)    S(metal)    S(lipo)     H(rot)  DE(clash)    DE(int)     intcor
     13.51     -14.15       1.58        0.00      61.60       1.49       0.07       0.57       ----

> <Gold.Chemscore.Fitness>
13.5098

> <Gold.Chemscore.DG>
-14.1489

> <Gold.Chemscore.ZeroCoef>
-5.4800

> <Gold.Chemscore.Hbond>
1.5819

> <Gold.Chemscore.Metal>
0.0000

> <Gold.Chemscore.Lipo>
61.5979

> <Gold.Chemscore.Internal_Hbond>
0.0000

> <Gold.Chemscore.DEClash>
0.0732

> <Gold.Chemscore.DEInternal>
0.5658

> <Gold.Chemscore.Rot>
1.4928

> <Gold.Chemscore.Internal.Correction>
   9.000000E+99

> <Gold.Chemscore.Hbonds>
donor molecule, donor type, donor heavy atom, donor atom, acceptor molecule, acceptor atom, score
      P1  H  6931  6943       L1     9  0.81
      P1  H  6934  6947       L1     9  0.23

> <Gold.Chemscore.Hbond.Weighted>
-5.2836

> <Gold.Chemscore.Metal.Weighted>
-0.0000

> <Gold.Chemscore.Lipo.Weighted>
-7.2069

> <Gold.Chemscore.Internal_Hbond.Weighted>
0.0000

> <Gold.Chemscore.DEClash.Weighted>
0.0732

> <Gold.Chemscore.DEInternal.Weighted>
0.5658

> <Gold.Chemscore.Rot.Weighted>
3.8217

> <Gold.Chemscore.Internal.Correction.Weighted>
   9.000000E+99

> <Gold.Protein.RotatedTorsions>
[ 6907 6896 6895 6894 ] final   62.68 input  -60.11 | X-H torsion
[ 7974 7965 7964 7962 ] final  -83.72 input  175.53 | X-H torsion
[ 8008 7997 7996 7995 ] final  -43.44 input   59.86 | X-H torsion
[ 10167 10162 10161 10158 ] final   23.51 input  -65.29 | X-H torsion
[ 10718 10713 10712 10709 ] final   92.61 input   66.30 | X-H torsion
[ 10763 10752 10751 10750 ] final  -48.95 input  -60.55 | X-H torsion
[ 11005 11000 10999 10996 ] final    7.41 input  -57.11 | X-H torsion

> <Gold.Protein.ActiveResidues>
 VAL166  LYS551  ARG553  GLY616  TRP617  ASP618  TYR619  PRO620  LYS621  CYS622 
 ASP623  PHE694  ASN695  SER759  ASP760  ASP761  ALA762  ILE779  LEU786  VAL792 
 PHE793  MET794  SER795  GLU796  ALA797  LYS798  CYS799  TRP800  GLU811  SER814 

> <Gold.Protein.RotatedAtoms>
  152.4192  134.5987  159.9993 H   0  0  0  0  0  0  0  0  0  0  0  0  # atno 6907 bound_to 6896
  151.6141  133.3339  159.3082 H   0  0  0  0  0  0  0  0  0  0  0  0  # atno 6908 bound_to 6896
  150.8080  134.7255  159.6727 H   0  0  0  0  0  0  0  0  0  0  0  0  # atno 6909 bound_to 6896
  145.5161  140.9535  143.1680 H   0  0  0  0  0  0  0  0  0  0  0  0  # atno 7974 bound_to 7965
  154.3997  140.1448  156.3519 H   0  0  0  0  0  0  0  0  0  0  0  0  # atno 8008 bound_to 7997
  155.8261  140.3467  155.5522 H   0  0  0  0  0  0  0  0  0  0  0  0  # atno 8009 bound_to 7997
  155.8237  140.0902  157.1824 H   0  0  0  0  0  0  0  0  0  0  0  0  # atno 8010 bound_to 7997
  140.5263  143.9917  150.6442 H   0  0  0  0  0  0  0  0  0  0  0  0  # atno 10167 bound_to 10162
  157.6958  131.0449  150.3908 H   0  0  0  0  0  0  0  0  0  0  0  0  # atno 10718 bound_to 10713
  154.0862  135.6584  153.4845 H   0  0  0  0  0  0  0  0  0  0  0  0  # atno 10763 bound_to 10752
  153.0338  135.5191  154.7425 H   0  0  0  0  0  0  0  0  0  0  0  0  # atno 10764 bound_to 10752
  154.6535  135.3004  154.9925 H   0  0  0  0  0  0  0  0  0  0  0  0  # atno 10765 bound_to 10752
  140.5485  134.0306  155.7928 H   0  0  0  0  0  0  0  0  0  0  0  0  # atno 11005 bound_to 11000
  144.7701  139.6755  143.7198 LP  0  0  0  0  0  0  0  0  0  0  0  0  # atno 17320 bound_to 7965
  146.2135  139.5509  142.9665 LP  0  0  0  0  0  0  0  0  0  0  0  0  # atno 17321 bound_to 7965
  140.3280  143.3095  152.0716 LP  0  0  0  0  0  0  0  0  0  0  0  0  # atno 17342 bound_to 10162
  139.4939  144.6529  151.6637 LP  0  0  0  0  0  0  0  0  0  0  0  0  # atno 17343 bound_to 10162
  156.4311  130.3972  149.6759 LP  0  0  0  0  0  0  0  0  0  0  0  0  # atno 17370 bound_to 10713
  156.3976  130.7659  151.2664 LP  0  0  0  0  0  0  0  0  0  0  0  0  # atno 17371 bound_to 10713
  141.1185  133.9500  157.2775 LP  0  0  0  0  0  0  0  0  0  0  0  0  # atno 17394 bound_to 11000
  139.9467  135.0183  156.8874 LP  0  0  0  0  0  0  0  0  0  0  0  0  # atno 17395 bound_to 11000

$$$$
