AV-unprocessed.smi:3241|AV-procd|sdf|12392|dock6
  -GOLD-   2272018263D 1   1.00000     0.00000
 Structure written by MMmdl.
 43 44  0  0  0  0  0  0  0  0  1 V2000
  150.9346  141.9746  157.0634 C   0  0  0  0  0  0  0  0  0  0  0  0
  152.1045  142.0935  158.0538 C   0  0  1  0  0  0  0  0  0  0  0  0
  151.9091  143.3121  158.9783 C   0  0  0  0  0  0  0  0  0  0  0  0
  153.0613  143.4561  159.9833 C   0  0  0  0  0  0  0  0  0  0  0  0
  153.2307  142.1750  160.8103 C   0  0  0  0  0  0  0  0  0  0  0  0
  153.4416  140.9563  159.9001 C   0  0  0  0  0  0  0  0  0  0  0  0
  152.2923  140.7997  158.8800 C   0  0  2  0  0  0  0  0  0  0  0  0
  152.5912  139.7487  157.9686 O   0  0  0  0  0  0  0  0  0  0  0  0
  152.1253  138.4652  158.3598 C   0  0  0  0  0  0  0  0  0  0  0  0
  150.8834  138.1221  157.5308 C   0  0  0  0  0  0  0  0  0  0  0  0
  150.1750  136.9820  158.1019 N   0  0  0  0  0  0  0  0  0  0  0  0
  149.1973  137.3474  159.1221 C   0  0  0  0  0  0  0  0  0  0  0  0
  148.1438  136.2447  159.3175 C   0  0  0  0  0  0  0  0  0  0  0  0
  147.5018  136.3213  160.6179 N   0  0  0  0  0  0  0  0  0  0  0  0
  147.0919  135.2850  161.4304 C   0  0  0  0  0  0  0  0  0  0  0  0
  146.5494  135.8394  162.5540 C   0  0  0  0  0  0  0  0  0  0  0  0
  146.6756  137.2399  162.3343 C   0  0  0  0  0  0  0  0  0  0  0  0
  147.2416  137.5254  161.1728 N   0  0  0  0  0  0  0  0  0  0  0  0
  149.9931  141.7911  157.5820 H   0  0  0  0  0  0  0  0  0  0  0  0
  151.0911  141.1573  156.3589 H   0  0  0  0  0  0  0  0  0  0  0  0
  150.8206  142.8887  156.4804 H   0  0  0  0  0  0  0  0  0  0  0  0
  153.0139  142.2582  157.4734 H   0  0  0  0  0  0  0  0  0  0  0  0
  151.8311  144.2225  158.3832 H   0  0  0  0  0  0  0  0  0  0  0  0
  150.9667  143.2167  159.5198 H   0  0  0  0  0  0  0  0  0  0  0  0
  153.9880  143.6746  159.4510 H   0  0  0  0  0  0  0  0  0  0  0  0
  152.8759  144.3036  160.6438 H   0  0  0  0  0  0  0  0  0  0  0  0
  154.0750  142.2812  161.4917 H   0  0  0  0  0  0  0  0  0  0  0  0
  152.3480  142.0198  161.4322 H   0  0  0  0  0  0  0  0  0  0  0  0
  154.3889  141.0594  159.3690 H   0  0  0  0  0  0  0  0  0  0  0  0
  153.5324  140.0655  160.5206 H   0  0  0  0  0  0  0  0  0  0  0  0
  151.3602  140.5842  159.4061 H   0  0  0  0  0  0  0  0  0  0  0  0
  152.8890  137.6980  158.2316 H   0  0  0  0  0  0  0  0  0  0  0  0
  151.8587  138.4861  159.4172 H   0  0  0  0  0  0  0  0  0  0  0  0
  150.2214  138.9885  157.5122 H   0  0  0  0  0  0  0  0  0  0  0  0
  151.1665  137.9207  156.4969 H   0  0  0  0  0  0  0  0  0  0  0  0
  150.8391  136.3140  158.4800 H   0  0  0  0  0  0  0  0  0  0  0  0
  149.7075  137.5215  160.0701 H   0  0  0  0  0  0  0  0  0  0  0  0
  148.7066  138.2848  158.8572 H   0  0  0  0  0  0  0  0  0  0  0  0
  147.3852  136.2880  158.5340 H   0  0  0  0  0  0  0  0  0  0  0  0
  148.6183  135.2663  159.2361 H   0  0  0  0  0  0  0  0  0  0  0  0
  147.2207  134.2515  161.1446 H   0  0  0  0  0  0  0  0  0  0  0  0
  146.1286  135.3233  163.4043 H   0  0  0  0  0  0  0  0  0  0  0  0
  146.3720  138.0517  162.9788 H   0  0  0  0  0  0  0  0  0  0  0  0
  1  2  1  0  0  0  0
  1 19  1  0  0  0  0
  1 20  1  0  0  0  0
  1 21  1  0  0  0  0
  2  7  1  0  0  0  0
  2  3  1  0  0  0  0
  2 22  1  0  0  0  0
  3  4  1  0  0  0  0
  3 23  1  0  0  0  0
  3 24  1  0  0  0  0
  4  5  1  0  0  0  0
  4 25  1  0  0  0  0
  4 26  1  0  0  0  0
  5  6  1  0  0  0  0
  5 27  1  0  0  0  0
  5 28  1  0  0  0  0
  6  7  1  0  0  0  0
  6 29  1  0  0  0  0
  6 30  1  0  0  0  0
  7  8  1  0  0  0  0
  7 31  1  0  0  0  0
  8  9  1  0  0  0  0
  9 10  1  0  0  0  0
  9 32  1  0  0  0  0
  9 33  1  0  0  0  0
 10 11  1  0  0  0  0
 10 34  1  0  0  0  0
 10 35  1  0  0  0  0
 11 12  1  0  0  0  0
 11 36  1  0  0  0  0
 12 13  1  0  0  0  0
 12 37  1  0  0  0  0
 12 38  1  0  0  0  0
 13 14  1  0  0  0  0
 13 39  1  0  0  0  0
 13 40  1  0  0  0  0
 14 18  1  0  0  0  0
 14 15  1  0  0  0  0
 15 16  2  0  0  0  0
 15 41  1  0  0  0  0
 16 17  1  0  0  0  0
 16 42  1  0  0  0  0
 17 18  2  0  0  0  0
 17 43  1  0  0  0  0
M  END
> <s_m_source_file>
AV-unprocessed.smi

> <i_m_source_file_index>
3241

> <i_lp_mmshare_version>
43012

> <i_f3d_flags>
0

> <s_epik_input>
W0NIM11bQ0BASF0xW0NIMl1bQ0gyXVtDSDJdW0NIMl1bQ0BIXTFPW0NIMl1bQ0gyXVtOSF1bQ0gyXVtDSDJdbjJbY0hdW2NIXVtjSF1uMg==

> <s_epik_cmdline>
J2VwaWtfcHl0aG9uJywgJy1waCcsICc3LjAnLCAnLXRuJywgJzgnLCAnLW1hJywgJzIwMCcsICctbWV0YWxfYmluZGluZycsICctaW1hZScsICc8aW5maWxlLm1hZT4nLCAnLW9tYWUnLCAnPG91dGZpbGUubWFlPic=

> <r_lp_tautomer_probability>
1

> <r_epik_Ionization_Penalty>
2.47055

> <r_epik_Ionization_Penalty_Charging>
0

> <r_epik_Ionization_Penalty_Neutral>
2.47055

> <r_epik_State_Penalty>
2.6322

> <r_epik_Charging_Adjusted_Penalty>
2.6322

> <i_epik_Tot_Q>
0

> <i_epik_Tot_abs_Q>
0

> <r_epik_Metal_State_Penalty>
2.63108

> <b_epik_Metal_Only>
0

> <s_lp_Force_Field>
OPLS_2005

> <r_lp_Energy>
16.4595

> <b_lp_Chiralities_Consistent>
1

> <s_lp_Variant>
AV-unprocessed.smi:3241-8

> <Gold.Version>
5.8.1

> <Gold.Id.Protein>
6NUR|6NUR_protein|mol2

> <Gold.PLP.Fitness>
46.6399

> <Gold.PLP.PLP>
-41.7825

> <Gold.PLP.part.hbond>
-3.0040

> <Gold.PLP.part.metal>
0.0000

> <Gold.PLP.part.buried>
-5.4563

> <Gold.PLP.part.nonpolar>
-33.0226

> <Gold.PLP.part.repulsive>
0.0000

> <Gold.PLP.ligand.clash>
0.0000

> <Gold.PLP.ligand.torsion>
1.4723

> <Gold.PLP.Chemscore.Hbond>
2.5873

> <Gold.PLP.Chemscore.CHOScore>
0.0000

> <Gold.PLP.Chemscore.Metal>
0.0000

> <Gold.Chemscore.Hbonds>
donor molecule, donor type, donor heavy atom, donor atom, acceptor molecule, acceptor atom, score
      P1  H  6931  6943       L1    18  0.56
      P1  H  6934  6947       L1    18  0.96
      P1  H  7997  8010       L1     8  0.57

> <Gold.PLP.Chemscore.Internal.Correction>
0.0402

> <Gold.Rescore>
     Score         DG    S(hbond)    S(metal)    S(lipo)     H(rot)  DE(clash)    DE(int)     intcor
     18.02     -19.27       1.57        0.00     112.13       1.79       0.12       1.14       ----

> <Gold.Chemscore.Fitness>
18.0152

> <Gold.Chemscore.DG>
-19.2680

> <Gold.Chemscore.ZeroCoef>
-5.4800

> <Gold.Chemscore.Hbond>
1.5723

> <Gold.Chemscore.Metal>
0.0000

> <Gold.Chemscore.Lipo>
112.1316

> <Gold.Chemscore.Internal_Hbond>
0.0000

> <Gold.Chemscore.DEClash>
0.1154

> <Gold.Chemscore.DEInternal>
1.1373

> <Gold.Chemscore.Rot>
1.7901

> <Gold.Chemscore.Internal.Correction>
   9.000000E+99

> <Gold.Chemscore.Hbonds>
donor molecule, donor type, donor heavy atom, donor atom, acceptor molecule, acceptor atom, score
      P1  H  6931  6943       L1    18  0.07
      P1  H  6934  6947       L1    18  0.62
      P1  H  7997  8010       L1     8  0.48

> <Gold.Chemscore.Hbond.Weighted>
-5.2513

> <Gold.Chemscore.Metal.Weighted>
-0.0000

> <Gold.Chemscore.Lipo.Weighted>
-13.1194

> <Gold.Chemscore.Internal_Hbond.Weighted>
0.0000

> <Gold.Chemscore.DEClash.Weighted>
0.1154

> <Gold.Chemscore.DEInternal.Weighted>
1.1373

> <Gold.Chemscore.Rot.Weighted>
4.5827

> <Gold.Chemscore.Internal.Correction.Weighted>
   9.000000E+99

> <Gold.Protein.RotatedTorsions>
[ 6907 6896 6895 6894 ] final  119.01 input  -60.11 | X-H torsion
[ 7974 7965 7964 7962 ] final -144.06 input  175.53 | X-H torsion
[ 8008 7997 7996 7995 ] final   44.99 input   59.86 | X-H torsion
[ 10167 10162 10161 10158 ] final  -61.85 input  -65.29 | X-H torsion
[ 10718 10713 10712 10709 ] final  -47.14 input   66.30 | X-H torsion
[ 10763 10752 10751 10750 ] final  -66.49 input  -60.55 | X-H torsion
[ 11005 11000 10999 10996 ] final -160.87 input  -57.11 | X-H torsion

> <Gold.Protein.ActiveResidues>
 VAL166  LYS551  ARG553  GLY616  TRP617  ASP618  TYR619  PRO620  LYS621  CYS622 
 ASP623  PHE694  ASN695  SER759  ASP760  ASP761  ALA762  ILE779  LEU786  VAL792 
 PHE793  MET794  SER795  GLU796  ALA797  LYS798  CYS799  TRP800  GLU811  SER814 

> <Gold.Protein.RotatedAtoms>
  152.4503  133.7616  159.6749 H   0  0  0  0  0  0  0  0  0  0  0  0  # atno 6907 bound_to 6896
  150.8413  133.7922  159.3066 H   0  0  0  0  0  0  0  0  0  0  0  0  # atno 6908 bound_to 6896
  151.5546  135.1069  160.0009 H   0  0  0  0  0  0  0  0  0  0  0  0  # atno 6909 bound_to 6896
  144.8325  140.5758  143.5506 H   0  0  0  0  0  0  0  0  0  0  0  0  # atno 7974 bound_to 7965
  155.3284  140.3401  155.4240 H   0  0  0  0  0  0  0  0  0  0  0  0  # atno 8008 bound_to 7997
  156.1874  140.1685  156.8195 H   0  0  0  0  0  0  0  0  0  0  0  0  # atno 8009 bound_to 7997
  154.5402  140.0726  156.8480 H   0  0  0  0  0  0  0  0  0  0  0  0  # atno 8010 bound_to 7997
  140.5978  143.2354  151.5996 H   0  0  0  0  0  0  0  0  0  0  0  0  # atno 10167 bound_to 10162
  156.2113  130.4161  149.9111 H   0  0  0  0  0  0  0  0  0  0  0  0  # atno 10718 bound_to 10713
  154.3606  135.6117  153.5689 H   0  0  0  0  0  0  0  0  0  0  0  0  # atno 10763 bound_to 10752
  152.9794  135.5814  154.4637 H   0  0  0  0  0  0  0  0  0  0  0  0  # atno 10764 bound_to 10752
  154.4374  135.2849  155.1848 H   0  0  0  0  0  0  0  0  0  0  0  0  # atno 10765 bound_to 10752
  140.6267  134.4694  157.5227 H   0  0  0  0  0  0  0  0  0  0  0  0  # atno 11005 bound_to 11000
  145.4866  139.1491  143.3733 LP  0  0  0  0  0  0  0  0  0  0  0  0  # atno 17320 bound_to 7965
  146.2626  140.5003  142.8847 LP  0  0  0  0  0  0  0  0  0  0  0  0  # atno 17321 bound_to 7965
  139.5270  144.3029  152.1058 LP  0  0  0  0  0  0  0  0  0  0  0  0  # atno 17342 bound_to 10162
  140.2204  144.4472  150.6344 LP  0  0  0  0  0  0  0  0  0  0  0  0  # atno 17343 bound_to 10162
  156.6788  130.8850  151.3573 LP  0  0  0  0  0  0  0  0  0  0  0  0  # atno 17370 bound_to 10713
  157.7040  130.9364  150.0873 LP  0  0  0  0  0  0  0  0  0  0  0  0  # atno 17371 bound_to 10713
  139.9132  134.8301  156.1456 LP  0  0  0  0  0  0  0  0  0  0  0  0  # atno 17394 bound_to 11000
  141.0704  133.6799  156.2129 LP  0  0  0  0  0  0  0  0  0  0  0  0  # atno 17395 bound_to 11000

$$$$
