AV-unprocessed.smi:1473|AV-procd|sdf|5972|dock3
  -GOLD-   22720 6 63D 1   1.00000     0.00000
 Structure written by MMmdl.
 33 34  0  0  0  0  0  0  0  0  4 V2000
  154.6752  137.8401  157.8662 N   0  5  0  0  0  0  0  0  0  0  0  0
  153.1296  137.5132  157.5108 S   0  0  0  0  0  0  0  0  0  0  0  0
  152.9975  136.0939  157.1502 O   0  0  0  0  0  0  0  0  0  0  0  0
  152.2258  137.9782  158.5778 O   0  0  0  0  0  0  0  0  0  0  0  0
  153.0600  138.4347  156.1636 N   0  5  0  0  0  0  0  0  0  0  0  0
  151.8602  138.5444  155.3350 C   0  0  0  0  0  0  0  0  0  0  0  0
  151.0730  139.8181  155.6130 C   0  0  0  0  0  0  0  0  0  0  0  0
  150.0493  140.2425  154.7329 C   0  0  0  0  0  0  0  0  0  0  0  0
  149.3762  141.4524  154.9943 C   0  0  0  0  0  0  0  0  0  0  0  0
  149.7141  142.1931  156.0718 N   0  3  0  0  0  0  0  0  0  0  0  0
  150.6815  141.8302  156.9424 C   0  0  0  0  0  0  0  0  0  0  0  0
  150.9605  142.7083  157.9971 N   0  0  0  0  0  0  0  0  0  0  0  0
  151.8450  142.1503  159.0122 C   0  0  0  0  0  0  0  0  0  0  0  0
  152.0087  143.1500  160.1697 C   0  0  0  0  0  0  0  0  0  0  0  0
  152.4895  144.3911  159.6611 O   0  0  0  0  0  0  0  0  0  0  0  0
  151.5925  144.9686  158.7163 C   0  0  0  0  0  0  0  0  0  0  0  0
  151.4087  144.0122  157.5252 C   0  0  0  0  0  0  0  0  0  0  0  0
  151.3794  140.6189  156.7384 C   0  0  0  0  0  0  0  0  0  0  0  0
  155.2745  137.3145  157.2189 H   0  0  0  0  0  0  0  0  0  0  0  0
  152.1154  138.5423  154.2746 H   0  0  0  0  0  0  0  0  0  0  0  0
  151.1953  137.6897  155.4657 H   0  0  0  0  0  0  0  0  0  0  0  0
  149.7875  139.6683  153.8543 H   0  0  0  0  0  0  0  0  0  0  0  0
  148.5927  141.8539  154.3687 H   0  0  0  0  0  0  0  0  0  0  0  0
  151.4345  141.2102  159.3828 H   0  0  0  0  0  0  0  0  0  0  0  0
  152.8213  141.9296  158.5791 H   0  0  0  0  0  0  0  0  0  0  0  0
  151.0626  143.3008  160.6920 H   0  0  0  0  0  0  0  0  0  0  0  0
  152.7198  142.7660  160.9012 H   0  0  0  0  0  0  0  0  0  0  0  0
  150.6349  145.1833  159.1935 H   0  0  0  0  0  0  0  0  0  0  0  0
  151.9992  145.9205  158.3749 H   0  0  0  0  0  0  0  0  0  0  0  0
  152.3513  143.9051  156.9858 H   0  0  0  0  0  0  0  0  0  0  0  0
  150.6818  144.4229  156.8233 H   0  0  0  0  0  0  0  0  0  0  0  0
  152.1693  140.3352  157.4209 H   0  0  0  0  0  0  0  0  0  0  0  0
  149.2238  143.0735  156.2292 H   0  0  0  0  0  0  0  0  0  0  0  0
  1  2  1  0  0  0  0
  1 19  1  0  0  0  0
  2  3  2  0  0  0  0
  2  4  2  0  0  0  0
  2  5  1  0  0  0  0
  5  6  1  0  0  0  0
  6  7  1  0  0  0  0
  6 20  1  0  0  0  0
  6 21  1  0  0  0  0
  7 18  1  0  0  0  0
  7  8  2  0  0  0  0
  8  9  1  0  0  0  0
  8 22  1  0  0  0  0
  9 10  2  0  0  0  0
  9 23  1  0  0  0  0
 10 11  1  0  0  0  0
 10 33  1  0  0  0  0
 11 12  1  0  0  0  0
 11 18  2  0  0  0  0
 12 17  1  0  0  0  0
 12 13  1  0  0  0  0
 13 14  1  0  0  0  0
 13 24  1  0  0  0  0
 13 25  1  0  0  0  0
 14 15  1  0  0  0  0
 14 26  1  0  0  0  0
 14 27  1  0  0  0  0
 15 16  1  0  0  0  0
 16 17  1  0  0  0  0
 16 28  1  0  0  0  0
 16 29  1  0  0  0  0
 17 30  1  0  0  0  0
 17 31  1  0  0  0  0
 18 32  1  0  0  0  0
M  CHG  1   1  -1
M  CHG  1   5  -1
M  CHG  1  10   1
M  END
> <s_m_source_file>
AV-unprocessed.smi

> <i_m_source_file_index>
1473

> <i_lp_mmshare_version>
43012

> <i_f3d_flags>
0

> <s_epik_input>
W05IMl1TKD1PKSg9TylbTkhdW0NIMl1jMVtjSF1bY0hdbmMoW2NIXTEpTjJbQ0gyXVtDSDJdT1tDSDJdW0NIMl0y

> <s_epik_cmdline>
J2VwaWtfcHl0aG9uJywgJy1waCcsICc3LjAnLCAnLXRuJywgJzgnLCAnLW1hJywgJzIwMCcsICctbWV0YWxfYmluZGluZycsICctaW1hZScsICc8aW5maWxlLm1hZT4nLCAnLW9tYWUnLCAnPG91dGZpbGUubWFlPic=

> <r_epik_Ionization_Penalty>
8.27174

> <r_epik_Ionization_Penalty_Charging>
8.27174

> <r_epik_Ionization_Penalty_Neutral>
3.18726e-12

> <r_epik_State_Penalty>
4.90783

> <r_epik_Charging_Adjusted_Penalty>
13.1796

> <i_epik_Tot_Q>
-1

> <i_epik_Tot_abs_Q>
3

> <r_epik_Metal_State_Penalty>
1.75942

> <b_epik_Metal_Only>
1

> <s_lp_Force_Field>
OPLS_2005

> <r_lp_Energy>
13.3583

> <b_lp_Chiralities_Consistent>
1

> <s_lp_Variant>
AV-unprocessed.smi:1473-7

> <Gold.Version>
5.8.1

> <Gold.Id.Protein>
6NUR|6NUR_protein|mol2

> <Gold.PLP.Fitness>
50.6158

> <Gold.PLP.PLP>
-35.0674

> <Gold.PLP.part.hbond>
-4.0000

> <Gold.PLP.part.metal>
0.0000

> <Gold.PLP.part.buried>
-1.6106

> <Gold.PLP.part.nonpolar>
-29.9039

> <Gold.PLP.part.repulsive>
0.2083

> <Gold.PLP.ligand.clash>
0.0000

> <Gold.PLP.ligand.torsion>
1.0017

> <Gold.PLP.Chemscore.Hbond>
5.4800

> <Gold.PLP.Chemscore.CHOScore>
0.0000

> <Gold.PLP.Chemscore.Metal>
0.0000

> <Gold.Chemscore.Hbonds>
donor molecule, donor type, donor heavy atom, donor atom, acceptor molecule, acceptor atom, score
      L1  H    10    33       P1  8028  1.92
      P1  H  7997  8009       L1     1  0.12
      P1  H  7997  8010       L1     5  1.01
      P1  H 10752 10763       L1     3  0.66

> <Gold.PLP.Chemscore.Internal.Correction>
1.1118

> <Gold.Rescore>
     Score         DG    S(hbond)    S(metal)    S(lipo)     H(rot)  DE(clash)    DE(int)     intcor
     17.80     -18.95       2.59        0.00      82.52       1.89       0.21       0.93       ----

> <Gold.Chemscore.Fitness>
17.8042

> <Gold.Chemscore.DG>
-18.9461

> <Gold.Chemscore.ZeroCoef>
-5.4800

> <Gold.Chemscore.Hbond>
2.5916

> <Gold.Chemscore.Metal>
0.0000

> <Gold.Chemscore.Lipo>
82.5159

> <Gold.Chemscore.Internal_Hbond>
0.0000

> <Gold.Chemscore.DEClash>
0.2111

> <Gold.Chemscore.DEInternal>
0.9308

> <Gold.Chemscore.Rot>
1.8922

> <Gold.Chemscore.Internal.Correction>
   9.000000E+99

> <Gold.Chemscore.Hbonds>
donor molecule, donor type, donor heavy atom, donor atom, acceptor molecule, acceptor atom, score
      L1  H    10    33       P1  8028  0.92
      P1  H  7997  8009       L1     1  0.01
      P1  H  7997  8010       L1     5  0.44
      P1  H 10752 10763       L1     3  0.63

> <Gold.Chemscore.Hbond.Weighted>
-8.6558

> <Gold.Chemscore.Metal.Weighted>
-0.0000

> <Gold.Chemscore.Lipo.Weighted>
-9.6544

> <Gold.Chemscore.Internal_Hbond.Weighted>
0.0000

> <Gold.Chemscore.DEClash.Weighted>
0.2111

> <Gold.Chemscore.DEInternal.Weighted>
0.9308

> <Gold.Chemscore.Rot.Weighted>
4.8441

> <Gold.Chemscore.Internal.Correction.Weighted>
   9.000000E+99

> <Gold.Protein.RotatedTorsions>
[ 6907 6896 6895 6894 ] final  -39.57 input  -60.11 | X-H torsion
[ 7974 7965 7964 7962 ] final  -28.43 input  175.53 | X-H torsion
[ 8008 7997 7996 7995 ] final   96.51 input   59.86 | X-H torsion
[ 10167 10162 10161 10158 ] final   96.03 input  -65.29 | X-H torsion
[ 10718 10713 10712 10709 ] final -111.37 input   66.30 | X-H torsion
[ 10763 10752 10751 10750 ] final  143.66 input  -60.55 | X-H torsion
[ 11005 11000 10999 10996 ] final  173.16 input  -57.11 | X-H torsion

> <Gold.Protein.ActiveResidues>
 VAL166  LYS551  ARG553  GLY616  TRP617  ASP618  TYR619  PRO620  LYS621  CYS622 
 ASP623  PHE694  ASN695  SER759  ASP760  ASP761  ALA762  ILE779  LEU786  VAL792 
 PHE793  MET794  SER795  GLU796  ALA797  LYS798  CYS799  TRP800  GLU811  SER814 

> <Gold.Protein.RotatedAtoms>
  150.9888  134.9227  159.7887 H   0  0  0  0  0  0  0  0  0  0  0  0  # atno 6907 bound_to 6896
  152.5244  134.3310  159.9193 H   0  0  0  0  0  0  0  0  0  0  0  0  # atno 6908 bound_to 6896
  151.3316  133.3957  159.2697 H   0  0  0  0  0  0  0  0  0  0  0  0  # atno 6909 bound_to 6896
  146.1288  140.5282  142.8702 H   0  0  0  0  0  0  0  0  0  0  0  0  # atno 7974 bound_to 7965
  156.0804  140.3271  155.7686 H   0  0  0  0  0  0  0  0  0  0  0  0  # atno 8008 bound_to 7997
  155.5162  140.0581  157.2932 H   0  0  0  0  0  0  0  0  0  0  0  0  # atno 8009 bound_to 7997
  154.4579  140.1952  156.0345 H   0  0  0  0  0  0  0  0  0  0  0  0  # atno 8010 bound_to 7997
  139.7932  144.6843  150.9863 H   0  0  0  0  0  0  0  0  0  0  0  0  # atno 10167 bound_to 10162
  156.0643  130.5864  150.8364 H   0  0  0  0  0  0  0  0  0  0  0  0  # atno 10718 bound_to 10713
  153.9760  135.2946  155.3424 H   0  0  0  0  0  0  0  0  0  0  0  0  # atno 10763 bound_to 10752
  154.7296  135.5073  153.8945 H   0  0  0  0  0  0  0  0  0  0  0  0  # atno 10764 bound_to 10752
  153.0877  135.6698  154.0029 H   0  0  0  0  0  0  0  0  0  0  0  0  # atno 10765 bound_to 10752
  140.3375  134.7305  157.4178 H   0  0  0  0  0  0  0  0  0  0  0  0  # atno 11005 bound_to 11000
  144.7669  140.5552  143.6696 LP  0  0  0  0  0  0  0  0  0  0  0  0  # atno 17320 bound_to 7965
  145.5306  139.1475  143.3502 LP  0  0  0  0  0  0  0  0  0  0  0  0  # atno 17321 bound_to 7965
  140.7820  143.4358  151.0625 LP  0  0  0  0  0  0  0  0  0  0  0  0  # atno 17342 bound_to 10162
  139.8034  143.8052  152.3165 LP  0  0  0  0  0  0  0  0  0  0  0  0  # atno 17343 bound_to 10162
  157.5674  131.0946  150.9469 LP  0  0  0  0  0  0  0  0  0  0  0  0  # atno 17370 bound_to 10713
  156.9693  130.5485  149.5289 LP  0  0  0  0  0  0  0  0  0  0  0  0  # atno 17371 bound_to 10713
  140.0809  134.5732  155.8541 LP  0  0  0  0  0  0  0  0  0  0  0  0  # atno 17394 bound_to 11000
  141.2047  133.6641  156.6139 LP  0  0  0  0  0  0  0  0  0  0  0  0  # atno 17395 bound_to 11000

$$$$
