AV-unprocessed.smi:1|AV-procd|sdf|8|dock1
  -GOLD-   2262015 93D 1   1.00000     0.00000
 Structure written by MMmdl.
 57 62  0  0  0  0  0  0  0  0  1 V2000
  146.8453  134.8474  161.0280 O   0  0  0  0  0  0  0  0  0  0  0  0
  146.8105  134.0259  160.1112 C   0  0  0  0  0  0  0  0  0  0  0  0
  147.5334  134.2240  158.8671 N   0  0  0  0  0  0  0  0  0  0  0  0
  148.2612  135.2991  158.4842 C   0  0  0  0  0  0  0  0  0  0  0  0
  148.7642  136.1929  159.3745 N   0  0  0  0  0  0  0  0  0  0  0  0
  149.4748  137.2383  158.9461 C   0  0  0  0  0  0  0  0  0  0  0  0
  149.7939  137.5712  157.6942 N   0  0  0  0  0  0  0  0  0  0  0  0
  149.2990  136.6776  156.7876 C   0  0  0  0  0  0  0  0  0  0  0  0
  148.5251  135.5256  157.1082 C   0  0  0  0  0  0  0  0  0  0  0  0
  148.1796  134.8491  155.9474 N   0  0  0  0  0  0  0  0  0  0  0  0
  148.7175  135.5621  154.9967 C   0  0  0  0  0  0  0  0  0  0  0  0
  149.4224  136.6727  155.4074 N   0  0  0  0  0  0  0  0  0  0  0  0
  150.1330  137.6520  154.5132 C   0  0  1  0  0  0  0  0  0  0  0  0
  149.5931  138.9280  154.6708 O   0  0  0  0  0  0  0  0  0  0  0  0
  150.4424  139.7139  155.4981 C   0  0  2  0  0  0  0  0  0  0  0  0
  150.1760  141.2039  155.2698 C   0  0  0  0  0  0  0  0  0  0  0  0
  150.7363  141.9324  156.3491 O   0  0  0  0  0  0  0  0  0  0  0  0
  149.9405  142.4588  157.2985 C   0  0  0  0  0  0  0  0  0  0  0  0
  148.7550  142.1531  157.4423 O   0  0  0  0  0  0  0  0  0  0  0  0
  150.6448  143.4567  158.1545 C   0  0  0  0  0  0  0  0  0  0  0  0
  149.9312  144.1216  159.1788 C   0  0  0  0  0  0  0  0  0  0  0  0
  150.5723  145.0704  159.9994 C   0  0  0  0  0  0  0  0  0  0  0  0
  151.9348  145.3647  159.8065 C   0  0  0  0  0  0  0  0  0  0  0  0
  152.6564  144.7078  158.7926 C   0  0  0  0  0  0  0  0  0  0  0  0
  152.0165  143.7589  157.9717 C   0  0  0  0  0  0  0  0  0  0  0  0
  151.8364  139.2583  155.0732 C   0  0  1  0  0  0  0  0  0  0  0  0
  152.7934  139.4515  156.1001 O   0  0  0  0  0  0  0  0  0  0  0  0
  152.8903  138.0572  157.0157 S   0  0  0  0  0  0  0  0  0  0  0  0
  154.2782  137.5727  156.9694 O   0  0  0  0  0  0  0  0  0  0  0  0
  152.1705  138.2813  158.2785 O   0  0  0  0  0  0  0  0  0  0  0  0
  151.9557  137.0632  156.0545 O   0  0  0  0  0  0  0  0  0  0  0  0
  151.6344  137.7520  154.8545 C   0  0  1  0  0  0  0  0  0  0  0  0
  146.0820  132.7208  160.2496 C   0  0  0  0  0  0  0  0  0  0  0  0
  146.2360  131.7185  159.2656 C   0  0  0  0  0  0  0  0  0  0  0  0
  145.5703  130.4842  159.3943 C   0  0  0  0  0  0  0  0  0  0  0  0
  144.7502  130.2387  160.5117 C   0  0  0  0  0  0  0  0  0  0  0  0
  144.6000  131.2270  161.5027 C   0  0  0  0  0  0  0  0  0  0  0  0
  145.2655  132.4618  161.3752 C   0  0  0  0  0  0  0  0  0  0  0  0
  147.4687  133.4738  158.1946 H   0  0  0  0  0  0  0  0  0  0  0  0
  149.8397  137.8999  159.7174 H   0  0  0  0  0  0  0  0  0  0  0  0
  148.6233  135.2900  153.9553 H   0  0  0  0  0  0  0  0  0  0  0  0
  149.9382  137.2836  153.5054 H   0  0  0  0  0  0  0  0  0  0  0  0
  150.2764  139.4545  156.5445 H   0  0  0  0  0  0  0  0  0  0  0  0
  150.6460  141.5226  154.3384 H   0  0  0  0  0  0  0  0  0  0  0  0
  149.1061  141.3992  155.1875 H   0  0  0  0  0  0  0  0  0  0  0  0
  148.8840  143.9125  159.3445 H   0  0  0  0  0  0  0  0  0  0  0  0
  150.0169  145.5727  160.7777 H   0  0  0  0  0  0  0  0  0  0  0  0
  152.4262  146.0921  160.4360 H   0  0  0  0  0  0  0  0  0  0  0  0
  153.7028  144.9302  158.6441 H   0  0  0  0  0  0  0  0  0  0  0  0
  152.5986  143.2684  157.2062 H   0  0  0  0  0  0  0  0  0  0  0  0
  152.1439  139.7446  154.1466 H   0  0  0  0  0  0  0  0  0  0  0  0
  152.2402  137.3683  154.0331 H   0  0  0  0  0  0  0  0  0  0  0  0
  146.8628  131.8911  158.4024 H   0  0  0  0  0  0  0  0  0  0  0  0
  145.6902  129.7252  158.6352 H   0  0  0  0  0  0  0  0  0  0  0  0
  144.2399  129.2919  160.6103 H   0  0  0  0  0  0  0  0  0  0  0  0
  143.9758  131.0369  162.3633 H   0  0  0  0  0  0  0  0  0  0  0  0
  145.1430  133.2023  162.1524 H   0  0  0  0  0  0  0  0  0  0  0  0
  1  2  2  0  0  0  0
  2  3  1  0  0  0  0
  2 33  1  0  0  0  0
  3  4  1  0  0  0  0
  3 39  1  0  0  0  0
  4  9  1  0  0  0  0
  4  5  2  0  0  0  0
  5  6  1  0  0  0  0
  6  7  2  0  0  0  0
  6 40  1  0  0  0  0
  7  8  1  0  0  0  0
  8 12  1  0  0  0  0
  8  9  2  0  0  0  0
  9 10  1  0  0  0  0
 10 11  2  0  0  0  0
 11 12  1  0  0  0  0
 11 41  1  0  0  0  0
 12 13  1  0  0  0  0
 13 32  1  0  0  0  0
 13 14  1  0  0  0  0
 13 42  1  0  0  0  0
 14 15  1  0  0  0  0
 15 16  1  0  0  0  0
 15 26  1  0  0  0  0
 15 43  1  0  0  0  0
 16 17  1  0  0  0  0
 16 44  1  0  0  0  0
 16 45  1  0  0  0  0
 17 18  1  0  0  0  0
 18 19  2  0  0  0  0
 18 20  1  0  0  0  0
 20 25  1  0  0  0  0
 20 21  2  0  0  0  0
 21 22  1  0  0  0  0
 21 46  1  0  0  0  0
 22 23  2  0  0  0  0
 22 47  1  0  0  0  0
 23 24  1  0  0  0  0
 23 48  1  0  0  0  0
 24 25  2  0  0  0  0
 24 49  1  0  0  0  0
 25 50  1  0  0  0  0
 26 32  1  0  0  0  0
 26 27  1  0  0  0  0
 26 51  1  0  0  0  0
 27 28  1  0  0  0  0
 28 29  2  0  0  0  0
 28 30  2  0  0  0  0
 28 31  1  0  0  0  0
 31 32  1  0  0  0  0
 32 52  1  0  0  0  0
 33 38  1  0  0  0  0
 33 34  2  0  0  0  0
 34 35  1  0  0  0  0
 34 53  1  0  0  0  0
 35 36  2  0  0  0  0
 35 54  1  0  0  0  0
 36 37  1  0  0  0  0
 36 55  1  0  0  0  0
 37 38  2  0  0  0  0
 37 56  1  0  0  0  0
 38 57  1  0  0  0  0
M  END
> <s_m_source_file>
AV-unprocessed.smi

> <i_m_source_file_index>
1

> <i_lp_mmshare_version>
43012

> <i_f3d_flags>
0

> <s_epik_input>
W2NIXTFbY0hdW2NIXVtjSF1bY0hdYzFDKD1PKVtOSF1jKG5bY0hdbjIpYyhjMjMpbltjSF1uM1tDQEBIXShbQ0BIXShbQ0BIXTQ1KU9TKE81KSg9Tyk9TylPW0NASF00W0NIMl1PQyg9TyljNltjSF1bY0hdW2NIXVtjSF1bY0hdNg==

> <s_epik_cmdline>
J2VwaWtfcHl0aG9uJywgJy1waCcsICc3LjAnLCAnLXRuJywgJzgnLCAnLW1hJywgJzIwMCcsICctbWV0YWxfYmluZGluZycsICctaW1hZScsICc8aW5maWxlLm1hZT4nLCAnLW9tYWUnLCAnPG91dGZpbGUubWFlPic=

> <r_lp_tautomer_probability>
1

> <r_epik_Ionization_Penalty>
0.00195722

> <r_epik_Ionization_Penalty_Charging>
0

> <r_epik_Ionization_Penalty_Neutral>
0.00195722

> <r_epik_State_Penalty>
0.00633741

> <r_epik_Charging_Adjusted_Penalty>
0.00633741

> <i_epik_Tot_Q>
0

> <i_epik_Tot_abs_Q>
0

> <r_epik_Metal_State_Penalty>
0.341185

> <b_epik_Metal_Only>
0

> <s_epik_Chemistry_Notes>
This compound has an ester and may undergo hydrolysis at high or low pH. This compound contains an acetal/aminal-like group ( X-CH(R)-Y where X, Y are N, S, or O) that may be acid/base labile, releasing an aldehyde.

> <s_lp_Force_Field>
OPLS_2005

> <r_lp_Energy>
42.577

> <b_lp_Chiralities_Consistent>
1

> <s_lp_Variant>
AV-unprocessed.smi:1-8

> <Gold.Version>
5.8.1

> <Gold.Id.Protein>
6NUR|6NUR_protein|mol2

> <Gold.PLP.Fitness>
52.9916

> <Gold.PLP.PLP>
-49.3290

> <Gold.PLP.part.hbond>
-4.0000

> <Gold.PLP.part.metal>
0.0000

> <Gold.PLP.part.buried>
-2.7694

> <Gold.PLP.part.nonpolar>
-42.5601

> <Gold.PLP.part.repulsive>
0.4937

> <Gold.PLP.ligand.clash>
0.0000

> <Gold.PLP.ligand.torsion>
0.7898

> <Gold.PLP.Chemscore.Hbond>
0.6928

> <Gold.PLP.Chemscore.CHOScore>
1.0000

> <Gold.PLP.Chemscore.Metal>
0.0000

> <Gold.Chemscore.Hbonds>
donor molecule, donor type, donor heavy atom, donor atom, acceptor molecule, acceptor atom, score
      L1  C    11    41       P1  7948  1.00

> <Gold.PLP.Chemscore.Internal.Correction>
0.1638

> <Gold.Rescore>
     Score         DG    S(hbond)    S(metal)    S(lipo)     H(rot)  DE(clash)    DE(int)     intcor
      6.94     -13.76       0.04        0.00     116.42       2.13       0.36       6.45       ----

> <Gold.Chemscore.Fitness>
6.9438

> <Gold.Chemscore.DG>
-13.7586

> <Gold.Chemscore.ZeroCoef>
-5.4800

> <Gold.Chemscore.Hbond>
0.0354

> <Gold.Chemscore.Metal>
0.0000

> <Gold.Chemscore.Lipo>
116.4245

> <Gold.Chemscore.Internal_Hbond>
0.0000

> <Gold.Chemscore.DEClash>
0.3645

> <Gold.Chemscore.DEInternal>
6.4502

> <Gold.Chemscore.Rot>
2.1333

> <Gold.Chemscore.Internal.Correction>
   9.000000E+99

> <Gold.Chemscore.Hbond.Weighted>
-0.1183

> <Gold.Chemscore.Metal.Weighted>
-0.0000

> <Gold.Chemscore.Lipo.Weighted>
-13.6217

> <Gold.Chemscore.Internal_Hbond.Weighted>
0.0000

> <Gold.Chemscore.DEClash.Weighted>
0.3645

> <Gold.Chemscore.DEInternal.Weighted>
6.4502

> <Gold.Chemscore.Rot.Weighted>
5.4614

> <Gold.Chemscore.Internal.Correction.Weighted>
   9.000000E+99

> <Gold.Protein.RotatedTorsions>
[ 6907 6896 6895 6894 ] final -154.13 input  -60.11 | X-H torsion
[ 7974 7965 7964 7962 ] final   94.46 input  175.53 | X-H torsion
[ 8008 7997 7996 7995 ] final  132.75 input   59.86 | X-H torsion
[ 10167 10162 10161 10158 ] final  -47.38 input  -65.29 | X-H torsion
[ 10718 10713 10712 10709 ] final   38.12 input   66.30 | X-H torsion
[ 10763 10752 10751 10750 ] final -124.32 input  -60.55 | X-H torsion
[ 11005 11000 10999 10996 ] final  -68.22 input  -57.11 | X-H torsion

> <Gold.Protein.ActiveResidues>
 VAL166  LYS551  ARG553  GLY616  TRP617  ASP618  TYR619  PRO620  LYS621  CYS622 
 ASP623  PHE694  ASN695  SER759  ASP760  ASP761  ALA762  ILE779  LEU786  VAL792 
 PHE793  MET794  SER795  GLU796  ALA797  LYS798  CYS799  TRP800  GLU811  SER814 

> <Gold.Protein.RotatedAtoms>
  151.2528  133.4341  159.2612 H   0  0  0  0  0  0  0  0  0  0  0  0  # atno 6907 bound_to 6896
  151.0601  134.9731  159.8266 H   0  0  0  0  0  0  0  0  0  0  0  0  # atno 6908 bound_to 6896
  152.5397  134.2479  159.8940 H   0  0  0  0  0  0  0  0  0  0  0  0  # atno 6909 bound_to 6896
  145.4653  139.2284  143.2965 H   0  0  0  0  0  0  0  0  0  0  0  0  # atno 7974 bound_to 7965
  156.2986  140.2538  156.3141 H   0  0  0  0  0  0  0  0  0  0  0  0  # atno 8008 bound_to 7997
  154.9298  140.0398  157.2061 H   0  0  0  0  0  0  0  0  0  0  0  0  # atno 8009 bound_to 7997
  154.8229  140.2863  155.5779 H   0  0  0  0  0  0  0  0  0  0  0  0  # atno 8010 bound_to 7997
  140.6777  143.2787  151.3918 H   0  0  0  0  0  0  0  0  0  0  0  0  # atno 10167 bound_to 10162
  157.3551  130.7619  149.7006 H   0  0  0  0  0  0  0  0  0  0  0  0  # atno 10718 bound_to 10713
  154.8721  135.4068  154.3086 H   0  0  0  0  0  0  0  0  0  0  0  0  # atno 10763 bound_to 10752
  153.3934  135.7015  153.6484 H   0  0  0  0  0  0  0  0  0  0  0  0  # atno 10764 bound_to 10752
  153.5257  135.3678  155.2624 H   0  0  0  0  0  0  0  0  0  0  0  0  # atno 10765 bound_to 10752
  141.1527  133.6736  156.6412 H   0  0  0  0  0  0  0  0  0  0  0  0  # atno 11005 bound_to 11000
  146.2428  140.5426  142.8927 LP  0  0  0  0  0  0  0  0  0  0  0  0  # atno 17320 bound_to 7965
  144.7978  140.6156  143.6498 LP  0  0  0  0  0  0  0  0  0  0  0  0  # atno 17321 bound_to 7965
  139.6080  144.1157  152.2269 LP  0  0  0  0  0  0  0  0  0  0  0  0  # atno 17342 bound_to 10162
  140.0562  144.5893  150.7298 LP  0  0  0  0  0  0  0  0  0  0  0  0  # atno 17343 bound_to 10162
  155.9728  130.4129  150.4058 LP  0  0  0  0  0  0  0  0  0  0  0  0  # atno 17370 bound_to 10713
  157.2127  131.0464  151.2590 LP  0  0  0  0  0  0  0  0  0  0  0  0  # atno 17371 bound_to 10713
  140.3392  134.7863  157.4385 LP  0  0  0  0  0  0  0  0  0  0  0  0  # atno 17394 bound_to 11000
  140.0952  134.5547  155.8405 LP  0  0  0  0  0  0  0  0  0  0  0  0  # atno 17395 bound_to 11000

$$$$
