AV-unprocessed.smi:350|AV-procd|sdf|2398|dock7
  -GOLD-   2262022333D 1   1.00000     0.00000
 Structure written by MMmdl.
 35 36  0  0  0  0  0  0  0  0  1 V2000
  151.1489  145.3268  159.9192 C   0  0  0  0  0  0  0  0  0  0  0  0
  151.6579  144.0267  159.3577 C   0  0  0  0  0  0  0  0  0  0  0  0
  151.2720  143.7192  158.1632 N   0  0  0  0  0  0  0  0  0  0  0  0
  151.6798  142.5480  157.5539 N   0  0  0  0  0  0  0  0  0  0  0  0
  151.1286  142.3522  156.2067 C   0  0  0  0  0  0  0  0  0  0  0  0
  150.1913  141.1267  156.1351 C   0  0  2  0  0  0  0  0  0  0  0  0
  150.5136  140.3636  154.9892 O   0  0  0  0  0  0  0  0  0  0  0  0
  148.7320  141.5563  156.1124 C   0  0  0  0  0  0  0  0  0  0  0  0
  148.0235  141.5843  154.8918 C   0  0  0  0  0  0  0  0  0  0  0  0
  146.6707  141.9764  154.8646 C   0  0  0  0  0  0  0  0  0  0  0  0
  146.0177  142.3406  156.0581 C   0  0  0  0  0  0  0  0  0  0  0  0
  144.3609  142.8210  156.0243 Cl  0  0  0  0  0  0  0  0  0  0  0  0
  146.7181  142.3109  157.2794 C   0  0  0  0  0  0  0  0  0  0  0  0
  148.0706  141.9189  157.3069 C   0  0  0  0  0  0  0  0  0  0  0  0
  152.5060  141.6241  158.1226 C   0  0  0  0  0  0  0  0  0  0  0  0
  152.8479  140.5920  157.5437 O   0  0  0  0  0  0  0  0  0  0  0  0
  152.9385  141.9786  159.4765 C   0  0  0  0  0  0  0  0  0  0  0  0
  153.8032  141.0363  160.1105 C   0  0  0  0  0  0  0  0  0  0  0  0
  154.5214  140.2824  160.6164 N   0  0  0  0  0  0  0  0  0  0  0  0
  152.5428  143.1239  160.0864 C   0  0  0  0  0  0  0  0  0  0  0  0
  152.9627  143.5375  161.4904 C   0  0  0  0  0  0  0  0  0  0  0  0
  151.9763  145.9751  160.2085 H   0  0  0  0  0  0  0  0  0  0  0  0
  150.5321  145.1511  160.8005 H   0  0  0  0  0  0  0  0  0  0  0  0
  150.5420  145.8732  159.1953 H   0  0  0  0  0  0  0  0  0  0  0  0
  150.5558  143.2485  155.9597 H   0  0  0  0  0  0  0  0  0  0  0  0
  151.9047  142.2999  155.4406 H   0  0  0  0  0  0  0  0  0  0  0  0
  150.3474  140.4917  157.0083 H   0  0  0  0  0  0  0  0  0  0  0  0
  150.3640  139.4513  155.1846 H   0  0  0  0  0  0  0  0  0  0  0  0
  148.5139  141.3045  153.9710 H   0  0  0  0  0  0  0  0  0  0  0  0
  146.1352  141.9966  153.9268 H   0  0  0  0  0  0  0  0  0  0  0  0
  146.2197  142.5879  158.1966 H   0  0  0  0  0  0  0  0  0  0  0  0
  148.5989  141.8963  158.2490 H   0  0  0  0  0  0  0  0  0  0  0  0
  153.5946  142.7902  161.9696 H   0  0  0  0  0  0  0  0  0  0  0  0
  152.0881  143.6805  162.1260 H   0  0  0  0  0  0  0  0  0  0  0  0
  153.5243  144.4718  161.4617 H   0  0  0  0  0  0  0  0  0  0  0  0
  1  2  1  0  0  0  0
  1 22  1  0  0  0  0
  1 23  1  0  0  0  0
  1 24  1  0  0  0  0
  2 20  1  0  0  0  0
  2  3  2  0  0  0  0
  3  4  1  0  0  0  0
  4  5  1  0  0  0  0
  4 15  1  0  0  0  0
  5  6  1  0  0  0  0
  5 25  1  0  0  0  0
  5 26  1  0  0  0  0
  6  7  1  0  0  0  0
  6  8  1  0  0  0  0
  6 27  1  0  0  0  0
  7 28  1  0  0  0  0
  8 14  1  0  0  0  0
  8  9  2  0  0  0  0
  9 10  1  0  0  0  0
  9 29  1  0  0  0  0
 10 11  2  0  0  0  0
 10 30  1  0  0  0  0
 11 12  1  0  0  0  0
 11 13  1  0  0  0  0
 13 14  2  0  0  0  0
 13 31  1  0  0  0  0
 14 32  1  0  0  0  0
 15 16  2  0  0  0  0
 15 17  1  0  0  0  0
 17 18  1  0  0  0  0
 17 20  2  0  0  0  0
 18 19  3  0  0  0  0
 20 21  1  0  0  0  0
 21 33  1  0  0  0  0
 21 34  1  0  0  0  0
 21 35  1  0  0  0  0
M  END
> <s_m_source_file>
AV-unprocessed.smi

> <i_m_source_file_index>
350

> <i_lp_mmshare_version>
43012

> <i_f3d_flags>
0

> <s_epik_input>
TiNDYyhjMVtDSDNdKWMoPU8pbihuYzFbQ0gzXSlbQ0gyXVtDQEhdKFtPSF0pYzJbY0hdW2NIXWMoQ2wpW2NIXVtjSF0y

> <s_epik_cmdline>
J2VwaWtfcHl0aG9uJywgJy1waCcsICc3LjAnLCAnLXRuJywgJzgnLCAnLW1hJywgJzIwMCcsICctbWV0YWxfYmluZGluZycsICctaW1hZScsICc8aW5maWxlLm1hZT4nLCAnLW9tYWUnLCAnPG91dGZpbGUubWFlPic=

> <r_lp_tautomer_probability>
1

> <r_epik_Ionization_Penalty>
1.17315e-07

> <r_epik_Ionization_Penalty_Charging>
1.40848e-10

> <r_epik_Ionization_Penalty_Neutral>
1.17174e-07

> <r_epik_State_Penalty>
-0

> <r_epik_Charging_Adjusted_Penalty>
1.40848e-10

> <i_epik_Tot_Q>
0

> <i_epik_Tot_abs_Q>
0

> <r_epik_Metal_State_Penalty>
-0

> <b_epik_Metal_Only>
0

> <s_lp_Force_Field>
OPLS_2005

> <r_lp_Energy>
28.0073

> <b_lp_Chiralities_Consistent>
1

> <s_lp_Variant>
AV-unprocessed.smi:350-1

> <Gold.Version>
5.8.1

> <Gold.Id.Protein>
6NUR|6NUR_protein|mol2

> <Gold.PLP.Fitness>
45.6707

> <Gold.PLP.PLP>
-42.3928

> <Gold.PLP.part.hbond>
-2.0000

> <Gold.PLP.part.metal>
0.0000

> <Gold.PLP.part.buried>
-7.2326

> <Gold.PLP.part.nonpolar>
-32.6757

> <Gold.PLP.part.repulsive>
0.1119

> <Gold.PLP.ligand.clash>
0.0000

> <Gold.PLP.ligand.torsion>
1.2322

> <Gold.PLP.Chemscore.Hbond>
1.9120

> <Gold.PLP.Chemscore.CHOScore>
0.0000

> <Gold.PLP.Chemscore.Metal>
0.0000

> <Gold.Chemscore.Hbonds>
donor molecule, donor type, donor heavy atom, donor atom, acceptor molecule, acceptor atom, score
      P1  H  7989  7998       L1     7  1.00
      P1  H  7997  8009       L1    16  0.77

> <Gold.PLP.Chemscore.Internal.Correction>
0.0063

> <Gold.Rescore>
     Score         DG    S(hbond)    S(metal)    S(lipo)     H(rot)  DE(clash)    DE(int)     intcor
     16.68     -17.98       1.90        0.00      94.13       1.90       0.67       0.63       ----

> <Gold.Chemscore.Fitness>
16.6801

> <Gold.Chemscore.DG>
-17.9775

> <Gold.Chemscore.ZeroCoef>
-5.4800

> <Gold.Chemscore.Hbond>
1.9043

> <Gold.Chemscore.Metal>
0.0000

> <Gold.Chemscore.Lipo>
94.1299

> <Gold.Chemscore.Internal_Hbond>
0.0000

> <Gold.Chemscore.DEClash>
0.6703

> <Gold.Chemscore.DEInternal>
0.6271

> <Gold.Chemscore.Rot>
1.9047

> <Gold.Chemscore.Internal.Correction>
   9.000000E+99

> <Gold.Chemscore.Hbonds>
donor molecule, donor type, donor heavy atom, donor atom, acceptor molecule, acceptor atom, score
      P1  H  7989  7998       L1     7  0.96
      P1  H  7997  8009       L1    16  0.76

> <Gold.Chemscore.Hbond.Weighted>
-6.3603

> <Gold.Chemscore.Metal.Weighted>
-0.0000

> <Gold.Chemscore.Lipo.Weighted>
-11.0132

> <Gold.Chemscore.Internal_Hbond.Weighted>
0.0000

> <Gold.Chemscore.DEClash.Weighted>
0.6703

> <Gold.Chemscore.DEInternal.Weighted>
0.6271

> <Gold.Chemscore.Rot.Weighted>
4.8760

> <Gold.Chemscore.Internal.Correction.Weighted>
   9.000000E+99

> <Gold.Protein.RotatedTorsions>
[ 6907 6896 6895 6894 ] final  -10.80 input  -60.11 | X-H torsion
[ 7974 7965 7964 7962 ] final  113.31 input  175.53 | X-H torsion
[ 8008 7997 7996 7995 ] final  168.06 input   59.86 | X-H torsion
[ 10167 10162 10161 10158 ] final -152.45 input  -65.29 | X-H torsion
[ 10718 10713 10712 10709 ] final -177.85 input   66.30 | X-H torsion
[ 10763 10752 10751 10750 ] final -170.15 input  -60.55 | X-H torsion
[ 11005 11000 10999 10996 ] final   78.72 input  -57.11 | X-H torsion

> <Gold.Protein.ActiveResidues>
 VAL166  LYS551  ARG553  GLY616  TRP617  ASP618  TYR619  PRO620  LYS621  CYS622 
 ASP623  PHE694  ASN695  SER759  ASP760  ASP761  ALA762  ILE779  LEU786  VAL792 
 PHE793  MET794  SER795  GLU796  ALA797  LYS798  CYS799  TRP800  GLU811  SER814 

> <Gold.Protein.RotatedAtoms>
  151.3963  135.0964  159.9541 H   0  0  0  0  0  0  0  0  0  0  0  0  # atno 6907 bound_to 6896
  152.5064  133.8931  159.7414 H   0  0  0  0  0  0  0  0  0  0  0  0  # atno 6908 bound_to 6896
  150.9395  133.6616  159.2822 H   0  0  0  0  0  0  0  0  0  0  0  0  # atno 6909 bound_to 6896
  145.2186  139.2873  143.4230 H   0  0  0  0  0  0  0  0  0  0  0  0  # atno 7974 bound_to 7965
  156.1580  140.1600  156.8660 H   0  0  0  0  0  0  0  0  0  0  0  0  # atno 8008 bound_to 7997
  154.5133  140.0795  156.8069 H   0  0  0  0  0  0  0  0  0  0  0  0  # atno 8009 bound_to 7997
  155.3764  140.3403  155.4247 H   0  0  0  0  0  0  0  0  0  0  0  0  # atno 8010 bound_to 7997
  139.7181  143.9001  152.2493 H   0  0  0  0  0  0  0  0  0  0  0  0  # atno 10167 bound_to 10162
  156.8356  130.9668  151.3103 H   0  0  0  0  0  0  0  0  0  0  0  0  # atno 10718 bound_to 10713
  154.6446  135.2903  155.0062 H   0  0  0  0  0  0  0  0  0  0  0  0  # atno 10763 bound_to 10752
  154.1176  135.6553  153.4901 H   0  0  0  0  0  0  0  0  0  0  0  0  # atno 10764 bound_to 10752
  153.0344  135.5280  154.7328 H   0  0  0  0  0  0  0  0  0  0  0  0  # atno 10765 bound_to 10752
  139.9201  134.7785  156.1685 H   0  0  0  0  0  0  0  0  0  0  0  0  # atno 11005 bound_to 11000
  146.3381  140.2484  142.8598 LP  0  0  0  0  0  0  0  0  0  0  0  0  # atno 17320 bound_to 7965
  144.9787  140.8439  143.5410 LP  0  0  0  0  0  0  0  0  0  0  0  0  # atno 17321 bound_to 7965
  139.8889  144.6976  150.8792 LP  0  0  0  0  0  0  0  0  0  0  0  0  # atno 17342 bound_to 10162
  140.7748  143.3602  151.1844 LP  0  0  0  0  0  0  0  0  0  0  0  0  # atno 17343 bound_to 10162
  157.6383  130.8785  149.9401 LP  0  0  0  0  0  0  0  0  0  0  0  0  # atno 17370 bound_to 10713
  156.0909  130.3663  150.0396 LP  0  0  0  0  0  0  0  0  0  0  0  0  # atno 17371 bound_to 10713
  141.0714  133.6795  156.2149 LP  0  0  0  0  0  0  0  0  0  0  0  0  # atno 17394 bound_to 11000
  140.6500  134.5077  157.5576 LP  0  0  0  0  0  0  0  0  0  0  0  0  # atno 17395 bound_to 11000

$$$$
