AV-unprocessed.smi:730|AV-procd|sdf|3522|dock3
  -GOLD-   22720 0513D 1   1.00000     0.00000
 Structure written by MMmdl.
 40 41  0  0  0  0  0  0  0  0  1 V2000
  145.4856  135.9465  162.0859 C   0  0  0  0  0  0  0  0  0  0  0  0
  146.9952  135.6335  162.0748 C   0  0  0  0  0  0  0  0  0  0  0  0
  147.6275  136.2480  163.3375 C   0  0  0  0  0  0  0  0  0  0  0  0
  147.1740  134.1041  162.1104 C   0  0  0  0  0  0  0  0  0  0  0  0
  147.6502  136.2004  160.8462 C   0  0  0  0  0  0  0  0  0  0  0  0
  147.4104  136.0699  159.5049 C   0  0  0  0  0  0  0  0  0  0  0  0
  148.4096  136.8875  158.9141 C   0  0  0  0  0  0  0  0  0  0  0  0
  148.5000  137.0235  157.5053 N   0  0  0  0  0  0  0  0  0  0  0  0
  149.4387  137.6832  156.8056 C   0  0  0  0  0  0  0  0  0  0  0  0
  150.3930  138.2894  157.2935 O   0  0  0  0  0  0  0  0  0  0  0  0
  149.2089  137.6043  155.4870 N   0  0  0  0  0  0  0  0  0  0  0  0
  150.0464  138.2057  154.4515 C   0  0  2  0  0  0  0  0  0  0  0  0
  151.4342  137.5378  154.4210 C   0  0  0  0  0  0  0  0  0  0  0  0
  152.3574  138.4797  155.1915 C   0  0  0  0  0  0  0  0  0  0  0  0
  151.8294  139.8670  154.8424 C   0  0  0  0  0  0  0  0  0  0  0  0
  150.3054  139.6968  154.7668 C   0  0  1  0  0  0  0  0  0  0  0  0
  149.7710  140.5402  153.7674 O   0  0  0  0  0  0  0  0  0  0  0  0
  149.1926  137.4678  159.8092 N   0  0  0  0  0  0  0  0  0  0  0  0
  148.7108  137.0322  161.0484 O   0  0  0  0  0  0  0  0  0  0  0  0
  145.0014  135.5413  162.9751 H   0  0  0  0  0  0  0  0  0  0  0  0
  144.9838  135.5179  161.2174 H   0  0  0  0  0  0  0  0  0  0  0  0
  145.3017  137.0214  162.0762 H   0  0  0  0  0  0  0  0  0  0  0  0
  147.5132  137.3324  163.3492 H   0  0  0  0  0  0  0  0  0  0  0  0
  148.6949  136.0310  163.3963 H   0  0  0  0  0  0  0  0  0  0  0  0
  147.1655  135.8585  164.2452 H   0  0  0  0  0  0  0  0  0  0  0  0
  146.6983  133.6672  162.9891 H   0  0  0  0  0  0  0  0  0  0  0  0
  148.2280  133.8249  162.1386 H   0  0  0  0  0  0  0  0  0  0  0  0
  146.7342  133.6335  161.2304 H   0  0  0  0  0  0  0  0  0  0  0  0
  146.6413  135.4838  159.0242 H   0  0  0  0  0  0  0  0  0  0  0  0
  147.7719  136.5702  156.9738 H   0  0  0  0  0  0  0  0  0  0  0  0
  148.4004  137.0874  155.1736 H   0  0  0  0  0  0  0  0  0  0  0  0
  149.5604  138.0888  153.4805 H   0  0  0  0  0  0  0  0  0  0  0  0
  151.4437  136.5247  154.8255 H   0  0  0  0  0  0  0  0  0  0  0  0
  151.7756  137.4720  153.3870 H   0  0  0  0  0  0  0  0  0  0  0  0
  152.2567  138.3021  156.2629 H   0  0  0  0  0  0  0  0  0  0  0  0
  153.4069  138.3492  154.9261 H   0  0  0  0  0  0  0  0  0  0  0  0
  152.1313  140.6263  155.5644 H   0  0  0  0  0  0  0  0  0  0  0  0
  152.2298  140.1603  153.8703 H   0  0  0  0  0  0  0  0  0  0  0  0
  149.8644  139.9734  155.7261 H   0  0  0  0  0  0  0  0  0  0  0  0
  149.7169  140.0518  152.9599 H   0  0  0  0  0  0  0  0  0  0  0  0
  1  2  1  0  0  0  0
  1 20  1  0  0  0  0
  1 21  1  0  0  0  0
  1 22  1  0  0  0  0
  2  3  1  0  0  0  0
  2  4  1  0  0  0  0
  2  5  1  0  0  0  0
  3 23  1  0  0  0  0
  3 24  1  0  0  0  0
  3 25  1  0  0  0  0
  4 26  1  0  0  0  0
  4 27  1  0  0  0  0
  4 28  1  0  0  0  0
  5 19  1  0  0  0  0
  5  6  2  0  0  0  0
  6  7  1  0  0  0  0
  6 29  1  0  0  0  0
  7  8  1  0  0  0  0
  7 18  2  0  0  0  0
  8  9  1  0  0  0  0
  8 30  1  0  0  0  0
  9 10  2  0  0  0  0
  9 11  1  0  0  0  0
 11 12  1  0  0  0  0
 11 31  1  0  0  0  0
 12 16  1  0  0  0  0
 12 13  1  0  0  0  0
 12 32  1  0  0  0  0
 13 14  1  0  0  0  0
 13 33  1  0  0  0  0
 13 34  1  0  0  0  0
 14 15  1  0  0  0  0
 14 35  1  0  0  0  0
 14 36  1  0  0  0  0
 15 16  1  0  0  0  0
 15 37  1  0  0  0  0
 15 38  1  0  0  0  0
 16 17  1  0  0  0  0
 16 39  1  0  0  0  0
 17 40  1  0  0  0  0
 18 19  1  0  0  0  0
M  END
> <s_m_source_file>
AV-unprocessed.smi

> <i_m_source_file_index>
730

> <i_lp_mmshare_version>
43012

> <i_f3d_flags>
0

> <s_epik_input>
W0NIM11DKFtDSDNdKShbQ0gzXSljMVtjSF1jKG5vMSlbTkhdQyg9TylbTkhdW0NAQEhdMltDSDJdW0NIMl1bQ0gyXVtDQEhdMltPSF0=

> <s_epik_cmdline>
J2VwaWtfcHl0aG9uJywgJy1waCcsICc3LjAnLCAnLXRuJywgJzgnLCAnLW1hJywgJzIwMCcsICctbWV0YWxfYmluZGluZycsICctaW1hZScsICc8aW5maWxlLm1hZT4nLCAnLW9tYWUnLCAnPG91dGZpbGUubWFlPic=

> <r_lp_tautomer_probability>
1

> <r_epik_Ionization_Penalty>
2.23071e-05

> <r_epik_Ionization_Penalty_Charging>
0

> <r_epik_Ionization_Penalty_Neutral>
2.23071e-05

> <r_epik_State_Penalty>
-0

> <r_epik_Charging_Adjusted_Penalty>
0

> <i_epik_Tot_Q>
0

> <i_epik_Tot_abs_Q>
0

> <r_epik_Metal_State_Penalty>
-0

> <b_epik_Metal_Only>
0

> <s_lp_Force_Field>
OPLS_2005

> <r_lp_Energy>
16.5614

> <b_lp_Chiralities_Consistent>
1

> <s_lp_Variant>
AV-unprocessed.smi:730-1

> <Gold.Version>
5.8.1

> <Gold.Id.Protein>
6NUR|6NUR_protein|mol2

> <Gold.PLP.Fitness>
39.7950

> <Gold.PLP.PLP>
-33.8393

> <Gold.PLP.part.hbond>
-4.5829

> <Gold.PLP.part.metal>
0.0000

> <Gold.PLP.part.buried>
-0.3981

> <Gold.PLP.part.nonpolar>
-29.0514

> <Gold.PLP.part.repulsive>
0.0179

> <Gold.PLP.ligand.clash>
0.0000

> <Gold.PLP.ligand.torsion>
0.1404

> <Gold.PLP.Chemscore.Hbond>
2.0768

> <Gold.PLP.Chemscore.CHOScore>
0.0000

> <Gold.PLP.Chemscore.Metal>
0.0000

> <Gold.Chemscore.Hbonds>
donor molecule, donor type, donor heavy atom, donor atom, acceptor molecule, acceptor atom, score
      L1  H    17    40       P1  7957  0.99
      P1  H  6931  6943       L1    19  0.91
      P1  H  7989  7998       L1    17  0.03
      P1  H  8011  8017       L1    17  0.04

> <Gold.PLP.Chemscore.Internal.Correction>
0.0061

> <Gold.Rescore>
     Score         DG    S(hbond)    S(metal)    S(lipo)     H(rot)  DE(clash)    DE(int)     intcor
     10.16     -15.80       1.41        0.00      85.34       1.71       1.80       3.84       ----

> <Gold.Chemscore.Fitness>
10.1563

> <Gold.Chemscore.DG>
-15.7958

> <Gold.Chemscore.ZeroCoef>
-5.4800

> <Gold.Chemscore.Hbond>
1.4118

> <Gold.Chemscore.Metal>
0.0000

> <Gold.Chemscore.Lipo>
85.3370

> <Gold.Chemscore.Internal_Hbond>
0.0000

> <Gold.Chemscore.DEClash>
1.8010

> <Gold.Chemscore.DEInternal>
3.8384

> <Gold.Chemscore.Rot>
1.7125

> <Gold.Chemscore.Internal.Correction>
   9.000000E+99

> <Gold.Chemscore.Hbonds>
donor molecule, donor type, donor heavy atom, donor atom, acceptor molecule, acceptor atom, score
      L1  H    17    40       P1  7957  0.93
      P1  H  6931  6943       L1    19  0.19

> <Gold.Chemscore.Hbond.Weighted>
-4.7154

> <Gold.Chemscore.Metal.Weighted>
-0.0000

> <Gold.Chemscore.Lipo.Weighted>
-9.9844

> <Gold.Chemscore.Internal_Hbond.Weighted>
0.0000

> <Gold.Chemscore.DEClash.Weighted>
1.8010

> <Gold.Chemscore.DEInternal.Weighted>
3.8384

> <Gold.Chemscore.Rot.Weighted>
4.3841

> <Gold.Chemscore.Internal.Correction.Weighted>
   9.000000E+99

> <Gold.Protein.RotatedTorsions>
[ 6907 6896 6895 6894 ] final  -82.66 input  -60.11 | X-H torsion
[ 7974 7965 7964 7962 ] final -106.77 input  175.53 | X-H torsion
[ 8008 7997 7996 7995 ] final  103.59 input   59.86 | X-H torsion
[ 10167 10162 10161 10158 ] final   49.57 input  -65.29 | X-H torsion
[ 10718 10713 10712 10709 ] final  -45.63 input   66.30 | X-H torsion
[ 10763 10752 10751 10750 ] final   55.40 input  -60.55 | X-H torsion
[ 11005 11000 10999 10996 ] final  119.52 input  -57.11 | X-H torsion

> <Gold.Protein.ActiveResidues>
 VAL166  LYS551  ARG553  GLY616  TRP617  ASP618  TYR619  PRO620  LYS621  CYS622 
 ASP623  PHE694  ASN695  SER759  ASP760  ASP761  ALA762  ILE779  LEU786  VAL792 
 PHE793  MET794  SER795  GLU796  ALA797  LYS798  CYS799  TRP800  GLU811  SER814 

> <Gold.Protein.RotatedAtoms>
  150.6894  134.3631  159.4958 H   0  0  0  0  0  0  0  0  0  0  0  0  # atno 6907 bound_to 6896
  152.1457  134.9025  160.0560 H   0  0  0  0  0  0  0  0  0  0  0  0  # atno 6908 bound_to 6896
  152.0142  133.3838  159.4269 H   0  0  0  0  0  0  0  0  0  0  0  0  # atno 6909 bound_to 6896
  145.2137  140.9106  143.3299 H   0  0  0  0  0  0  0  0  0  0  0  0  # atno 7974 bound_to 7965
  156.1498  140.3162  155.8629 H   0  0  0  0  0  0  0  0  0  0  0  0  # atno 8008 bound_to 7997
  155.3994  140.0498  157.3054 H   0  0  0  0  0  0  0  0  0  0  0  0  # atno 8009 bound_to 7997
  154.5048  140.2143  155.9285 H   0  0  0  0  0  0  0  0  0  0  0  0  # atno 8010 bound_to 7997
  140.2815  144.3151  150.6263 H   0  0  0  0  0  0  0  0  0  0  0  0  # atno 10167 bound_to 10162
  156.2263  130.4169  149.8929 H   0  0  0  0  0  0  0  0  0  0  0  0  # atno 10718 bound_to 10713
  152.9816  135.5712  154.5061 H   0  0  0  0  0  0  0  0  0  0  0  0  # atno 10763 bound_to 10752
  154.4572  135.2780  155.1741 H   0  0  0  0  0  0  0  0  0  0  0  0  # atno 10764 bound_to 10752
  154.3344  135.6242  153.5620 H   0  0  0  0  0  0  0  0  0  0  0  0  # atno 10765 bound_to 10752
  139.9150  134.9629  156.7668 H   0  0  0  0  0  0  0  0  0  0  0  0  # atno 11005 bound_to 11000
  144.9831  139.3763  143.6252 LP  0  0  0  0  0  0  0  0  0  0  0  0  # atno 17320 bound_to 7965
  146.3392  139.8981  142.8798 LP  0  0  0  0  0  0  0  0  0  0  0  0  # atno 17321 bound_to 7965
  140.5807  143.2173  151.7433 LP  0  0  0  0  0  0  0  0  0  0  0  0  # atno 17342 bound_to 10162
  139.4961  144.4083  152.0107 LP  0  0  0  0  0  0  0  0  0  0  0  0  # atno 17343 bound_to 10162
  156.6558  130.8762  151.3539 LP  0  0  0  0  0  0  0  0  0  0  0  0  # atno 17370 bound_to 10713
  157.7112  130.9443  150.1096 LP  0  0  0  0  0  0  0  0  0  0  0  0  # atno 17371 bound_to 10713
  140.6653  133.9608  155.7827 LP  0  0  0  0  0  0  0  0  0  0  0  0  # atno 17394 bound_to 11000
  141.0615  134.0339  157.3651 LP  0  0  0  0  0  0  0  0  0  0  0  0  # atno 17395 bound_to 11000

$$$$
