AV-unprocessed.smi:54|AV-procd|sdf|556|dock10
  -GOLD-   2262016453D 1   1.00000     0.00000
 Structure written by MMmdl.
 43 45  0  0  0  0  0  0  0  0  2 V2000
  146.6502  136.8739  162.4312 C   0  0  0  0  0  0  0  0  0  0  0  0
  146.7790  135.7761  161.3625 C   0  0  0  0  0  0  0  0  0  0  0  0
  147.1288  134.4191  161.9954 C   0  0  0  0  0  0  0  0  0  0  0  0
  147.8202  136.1679  160.3045 C   0  0  0  0  0  0  0  0  0  0  0  0
  148.4517  137.2175  160.4441 O   0  0  0  0  0  0  0  0  0  0  0  0
  147.9450  135.3055  159.2718 N   0  0  0  0  0  0  0  0  0  0  0  0
  148.7698  135.3934  158.1450 C   0  0  0  0  0  0  0  0  0  0  0  0
  148.6059  136.5077  157.4758 N   0  0  0  0  0  0  0  0  0  0  0  0
  149.4238  136.5909  156.3657 C   0  0  0  0  0  0  0  0  0  0  0  0
  150.3213  135.6593  155.9197 C   0  0  0  0  0  0  0  0  0  0  0  0
  150.9704  136.0876  154.7680 N   0  0  0  0  0  0  0  0  0  0  0  0
  150.4225  137.2850  154.5693 C   0  0  0  0  0  0  0  0  0  0  0  0
  149.4959  137.6582  155.4738 N   0  0  0  0  0  0  0  0  0  0  0  0
  148.7384  138.9475  155.4807 C   0  0  1  0  0  0  0  0  0  0  0  0
  148.8712  139.5217  156.7432 O   0  0  0  0  0  0  0  0  0  0  0  0
  149.0351  140.9252  156.6112 C   0  0  1  0  0  0  0  0  0  0  0  0
  149.6751  141.5158  157.8801 C   0  0  0  0  0  0  0  0  0  0  0  0
  149.5734  142.9240  157.8735 O   0  0  0  0  0  0  0  0  0  0  0  0
  149.8031  141.0987  155.2916 C   0  0  1  0  0  0  0  0  0  0  0  0
  151.2035  141.0295  155.4788 O   0  0  0  0  0  0  0  0  0  0  0  0
  149.3149  139.9279  154.4423 C   0  0  2  0  0  0  0  0  0  0  0  0
  148.3064  140.3742  153.5574 O   0  0  0  0  0  0  0  0  0  0  0  0
  150.4396  134.4103  156.7089 C   0  0  0  0  0  0  0  0  0  0  0  0
  151.2280  133.5421  156.3397 O   0  0  0  0  0  0  0  0  0  0  0  0
  149.6346  134.3326  157.8104 N   0  5  0  0  0  0  0  0  0  0  0  0
  147.7011  138.6657  155.2932 H   0  0  0  0  0  0  0  0  0  0  0  0
  148.0349  141.3445  156.4866 H   0  0  0  0  0  0  0  0  0  0  0  0
  149.5876  142.0654  154.8340 H   0  0  0  0  0  0  0  0  0  0  0  0
  150.1167  139.4671  153.8621 H   0  0  0  0  0  0  0  0  0  0  0  0
  146.4082  137.8378  161.9818 H   0  0  0  0  0  0  0  0  0  0  0  0
  147.5744  136.9931  162.9982 H   0  0  0  0  0  0  0  0  0  0  0  0
  145.8568  136.6360  163.1400 H   0  0  0  0  0  0  0  0  0  0  0  0
  145.8097  135.6744  160.8714 H   0  0  0  0  0  0  0  0  0  0  0  0
  147.2262  133.6418  161.2366 H   0  0  0  0  0  0  0  0  0  0  0  0
  146.3508  134.1020  162.6904 H   0  0  0  0  0  0  0  0  0  0  0  0
  148.0673  134.4638  162.5492 H   0  0  0  0  0  0  0  0  0  0  0  0
  147.2966  134.5325  159.2860 H   0  0  0  0  0  0  0  0  0  0  0  0
  150.7063  137.9137  153.7382 H   0  0  0  0  0  0  0  0  0  0  0  0
  149.1575  141.1398  158.7629 H   0  0  0  0  0  0  0  0  0  0  0  0
  150.7199  141.2195  157.9787 H   0  0  0  0  0  0  0  0  0  0  0  0
  149.4379  143.2103  156.9830 H   0  0  0  0  0  0  0  0  0  0  0  0
  151.3817  140.4125  156.1719 H   0  0  0  0  0  0  0  0  0  0  0  0
  148.7030  140.5581  152.7198 H   0  0  0  0  0  0  0  0  0  0  0  0
  1  2  1  0  0  0  0
  1 30  1  0  0  0  0
  1 31  1  0  0  0  0
  1 32  1  0  0  0  0
  2  3  1  0  0  0  0
  2  4  1  0  0  0  0
  2 33  1  0  0  0  0
  3 34  1  0  0  0  0
  3 35  1  0  0  0  0
  3 36  1  0  0  0  0
  4  5  2  0  0  0  0
  4  6  1  0  0  0  0
  6 37  1  0  0  0  0
  6  7  1  0  0  0  0
  7 25  1  0  0  0  0
  7  8  2  0  0  0  0
  8  9  1  0  0  0  0
  9 13  1  0  0  0  0
  9 10  2  0  0  0  0
 10 11  1  0  0  0  0
 10 23  1  0  0  0  0
 11 12  2  0  0  0  0
 12 13  1  0  0  0  0
 12 38  1  0  0  0  0
 13 14  1  0  0  0  0
 14 26  1  0  0  0  0
 14 21  1  0  0  0  0
 14 15  1  0  0  0  0
 15 16  1  0  0  0  0
 16 27  1  0  0  0  0
 16 17  1  0  0  0  0
 16 19  1  0  0  0  0
 17 18  1  0  0  0  0
 17 39  1  0  0  0  0
 17 40  1  0  0  0  0
 18 41  1  0  0  0  0
 19 28  1  0  0  0  0
 19 20  1  0  0  0  0
 19 21  1  0  0  0  0
 20 42  1  0  0  0  0
 21 29  1  0  0  0  0
 21 22  1  0  0  0  0
 22 43  1  0  0  0  0
 23 24  2  0  0  0  0
 23 25  1  0  0  0  0
M  CHG  1  25  -1
M  END
> <s_m_source_file>
AV-unprocessed.smi

> <i_m_source_file_index>
54

> <i_lp_mmshare_version>
43012

> <i_f3d_flags>
0

> <s_epik_input>
W0NIM11bQ0hdKFtDSDNdKUMoPU8pW05IXWMobjEpW25IXWMoPU8pYyhjMTIpbltjSF1uMltDQEBIXTNPW0NASF0oW0NIMl1bT0hdKVtDQEBIXShbT0hdKVtDQEhdM1tPSF0=

> <s_epik_cmdline>
J2VwaWtfcHl0aG9uJywgJy1waCcsICc3LjAnLCAnLXRuJywgJzgnLCAnLW1hJywgJzIwMCcsICctbWV0YWxfYmluZGluZycsICctaW1hZScsICc8aW5maWxlLm1hZT4nLCAnLW9tYWUnLCAnPG91dGZpbGUubWFlPic=

> <r_lp_tautomer_probability>
0.85571

> <r_epik_Ionization_Penalty>
1.75936

> <r_epik_Ionization_Penalty_Charging>
4.55893e-11

> <r_epik_Ionization_Penalty_Neutral>
1.75936

> <r_epik_State_Penalty>
1.72072

> <r_epik_Charging_Adjusted_Penalty>
1.72072

> <i_epik_Tot_Q>
-1

> <i_epik_Tot_abs_Q>
1

> <r_epik_Metal_State_Penalty>
0.400338

> <b_epik_Metal_Only>
1

> <s_epik_Chemistry_Notes>
This compound contains an acetal/aminal-like group ( X-CH(R)-Y where X, Y are N, S, or O) that may be acid/base labile, releasing an aldehyde.

> <s_lp_Force_Field>
OPLS_2005

> <r_lp_Energy>
57.3422

> <b_lp_Chiralities_Consistent>
1

> <s_lp_Variant>
AV-unprocessed.smi:54-28

> <Gold.Version>
5.8.1

> <Gold.Id.Protein>
6NUR|6NUR_protein|mol2

> <Gold.PLP.Fitness>
49.4581

> <Gold.PLP.PLP>
-31.1802

> <Gold.PLP.part.hbond>
-7.0787

> <Gold.PLP.part.metal>
0.0000

> <Gold.PLP.part.buried>
-3.3124

> <Gold.PLP.part.nonpolar>
-21.6051

> <Gold.PLP.part.repulsive>
0.2340

> <Gold.PLP.ligand.clash>
0.0000

> <Gold.PLP.ligand.torsion>
0.7426

> <Gold.PLP.Chemscore.Hbond>
6.5767

> <Gold.PLP.Chemscore.CHOScore>
0.0000

> <Gold.PLP.Chemscore.Metal>
0.0000

> <Gold.Chemscore.Hbonds>
donor molecule, donor type, donor heavy atom, donor atom, acceptor molecule, acceptor atom, score
      L1  H    18    41       P1  8028  0.86
      L1  H    22    43       P1  7957  1.00
      P1  H  6896  6908       L1    25  2.00
      P1  H  6931  6943       L1     5  0.70
      P1  H  6934  6947       L1     5  0.25
      P1  H  7989  7998       L1    20  0.48
      P1  H 10752 10763       L1    11  0.94

> <Gold.PLP.Chemscore.Internal.Correction>
0.0331

> <Gold.Rescore>
     Score         DG    S(hbond)    S(metal)    S(lipo)     H(rot)  DE(clash)    DE(int)     intcor
     14.67     -15.75       4.47        0.00      48.27       4.02       0.35       0.74       ----

> <Gold.Chemscore.Fitness>
14.6650

> <Gold.Chemscore.DG>
-15.7541

> <Gold.Chemscore.ZeroCoef>
-5.4800

> <Gold.Chemscore.Hbond>
4.4658

> <Gold.Chemscore.Metal>
0.0000

> <Gold.Chemscore.Lipo>
48.2709

> <Gold.Chemscore.Internal_Hbond>
0.0000

> <Gold.Chemscore.DEClash>
0.3465

> <Gold.Chemscore.DEInternal>
0.7426

> <Gold.Chemscore.Rot>
4.0192

> <Gold.Chemscore.Internal.Correction>
   9.000000E+99

> <Gold.Chemscore.Hbonds>
donor molecule, donor type, donor heavy atom, donor atom, acceptor molecule, acceptor atom, score
      L1  H    18    41       P1  8028  0.77
      L1  H    22    43       P1  7957  0.97
      P1  H  6896  6908       L1    25  0.42
      P1  H  6931  6943       L1     5  0.70
      P1  H  6934  6947       L1     5  0.24
      P1  H  7989  7998       L1    20  0.06
      P1  H 10752 10763       L1    11  0.89

> <Gold.Chemscore.Hbond.Weighted>
-14.9157

> <Gold.Chemscore.Metal.Weighted>
-0.0000

> <Gold.Chemscore.Lipo.Weighted>
-5.6477

> <Gold.Chemscore.Internal_Hbond.Weighted>
0.0000

> <Gold.Chemscore.DEClash.Weighted>
0.3465

> <Gold.Chemscore.DEInternal.Weighted>
0.7426

> <Gold.Chemscore.Rot.Weighted>
10.2893

> <Gold.Chemscore.Internal.Correction.Weighted>
   9.000000E+99

> <Gold.Protein.RotatedTorsions>
[ 6907 6896 6895 6894 ] final  133.76 input  -60.11 | X-H torsion
[ 7974 7965 7964 7962 ] final  132.73 input  175.53 | X-H torsion
[ 8008 7997 7996 7995 ] final -103.61 input   59.86 | X-H torsion
[ 10167 10162 10161 10158 ] final   68.59 input  -65.29 | X-H torsion
[ 10718 10713 10712 10709 ] final   63.21 input   66.30 | X-H torsion
[ 10763 10752 10751 10750 ] final   42.91 input  -60.55 | X-H torsion
[ 11005 11000 10999 10996 ] final  -39.29 input  -57.11 | X-H torsion

> <Gold.Protein.ActiveResidues>
 VAL166  LYS551  ARG553  GLY616  TRP617  ASP618  TYR619  PRO620  LYS621  CYS622 
 ASP623  PHE694  ASN695  SER759  ASP760  ASP761  ALA762  ILE779  LEU786  VAL792 
 PHE793  MET794  SER795  GLU796  ALA797  LYS798  CYS799  TRP800  GLU811  SER814 

> <Gold.Protein.RotatedAtoms>
  152.3185  133.5828  159.5728 H   0  0  0  0  0  0  0  0  0  0  0  0  # atno 6907 bound_to 6896
  150.7359  134.0046  159.3658 H   0  0  0  0  0  0  0  0  0  0  0  0  # atno 6908 bound_to 6896
  151.7933  135.0730  160.0441 H   0  0  0  0  0  0  0  0  0  0  0  0  # atno 6909 bound_to 6896
  144.9938  139.4380  143.5326 H   0  0  0  0  0  0  0  0  0  0  0  0  # atno 7974 bound_to 7965
  154.8734  140.0422  157.1738 H   0  0  0  0  0  0  0  0  0  0  0  0  # atno 8008 bound_to 7997
  154.8715  140.2959  155.5458 H   0  0  0  0  0  0  0  0  0  0  0  0  # atno 8009 bound_to 7997
  156.2999  140.2428  156.3704 H   0  0  0  0  0  0  0  0  0  0  0  0  # atno 8010 bound_to 7997
  140.0770  144.5103  150.7187 H   0  0  0  0  0  0  0  0  0  0  0  0  # atno 10167 bound_to 10162
  157.5955  130.9093  149.9686 H   0  0  0  0  0  0  0  0  0  0  0  0  # atno 10718 bound_to 10713
  152.9872  135.6117  154.3026 H   0  0  0  0  0  0  0  0  0  0  0  0  # atno 10763 bound_to 10752
  154.2746  135.2778  155.2725 H   0  0  0  0  0  0  0  0  0  0  0  0  # atno 10764 bound_to 10752
  154.5092  135.5845  153.6648 H   0  0  0  0  0  0  0  0  0  0  0  0  # atno 10765 bound_to 10752
  141.0091  133.6917  156.2167 H   0  0  0  0  0  0  0  0  0  0  0  0  # atno 11005 bound_to 11000
  146.3437  139.9285  142.8757 LP  0  0  0  0  0  0  0  0  0  0  0  0  # atno 17320 bound_to 7965
  145.2248  140.9950  143.4024 LP  0  0  0  0  0  0  0  0  0  0  0  0  # atno 17321 bound_to 7965
  140.7097  143.2495  151.4620 LP  0  0  0  0  0  0  0  0  0  0  0  0  # atno 17342 bound_to 10162
  139.5802  144.1728  152.1957 LP  0  0  0  0  0  0  0  0  0  0  0  0  # atno 17343 bound_to 10162
  156.1017  130.3655  150.0206 LP  0  0  0  0  0  0  0  0  0  0  0  0  # atno 17370 bound_to 10713
  156.8320  130.9396  151.3636 LP  0  0  0  0  0  0  0  0  0  0  0  0  # atno 17371 bound_to 10713
  140.6763  134.4814  157.5588 LP  0  0  0  0  0  0  0  0  0  0  0  0  # atno 17394 bound_to 11000
  139.9080  134.8407  156.1634 LP  0  0  0  0  0  0  0  0  0  0  0  0  # atno 17395 bound_to 11000

$$$$
