AV-unprocessed.smi:1698|AV-procd|sdf|6813|dock8
  -GOLD-   22720 7593D 1   1.00000     0.00000
 Structure written by MMmdl.
 28 29  0  0  0  0  0  0  0  0  1 V2000
  144.8703  137.4785  152.6317 O   0  0  0  0  0  0  0  0  0  0  0  0
  146.0027  137.0600  152.3993 C   0  0  0  0  0  0  0  0  0  0  0  0
  146.2743  135.9578  151.6749 N   0  0  0  0  0  0  0  0  0  0  0  0
  145.3496  135.0850  151.0487 C   0  0  0  0  0  0  0  0  0  0  0  0
  145.5876  133.7084  150.7868 C   0  0  0  0  0  0  0  0  0  0  0  0
  144.5474  133.1426  150.1915 N   0  0  0  0  0  0  0  0  0  0  0  0
  143.6477  134.1449  150.0714 N   0  0  0  0  0  0  0  0  0  0  0  0
  144.0928  135.3454  150.5794 C   0  0  0  0  0  0  0  0  0  0  0  0
  147.0910  137.6993  152.8650 N   0  0  0  0  0  0  0  0  0  0  0  0
  147.1503  138.9154  153.6775 C   0  0  2  0  0  0  0  0  0  0  0  0
  146.8282  140.1597  152.8288 C   0  0  0  0  0  0  0  0  0  0  0  0
  147.2440  141.4125  153.6105 C   0  0  0  0  0  0  0  0  0  0  0  0
  148.6657  140.9133  154.6546 S   0  0  0  0  0  0  0  0  0  0  0  0
  149.9130  141.4337  154.0748 O   0  0  0  0  0  0  0  0  0  0  0  0
  148.3273  141.1550  156.0653 O   0  0  0  0  0  0  0  0  0  0  0  0
  148.5414  139.1208  154.2990 C   0  0  0  0  0  0  0  0  0  0  0  0
  142.7443  133.9959  149.6448 H   0  0  0  0  0  0  0  0  0  0  0  0
  147.2488  135.7230  151.5560 H   0  0  0  0  0  0  0  0  0  0  0  0
  146.4627  133.1134  151.0036 H   0  0  0  0  0  0  0  0  0  0  0  0
  143.4902  136.2413  150.5581 H   0  0  0  0  0  0  0  0  0  0  0  0
  147.9837  137.2989  152.6142 H   0  0  0  0  0  0  0  0  0  0  0  0
  146.4096  138.8668  154.4778 H   0  0  0  0  0  0  0  0  0  0  0  0
  147.4043  140.1213  151.9028 H   0  0  0  0  0  0  0  0  0  0  0  0
  145.7759  140.1966  152.5455 H   0  0  0  0  0  0  0  0  0  0  0  0
  147.5242  142.2439  152.9636 H   0  0  0  0  0  0  0  0  0  0  0  0
  146.4417  141.7407  154.2716 H   0  0  0  0  0  0  0  0  0  0  0  0
  148.6966  138.5464  155.2124 H   0  0  0  0  0  0  0  0  0  0  0  0
  149.3312  138.8674  153.5910 H   0  0  0  0  0  0  0  0  0  0  0  0
  1  2  2  0  0  0  0
  2  3  1  0  0  0  0
  2  9  1  0  0  0  0
  3  4  1  0  0  0  0
  3 18  1  0  0  0  0
  4  8  2  0  0  0  0
  4  5  1  0  0  0  0
  5  6  2  0  0  0  0
  5 19  1  0  0  0  0
  6  7  1  0  0  0  0
  7 17  1  0  0  0  0
  7  8  1  0  0  0  0
  8 20  1  0  0  0  0
  9 10  1  0  0  0  0
  9 21  1  0  0  0  0
 10 16  1  0  0  0  0
 10 11  1  0  0  0  0
 10 22  1  0  0  0  0
 11 12  1  0  0  0  0
 11 23  1  0  0  0  0
 11 24  1  0  0  0  0
 12 13  1  0  0  0  0
 12 25  1  0  0  0  0
 12 26  1  0  0  0  0
 13 14  2  0  0  0  0
 13 15  2  0  0  0  0
 13 16  1  0  0  0  0
 16 27  1  0  0  0  0
 16 28  1  0  0  0  0
M  END
> <s_m_source_file>
AV-unprocessed.smi

> <i_m_source_file_index>
1698

> <i_lp_mmshare_version>
43012

> <i_f3d_flags>
0

> <s_epik_input>
Tz1TMSg9TylbQ0gyXVtDSDJdW0NASF0oW0NIMl0xKVtOSF1DKD1PKVtOSF1jMltjSF1uW25IXVtjSF0y

> <s_epik_cmdline>
J2VwaWtfcHl0aG9uJywgJy1waCcsICc3LjAnLCAnLXRuJywgJzgnLCAnLW1hJywgJzIwMCcsICctbWV0YWxfYmluZGluZycsICctaW1hZScsICc8aW5maWxlLm1hZT4nLCAnLW9tYWUnLCAnPG91dGZpbGUubWFlPic=

> <r_lp_tautomer_probability>
1

> <r_epik_Ionization_Penalty>
3.85517e-05

> <r_epik_Ionization_Penalty_Charging>
0

> <r_epik_Ionization_Penalty_Neutral>
3.85517e-05

> <r_epik_State_Penalty>
-0

> <r_epik_Charging_Adjusted_Penalty>
0

> <i_epik_Tot_Q>
0

> <i_epik_Tot_abs_Q>
0

> <r_epik_Metal_State_Penalty>
-0

> <b_epik_Metal_Only>
0

> <s_lp_Force_Field>
OPLS_2005

> <r_lp_Energy>
17.454

> <b_lp_Chiralities_Consistent>
1

> <s_lp_Variant>
AV-unprocessed.smi:1698-1

> <Gold.Version>
5.8.1

> <Gold.Id.Protein>
6NUR|6NUR_protein|mol2

> <Gold.PLP.Fitness>
36.0016

> <Gold.PLP.PLP>
-22.1295

> <Gold.PLP.part.hbond>
-4.7965

> <Gold.PLP.part.metal>
0.0000

> <Gold.PLP.part.buried>
-0.3764

> <Gold.PLP.part.nonpolar>
-18.0906

> <Gold.PLP.part.repulsive>
0.8066

> <Gold.PLP.ligand.clash>
0.0000

> <Gold.PLP.ligand.torsion>
0.3361

> <Gold.PLP.Chemscore.Hbond>
3.8480

> <Gold.PLP.Chemscore.CHOScore>
1.0000

> <Gold.PLP.Chemscore.Metal>
0.0000

> <Gold.Chemscore.Hbonds>
donor molecule, donor type, donor heavy atom, donor atom, acceptor molecule, acceptor atom, score
      L1  H     3    18       P1  7948  0.94
      L1  H     7    17       P1 10186  0.98
      L1  H     9    21       P1  7948  1.00
      P1  H  7989  7998       L1    14  0.27
      P1  H  8011  8017       L1    14  0.62
      L1  C     8    20       P1 10171  1.00

> <Gold.PLP.Chemscore.Internal.Correction>
0.0002

> <Gold.Rescore>
     Score         DG    S(hbond)    S(metal)    S(lipo)     H(rot)  DE(clash)    DE(int)     intcor
     18.12     -19.89       3.77        0.00      37.49       1.00       1.21       0.56       ----

> <Gold.Chemscore.Fitness>
18.1219

> <Gold.Chemscore.DG>
-19.8896

> <Gold.Chemscore.ZeroCoef>
-5.4800

> <Gold.Chemscore.Hbond>
3.7673

> <Gold.Chemscore.Metal>
0.0000

> <Gold.Chemscore.Lipo>
37.4941

> <Gold.Chemscore.Internal_Hbond>
0.0000

> <Gold.Chemscore.DEClash>
1.2064

> <Gold.Chemscore.DEInternal>
0.5614

> <Gold.Chemscore.Rot>
1.0000

> <Gold.Chemscore.Internal.Correction>
   9.000000E+99

> <Gold.Chemscore.Hbonds>
donor molecule, donor type, donor heavy atom, donor atom, acceptor molecule, acceptor atom, score
      L1  H     3    18       P1  7948  0.91
      L1  H     7    17       P1 10186  0.93
      L1  H     9    21       P1  7948  0.97
      P1  H  7989  7998       L1    14  0.26
      P1  H  8011  8017       L1    14  0.58

> <Gold.Chemscore.Hbond.Weighted>
-12.5828

> <Gold.Chemscore.Metal.Weighted>
-0.0000

> <Gold.Chemscore.Lipo.Weighted>
-4.3868

> <Gold.Chemscore.Internal_Hbond.Weighted>
0.0000

> <Gold.Chemscore.DEClash.Weighted>
1.2064

> <Gold.Chemscore.DEInternal.Weighted>
0.5614

> <Gold.Chemscore.Rot.Weighted>
2.5600

> <Gold.Chemscore.Internal.Correction.Weighted>
   9.000000E+99

> <Gold.Protein.RotatedTorsions>
[ 6907 6896 6895 6894 ] final    4.62 input  -60.11 | X-H torsion
[ 7974 7965 7964 7962 ] final  -38.03 input  175.53 | X-H torsion
[ 8008 7997 7996 7995 ] final   73.90 input   59.86 | X-H torsion
[ 10167 10162 10161 10158 ] final   16.73 input  -65.29 | X-H torsion
[ 10718 10713 10712 10709 ] final -130.43 input   66.30 | X-H torsion
[ 10763 10752 10751 10750 ] final -116.21 input  -60.55 | X-H torsion
[ 11005 11000 10999 10996 ] final  -39.93 input  -57.11 | X-H torsion

> <Gold.Protein.ActiveResidues>
 VAL166  LYS551  ARG553  GLY616  TRP617  ASP618  TYR619  PRO620  LYS621  CYS622 
 ASP623  PHE694  ASN695  SER759  ASP760  ASP761  ALA762  ILE779  LEU786  VAL792 
 PHE793  MET794  SER795  GLU796  ALA797  LYS798  CYS799  TRP800  GLU811  SER814 

> <Gold.Protein.RotatedAtoms>
  151.6443  135.1009  160.0147 H   0  0  0  0  0  0  0  0  0  0  0  0  # atno 6907 bound_to 6896
  152.4037  133.6852  159.6346 H   0  0  0  0  0  0  0  0  0  0  0  0  # atno 6908 bound_to 6896
  150.7933  133.8664  159.3287 H   0  0  0  0  0  0  0  0  0  0  0  0  # atno 6909 bound_to 6896
  146.0523  140.6464  142.9036 H   0  0  0  0  0  0  0  0  0  0  0  0  # atno 7974 bound_to 7965
  155.7905  140.3479  155.5347 H   0  0  0  0  0  0  0  0  0  0  0  0  # atno 8008 bound_to 7997
  155.8638  140.0975  157.1616 H   0  0  0  0  0  0  0  0  0  0  0  0  # atno 8009 bound_to 7997
  154.4013  140.1353  156.3981 H   0  0  0  0  0  0  0  0  0  0  0  0  # atno 8010 bound_to 7997
  140.5777  143.9041  150.6763 H   0  0  0  0  0  0  0  0  0  0  0  0  # atno 10167 bound_to 10162
  156.2143  130.6938  151.0685 H   0  0  0  0  0  0  0  0  0  0  0  0  # atno 10718 bound_to 10713
  154.8511  135.4353  154.1785 H   0  0  0  0  0  0  0  0  0  0  0  0  # atno 10763 bound_to 10752
  153.2882  135.6959  153.7325 H   0  0  0  0  0  0  0  0  0  0  0  0  # atno 10764 bound_to 10752
  153.6503  135.3452  155.3072 H   0  0  0  0  0  0  0  0  0  0  0  0  # atno 10765 bound_to 10752
  141.0138  133.6895  156.2253 H   0  0  0  0  0  0  0  0  0  0  0  0  # atno 11005 bound_to 11000
  144.7129  140.4105  143.7066 LP  0  0  0  0  0  0  0  0  0  0  0  0  # atno 17320 bound_to 7965
  145.6703  139.1598  143.2758 LP  0  0  0  0  0  0  0  0  0  0  0  0  # atno 17321 bound_to 7965
  140.2533  143.3577  152.1387 LP  0  0  0  0  0  0  0  0  0  0  0  0  # atno 17342 bound_to 10162
  139.5152  144.6959  151.5632 LP  0  0  0  0  0  0  0  0  0  0  0  0  # atno 17343 bound_to 10162
  157.7055  131.0758  150.6681 LP  0  0  0  0  0  0  0  0  0  0  0  0  # atno 17370 bound_to 10713
  156.6741  130.4548  149.5648 LP  0  0  0  0  0  0  0  0  0  0  0  0  # atno 17371 bound_to 10713
  140.6690  134.4888  157.5586 LP  0  0  0  0  0  0  0  0  0  0  0  0  # atno 17394 bound_to 11000
  139.9105  134.8356  156.1547 LP  0  0  0  0  0  0  0  0  0  0  0  0  # atno 17395 bound_to 11000

$$$$
