AV-unprocessed.smi:914|AV-procd|sdf|4153|dock1
  -GOLD-   22720 2 53D 1   1.00000     0.00000
 Structure written by MMmdl.
 32 33  0  0  0  0  0  0  0  0  2 V2000
  152.2684  136.6955  156.5033 O   0  0  0  0  0  0  0  0  0  0  0  0
  151.9601  137.8862  156.4727 C   0  0  0  0  0  0  0  0  0  0  0  0
  151.2858  138.4460  155.4260 N   0  5  0  0  0  0  0  0  0  0  0  0
  150.9288  139.7667  155.3762 C   0  0  0  0  0  0  0  0  0  0  0  0
  150.3241  140.2471  154.4175 O   0  0  0  0  0  0  0  0  0  0  0  0
  151.2539  140.5757  156.4286 N   0  0  0  0  0  0  0  0  0  0  0  0
  150.9139  142.0052  156.4675 C   0  0  0  0  0  0  0  0  0  0  0  0
  150.0756  142.3580  157.7061 C   0  0  0  0  0  0  0  0  0  0  0  0
  150.9161  142.4400  158.8445 O   0  0  0  0  0  0  0  0  0  0  0  0
  152.0083  143.3237  158.6630 C   0  0  0  0  0  0  0  0  0  0  0  0
  152.7713  143.4409  159.9876 C   0  0  1  0  0  0  0  0  0  0  0  0
  151.9039  143.8972  161.1573 C   0  0  0  0  0  0  0  0  0  0  0  0
  152.7083  143.4067  162.3403 C   0  0  0  0  0  0  0  0  0  0  0  0
  153.2861  142.0896  161.8236 C   0  0  0  0  0  0  0  0  0  0  0  0
  153.2463  142.1640  160.4004 O   0  0  0  0  0  0  0  0  0  0  0  0
  151.9559  140.0510  157.5267 C   0  0  0  0  0  0  0  0  0  0  0  0
  152.3190  138.7553  157.5915 C   0  0  0  0  0  0  0  0  0  0  0  0
  153.1842  138.1393  158.9542 Cl  0  0  0  0  0  0  0  0  0  0  0  0
  151.8040  142.6350  156.4269 H   0  0  0  0  0  0  0  0  0  0  0  0
  150.3493  142.2589  155.5693 H   0  0  0  0  0  0  0  0  0  0  0  0
  149.5797  143.3170  157.5492 H   0  0  0  0  0  0  0  0  0  0  0  0
  149.2955  141.6113  157.8622 H   0  0  0  0  0  0  0  0  0  0  0  0
  152.6645  142.9217  157.8895 H   0  0  0  0  0  0  0  0  0  0  0  0
  151.6697  144.3066  158.3313 H   0  0  0  0  0  0  0  0  0  0  0  0
  153.6205  144.1186  159.8833 H   0  0  0  0  0  0  0  0  0  0  0  0
  151.7386  144.9749  161.1702 H   0  0  0  0  0  0  0  0  0  0  0  0
  150.9330  143.4001  161.1329 H   0  0  0  0  0  0  0  0  0  0  0  0
  153.5146  144.1087  162.5568 H   0  0  0  0  0  0  0  0  0  0  0  0
  152.1110  143.2852  163.2441 H   0  0  0  0  0  0  0  0  0  0  0  0
  154.3037  141.9264  162.1793 H   0  0  0  0  0  0  0  0  0  0  0  0
  152.6763  141.2445  162.1440 H   0  0  0  0  0  0  0  0  0  0  0  0
  152.1827  140.7649  158.3050 H   0  0  0  0  0  0  0  0  0  0  0  0
  1  2  2  0  0  0  0
  2 17  1  0  0  0  0
  2  3  1  0  0  0  0
  3  4  1  0  0  0  0
  4  5  2  0  0  0  0
  4  6  1  0  0  0  0
  6  7  1  0  0  0  0
  6 16  1  0  0  0  0
  7  8  1  0  0  0  0
  7 19  1  0  0  0  0
  7 20  1  0  0  0  0
  8  9  1  0  0  0  0
  8 21  1  0  0  0  0
  8 22  1  0  0  0  0
  9 10  1  0  0  0  0
 10 11  1  0  0  0  0
 10 23  1  0  0  0  0
 10 24  1  0  0  0  0
 11 15  1  0  0  0  0
 11 12  1  0  0  0  0
 11 25  1  0  0  0  0
 12 13  1  0  0  0  0
 12 26  1  0  0  0  0
 12 27  1  0  0  0  0
 13 14  1  0  0  0  0
 13 28  1  0  0  0  0
 13 29  1  0  0  0  0
 14 15  1  0  0  0  0
 14 30  1  0  0  0  0
 14 31  1  0  0  0  0
 16 17  2  0  0  0  0
 16 32  1  0  0  0  0
 17 18  1  0  0  0  0
M  CHG  1   3  -1
M  END
> <s_m_source_file>
AV-unprocessed.smi

> <i_m_source_file_index>
914

> <i_lp_mmshare_version>
43012

> <i_f3d_flags>
0

> <s_epik_input>
Tz1jMVtuSF1jKD1PKW4oW2NIXWMxQ2wpW0NIMl1bQ0gyXU9bQ0gyXVtDQEBIXTJbQ0gyXVtDSDJdW0NIMl1PMg==

> <s_epik_cmdline>
J2VwaWtfcHl0aG9uJywgJy1waCcsICc3LjAnLCAnLXRuJywgJzgnLCAnLW1hJywgJzIwMCcsICctbWV0YWxfYmluZGluZycsICctaW1hZScsICc8aW5maWxlLm1hZT4nLCAnLW9tYWUnLCAnPG91dGZpbGUubWFlPic=

> <r_epik_Ionization_Penalty>
1.76812

> <r_epik_Ionization_Penalty_Charging>
1.60097e-08

> <r_epik_Ionization_Penalty_Neutral>
1.76812

> <r_epik_State_Penalty>
1.87929

> <r_epik_Charging_Adjusted_Penalty>
1.87929

> <i_epik_Tot_Q>
-1

> <i_epik_Tot_abs_Q>
1

> <r_epik_Metal_State_Penalty>
0.0133872

> <b_epik_Metal_Only>
0

> <s_lp_Force_Field>
OPLS_2005

> <r_lp_Energy>
30.6138

> <b_lp_Chiralities_Consistent>
1

> <s_lp_Variant>
AV-unprocessed.smi:914-4

> <Gold.Version>
5.8.1

> <Gold.Id.Protein>
6NUR|6NUR_protein|mol2

> <Gold.PLP.Fitness>
43.2374

> <Gold.PLP.PLP>
-37.4112

> <Gold.PLP.part.hbond>
-2.0000

> <Gold.PLP.part.metal>
0.0000

> <Gold.PLP.part.buried>
-5.8791

> <Gold.PLP.part.nonpolar>
-29.7233

> <Gold.PLP.part.repulsive>
0.1652

> <Gold.PLP.ligand.clash>
0.0000

> <Gold.PLP.ligand.torsion>
0.1042

> <Gold.PLP.Chemscore.Hbond>
2.0000

> <Gold.PLP.Chemscore.CHOScore>
0.0000

> <Gold.PLP.Chemscore.Metal>
0.0000

> <Gold.Chemscore.Hbonds>
donor molecule, donor type, donor heavy atom, donor atom, acceptor molecule, acceptor atom, score
      P1  H  7989  7998       L1     5  1.00
      P1  H 10752 10763       L1     1  0.86

> <Gold.PLP.Chemscore.Internal.Correction>
0.0345

> <Gold.Rescore>
     Score         DG    S(hbond)    S(metal)    S(lipo)     H(rot)  DE(clash)    DE(int)     intcor
     15.28     -16.55       1.84        0.00      87.29       2.07       0.03       1.24       ----

> <Gold.Chemscore.Fitness>
15.2809

> <Gold.Chemscore.DG>
-16.5543

> <Gold.Chemscore.ZeroCoef>
-5.4800

> <Gold.Chemscore.Hbond>
1.8427

> <Gold.Chemscore.Metal>
0.0000

> <Gold.Chemscore.Lipo>
87.2935

> <Gold.Chemscore.Internal_Hbond>
0.0000

> <Gold.Chemscore.DEClash>
0.0323

> <Gold.Chemscore.DEInternal>
1.2411

> <Gold.Chemscore.Rot>
2.0678

> <Gold.Chemscore.Internal.Correction>
   9.000000E+99

> <Gold.Chemscore.Hbonds>
donor molecule, donor type, donor heavy atom, donor atom, acceptor molecule, acceptor atom, score
      P1  H  7989  7998       L1     5  0.29
      P1  H 10752 10763       L1     1  0.83

> <Gold.Chemscore.Hbond.Weighted>
-6.1545

> <Gold.Chemscore.Metal.Weighted>
-0.0000

> <Gold.Chemscore.Lipo.Weighted>
-10.2133

> <Gold.Chemscore.Internal_Hbond.Weighted>
0.0000

> <Gold.Chemscore.DEClash.Weighted>
0.0323

> <Gold.Chemscore.DEInternal.Weighted>
1.2411

> <Gold.Chemscore.Rot.Weighted>
5.2935

> <Gold.Chemscore.Internal.Correction.Weighted>
   9.000000E+99

> <Gold.Protein.RotatedTorsions>
[ 6907 6896 6895 6894 ] final   48.36 input  -60.11 | X-H torsion
[ 7974 7965 7964 7962 ] final   47.81 input  175.53 | X-H torsion
[ 8008 7997 7996 7995 ] final  171.94 input   59.86 | X-H torsion
[ 10167 10162 10161 10158 ] final  122.46 input  -65.29 | X-H torsion
[ 10718 10713 10712 10709 ] final -118.45 input   66.30 | X-H torsion
[ 10763 10752 10751 10750 ] final  103.91 input  -60.55 | X-H torsion
[ 11005 11000 10999 10996 ] final   32.36 input  -57.11 | X-H torsion

> <Gold.Protein.ActiveResidues>
 VAL166  LYS551  ARG553  GLY616  TRP617  ASP618  TYR619  PRO620  LYS621  CYS622 
 ASP623  PHE694  ASN695  SER759  ASP760  ASP761  ALA762  ILE779  LEU786  VAL792 
 PHE793  MET794  SER795  GLU796  ALA797  LYS798  CYS799  TRP800  GLU811  SER814 

> <Gold.Protein.RotatedAtoms>
  152.2786  134.7854  160.0400 H   0  0  0  0  0  0  0  0  0  0  0  0  # atno 6907 bound_to 6896
  151.8441  133.3423  159.3660 H   0  0  0  0  0  0  0  0  0  0  0  0  # atno 6908 bound_to 6896
  150.7180  134.5291  159.5735 H   0  0  0  0  0  0  0  0  0  0  0  0  # atno 6909 bound_to 6896
  146.0263  139.4710  142.9866 H   0  0  0  0  0  0  0  0  0  0  0  0  # atno 7974 bound_to 7965
  156.1223  140.1499  156.9186 H   0  0  0  0  0  0  0  0  0  0  0  0  # atno 8008 bound_to 7997
  154.4845  140.0869  156.7496 H   0  0  0  0  0  0  0  0  0  0  0  0  # atno 8009 bound_to 7997
  155.4406  140.3431  155.4292 H   0  0  0  0  0  0  0  0  0  0  0  0  # atno 8010 bound_to 7997
  139.5858  144.7005  151.3414 H   0  0  0  0  0  0  0  0  0  0  0  0  # atno 10167 bound_to 10162
  156.1107  130.6247  150.9293 H   0  0  0  0  0  0  0  0  0  0  0  0  # atno 10718 bound_to 10713
  153.3589  135.3961  155.1703 H   0  0  0  0  0  0  0  0  0  0  0  0  # atno 10763 bound_to 10752
  154.8675  135.3674  154.5125 H   0  0  0  0  0  0  0  0  0  0  0  0  # atno 10764 bound_to 10752
  153.5583  135.7081  153.5619 H   0  0  0  0  0  0  0  0  0  0  0  0  # atno 10765 bound_to 10752
  140.2743  134.3046  155.7818 H   0  0  0  0  0  0  0  0  0  0  0  0  # atno 11005 bound_to 11000
  145.7113  141.0105  143.1452 LP  0  0  0  0  0  0  0  0  0  0  0  0  # atno 17320 bound_to 7965
  144.7011  139.8760  143.7444 LP  0  0  0  0  0  0  0  0  0  0  0  0  # atno 17321 bound_to 7965
  140.7129  143.7342  150.7601 LP  0  0  0  0  0  0  0  0  0  0  0  0  # atno 17342 bound_to 10162
  140.0886  143.4900  152.2491 LP  0  0  0  0  0  0  0  0  0  0  0  0  # atno 17343 bound_to 10162
  157.6288  131.0923  150.8481 LP  0  0  0  0  0  0  0  0  0  0  0  0  # atno 17370 bound_to 10713
  156.8593  130.5107  149.5305 LP  0  0  0  0  0  0  0  0  0  0  0  0  # atno 17371 bound_to 10713
  141.2173  133.7486  156.9383 LP  0  0  0  0  0  0  0  0  0  0  0  0  # atno 17394 bound_to 11000
  140.1343  134.9335  157.2381 LP  0  0  0  0  0  0  0  0  0  0  0  0  # atno 17395 bound_to 11000

$$$$
