AV-unprocessed.smi:561|AV-procd|sdf|2940|dock4
  -GOLD-   2262023433D 1   1.00000     0.00000
 Structure written by MMmdl.
 36 37  0  0  0  0  0  0  0  0  3 V2000
  151.0494  139.0704  154.7203 C   0  0  0  0  0  0  0  0  0  0  0  0
  150.1690  140.1347  155.3894 C   0  0  2  0  0  0  0  0  0  0  0  0
  149.4096  140.9783  154.3331 C   0  0  0  0  0  0  0  0  0  0  0  0
  148.1762  140.3514  153.8232 N   0  0  0  0  0  0  0  0  0  0  0  0
  148.0456  139.0921  153.2910 C   0  0  0  0  0  0  0  0  0  0  0  0
  146.7258  138.9427  152.9527 C   0  0  0  0  0  0  0  0  0  0  0  0
  146.1014  140.1098  153.3023 N   0  3  0  0  0  0  0  0  0  0  0  0
  146.9814  140.9618  153.8378 C   0  0  0  0  0  0  0  0  0  0  0  0
  151.0218  140.9987  156.2133 N   0  5  0  0  0  0  0  0  0  0  0  0
  151.8744  140.5732  157.1955 C   0  0  0  0  0  0  0  0  0  0  0  0
  152.5668  139.5483  157.1635 O   0  0  0  0  0  0  0  0  0  0  0  0
  151.9906  141.3804  158.4462 C   0  0  0  0  0  0  0  0  0  0  0  0
  151.7334  142.6510  158.4150 N   0  0  0  0  0  0  0  0  0  0  0  0
  151.8041  143.4452  159.5407 N   0  0  0  0  0  0  0  0  0  0  0  0
  151.2362  144.7825  159.3829 C   0  0  0  0  0  0  0  0  0  0  0  0
  152.3801  143.0745  160.7108 C   0  0  0  0  0  0  0  0  0  0  0  0
  152.4221  143.7916  161.7108 O   0  0  0  0  0  0  0  0  0  0  0  0
  153.0343  141.6909  160.7407 C   0  0  0  0  0  0  0  0  0  0  0  0
  152.3717  140.7092  159.7543 C   0  0  0  0  0  0  0  0  0  0  0  0
  150.4503  138.3957  154.1086 H   0  0  0  0  0  0  0  0  0  0  0  0
  151.5682  138.4635  155.4633 H   0  0  0  0  0  0  0  0  0  0  0  0
  151.8025  139.5231  154.0741 H   0  0  0  0  0  0  0  0  0  0  0  0
  149.4280  139.6045  155.9897 H   0  0  0  0  0  0  0  0  0  0  0  0
  149.1431  141.9549  154.7408 H   0  0  0  0  0  0  0  0  0  0  0  0
  150.0539  141.1684  153.4736 H   0  0  0  0  0  0  0  0  0  0  0  0
  148.8865  138.4221  153.1838 H   0  0  0  0  0  0  0  0  0  0  0  0
  146.1989  138.1156  152.5001 H   0  0  0  0  0  0  0  0  0  0  0  0
  146.7735  141.9538  154.1974 H   0  0  0  0  0  0  0  0  0  0  0  0
  152.0109  145.5419  159.4970 H   0  0  0  0  0  0  0  0  0  0  0  0
  150.4638  144.9655  160.1313 H   0  0  0  0  0  0  0  0  0  0  0  0
  150.7809  144.9202  158.4010 H   0  0  0  0  0  0  0  0  0  0  0  0
  154.0845  141.8211  160.4772 H   0  0  0  0  0  0  0  0  0  0  0  0
  153.0120  141.2856  161.7528 H   0  0  0  0  0  0  0  0  0  0  0  0
  151.4812  140.2703  160.2056 H   0  0  0  0  0  0  0  0  0  0  0  0
  153.0665  139.8870  159.5800 H   0  0  0  0  0  0  0  0  0  0  0  0
  145.1171  140.3051  153.1716 H   0  0  0  0  0  0  0  0  0  0  0  0
  1  2  1  0  0  0  0
  1 20  1  0  0  0  0
  1 21  1  0  0  0  0
  1 22  1  0  0  0  0
  2  3  1  0  0  0  0
  2  9  1  0  0  0  0
  2 23  1  0  0  0  0
  3  4  1  0  0  0  0
  3 24  1  0  0  0  0
  3 25  1  0  0  0  0
  4  8  1  0  0  0  0
  4  5  1  0  0  0  0
  5  6  2  0  0  0  0
  5 26  1  0  0  0  0
  6  7  1  0  0  0  0
  6 27  1  0  0  0  0
  7  8  2  0  0  0  0
  7 36  1  0  0  0  0
  8 28  1  0  0  0  0
  9 10  1  0  0  0  0
 10 11  2  0  0  0  0
 10 12  1  0  0  0  0
 12 19  1  0  0  0  0
 12 13  2  0  0  0  0
 13 14  1  0  0  0  0
 14 15  1  0  0  0  0
 14 16  1  0  0  0  0
 15 29  1  0  0  0  0
 15 30  1  0  0  0  0
 15 31  1  0  0  0  0
 16 17  2  0  0  0  0
 16 18  1  0  0  0  0
 18 19  1  0  0  0  0
 18 32  1  0  0  0  0
 18 33  1  0  0  0  0
 19 34  1  0  0  0  0
 19 35  1  0  0  0  0
M  CHG  1   7   1
M  CHG  1   9  -1
M  END
> <s_m_source_file>
AV-unprocessed.smi

> <i_m_source_file_index>
561

> <i_lp_mmshare_version>
43012

> <i_f3d_flags>
0

> <s_epik_input>
W2NIXTFuW2NIXVtjSF1uMVtDSDJdW0NAQEhdKFtDSDNdKVtOSF1DKD1PKUMyPU5OKFtDSDNdKUMoPU8pW0NIMl1bQ0gyXTI=

> <s_epik_cmdline>
J2VwaWtfcHl0aG9uJywgJy1waCcsICc3LjAnLCAnLXRuJywgJzgnLCAnLW1hJywgJzIwMCcsICctbWV0YWxfYmluZGluZycsICctaW1hZScsICc8aW5maWxlLm1hZT4nLCAnLW9tYWUnLCAnPG91dGZpbGUubWFlPic=

> <r_lp_tautomer_probability>
1

> <r_epik_Ionization_Penalty>
5.37239

> <r_epik_Ionization_Penalty_Charging>
5.18263

> <r_epik_Ionization_Penalty_Neutral>
0.189756

> <r_epik_State_Penalty>
5.53772

> <r_epik_Charging_Adjusted_Penalty>
10.7204

> <i_epik_Tot_Q>
0

> <i_epik_Tot_abs_Q>
2

> <r_epik_Metal_State_Penalty>
1.80836

> <b_epik_Metal_Only>
1

> <s_epik_Chemistry_Notes>
This compound has an imine and may undergo hydrolysis.

> <s_lp_Force_Field>
OPLS_2005

> <r_lp_Energy>
20.2917

> <b_lp_Chiralities_Consistent>
1

> <s_lp_Variant>
AV-unprocessed.smi:561-5

> <Gold.Version>
5.8.1

> <Gold.Id.Protein>
6NUR|6NUR_protein|mol2

> <Gold.PLP.Fitness>
48.6168

> <Gold.PLP.PLP>
-38.2537

> <Gold.PLP.part.hbond>
-2.0000

> <Gold.PLP.part.metal>
0.0000

> <Gold.PLP.part.buried>
-2.2166

> <Gold.PLP.part.nonpolar>
-34.5761

> <Gold.PLP.part.repulsive>
0.2049

> <Gold.PLP.ligand.clash>
0.0000

> <Gold.PLP.ligand.torsion>
0.8834

> <Gold.PLP.Chemscore.Hbond>
3.0000

> <Gold.PLP.Chemscore.CHOScore>
1.0301

> <Gold.PLP.Chemscore.Metal>
0.0000

> <Gold.Chemscore.Hbonds>
donor molecule, donor type, donor heavy atom, donor atom, acceptor molecule, acceptor atom, score
      L1  H     7    36       P1 10175  2.00
      P1  H  7997  8010       L1    11  1.00
      L1  C     5    26       P1  7948  0.95
      L1  C     5    26       P1  7957  0.07

> <Gold.PLP.Chemscore.Internal.Correction>
0.0395

> <Gold.Rescore>
     Score         DG    S(hbond)    S(metal)    S(lipo)     H(rot)  DE(clash)    DE(int)     intcor
     13.76     -16.03       1.97        0.00      71.81       1.73       0.19       2.08       ----

> <Gold.Chemscore.Fitness>
13.7609

> <Gold.Chemscore.DG>
-16.0286

> <Gold.Chemscore.ZeroCoef>
-5.4800

> <Gold.Chemscore.Hbond>
1.9686

> <Gold.Chemscore.Metal>
0.0000

> <Gold.Chemscore.Lipo>
71.8129

> <Gold.Chemscore.Internal_Hbond>
0.0000

> <Gold.Chemscore.DEClash>
0.1860

> <Gold.Chemscore.DEInternal>
2.0816

> <Gold.Chemscore.Rot>
1.7299

> <Gold.Chemscore.Internal.Correction>
   9.000000E+99

> <Gold.Chemscore.Hbonds>
donor molecule, donor type, donor heavy atom, donor atom, acceptor molecule, acceptor atom, score
      L1  H     7    36       P1 10175  0.98
      P1  H  7997  8010       L1    11  0.59

> <Gold.Chemscore.Hbond.Weighted>
-6.5751

> <Gold.Chemscore.Metal.Weighted>
-0.0000

> <Gold.Chemscore.Lipo.Weighted>
-8.4021

> <Gold.Chemscore.Internal_Hbond.Weighted>
0.0000

> <Gold.Chemscore.DEClash.Weighted>
0.1860

> <Gold.Chemscore.DEInternal.Weighted>
2.0816

> <Gold.Chemscore.Rot.Weighted>
4.4286

> <Gold.Chemscore.Internal.Correction.Weighted>
   9.000000E+99

> <Gold.Protein.RotatedTorsions>
[ 6907 6896 6895 6894 ] final    6.98 input  -60.11 | X-H torsion
[ 7974 7965 7964 7962 ] final   50.04 input  175.53 | X-H torsion
[ 8008 7997 7996 7995 ] final   65.03 input   59.86 | X-H torsion
[ 10167 10162 10161 10158 ] final  146.21 input  -65.29 | X-H torsion
[ 10718 10713 10712 10709 ] final  -95.51 input   66.30 | X-H torsion
[ 10763 10752 10751 10750 ] final  -70.84 input  -60.55 | X-H torsion
[ 11005 11000 10999 10996 ] final -106.51 input  -57.11 | X-H torsion

> <Gold.Protein.ActiveResidues>
 VAL166  LYS551  ARG553  GLY616  TRP617  ASP618  TYR619  PRO620  LYS621  CYS622 
 ASP623  PHE694  ASN695  SER759  ASP760  ASP761  ALA762  ILE779  LEU786  VAL792 
 PHE793  MET794  SER795  GLU796  ALA797  LYS798  CYS799  TRP800  GLU811  SER814 

> <Gold.Protein.RotatedAtoms>
  151.6825  135.0959  160.0218 H   0  0  0  0  0  0  0  0  0  0  0  0  # atno 6907 bound_to 6896
  152.3827  133.6564  159.6182 H   0  0  0  0  0  0  0  0  0  0  0  0  # atno 6908 bound_to 6896
  150.7760  133.9004  159.3381 H   0  0  0  0  0  0  0  0  0  0  0  0  # atno 6909 bound_to 6896
  146.0050  139.4480  142.9991 H   0  0  0  0  0  0  0  0  0  0  0  0  # atno 7974 bound_to 7965
  155.6553  140.3497  155.4763 H   0  0  0  0  0  0  0  0  0  0  0  0  # atno 8008 bound_to 7997
  155.9814  140.1175  157.0746 H   0  0  0  0  0  0  0  0  0  0  0  0  # atno 8009 bound_to 7997
  154.4192  140.1137  156.5426 H   0  0  0  0  0  0  0  0  0  0  0  0  # atno 8010 bound_to 7997
  139.4911  144.5846  151.6804 H   0  0  0  0  0  0  0  0  0  0  0  0  # atno 10167 bound_to 10162
  156.0045  130.5112  150.6087 H   0  0  0  0  0  0  0  0  0  0  0  0  # atno 10718 bound_to 10713
  154.4233  135.5981  153.6023 H   0  0  0  0  0  0  0  0  0  0  0  0  # atno 10763 bound_to 10752
  152.9795  135.5957  154.3928 H   0  0  0  0  0  0  0  0  0  0  0  0  # atno 10764 bound_to 10752
  154.3757  135.2841  155.2219 H   0  0  0  0  0  0  0  0  0  0  0  0  # atno 10765 bound_to 10752
  141.1001  133.8900  157.1864 H   0  0  0  0  0  0  0  0  0  0  0  0  # atno 11005 bound_to 11000
  145.7429  141.0001  143.1291 LP  0  0  0  0  0  0  0  0  0  0  0  0  # atno 17320 bound_to 7965
  144.6932  139.9121  143.7464 LP  0  0  0  0  0  0  0  0  0  0  0  0  # atno 17321 bound_to 7965
  140.5459  144.0504  150.6107 LP  0  0  0  0  0  0  0  0  0  0  0  0  # atno 17342 bound_to 10162
  140.3542  143.2945  152.0454 LP  0  0  0  0  0  0  0  0  0  0  0  0  # atno 17343 bound_to 10162
  157.3923  131.0797  151.1382 LP  0  0  0  0  0  0  0  0  0  0  0  0  # atno 17370 bound_to 10713
  157.2070  130.6420  149.5760 LP  0  0  0  0  0  0  0  0  0  0  0  0  # atno 17371 bound_to 10713
  139.9849  135.0085  156.9840 LP  0  0  0  0  0  0  0  0  0  0  0  0  # atno 17394 bound_to 11000
  140.5044  134.1065  155.7257 LP  0  0  0  0  0  0  0  0  0  0  0  0  # atno 17395 bound_to 11000

$$$$
