AV-unprocessed.smi:404|AV-procd|sdf|2497|dock7
  -GOLD-   2262022443D 1   1.00000     0.00000
 Structure written by MMmdl.
 44 45  0  0  0  0  0  0  0  0  1 V2000
  151.4131  145.1282  159.2649 C   0  0  0  0  0  0  0  0  0  0  0  0
  151.9767  143.7560  159.5012 C   0  0  0  0  0  0  0  0  0  0  0  0
  152.6746  143.5218  160.6002 N   0  0  0  0  0  0  0  0  0  0  0  0
  153.0366  142.2264  160.5086 N   0  0  0  0  0  0  0  0  0  0  0  0
  153.8300  141.6326  161.5671 C   0  0  0  0  0  0  0  0  0  0  0  0
  152.5690  141.6419  159.3480 C   0  0  0  0  0  0  0  0  0  0  0  0
  152.8450  140.2123  159.0098 C   0  0  0  0  0  0  0  0  0  0  0  0
  151.8729  142.6046  158.6665 C   0  0  0  0  0  0  0  0  0  0  0  0
  151.1634  142.4925  157.3411 C   0  0  0  0  0  0  0  0  0  0  0  0
  149.9683  141.5498  157.4780 C   0  0  0  0  0  0  0  0  0  0  0  0
  150.0873  140.4931  158.0982 O   0  0  0  0  0  0  0  0  0  0  0  0
  148.8260  141.9435  156.8933 N   0  0  0  0  0  0  0  0  0  0  0  0
  147.5765  141.1885  156.8721 C   0  0  0  0  0  0  0  0  0  0  0  0
  146.6273  141.6440  155.7435 C   0  0  0  0  0  0  0  0  0  0  0  0
  147.3757  142.0427  154.4509 C   0  0  0  0  0  0  0  0  0  0  0  0
  146.4110  142.5228  153.3541 C   0  0  0  0  0  0  0  0  0  0  0  0
  145.5293  143.6786  153.8491 C   0  0  0  0  0  0  0  0  0  0  0  0
  144.7718  143.2837  155.1250 C   0  0  0  0  0  0  0  0  0  0  0  0
  145.7403  142.8123  156.2215 C   0  0  0  0  0  0  0  0  0  0  0  0
  151.9350  145.6261  158.4479 H   0  0  0  0  0  0  0  0  0  0  0  0
  151.5020  145.7604  160.1493 H   0  0  0  0  0  0  0  0  0  0  0  0
  150.3566  145.0766  159.0023 H   0  0  0  0  0  0  0  0  0  0  0  0
  153.3544  140.7143  161.9128 H   0  0  0  0  0  0  0  0  0  0  0  0
  153.9234  142.3188  162.4102 H   0  0  0  0  0  0  0  0  0  0  0  0
  154.8257  141.3984  161.1893 H   0  0  0  0  0  0  0  0  0  0  0  0
  152.4870  139.9654  158.0105 H   0  0  0  0  0  0  0  0  0  0  0  0
  152.3518  139.5453  159.7172 H   0  0  0  0  0  0  0  0  0  0  0  0
  153.9153  140.0069  159.0388 H   0  0  0  0  0  0  0  0  0  0  0  0
  150.8073  143.4636  156.9956 H   0  0  0  0  0  0  0  0  0  0  0  0
  151.8309  142.1260  156.5602 H   0  0  0  0  0  0  0  0  0  0  0  0
  148.8274  142.8292  156.4083 H   0  0  0  0  0  0  0  0  0  0  0  0
  147.8400  140.1407  156.7255 H   0  0  0  0  0  0  0  0  0  0  0  0
  147.0711  141.2381  157.8382 H   0  0  0  0  0  0  0  0  0  0  0  0
  145.9691  140.8069  155.5048 H   0  0  0  0  0  0  0  0  0  0  0  0
  148.0965  142.8309  154.6724 H   0  0  0  0  0  0  0  0  0  0  0  0
  147.9499  141.1999  154.0668 H   0  0  0  0  0  0  0  0  0  0  0  0
  146.9752  142.8367  152.4755 H   0  0  0  0  0  0  0  0  0  0  0  0
  145.7794  141.6927  153.0353 H   0  0  0  0  0  0  0  0  0  0  0  0
  146.1495  144.5538  154.0470 H   0  0  0  0  0  0  0  0  0  0  0  0
  144.8229  143.9684  153.0707 H   0  0  0  0  0  0  0  0  0  0  0  0
  144.1853  144.1292  155.4854 H   0  0  0  0  0  0  0  0  0  0  0  0
  144.0608  142.4884  154.8976 H   0  0  0  0  0  0  0  0  0  0  0  0
  145.1703  142.5121  157.1014 H   0  0  0  0  0  0  0  0  0  0  0  0
  146.3687  143.6480  156.5330 H   0  0  0  0  0  0  0  0  0  0  0  0
  1  2  1  0  0  0  0
  1 20  1  0  0  0  0
  1 21  1  0  0  0  0
  1 22  1  0  0  0  0
  2  8  1  0  0  0  0
  2  3  2  0  0  0  0
  3  4  1  0  0  0  0
  4  5  1  0  0  0  0
  4  6  1  0  0  0  0
  5 23  1  0  0  0  0
  5 24  1  0  0  0  0
  5 25  1  0  0  0  0
  6  7  1  0  0  0  0
  6  8  2  0  0  0  0
  7 26  1  0  0  0  0
  7 27  1  0  0  0  0
  7 28  1  0  0  0  0
  8  9  1  0  0  0  0
  9 10  1  0  0  0  0
  9 29  1  0  0  0  0
  9 30  1  0  0  0  0
 10 11  2  0  0  0  0
 10 12  1  0  0  0  0
 12 13  1  0  0  0  0
 12 31  1  0  0  0  0
 13 14  1  0  0  0  0
 13 32  1  0  0  0  0
 13 33  1  0  0  0  0
 14 19  1  0  0  0  0
 14 15  1  0  0  0  0
 14 34  1  0  0  0  0
 15 16  1  0  0  0  0
 15 35  1  0  0  0  0
 15 36  1  0  0  0  0
 16 17  1  0  0  0  0
 16 37  1  0  0  0  0
 16 38  1  0  0  0  0
 17 18  1  0  0  0  0
 17 39  1  0  0  0  0
 17 40  1  0  0  0  0
 18 19  1  0  0  0  0
 18 41  1  0  0  0  0
 18 42  1  0  0  0  0
 19 43  1  0  0  0  0
 19 44  1  0  0  0  0
M  END
> <s_m_source_file>
AV-unprocessed.smi

> <i_m_source_file_index>
404

> <i_lp_mmshare_version>
43012

> <i_f3d_flags>
0

> <s_epik_input>
W0NIM11jMW5uKFtDSDNdKWMoW0NIM10pYzFbQ0gyXUMoPU8pW05IXVtDSDJdW0NIXTJbQ0gyXVtDSDJdW0NIMl1bQ0gyXVtDSDJdMg==

> <s_epik_cmdline>
J2VwaWtfcHl0aG9uJywgJy1waCcsICc3LjAnLCAnLXRuJywgJzgnLCAnLW1hJywgJzIwMCcsICctbWV0YWxfYmluZGluZycsICctaW1hZScsICc8aW5maWxlLm1hZT4nLCAnLW9tYWUnLCAnPG91dGZpbGUubWFlPic=

> <r_lp_tautomer_probability>
1

> <r_epik_Ionization_Penalty>
0.00317479

> <r_epik_Ionization_Penalty_Charging>
0

> <r_epik_Ionization_Penalty_Neutral>
0.00317479

> <r_epik_State_Penalty>
0.00223767

> <r_epik_Charging_Adjusted_Penalty>
0.00223767

> <i_epik_Tot_Q>
0

> <i_epik_Tot_abs_Q>
0

> <r_epik_Metal_State_Penalty>
-0

> <b_epik_Metal_Only>
0

> <s_lp_Force_Field>
OPLS_2005

> <r_lp_Energy>
5.4513

> <b_lp_Chiralities_Consistent>
1

> <s_lp_Variant>
AV-unprocessed.smi:404-1

> <Gold.Version>
5.8.1

> <Gold.Id.Protein>
6NUR|6NUR_protein|mol2

> <Gold.PLP.Fitness>
43.7370

> <Gold.PLP.PLP>
-42.1154

> <Gold.PLP.part.hbond>
-1.0000

> <Gold.PLP.part.metal>
0.0000

> <Gold.PLP.part.buried>
-7.0285

> <Gold.PLP.part.nonpolar>
-35.1429

> <Gold.PLP.part.repulsive>
0.0741

> <Gold.PLP.ligand.clash>
0.0000

> <Gold.PLP.ligand.torsion>
0.6927

> <Gold.PLP.Chemscore.Hbond>
1.0000

> <Gold.PLP.Chemscore.CHOScore>
0.0000

> <Gold.PLP.Chemscore.Metal>
0.0000

> <Gold.Chemscore.Hbonds>
donor molecule, donor type, donor heavy atom, donor atom, acceptor molecule, acceptor atom, score
      L1  H    12    31       P1  8028  1.00

> <Gold.PLP.Chemscore.Internal.Correction>
0.0070

> <Gold.Rescore>
     Score         DG    S(hbond)    S(metal)    S(lipo)     H(rot)  DE(clash)    DE(int)     intcor
     16.07     -17.35       0.94        0.00     104.78       1.38       0.51       0.77       ----

> <Gold.Chemscore.Fitness>
16.0687

> <Gold.Chemscore.DG>
-17.3549

> <Gold.Chemscore.ZeroCoef>
-5.4800

> <Gold.Chemscore.Hbond>
0.9402

> <Gold.Chemscore.Metal>
0.0000

> <Gold.Chemscore.Lipo>
104.7783

> <Gold.Chemscore.Internal_Hbond>
0.0000

> <Gold.Chemscore.DEClash>
0.5131

> <Gold.Chemscore.DEInternal>
0.7732

> <Gold.Chemscore.Rot>
1.3768

> <Gold.Chemscore.Internal.Correction>
   9.000000E+99

> <Gold.Chemscore.Hbonds>
donor molecule, donor type, donor heavy atom, donor atom, acceptor molecule, acceptor atom, score
      L1  H    12    31       P1  8028  0.92

> <Gold.Chemscore.Hbond.Weighted>
-3.1404

> <Gold.Chemscore.Metal.Weighted>
-0.0000

> <Gold.Chemscore.Lipo.Weighted>
-12.2591

> <Gold.Chemscore.Internal_Hbond.Weighted>
0.0000

> <Gold.Chemscore.DEClash.Weighted>
0.5131

> <Gold.Chemscore.DEInternal.Weighted>
0.7732

> <Gold.Chemscore.Rot.Weighted>
3.5245

> <Gold.Chemscore.Internal.Correction.Weighted>
   9.000000E+99

> <Gold.Protein.RotatedTorsions>
[ 6907 6896 6895 6894 ] final  104.74 input  -60.11 | X-H torsion
[ 7974 7965 7964 7962 ] final  -56.68 input  175.53 | X-H torsion
[ 8008 7997 7996 7995 ] final -106.91 input   59.86 | X-H torsion
[ 10167 10162 10161 10158 ] final  -44.52 input  -65.29 | X-H torsion
[ 10718 10713 10712 10709 ] final  -50.45 input   66.30 | X-H torsion
[ 10763 10752 10751 10750 ] final   93.46 input  -60.55 | X-H torsion
[ 11005 11000 10999 10996 ] final  105.92 input  -57.11 | X-H torsion

> <Gold.Protein.ActiveResidues>
 VAL166  LYS551  ARG553  GLY616  TRP617  ASP618  TYR619  PRO620  LYS621  CYS622 
 ASP623  PHE694  ASN695  SER759  ASP760  ASP761  ALA762  ILE779  LEU786  VAL792 
 PHE793  MET794  SER795  GLU796  ALA797  LYS798  CYS799  TRP800  GLU811  SER814 

> <Gold.Protein.RotatedAtoms>
  152.5254  133.9632  159.7726 H   0  0  0  0  0  0  0  0  0  0  0  0  # atno 6907 bound_to 6896
  150.9918  133.6134  159.2714 H   0  0  0  0  0  0  0  0  0  0  0  0  # atno 6908 bound_to 6896
  151.3274  135.0839  159.9380 H   0  0  0  0  0  0  0  0  0  0  0  0  # atno 6909 bound_to 6896
  145.8599  140.8293  142.9942 H   0  0  0  0  0  0  0  0  0  0  0  0  # atno 7974 bound_to 7965
  154.9216  140.0407  157.2000 H   0  0  0  0  0  0  0  0  0  0  0  0  # atno 8008 bound_to 7997
  154.8249  140.2889  155.5740 H   0  0  0  0  0  0  0  0  0  0  0  0  # atno 8009 bound_to 7997
  156.2983  140.2512  156.3163 H   0  0  0  0  0  0  0  0  0  0  0  0  # atno 8010 bound_to 7997
  140.6894  143.2926  151.3507 H   0  0  0  0  0  0  0  0  0  0  0  0  # atno 10167 bound_to 10162
  156.1799  130.4150  149.9522 H   0  0  0  0  0  0  0  0  0  0  0  0  # atno 10718 bound_to 10713
  153.2305  135.4325  155.0590 H   0  0  0  0  0  0  0  0  0  0  0  0  # atno 10763 bound_to 10752
  154.8294  135.3378  154.6794 H   0  0  0  0  0  0  0  0  0  0  0  0  # atno 10764 bound_to 10752
  153.7222  135.7016  153.5066 H   0  0  0  0  0  0  0  0  0  0  0  0  # atno 10765 bound_to 10752
  139.8807  134.9352  156.5587 H   0  0  0  0  0  0  0  0  0  0  0  0  # atno 11005 bound_to 11000
  144.6727  140.1080  143.7457 LP  0  0  0  0  0  0  0  0  0  0  0  0  # atno 17320 bound_to 7965
  145.9260  139.2576  143.1353 LP  0  0  0  0  0  0  0  0  0  0  0  0  # atno 17321 bound_to 7965
  139.6281  144.0774  152.2452 LP  0  0  0  0  0  0  0  0  0  0  0  0  # atno 17342 bound_to 10162
  140.0240  144.6132  150.7543 LP  0  0  0  0  0  0  0  0  0  0  0  0  # atno 17343 bound_to 10162
  156.7296  130.9038  151.3624 LP  0  0  0  0  0  0  0  0  0  0  0  0  # atno 17370 bound_to 10713
  157.6861  130.9187  150.0390 LP  0  0  0  0  0  0  0  0  0  0  0  0  # atno 17371 bound_to 10713
  140.8186  133.8372  155.8874 LP  0  0  0  0  0  0  0  0  0  0  0  0  # atno 17394 bound_to 11000
  140.9440  134.1865  157.4777 LP  0  0  0  0  0  0  0  0  0  0  0  0  # atno 17395 bound_to 11000

$$$$
