AV-unprocessed.smi:3187|AV-procd|sdf|12182|dock7
  -GOLD-   2272018 23D 1   1.00000     0.00000
 Structure written by MMmdl.
 42 43  0  0  0  0  0  0  0  0  3 V2000
  152.5707  138.8443  154.7757 C   0  0  0  0  0  0  0  0  0  0  0  0
  151.4780  139.7223  155.3614 C   0  0  0  0  0  0  0  0  0  0  0  0
  151.5992  140.2635  156.5894 C   0  0  0  0  0  0  0  0  0  0  0  0
  150.5785  141.1844  157.2323 C   0  0  0  0  0  0  0  0  0  0  0  0
  149.2705  141.2809  156.4312 C   0  0  0  0  0  0  0  0  0  0  0  0
  149.5365  141.2864  154.9152 C   0  0  2  0  0  0  0  0  0  0  0  0
  148.2714  141.6409  154.1157 C   0  0  0  0  0  0  0  0  0  0  0  0
  150.2669  139.9849  154.4625 C   0  0  2  0  0  0  0  0  0  0  0  0
  149.3671  138.7233  154.4053 C   0  0  0  0  0  0  0  0  0  0  0  0
  148.7302  138.5438  153.0848 N   0  3  0  0  0  0  0  0  0  0  0  0
  147.2576  138.6406  153.1067 C   0  0  0  0  0  0  0  0  0  0  0  0
  146.6590  138.2563  151.7461 C   0  0  0  0  0  0  0  0  0  0  0  0
  145.8382  137.0459  151.8319 N   0  0  0  0  0  0  0  0  0  0  0  0
  146.1032  135.8219  151.2722 C   0  0  0  0  0  0  0  0  0  0  0  0
  145.0609  135.0003  151.6173 C   0  0  0  0  0  0  0  0  0  0  0  0
  144.2042  135.7567  152.3718 N   0  3  0  0  0  0  0  0  0  0  0  0
  144.6783  137.0006  152.5010 C   0  0  0  0  0  0  0  0  0  0  0  0
  152.9380  139.2707  153.8420 H   0  0  0  0  0  0  0  0  0  0  0  0
  152.2074  137.8376  154.5736 H   0  0  0  0  0  0  0  0  0  0  0  0
  153.4169  138.7585  155.4582 H   0  0  0  0  0  0  0  0  0  0  0  0
  152.4865  140.0686  157.1743 H   0  0  0  0  0  0  0  0  0  0  0  0
  150.3729  140.8472  158.2486 H   0  0  0  0  0  0  0  0  0  0  0  0
  151.0340  142.1717  157.3141 H   0  0  0  0  0  0  0  0  0  0  0  0
  148.6189  140.4468  156.6915 H   0  0  0  0  0  0  0  0  0  0  0  0
  148.7349  142.1833  156.7287 H   0  0  0  0  0  0  0  0  0  0  0  0
  150.2327  142.1063  154.7286 H   0  0  0  0  0  0  0  0  0  0  0  0
  147.4511  140.9555  154.3282 H   0  0  0  0  0  0  0  0  0  0  0  0
  148.4640  141.6270  153.0427 H   0  0  0  0  0  0  0  0  0  0  0  0
  147.9242  142.6430  154.3696 H   0  0  0  0  0  0  0  0  0  0  0  0
  150.6625  140.1652  153.4615 H   0  0  0  0  0  0  0  0  0  0  0  0
  149.9513  137.8239  154.5966 H   0  0  0  0  0  0  0  0  0  0  0  0
  148.6040  138.7604  155.1825 H   0  0  0  0  0  0  0  0  0  0  0  0
  149.0878  139.2569  152.4651 H   0  0  0  0  0  0  0  0  0  0  0  0
  146.8645  137.9884  153.8880 H   0  0  0  0  0  0  0  0  0  0  0  0
  146.9717  139.6616  153.3638 H   0  0  0  0  0  0  0  0  0  0  0  0
  146.0271  139.0591  151.3630 H   0  0  0  0  0  0  0  0  0  0  0  0
  147.4449  138.0857  151.0087 H   0  0  0  0  0  0  0  0  0  0  0  0
  146.9907  135.6290  150.6861 H   0  0  0  0  0  0  0  0  0  0  0  0
  144.8703  133.9614  151.3890 H   0  0  0  0  0  0  0  0  0  0  0  0
  144.2140  137.8071  153.0408 H   0  0  0  0  0  0  0  0  0  0  0  0
  148.9953  137.6391  152.7218 H   0  0  0  0  0  0  0  0  0  0  0  0
  143.3377  135.4236  152.7768 H   0  0  0  0  0  0  0  0  0  0  0  0
  1  2  1  0  0  0  0
  1 18  1  0  0  0  0
  1 19  1  0  0  0  0
  1 20  1  0  0  0  0
  2  8  1  0  0  0  0
  2  3  2  0  0  0  0
  3  4  1  0  0  0  0
  3 21  1  0  0  0  0
  4  5  1  0  0  0  0
  4 22  1  0  0  0  0
  4 23  1  0  0  0  0
  5  6  1  0  0  0  0
  5 24  1  0  0  0  0
  5 25  1  0  0  0  0
  6  7  1  0  0  0  0
  6  8  1  0  0  0  0
  6 26  1  0  0  0  0
  7 27  1  0  0  0  0
  7 28  1  0  0  0  0
  7 29  1  0  0  0  0
  8  9  1  0  0  0  0
  8 30  1  0  0  0  0
  9 10  1  0  0  0  0
  9 31  1  0  0  0  0
  9 32  1  0  0  0  0
 10 11  1  0  0  0  0
 10 33  1  0  0  0  0
 10 41  1  0  0  0  0
 11 12  1  0  0  0  0
 11 34  1  0  0  0  0
 11 35  1  0  0  0  0
 12 13  1  0  0  0  0
 12 36  1  0  0  0  0
 12 37  1  0  0  0  0
 13 17  1  0  0  0  0
 13 14  1  0  0  0  0
 14 15  2  0  0  0  0
 14 38  1  0  0  0  0
 15 16  1  0  0  0  0
 15 39  1  0  0  0  0
 16 17  2  0  0  0  0
 16 42  1  0  0  0  0
 17 40  1  0  0  0  0
M  CHG  1  10   1
M  CHG  1  16   1
M  END
> <s_m_source_file>
AV-unprocessed.smi

> <i_m_source_file_index>
3187

> <i_lp_mmshare_version>
43012

> <i_f3d_flags>
0

> <s_epik_input>
W0NIM11DMT1bQ0hdW0NIMl1bQ0gyXVtDQEBIXShbQ0gzXSlbQ0BIXTFbQ0gyXVtOSF1bQ0gyXVtDSDJdbjJbY0hdW2NIXW5bY0hdMg==

> <s_epik_cmdline>
J2VwaWtfcHl0aG9uJywgJy1waCcsICc3LjAnLCAnLXRuJywgJzgnLCAnLW1hJywgJzIwMCcsICctbWV0YWxfYmluZGluZycsICctaW1hZScsICc8aW5maWxlLm1hZT4nLCAnLW9tYWUnLCAnPG91dGZpbGUubWFlPic=

> <r_lp_tautomer_probability>
1

> <r_epik_Ionization_Penalty>
1.51066

> <r_epik_Ionization_Penalty_Charging>
0.0026721

> <r_epik_Ionization_Penalty_Neutral>
1.50798

> <r_epik_State_Penalty>
1.12593

> <r_epik_Charging_Adjusted_Penalty>
1.12861

> <i_epik_Tot_Q>
2

> <i_epik_Tot_abs_Q>
2

> <r_epik_Metal_State_Penalty>
5.12155

> <b_epik_Metal_Only>
0

> <s_lp_Force_Field>
OPLS_2005

> <r_lp_Energy>
26.0631

> <b_lp_Chiralities_Consistent>
1

> <s_lp_Variant>
AV-unprocessed.smi:3187-8

> <Gold.Version>
5.8.1

> <Gold.Id.Protein>
6NUR|6NUR_protein|mol2

> <Gold.PLP.Fitness>
49.2400

> <Gold.PLP.PLP>
-37.4526

> <Gold.PLP.part.hbond>
-2.0000

> <Gold.PLP.part.metal>
0.0000

> <Gold.PLP.part.buried>
2.9863

> <Gold.PLP.part.nonpolar>
-37.9012

> <Gold.PLP.part.repulsive>
0.0705

> <Gold.PLP.ligand.clash>
0.0000

> <Gold.PLP.ligand.torsion>
1.2266

> <Gold.PLP.Chemscore.Hbond>
3.0000

> <Gold.PLP.Chemscore.CHOScore>
1.7337

> <Gold.PLP.Chemscore.Metal>
0.0000

> <Gold.Chemscore.Hbonds>
donor molecule, donor type, donor heavy atom, donor atom, acceptor molecule, acceptor atom, score
      L1  H    10    33       P1  7957  1.00
      L1  H    10    41       P1  7948  2.00
      L1  C    14    38       P1  7948  0.66
      L1  C    17    40       P1 10175  0.45

> <Gold.PLP.Chemscore.Internal.Correction>
0.0396

> <Gold.Rescore>
     Score         DG    S(hbond)    S(metal)    S(lipo)     H(rot)  DE(clash)    DE(int)     intcor
     15.37     -16.79       1.97        0.00      83.68       1.97       0.07       1.35       ----

> <Gold.Chemscore.Fitness>
15.3684

> <Gold.Chemscore.DG>
-16.7873

> <Gold.Chemscore.ZeroCoef>
-5.4800

> <Gold.Chemscore.Hbond>
1.9667

> <Gold.Chemscore.Metal>
0.0000

> <Gold.Chemscore.Lipo>
83.6758

> <Gold.Chemscore.Internal_Hbond>
0.0000

> <Gold.Chemscore.DEClash>
0.0681

> <Gold.Chemscore.DEInternal>
1.3508

> <Gold.Chemscore.Rot>
1.9732

> <Gold.Chemscore.Internal.Correction>
   9.000000E+99

> <Gold.Chemscore.Hbonds>
donor molecule, donor type, donor heavy atom, donor atom, acceptor molecule, acceptor atom, score
      L1  H    10    33       P1  7957  0.98
      L1  H    10    41       P1  7948  0.99

> <Gold.Chemscore.Hbond.Weighted>
-6.5686

> <Gold.Chemscore.Metal.Weighted>
-0.0000

> <Gold.Chemscore.Lipo.Weighted>
-9.7901

> <Gold.Chemscore.Internal_Hbond.Weighted>
0.0000

> <Gold.Chemscore.DEClash.Weighted>
0.0681

> <Gold.Chemscore.DEInternal.Weighted>
1.3508

> <Gold.Chemscore.Rot.Weighted>
5.0514

> <Gold.Chemscore.Internal.Correction.Weighted>
   9.000000E+99

> <Gold.Protein.RotatedTorsions>
[ 6907 6896 6895 6894 ] final  -62.19 input  -60.11 | X-H torsion
[ 7974 7965 7964 7962 ] final -116.82 input  175.53 | X-H torsion
[ 8008 7997 7996 7995 ] final   38.32 input   59.86 | X-H torsion
[ 10167 10162 10161 10158 ] final   44.08 input  -65.29 | X-H torsion
[ 10718 10713 10712 10709 ] final -134.73 input   66.30 | X-H torsion
[ 10763 10752 10751 10750 ] final  121.88 input  -60.55 | X-H torsion
[ 11005 11000 10999 10996 ] final   27.23 input  -57.11 | X-H torsion

> <Gold.Protein.ActiveResidues>
 VAL166  LYS551  ARG553  GLY616  TRP617  ASP618  TYR619  PRO620  LYS621  CYS622 
 ASP623  PHE694  ASN695  SER759  ASP760  ASP761  ALA762  ILE779  LEU786  VAL792 
 PHE793  MET794  SER795  GLU796  ALA797  LYS798  CYS799  TRP800  GLU811  SER814 

> <Gold.Protein.RotatedAtoms>
  150.7732  134.6603  159.6335 H   0  0  0  0  0  0  0  0  0  0  0  0  # atno 6907 bound_to 6896
  152.3793  134.6612  160.0157 H   0  0  0  0  0  0  0  0  0  0  0  0  # atno 6908 bound_to 6896
  151.6947  133.3274  159.3288 H   0  0  0  0  0  0  0  0  0  0  0  0  # atno 6909 bound_to 6896
  145.0924  140.8498  143.3975 H   0  0  0  0  0  0  0  0  0  0  0  0  # atno 7974 bound_to 7965
  155.2182  140.3329  155.4319 H   0  0  0  0  0  0  0  0  0  0  0  0  # atno 8008 bound_to 7997
  156.2344  140.1865  156.7207 H   0  0  0  0  0  0  0  0  0  0  0  0  # atno 8009 bound_to 7997
  154.6033  140.0620  156.9383 H   0  0  0  0  0  0  0  0  0  0  0  0  # atno 8010 bound_to 7997
  140.3379  144.2507  150.6159 H   0  0  0  0  0  0  0  0  0  0  0  0  # atno 10167 bound_to 10162
  156.2586  130.7196  151.1121 H   0  0  0  0  0  0  0  0  0  0  0  0  # atno 10718 bound_to 10713
  153.6210  135.3413  155.3010 H   0  0  0  0  0  0  0  0  0  0  0  0  # atno 10763 bound_to 10752
  154.8600  135.4273  154.2208 H   0  0  0  0  0  0  0  0  0  0  0  0  # atno 10764 bound_to 10752
  153.3080  135.7029  153.7214 H   0  0  0  0  0  0  0  0  0  0  0  0  # atno 10765 bound_to 10752
  140.3285  134.2464  155.7706 H   0  0  0  0  0  0  0  0  0  0  0  0  # atno 11005 bound_to 11000
  145.1050  139.2796  143.5666 LP  0  0  0  0  0  0  0  0  0  0  0  0  # atno 17320 bound_to 7965
  146.3531  140.0629  142.8628 LP  0  0  0  0  0  0  0  0  0  0  0  0  # atno 17321 bound_to 7965
  140.5337  143.2238  151.8198 LP  0  0  0  0  0  0  0  0  0  0  0  0  # atno 17342 bound_to 10162
  139.4845  144.4688  151.9450 LP  0  0  0  0  0  0  0  0  0  0  0  0  # atno 17343 bound_to 10162
  157.7242  131.0661  150.6006 LP  0  0  0  0  0  0  0  0  0  0  0  0  # atno 17370 bound_to 10713
  156.6092  130.4375  149.5866 LP  0  0  0  0  0  0  0  0  0  0  0  0  # atno 17371 bound_to 10713
  141.2069  133.7820  157.0149 LP  0  0  0  0  0  0  0  0  0  0  0  0  # atno 17394 bound_to 11000
  140.0881  134.9609  157.1732 LP  0  0  0  0  0  0  0  0  0  0  0  0  # atno 17395 bound_to 11000

$$$$
