AV-unprocessed.smi:153|AV-procd|sdf|1259|dock8
  -GOLD-   2262018503D 1   1.00000     0.00000
 Structure written by MMmdl.
 59 62  0  0  0  0  0  0  0  0  1 V2000
  146.1572  135.0323  151.3172 C   0  0  0  0  0  0  0  0  0  0  0  0
  145.2233  133.8489  151.0175 C   0  0  1  0  0  0  0  0  0  0  0  0
  144.4963  134.1041  149.8218 O   0  0  0  0  0  0  0  0  0  0  0  0
  144.0793  132.8575  149.2954 C   0  0  0  0  0  0  0  0  0  0  0  0
  145.3259  132.0031  149.4648 C   0  0  0  0  0  0  0  0  0  0  0  0
  145.8898  132.4602  150.8146 C   0  0  1  0  0  0  0  0  0  0  0  0
  147.2997  132.5559  150.6927 O   0  0  0  0  0  0  0  0  0  0  0  0
  145.5600  131.5050  151.9917 C   0  0  0  0  0  0  0  0  0  0  0  0
  146.1359  131.9093  153.2658 N   0  0  0  0  0  0  0  0  0  0  0  0
  145.5945  132.7904  154.1708 C   0  0  0  0  0  0  0  0  0  0  0  0
  146.3137  132.9957  155.2377 N   0  0  0  0  0  0  0  0  0  0  0  0
  147.4346  132.1864  155.0749 C   0  0  0  0  0  0  0  0  0  0  0  0
  148.6155  131.9273  155.8424 C   0  0  0  0  0  0  0  0  0  0  0  0
  148.9366  132.5253  157.0303 N   0  0  0  0  0  0  0  0  0  0  0  0
  150.2115  132.1889  157.6619 C   0  0  0  0  0  0  0  0  0  0  0  0
  148.3316  133.8029  157.4056 C   0  0  0  0  0  0  0  0  0  0  0  0
  147.7334  133.7929  158.8317 C   0  0  2  0  0  0  0  0  0  0  0  0
  146.9908  132.6102  159.0462 O   0  0  0  0  0  0  0  0  0  0  0  0
  146.8498  135.0207  159.1469 C   0  0  0  0  0  0  0  0  0  0  0  0
  146.7807  135.4435  160.5483 N   0  0  0  0  0  0  0  0  0  0  0  0
  145.9523  136.6365  160.6894 C   0  0  0  0  0  0  0  0  0  0  0  0
  145.8566  137.1033  162.1518 C   0  0  0  0  0  0  0  0  0  0  0  0
  147.1645  137.3364  162.6626 O   0  0  0  0  0  0  0  0  0  0  0  0
  147.9952  136.1828  162.5882 C   0  0  0  0  0  0  0  0  0  0  0  0
  148.0954  135.7095  161.1277 C   0  0  0  0  0  0  0  0  0  0  0  0
  149.4837  131.0139  155.3267 N   0  0  0  0  0  0  0  0  0  0  0  0
  149.2452  130.4158  154.1576 C   0  0  0  0  0  0  0  0  0  0  0  0
  148.2090  130.5782  153.3367 N   0  0  0  0  0  0  0  0  0  0  0  0
  147.3202  131.4799  153.8404 C   0  0  0  0  0  0  0  0  0  0  0  0
  146.7294  134.8610  152.2292 H   0  0  0  0  0  0  0  0  0  0  0  0
  145.5848  135.9499  151.4538 H   0  0  0  0  0  0  0  0  0  0  0  0
  146.8607  135.2033  150.5016 H   0  0  0  0  0  0  0  0  0  0  0  0
  144.4850  133.7842  151.8185 H   0  0  0  0  0  0  0  0  0  0  0  0
  143.2479  132.4628  149.8816 H   0  0  0  0  0  0  0  0  0  0  0  0
  143.7643  132.9438  148.2554 H   0  0  0  0  0  0  0  0  0  0  0  0
  145.1127  130.9376  149.3977 H   0  0  0  0  0  0  0  0  0  0  0  0
  146.0186  132.2432  148.6560 H   0  0  0  0  0  0  0  0  0  0  0  0
  147.6516  131.6829  150.6094 H   0  0  0  0  0  0  0  0  0  0  0  0
  144.4791  131.4285  152.1189 H   0  0  0  0  0  0  0  0  0  0  0  0
  145.9098  130.4968  151.7660 H   0  0  0  0  0  0  0  0  0  0  0  0
  144.6477  133.2860  154.0114 H   0  0  0  0  0  0  0  0  0  0  0  0
  150.2744  131.1194  157.8648 H   0  0  0  0  0  0  0  0  0  0  0  0
  150.3298  132.7095  158.6123 H   0  0  0  0  0  0  0  0  0  0  0  0
  151.0466  132.4729  157.0203 H   0  0  0  0  0  0  0  0  0  0  0  0
  149.0710  134.5925  157.2941 H   0  0  0  0  0  0  0  0  0  0  0  0
  147.5571  134.0667  156.6845 H   0  0  0  0  0  0  0  0  0  0  0  0
  148.5349  133.7879  159.5712 H   0  0  0  0  0  0  0  0  0  0  0  0
  147.3300  131.9375  158.4761 H   0  0  0  0  0  0  0  0  0  0  0  0
  147.1333  135.8613  158.5115 H   0  0  0  0  0  0  0  0  0  0  0  0
  145.8398  134.7543  158.8326 H   0  0  0  0  0  0  0  0  0  0  0  0
  146.3599  137.4443  160.0794 H   0  0  0  0  0  0  0  0  0  0  0  0
  144.9487  136.4370  160.3118 H   0  0  0  0  0  0  0  0  0  0  0  0
  145.2778  138.0246  162.2193 H   0  0  0  0  0  0  0  0  0  0  0  0
  145.3465  136.3574  162.7632 H   0  0  0  0  0  0  0  0  0  0  0  0
  148.9838  136.4289  162.9757 H   0  0  0  0  0  0  0  0  0  0  0  0
  147.5899  135.3926  163.2222 H   0  0  0  0  0  0  0  0  0  0  0  0
  148.7104  134.8114  161.0988 H   0  0  0  0  0  0  0  0  0  0  0  0
  148.6141  136.4662  160.5372 H   0  0  0  0  0  0  0  0  0  0  0  0
  149.9955  129.7106  153.8315 H   0  0  0  0  0  0  0  0  0  0  0  0
  1  2  1  0  0  0  0
  1 30  1  0  0  0  0
  1 31  1  0  0  0  0
  1 32  1  0  0  0  0
  2  6  1  0  0  0  0
  2  3  1  0  0  0  0
  2 33  1  0  0  0  0
  3  4  1  0  0  0  0
  4  5  1  0  0  0  0
  4 34  1  0  0  0  0
  4 35  1  0  0  0  0
  5  6  1  0  0  0  0
  5 36  1  0  0  0  0
  5 37  1  0  0  0  0
  6  7  1  0  0  0  0
  6  8  1  0  0  0  0
  7 38  1  0  0  0  0
  8  9  1  0  0  0  0
  8 39  1  0  0  0  0
  8 40  1  0  0  0  0
  9 29  1  0  0  0  0
  9 10  1  0  0  0  0
 10 11  2  0  0  0  0
 10 41  1  0  0  0  0
 11 12  1  0  0  0  0
 12 29  2  0  0  0  0
 12 13  1  0  0  0  0
 13 14  1  0  0  0  0
 13 26  2  0  0  0  0
 14 15  1  0  0  0  0
 14 16  1  0  0  0  0
 15 42  1  0  0  0  0
 15 43  1  0  0  0  0
 15 44  1  0  0  0  0
 16 17  1  0  0  0  0
 16 45  1  0  0  0  0
 16 46  1  0  0  0  0
 17 18  1  0  0  0  0
 17 19  1  0  0  0  0
 17 47  1  0  0  0  0
 18 48  1  0  0  0  0
 19 20  1  0  0  0  0
 19 49  1  0  0  0  0
 19 50  1  0  0  0  0
 20 25  1  0  0  0  0
 20 21  1  0  0  0  0
 21 22  1  0  0  0  0
 21 51  1  0  0  0  0
 21 52  1  0  0  0  0
 22 23  1  0  0  0  0
 22 53  1  0  0  0  0
 22 54  1  0  0  0  0
 23 24  1  0  0  0  0
 24 25  1  0  0  0  0
 24 55  1  0  0  0  0
 24 56  1  0  0  0  0
 25 57  1  0  0  0  0
 25 58  1  0  0  0  0
 26 27  1  0  0  0  0
 27 28  2  0  0  0  0
 27 59  1  0  0  0  0
 28 29  1  0  0  0  0
M  END
> <s_m_source_file>
AV-unprocessed.smi

> <i_m_source_file_index>
153

> <i_lp_mmshare_version>
43012

> <i_f3d_flags>
0

> <s_epik_input>
W0NIMl0xW0NIMl1PW0NAQEhdKFtDSDNdKVtDQEBdMShbT0hdKVtDSDJdbihbY0hdbjIpYyhjMjMpbltjSF1uYzNOKFtDSDNdKVtDSDJdW0NASF0oW09IXSlbQ0gyXU40W0NIMl1bQ0gyXU9bQ0gyXVtDSDJdNA==

> <s_epik_cmdline>
J2VwaWtfcHl0aG9uJywgJy1waCcsICc3LjAnLCAnLXRuJywgJzgnLCAnLW1hJywgJzIwMCcsICctbWV0YWxfYmluZGluZycsICctaW1hZScsICc8aW5maWxlLm1hZT4nLCAnLW9tYWUnLCAnPG91dGZpbGUubWFlPic=

> <r_lp_tautomer_probability>
1

> <r_epik_Ionization_Penalty>
0.424123

> <r_epik_Ionization_Penalty_Charging>
0

> <r_epik_Ionization_Penalty_Neutral>
0.424123

> <r_epik_State_Penalty>
0.421495

> <r_epik_Charging_Adjusted_Penalty>
0.421495

> <i_epik_Tot_Q>
0

> <i_epik_Tot_abs_Q>
0

> <r_epik_Metal_State_Penalty>
0.421223

> <b_epik_Metal_Only>
0

> <s_lp_Force_Field>
OPLS_2005

> <r_lp_Energy>
57.6451

> <b_lp_Chiralities_Consistent>
1

> <s_lp_Variant>
AV-unprocessed.smi:153-10

> <Gold.Version>
5.8.1

> <Gold.Id.Protein>
6NUR|6NUR_protein|mol2

> <Gold.PLP.Fitness>
38.9332

> <Gold.PLP.PLP>
-34.7141

> <Gold.PLP.part.hbond>
-3.0000

> <Gold.PLP.part.metal>
0.0000

> <Gold.PLP.part.buried>
-4.8135

> <Gold.PLP.part.nonpolar>
-29.1605

> <Gold.PLP.part.repulsive>
2.1864

> <Gold.PLP.ligand.clash>
0.0000

> <Gold.PLP.ligand.torsion>
0.9867

> <Gold.PLP.Chemscore.Hbond>
1.1290

> <Gold.PLP.Chemscore.CHOScore>
0.7165

> <Gold.PLP.Chemscore.Metal>
0.0000

> <Gold.Chemscore.Hbonds>
donor molecule, donor type, donor heavy atom, donor atom, acceptor molecule, acceptor atom, score
      L1  H     7    38       P1 10747  0.86
      P1  H  6931  6943       L1    23  0.02
      P1  H  6934  6947       L1    23  0.01
      L1  C    10    41       P1 10957  0.48

> <Gold.PLP.Chemscore.Internal.Correction>
0.6563

> <Gold.Rescore>
     Score         DG    S(hbond)    S(metal)    S(lipo)     H(rot)  DE(clash)    DE(int)     intcor
      7.09     -10.18       1.02        0.00      88.06       3.52       1.32       1.77       ----

> <Gold.Chemscore.Fitness>
7.0922

> <Gold.Chemscore.DG>
-10.1818

> <Gold.Chemscore.ZeroCoef>
-5.4800

> <Gold.Chemscore.Hbond>
1.0188

> <Gold.Chemscore.Metal>
0.0000

> <Gold.Chemscore.Lipo>
88.0573

> <Gold.Chemscore.Internal_Hbond>
0.0000

> <Gold.Chemscore.DEClash>
1.3160

> <Gold.Chemscore.DEInternal>
1.7736

> <Gold.Chemscore.Rot>
3.5170

> <Gold.Chemscore.Internal.Correction>
   9.000000E+99

> <Gold.Chemscore.Hbonds>
donor molecule, donor type, donor heavy atom, donor atom, acceptor molecule, acceptor atom, score
      L1  H     7    38       P1 10747  0.83

> <Gold.Chemscore.Hbond.Weighted>
-3.4027

> <Gold.Chemscore.Metal.Weighted>
-0.0000

> <Gold.Chemscore.Lipo.Weighted>
-10.3027

> <Gold.Chemscore.Internal_Hbond.Weighted>
0.0000

> <Gold.Chemscore.DEClash.Weighted>
1.3160

> <Gold.Chemscore.DEInternal.Weighted>
1.7736

> <Gold.Chemscore.Rot.Weighted>
9.0036

> <Gold.Chemscore.Internal.Correction.Weighted>
   9.000000E+99

> <Gold.Protein.RotatedTorsions>
[ 6907 6896 6895 6894 ] final  -98.38 input  -60.11 | X-H torsion
[ 7974 7965 7964 7962 ] final   70.42 input  175.53 | X-H torsion
[ 8008 7997 7996 7995 ] final    4.14 input   59.86 | X-H torsion
[ 10167 10162 10161 10158 ] final   33.68 input  -65.29 | X-H torsion
[ 10718 10713 10712 10709 ] final   35.86 input   66.30 | X-H torsion
[ 10763 10752 10751 10750 ] final  -83.09 input  -60.55 | X-H torsion
[ 11005 11000 10999 10996 ] final  103.74 input  -57.11 | X-H torsion

> <Gold.Protein.ActiveResidues>
 VAL166  LYS551  ARG553  GLY616  TRP617  ASP618  TYR619  PRO620  LYS621  CYS622 
 ASP623  PHE694  ASN695  SER759  ASP760  ASP761  ALA762  ILE779  LEU786  VAL792 
 PHE793  MET794  SER795  GLU796  ALA797  LYS798  CYS799  TRP800  GLU811  SER814 

> <Gold.Protein.RotatedAtoms>
  150.7045  134.1203  159.4032 H   0  0  0  0  0  0  0  0  0  0  0  0  # atno 6907 bound_to 6896
  151.9190  135.0304  160.0530 H   0  0  0  0  0  0  0  0  0  0  0  0  # atno 6908 bound_to 6896
  152.2272  133.4994  159.5232 H   0  0  0  0  0  0  0  0  0  0  0  0  # atno 6909 bound_to 6896
  145.7784  139.2876  143.1280 H   0  0  0  0  0  0  0  0  0  0  0  0  # atno 7974 bound_to 7965
  154.7122  140.2695  155.6618 H   0  0  0  0  0  0  0  0  0  0  0  0  # atno 8008 bound_to 7997
  156.2799  140.2751  156.1692 H   0  0  0  0  0  0  0  0  0  0  0  0  # atno 8009 bound_to 7997
  155.0619  140.0371  157.2569 H   0  0  0  0  0  0  0  0  0  0  0  0  # atno 8010 bound_to 7997
  140.4385  144.1222  150.6170 H   0  0  0  0  0  0  0  0  0  0  0  0  # atno 10167 bound_to 10162
  157.3279  130.7482  149.6827 H   0  0  0  0  0  0  0  0  0  0  0  0  # atno 10718 bound_to 10713
  154.5836  135.5568  153.7209 H   0  0  0  0  0  0  0  0  0  0  0  0  # atno 10763 bound_to 10752
  153.0090  135.6326  154.1948 H   0  0  0  0  0  0  0  0  0  0  0  0  # atno 10764 bound_to 10752
  154.1889  135.2883  155.3008 H   0  0  0  0  0  0  0  0  0  0  0  0  # atno 10765 bound_to 10752
  139.8786  134.9274  156.5255 H   0  0  0  0  0  0  0  0  0  0  0  0  # atno 11005 bound_to 11000
  146.0099  140.8445  142.9976 LP  0  0  0  0  0  0  0  0  0  0  0  0  # atno 17320 bound_to 7965
  144.6800  140.2474  143.7336 LP  0  0  0  0  0  0  0  0  0  0  0  0  # atno 17321 bound_to 7965
  140.4346  143.2553  151.9552 LP  0  0  0  0  0  0  0  0  0  0  0  0  # atno 17342 bound_to 10162
  139.4788  144.5712  151.8085 LP  0  0  0  0  0  0  0  0  0  0  0  0  # atno 17343 bound_to 10162
  155.9692  130.4204  150.4420 LP  0  0  0  0  0  0  0  0  0  0  0  0  # atno 17370 bound_to 10713
  157.2447  131.0533  151.2415 LP  0  0  0  0  0  0  0  0  0  0  0  0  # atno 17371 bound_to 10713
  140.8419  133.8199  155.9083 LP  0  0  0  0  0  0  0  0  0  0  0  0  # atno 17394 bound_to 11000
  140.9229  134.2119  157.4915 LP  0  0  0  0  0  0  0  0  0  0  0  0  # atno 17395 bound_to 11000

$$$$
