AV-unprocessed.smi:1451|AV-procd|sdf|5899|dock8
  -GOLD-   22720 5583D 1   1.00000     0.00000
 Structure written by MMmdl.
 47 48  0  0  0  0  0  0  0  0  2 V2000
  146.3622  130.2657  152.2538 C   0  0  0  0  0  0  0  0  0  0  0  0
  145.4297  131.4570  151.9914 C   0  0  2  0  0  0  0  0  0  0  0  0
  144.5832  131.2402  150.7261 C   0  0  0  0  0  0  0  0  0  0  0  0
  143.6809  132.4550  150.4763 C   0  0  0  0  0  0  0  0  0  0  0  0
  144.5071  133.7494  150.4109 C   0  0  0  0  0  0  0  0  0  0  0  0
  145.3126  133.9352  151.6458 N   0  3  2  0  0  0  0  0  0  0  0  0
  146.0158  135.2429  151.6621 C   0  0  0  0  0  0  0  0  0  0  0  0
  145.0428  136.4354  151.7484 C   0  0  0  0  0  0  0  0  0  0  0  0
  145.7524  137.7069  151.6737 N   0  0  0  0  0  0  0  0  0  0  0  0
  146.3323  138.3250  152.7137 C   0  0  0  0  0  0  0  0  0  0  0  0
  146.3412  137.8576  153.8533 O   0  0  0  0  0  0  0  0  0  0  0  0
  147.0126  139.6673  152.4088 C   0  0  0  0  0  0  0  0  0  0  0  0
  148.0046  140.0583  153.4248 N   0  0  0  0  0  0  0  0  0  0  0  0
  148.9207  139.0728  153.8428 C   0  0  0  0  0  0  0  0  0  0  0  0
  149.8656  139.2991  154.7756 C   0  0  0  0  0  0  0  0  0  0  0  0
  150.8726  138.2292  155.1677 C   0  0  0  0  0  0  0  0  0  0  0  0
  151.7212  138.6823  156.0908 F   0  0  0  0  0  0  0  0  0  0  0  0
  150.2373  137.1715  155.6706 F   0  0  0  0  0  0  0  0  0  0  0  0
  151.5794  137.8249  154.1115 F   0  0  0  0  0  0  0  0  0  0  0  0
  149.9251  140.6408  155.3217 C   0  0  0  0  0  0  0  0  0  0  0  0
  149.0609  141.5968  154.9284 C   0  0  0  0  0  0  0  0  0  0  0  0
  148.0229  141.3281  153.9307 C   0  0  0  0  0  0  0  0  0  0  0  0
  147.2189  142.1893  153.5718 O   0  0  0  0  0  0  0  0  0  0  0  0
  146.2174  132.7788  151.8867 C   0  0  0  0  0  0  0  0  0  0  0  0
  147.0741  130.1309  151.4387 H   0  0  0  0  0  0  0  0  0  0  0  0
  145.7961  129.3393  152.3576 H   0  0  0  0  0  0  0  0  0  0  0  0
  146.9312  130.4072  153.1731 H   0  0  0  0  0  0  0  0  0  0  0  0
  144.7515  131.5353  152.8429 H   0  0  0  0  0  0  0  0  0  0  0  0
  145.2340  131.0834  149.8645 H   0  0  0  0  0  0  0  0  0  0  0  0
  143.9749  130.3406  150.8258 H   0  0  0  0  0  0  0  0  0  0  0  0
  143.1247  132.3208  149.5479 H   0  0  0  0  0  0  0  0  0  0  0  0
  142.9398  132.5324  151.2729 H   0  0  0  0  0  0  0  0  0  0  0  0
  145.1682  133.7323  149.5428 H   0  0  0  0  0  0  0  0  0  0  0  0
  143.8312  134.5952  150.2788 H   0  0  0  0  0  0  0  0  0  0  0  0
  146.7345  135.2675  152.4830 H   0  0  0  0  0  0  0  0  0  0  0  0
  146.5971  135.3419  150.7444 H   0  0  0  0  0  0  0  0  0  0  0  0
  144.2950  136.3783  150.9555 H   0  0  0  0  0  0  0  0  0  0  0  0
  144.4971  136.4263  152.6908 H   0  0  0  0  0  0  0  0  0  0  0  0
  145.7994  138.1540  150.7693 H   0  0  0  0  0  0  0  0  0  0  0  0
  147.4749  139.5968  151.4233 H   0  0  0  0  0  0  0  0  0  0  0  0
  146.2546  140.4474  152.3128 H   0  0  0  0  0  0  0  0  0  0  0  0
  148.8045  138.1142  153.3582 H   0  0  0  0  0  0  0  0  0  0  0  0
  150.6721  140.8836  156.0630 H   0  0  0  0  0  0  0  0  0  0  0  0
  149.1328  142.5850  155.3590 H   0  0  0  0  0  0  0  0  0  0  0  0
  146.7773  132.9284  152.8091 H   0  0  0  0  0  0  0  0  0  0  0  0
  146.9506  132.7185  151.0807 H   0  0  0  0  0  0  0  0  0  0  0  0
  144.6515  133.9577  152.4091 H   0  0  0  0  0  0  0  0  0  0  0  0
  1  2  1  0  0  0  0
  1 25  1  0  0  0  0
  1 26  1  0  0  0  0
  1 27  1  0  0  0  0
  2 24  1  0  0  0  0
  2  3  1  0  0  0  0
  2 28  1  0  0  0  0
  3  4  1  0  0  0  0
  3 29  1  0  0  0  0
  3 30  1  0  0  0  0
  4  5  1  0  0  0  0
  4 31  1  0  0  0  0
  4 32  1  0  0  0  0
  5  6  1  0  0  0  0
  5 33  1  0  0  0  0
  5 34  1  0  0  0  0
  6  7  1  0  0  0  0
  6 24  1  0  0  0  0
  6 47  1  0  0  0  0
  7  8  1  0  0  0  0
  7 35  1  0  0  0  0
  7 36  1  0  0  0  0
  8  9  1  0  0  0  0
  8 37  1  0  0  0  0
  8 38  1  0  0  0  0
  9 10  1  0  0  0  0
  9 39  1  0  0  0  0
 10 11  2  0  0  0  0
 10 12  1  0  0  0  0
 12 13  1  0  0  0  0
 12 40  1  0  0  0  0
 12 41  1  0  0  0  0
 13 22  1  0  0  0  0
 13 14  1  0  0  0  0
 14 15  2  0  0  0  0
 14 42  1  0  0  0  0
 15 16  1  0  0  0  0
 15 20  1  0  0  0  0
 16 17  1  0  0  0  0
 16 18  1  0  0  0  0
 16 19  1  0  0  0  0
 20 21  2  0  0  0  0
 20 43  1  0  0  0  0
 21 22  1  0  0  0  0
 21 44  1  0  0  0  0
 22 23  2  0  0  0  0
 24 45  1  0  0  0  0
 24 46  1  0  0  0  0
M  CHG  1   6   1
M  END
> <s_m_source_file>
AV-unprocessed.smi

> <i_m_source_file_index>
1451

> <i_lp_mmshare_version>
43012

> <i_f3d_flags>
0

> <s_epik_input>
W0NIM11bQ0BASF0xW0NIMl1bQ0gyXVtDSDJdTihbQ0gyXTEpW0NIMl1bQ0gyXVtOSF1DKD1PKVtDSDJdbjJbY0hdYyhDKEYpKEYpRilbY0hdW2NIXWMyPU8=

> <s_epik_cmdline>
J2VwaWtfcHl0aG9uJywgJy1waCcsICc3LjAnLCAnLXRuJywgJzgnLCAnLW1hJywgJzIwMCcsICctbWV0YWxfYmluZGluZycsICctaW1hZScsICc8aW5maWxlLm1hZT4nLCAnLW9tYWUnLCAnPG91dGZpbGUubWFlPic=

> <r_lp_tautomer_probability>
1

> <r_epik_Ionization_Penalty>
0.00192452

> <r_epik_Ionization_Penalty_Charging>
0.00192444

> <r_epik_Ionization_Penalty_Neutral>
8.16761e-08

> <r_epik_State_Penalty>
0.00131115

> <r_epik_Charging_Adjusted_Penalty>
0.00323559

> <i_epik_Tot_Q>
1

> <i_epik_Tot_abs_Q>
1

> <r_epik_Metal_State_Penalty>
-0

> <b_epik_Metal_Only>
0

> <s_lp_Force_Field>
OPLS_2005

> <r_lp_Energy>
28.0939

> <b_lp_Chiralities_Consistent>
1

> <s_lp_Variant>
AV-unprocessed.smi:1451-1

> <Gold.Version>
5.8.1

> <Gold.Id.Protein>
6NUR|6NUR_protein|mol2

> <Gold.PLP.Fitness>
45.3445

> <Gold.PLP.PLP>
-41.8607

> <Gold.PLP.part.hbond>
-1.0000

> <Gold.PLP.part.metal>
0.0000

> <Gold.PLP.part.buried>
1.8697

> <Gold.PLP.part.nonpolar>
-42.2625

> <Gold.PLP.part.repulsive>
0.3308

> <Gold.PLP.ligand.clash>
0.0000

> <Gold.PLP.ligand.torsion>
0.6791

> <Gold.PLP.Chemscore.Hbond>
0.5824

> <Gold.PLP.Chemscore.CHOScore>
1.0000

> <Gold.PLP.Chemscore.Metal>
0.0000

> <Gold.Chemscore.Hbonds>
donor molecule, donor type, donor heavy atom, donor atom, acceptor molecule, acceptor atom, score
      L1  H     9    39       P1 10171  0.21
      L1  C    14    42       P1  7948  1.00

> <Gold.PLP.Chemscore.Internal.Correction>
0.0949

> <Gold.Rescore>
     Score         DG    S(hbond)    S(metal)    S(lipo)     H(rot)  DE(clash)    DE(int)     intcor
     11.30     -14.04       0.68        0.00      99.02       2.08       0.65       2.08       ----

> <Gold.Chemscore.Fitness>
11.3012

> <Gold.Chemscore.DG>
-14.0356

> <Gold.Chemscore.ZeroCoef>
-5.4800

> <Gold.Chemscore.Hbond>
0.6844

> <Gold.Chemscore.Metal>
0.0000

> <Gold.Chemscore.Lipo>
99.0154

> <Gold.Chemscore.Internal_Hbond>
0.0000

> <Gold.Chemscore.DEClash>
0.6495

> <Gold.Chemscore.DEInternal>
2.0849

> <Gold.Chemscore.Rot>
2.0762

> <Gold.Chemscore.Internal.Correction>
   9.000000E+99

> <Gold.Chemscore.Hbonds>
donor molecule, donor type, donor heavy atom, donor atom, acceptor molecule, acceptor atom, score
      L1  H     9    39       P1 10171  0.21

> <Gold.Chemscore.Hbond.Weighted>
-2.2858

> <Gold.Chemscore.Metal.Weighted>
-0.0000

> <Gold.Chemscore.Lipo.Weighted>
-11.5848

> <Gold.Chemscore.Internal_Hbond.Weighted>
0.0000

> <Gold.Chemscore.DEClash.Weighted>
0.6495

> <Gold.Chemscore.DEInternal.Weighted>
2.0849

> <Gold.Chemscore.Rot.Weighted>
5.3150

> <Gold.Chemscore.Internal.Correction.Weighted>
   9.000000E+99

> <Gold.Protein.RotatedTorsions>
[ 6907 6896 6895 6894 ] final -174.98 input  -60.11 | X-H torsion
[ 7974 7965 7964 7962 ] final   28.67 input  175.53 | X-H torsion
[ 8008 7997 7996 7995 ] final  169.10 input   59.86 | X-H torsion
[ 10167 10162 10161 10158 ] final -127.47 input  -65.29 | X-H torsion
[ 10718 10713 10712 10709 ] final -111.21 input   66.30 | X-H torsion
[ 10763 10752 10751 10750 ] final -105.63 input  -60.55 | X-H torsion
[ 11005 11000 10999 10996 ] final   -8.25 input  -57.11 | X-H torsion

> <Gold.Protein.ActiveResidues>
 VAL166  LYS551  ARG553  GLY616  TRP617  ASP618  TYR619  PRO620  LYS621  CYS622 
 ASP623  PHE694  ASN695  SER759  ASP760  ASP761  ALA762  ILE779  LEU786  VAL792 
 PHE793  MET794  SER795  GLU796  ALA797  LYS798  CYS799  TRP800  GLU811  SER814 

> <Gold.Protein.RotatedAtoms>
  151.5812  133.3377  159.3008 H   0  0  0  0  0  0  0  0  0  0  0  0  # atno 6907 bound_to 6896
  150.8312  134.7569  159.6866 H   0  0  0  0  0  0  0  0  0  0  0  0  # atno 6908 bound_to 6896
  152.4395  134.5625  159.9950 H   0  0  0  0  0  0  0  0  0  0  0  0  # atno 6909 bound_to 6896
  146.1715  139.7024  142.8964 H   0  0  0  0  0  0  0  0  0  0  0  0  # atno 7974 bound_to 7965
  156.1487  140.1573  156.8805 H   0  0  0  0  0  0  0  0  0  0  0  0  # atno 8008 bound_to 7997
  154.5052  140.0815  156.7916 H   0  0  0  0  0  0  0  0  0  0  0  0  # atno 8009 bound_to 7997
  155.3938  140.3411  155.4255 H   0  0  0  0  0  0  0  0  0  0  0  0  # atno 8010 bound_to 7997
  139.9605  143.5955  152.2446 H   0  0  0  0  0  0  0  0  0  0  0  0  # atno 10167 bound_to 10162
  156.0634  130.5855  150.8342 H   0  0  0  0  0  0  0  0  0  0  0  0  # atno 10718 bound_to 10713
  154.7959  135.4742  154.0161 H   0  0  0  0  0  0  0  0  0  0  0  0  # atno 10763 bound_to 10752
  153.1703  135.6824  153.8623 H   0  0  0  0  0  0  0  0  0  0  0  0  # atno 10764 bound_to 10752
  153.8208  135.3204  155.3388 H   0  0  0  0  0  0  0  0  0  0  0  0  # atno 10765 bound_to 10752
  140.7215  133.8825  155.8824 H   0  0  0  0  0  0  0  0  0  0  0  0  # atno 11005 bound_to 11000
  145.4326  141.0416  143.2902 LP  0  0  0  0  0  0  0  0  0  0  0  0  # atno 17320 bound_to 7965
  144.8171  139.5857  143.7003 LP  0  0  0  0  0  0  0  0  0  0  0  0  # atno 17321 bound_to 7965
  139.6558  144.7662  151.2059 LP  0  0  0  0  0  0  0  0  0  0  0  0  # atno 17342 bound_to 10162
  140.7554  143.6088  150.8626 LP  0  0  0  0  0  0  0  0  0  0  0  0  # atno 17343 bound_to 10162
  157.5659  131.0946  150.9491 LP  0  0  0  0  0  0  0  0  0  0  0  0  # atno 17370 bound_to 10713
  156.9718  130.5494  149.5291 LP  0  0  0  0  0  0  0  0  0  0  0  0  # atno 17371 bound_to 10713
  141.0000  134.1163  157.4327 LP  0  0  0  0  0  0  0  0  0  0  0  0  # atno 17394 bound_to 11000
  139.8847  135.0065  156.6387 LP  0  0  0  0  0  0  0  0  0  0  0  0  # atno 17395 bound_to 11000

$$$$
