AV-unprocessed.smi:287|AV-procd|sdf|2204|dock6
  -GOLD-   2262022 23D 1   1.00000     0.00000
 Structure written by MMmdl.
 55 58  0  0  0  0  0  0  0  0  1 V2000
  152.0755  144.1963  159.8487 C   0  0  0  0  0  0  0  0  0  0  0  0
  151.7569  142.8242  159.3623 C   0  0  0  0  0  0  0  0  0  0  0  0
  152.4017  141.6237  159.4313 C   0  0  0  0  0  0  0  0  0  0  0  0
  151.5778  140.6587  158.7777 C   0  0  0  0  0  0  0  0  0  0  0  0
  151.8929  139.1790  158.6034 C   0  0  2  0  0  0  0  0  0  0  0  0
  152.1651  138.5418  159.9760 C   0  0  0  0  0  0  0  0  0  0  0  0
  153.0656  138.9543  157.8445 O   0  0  0  0  0  0  0  0  0  0  0  0
  150.7624  138.4138  157.8779 C   0  0  0  0  0  0  0  0  0  0  0  0
  149.5775  138.2336  158.7068 N   0  0  0  0  0  0  0  0  0  0  0  0
  149.1871  137.0068  159.1114 C   0  0  0  0  0  0  0  0  0  0  0  0
  149.5995  135.9815  158.3296 N   0  0  0  0  0  0  0  0  0  0  0  0
  149.2604  134.7273  158.6350 C   0  0  0  0  0  0  0  0  0  0  0  0
  148.5306  134.2892  159.6609 N   0  0  0  0  0  0  0  0  0  0  0  0
  148.1148  135.3112  160.4652 C   0  0  0  0  0  0  0  0  0  0  0  0
  148.3939  136.6944  160.2565 C   0  0  0  0  0  0  0  0  0  0  0  0
  147.7902  137.4396  161.2621 N   0  0  0  0  0  0  0  0  0  0  0  0
  147.1910  136.5532  162.0075 C   0  0  0  0  0  0  0  0  0  0  0  0
  147.3582  135.2408  161.6233 N   0  0  0  0  0  0  0  0  0  0  0  0
  146.7620  134.0202  162.2754 C   0  0  1  0  0  0  0  0  0  0  0  0
  145.5560  134.3658  162.8838 O   0  0  0  0  0  0  0  0  0  0  0  0
  144.4912  134.1599  161.9649 C   0  0  2  0  0  0  0  0  0  0  0  0
  143.1261  134.1892  162.6742 C   0  0  0  0  0  0  0  0  0  0  0  0
  142.1091  133.7864  161.7816 O   0  0  0  0  0  0  0  0  0  0  0  0
  144.8935  132.8190  161.3399 C   0  0  2  0  0  0  0  0  0  0  0  0
  144.5096  131.7410  162.1787 O   0  0  0  0  0  0  0  0  0  0  0  0
  146.4126  132.9575  161.2102 C   0  0  2  0  0  0  0  0  0  0  0  0
  147.0982  131.7325  161.3948 O   0  0  0  0  0  0  0  0  0  0  0  0
  150.4855  141.3696  158.3419 C   0  0  0  0  0  0  0  0  0  0  0  0
  149.2533  141.0118  157.5787 C   0  0  0  0  0  0  0  0  0  0  0  0
  150.5842  142.6812  158.6962 O   0  0  0  0  0  0  0  0  0  0  0  0
  147.5076  133.7103  163.0087 H   0  0  0  0  0  0  0  0  0  0  0  0
  144.5272  134.9284  161.1897 H   0  0  0  0  0  0  0  0  0  0  0  0
  144.4217  132.6728  160.3678 H   0  0  0  0  0  0  0  0  0  0  0  0
  146.6441  133.3374  160.2148 H   0  0  0  0  0  0  0  0  0  0  0  0
  152.9012  144.1748  160.5600 H   0  0  0  0  0  0  0  0  0  0  0  0
  151.2136  144.6414  160.3462 H   0  0  0  0  0  0  0  0  0  0  0  0
  152.3596  144.8433  159.0187 H   0  0  0  0  0  0  0  0  0  0  0  0
  153.3579  141.4538  159.9036 H   0  0  0  0  0  0  0  0  0  0  0  0
  151.2960  138.6262  160.6298 H   0  0  0  0  0  0  0  0  0  0  0  0
  153.0024  139.0271  160.4796 H   0  0  0  0  0  0  0  0  0  0  0  0
  152.4042  137.4814  159.8854 H   0  0  0  0  0  0  0  0  0  0  0  0
  152.8221  138.5376  157.0322 H   0  0  0  0  0  0  0  0  0  0  0  0
  150.4984  138.9084  156.9419 H   0  0  0  0  0  0  0  0  0  0  0  0
  151.1308  137.4201  157.6196 H   0  0  0  0  0  0  0  0  0  0  0  0
  149.0854  139.0806  158.9539 H   0  0  0  0  0  0  0  0  0  0  0  0
  149.6260  133.9653  157.9626 H   0  0  0  0  0  0  0  0  0  0  0  0
  146.6079  136.8382  162.8711 H   0  0  0  0  0  0  0  0  0  0  0  0
  143.1226  133.4900  163.5107 H   0  0  0  0  0  0  0  0  0  0  0  0
  142.9062  135.1793  163.0744 H   0  0  0  0  0  0  0  0  0  0  0  0
  141.6499  133.0527  162.1607 H   0  0  0  0  0  0  0  0  0  0  0  0
  144.5025  132.0488  163.0724 H   0  0  0  0  0  0  0  0  0  0  0  0
  147.9850  131.8341  161.0848 H   0  0  0  0  0  0  0  0  0  0  0  0
  149.5096  140.5121  156.6446 H   0  0  0  0  0  0  0  0  0  0  0  0
  148.6684  141.8989  157.3348 H   0  0  0  0  0  0  0  0  0  0  0  0
  148.6203  140.3419  158.1606 H   0  0  0  0  0  0  0  0  0  0  0  0
  1  2  1  0  0  0  0
  1 35  1  0  0  0  0
  1 36  1  0  0  0  0
  1 37  1  0  0  0  0
  2 30  1  0  0  0  0
  2  3  2  0  0  0  0
  3  4  1  0  0  0  0
  3 38  1  0  0  0  0
  4  5  1  0  0  0  0
  4 28  2  0  0  0  0
  5  6  1  0  0  0  0
  5  7  1  0  0  0  0
  5  8  1  0  0  0  0
  6 39  1  0  0  0  0
  6 40  1  0  0  0  0
  6 41  1  0  0  0  0
  7 42  1  0  0  0  0
  8  9  1  0  0  0  0
  8 43  1  0  0  0  0
  8 44  1  0  0  0  0
  9 10  1  0  0  0  0
  9 45  1  0  0  0  0
 10 15  1  0  0  0  0
 10 11  2  0  0  0  0
 11 12  1  0  0  0  0
 12 13  2  0  0  0  0
 12 46  1  0  0  0  0
 13 14  1  0  0  0  0
 14 18  1  0  0  0  0
 14 15  2  0  0  0  0
 15 16  1  0  0  0  0
 16 17  2  0  0  0  0
 17 18  1  0  0  0  0
 17 47  1  0  0  0  0
 18 19  1  0  0  0  0
 19 31  1  0  0  0  0
 19 26  1  0  0  0  0
 19 20  1  0  0  0  0
 20 21  1  0  0  0  0
 21 32  1  0  0  0  0
 21 22  1  0  0  0  0
 21 24  1  0  0  0  0
 22 23  1  0  0  0  0
 22 48  1  0  0  0  0
 22 49  1  0  0  0  0
 23 50  1  0  0  0  0
 24 33  1  0  0  0  0
 24 25  1  0  0  0  0
 24 26  1  0  0  0  0
 25 51  1  0  0  0  0
 26 34  1  0  0  0  0
 26 27  1  0  0  0  0
 27 52  1  0  0  0  0
 28 29  1  0  0  0  0
 28 30  1  0  0  0  0
 29 53  1  0  0  0  0
 29 54  1  0  0  0  0
 29 55  1  0  0  0  0
M  END
> <s_m_source_file>
AV-unprocessed.smi

> <i_m_source_file_index>
287

> <i_lp_mmshare_version>
43012

> <i_f3d_flags>
0

> <s_epik_input>
W0NIM11jMVtjSF1jKGMobzEpW0NIM10pW0NAQF0oW0NIM10pKFtPSF0pW0NIMl1bTkhdYyhuW2NIXW4yKWMoYzIzKW5bY0hdbjNbQ0BASF00T1tDQEhdKFtDSDJdW09IXSlbQ0BASF0oW09IXSlbQ0BIXTRbT0hd

> <s_epik_cmdline>
J2VwaWtfcHl0aG9uJywgJy1waCcsICc3LjAnLCAnLXRuJywgJzgnLCAnLW1hJywgJzIwMCcsICctbWV0YWxfYmluZGluZycsICctaW1hZScsICc8aW5maWxlLm1hZT4nLCAnLW9tYWUnLCAnPG91dGZpbGUubWFlPic=

> <r_lp_tautomer_probability>
1

> <r_epik_Ionization_Penalty>
0.000992612

> <r_epik_Ionization_Penalty_Charging>
0

> <r_epik_Ionization_Penalty_Neutral>
0.000992612

> <r_epik_State_Penalty>
-0

> <r_epik_Charging_Adjusted_Penalty>
0

> <i_epik_Tot_Q>
0

> <i_epik_Tot_abs_Q>
0

> <r_epik_Metal_State_Penalty>
-0

> <b_epik_Metal_Only>
0

> <s_epik_Chemistry_Notes>
This compound contains an acetal/aminal-like group ( X-CH(R)-Y where X, Y are N, S, or O) that may be acid/base labile, releasing an aldehyde.

> <s_lp_Force_Field>
OPLS_2005

> <r_lp_Energy>
48.2808

> <b_lp_Chiralities_Consistent>
1

> <s_lp_Variant>
AV-unprocessed.smi:287-28

> <Gold.Version>
5.8.1

> <Gold.Id.Protein>
6NUR|6NUR_protein|mol2

> <Gold.PLP.Fitness>
52.0356

> <Gold.PLP.PLP>
-46.1188

> <Gold.PLP.part.hbond>
-4.3254

> <Gold.PLP.part.metal>
0.0000

> <Gold.PLP.part.buried>
-6.7215

> <Gold.PLP.part.nonpolar>
-34.1820

> <Gold.PLP.part.repulsive>
0.2441

> <Gold.PLP.ligand.clash>
0.0000

> <Gold.PLP.ligand.torsion>
1.0495

> <Gold.PLP.Chemscore.Hbond>
2.6257

> <Gold.PLP.Chemscore.CHOScore>
0.0000

> <Gold.PLP.Chemscore.Metal>
0.0000

> <Gold.Chemscore.Hbonds>
donor molecule, donor type, donor heavy atom, donor atom, acceptor molecule, acceptor atom, score
      P1  H  6931  6943       L1    16  0.85
      P1  H  6934  6947       L1    16  0.74
      P1  H  7997  8009       L1     7  0.27

> <Gold.PLP.Chemscore.Internal.Correction>
0.1389

> <Gold.Rescore>
     Score         DG    S(hbond)    S(metal)    S(lipo)     H(rot)  DE(clash)    DE(int)     intcor
      6.38      -9.81       2.41        0.00      83.44       5.27       0.07       3.37       ----

> <Gold.Chemscore.Fitness>
6.3755

> <Gold.Chemscore.DG>
-9.8094

> <Gold.Chemscore.ZeroCoef>
-5.4800

> <Gold.Chemscore.Hbond>
2.4103

> <Gold.Chemscore.Metal>
0.0000

> <Gold.Chemscore.Lipo>
83.4424

> <Gold.Chemscore.Internal_Hbond>
0.0000

> <Gold.Chemscore.DEClash>
0.0664

> <Gold.Chemscore.DEInternal>
3.3675

> <Gold.Chemscore.Rot>
5.2672

> <Gold.Chemscore.Internal.Correction>
   9.000000E+99

> <Gold.Chemscore.Hbonds>
donor molecule, donor type, donor heavy atom, donor atom, acceptor molecule, acceptor atom, score
      P1  H  6931  6943       L1    16  0.32
      P1  H  6934  6947       L1    16  0.72

> <Gold.Chemscore.Hbond.Weighted>
-8.0505

> <Gold.Chemscore.Metal.Weighted>
-0.0000

> <Gold.Chemscore.Lipo.Weighted>
-9.7628

> <Gold.Chemscore.Internal_Hbond.Weighted>
0.0000

> <Gold.Chemscore.DEClash.Weighted>
0.0664

> <Gold.Chemscore.DEInternal.Weighted>
3.3675

> <Gold.Chemscore.Rot.Weighted>
13.4839

> <Gold.Chemscore.Internal.Correction.Weighted>
   9.000000E+99

> <Gold.Protein.RotatedTorsions>
[ 6907 6896 6895 6894 ] final -102.82 input  -60.11 | X-H torsion
[ 7974 7965 7964 7962 ] final -134.32 input  175.53 | X-H torsion
[ 8008 7997 7996 7995 ] final  176.27 input   59.86 | X-H torsion
[ 10167 10162 10161 10158 ] final  140.50 input  -65.29 | X-H torsion
[ 10718 10713 10712 10709 ] final   32.51 input   66.30 | X-H torsion
[ 10763 10752 10751 10750 ] final   48.88 input  -60.55 | X-H torsion
[ 11005 11000 10999 10996 ] final -137.55 input  -57.11 | X-H torsion

> <Gold.Protein.ActiveResidues>
 VAL166  LYS551  ARG553  GLY616  TRP617  ASP618  TYR619  PRO620  LYS621  CYS622 
 ASP623  PHE694  ASN695  SER759  ASP760  ASP761  ALA762  ILE779  LEU786  VAL792 
 PHE793  MET794  SER795  GLU796  ALA797  LYS798  CYS799  TRP800  GLU811  SER814 

> <Gold.Protein.RotatedAtoms>
  150.7212  134.0524  159.3802 H   0  0  0  0  0  0  0  0  0  0  0  0  # atno 6907 bound_to 6896
  151.8501  135.0558  160.0467 H   0  0  0  0  0  0  0  0  0  0  0  0  # atno 6908 bound_to 6896
  152.2797  133.5423  159.5526 H   0  0  0  0  0  0  0  0  0  0  0  0  # atno 6909 bound_to 6896
  144.9114  140.6899  143.5023 H   0  0  0  0  0  0  0  0  0  0  0  0  # atno 7974 bound_to 7965
  156.0783  140.1388  156.9744 H   0  0  0  0  0  0  0  0  0  0  0  0  # atno 8008 bound_to 7997
  154.4570  140.0957  156.6836 H   0  0  0  0  0  0  0  0  0  0  0  0  # atno 8009 bound_to 7997
  155.5117  140.3454  155.4392 H   0  0  0  0  0  0  0  0  0  0  0  0  # atno 8010 bound_to 7997
  139.5047  144.6230  151.6004 H   0  0  0  0  0  0  0  0  0  0  0  0  # atno 10167 bound_to 10162
  157.2862  130.7280  149.6584 H   0  0  0  0  0  0  0  0  0  0  0  0  # atno 10718 bound_to 10713
  152.9789  135.5929  154.3999 H   0  0  0  0  0  0  0  0  0  0  0  0  # atno 10763 bound_to 10752
  154.3645  135.2767  155.2303 H   0  0  0  0  0  0  0  0  0  0  0  0  # atno 10764 bound_to 10752
  154.4285  135.6042  153.6109 H   0  0  0  0  0  0  0  0  0  0  0  0  # atno 10765 bound_to 10752
  140.8701  134.2062  157.4656 H   0  0  0  0  0  0  0  0  0  0  0  0  # atno 11005 bound_to 11000
  145.3448  139.1722  143.4466 LP  0  0  0  0  0  0  0  0  0  0  0  0  # atno 17320 bound_to 7965
  146.3160  140.3494  142.8655 LP  0  0  0  0  0  0  0  0  0  0  0  0  # atno 17321 bound_to 7965
  140.5939  143.9731  150.6342 LP  0  0  0  0  0  0  0  0  0  0  0  0  # atno 17342 bound_to 10162
  140.2921  143.3317  152.1053 LP  0  0  0  0  0  0  0  0  0  0  0  0  # atno 17343 bound_to 10162
  155.9665  130.4323  150.4956 LP  0  0  0  0  0  0  0  0  0  0  0  0  # atno 17370 bound_to 10713
  157.2910  131.0626  151.2134 LP  0  0  0  0  0  0  0  0  0  0  0  0  # atno 17371 bound_to 10713
  139.8711  134.9770  156.4942 LP  0  0  0  0  0  0  0  0  0  0  0  0  # atno 17394 bound_to 11000
  140.8583  133.8079  155.9239 LP  0  0  0  0  0  0  0  0  0  0  0  0  # atno 17395 bound_to 11000

$$$$
