AV-unprocessed.smi:1999|AV-procd|sdf|8099|dock9
  -GOLD-   2272010323D 1   1.00000     0.00000
 Structure written by MMmdl.
 38 39  0  0  0  0  0  0  0  0  3 V2000
  152.8052  139.0140  158.9771 C   0  0  0  0  0  0  0  0  0  0  0  0
  152.4252  138.8160  157.5496 C   0  0  0  0  0  0  0  0  0  0  0  0
  153.3153  138.5379  156.5935 N   0  0  0  0  0  0  0  0  0  0  0  0
  152.7184  138.3972  155.3494 N   0  0  0  0  0  0  0  0  0  0  0  0
  151.3876  138.5584  155.3835 C   0  0  0  0  0  0  0  0  0  0  0  0
  150.6220  138.4565  154.2846 N   0  5  0  0  0  0  0  0  0  0  0  0
  149.5407  139.2537  154.1437 C   0  0  0  0  0  0  0  0  0  0  0  0
  149.3262  140.3046  154.7515 O   0  0  0  0  0  0  0  0  0  0  0  0
  148.6360  138.7847  153.2707 N   0  0  0  0  0  0  0  0  0  0  0  0
  147.3164  139.3533  152.9887 C   0  0  1  0  0  0  0  0  0  0  0  0
  146.5398  138.4019  152.0686 C   0  0  0  0  0  0  0  0  0  0  0  0
  146.5483  139.6246  154.3023 C   0  0  0  0  0  0  0  0  0  0  0  0
  145.7855  140.8975  154.2634 N   0  3  0  0  0  0  0  0  0  0  0  0
  145.0091  141.1642  155.4970 C   0  0  0  0  0  0  0  0  0  0  0  0
  144.1619  142.4343  155.3173 C   0  0  0  0  0  0  0  0  0  0  0  0
  145.0119  143.5298  154.9967 O   0  0  0  0  0  0  0  0  0  0  0  0
  145.7167  143.3201  153.7783 C   0  0  0  0  0  0  0  0  0  0  0  0
  146.6094  142.0736  153.9037 C   0  0  0  0  0  0  0  0  0  0  0  0
  150.7640  138.9236  156.9913 S   0  0  0  0  0  0  0  0  0  0  0  0
  152.6079  138.1037  159.5435 H   0  0  0  0  0  0  0  0  0  0  0  0
  152.2254  139.8293  159.4098 H   0  0  0  0  0  0  0  0  0  0  0  0
  153.8648  139.2575  159.0614 H   0  0  0  0  0  0  0  0  0  0  0  0
  148.8695  137.9278  152.7900 H   0  0  0  0  0  0  0  0  0  0  0  0
  147.4333  140.2920  152.4456 H   0  0  0  0  0  0  0  0  0  0  0  0
  145.5605  138.8107  151.8188 H   0  0  0  0  0  0  0  0  0  0  0  0
  146.3845  137.4303  152.5391 H   0  0  0  0  0  0  0  0  0  0  0  0
  147.0755  138.2367  151.1330 H   0  0  0  0  0  0  0  0  0  0  0  0
  145.8804  138.7964  154.5437 H   0  0  0  0  0  0  0  0  0  0  0  0
  147.2765  139.6732  155.1134 H   0  0  0  0  0  0  0  0  0  0  0  0
  144.3588  140.3202  155.7261 H   0  0  0  0  0  0  0  0  0  0  0  0
  145.6886  141.2829  156.3422 H   0  0  0  0  0  0  0  0  0  0  0  0
  143.4131  142.2953  154.5355 H   0  0  0  0  0  0  0  0  0  0  0  0
  143.6241  142.6607  156.2379 H   0  0  0  0  0  0  0  0  0  0  0  0
  145.0124  143.2117  152.9517 H   0  0  0  0  0  0  0  0  0  0  0  0
  146.3250  144.1990  153.5654 H   0  0  0  0  0  0  0  0  0  0  0  0
  147.3780  142.2314  154.6618 H   0  0  0  0  0  0  0  0  0  0  0  0
  147.1197  141.8943  152.9566 H   0  0  0  0  0  0  0  0  0  0  0  0
  145.1139  140.7908  153.5151 H   0  0  0  0  0  0  0  0  0  0  0  0
  1  2  1  0  0  0  0
  1 20  1  0  0  0  0
  1 21  1  0  0  0  0
  1 22  1  0  0  0  0
  2 19  1  0  0  0  0
  2  3  2  0  0  0  0
  3  4  1  0  0  0  0
  4  5  2  0  0  0  0
  5  6  1  0  0  0  0
  5 19  1  0  0  0  0
  6  7  1  0  0  0  0
  7  8  2  0  0  0  0
  7  9  1  0  0  0  0
  9 10  1  0  0  0  0
  9 23  1  0  0  0  0
 10 11  1  0  0  0  0
 10 12  1  0  0  0  0
 10 24  1  0  0  0  0
 11 25  1  0  0  0  0
 11 26  1  0  0  0  0
 11 27  1  0  0  0  0
 12 13  1  0  0  0  0
 12 28  1  0  0  0  0
 12 29  1  0  0  0  0
 13 18  1  0  0  0  0
 13 14  1  0  0  0  0
 13 38  1  0  0  0  0
 14 15  1  0  0  0  0
 14 30  1  0  0  0  0
 14 31  1  0  0  0  0
 15 16  1  0  0  0  0
 15 32  1  0  0  0  0
 15 33  1  0  0  0  0
 16 17  1  0  0  0  0
 17 18  1  0  0  0  0
 17 34  1  0  0  0  0
 17 35  1  0  0  0  0
 18 36  1  0  0  0  0
 18 37  1  0  0  0  0
M  CHG  1   6  -1
M  CHG  1  13   1
M  END
> <s_m_source_file>
AV-unprocessed.smi

> <i_m_source_file_index>
1999

> <i_lp_mmshare_version>
43012

> <i_f3d_flags>
0

> <s_epik_input>
W0NIM11jMW5uYyhzMSlbTkhdQyg9TylbTkhdW0NASF0oW0NIM10pW0NIMl1OMltDSDJdW0NIMl1PW0NIMl1bQ0gyXTI=

> <s_epik_cmdline>
J2VwaWtfcHl0aG9uJywgJy1waCcsICc3LjAnLCAnLXRuJywgJzgnLCAnLW1hJywgJzIwMCcsICctbWV0YWxfYmluZGluZycsICctaW1hZScsICc8aW5maWxlLm1hZT4nLCAnLW9tYWUnLCAnPG91dGZpbGUubWFlPic=

> <r_lp_tautomer_probability>
1

> <r_epik_Ionization_Penalty>
3.39984

> <r_epik_Ionization_Penalty_Charging>
3.28696

> <r_epik_Ionization_Penalty_Neutral>
0.11288

> <r_epik_State_Penalty>
3.47917

> <r_epik_Charging_Adjusted_Penalty>
6.76613

> <i_epik_Tot_Q>
0

> <i_epik_Tot_abs_Q>
2

> <r_epik_Metal_State_Penalty>
1.13142

> <b_epik_Metal_Only>
1

> <s_lp_Force_Field>
OPLS_2005

> <r_lp_Energy>
12.2925

> <b_lp_Chiralities_Consistent>
1

> <s_lp_Variant>
AV-unprocessed.smi:1999-8

> <Gold.Version>
5.8.1

> <Gold.Id.Protein>
6NUR|6NUR_protein|mol2

> <Gold.PLP.Fitness>
38.6648

> <Gold.PLP.PLP>
-28.8306

> <Gold.PLP.part.hbond>
-4.0000

> <Gold.PLP.part.metal>
0.0000

> <Gold.PLP.part.buried>
-4.0454

> <Gold.PLP.part.nonpolar>
-22.0293

> <Gold.PLP.part.repulsive>
0.5899

> <Gold.PLP.ligand.clash>
0.0000

> <Gold.PLP.ligand.torsion>
0.9676

> <Gold.PLP.Chemscore.Hbond>
3.8800

> <Gold.PLP.Chemscore.CHOScore>
0.0000

> <Gold.PLP.Chemscore.Metal>
0.0000

> <Gold.Chemscore.Hbonds>
donor molecule, donor type, donor heavy atom, donor atom, acceptor molecule, acceptor atom, score
      L1  H     9    23       P1  7948  1.00
      L1  H    13    38       P1 10175  2.00
      P1  H  7997  8010       L1     3  0.91

> <Gold.PLP.Chemscore.Internal.Correction>
0.1294

> <Gold.Rescore>
     Score         DG    S(hbond)    S(metal)    S(lipo)     H(rot)  DE(clash)    DE(int)     intcor
     13.32     -15.59       2.51        0.00      49.80       1.60       0.06       2.21       ----

> <Gold.Chemscore.Fitness>
13.3242

> <Gold.Chemscore.DG>
-15.5944

> <Gold.Chemscore.ZeroCoef>
-5.4800

> <Gold.Chemscore.Hbond>
2.5130

> <Gold.Chemscore.Metal>
0.0000

> <Gold.Chemscore.Lipo>
49.7977

> <Gold.Chemscore.Internal_Hbond>
0.0000

> <Gold.Chemscore.DEClash>
0.0594

> <Gold.Chemscore.DEInternal>
2.2108

> <Gold.Chemscore.Rot>
1.6036

> <Gold.Chemscore.Internal.Correction>
   9.000000E+99

> <Gold.Chemscore.Hbonds>
donor molecule, donor type, donor heavy atom, donor atom, acceptor molecule, acceptor atom, score
      L1  H     9    23       P1  7948  1.00
      L1  H    13    38       P1 10175  0.88
      P1  H  7997  8010       L1     3  0.20

> <Gold.Chemscore.Hbond.Weighted>
-8.3934

> <Gold.Chemscore.Metal.Weighted>
-0.0000

> <Gold.Chemscore.Lipo.Weighted>
-5.8263

> <Gold.Chemscore.Internal_Hbond.Weighted>
0.0000

> <Gold.Chemscore.DEClash.Weighted>
0.0594

> <Gold.Chemscore.DEInternal.Weighted>
2.2108

> <Gold.Chemscore.Rot.Weighted>
4.1053

> <Gold.Chemscore.Internal.Correction.Weighted>
   9.000000E+99

> <Gold.Protein.RotatedTorsions>
[ 6907 6896 6895 6894 ] final  -54.10 input  -60.11 | X-H torsion
[ 7974 7965 7964 7962 ] final    6.22 input  175.53 | X-H torsion
[ 8008 7997 7996 7995 ] final   75.27 input   59.86 | X-H torsion
[ 10167 10162 10161 10158 ] final   11.62 input  -65.29 | X-H torsion
[ 10718 10713 10712 10709 ] final  -96.27 input   66.30 | X-H torsion
[ 10763 10752 10751 10750 ] final   90.70 input  -60.55 | X-H torsion
[ 11005 11000 10999 10996 ] final   54.77 input  -57.11 | X-H torsion

> <Gold.Protein.ActiveResidues>
 VAL166  LYS551  ARG553  GLY616  TRP617  ASP618  TYR619  PRO620  LYS621  CYS622 
 ASP623  PHE694  ASN695  SER759  ASP760  ASP761  ALA762  ILE779  LEU786  VAL792 
 PHE793  MET794  SER795  GLU796  ALA797  LYS798  CYS799  TRP800  GLU811  SER814 

> <Gold.Protein.RotatedAtoms>
  150.8368  134.7644  159.6898 H   0  0  0  0  0  0  0  0  0  0  0  0  # atno 6907 bound_to 6896
  152.4463  134.5485  159.9869 H   0  0  0  0  0  0  0  0  0  0  0  0  # atno 6908 bound_to 6896
  151.5633  133.3362  159.3011 H   0  0  0  0  0  0  0  0  0  0  0  0  # atno 6909 bound_to 6896
  146.2436  140.0266  142.8393 H   0  0  0  0  0  0  0  0  0  0  0  0  # atno 7974 bound_to 7965
  155.8105  140.3473  155.5455 H   0  0  0  0  0  0  0  0  0  0  0  0  # atno 8008 bound_to 7997
  155.8446  140.0947  157.1733 H   0  0  0  0  0  0  0  0  0  0  0  0  # atno 8009 bound_to 7997
  154.4006  140.1388  156.3757 H   0  0  0  0  0  0  0  0  0  0  0  0  # atno 8010 bound_to 7997
  140.6120  143.8387  150.7076 H   0  0  0  0  0  0  0  0  0  0  0  0  # atno 10167 bound_to 10162
  156.0059  130.5144  150.6201 H   0  0  0  0  0  0  0  0  0  0  0  0  # atno 10718 bound_to 10713
  153.2004  135.4424  155.0259 H   0  0  0  0  0  0  0  0  0  0  0  0  # atno 10763 bound_to 10752
  154.8143  135.3308  154.7221 H   0  0  0  0  0  0  0  0  0  0  0  0  # atno 10764 bound_to 10752
  153.7667  135.6987  153.4970 H   0  0  0  0  0  0  0  0  0  0  0  0  # atno 10765 bound_to 10752
  140.0660  134.5536  155.9098 H   0  0  0  0  0  0  0  0  0  0  0  0  # atno 11005 bound_to 11000
  145.1192  140.9452  143.4610 LP  0  0  0  0  0  0  0  0  0  0  0  0  # atno 17320 bound_to 7965
  145.0498  139.3191  143.5934 LP  0  0  0  0  0  0  0  0  0  0  0  0  # atno 17321 bound_to 7965
  140.1958  143.3999  152.1829 LP  0  0  0  0  0  0  0  0  0  0  0  0  # atno 17342 bound_to 10162
  139.5369  144.7218  151.4864 LP  0  0  0  0  0  0  0  0  0  0  0  0  # atno 17343 bound_to 10162
  157.4018  131.0811  151.1302 LP  0  0  0  0  0  0  0  0  0  0  0  0  # atno 17370 bound_to 10713
  157.1961  130.6373  149.5721 LP  0  0  0  0  0  0  0  0  0  0  0  0  # atno 17371 bound_to 10713
  141.1993  133.6606  156.5836 LP  0  0  0  0  0  0  0  0  0  0  0  0  # atno 17394 bound_to 11000
  140.3698  134.7615  157.4591 LP  0  0  0  0  0  0  0  0  0  0  0  0  # atno 17395 bound_to 11000

$$$$
