AV-unprocessed.smi:680|AV-procd|sdf|3323|dock6
  -GOLD-   22720 0293D 1   1.00000     0.00000
 Structure written by MMmdl.
 32 33  0  0  0  0  0  0  0  0  1 V2000
  150.9872  142.0851  156.3842 C   0  0  0  0  0  0  0  0  0  0  0  0
  150.6270  140.9288  155.4989 C   0  0  0  0  0  0  0  0  0  0  0  0
  149.3365  140.5219  155.0598 C   0  0  0  0  0  0  0  0  0  0  0  0
  149.6111  139.4259  154.2860 C   0  0  0  0  0  0  0  0  0  0  0  0
  148.7432  138.6346  153.6032 N   0  0  0  0  0  0  0  0  0  0  0  0
  147.3997  138.6868  153.5697 C   0  0  0  0  0  0  0  0  0  0  0  0
  146.7011  139.4980  154.1775 O   0  0  0  0  0  0  0  0  0  0  0  0
  146.9005  137.7234  152.7813 N   0  0  0  0  0  0  0  0  0  0  0  0
  145.4821  137.4738  152.5364 C   0  0  0  0  0  0  0  0  0  0  0  0
  145.2047  135.9843  152.2562 C   0  0  2  0  0  0  0  0  0  0  0  0
  145.8769  135.5364  150.9455 C   0  0  0  0  0  0  0  0  0  0  0  0
  145.8888  133.7309  150.7587 S   0  0  0  0  0  0  0  0  0  0  0  0
  144.1047  133.4093  150.7211 C   0  0  0  0  0  0  0  0  0  0  0  0
  143.4174  133.8528  152.0181 C   0  0  0  0  0  0  0  0  0  0  0  0
  143.4137  135.6578  152.1990 S   0  0  0  0  0  0  0  0  0  0  0  0
  150.9423  139.1760  154.2435 O   0  0  0  0  0  0  0  0  0  0  0  0
  151.5836  140.1436  155.0259 N   0  0  0  0  0  0  0  0  0  0  0  0
  150.0983  142.6355  156.6931 H   0  0  0  0  0  0  0  0  0  0  0  0
  151.6467  142.7837  155.8688 H   0  0  0  0  0  0  0  0  0  0  0  0
  151.4977  141.7462  157.2861 H   0  0  0  0  0  0  0  0  0  0  0  0
  148.3825  140.9738  155.2849 H   0  0  0  0  0  0  0  0  0  0  0  0
  149.1716  137.9009  153.0583 H   0  0  0  0  0  0  0  0  0  0  0  0
  147.5523  137.1032  152.3234 H   0  0  0  0  0  0  0  0  0  0  0  0
  144.8592  137.8235  153.3616 H   0  0  0  0  0  0  0  0  0  0  0  0
  145.1977  138.0708  151.6695 H   0  0  0  0  0  0  0  0  0  0  0  0
  145.6233  135.4003  153.0771 H   0  0  0  0  0  0  0  0  0  0  0  0
  145.3847  135.9881  150.0835 H   0  0  0  0  0  0  0  0  0  0  0  0
  146.9151  135.8688  150.9247 H   0  0  0  0  0  0  0  0  0  0  0  0
  143.6634  133.9121  149.8600 H   0  0  0  0  0  0  0  0  0  0  0  0
  143.9576  132.3393  150.5738 H   0  0  0  0  0  0  0  0  0  0  0  0
  142.3818  133.5126  152.0191 H   0  0  0  0  0  0  0  0  0  0  0  0
  143.9003  133.4015  152.8853 H   0  0  0  0  0  0  0  0  0  0  0  0
  1  2  1  0  0  0  0
  1 18  1  0  0  0  0
  1 19  1  0  0  0  0
  1 20  1  0  0  0  0
  2 17  2  0  0  0  0
  2  3  1  0  0  0  0
  3  4  2  0  0  0  0
  3 21  1  0  0  0  0
  4  5  1  0  0  0  0
  4 16  1  0  0  0  0
  5  6  1  0  0  0  0
  5 22  1  0  0  0  0
  6  7  2  0  0  0  0
  6  8  1  0  0  0  0
  8  9  1  0  0  0  0
  8 23  1  0  0  0  0
  9 10  1  0  0  0  0
  9 24  1  0  0  0  0
  9 25  1  0  0  0  0
 10 15  1  0  0  0  0
 10 11  1  0  0  0  0
 10 26  1  0  0  0  0
 11 12  1  0  0  0  0
 11 27  1  0  0  0  0
 11 28  1  0  0  0  0
 12 13  1  0  0  0  0
 13 14  1  0  0  0  0
 13 29  1  0  0  0  0
 13 30  1  0  0  0  0
 14 15  1  0  0  0  0
 14 31  1  0  0  0  0
 14 32  1  0  0  0  0
 16 17  1  0  0  0  0
M  END
> <s_m_source_file>
AV-unprocessed.smi

> <i_m_source_file_index>
680

> <i_lp_mmshare_version>
43012

> <i_f3d_flags>
0

> <s_epik_input>
W0NIM11jMVtjSF1jKG9uMSlbTkhdQyg9TylbTkhdW0NIMl1bQ0BASF0yW0NIMl1TW0NIMl1bQ0gyXVMy

> <s_epik_cmdline>
J2VwaWtfcHl0aG9uJywgJy1waCcsICc3LjAnLCAnLXRuJywgJzgnLCAnLW1hJywgJzIwMCcsICctbWV0YWxfYmluZGluZycsICctaW1hZScsICc8aW5maWxlLm1hZT4nLCAnLW9tYWUnLCAnPG91dGZpbGUubWFlPic=

> <r_epik_Ionization_Penalty>
0.000554698

> <r_epik_Ionization_Penalty_Charging>
0

> <r_epik_Ionization_Penalty_Neutral>
0.000554698

> <r_epik_State_Penalty>
0.000333438

> <r_epik_Charging_Adjusted_Penalty>
0.000333438

> <i_epik_Tot_Q>
0

> <i_epik_Tot_abs_Q>
0

> <r_epik_Metal_State_Penalty>
-0

> <b_epik_Metal_Only>
0

> <s_lp_Force_Field>
OPLS_2005

> <r_lp_Energy>
4.32293

> <b_lp_Chiralities_Consistent>
1

> <s_lp_Variant>
AV-unprocessed.smi:680-1

> <Gold.Version>
5.8.1

> <Gold.Id.Protein>
6NUR|6NUR_protein|mol2

> <Gold.PLP.Fitness>
36.3809

> <Gold.PLP.PLP>
-30.8341

> <Gold.PLP.part.hbond>
-5.0000

> <Gold.PLP.part.metal>
0.0000

> <Gold.PLP.part.buried>
-4.3756

> <Gold.PLP.part.nonpolar>
-22.0564

> <Gold.PLP.part.repulsive>
0.4088

> <Gold.PLP.ligand.clash>
0.0000

> <Gold.PLP.ligand.torsion>
0.2152

> <Gold.PLP.Chemscore.Hbond>
1.9913

> <Gold.PLP.Chemscore.CHOScore>
0.0000

> <Gold.PLP.Chemscore.Metal>
0.0000

> <Gold.Chemscore.Hbonds>
donor molecule, donor type, donor heavy atom, donor atom, acceptor molecule, acceptor atom, score
      L1  H     5    22       P1  7948  0.99
      L1  H     8    23       P1  7948  1.00

> <Gold.PLP.Chemscore.Internal.Correction>
0.0035

> <Gold.Rescore>
     Score         DG    S(hbond)    S(metal)    S(lipo)     H(rot)  DE(clash)    DE(int)     intcor
     14.33     -15.79       1.93        0.00      60.65       1.26       0.09       1.37       ----

> <Gold.Chemscore.Fitness>
14.3296

> <Gold.Chemscore.DG>
-15.7911

> <Gold.Chemscore.ZeroCoef>
-5.4800

> <Gold.Chemscore.Hbond>
1.9275

> <Gold.Chemscore.Metal>
0.0000

> <Gold.Chemscore.Lipo>
60.6534

> <Gold.Chemscore.Internal_Hbond>
0.0000

> <Gold.Chemscore.DEClash>
0.0897

> <Gold.Chemscore.DEInternal>
1.3719

> <Gold.Chemscore.Rot>
1.2590

> <Gold.Chemscore.Internal.Correction>
   9.000000E+99

> <Gold.Chemscore.Hbonds>
donor molecule, donor type, donor heavy atom, donor atom, acceptor molecule, acceptor atom, score
      L1  H     5    22       P1  7948  0.86
      L1  H     8    23       P1  7948  1.00

> <Gold.Chemscore.Hbond.Weighted>
-6.4378

> <Gold.Chemscore.Metal.Weighted>
-0.0000

> <Gold.Chemscore.Lipo.Weighted>
-7.0965

> <Gold.Chemscore.Internal_Hbond.Weighted>
0.0000

> <Gold.Chemscore.DEClash.Weighted>
0.0897

> <Gold.Chemscore.DEInternal.Weighted>
1.3719

> <Gold.Chemscore.Rot.Weighted>
3.2232

> <Gold.Chemscore.Internal.Correction.Weighted>
   9.000000E+99

> <Gold.Protein.RotatedTorsions>
[ 6907 6896 6895 6894 ] final  156.28 input  -60.11 | X-H torsion
[ 7974 7965 7964 7962 ] final   15.03 input  175.53 | X-H torsion
[ 8008 7997 7996 7995 ] final   -5.33 input   59.86 | X-H torsion
[ 10167 10162 10161 10158 ] final   63.34 input  -65.29 | X-H torsion
[ 10718 10713 10712 10709 ] final   -0.96 input   66.30 | X-H torsion
[ 10763 10752 10751 10750 ] final   12.12 input  -60.55 | X-H torsion
[ 11005 11000 10999 10996 ] final   10.26 input  -57.11 | X-H torsion

> <Gold.Protein.ActiveResidues>
 VAL166  LYS551  ARG553  GLY616  TRP617  ASP618  TYR619  PRO620  LYS621  CYS622 
 ASP623  PHE694  ASN695  SER759  ASP760  ASP761  ALA762  ILE779  LEU786  VAL792 
 PHE793  MET794  SER795  GLU796  ALA797  LYS798  CYS799  TRP800  GLU811  SER814 

> <Gold.Protein.RotatedAtoms>
  152.0320  133.3941  159.4300 H   0  0  0  0  0  0  0  0  0  0  0  0  # atno 6907 bound_to 6896
  150.6881  134.3510  159.4918 H   0  0  0  0  0  0  0  0  0  0  0  0  # atno 6908 bound_to 6896
  152.1298  134.9143  160.0610 H   0  0  0  0  0  0  0  0  0  0  0  0  # atno 6909 bound_to 6896
  146.2289  139.8954  142.8548 H   0  0  0  0  0  0  0  0  0  0  0  0  # atno 7974 bound_to 7965
  154.6050  140.2461  155.7742 H   0  0  0  0  0  0  0  0  0  0  0  0  # atno 8008 bound_to 7997
  156.2335  140.2958  156.0203 H   0  0  0  0  0  0  0  0  0  0  0  0  # atno 8009 bound_to 7997
  155.2146  140.0398  157.2929 H   0  0  0  0  0  0  0  0  0  0  0  0  # atno 8010 bound_to 7997
  140.1341  144.4615  150.6848 H   0  0  0  0  0  0  0  0  0  0  0  0  # atno 10167 bound_to 10162
  156.8127  130.5430  149.5707 H   0  0  0  0  0  0  0  0  0  0  0  0  # atno 10718 bound_to 10713
  153.1855  135.6834  153.8421 H   0  0  0  0  0  0  0  0  0  0  0  0  # atno 10763 bound_to 10752
  153.7738  135.3192  155.3357 H   0  0  0  0  0  0  0  0  0  0  0  0  # atno 10764 bound_to 10752
  154.8086  135.4732  154.0553 H   0  0  0  0  0  0  0  0  0  0  0  0  # atno 10765 bound_to 10752
  140.5165  134.0601  155.7832 H   0  0  0  0  0  0  0  0  0  0  0  0  # atno 11005 bound_to 11000
  145.2376  140.9997  143.3954 LP  0  0  0  0  0  0  0  0  0  0  0  0  # atno 17320 bound_to 7965
  144.9479  139.4116  143.6417 LP  0  0  0  0  0  0  0  0  0  0  0  0  # atno 17321 bound_to 7965
  140.6799  143.2322  151.5410 LP  0  0  0  0  0  0  0  0  0  0  0  0  # atno 17342 bound_to 10162
  139.5504  144.2409  152.1521 LP  0  0  0  0  0  0  0  0  0  0  0  0  # atno 17343 bound_to 10162
  156.1035  130.5986  150.9932 LP  0  0  0  0  0  0  0  0  0  0  0  0  # atno 17370 bound_to 10713
  157.6497  131.0899  150.8077 LP  0  0  0  0  0  0  0  0  0  0  0  0  # atno 17371 bound_to 10713
  141.1357  133.9225  157.2438 LP  0  0  0  0  0  0  0  0  0  0  0  0  # atno 17394 bound_to 11000
  139.9630  135.0149  156.9311 LP  0  0  0  0  0  0  0  0  0  0  0  0  # atno 17395 bound_to 11000

$$$$
