AV-unprocessed.smi:2279|AV-procd|sdf|9188|dock2
  -GOLD-   2272012403D 1   1.00000     0.00000
 Structure written by MMmdl.
 57 59  0  0  0  0  0  0  0  0  2 V2000
  136.9056  139.9839  152.6550 C   0  0  0  0  0  0  0  0  0  0  0  0
  136.9044  138.6998  153.4575 C   0  0  0  0  0  0  0  0  0  0  0  0
  135.7111  138.1918  154.0055 C   0  0  0  0  0  0  0  0  0  0  0  0
  135.7757  136.9935  154.7432 C   0  0  0  0  0  0  0  0  0  0  0  0
  134.5313  136.3900  155.3597 C   0  0  0  0  0  0  0  0  0  0  0  0
  136.9258  136.3171  154.9503 N   0  0  0  0  0  0  0  0  0  0  0  0
  138.0816  136.7978  154.4286 C   0  0  0  0  0  0  0  0  0  0  0  0
  139.3413  136.1609  154.5850 N   0  0  0  0  0  0  0  0  0  0  0  0
  140.4476  136.3110  153.8355 C   0  0  0  0  0  0  0  0  0  0  0  0
  140.5435  137.0319  152.8417 O   0  0  0  0  0  0  0  0  0  0  0  0
  141.4557  135.5606  154.3039 N   0  0  0  0  0  0  0  0  0  0  0  0
  142.7906  135.4850  153.7174 C   0  0  0  0  0  0  0  0  0  0  0  0
  142.7537  134.7743  152.3582 C   0  0  0  0  0  0  0  0  0  0  0  0
  144.1753  134.5678  151.8087 C   0  0  0  0  0  0  0  0  0  0  0  0
  144.9964  133.7598  152.7257 N   0  0  0  0  0  0  0  0  0  0  0  0
  146.3021  133.4535  152.1008 C   0  0  2  0  0  0  0  0  0  0  0  0
  146.1275  132.6694  150.7752 C   0  0  0  0  0  0  0  0  0  0  0  0
  145.6863  131.2141  151.0166 C   0  0  0  0  0  0  0  0  0  0  0  0
  146.6424  130.4999  151.8973 N   0  3  2  0  0  0  0  0  0  0  0  0
  146.2934  129.0733  152.0680 C   0  0  0  0  0  0  0  0  0  0  0  0
  146.8304  131.1936  153.1942 C   0  0  0  0  0  0  0  0  0  0  0  0
  147.2909  132.6464  152.9806 C   0  0  0  0  0  0  0  0  0  0  0  0
  145.1080  134.4929  153.9964 C   0  0  0  0  0  0  0  0  0  0  0  0
  143.7286  134.7066  154.6452 C   0  0  0  0  0  0  0  0  0  0  0  0
  138.1038  137.9914  153.6727 C   0  0  0  0  0  0  0  0  0  0  0  0
  135.8903  140.3008  152.4145 H   0  0  0  0  0  0  0  0  0  0  0  0
  137.4495  139.8481  151.7197 H   0  0  0  0  0  0  0  0  0  0  0  0
  137.3878  140.7807  153.2215 H   0  0  0  0  0  0  0  0  0  0  0  0
  134.7719  138.7068  153.8649 H   0  0  0  0  0  0  0  0  0  0  0  0
  133.6296  136.8785  154.9896 H   0  0  0  0  0  0  0  0  0  0  0  0
  134.5584  136.4976  156.4443 H   0  0  0  0  0  0  0  0  0  0  0  0
  134.4634  135.3280  155.1213 H   0  0  0  0  0  0  0  0  0  0  0  0
  139.4088  135.5197  155.3611 H   0  0  0  0  0  0  0  0  0  0  0  0
  141.2882  134.9995  155.1260 H   0  0  0  0  0  0  0  0  0  0  0  0
  143.1911  136.4924  153.5873 H   0  0  0  0  0  0  0  0  0  0  0  0
  142.2548  133.8083  152.4504 H   0  0  0  0  0  0  0  0  0  0  0  0
  142.1686  135.3583  151.6467 H   0  0  0  0  0  0  0  0  0  0  0  0
  144.0804  134.0951  150.8344 H   0  0  0  0  0  0  0  0  0  0  0  0
  144.6521  135.5345  151.6380 H   0  0  0  0  0  0  0  0  0  0  0  0
  146.7839  134.4078  151.8808 H   0  0  0  0  0  0  0  0  0  0  0  0
  145.4411  133.1514  150.0824 H   0  0  0  0  0  0  0  0  0  0  0  0
  147.0845  132.6562  150.2520 H   0  0  0  0  0  0  0  0  0  0  0  0
  144.6896  131.1909  151.4604 H   0  0  0  0  0  0  0  0  0  0  0  0
  145.6176  130.6933  150.0608 H   0  0  0  0  0  0  0  0  0  0  0  0
  145.3352  128.9637  152.5774 H   0  0  0  0  0  0  0  0  0  0  0  0
  147.0544  128.5581  152.6550 H   0  0  0  0  0  0  0  0  0  0  0  0
  146.2266  128.5744  151.1007 H   0  0  0  0  0  0  0  0  0  0  0  0
  145.8992  131.1698  153.7625 H   0  0  0  0  0  0  0  0  0  0  0  0
  147.5756  130.6602  153.7854 H   0  0  0  0  0  0  0  0  0  0  0  0
  148.2561  132.6222  152.4726 H   0  0  0  0  0  0  0  0  0  0  0  0
  147.5048  133.1358  153.9298 H   0  0  0  0  0  0  0  0  0  0  0  0
  145.6985  133.9288  154.7157 H   0  0  0  0  0  0  0  0  0  0  0  0
  145.6113  135.4479  153.8382 H   0  0  0  0  0  0  0  0  0  0  0  0
  143.8454  135.2404  155.5889 H   0  0  0  0  0  0  0  0  0  0  0  0
  143.2924  133.7367  154.8902 H   0  0  0  0  0  0  0  0  0  0  0  0
  139.0316  138.3633  153.2623 H   0  0  0  0  0  0  0  0  0  0  0  0
  147.5362  130.5220  151.4275 H   0  0  0  0  0  0  0  0  0  0  0  0
  1  2  1  0  0  0  0
  1 26  1  0  0  0  0
  1 27  1  0  0  0  0
  1 28  1  0  0  0  0
  2 25  1  0  0  0  0
  2  3  2  0  0  0  0
  3  4  1  0  0  0  0
  3 29  1  0  0  0  0
  4  5  1  0  0  0  0
  4  6  2  0  0  0  0
  5 30  1  0  0  0  0
  5 31  1  0  0  0  0
  5 32  1  0  0  0  0
  6  7  1  0  0  0  0
  7  8  1  0  0  0  0
  7 25  2  0  0  0  0
  8  9  1  0  0  0  0
  8 33  1  0  0  0  0
  9 10  2  0  0  0  0
  9 11  1  0  0  0  0
 11 12  1  0  0  0  0
 11 34  1  0  0  0  0
 12 24  1  0  0  0  0
 12 13  1  0  0  0  0
 12 35  1  0  0  0  0
 13 14  1  0  0  0  0
 13 36  1  0  0  0  0
 13 37  1  0  0  0  0
 14 15  1  0  0  0  0
 14 38  1  0  0  0  0
 14 39  1  0  0  0  0
 15 16  1  0  0  0  0
 15 23  1  0  0  0  0
 16 22  1  0  0  0  0
 16 17  1  0  0  0  0
 16 40  1  0  0  0  0
 17 18  1  0  0  0  0
 17 41  1  0  0  0  0
 17 42  1  0  0  0  0
 18 19  1  0  0  0  0
 18 43  1  0  0  0  0
 18 44  1  0  0  0  0
 19 20  1  0  0  0  0
 19 21  1  0  0  0  0
 19 57  1  0  0  0  0
 20 45  1  0  0  0  0
 20 46  1  0  0  0  0
 20 47  1  0  0  0  0
 21 22  1  0  0  0  0
 21 48  1  0  0  0  0
 21 49  1  0  0  0  0
 22 50  1  0  0  0  0
 22 51  1  0  0  0  0
 23 24  1  0  0  0  0
 23 52  1  0  0  0  0
 23 53  1  0  0  0  0
 24 54  1  0  0  0  0
 24 55  1  0  0  0  0
 25 56  1  0  0  0  0
M  CHG  1  19   1
M  END
> <s_m_source_file>
AV-unprocessed.smi

> <i_m_source_file_index>
2279

> <i_lp_mmshare_version>
43012

> <i_f3d_flags>
0

> <s_epik_input>
W0NIM11jMVtjSF1jKFtDSDNdKW5jKFtjSF0xKVtOSF1DKD1PKVtOSF1bQ0hdMltDSDJdW0NIMl1OKFtDSDJdW0NIMl0yKVtDSF0zW0NIMl1bQ0gyXU4oW0NIM10pW0NIMl1bQ0gyXTM=

> <s_epik_cmdline>
J2VwaWtfcHl0aG9uJywgJy1waCcsICc3LjAnLCAnLXRuJywgJzgnLCAnLW1hJywgJzIwMCcsICctbWV0YWxfYmluZGluZycsICctaW1hZScsICc8aW5maWxlLm1hZT4nLCAnLW9tYWUnLCAnPG91dGZpbGUubWFlPic=

> <r_epik_Ionization_Penalty>
1.01001

> <r_epik_Ionization_Penalty_Charging>
0.000974969

> <r_epik_Ionization_Penalty_Neutral>
1.00904

> <r_epik_State_Penalty>
1.10286

> <r_epik_Charging_Adjusted_Penalty>
1.10383

> <i_epik_Tot_Q>
1

> <i_epik_Tot_abs_Q>
1

> <r_epik_Metal_State_Penalty>
1.10279

> <b_epik_Metal_Only>
0

> <s_lp_Force_Field>
OPLS_2005

> <r_lp_Energy>
36.6633

> <b_lp_Chiralities_Consistent>
1

> <s_lp_Variant>
AV-unprocessed.smi:2279-6

> <Gold.Version>
5.8.1

> <Gold.Id.Protein>
6NUR|6NUR_protein|mol2

> <Gold.PLP.Fitness>
46.8847

> <Gold.PLP.PLP>
-38.6135

> <Gold.PLP.part.hbond>
-3.0000

> <Gold.PLP.part.metal>
0.0000

> <Gold.PLP.part.buried>
-7.0399

> <Gold.PLP.part.nonpolar>
-30.5499

> <Gold.PLP.part.repulsive>
0.5016

> <Gold.PLP.ligand.clash>
0.0000

> <Gold.PLP.ligand.torsion>
0.1698

> <Gold.PLP.Chemscore.Hbond>
2.8688

> <Gold.PLP.Chemscore.CHOScore>
0.0000

> <Gold.PLP.Chemscore.Metal>
0.0000

> <Gold.Chemscore.Hbonds>
donor molecule, donor type, donor heavy atom, donor atom, acceptor molecule, acceptor atom, score
      L1  H     8    33       P1 11000  0.88
      L1  H    11    34       P1 11000  1.00
      L1  H    19    57       P1 10747  1.00

> <Gold.PLP.Chemscore.Internal.Correction>
0.0045

> <Gold.Rescore>
     Score         DG    S(hbond)    S(metal)    S(lipo)     H(rot)  DE(clash)    DE(int)     intcor
     20.13     -21.99       2.44        0.00      97.70       1.20       0.08       1.78       ----

> <Gold.Chemscore.Fitness>
20.1333

> <Gold.Chemscore.DG>
-21.9874

> <Gold.Chemscore.ZeroCoef>
-5.4800

> <Gold.Chemscore.Hbond>
2.4384

> <Gold.Chemscore.Metal>
0.0000

> <Gold.Chemscore.Lipo>
97.6955

> <Gold.Chemscore.Internal_Hbond>
0.0000

> <Gold.Chemscore.DEClash>
0.0782

> <Gold.Chemscore.DEInternal>
1.7759

> <Gold.Chemscore.Rot>
1.1981

> <Gold.Chemscore.Internal.Correction>
   9.000000E+99

> <Gold.Chemscore.Hbonds>
donor molecule, donor type, donor heavy atom, donor atom, acceptor molecule, acceptor atom, score
      L1  H     8    33       P1 11000  0.46
      L1  H    11    34       P1 11000  0.72
      L1  H    19    57       P1 10747  1.00

> <Gold.Chemscore.Hbond.Weighted>
-8.1443

> <Gold.Chemscore.Metal.Weighted>
-0.0000

> <Gold.Chemscore.Lipo.Weighted>
-11.4304

> <Gold.Chemscore.Internal_Hbond.Weighted>
0.0000

> <Gold.Chemscore.DEClash.Weighted>
0.0782

> <Gold.Chemscore.DEInternal.Weighted>
1.7759

> <Gold.Chemscore.Rot.Weighted>
3.0673

> <Gold.Chemscore.Internal.Correction.Weighted>
   9.000000E+99

> <Gold.Protein.RotatedTorsions>
[ 6907 6896 6895 6894 ] final  151.06 input  -60.11 | X-H torsion
[ 7974 7965 7964 7962 ] final   82.89 input  175.53 | X-H torsion
[ 8008 7997 7996 7995 ] final -167.02 input   59.86 | X-H torsion
[ 10167 10162 10161 10158 ] final   54.88 input  -65.29 | X-H torsion
[ 10718 10713 10712 10709 ] final  -47.77 input   66.30 | X-H torsion
[ 10763 10752 10751 10750 ] final  101.49 input  -60.55 | X-H torsion
[ 11005 11000 10999 10996 ] final -161.44 input  -57.11 | X-H torsion

> <Gold.Protein.ActiveResidues>
 VAL166  LYS551  ARG553  GLY616  TRP617  ASP618  TYR619  PRO620  LYS621  CYS622 
 ASP623  PHE694  ASN695  SER759  ASP760  ASP761  ALA762  ILE779  LEU786  VAL792 
 PHE793  MET794  SER795  GLU796  ALA797  LYS798  CYS799  TRP800  GLU811  SER814 

> <Gold.Protein.RotatedAtoms>
  152.1059  133.4274  159.4608 H   0  0  0  0  0  0  0  0  0  0  0  0  # atno 6907 bound_to 6896
  150.6865  134.2705  159.4595 H   0  0  0  0  0  0  0  0  0  0  0  0  # atno 6908 bound_to 6896
  152.0570  134.9618  160.0625 H   0  0  0  0  0  0  0  0  0  0  0  0  # atno 6909 bound_to 6896
  145.6192  139.2382  143.2148 H   0  0  0  0  0  0  0  0  0  0  0  0  # atno 7974 bound_to 7965
  155.8719  140.0995  157.1544 H   0  0  0  0  0  0  0  0  0  0  0  0  # atno 8008 bound_to 7997
  154.3998  140.1345  156.4152 H   0  0  0  0  0  0  0  0  0  0  0  0  # atno 8009 bound_to 7997
  155.7741  140.3460  155.5265 H   0  0  0  0  0  0  0  0  0  0  0  0  # atno 8010 bound_to 7997
  140.2254  144.3744  150.6434 H   0  0  0  0  0  0  0  0  0  0  0  0  # atno 10167 bound_to 10162
  156.2053  130.4158  149.9187 H   0  0  0  0  0  0  0  0  0  0  0  0  # atno 10718 bound_to 10713
  153.3273  135.4043  155.1467 H   0  0  0  0  0  0  0  0  0  0  0  0  # atno 10763 bound_to 10752
  154.8615  135.3602  154.5516 H   0  0  0  0  0  0  0  0  0  0  0  0  # atno 10764 bound_to 10752
  153.5953  135.7072  153.5465 H   0  0  0  0  0  0  0  0  0  0  0  0  # atno 10765 bound_to 10752
  140.6203  134.4757  157.5223 H   0  0  0  0  0  0  0  0  0  0  0  0  # atno 11005 bound_to 11000
  146.1445  140.7012  142.9351 LP  0  0  0  0  0  0  0  0  0  0  0  0  # atno 17320 bound_to 7965
  144.7238  140.4460  143.6988 LP  0  0  0  0  0  0  0  0  0  0  0  0  # atno 17321 bound_to 7965
  140.6224  143.2177  151.6666 LP  0  0  0  0  0  0  0  0  0  0  0  0  # atno 17342 bound_to 10162
  139.5129  144.3461  152.0695 LP  0  0  0  0  0  0  0  0  0  0  0  0  # atno 17343 bound_to 10162
  156.6883  130.8885  151.3585 LP  0  0  0  0  0  0  0  0  0  0  0  0  # atno 17370 bound_to 10713
  157.7008  130.9331  150.0781 LP  0  0  0  0  0  0  0  0  0  0  0  0  # atno 17371 bound_to 10713
  139.9156  134.8253  156.1378 LP  0  0  0  0  0  0  0  0  0  0  0  0  # atno 17394 bound_to 11000
  141.0747  133.6781  156.2211 LP  0  0  0  0  0  0  0  0  0  0  0  0  # atno 17395 bound_to 11000

$$$$
